0:0
     RDKit          3D

 51 54  0  0  0  0  0  0  0  0999 V2000
   62.2860   33.8250   46.7220 C   0  0  0  0  0  0  0  0  0  0  0  0
   60.8680   33.8540   47.2980 C   0  0  0  0  0  0  0  0  0  0  0  0
   60.8790   34.2530   48.7780 C   0  0  0  0  0  0  0  0  0  0  0  0
   60.2190   32.5500   47.1160 N   0  0  0  0  0  0  0  0  0  0  0  0
   60.5890   31.3650   47.6680 C   0  0  0  0  0  0  0  0  0  0  0  0
   59.7630   30.3370   47.2120 C   0  0  0  0  0  0  0  0  0  0  0  0
   59.8530   28.9180   47.6090 C   0  0  0  0  0  0  0  0  0  0  0  0
   60.4960   28.6230   48.6520 O   0  0  0  0  0  0  0  0  0  0  0  0
   59.2410   27.8350   46.8080 C   0  0  0  0  0  0  0  0  0  0  0  0
   59.4210   27.7710   45.4180 C   0  0  0  0  0  0  0  0  0  0  0  0
   58.8910   26.7420   44.7050 N   0  0  0  0  0  0  0  0  0  0  0  0
   58.1640   25.7590   45.2960 C   0  0  0  0  0  0  0  0  0  0  0  0
   57.9390   25.7830   46.6810 C   0  0  0  0  0  0  0  0  0  0  0  0
   57.2030   24.7550   47.3590 N   0  0  0  0  0  0  0  0  0  0  0  0
   57.0970   23.3810   46.9650 C   0  0  0  0  0  0  0  0  0  0  0  0
   57.3020   22.4620   47.8040 O   0  0  0  0  0  0  0  0  0  0  0  0
   56.8630   23.0310   45.5470 C   0  0  0  0  0  0  0  0  0  0  0  0
   57.8660   22.3130   44.8700 C   0  0  0  0  0  0  0  0  0  0  0  0
   57.7250   21.9880   43.5200 C   0  0  0  0  0  0  0  0  0  0  0  0
   56.5790   22.3710   42.8270 C   0  0  0  0  0  0  0  0  0  0  0  0
   55.5630   23.0650   43.4850 C   0  0  0  0  0  0  0  0  0  0  0  0
   55.6810   23.3940   44.8470 C   0  0  0  0  0  0  0  0  0  0  0  0
   54.3110   24.1940   45.6390 S   0  0  0  0  0  0  0  0  0  0  0  0
   54.5470   25.9070   45.6440 N   0  0  0  0  0  0  0  0  0  0  0  0
   54.1980   23.7330   47.0650 O   0  0  0  0  0  0  0  0  0  0  0  0
   53.0370   23.8520   44.9160 O   0  0  0  0  0  0  0  0  0  0  0  0
   58.5110   26.8140   47.4350 C   0  0  0  0  0  0  0  0  0  0  0  0
   58.8520   30.9430   46.3630 C   0  0  0  0  0  0  0  0  0  0  0  0
   57.7530   30.4720   45.6510 C   0  0  0  0  0  0  0  0  0  0  0  0
   57.0430   31.3690   44.9050 N   0  0  0  0  0  0  0  0  0  0  0  0
   57.3920   32.6930   44.8600 C   0  0  0  0  0  0  0  0  0  0  0  0
   58.4580   33.1550   45.5790 N   0  0  0  0  0  0  0  0  0  0  0  0
   59.1680   32.2690   46.3240 C   0  0  0  0  0  0  0  0  0  0  0  0
   63.0158   33.8101   47.5449 H   0  0  0  0  0  0  0  0  0  0  0  0
   62.4122   32.9241   46.1036 H   0  0  0  0  0  0  0  0  0  0  0  0
   62.4489   34.7200   46.1036 H   0  0  0  0  0  0  0  0  0  0  0  0
   60.2907   34.6142   46.7514 H   0  0  0  0  0  0  0  0  0  0  0  0
   60.8540   33.3475   49.4021 H   0  0  0  0  0  0  0  0  0  0  0  0
   61.7932   34.8242   48.9970 H   0  0  0  0  0  0  0  0  0  0  0  0
   59.9976   34.8737   48.9970 H   0  0  0  0  0  0  0  0  0  0  0  0
   61.4220   31.2344   48.3745 H   0  0  0  0  0  0  0  0  0  0  0  0
   59.9933   28.5567   44.9030 H   0  0  0  0  0  0  0  0  0  0  0  0
   57.7502   24.9415   44.6873 H   0  0  0  0  0  0  0  0  0  0  0  0
   58.7724   22.0040   45.4114 H   0  0  0  0  0  0  0  0  0  0  0  0
   58.5191   21.4292   43.0031 H   0  0  0  0  0  0  0  0  0  0  0  0
   56.4748   22.1260   41.7597 H   0  0  0  0  0  0  0  0  0  0  0  0
   54.6587   23.3583   42.9316 H   0  0  0  0  0  0  0  0  0  0  0  0
   53.6460   26.3430   45.9410 H   0  0  0  0  0  0  0  0  0  0  0  0
   58.3873   26.8239   48.5280 H   0  0  0  0  0  0  0  0  0  0  0  0
   57.4653   29.4109   45.6879 H   0  0  0  0  0  0  0  0  0  0  0  0
   56.8091   33.3899   44.2399 H   0  0  0  0  0  0  0  0  0  0  0  0
  1  2  1  0
  2  3  1  0
  2  4  1  0
  4  5  1  0
  5  6  2  0
  6  7  1  0
  7  8  2  0
  7  9  1  0
  9 10  2  0
 10 11  1  0
 11 12  2  0
 12 13  1  0
 13 14  1  0
 14 15  1  0
 15 16  2  0
 15 17  1  0
 17 18  2  0
 18 19  1  0
 19 20  2  0
 20 21  1  0
 21 22  2  0
 22 23  1  0
 23 24  1  0
 23 25  2  0
 23 26  2  0
 13 27  2  0
  6 28  1  0
 28 29  2  0
 29 30  1  0
 30 31  2  0
 31 32  1  0
 32 33  2  0
 33  4  1  0
 27  9  1  0
 33 28  1  0
 22 17  1  0
  1 34  1  0
  1 35  1  0
  1 36  1  0
  2 37  1  0
  3 38  1  0
  3 39  1  0
  3 40  1  0
  5 41  1  0
 10 42  1  0
 12 43  1  0
 18 44  1  0
 19 45  1  0
 20 46  1  0
 21 47  1  0
 24 48  1  0
 27 49  1  0
 29 50  1  0
 31 51  1  0
M  CHG  2  14  -1  24  -1
M  END
>  <UniqueID>  (1) 
1

>  <SMILES>  (1) 
CC(C)n1cc(C(=O)c2cncc([N-]C(=O)c3ccccc3S([NH-])(=O)=O)c2)c2cncnc21

>  <Energy>  (1) 
104.11082859449537

>  <Genealogy>  (1) 
CC(C)n1cc(C(=O)c2cncc([N-]C(=O)c3ccccc3S([NH-])(=O)=O)c2)c2cncnc21 (protonated)
CC(C)n1cc(C(=O)c2cncc([N-]C(=O)c3ccccc3S([NH-])(=O)=O)c2)c2cncnc21 (3D coordinates assigned)
CC(C)n1cc(C(=O)c2cncc([N-]C(=O)c3ccccc3S([NH-])(=O)=O)c2)c2cncnc21 (optimized conformer: 104.11082859449537 kcal/mol)

>  <smiles>  (1) 
CC(C)n1cc(C(=O)c2cncc(NC(=O)c3ccccc3S(N)(=O)=O)c2)c2cncnc21

>  <score_type>  (1) 
oracle

>  <origin>  (1) 
adg

>  <m_score__min__energy>  (1) 
-14.24

>  <m_primary>  (1) 
energy

$$$$
1:0
     RDKit          3D

 46 48  0  0  0  0  0  0  0  0999 V2000
   59.6880   31.8020   50.3340 C   0  0  0  0  0  0  0  0  0  0  0  0
   58.8020   31.3760   49.3030 O   0  0  0  0  0  0  0  0  0  0  0  0
   59.1640   30.5320   48.2400 C   0  0  0  0  0  0  0  0  0  0  0  0
   58.6440   29.2290   48.1090 C   0  0  0  0  0  0  0  0  0  0  0  0
   59.0240   28.4080   47.0330 C   0  0  0  0  0  0  0  0  0  0  0  0
   58.4750   27.0390   46.8880 C   0  0  0  0  0  0  0  0  0  0  0  0
   59.1660   26.0510   47.2610 O   0  0  0  0  0  0  0  0  0  0  0  0
   57.1480   26.8260   46.3750 N   0  0  0  0  0  0  0  0  0  0  0  0
   56.6930   25.5670   45.8480 C   0  0  0  0  0  0  0  0  0  0  0  0
   57.6080   24.5570   45.4960 C   0  0  0  0  0  0  0  0  0  0  0  0
   57.1550   23.3470   44.9610 C   0  0  0  0  0  0  0  0  0  0  0  0
   55.7880   23.1390   44.7590 C   0  0  0  0  0  0  0  0  0  0  0  0
   54.8740   24.1410   45.0860 C   0  0  0  0  0  0  0  0  0  0  0  0
   55.3200   25.3540   45.6240 C   0  0  0  0  0  0  0  0  0  0  0  0
   54.3910   26.3390   45.9450 O   0  0  0  0  0  0  0  0  0  0  0  0
   59.9230   28.9120   46.0800 C   0  0  0  0  0  0  0  0  0  0  0  0
   60.4450   30.2000   46.2050 C   0  0  0  0  0  0  0  0  0  0  0  0
   60.0670   31.0200   47.2840 C   0  0  0  0  0  0  0  0  0  0  0  0
   60.5670   32.3210   47.4520 O   0  0  0  0  0  0  0  0  0  0  0  0
   60.5350   33.3620   46.4740 C   0  0  0  0  0  0  0  0  0  0  0  0
   59.3240   34.2870   46.6740 C   0  0  0  0  0  0  0  0  0  0  0  0
   57.9820   33.5390   46.6740 C   0  0  0  0  0  0  0  0  0  0  0  0
   57.8010   32.7150   45.4350 C   0  0  0  0  0  0  0  0  0  0  0  0
   58.1170   33.0990   44.1540 C   0  0  0  0  0  0  0  0  0  0  0  0
   57.8570   32.0770   43.3200 N   0  0  0  0  0  0  0  0  0  0  0  0
   57.3920   31.1010   44.1280 C   0  0  0  0  0  0  0  0  0  0  0  0
   57.3480   31.4500   45.4310 N   0  0  0  0  0  0  0  0  0  0  0  0
   59.2396   31.5864   51.3151 H   0  0  0  0  0  0  0  0  0  0  0  0
   60.6435   31.2648   50.2415 H   0  0  0  0  0  0  0  0  0  0  0  0
   59.8651   32.8837   50.2415 H   0  0  0  0  0  0  0  0  0  0  0  0
   57.9325   28.8498   48.8573 H   0  0  0  0  0  0  0  0  0  0  0  0
   56.4510   27.5960   46.4880 H   0  0  0  0  0  0  0  0  0  0  0  0
   58.6859   24.7205   45.6426 H   0  0  0  0  0  0  0  0  0  0  0  0
   57.8754   22.5582   44.6989 H   0  0  0  0  0  0  0  0  0  0  0  0
   55.4326   22.1851   44.3421 H   0  0  0  0  0  0  0  0  0  0  0  0
   53.7989   23.9773   44.9205 H   0  0  0  0  0  0  0  0  0  0  0  0
   60.2190   28.2852   45.2259 H   0  0  0  0  0  0  0  0  0  0  0  0
   61.1564   30.5766   45.4553 H   0  0  0  0  0  0  0  0  0  0  0  0
   61.4565   33.9572   46.5555 H   0  0  0  0  0  0  0  0  0  0  0  0
   60.4543   32.8985   45.4797 H   0  0  0  0  0  0  0  0  0  0  0  0
   59.4353   34.8045   47.6382 H   0  0  0  0  0  0  0  0  0  0  0  0
   59.3062   34.9885   45.8269 H   0  0  0  0  0  0  0  0  0  0  0  0
   57.9446   32.8757   47.5507 H   0  0  0  0  0  0  0  0  0  0  0  0
   57.1754   34.2862   46.7072 H   0  0  0  0  0  0  0  0  0  0  0  0
   58.5167   34.0806   43.8595 H   0  0  0  0  0  0  0  0  0  0  0  0
   57.0782   30.1134   43.7590 H   0  0  0  0  0  0  0  0  0  0  0  0
  1  2  1  0
  2  3  1  0
  3  4  2  0
  4  5  1  0
  5  6  1  0
  6  7  2  0
  6  8  1  0
  8  9  1  0
  9 10  2  0
 10 11  1  0
 11 12  2  0
 12 13  1  0
 13 14  2  0
 14 15  1  0
  5 16  2  0
 16 17  1  0
 17 18  2  0
 18 19  1  0
 19 20  1  0
 20 21  1  0
 21 22  1  0
 22 23  1  0
 23 24  2  0
 24 25  1  0
 25 26  1  0
 26 27  2  0
 18  3  1  0
 27 23  1  0
 14  9  1  0
  1 28  1  0
  1 29  1  0
  1 30  1  0
  4 31  1  0
  8 32  1  0
 10 33  1  0
 11 34  1  0
 12 35  1  0
 13 36  1  0
 16 37  1  0
 17 38  1  0
 20 39  1  0
 20 40  1  0
 21 41  1  0
 21 42  1  0
 22 43  1  0
 22 44  1  0
 24 45  1  0
 26 46  1  0
M  CHG  2  15  -1  25  -1
M  END
>  <UniqueID>  (2) 
2

>  <SMILES>  (2) 
COc1cc(C(=O)Nc2ccccc2[O-])ccc1OCCCc1c[n-]cn1

>  <Energy>  (2) 
77.37318082905568

>  <Genealogy>  (2) 
COc1cc(C(=O)Nc2ccccc2[O-])ccc1OCCCc1c[n-]cn1 (protonated)
COc1cc(C(=O)Nc2ccccc2[O-])ccc1OCCCc1c[n-]cn1 (3D coordinates assigned)
COc1cc(C(=O)Nc2ccccc2[O-])ccc1OCCCc1c[n-]cn1 (optimized conformer: 77.37318082905568 kcal/mol)

>  <smiles>  (2) 
COc1cc(C(=O)Nc2ccccc2O)ccc1OCCCc1c[nH]cn1

>  <score_type>  (2) 
oracle

>  <origin>  (2) 
adg

>  <m_score__min__energy>  (2) 
-11.890000000000001

>  <m_primary>  (2) 
energy

$$$$
2:0
     RDKit          3D

 50 53  0  0  0  0  0  0  0  0999 V2000
   59.1190   22.4320   44.8240 C   0  0  0  0  0  0  0  0  0  0  0  0
   57.8460   22.6490   44.1460 N   0  0  0  0  0  0  0  0  0  0  0  0
   57.0440   21.6980   43.6290 C   0  0  0  0  0  0  0  0  0  0  0  0
   55.9470   22.2120   43.0330 N   0  0  0  0  0  0  0  0  0  0  0  0
   56.0770   23.5470   43.1780 C   0  0  0  0  0  0  0  0  0  0  0  0
   57.2520   23.8210   43.8450 C   0  0  0  0  0  0  0  0  0  0  0  0
   57.7630   25.1870   44.2130 C   0  0  0  0  0  0  0  0  0  0  0  0
   57.1730   25.6390   45.4720 N   0  0  0  0  0  0  0  0  0  0  0  0
   56.3390   26.7970   45.6270 C   0  0  0  0  0  0  0  0  0  0  0  0
   55.1470   26.6410   45.9980 O   0  0  0  0  0  0  0  0  0  0  0  0
   56.8230   28.1590   45.3260 C   0  0  0  0  0  0  0  0  0  0  0  0
   58.1650   28.5090   45.5250 C   0  0  0  0  0  0  0  0  0  0  0  0
   58.6010   29.8010   45.2300 C   0  0  0  0  0  0  0  0  0  0  0  0
   57.6780   30.7550   44.7650 C   0  0  0  0  0  0  0  0  0  0  0  0
   58.0630   32.0630   44.4360 O   0  0  0  0  0  0  0  0  0  0  0  0
   58.5590   33.0180   45.3380 C   0  0  0  0  0  0  0  0  0  0  0  0
   59.0540   34.2260   44.8350 C   0  0  0  0  0  0  0  0  0  0  0  0
   59.5610   35.1950   45.7030 C   0  0  0  0  0  0  0  0  0  0  0  0
   59.5730   34.9670   47.0820 C   0  0  0  0  0  0  0  0  0  0  0  0
   59.0650   33.7650   47.6050 C   0  0  0  0  0  0  0  0  0  0  0  0
   59.0810   33.4950   49.0160 N   0  0  0  0  0  0  0  0  0  0  0  0
   60.5020   32.9720   49.8610 S   0  0  0  0  0  0  0  0  0  0  0  0
   60.7310   33.8600   51.0510 O   0  0  0  0  0  0  0  0  0  0  0  0
   60.3100   31.5570   50.3300 O   0  0  0  0  0  0  0  0  0  0  0  0
   61.8850   33.0220   48.7830 C   0  0  0  0  0  0  0  0  0  0  0  0
   62.7840   34.0690   48.6610 C   0  0  0  0  0  0  0  0  0  0  0  0
   63.7660   33.8330   47.6900 C   0  0  0  0  0  0  0  0  0  0  0  0
   63.6320   32.6060   47.0490 C   0  0  0  0  0  0  0  0  0  0  0  0
   62.2950   31.8120   47.6920 S   0  0  0  0  0  0  0  0  0  0  0  0
   58.5330   32.8080   46.7280 C   0  0  0  0  0  0  0  0  0  0  0  0
   56.3810   30.3920   44.5860 N   0  0  0  0  0  0  0  0  0  0  0  0
   55.9350   29.1360   44.8590 C   0  0  0  0  0  0  0  0  0  0  0  0
   58.9638   22.4585   45.9127 H   0  0  0  0  0  0  0  0  0  0  0  0
   59.5257   21.4516   44.5353 H   0  0  0  0  0  0  0  0  0  0  0  0
   59.8276   23.2223   44.5353 H   0  0  0  0  0  0  0  0  0  0  0  0
   57.2593   20.6208   43.6862 H   0  0  0  0  0  0  0  0  0  0  0  0
   55.3582   24.2989   42.8202 H   0  0  0  0  0  0  0  0  0  0  0  0
   58.8569   25.1459   44.3213 H   0  0  0  0  0  0  0  0  0  0  0  0
   57.4838   25.8943   43.4182 H   0  0  0  0  0  0  0  0  0  0  0  0
   58.8753   27.7646   45.9141 H   0  0  0  0  0  0  0  0  0  0  0  0
   59.6592   30.0717   45.3602 H   0  0  0  0  0  0  0  0  0  0  0  0
   59.0437   34.4132   43.7511 H   0  0  0  0  0  0  0  0  0  0  0  0
   59.9523   36.1409   45.3003 H   0  0  0  0  0  0  0  0  0  0  0  0
   59.9813   35.7307   47.7603 H   0  0  0  0  0  0  0  0  0  0  0  0
   58.1720   33.4120   49.5250 H   0  0  0  0  0  0  0  0  0  0  0  0
   62.7323   34.9883   49.2628 H   0  0  0  0  0  0  0  0  0  0  0  0
   64.5669   34.5500   47.4567 H   0  0  0  0  0  0  0  0  0  0  0  0
   64.2890   32.2199   46.2558 H   0  0  0  0  0  0  0  0  0  0  0  0
   58.0915   31.8848   47.1315 H   0  0  0  0  0  0  0  0  0  0  0  0
   54.8736   28.8871   44.7125 H   0  0  0  0  0  0  0  0  0  0  0  0
  1  2  1  0
  2  3  1  0
  3  4  2  0
  4  5  1  0
  5  6  2  0
  6  7  1  0
  7  8  1  0
  8  9  1  0
  9 10  2  0
  9 11  1  0
 11 12  2  0
 12 13  1  0
 13 14  2  0
 14 15  1  0
 15 16  1  0
 16 17  2  0
 17 18  1  0
 18 19  2  0
 19 20  1  0
 20 21  1  0
 21 22  1  0
 22 23  2  0
 22 24  2  0
 22 25  1  0
 25 26  2  0
 26 27  1  0
 27 28  2  0
 28 29  1  0
 20 30  2  0
 14 31  1  0
 31 32  2  0
  6  2  1  0
 32 11  1  0
 30 16  1  0
 29 25  1  0
  1 33  1  0
  1 34  1  0
  1 35  1  0
  3 36  1  0
  5 37  1  0
  7 38  1  0
  7 39  1  0
 12 40  1  0
 13 41  1  0
 17 42  1  0
 18 43  1  0
 19 44  1  0
 21 45  1  0
 26 46  1  0
 27 47  1  0
 28 48  1  0
 30 49  1  0
 32 50  1  0
M  CHG  1   8  -1
M  END
>  <UniqueID>  (3) 
3

>  <SMILES>  (3) 
Cn1cncc1C[N-]C(=O)c1ccc(Oc2cccc(NS(=O)(=O)c3cccs3)c2)nc1

>  <Energy>  (3) 
121.44881031093499

>  <Genealogy>  (3) 
Cn1cncc1C[N-]C(=O)c1ccc(Oc2cccc(NS(=O)(=O)c3cccs3)c2)nc1 (protonated)
Cn1cncc1C[N-]C(=O)c1ccc(Oc2cccc(NS(=O)(=O)c3cccs3)c2)nc1 (3D coordinates assigned)
Cn1cncc1C[N-]C(=O)c1ccc(Oc2cccc(NS(=O)(=O)c3cccs3)c2)nc1 (optimized conformer: 121.44881031093499 kcal/mol)

>  <smiles>  (3) 
Cn1cncc1CNC(=O)c1ccc(Oc2cccc(NS(=O)(=O)c3cccs3)c2)nc1

>  <score_type>  (3) 
oracle

>  <origin>  (3) 
adg

>  <m_score__min__energy>  (3) 
-11.029999999999999

>  <m_primary>  (3) 
energy

$$$$
3:0
     RDKit          3D

 29 30  0  0  0  0  0  0  0  0999 V2000
   57.7760   27.8430   43.1320 N   0  0  0  0  0  0  0  0  0  0  0  0
   57.9010   27.7230   44.3980 C   0  0  0  0  0  0  0  0  0  0  0  0
   58.9860   28.1840   45.0680 N   0  0  0  0  0  0  0  0  0  0  0  0
   58.8250   27.9090   46.3890 C   0  0  0  0  0  0  0  0  0  0  0  0
   60.0310   28.3520   47.6140 S   0  0  0  0  0  0  0  0  0  0  0  0
   59.2360   29.4100   48.8540 C   0  0  0  0  0  0  0  0  0  0  0  0
   58.9030   30.7060   48.2210 C   0  0  0  0  0  0  0  0  0  0  0  0
   58.5250   31.6660   48.9470 O   0  0  0  0  0  0  0  0  0  0  0  0
   59.0100   30.8610   46.8100 N   0  0  0  0  0  0  0  0  0  0  0  0
   58.7280   32.0190   46.0960 C   0  0  0  0  0  0  0  0  0  0  0  0
   59.4050   33.7010   46.6430 S   0  0  0  0  0  0  0  0  0  0  0  0
   58.6040   34.5480   45.2570 C   0  0  0  0  0  0  0  0  0  0  0  0
   57.9430   33.5870   44.5450 C   0  0  0  0  0  0  0  0  0  0  0  0
   58.0100   32.3190   44.9740 C   0  0  0  0  0  0  0  0  0  0  0  0
   57.3160   31.2040   44.2540 C   0  0  0  0  0  0  0  0  0  0  0  0
   57.7640   30.7330   43.0000 N   0  0  0  0  0  0  0  0  0  0  0  0
   56.3140   30.7130   44.8250 O   0  0  0  0  0  0  0  0  0  0  0  0
   57.6420   27.2820   46.5210 N   0  0  0  0  0  0  0  0  0  0  0  0
   57.0940   27.1740   45.3220 N   0  0  0  0  0  0  0  0  0  0  0  0
   56.9440   27.4730   42.6250 H   0  0  0  0  0  0  0  0  0  0  0  0
   58.3169   28.9281   49.2187 H   0  0  0  0  0  0  0  0  0  0  0  0
   59.9148   29.5693   49.7048 H   0  0  0  0  0  0  0  0  0  0  0  0
   59.3330   30.0100   46.2710 H   0  0  0  0  0  0  0  0  0  0  0  0
   58.6421   35.6242   45.0325 H   0  0  0  0  0  0  0  0  0  0  0  0
   57.3704   33.8475   43.6426 H   0  0  0  0  0  0  0  0  0  0  0  0
   58.1870   31.3500   42.2590 H   0  0  0  0  0  0  0  0  0  0  0  0
   57.6860   29.7110   42.7570 H   0  0  0  0  0  0  0  0  0  0  0  0
   57.2450   26.9440   47.4440 H   0  0  0  0  0  0  0  0  0  0  0  0
   56.1810   26.7400   45.0760 H   0  0  0  0  0  0  0  0  0  0  0  0
  1  2  2  3
  2  3  1  0
  3  4  2  0
  4  5  1  0
  5  6  1  0
  6  7  1  0
  7  8  2  0
  7  9  1  0
  9 10  1  0
 10 11  1  0
 11 12  1  0
 12 13  2  0
 13 14  1  0
 14 15  1  0
 15 16  1  0
 15 17  2  0
  4 18  1  0
 18 19  1  0
 19  2  1  0
 14 10  2  0
  1 20  1  0
  6 21  1  0
  6 22  1  0
  9 23  1  0
 12 24  1  0
 13 25  1  0
 16 26  1  0
 16 27  1  0
 18 28  1  0
 19 29  1  0
M  END
>  <smiles>  (4) 
N=c1nc(SCC(=O)Nc2sccc2C(N)=O)[nH][nH]1

>  <score_type>  (4) 
oracle

>  <origin>  (4) 
adg

>  <m_score__min__energy>  (4) 
-6.8099999999999996

>  <m_primary>  (4) 
energy

$$$$
4:0
     RDKit          3D

 41 43  0  0  0  0  0  0  0  0999 V2000
   56.6390   24.3050   43.2900 N   0  0  0  0  0  0  0  0  0  0  0  0
   55.9620   22.9880   44.1820 S   0  0  0  0  0  0  0  0  0  0  0  0
   54.4940   23.2340   44.3900 O   0  0  0  0  0  0  0  0  0  0  0  0
   56.1520   21.7130   43.4120 O   0  0  0  0  0  0  0  0  0  0  0  0
   56.7830   22.8660   45.7600 C   0  0  0  0  0  0  0  0  0  0  0  0
   58.0610   23.6400   45.7440 C   0  0  0  0  0  0  0  0  0  0  0  0
   58.8930   23.4590   44.8140 O   0  0  0  0  0  0  0  0  0  0  0  0
   58.3160   24.6110   46.7630 N   0  0  0  0  0  0  0  0  0  0  0  0
   57.3020   25.5480   47.2380 C   0  0  2  0  0  0  0  0  0  0  0  0
   56.5660   26.1540   46.0840 C   0  0  0  0  0  0  0  0  0  0  0  0
   55.7990   25.7170   45.1860 O   0  0  0  0  0  0  0  0  0  0  0  0
   57.1750   27.4670   46.3940 N   0  0  0  0  0  0  0  0  0  0  0  0
   57.5260   28.6080   45.6190 C   0  0  0  0  0  0  0  0  0  0  0  0
   56.4330   29.4640   45.1070 C   0  0  0  0  0  0  0  0  0  0  0  0
   56.6380   30.6970   44.9480 O   0  0  0  0  0  0  0  0  0  0  0  0
   55.1600   28.9610   44.8680 O   0  0  0  0  0  0  0  0  0  0  0  0
   58.8480   28.8290   45.4390 C   0  0  0  0  0  0  0  0  0  0  0  0
   59.4250   30.0910   44.8340 C   0  0  0  0  0  0  0  0  0  0  0  0
   59.2580   31.2840   45.7460 C   0  0  0  0  0  0  0  0  0  0  0  0
   58.8150   32.5100   45.2270 C   0  0  0  0  0  0  0  0  0  0  0  0
   58.6850   33.6210   46.0630 C   0  0  0  0  0  0  0  0  0  0  0  0
   59.0110   33.5020   47.4140 C   0  0  0  0  0  0  0  0  0  0  0  0
   59.4530   32.3140   47.9050 N   0  0  0  0  0  0  0  0  0  0  0  0
   59.5880   31.2180   47.1130 C   0  0  0  0  0  0  0  0  0  0  0  0
   59.8110   27.7160   45.8080 C   0  0  0  0  0  0  0  0  0  0  0  0
   59.6230   27.1600   47.5490 S   0  0  0  0  0  0  0  0  0  0  0  0
   57.8000   26.8710   47.5510 C   0  0  2  0  0  0  0  0  0  0  0  0
   57.3460   24.7610   43.9090 H   0  0  0  0  0  0  0  0  0  0  0  0
   55.8730   25.0010   43.1450 H   0  0  0  0  0  0  0  0  0  0  0  0
   56.1246   23.2698   46.5432 H   0  0  0  0  0  0  0  0  0  0  0  0
   57.0088   21.8089   45.9637 H   0  0  0  0  0  0  0  0  0  0  0  0
   56.8160   24.9464   48.0202 H   0  0  0  0  0  0  0  0  0  0  0  0
   60.4975   29.9359   44.6450 H   0  0  0  0  0  0  0  0  0  0  0  0
   58.8822   30.2988   43.9001 H   0  0  0  0  0  0  0  0  0  0  0  0
   58.5693   32.5963   44.1583 H   0  0  0  0  0  0  0  0  0  0  0  0
   58.3290   34.5806   45.6600 H   0  0  0  0  0  0  0  0  0  0  0  0
   58.9104   34.3699   48.0824 H   0  0  0  0  0  0  0  0  0  0  0  0
   59.9569   30.2747   47.5421 H   0  0  0  0  0  0  0  0  0  0  0  0
   59.6284   26.8586   45.1436 H   0  0  0  0  0  0  0  0  0  0  0  0
   60.8317   28.1100   45.6945 H   0  0  0  0  0  0  0  0  0  0  0  0
   57.5884   27.2167   48.5736 H   0  0  0  0  0  0  0  0  0  0  0  0
  1  2  1  0
  2  3  2  0
  2  4  2  0
  2  5  1  0
  5  6  1  0
  6  7  2  0
  6  8  1  0
  8  9  1  0
  9 10  1  0
 10 11  2  0
 10 12  1  0
 12 13  1  0
 13 14  1  0
 14 15  2  0
 14 16  1  0
 13 17  2  0
 17 18  1  0
 18 19  1  0
 19 20  2  0
 20 21  1  0
 21 22  2  0
 22 23  1  0
 23 24  2  0
 17 25  1  0
 25 26  1  0
 26 27  1  0
 27  9  1  0
 27 12  1  0
 24 19  1  0
  1 28  1  0
  1 29  1  0
  5 30  1  0
  5 31  1  0
  9 32  1  1
 18 33  1  0
 18 34  1  0
 20 35  1  0
 21 36  1  0
 22 37  1  0
 24 38  1  0
 25 39  1  0
 25 40  1  0
 27 41  1  1
M  CHG  2   8  -1  16  -1
M  END
>  <UniqueID>  (5) 
4

>  <SMILES>  (5) 
NS(=O)(=O)CC(=O)[N-][C@@H]1C(=O)N2C(C(=O)[O-])=C(Cc3cccnc3)CS[C@H]12

>  <Energy>  (5) 
83.66471311008854

>  <Genealogy>  (5) 
NS(=O)(=O)CC(=O)[N-]C1C(=O)N2C(C(=O)[O-])=C(Cc3cccnc3)CSC12 (protonated)
NS(=O)(=O)CC(=O)[N-][C@@H]1C(=O)N2C(C(=O)[O-])=C(Cc3cccnc3)CS[C@H]12 (chirality)
NS(=O)(=O)CC(=O)[N-][C@@H]1C(=O)N2C(C(=O)[O-])=C(Cc3cccnc3)CS[C@H]12 (3D coordinates assigned)
NS(=O)(=O)CC(=O)[N-][C@@H]1C(=O)N2C(C(=O)[O-])=C(Cc3cccnc3)CS[C@H]12 (nonaromatic ring conformer: 83.66471311008854 kcal/mol)

>  <smiles>  (5) 
NS(=O)(=O)CC(=O)NC1C(=O)N2C(C(=O)O)=C(Cc3cccnc3)CSC12

>  <score_type>  (5) 
oracle

>  <origin>  (5) 
adg

>  <m_score__min__energy>  (5) 
-11.83

>  <m_primary>  (5) 
energy

$$$$
5:0
     RDKit          3D

 46 48  0  0  0  0  0  0  0  0999 V2000
   58.8250   32.2400   52.2930 C   0  0  0  0  0  0  0  0  0  0  0  0
   59.8120   32.0180   51.2910 O   0  0  0  0  0  0  0  0  0  0  0  0
   59.7040   32.4510   49.9610 C   0  0  0  0  0  0  0  0  0  0  0  0
   59.8530   33.8140   49.6930 C   0  0  0  0  0  0  0  0  0  0  0  0
   59.7680   34.2960   48.3860 C   0  0  0  0  0  0  0  0  0  0  0  0
   59.5230   33.4150   47.3150 C   0  0  0  0  0  0  0  0  0  0  0  0
   59.4870   33.8620   45.9840 O   0  0  0  0  0  0  0  0  0  0  0  0
   59.6330   35.2200   45.5810 C   0  0  0  0  0  0  0  0  0  0  0  0
   59.3340   32.0430   47.5830 C   0  0  0  0  0  0  0  0  0  0  0  0
   59.0780   31.1050   46.5250 N   0  0  0  0  0  0  0  0  0  0  0  0
   59.5980   29.7670   46.5190 C   0  0  0  0  0  0  0  0  0  0  0  0
   60.4690   29.4180   47.3630 O   0  0  0  0  0  0  0  0  0  0  0  0
   59.1380   28.7820   45.4870 C   0  0  0  0  0  0  0  0  0  0  0  0
   57.7110   28.4630   45.6550 N   0  0  0  0  0  0  0  0  0  0  0  0
   57.2940   27.4610   46.6500 C   0  0  0  0  0  0  0  0  0  0  0  0
   56.6400   26.2890   45.9870 C   0  0  0  0  0  0  0  0  0  0  0  0
   57.2760   25.3490   45.2010 C   0  0  0  0  0  0  0  0  0  0  0  0
   56.2870   24.4830   44.7880 C   0  0  0  0  0  0  0  0  0  0  0  0
   55.1120   24.9500   45.3440 C   0  0  0  0  0  0  0  0  0  0  0  0
   55.3550   26.0290   46.0520 O   0  0  0  0  0  0  0  0  0  0  0  0
   56.7240   29.2470   44.9560 C   0  0  0  0  0  0  0  0  0  0  0  0
   55.5340   28.8330   44.8910 O   0  0  0  0  0  0  0  0  0  0  0  0
   57.0670   30.5440   44.3400 C   0  0  0  0  0  0  0  0  0  0  0  0
   57.3820   30.6830   42.9870 C   0  0  0  0  0  0  0  0  0  0  0  0
   57.6530   32.3170   42.7920 S   0  0  0  0  0  0  0  0  0  0  0  0
   57.3700   32.7980   44.3530 N   0  0  0  0  0  0  0  0  0  0  0  0
   57.0630   31.7120   45.0540 N   0  0  0  0  0  0  0  0  0  0  0  0
   59.4500   31.5670   48.8970 C   0  0  0  0  0  0  0  0  0  0  0  0
   59.2829   32.1370   53.2879 H   0  0  0  0  0  0  0  0  0  0  0  0
   58.4119   33.2535   52.1826 H   0  0  0  0  0  0  0  0  0  0  0  0
   58.0177   31.5010   52.1826 H   0  0  0  0  0  0  0  0  0  0  0  0
   60.0392   34.5144   50.5205 H   0  0  0  0  0  0  0  0  0  0  0  0
   59.8932   35.3713   48.1911 H   0  0  0  0  0  0  0  0  0  0  0  0
   59.7020   35.8615   46.4719 H   0  0  0  0  0  0  0  0  0  0  0  0
   60.5479   35.3278   44.9799 H   0  0  0  0  0  0  0  0  0  0  0  0
   58.7619   35.5198   44.9799 H   0  0  0  0  0  0  0  0  0  0  0  0
   58.6190   31.4560   45.6550 H   0  0  0  0  0  0  0  0  0  0  0  0
   59.2944   29.2112   44.4863 H   0  0  0  0  0  0  0  0  0  0  0  0
   59.7186   27.8554   45.6064 H   0  0  0  0  0  0  0  0  0  0  0  0
   58.1787   27.1138   47.2039 H   0  0  0  0  0  0  0  0  0  0  0  0
   56.5697   27.9263   47.3348 H   0  0  0  0  0  0  0  0  0  0  0  0
   58.3473   25.3014   44.9559 H   0  0  0  0  0  0  0  0  0  0  0  0
   56.4086   23.5985   44.1454 H   0  0  0  0  0  0  0  0  0  0  0  0
   54.1223   24.4879   45.2135 H   0  0  0  0  0  0  0  0  0  0  0  0
   57.4386   29.8938   42.2229 H   0  0  0  0  0  0  0  0  0  0  0  0
   59.3412   30.4909   49.0976 H   0  0  0  0  0  0  0  0  0  0  0  0
  1  2  1  0
  2  3  1  0
  3  4  2  0
  4  5  1  0
  5  6  2  0
  6  7  1  0
  7  8  1  0
  6  9  1  0
  9 10  1  0
 10 11  1  0
 11 12  2  0
 11 13  1  0
 13 14  1  0
 14 15  1  0
 15 16  1  0
 16 17  2  0
 17 18  1  0
 18 19  2  0
 19 20  1  0
 14 21  1  0
 21 22  2  0
 21 23  1  0
 23 24  2  0
 24 25  1  0
 25 26  1  0
 26 27  2  0
  9 28  2  0
 28  3  1  0
 20 16  1  0
 27 23  1  0
  1 29  1  0
  1 30  1  0
  1 31  1  0
  4 32  1  0
  5 33  1  0
  8 34  1  0
  8 35  1  0
  8 36  1  0
 10 37  1  0
 13 38  1  0
 13 39  1  0
 15 40  1  0
 15 41  1  0
 17 42  1  0
 18 43  1  0
 19 44  1  0
 24 45  1  0
 28 46  1  0
M  END
>  <UniqueID>  (6) 
5

>  <SMILES>  (6) 
COc1ccc(OC)c(NC(=O)CN(Cc2ccco2)C(=O)c2csnn2)c1

>  <Energy>  (6) 
113.4175927248908

>  <Genealogy>  (6) 
COc1ccc(OC)c(NC(=O)CN(Cc2ccco2)C(=O)c2csnn2)c1 (3D coordinates assigned)
COc1ccc(OC)c(NC(=O)CN(Cc2ccco2)C(=O)c2csnn2)c1 (optimized conformer: 113.4175927248908 kcal/mol)

>  <smiles>  (6) 
COc1ccc(OC)c(NC(=O)CN(Cc2ccco2)C(=O)c2csnn2)c1

>  <score_type>  (6) 
oracle

>  <origin>  (6) 
adg

>  <m_score__min__energy>  (6) 
-7.6799999999999997

>  <m_primary>  (6) 
energy

$$$$
6:0
     RDKit          3D

 47 49  0  0  0  0  0  0  0  0999 V2000
   64.6630   32.5850   49.4390 C   0  0  0  0  0  0  0  0  0  0  0  0
   63.3900   32.9590   48.7420 C   0  0  0  0  0  0  0  0  0  0  0  0
   63.3760   33.1570   47.3530 C   0  0  0  0  0  0  0  0  0  0  0  0
   62.1970   33.5430   46.7070 C   0  0  0  0  0  0  0  0  0  0  0  0
   61.0220   33.7440   47.4450 C   0  0  0  0  0  0  0  0  0  0  0  0
   59.5490   34.2740   46.6410 S   0  0  0  0  0  0  0  0  0  0  0  0
   58.8950   35.3680   47.4390 O   0  0  0  0  0  0  0  0  0  0  0  0
   59.8850   34.8110   45.2780 O   0  0  0  0  0  0  0  0  0  0  0  0
   58.4240   32.9000   46.4780 C   0  0  0  0  0  0  0  0  0  0  0  0
   58.8110   31.8090   47.4220 C   0  0  0  0  0  0  0  0  0  0  0  0
   59.5800   30.7050   47.1090 C   0  0  0  0  0  0  0  0  0  0  0  0
   59.7230   30.0030   48.2870 C   0  0  0  0  0  0  0  0  0  0  0  0
   59.0330   30.7280   49.2410 C   0  0  0  0  0  0  0  0  0  0  0  0
   58.8970   30.3810   50.6590 C   0  0  0  0  0  0  0  0  0  0  0  0
   59.9190   30.3340   51.3970 O   0  0  0  0  0  0  0  0  0  0  0  0
   57.6260   30.1090   51.1790 O   0  0  0  0  0  0  0  0  0  0  0  0
   57.4100   29.5760   52.4820 C   0  0  0  0  0  0  0  0  0  0  0  0
   56.1160   30.0760   53.0420 C   0  0  0  0  0  0  0  0  0  0  0  0
   56.1310   30.9270   53.9710 O   0  0  0  0  0  0  0  0  0  0  0  0
   54.8810   29.6540   52.4510 N   0  0  0  0  0  0  0  0  0  0  0  0
   53.6910   30.4410   52.2980 C   0  0  0  0  0  0  0  0  0  0  0  0
   52.8220   30.5630   53.3900 C   0  0  0  0  0  0  0  0  0  0  0  0
   51.6600   31.3350   53.2890 C   0  0  0  0  0  0  0  0  0  0  0  0
   51.3660   32.0050   52.0980 C   0  0  0  0  0  0  0  0  0  0  0  0
   50.2110   32.7700   51.9970 O   0  0  0  0  0  0  0  0  0  0  0  0
   52.2390   31.9090   51.0110 C   0  0  0  0  0  0  0  0  0  0  0  0
   53.4020   31.1370   51.1090 C   0  0  0  0  0  0  0  0  0  0  0  0
   58.5020   31.8000   48.6980 O   0  0  0  0  0  0  0  0  0  0  0  0
   61.0400   33.5720   48.8350 C   0  0  0  0  0  0  0  0  0  0  0  0
   62.2180   33.1850   49.4820 C   0  0  0  0  0  0  0  0  0  0  0  0
   64.5117   32.6295   50.5276 H   0  0  0  0  0  0  0  0  0  0  0  0
   64.9526   31.5638   49.1505 H   0  0  0  0  0  0  0  0  0  0  0  0
   65.4590   33.2872   49.1505 H   0  0  0  0  0  0  0  0  0  0  0  0
   64.2965   33.0080   46.7694 H   0  0  0  0  0  0  0  0  0  0  0  0
   62.1916   33.6893   45.6168 H   0  0  0  0  0  0  0  0  0  0  0  0
   57.4024   33.2362   46.7088 H   0  0  0  0  0  0  0  0  0  0  0  0
   58.4669   32.5182   45.4473 H   0  0  0  0  0  0  0  0  0  0  0  0
   59.9927   30.4408   46.1242 H   0  0  0  0  0  0  0  0  0  0  0  0
   60.2720   29.0616   48.4368 H   0  0  0  0  0  0  0  0  0  0  0  0
   57.3797   28.4779   52.4240 H   0  0  0  0  0  0  0  0  0  0  0  0
   58.2312   29.8972   53.1396 H   0  0  0  0  0  0  0  0  0  0  0  0
   53.0551   30.0480   54.3336 H   0  0  0  0  0  0  0  0  0  0  0  0
   50.9770   31.4149   54.1475 H   0  0  0  0  0  0  0  0  0  0  0  0
   52.0114   32.4417   50.0759 H   0  0  0  0  0  0  0  0  0  0  0  0
   54.0921   31.0738   50.2548 H   0  0  0  0  0  0  0  0  0  0  0  0
   60.1241   33.7420   49.4200 H   0  0  0  0  0  0  0  0  0  0  0  0
   62.2265   33.0572   50.5745 H   0  0  0  0  0  0  0  0  0  0  0  0
  1  2  1  0
  2  3  2  0
  3  4  1  0
  4  5  2  0
  5  6  1  0
  6  7  2  0
  6  8  2  0
  6  9  1  0
  9 10  1  0
 10 11  2  0
 11 12  1  0
 12 13  2  0
 13 14  1  0
 14 15  2  0
 14 16  1  0
 16 17  1  0
 17 18  1  0
 18 19  2  0
 18 20  1  0
 20 21  1  0
 21 22  2  0
 22 23  1  0
 23 24  2  0
 24 25  1  0
 24 26  1  0
 26 27  2  0
 13 28  1  0
  5 29  1  0
 29 30  2  0
 30  2  1  0
 28 10  1  0
 27 21  1  0
  1 31  1  0
  1 32  1  0
  1 33  1  0
  3 34  1  0
  4 35  1  0
  9 36  1  0
  9 37  1  0
 11 38  1  0
 12 39  1  0
 17 40  1  0
 17 41  1  0
 22 42  1  0
 23 43  1  0
 26 44  1  0
 27 45  1  0
 29 46  1  0
 30 47  1  0
M  CHG  2  20  -1  25  -1
M  END
>  <UniqueID>  (7) 
6

>  <SMILES>  (7) 
Cc1ccc(S(=O)(=O)Cc2ccc(C(=O)OCC(=O)[N-]c3ccc([O-])cc3)o2)cc1

>  <Energy>  (7) 
69.11358807665641

>  <Genealogy>  (7) 
Cc1ccc(S(=O)(=O)Cc2ccc(C(=O)OCC(=O)[N-]c3ccc([O-])cc3)o2)cc1 (protonated)
Cc1ccc(S(=O)(=O)Cc2ccc(C(=O)OCC(=O)[N-]c3ccc([O-])cc3)o2)cc1 (3D coordinates assigned)
Cc1ccc(S(=O)(=O)Cc2ccc(C(=O)OCC(=O)[N-]c3ccc([O-])cc3)o2)cc1 (optimized conformer: 69.11358807665641 kcal/mol)

>  <smiles>  (7) 
Cc1ccc(S(=O)(=O)Cc2ccc(C(=O)OCC(=O)Nc3ccc(O)cc3)o2)cc1

>  <score_type>  (7) 
oracle

>  <origin>  (7) 
adg

>  <m_score__min__energy>  (7) 
-13.390000000000001

>  <m_primary>  (7) 
energy

$$$$
7:0
     RDKit          3D

 54 58  0  0  0  0  0  0  0  0999 V2000
   57.1796   32.0448   52.1178 H   0  0  0  0  0  0  0  0  0  0  0  0
   56.0890   31.9610   52.2340 C   0  0  0  0  0  0  0  0  0  0  0  0
   55.4534   32.8512   52.1174 H   0  0  0  0  0  0  0  0  0  0  0  0
   55.5340   30.7730   52.5180 C   0  0  0  0  0  0  0  0  0  0  0  0
   54.1690   30.4920   52.6980 C   0  0  0  0  0  0  0  0  0  0  0  0
   53.0720   31.2420   52.4760 C   0  0  0  0  0  0  0  0  0  0  0  0
   52.7085   31.8604   53.3100 H   0  0  0  0  0  0  0  0  0  0  0  0
   52.3180   31.3050   51.2130 C   0  0  0  0  0  0  0  0  0  0  0  0
   52.3240   30.3460   50.2680 N   0  0  0  0  0  0  0  0  0  0  0  0
   51.3950   30.7740   49.3860 C   0  0  0  0  0  0  0  0  0  0  0  0
   51.1190   30.1410   48.3330 O   0  0  0  0  0  0  0  0  0  0  0  0
   50.7800   31.9280   49.7240 N   0  0  0  0  0  0  0  0  0  0  0  0
   51.3670   32.2400   50.8910 C   0  0  0  0  0  0  0  0  0  0  0  0
   51.0370   33.3590   51.6460 O   0  0  0  0  0  0  0  0  0  0  0  0
   54.1000   29.1880   53.1650 C   0  0  0  0  0  0  0  0  0  0  0  0
   53.1896   28.6438   53.4565 H   0  0  0  0  0  0  0  0  0  0  0  0
   55.3910   28.7040   53.1940 C   0  0  0  0  0  0  0  0  0  0  0  0
   55.7780   27.3210   53.6210 C   0  0  0  0  0  0  0  0  0  0  0  0
   55.7931   27.2672   54.7196 H   0  0  0  0  0  0  0  0  0  0  0  0
   55.0476   26.5982   53.2285 H   0  0  0  0  0  0  0  0  0  0  0  0
   56.7775   27.0822   53.2285 H   0  0  0  0  0  0  0  0  0  0  0  0
   56.2590   29.6580   52.7930 N   0  0  0  0  0  0  0  0  0  0  0  0
   57.6900   29.5170   52.7640 C   0  0  0  0  0  0  0  0  0  0  0  0
   58.4210   29.5450   53.9590 C   0  0  0  0  0  0  0  0  0  0  0  0
   57.8985   29.6625   54.9198 H   0  0  0  0  0  0  0  0  0  0  0  0
   59.8120   29.4240   53.9320 C   0  0  0  0  0  0  0  0  0  0  0  0
   60.3828   29.4468   54.8720 H   0  0  0  0  0  0  0  0  0  0  0  0
   60.4810   29.2740   52.7140 C   0  0  0  0  0  0  0  0  0  0  0  0
   61.5772   29.1836   52.6996 H   0  0  0  0  0  0  0  0  0  0  0  0
   59.7600   29.2380   51.5060 C   0  0  0  0  0  0  0  0  0  0  0  0
   60.4660   29.0960   50.2110 C   0  0  0  0  0  0  0  0  0  0  0  0
   61.3870   28.2420   50.0950 O   0  0  0  0  0  0  0  0  0  0  0  0
   60.0990   29.8930   49.0720 N   0  0  0  0  0  0  0  0  0  0  0  0
   60.9660   31.0020   48.6420 C   0  0  0  0  0  0  0  0  0  0  0  0
   61.6365   30.6527   47.8430 H   0  0  0  0  0  0  0  0  0  0  0  0
   61.5609   31.3511   49.4988 H   0  0  0  0  0  0  0  0  0  0  0  0
   60.1260   32.1340   48.1280 C   0  0  0  0  0  0  0  0  0  0  0  0
   60.4670   33.4710   48.3740 C   0  0  0  0  0  0  0  0  0  0  0  0
   61.3586   33.7100   48.9723 H   0  0  0  0  0  0  0  0  0  0  0  0
   59.6740   34.5010   47.8590 C   0  0  0  0  0  0  0  0  0  0  0  0
   59.9368   35.5499   48.0610 H   0  0  0  0  0  0  0  0  0  0  0  0
   58.5480   34.2000   47.0880 C   0  0  0  0  0  0  0  0  0  0  0  0
   57.9263   35.0126   46.6841 H   0  0  0  0  0  0  0  0  0  0  0  0
   58.2100   32.8690   46.8290 C   0  0  0  0  0  0  0  0  0  0  0  0
   57.3301   32.6356   46.2114 H   0  0  0  0  0  0  0  0  0  0  0  0
   58.9920   31.8300   47.3560 C   0  0  0  0  0  0  0  0  0  0  0  0
   58.6870   30.3880   47.0530 C   0  0  0  0  0  0  0  0  0  0  0  0
   59.3459   30.0443   46.2420 H   0  0  0  0  0  0  0  0  0  0  0  0
   57.6315   30.3100   46.7534 H   0  0  0  0  0  0  0  0  0  0  0  0
   58.9100   29.5010   48.2920 C   0  0  0  0  0  0  0  0  0  0  0  0
   59.0355   28.4597   47.9603 H   0  0  0  0  0  0  0  0  0  0  0  0
   58.0329   29.6196   48.9451 H   0  0  0  0  0  0  0  0  0  0  0  0
   58.3610   29.3740   51.5410 C   0  0  0  0  0  0  0  0  0  0  0  0
   57.7884   29.3682   50.6018 H   0  0  0  0  0  0  0  0  0  0  0  0
  1  2  1  0
  2  3  1  0
  2  4  2  0
  4  5  1  0
  5  6  2  0
  6  7  1  0
  6  8  1  0
  8  9  1  0
  9 10  1  0
 10 11  2  0
 10 12  1  0
 12 13  1  0
 13 14  1  0
  5 15  1  0
 15 16  1  0
 15 17  2  0
 17 18  1  0
 18 19  1  0
 18 20  1  0
 18 21  1  0
 17 22  1  0
 22 23  1  0
 23 24  2  0
 24 25  1  0
 24 26  1  0
 26 27  1  0
 26 28  2  0
 28 29  1  0
 28 30  1  0
 30 31  1  0
 31 32  2  0
 31 33  1  0
 33 34  1  0
 34 35  1  0
 34 36  1  0
 34 37  1  0
 37 38  2  0
 38 39  1  0
 38 40  1  0
 40 41  1  0
 40 42  2  0
 42 43  1  0
 42 44  1  0
 44 45  1  0
 44 46  2  0
 46 47  1  0
 47 48  1  0
 47 49  1  0
 47 50  1  0
 50 51  1  0
 50 52  1  0
 30 53  2  0
 53 54  1  0
 22  4  1  0
 53 23  1  0
 13  8  2  0
 50 33  1  0
 46 37  1  0
M  CHG  3   9  -1  12  -1  14  -1
M  END
>  <UniqueID>  (8) 
7

>  <SMILES>  (8) 
C=c1/c(=C\c2[n-]c(=O)[n-]c2[O-])cc(C)n1-c1cccc(C(=O)N2CCc3ccccc3C2)c1

>  <Energy>  (8) 
142.39422737721375

>  <Genealogy>  (8) 
C=c1c(=Cc2[n-]c(=O)[n-]c2[O-])cc(C)n1-c1cccc(C(=O)N2CCc3ccccc3C2)c1 (protonated)
C=c1/c(=C\c2[n-]c(=O)[n-]c2[O-])cc(C)n1-c1cccc(C(=O)N2CCc3ccccc3C2)c1 (cis-trans isomerization)
C=c1/c(=C\c2[n-]c(=O)[n-]c2[O-])cc(C)n1-c1cccc(C(=O)N2CCc3ccccc3C2)c1 (3D coordinates assigned)
C=c1/c(=C\c2[n-]c(=O)[n-]c2[O-])cc(C)n1-c1cccc(C(=O)N2CCc3ccccc3C2)c1 (nonaromatic ring conformer: 142.39422737721375 kcal/mol)

>  <smiles>  (8) 
C=c1c(=Cc2[nH]c(=O)[nH]c2O)cc(C)n1-c1cccc(C(=O)N2CCc3ccccc3C2)c1

>  <score_type>  (8) 
oracle

>  <origin>  (8) 
adg

>  <m_score__min__energy>  (8) 
-18.550000000000001

>  <m_primary>  (8) 
energy

$$$$
8:0
     RDKit          3D

 37 39  0  0  0  0  0  0  0  0999 V2000
   58.3520   32.3170   48.7890 H   0  0  0  0  0  0  0  0  0  0  0  0
   57.7360   32.7060   48.0840 O   0  0  0  0  0  0  0  0  0  0  0  0
   58.2180   33.5100   47.0530 C   0  0  0  0  0  0  0  0  0  0  0  0
   57.3860   33.8250   45.9680 C   0  0  0  0  0  0  0  0  0  0  0  0
   56.3418   33.4791   45.9600 H   0  0  0  0  0  0  0  0  0  0  0  0
   57.8780   34.5760   44.8980 C   0  0  0  0  0  0  0  0  0  0  0  0
   57.2194   34.8264   44.0533 H   0  0  0  0  0  0  0  0  0  0  0  0
   59.2050   35.0090   44.9000 C   0  0  0  0  0  0  0  0  0  0  0  0
   59.5954   35.5877   44.0499 H   0  0  0  0  0  0  0  0  0  0  0  0
   60.0380   34.7080   45.9810 C   0  0  0  0  0  0  0  0  0  0  0  0
   61.0861   35.0418   45.9727 H   0  0  0  0  0  0  0  0  0  0  0  0
   59.5470   33.9840   47.0750 C   0  0  0  0  0  0  0  0  0  0  0  0
   60.4380   33.6920   48.1600 N   0  0  0  0  0  0  0  0  0  0  0  0
   60.5200   32.4370   48.8430 C   0  0  0  0  0  0  0  0  0  0  0  0
   60.3940   32.4200   50.0960 O   0  0  0  0  0  0  0  0  0  0  0  0
   60.6810   31.2210   48.0940 N   0  0  0  0  0  0  0  0  0  0  0  0
   59.8290   30.6740   47.2760 C   0  0  0  0  0  0  0  0  0  0  0  0
   59.8170   30.9680   45.9590 N   0  0  0  0  0  0  0  0  0  0  0  0
   58.8540   30.2770   45.2900 C   0  0  0  0  0  0  0  0  0  0  0  0
   58.6490   30.4780   43.8900 N   0  0  0  0  0  0  0  0  0  0  0  0
   58.5670   31.4480   43.5120 H   0  0  0  0  0  0  0  0  0  0  0  0
   58.5040   29.6810   43.2330 H   0  0  0  0  0  0  0  0  0  0  0  0
   58.0800   29.4170   46.0820 C   0  0  0  0  0  0  0  0  0  0  0  0
   57.0240   28.4830   45.6360 C   0  0  0  0  0  0  0  0  0  0  0  0
   55.9820   28.9420   45.0960 O   0  0  0  0  0  0  0  0  0  0  0  0
   57.1790   27.0150   45.7790 C   0  0  0  0  0  0  0  0  0  0  0  0
   58.4620   26.4350   45.7550 C   0  0  0  0  0  0  0  0  0  0  0  0
   59.3469   27.0735   45.6163 H   0  0  0  0  0  0  0  0  0  0  0  0
   58.6200   25.0550   45.9060 C   0  0  0  0  0  0  0  0  0  0  0  0
   59.6262   24.6114   45.8791 H   0  0  0  0  0  0  0  0  0  0  0  0
   57.5030   24.2380   46.0910 C   0  0  0  0  0  0  0  0  0  0  0  0
   57.6294   23.1517   46.2091 H   0  0  0  0  0  0  0  0  0  0  0  0
   56.2260   24.8000   46.1260 C   0  0  0  0  0  0  0  0  0  0  0  0
   55.3479   24.1544   46.2746 H   0  0  0  0  0  0  0  0  0  0  0  0
   56.0570   26.1810   45.9730 C   0  0  0  0  0  0  0  0  0  0  0  0
   54.7710   26.7100   46.0000 O   0  0  0  0  0  0  0  0  0  0  0  0
   58.6460   29.5360   47.6660 S   0  0  0  0  0  0  0  0  0  0  0  0
  1  2  1  0
  2  3  1  0
  3  4  2  0
  4  5  1  0
  4  6  1  0
  6  7  1  0
  6  8  2  0
  8  9  1  0
  8 10  1  0
 10 11  1  0
 10 12  2  0
 12 13  1  0
 13 14  1  0
 14 15  2  0
 14 16  1  0
 16 17  2  0
 17 18  1  0
 18 19  1  0
 19 20  1  0
 20 21  1  0
 20 22  1  0
 19 23  2  0
 23 24  1  0
 24 25  2  0
 24 26  1  0
 26 27  2  0
 27 28  1  0
 27 29  1  0
 29 30  1  0
 29 31  2  0
 31 32  1  0
 31 33  1  0
 33 34  1  0
 33 35  2  0
 35 36  1  0
 23 37  1  0
 12  3  1  0
 37 17  1  0
 35 26  1  0
M  CHG  3  13  -1  18  -1  36  -1
M  END
>  <UniqueID>  (9) 
8

>  <SMILES>  (9) 
Nc1[n-]/c(=N/C(=O)[N-]c2ccccc2O)sc1C(=O)c1ccccc1[O-]

>  <Energy>  (9) 
84.85994974958548

>  <Genealogy>  (9) 
Nc1[n-]c(=NC(=O)[N-]c2ccccc2O)sc1C(=O)c1ccccc1[O-] (protonated)
Nc1[n-]/c(=N/C(=O)[N-]c2ccccc2O)sc1C(=O)c1ccccc1[O-] (cis-trans isomerization)
Nc1[n-]/c(=N/C(=O)[N-]c2ccccc2O)sc1C(=O)c1ccccc1[O-] (3D coordinates assigned)
Nc1[n-]/c(=N/C(=O)[N-]c2ccccc2O)sc1C(=O)c1ccccc1[O-] (optimized conformer: 84.85994974958548 kcal/mol)

>  <smiles>  (9) 
Nc1[nH]c(=NC(=O)Nc2ccccc2O)sc1C(=O)c1ccccc1O

>  <score_type>  (9) 
oracle

>  <origin>  (9) 
adg

>  <m_score__min__energy>  (9) 
-13.550000000000001

>  <m_primary>  (9) 
energy

$$$$
9:0
     RDKit          3D

 38 39  0  0  0  0  0  0  0  0999 V2000
   53.8190   23.7700   45.0670 C   0  0  0  0  0  0  0  0  0  0  0  0
   54.8230   23.6810   44.0600 O   0  0  0  0  0  0  0  0  0  0  0  0
   56.1620   23.3370   44.3020 C   0  0  0  0  0  0  0  0  0  0  0  0
   56.9800   24.0740   45.1820 C   0  0  0  0  0  0  0  0  0  0  0  0
   58.3140   23.6950   45.3970 C   0  0  0  0  0  0  0  0  0  0  0  0
   59.1630   24.4550   46.3840 C   0  0  0  0  0  0  0  0  0  0  0  0
   60.1600   25.2840   45.6910 N   0  0  0  0  0  0  0  0  0  0  0  0
   60.6010   26.4340   46.5010 C   0  0  0  0  0  0  0  0  0  0  0  0
   60.5260   27.7160   45.6670 C   0  0  0  0  0  0  0  0  0  0  0  0
   59.0990   28.1670   45.5120 C   0  0  0  0  0  0  0  0  0  0  0  0
   58.8150   29.4440   45.0030 C   0  0  0  0  0  0  0  0  0  0  0  0
   57.4900   29.8530   44.8270 C   0  0  0  0  0  0  0  0  0  0  0  0
   56.4380   28.9880   45.1470 C   0  0  0  0  0  0  0  0  0  0  0  0
   55.1260   29.4100   44.9660 O   0  0  0  0  0  0  0  0  0  0  0  0
   56.7130   27.7030   45.6430 C   0  0  0  0  0  0  0  0  0  0  0  0
   55.6840   26.8180   45.9640 O   0  0  0  0  0  0  0  0  0  0  0  0
   58.0400   27.2960   45.8190 C   0  0  0  0  0  0  0  0  0  0  0  0
   58.8290   22.5710   44.7340 C   0  0  0  0  0  0  0  0  0  0  0  0
   58.0220   21.8400   43.8610 C   0  0  0  0  0  0  0  0  0  0  0  0
   56.6940   22.2200   43.6450 C   0  0  0  0  0  0  0  0  0  0  0  0
   55.9020   21.4800   42.7740 O   0  0  0  0  0  0  0  0  0  0  0  0
   54.2908   23.7282   46.0598 H   0  0  0  0  0  0  0  0  0  0  0  0
   53.2749   24.7199   44.9593 H   0  0  0  0  0  0  0  0  0  0  0  0
   53.1162   22.9306   44.9593 H   0  0  0  0  0  0  0  0  0  0  0  0
   56.5702   24.9516   45.7034 H   0  0  0  0  0  0  0  0  0  0  0  0
   58.5150   25.1038   46.9915 H   0  0  0  0  0  0  0  0  0  0  0  0
   59.6909   23.7317   47.0229 H   0  0  0  0  0  0  0  0  0  0  0  0
   60.9930   24.6750   45.5090 H   0  0  0  0  0  0  0  0  0  0  0  0
   59.9484   26.5323   47.3811 H   0  0  0  0  0  0  0  0  0  0  0  0
   61.6396   26.2724   46.8254 H   0  0  0  0  0  0  0  0  0  0  0  0
   61.1023   28.5073   46.1687 H   0  0  0  0  0  0  0  0  0  0  0  0
   60.9433   27.5139   44.6695 H   0  0  0  0  0  0  0  0  0  0  0  0
   59.6381   30.1253   44.7417 H   0  0  0  0  0  0  0  0  0  0  0  0
   57.2738   30.8581   44.4357 H   0  0  0  0  0  0  0  0  0  0  0  0
   54.7130   27.1050   45.9740 H   0  0  0  0  0  0  0  0  0  0  0  0
   58.2558   26.2870   46.2004 H   0  0  0  0  0  0  0  0  0  0  0  0
   59.8720   22.2649   44.9027 H   0  0  0  0  0  0  0  0  0  0  0  0
   58.4322   20.9618   43.3410 H   0  0  0  0  0  0  0  0  0  0  0  0
  1  2  1  0
  2  3  1  0
  3  4  2  0
  4  5  1  0
  5  6  1  0
  6  7  1  0
  7  8  1  0
  8  9  1  0
  9 10  1  0
 10 11  2  0
 11 12  1  0
 12 13  2  0
 13 14  1  0
 13 15  1  0
 15 16  1  0
 15 17  2  0
  5 18  2  0
 18 19  1  0
 19 20  2  0
 20 21  1  0
 20  3  1  0
 17 10  1  0
  1 22  1  0
  1 23  1  0
  1 24  1  0
  4 25  1  0
  6 26  1  0
  6 27  1  0
  7 28  1  0
  8 29  1  0
  8 30  1  0
  9 31  1  0
  9 32  1  0
 11 33  1  0
 12 34  1  0
 16 35  1  0
 17 36  1  0
 18 37  1  0
 19 38  1  0
M  CHG  2  14  -1  21  -1
M  END
>  <UniqueID>  (10) 
9

>  <SMILES>  (10) 
COc1cc(CNCCc2ccc([O-])c(O)c2)ccc1[O-]

>  <Energy>  (10) 
34.6853490220471

>  <Genealogy>  (10) 
COc1cc(CNCCc2ccc([O-])c(O)c2)ccc1[O-] (protonated)
COc1cc(CNCCc2ccc([O-])c(O)c2)ccc1[O-] (3D coordinates assigned)
COc1cc(CNCCc2ccc([O-])c(O)c2)ccc1[O-] (optimized conformer: 34.6853490220471 kcal/mol)

>  <smiles>  (10) 
COc1cc(CNCCc2ccc(O)c(O)c2)ccc1O

>  <score_type>  (10) 
oracle

>  <origin>  (10) 
adg

>  <m_score__min__energy>  (10) 
-11.48

>  <m_primary>  (10) 
energy

$$$$
10:0
     RDKit          3D

 40 42  0  0  0  0  0  0  0  0999 V2000
   62.5980   33.8280   46.3760 C   0  0  0  0  0  0  0  0  0  0  0  0
   63.7670   33.3790   47.2480 C   0  0  0  0  0  0  0  0  0  0  0  0
   63.2970   32.6980   48.4090 O   0  0  0  0  0  0  0  0  0  0  0  0
   61.9900   32.2190   48.5430 C   0  0  0  0  0  0  0  0  0  0  0  0
   61.0520   32.9930   48.8810 O   0  0  0  0  0  0  0  0  0  0  0  0
   61.7030   30.7800   48.2270 C   0  0  2  0  0  0  0  0  0  0  0  0
   61.1400   30.6230   46.7870 C   0  0  0  0  0  0  0  0  0  0  0  0
   59.7470   30.2310   46.9660 N   0  0  0  0  0  0  0  0  0  0  0  0
   58.8800   29.7930   45.9080 C   0  0  0  0  0  0  0  0  0  0  0  0
   59.1610   28.6040   45.2200 C   0  0  0  0  0  0  0  0  0  0  0  0
   58.3750   28.2220   44.1350 C   0  0  0  0  0  0  0  0  0  0  0  0
   57.3140   29.0360   43.7400 C   0  0  0  0  0  0  0  0  0  0  0  0
   57.0410   30.1780   44.4230 N   0  0  0  0  0  0  0  0  0  0  0  0
   57.7730   30.5700   45.5010 C   0  0  0  0  0  0  0  0  0  0  0  0
   57.4040   31.7480   46.1640 O   0  0  0  0  0  0  0  0  0  0  0  0
   58.1420   32.9430   46.1680 C   0  0  0  0  0  0  0  0  0  0  0  0
   58.4270   33.5510   44.9380 C   0  0  0  0  0  0  0  0  0  0  0  0
   59.1670   34.7360   44.8870 C   0  0  0  0  0  0  0  0  0  0  0  0
   59.6200   35.3290   46.0680 C   0  0  0  0  0  0  0  0  0  0  0  0
   59.3210   34.7450   47.3020 C   0  0  0  0  0  0  0  0  0  0  0  0
   58.5770   33.5620   47.3600 C   0  0  0  0  0  0  0  0  0  0  0  0
   58.2560   33.0490   48.5730 F   0  0  0  0  0  0  0  0  0  0  0  0
   59.5660   29.9750   48.3440 C   0  0  0  0  0  0  0  0  0  0  0  0
   58.4960   29.5380   48.8440 O   0  0  0  0  0  0  0  0  0  0  0  0
   60.6840   30.2730   49.0860 O   0  0  0  0  0  0  0  0  0  0  0  0
   61.7639   34.1484   47.0175 H   0  0  0  0  0  0  0  0  0  0  0  0
   62.9158   34.6681   45.7409 H   0  0  0  0  0  0  0  0  0  0  0  0
   62.2717   32.9912   45.7409 H   0  0  0  0  0  0  0  0  0  0  0  0
   64.4109   32.7016   46.6679 H   0  0  0  0  0  0  0  0  0  0  0  0
   64.3340   34.2670   47.5641 H   0  0  0  0  0  0  0  0  0  0  0  0
   62.6540   30.2408   48.3490 H   0  0  0  0  0  0  0  0  0  0  0  0
   61.2063   31.5752   46.2402 H   0  0  0  0  0  0  0  0  0  0  0  0
   61.7051   29.8830   46.2013 H   0  0  0  0  0  0  0  0  0  0  0  0
   60.0034   27.9718   45.5374 H   0  0  0  0  0  0  0  0  0  0  0  0
   58.5892   27.2877   43.5954 H   0  0  0  0  0  0  0  0  0  0  0  0
   56.6973   28.7530   42.8742 H   0  0  0  0  0  0  0  0  0  0  0  0
   58.0658   33.0924   44.0057 H   0  0  0  0  0  0  0  0  0  0  0  0
   59.3927   35.2018   43.9164 H   0  0  0  0  0  0  0  0  0  0  0  0
   60.2118   36.2553   46.0267 H   0  0  0  0  0  0  0  0  0  0  0  0
   59.6721   35.2175   48.2312 H   0  0  0  0  0  0  0  0  0  0  0  0
  1  2  1  0
  2  3  1  0
  3  4  1  0
  4  5  2  0
  4  6  1  0
  6  7  1  0
  7  8  1  0
  8  9  1  0
  9 10  2  0
 10 11  1  0
 11 12  2  0
 12 13  1  0
 13 14  2  0
 14 15  1  0
 15 16  1  0
 16 17  2  0
 17 18  1  0
 18 19  2  0
 19 20  1  0
 20 21  2  0
 21 22  1  0
  8 23  1  0
 23 24  2  0
 23 25  1  0
 25  6  1  0
 14  9  1  0
 21 16  1  0
  1 26  1  0
  1 27  1  0
  1 28  1  0
  2 29  1  0
  2 30  1  0
  6 31  1  6
  7 32  1  0
  7 33  1  0
 10 34  1  0
 11 35  1  0
 12 36  1  0
 17 37  1  0
 18 38  1  0
 19 39  1  0
 20 40  1  0
M  END
>  <UniqueID>  (11) 
10

>  <SMILES>  (11) 
CCOC(=O)[C@@H]1CN(c2cccnc2Oc2ccccc2F)C(=O)O1

>  <Energy>  (11) 
64.47198853726587

>  <Genealogy>  (11) 
CCOC(=O)[C@@H]1CN(c2cccnc2Oc2ccccc2F)C(=O)O1 (chirality)
CCOC(=O)[C@@H]1CN(c2cccnc2Oc2ccccc2F)C(=O)O1 (3D coordinates assigned)
CCOC(=O)[C@@H]1CN(c2cccnc2Oc2ccccc2F)C(=O)O1 (nonaromatic ring conformer: 64.47198853726587 kcal/mol)

>  <smiles>  (11) 
CCOC(=O)C1CN(c2cccnc2Oc2ccccc2F)C(=O)O1

>  <score_type>  (11) 
oracle

>  <origin>  (11) 
adg

>  <m_score__min__energy>  (11) 
-6.79

>  <m_primary>  (11) 
energy

$$$$
11:0
     RDKit          3D

 50 53  0  0  0  0  0  0  0  0999 V2000
   55.7880   29.7150   46.0040 H   0  0  0  0  0  0  0  0  0  0  0  0
   55.7780   28.9900   45.2990 O   0  0  0  0  0  0  0  0  0  0  0  0
   56.3160   27.7200   45.5120 C   0  0  0  0  0  0  0  0  0  0  0  0
   55.5100   26.7460   46.0000 N   0  0  0  0  0  0  0  0  0  0  0  0
   55.9680   25.4930   46.2430 C   0  0  0  0  0  0  0  0  0  0  0  0
   55.1660   24.6300   46.6950 O   0  0  0  0  0  0  0  0  0  0  0  0
   57.2810   25.1730   46.0040 N   0  0  0  0  0  0  0  0  0  0  0  0
   57.7730   23.8100   46.2970 C   0  0  0  0  0  0  0  0  0  0  0  0
   56.9946   23.2593   46.8455 H   0  0  0  0  0  0  0  0  0  0  0  0
   58.6898   23.8961   46.8987 H   0  0  0  0  0  0  0  0  0  0  0  0
   58.1120   23.0450   45.0100 C   0  0  0  0  0  0  0  0  0  0  0  0
   58.2217   21.9777   45.2524 H   0  0  0  0  0  0  0  0  0  0  0  0
   59.0449   23.4657   44.6066 H   0  0  0  0  0  0  0  0  0  0  0  0
   57.0330   23.1960   43.9390 C   0  0  0  0  0  0  0  0  0  0  0  0
   56.0540   23.3330   44.4216 H   0  0  0  0  0  0  0  0  0  0  0  0
   57.2585   24.0713   43.3122 H   0  0  0  0  0  0  0  0  0  0  0  0
   57.0096   22.2924   43.3122 H   0  0  0  0  0  0  0  0  0  0  0  0
   58.1320   26.1340   45.5120 C   0  0  0  0  0  0  0  0  0  0  0  0
   59.3460   25.8610   45.2950 O   0  0  0  0  0  0  0  0  0  0  0  0
   57.6610   27.4280   45.2390 C   0  0  0  0  0  0  0  0  0  0  0  0
   58.5800   28.4590   44.7250 C   0  0  0  0  0  0  0  0  0  0  0  0
   59.1779   28.2235   43.8322 H   0  0  0  0  0  0  0  0  0  0  0  0
   58.7280   29.6700   45.2860 C   0  0  0  0  0  0  0  0  0  0  0  0
   59.3900   29.9700   46.5760 C   0  0  0  0  0  0  0  0  0  0  0  0
   59.8500   28.9860   47.5780 C   0  0  0  0  0  0  0  0  0  0  0  0
   60.3470   27.7320   47.1830 C   0  0  0  0  0  0  0  0  0  0  0  0
   60.4121   27.4811   46.1140 H   0  0  0  0  0  0  0  0  0  0  0  0
   60.7590   26.8020   48.1420 C   0  0  0  0  0  0  0  0  0  0  0  0
   61.1576   25.8268   47.8258 H   0  0  0  0  0  0  0  0  0  0  0  0
   60.6650   27.1100   49.5030 C   0  0  0  0  0  0  0  0  0  0  0  0
   60.9946   26.3799   50.2568 H   0  0  0  0  0  0  0  0  0  0  0  0
   60.1520   28.3460   49.9040 C   0  0  0  0  0  0  0  0  0  0  0  0
   60.0731   28.5859   50.9746 H   0  0  0  0  0  0  0  0  0  0  0  0
   59.7390   29.2780   48.9490 C   0  0  0  0  0  0  0  0  0  0  0  0
   59.3250   30.2449   49.2710 H   0  0  0  0  0  0  0  0  0  0  0  0
   59.5040   31.2480   46.7770 N   0  0  0  0  0  0  0  0  0  0  0  0
   58.9180   31.8970   45.6530 C   0  0  0  0  0  0  0  0  0  0  0  0
   58.8420   33.2750   45.4480 C   0  0  0  0  0  0  0  0  0  0  0  0
   59.3510   34.1440   46.4240 O   0  0  0  0  0  0  0  0  0  0  0  0
   58.9690   34.1190   47.7950 C   0  0  0  0  0  0  0  0  0  0  0  0
   59.8674   34.1778   48.4271 H   0  0  0  0  0  0  0  0  0  0  0  0
   58.3136   34.9762   48.0087 H   0  0  0  0  0  0  0  0  0  0  0  0
   58.4309   33.1837   48.0087 H   0  0  0  0  0  0  0  0  0  0  0  0
   58.2470   33.7300   44.2490 C   0  0  0  0  0  0  0  0  0  0  0  0
   58.1598   34.8095   44.0565 H   0  0  0  0  0  0  0  0  0  0  0  0
   57.7650   32.8070   43.2990 C   0  0  0  0  0  0  0  0  0  0  0  0
   57.3082   33.1718   42.3672 H   0  0  0  0  0  0  0  0  0  0  0  0
   57.8630   31.4260   43.5320 C   0  0  0  0  0  0  0  0  0  0  0  0
   57.5020   30.7010   42.7877 H   0  0  0  0  0  0  0  0  0  0  0  0
   58.4320   30.9960   44.7360 C   0  0  0  0  0  0  0  0  0  0  0  0
  1  2  1  0
  2  3  1  0
  3  4  1  0
  4  5  1  0
  5  6  2  0
  5  7  1  0
  7  8  1  0
  8  9  1  0
  8 10  1  0
  8 11  1  0
 11 12  1  0
 11 13  1  0
 11 14  1  0
 14 15  1  0
 14 16  1  0
 14 17  1  0
  7 18  1  0
 18 19  2  0
 18 20  1  0
 20 21  1  0
 21 22  1  0
 21 23  2  0
 23 24  1  0
 24 25  1  0
 25 26  2  0
 26 27  1  0
 26 28  1  0
 28 29  1  0
 28 30  2  0
 30 31  1  0
 30 32  1  0
 32 33  1  0
 32 34  2  0
 34 35  1  0
 24 36  2  0
 36 37  1  0
 37 38  2  0
 38 39  1  0
 39 40  1  0
 40 41  1  0
 40 42  1  0
 40 43  1  0
 38 44  1  0
 44 45  1  0
 44 46  2  0
 46 47  1  0
 46 48  1  0
 48 49  1  0
 48 50  2  0
 20  3  2  0
 50 23  1  0
 34 25  1  0
 50 37  1  0
M  CHG  1   4  -1
M  END
>  <UniqueID>  (12) 
11

>  <SMILES>  (12) 
CCCn1c(=O)[n-]c(O)c(/C=C2/C(c3ccccc3)=Nc3c(OC)cccc32)c1=O

>  <Energy>  (12) 
98.12789311761635

>  <Genealogy>  (12) 
CCCn1c(=O)[n-]c(O)c(C=C2C(c3ccccc3)=Nc3c(OC)cccc32)c1=O (protonated)
CCCn1c(=O)[n-]c(O)c(/C=C2/C(c3ccccc3)=Nc3c(OC)cccc32)c1=O (cis-trans isomerization)
CCCn1c(=O)[n-]c(O)c(/C=C2/C(c3ccccc3)=Nc3c(OC)cccc32)c1=O (3D coordinates assigned)
CCCn1c(=O)[n-]c(O)c(/C=C2/C(c3ccccc3)=Nc3c(OC)cccc32)c1=O (nonaromatic ring conformer: 98.12789311761635 kcal/mol)

>  <smiles>  (12) 
CCCn1c(=O)[nH]c(O)c(C=C2C(c3ccccc3)=Nc3c(OC)cccc32)c1=O

>  <score_type>  (12) 
oracle

>  <origin>  (12) 
adg

>  <m_score__min__energy>  (12) 
-10.76

>  <m_primary>  (12) 
energy

$$$$
12:0
     RDKit          3D

 69 74  0  0  0  0  0  0  0  0999 V2000
   56.9820   21.2780   46.8480 C   0  0  0  0  0  0  0  0  0  0  0  0
   56.7920   21.8750   45.4760 C   0  0  0  0  0  0  0  0  0  0  0  0
   56.7620   21.0160   44.3630 C   0  0  0  0  0  0  0  0  0  0  0  0
   56.6180   21.5290   43.0730 C   0  0  0  0  0  0  0  0  0  0  0  0
   56.5060   22.9040   42.8750 C   0  0  0  0  0  0  0  0  0  0  0  0
   56.5240   23.7710   43.9670 C   0  0  0  0  0  0  0  0  0  0  0  0
   56.6350   23.2740   45.2810 C   0  0  0  0  0  0  0  0  0  0  0  0
   56.6630   24.2560   46.4390 C   0  0  0  0  0  0  0  0  0  0  0  0
   57.3970   25.4690   46.0830 N   0  0  0  0  0  0  0  0  0  0  0  0
   58.8550   25.5970   46.0590 C   0  0  0  0  0  0  0  0  0  0  0  0
   59.0660   27.0290   45.6580 C   0  0  0  0  0  0  0  0  0  0  0  0
   60.2820   27.6920   45.5100 C   0  0  0  0  0  0  0  0  0  0  0  0
   60.2680   29.0490   45.1560 C   0  0  0  0  0  0  0  0  0  0  0  0
   59.0510   29.7210   44.9500 C   0  0  0  0  0  0  0  0  0  0  0  0
   57.8190   29.0510   45.1090 C   0  0  0  0  0  0  0  0  0  0  0  0
   56.5440   29.7680   44.8720 C   0  0  0  0  0  0  0  0  0  0  0  0
   55.4640   29.1220   44.8610 O   0  0  0  0  0  0  0  0  0  0  0  0
   56.5180   31.1630   44.5350 N   0  0  0  0  0  0  0  0  0  0  0  0
   57.3720   32.1760   45.0860 C   0  0  0  0  0  0  0  0  0  0  0  0
   57.7570   33.3000   44.3350 C   0  0  0  0  0  0  0  0  0  0  0  0
   58.5570   34.2890   44.9130 C   0  0  0  0  0  0  0  0  0  0  0  0
   58.9940   34.1570   46.2330 C   0  0  0  0  0  0  0  0  0  0  0  0
   58.6590   33.0140   46.9820 C   0  0  0  0  0  0  0  0  0  0  0  0
   59.1040   32.8740   48.3880 C   0  0  0  0  0  0  0  0  0  0  0  0
   58.2390   32.6800   49.2870 O   0  0  0  0  0  0  0  0  0  0  0  0
   60.4920   32.9710   48.7570 N   0  0  0  0  0  0  0  0  0  0  0  0
   60.8460   33.5400   50.0650 C   0  0  0  0  0  0  0  0  0  0  0  0
   62.3140   33.9800   50.0780 C   0  0  0  0  0  0  0  0  0  0  0  0
   63.2880   32.8240   49.7240 C   0  0  0  0  0  0  0  0  0  0  0  0
   62.6320   31.7550   48.8120 C   0  0  0  0  0  0  0  0  0  0  0  0
   61.5320   32.3460   47.9250 C   0  0  0  0  0  0  0  0  0  0  0  0
   64.3980   33.3750   49.0420 O   0  0  0  0  0  0  0  0  0  0  0  0
   65.5260   33.0000   49.7660 C   0  0  0  0  0  0  0  0  0  0  0  0
   65.0320   32.5400   51.1010 C   0  0  0  0  0  0  0  0  0  0  0  0
   63.6970   32.1910   50.9210 O   0  0  0  0  0  0  0  0  0  0  0  0
   57.8450   32.0280   46.3960 C   0  0  0  0  0  0  0  0  0  0  0  0
   57.8660   27.6890   45.4650 C   0  0  0  0  0  0  0  0  0  0  0  0
   56.8180   26.7310   45.7570 C   0  0  0  0  0  0  0  0  0  0  0  0
   55.5800   26.9610   45.7730 O   0  0  0  0  0  0  0  0  0  0  0  0
   56.7421   22.0318   47.6123 H   0  0  0  0  0  0  0  0  0  0  0  0
   56.3154   20.4110   46.9661 H   0  0  0  0  0  0  0  0  0  0  0  0
   58.0271   20.9558   46.9661 H   0  0  0  0  0  0  0  0  0  0  0  0
   56.8529   19.9297   44.5104 H   0  0  0  0  0  0  0  0  0  0  0  0
   56.5929   20.8465   42.2107 H   0  0  0  0  0  0  0  0  0  0  0  0
   56.4033   23.3058   41.8562 H   0  0  0  0  0  0  0  0  0  0  0  0
   56.4507   24.8559   43.8008 H   0  0  0  0  0  0  0  0  0  0  0  0
   55.6306   24.5261   46.7060 H   0  0  0  0  0  0  0  0  0  0  0  0
   57.1701   23.7780   47.2901 H   0  0  0  0  0  0  0  0  0  0  0  0
   59.2851   25.3976   47.0516 H   0  0  0  0  0  0  0  0  0  0  0  0
   59.3402   24.8819   45.3783 H   0  0  0  0  0  0  0  0  0  0  0  0
   61.2332   27.1624   45.6674 H   0  0  0  0  0  0  0  0  0  0  0  0
   61.2175   29.5919   45.0386 H   0  0  0  0  0  0  0  0  0  0  0  0
   59.0587   30.7824   44.6612 H   0  0  0  0  0  0  0  0  0  0  0  0
   57.4279   33.4012   43.2903 H   0  0  0  0  0  0  0  0  0  0  0  0
   58.8436   35.1744   44.3266 H   0  0  0  0  0  0  0  0  0  0  0  0
   59.6034   34.9509   46.6895 H   0  0  0  0  0  0  0  0  0  0  0  0
   60.2050   34.4109   50.2666 H   0  0  0  0  0  0  0  0  0  0  0  0
   60.6971   32.7730   50.8393 H   0  0  0  0  0  0  0  0  0  0  0  0
   62.4457   34.7886   49.3440 H   0  0  0  0  0  0  0  0  0  0  0  0
   62.5519   34.3148   51.0984 H   0  0  0  0  0  0  0  0  0  0  0  0
   63.4076   31.3147   48.1682 H   0  0  0  0  0  0  0  0  0  0  0  0
   62.1707   30.9956   49.4605 H   0  0  0  0  0  0  0  0  0  0  0  0
   61.9698   33.1045   47.2594 H   0  0  0  0  0  0  0  0  0  0  0  0
   61.0794   31.5403   47.3283 H   0  0  0  0  0  0  0  0  0  0  0  0
   66.0542   32.1829   49.2527 H   0  0  0  0  0  0  0  0  0  0  0  0
   66.2334   33.8363   49.8671 H   0  0  0  0  0  0  0  0  0  0  0  0
   65.6111   31.6695   51.4428 H   0  0  0  0  0  0  0  0  0  0  0  0
   65.1419   33.3265   51.8622 H   0  0  0  0  0  0  0  0  0  0  0  0
   57.5769   31.1306   46.9729 H   0  0  0  0  0  0  0  0  0  0  0  0
  1  2  1  0
  2  3  2  0
  3  4  1  0
  4  5  2  0
  5  6  1  0
  6  7  2  0
  7  8  1  0
  8  9  1  0
  9 10  1  0
 10 11  1  0
 11 12  2  0
 12 13  1  0
 13 14  2  0
 14 15  1  0
 15 16  1  0
 16 17  2  0
 16 18  1  0
 18 19  1  0
 19 20  2  0
 20 21  1  0
 21 22  2  0
 22 23  1  0
 23 24  1  0
 24 25  2  0
 24 26  1  0
 26 27  1  0
 27 28  1  0
 28 29  1  0
 29 30  1  0
 30 31  1  0
 29 32  1  0
 32 33  1  0
 33 34  1  0
 34 35  1  0
 23 36  2  0
 15 37  2  0
 37 38  1  0
 38 39  2  0
  7  2  1  0
 38  9  1  0
 37 11  1  0
 36 19  1  0
 31 26  1  0
 35 29  1  0
  1 40  1  0
  1 41  1  0
  1 42  1  0
  3 43  1  0
  4 44  1  0
  5 45  1  0
  6 46  1  0
  8 47  1  0
  8 48  1  0
 10 49  1  0
 10 50  1  0
 12 51  1  0
 13 52  1  0
 14 53  1  0
 20 54  1  0
 21 55  1  0
 22 56  1  0
 27 57  1  0
 27 58  1  0
 28 59  1  0
 28 60  1  0
 30 61  1  0
 30 62  1  0
 31 63  1  0
 31 64  1  0
 33 65  1  0
 33 66  1  0
 34 67  1  0
 34 68  1  0
 36 69  1  0
M  CHG  1  18  -1
M  END
>  <UniqueID>  (13) 
12

>  <SMILES>  (13) 
Cc1ccccc1CN1Cc2cccc(C(=O)[N-]c3cccc(C(=O)N4CCC5(CC4)OCCO5)c3)c2C1=O

>  <Energy>  (13) 
108.86371996987513

>  <Genealogy>  (13) 
Cc1ccccc1CN1Cc2cccc(C(=O)[N-]c3cccc(C(=O)N4CCC5(CC4)OCCO5)c3)c2C1=O (protonated)
Cc1ccccc1CN1Cc2cccc(C(=O)[N-]c3cccc(C(=O)N4CCC5(CC4)OCCO5)c3)c2C1=O (3D coordinates assigned)
Cc1ccccc1CN1Cc2cccc(C(=O)[N-]c3cccc(C(=O)N4CCC5(CC4)OCCO5)c3)c2C1=O (nonaromatic ring conformer: 108.86371996987513 kcal/mol)

>  <smiles>  (13) 
Cc1ccccc1CN1Cc2cccc(C(=O)Nc3cccc(C(=O)N4CCC5(CC4)OCCO5)c3)c2C1=O

>  <score_type>  (13) 
oracle

>  <origin>  (13) 
adg

>  <m_score__min__energy>  (13) 
-13.65

>  <m_primary>  (13) 
energy

$$$$
13:0
     RDKit          3D

 31 32  0  0  0  0  0  0  0  0999 V2000
   56.2370   21.8790   42.7040 N   0  0  0  0  0  0  0  0  0  0  0  0
   56.3160   22.9490   43.1380 C   0  0  0  0  0  0  0  0  0  0  0  0
   56.4170   24.3020   43.6860 C   0  0  0  0  0  0  0  0  0  0  0  0
   56.7450   24.2200   45.1050 N   0  0  0  0  0  0  0  0  0  0  0  0
   56.2310   25.6710   45.9110 S   0  0  0  0  0  0  0  0  0  0  0  0
   56.4100   25.5040   47.3940 O   0  0  0  0  0  0  0  0  0  0  0  0
   54.7740   25.9140   45.6260 O   0  0  0  0  0  0  0  0  0  0  0  0
   57.2010   27.0400   45.3700 C   0  0  0  0  0  0  0  0  0  0  0  0
   58.5260   26.8320   44.9670 C   0  0  0  0  0  0  0  0  0  0  0  0
   59.3050   27.9070   44.5340 C   0  0  0  0  0  0  0  0  0  0  0  0
   58.7640   29.1940   44.4930 C   0  0  0  0  0  0  0  0  0  0  0  0
   57.4280   29.4120   44.8760 C   0  0  0  0  0  0  0  0  0  0  0  0
   56.8520   30.6910   44.8640 O   0  0  0  0  0  0  0  0  0  0  0  0
   57.4950   31.8750   45.2490 C   0  0  0  0  0  0  0  0  0  0  0  0
   58.1380   31.9180   46.4940 C   0  0  0  0  0  0  0  0  0  0  0  0
   58.7760   33.0870   46.9200 C   0  0  0  0  0  0  0  0  0  0  0  0
   58.7660   34.2250   46.1100 C   0  0  0  0  0  0  0  0  0  0  0  0
   58.1120   34.1990   44.8760 C   0  0  0  0  0  0  0  0  0  0  0  0
   57.4720   33.0310   44.4460 C   0  0  0  0  0  0  0  0  0  0  0  0
   56.6580   28.3320   45.3290 C   0  0  0  0  0  0  0  0  0  0  0  0
   57.2068   24.8555   43.1570 H   0  0  0  0  0  0  0  0  0  0  0  0
   55.4584   24.8260   43.5573 H   0  0  0  0  0  0  0  0  0  0  0  0
   58.9542   25.8191   44.9916 H   0  0  0  0  0  0  0  0  0  0  0  0
   60.3472   27.7398   44.2245 H   0  0  0  0  0  0  0  0  0  0  0  0
   59.3842   30.0394   44.1604 H   0  0  0  0  0  0  0  0  0  0  0  0
   58.1406   31.0272   47.1393 H   0  0  0  0  0  0  0  0  0  0  0  0
   59.2864   33.1105   47.8941 H   0  0  0  0  0  0  0  0  0  0  0  0
   59.2734   35.1420   46.4441 H   0  0  0  0  0  0  0  0  0  0  0  0
   58.1000   35.0975   44.2415 H   0  0  0  0  0  0  0  0  0  0  0  0
   56.9497   33.0162   43.4780 H   0  0  0  0  0  0  0  0  0  0  0  0
   55.6207   28.4992   45.6546 H   0  0  0  0  0  0  0  0  0  0  0  0
  1  2  3  0
  2  3  1  0
  3  4  1  0
  4  5  1  0
  5  6  2  0
  5  7  2  0
  5  8  1  0
  8  9  2  0
  9 10  1  0
 10 11  2  0
 11 12  1  0
 12 13  1  0
 13 14  1  0
 14 15  2  0
 15 16  1  0
 16 17  2  0
 17 18  1  0
 18 19  2  0
 12 20  2  0
 20  8  1  0
 19 14  1  0
  3 21  1  0
  3 22  1  0
  9 23  1  0
 10 24  1  0
 11 25  1  0
 15 26  1  0
 16 27  1  0
 17 28  1  0
 18 29  1  0
 19 30  1  0
 20 31  1  0
M  CHG  1   4  -1
M  END
>  <UniqueID>  (14) 
13

>  <SMILES>  (14) 
N#CC[N-]S(=O)(=O)c1cccc(Oc2ccccc2)c1

>  <Energy>  (14) 
34.54326222067919

>  <Genealogy>  (14) 
N#CC[N-]S(=O)(=O)c1cccc(Oc2ccccc2)c1 (protonated)
N#CC[N-]S(=O)(=O)c1cccc(Oc2ccccc2)c1 (3D coordinates assigned)
N#CC[N-]S(=O)(=O)c1cccc(Oc2ccccc2)c1 (optimized conformer: 34.54326222067919 kcal/mol)

>  <smiles>  (14) 
N#CCNS(=O)(=O)c1cccc(Oc2ccccc2)c1

>  <score_type>  (14) 
oracle

>  <origin>  (14) 
adg

>  <m_score__min__energy>  (14) 
-9.2599999999999998

>  <m_primary>  (14) 
energy

$$$$
14:0
     RDKit          3D

 50 52  0  0  0  0  0  0  0  0999 V2000
   64.1020   32.3220   47.5820 N   0  0  0  0  0  0  0  0  0  0  0  0
   62.9240   32.4850   48.3810 C   0  0  0  0  0  0  0  0  0  0  0  0
   62.8070   33.5310   49.1440 N   0  0  0  0  0  0  0  0  0  0  0  0
   61.8560   31.4540   48.3400 C   0  0  0  0  0  0  0  0  0  0  0  0
   61.4410   30.9130   47.1110 C   0  0  0  0  0  0  0  0  0  0  0  0
   60.4420   29.9350   47.0660 C   0  0  0  0  0  0  0  0  0  0  0  0
   59.8320   29.4900   48.2490 C   0  0  0  0  0  0  0  0  0  0  0  0
   58.7770   28.4190   48.2130 C   0  0  0  0  0  0  0  0  0  0  0  0
   59.3910   27.1150   47.9880 N   0  0  0  0  0  0  0  0  0  0  0  0
   58.7390   26.0400   47.3010 C   0  0  0  0  0  0  0  0  0  0  0  0
   58.1710   25.1200   47.9490 O   0  0  0  0  0  0  0  0  0  0  0  0
   58.6850   26.0370   45.8030 C   0  0  0  0  0  0  0  0  0  0  0  0
   58.2050   27.3330   45.2950 N   0  0  0  0  0  0  0  0  0  0  0  0
   59.1060   28.1900   44.7280 C   0  0  0  0  0  0  0  0  0  0  0  0
   58.7030   29.4370   44.2490 C   0  0  0  0  0  0  0  0  0  0  0  0
   57.3640   29.8120   44.3410 C   0  0  0  0  0  0  0  0  0  0  0  0
   56.9630   31.0990   43.8580 N   0  0  0  0  0  0  0  0  0  0  0  0
   57.2000   32.3440   44.5300 C   0  0  0  0  0  0  0  0  0  0  0  0
   56.3130   32.7990   45.2980 O   0  0  0  0  0  0  0  0  0  0  0  0
   58.5230   33.0530   44.4410 C   0  0  0  0  0  0  0  0  0  0  0  0
   58.9540   33.4940   45.8040 C   0  0  0  0  0  0  0  0  0  0  0  0
   59.7470   34.5990   46.0890 C   0  0  0  0  0  0  0  0  0  0  0  0
   59.9350   34.7990   47.4620 C   0  0  0  0  0  0  0  0  0  0  0  0
   59.2810   33.8670   48.2590 C   0  0  0  0  0  0  0  0  0  0  0  0
   58.4680   32.7900   47.2530 S   0  0  0  0  0  0  0  0  0  0  0  0
   56.4520   28.9510   44.9680 C   0  0  0  0  0  0  0  0  0  0  0  0
   55.1260   29.3340   45.1460 O   0  0  0  0  0  0  0  0  0  0  0  0
   56.8890   27.7030   45.4350 C   0  0  0  0  0  0  0  0  0  0  0  0
   56.0600   26.9330   45.9930 O   0  0  0  0  0  0  0  0  0  0  0  0
   60.2360   30.0360   49.4760 C   0  0  0  0  0  0  0  0  0  0  0  0
   61.2400   31.0080   49.5220 C   0  0  0  0  0  0  0  0  0  0  0  0
   64.8840   33.0120   47.6380 H   0  0  0  0  0  0  0  0  0  0  0  0
   64.1810   31.5440   46.8920 H   0  0  0  0  0  0  0  0  0  0  0  0
   62.7330   34.4870   48.7310 H   0  0  0  0  0  0  0  0  0  0  0  0
   62.8080   33.4540   50.1850 H   0  0  0  0  0  0  0  0  0  0  0  0
   61.9056   31.2616   46.1769 H   0  0  0  0  0  0  0  0  0  0  0  0
   60.1329   29.5126   46.0985 H   0  0  0  0  0  0  0  0  0  0  0  0
   58.2388   28.4066   49.1723 H   0  0  0  0  0  0  0  0  0  0  0  0
   58.0764   28.6325   47.3923 H   0  0  0  0  0  0  0  0  0  0  0  0
   59.6927   25.8448   45.4061 H   0  0  0  0  0  0  0  0  0  0  0  0
   57.9888   25.2504   45.4766 H   0  0  0  0  0  0  0  0  0  0  0  0
   60.1621   27.8930   44.6483 H   0  0  0  0  0  0  0  0  0  0  0  0
   59.4388   30.1209   43.8008 H   0  0  0  0  0  0  0  0  0  0  0  0
   59.2765   32.3691   44.0231 H   0  0  0  0  0  0  0  0  0  0  0  0
   58.4202   33.9336   43.7898 H   0  0  0  0  0  0  0  0  0  0  0  0
   60.1821   35.2493   45.3158 H   0  0  0  0  0  0  0  0  0  0  0  0
   60.5441   35.6181   47.8720 H   0  0  0  0  0  0  0  0  0  0  0  0
   59.2927   33.8382   49.3586 H   0  0  0  0  0  0  0  0  0  0  0  0
   59.7600   29.6974   50.4081 H   0  0  0  0  0  0  0  0  0  0  0  0
   61.5502   31.4269   50.4907 H   0  0  0  0  0  0  0  0  0  0  0  0
  1  2  1  0
  2  3  2  0
  2  4  1  0
  4  5  2  0
  5  6  1  0
  6  7  2  0
  7  8  1  0
  8  9  1  0
  9 10  1  0
 10 11  2  0
 10 12  1  0
 12 13  1  0
 13 14  1  0
 14 15  2  0
 15 16  1  0
 16 17  1  0
 17 18  1  0
 18 19  2  0
 18 20  1  0
 20 21  1  0
 21 22  2  0
 22 23  1  0
 23 24  2  0
 24 25  1  0
 16 26  2  0
 26 27  1  0
 26 28  1  0
 28 29  2  0
  7 30  1  0
 30 31  2  0
 31  4  1  0
 28 13  1  0
 25 21  1  0
  1 32  1  0
  1 33  1  0
  3 34  1  0
  3 35  1  0
  5 36  1  0
  6 37  1  0
  8 38  1  0
  8 39  1  0
 12 40  1  0
 12 41  1  0
 14 42  1  0
 15 43  1  0
 20 44  1  0
 20 45  1  0
 22 46  1  0
 23 47  1  0
 24 48  1  0
 30 49  1  0
 31 50  1  0
M  CHG  4   3   1   9  -1  17  -1  27  -1
M  END
>  <UniqueID>  (15) 
14

>  <SMILES>  (15) 
NC(=[NH2+])c1ccc(C[N-]C(=O)Cn2ccc([N-]C(=O)Cc3cccs3)c([O-])c2=O)cc1

>  <Energy>  (15) 
83.71371315093226

>  <Genealogy>  (15) 
NC(=[NH2+])c1ccc(C[N-]C(=O)Cn2ccc([N-]C(=O)Cc3cccs3)c([O-])c2=O)cc1 (protonated)
NC(=[NH2+])c1ccc(C[N-]C(=O)Cn2ccc([N-]C(=O)Cc3cccs3)c([O-])c2=O)cc1 (3D coordinates assigned)
NC(=[NH2+])c1ccc(C[N-]C(=O)Cn2ccc([N-]C(=O)Cc3cccs3)c([O-])c2=O)cc1 (optimized conformer: 83.71371315093226 kcal/mol)

>  <smiles>  (15) 
N=C(N)c1ccc(CNC(=O)Cn2ccc(NC(=O)Cc3cccs3)c(O)c2=O)cc1

>  <score_type>  (15) 
oracle

>  <origin>  (15) 
adg

>  <m_score__min__energy>  (15) 
-13.68

>  <m_primary>  (15) 
energy

$$$$
15:0
     RDKit          3D

 47 49  0  0  0  0  0  0  0  0999 V2000
   65.2700   32.4020   50.0110 C   0  0  0  0  0  0  0  0  0  0  0  0
   64.2920   33.2560   49.4320 O   0  0  0  0  0  0  0  0  0  0  0  0
   63.4420   34.0580   50.2000 C   0  0  0  0  0  0  0  0  0  0  0  0
   63.8560   34.6060   51.2570 O   0  0  0  0  0  0  0  0  0  0  0  0
   62.0290   34.2730   49.7570 C   0  0  0  0  0  0  0  0  0  0  0  0
   61.6400   33.2550   48.7600 N   0  0  0  0  0  0  0  0  0  0  0  0
   60.3630   32.5770   49.1180 C   0  0  0  0  0  0  0  0  0  0  0  0
   59.1550   33.1310   48.3500 C   0  0  0  0  0  0  0  0  0  0  0  0
   59.3430   33.0020   46.8210 C   0  0  0  0  0  0  0  0  0  0  0  0
   58.6770   31.7960   46.3190 N   0  0  0  0  0  0  0  0  0  0  0  0
   57.8410   31.7390   45.2640 C   0  0  0  0  0  0  0  0  0  0  0  0
   57.3710   30.4460   45.1410 C   0  0  0  0  0  0  0  0  0  0  0  0
   56.2520   30.0550   44.2660 C   0  0  0  0  0  0  0  0  0  0  0  0
   55.1410   29.3320   44.7850 N   0  0  0  0  0  0  0  0  0  0  0  0
   56.2420   30.4310   43.0630 O   0  0  0  0  0  0  0  0  0  0  0  0
   58.0080   29.7530   46.1770 C   0  0  0  0  0  0  0  0  0  0  0  0
   57.9570   28.4820   46.4590 N   0  0  0  0  0  0  0  0  0  0  0  0
   57.7100   27.3910   45.5630 C   0  0  0  0  0  0  0  0  0  0  0  0
   57.1110   26.2230   46.0550 C   0  0  0  0  0  0  0  0  0  0  0  0
   56.9100   25.1270   45.2120 C   0  0  0  0  0  0  0  0  0  0  0  0
   57.3280   25.1820   43.8790 C   0  0  0  0  0  0  0  0  0  0  0  0
   57.1330   24.1170   43.0620 F   0  0  0  0  0  0  0  0  0  0  0  0
   57.9600   26.3290   43.3920 C   0  0  0  0  0  0  0  0  0  0  0  0
   58.1660   27.4260   44.2340 C   0  0  0  0  0  0  0  0  0  0  0  0
   58.7760   30.6030   46.8840 N   0  0  0  0  0  0  0  0  0  0  0  0
   60.8310   32.9990   46.4120 C   0  0  0  0  0  0  0  0  0  0  0  0
   61.6590   33.8340   47.3930 C   0  0  0  0  0  0  0  0  0  0  0  0
   65.2041   32.4596   51.1075 H   0  0  0  0  0  0  0  0  0  0  0  0
   65.0906   31.3663   49.6867 H   0  0  0  0  0  0  0  0  0  0  0  0
   66.2721   32.7193   49.6867 H   0  0  0  0  0  0  0  0  0  0  0  0
   61.3613   34.2005   50.6281 H   0  0  0  0  0  0  0  0  0  0  0  0
   61.9470   35.2697   49.2990 H   0  0  0  0  0  0  0  0  0  0  0  0
   60.4601   31.5047   48.8927 H   0  0  0  0  0  0  0  0  0  0  0  0
   60.1835   32.7566   50.1883 H   0  0  0  0  0  0  0  0  0  0  0  0
   58.2560   32.5712   48.6473 H   0  0  0  0  0  0  0  0  0  0  0  0
   59.0527   34.1986   48.5946 H   0  0  0  0  0  0  0  0  0  0  0  0
   58.8784   33.8884   46.3644 H   0  0  0  0  0  0  0  0  0  0  0  0
   57.5766   32.5824   44.6092 H   0  0  0  0  0  0  0  0  0  0  0  0
   55.2410   28.7250   45.6290 H   0  0  0  0  0  0  0  0  0  0  0  0
   56.7982   26.1691   47.1082 H   0  0  0  0  0  0  0  0  0  0  0  0
   56.4222   24.2196   45.5977 H   0  0  0  0  0  0  0  0  0  0  0  0
   58.2958   26.3690   42.3453 H   0  0  0  0  0  0  0  0  0  0  0  0
   58.6861   28.3184   43.8555 H   0  0  0  0  0  0  0  0  0  0  0  0
   61.2044   31.9643   46.4126 H   0  0  0  0  0  0  0  0  0  0  0  0
   60.9243   33.4355   45.4066 H   0  0  0  0  0  0  0  0  0  0  0  0
   62.6992   33.8740   47.0373 H   0  0  0  0  0  0  0  0  0  0  0  0
   61.2196   34.8413   47.4414 H   0  0  0  0  0  0  0  0  0  0  0  0
  1  2  1  0
  2  3  1  0
  3  4  2  0
  3  5  1  0
  5  6  1  0
  6  7  1  0
  7  8  1  0
  8  9  1  0
  9 10  1  0
 10 11  1  0
 11 12  2  0
 12 13  1  0
 13 14  1  0
 13 15  2  0
 12 16  1  0
 16 17  2  3
 17 18  1  0
 18 19  2  0
 19 20  1  0
 20 21  2  0
 21 22  1  0
 21 23  1  0
 23 24  2  0
 16 25  1  0
  9 26  1  0
 26 27  1  0
 27  6  1  0
 25 10  1  0
 24 18  1  0
  1 28  1  0
  1 29  1  0
  1 30  1  0
  5 31  1  0
  5 32  1  0
  7 33  1  0
  7 34  1  0
  8 35  1  0
  8 36  1  0
  9 37  1  0
 11 38  1  0
 14 39  1  0
 19 40  1  0
 20 41  1  0
 23 42  1  0
 24 43  1  0
 26 44  1  0
 26 45  1  0
 27 46  1  0
 27 47  1  0
M  CHG  2  14  -1  25  -1
M  END
>  <UniqueID>  (16) 
15

>  <SMILES>  (16) 
COC(=O)CN1CCC(n2cc(C([NH-])=O)c(=Nc3ccc(F)cc3)[n-]2)CC1

>  <Energy>  (16) 
97.6418776941886

>  <Genealogy>  (16) 
COC(=O)CN1CCC(n2cc(C([NH-])=O)c(=Nc3ccc(F)cc3)[n-]2)CC1 (protonated)
COC(=O)CN1CCC(n2cc(C([NH-])=O)c(=Nc3ccc(F)cc3)[n-]2)CC1 (3D coordinates assigned)
COC(=O)CN1CCC(n2cc(C([NH-])=O)c(=Nc3ccc(F)cc3)[n-]2)CC1 (nonaromatic ring conformer: 97.6418776941886 kcal/mol)

>  <smiles>  (16) 
COC(=O)CN1CCC(n2cc(C(N)=O)c(=Nc3ccc(F)cc3)[nH]2)CC1

>  <score_type>  (16) 
oracle

>  <origin>  (16) 
adg

>  <m_score__min__energy>  (16) 
-11.69

>  <m_primary>  (16) 
energy

$$$$
16:0
     RDKit          3D

 50 52  0  0  0  0  0  0  0  0999 V2000
   57.9020   26.8720   46.8510 O   0  0  0  0  0  0  0  0  0  0  0  0
   56.9810   27.3420   46.1280 C   0  0  0  0  0  0  0  0  0  0  0  0
   55.7510   26.6210   45.9710 N   0  0  0  0  0  0  0  0  0  0  0  0
   55.5710   25.2010   46.0820 C   0  0  0  0  0  0  0  0  0  0  0  0
   54.4410   24.6200   45.4920 C   0  0  0  0  0  0  0  0  0  0  0  0
   54.2180   23.2440   45.5940 C   0  0  0  0  0  0  0  0  0  0  0  0
   55.1160   22.4390   46.3010 C   0  0  0  0  0  0  0  0  0  0  0  0
   56.2350   23.0090   46.9160 C   0  0  0  0  0  0  0  0  0  0  0  0
   57.1110   22.1990   47.6340 O   0  0  0  0  0  0  0  0  0  0  0  0
   56.4600   24.3910   46.8140 C   0  0  0  0  0  0  0  0  0  0  0  0
   57.1930   28.6150   45.3990 C   0  0  0  0  0  0  0  0  0  0  0  0
   56.1030   29.3070   44.8390 C   0  0  0  0  0  0  0  0  0  0  0  0
   56.3030   30.5060   44.1490 C   0  0  0  0  0  0  0  0  0  0  0  0
   57.5920   31.0410   44.0160 C   0  0  0  0  0  0  0  0  0  0  0  0
   57.8110   32.3110   43.2380 C   0  0  0  0  0  0  0  0  0  0  0  0
   57.5780   33.4740   44.1040 N   0  0  0  0  0  0  0  0  0  0  0  0
   58.7740   33.8280   44.8940 C   0  0  0  0  0  0  0  0  0  0  0  0
   58.5560   33.7760   46.4430 C   0  0  1  0  0  0  0  0  0  0  0  0
   57.1740   33.7760   46.7250 O   0  0  0  0  0  0  0  0  0  0  0  0
   59.1090   32.4350   46.9840 C   0  0  0  0  0  0  0  0  0  0  0  0
   60.6410   32.3500   46.9210 C   0  0  0  0  0  0  0  0  0  0  0  0
   61.3220   33.6920   47.2500 C   0  0  0  0  0  0  0  0  0  0  0  0
   60.4280   34.5930   47.9840 N   0  0  0  0  0  0  0  0  0  0  0  0
   59.2660   34.9810   47.1680 C   0  0  0  0  0  0  0  0  0  0  0  0
   58.6830   30.3470   44.5570 C   0  0  0  0  0  0  0  0  0  0  0  0
   58.4860   29.1470   45.2470 C   0  0  0  0  0  0  0  0  0  0  0  0
   53.7247   25.2507   44.9450 H   0  0  0  0  0  0  0  0  0  0  0  0
   53.3347   22.7939   45.1173 H   0  0  0  0  0  0  0  0  0  0  0  0
   54.9420   21.3553   46.3736 H   0  0  0  0  0  0  0  0  0  0  0  0
   57.7870   22.5900   48.2790 H   0  0  0  0  0  0  0  0  0  0  0  0
   57.3334   24.8423   47.3074 H   0  0  0  0  0  0  0  0  0  0  0  0
   55.0861   28.9013   44.9451 H   0  0  0  0  0  0  0  0  0  0  0  0
   55.4441   31.0328   43.7078 H   0  0  0  0  0  0  0  0  0  0  0  0
   58.8452   32.3360   42.8641 H   0  0  0  0  0  0  0  0  0  0  0  0
   57.1089   32.3430   42.3918 H   0  0  0  0  0  0  0  0  0  0  0  0
   56.7510   33.2940   44.7190 H   0  0  0  0  0  0  0  0  0  0  0  0
   59.5795   33.1251   44.6349 H   0  0  0  0  0  0  0  0  0  0  0  0
   59.0221   34.8700   44.6437 H   0  0  0  0  0  0  0  0  0  0  0  0
   56.6890   34.1770   45.9580 H   0  0  0  0  0  0  0  0  0  0  0  0
   58.7943   32.3231   48.0321 H   0  0  0  0  0  0  0  0  0  0  0  0
   58.7080   31.6324   46.3476 H   0  0  0  0  0  0  0  0  0  0  0  0
   60.9821   31.5949   47.6445 H   0  0  0  0  0  0  0  0  0  0  0  0
   60.9179   32.0790   45.8915 H   0  0  0  0  0  0  0  0  0  0  0  0
   62.2135   33.4973   47.8643 H   0  0  0  0  0  0  0  0  0  0  0  0
   61.5928   34.1786   46.3014 H   0  0  0  0  0  0  0  0  0  0  0  0
   60.1020   34.1250   48.8630 H   0  0  0  0  0  0  0  0  0  0  0  0
   58.5313   35.4703   47.8243 H   0  0  0  0  0  0  0  0  0  0  0  0
   59.6423   35.6481   46.3785 H   0  0  0  0  0  0  0  0  0  0  0  0
   59.7001   30.7488   44.4380 H   0  0  0  0  0  0  0  0  0  0  0  0
   59.3488   28.6150   45.6742 H   0  0  0  0  0  0  0  0  0  0  0  0
  1  2  2  0
  2  3  1  0
  3  4  1  0
  4  5  2  0
  5  6  1  0
  6  7  2  0
  7  8  1  0
  8  9  1  0
  8 10  2  0
  2 11  1  0
 11 12  2  0
 12 13  1  0
 13 14  2  0
 14 15  1  0
 15 16  1  0
 16 17  1  0
 17 18  1  0
 18 19  1  6
 18 20  1  0
 20 21  1  0
 21 22  1  0
 22 23  1  0
 23 24  1  0
 14 25  1  0
 25 26  2  0
 10  4  1  0
 26 11  1  0
 24 18  1  0
  5 27  1  0
  6 28  1  0
  7 29  1  0
  9 30  1  0
 10 31  1  0
 12 32  1  0
 13 33  1  0
 15 34  1  0
 15 35  1  0
 16 36  1  0
 17 37  1  0
 17 38  1  0
 19 39  1  0
 20 40  1  0
 20 41  1  0
 21 42  1  0
 21 43  1  0
 22 44  1  0
 22 45  1  0
 23 46  1  0
 24 47  1  0
 24 48  1  0
 25 49  1  0
 26 50  1  0
M  CHG  1   3  -1
M  END
>  <UniqueID>  (17) 
16

>  <SMILES>  (17) 
O=C([N-]c1cccc(O)c1)c1ccc(CNC[C@@]2(O)CCCNC2)cc1

>  <Energy>  (17) 
66.02269869978842

>  <Genealogy>  (17) 
O=C([N-]c1cccc(O)c1)c1ccc(CNCC2(O)CCCNC2)cc1 (protonated)
O=C([N-]c1cccc(O)c1)c1ccc(CNC[C@@]2(O)CCCNC2)cc1 (chirality)
O=C([N-]c1cccc(O)c1)c1ccc(CNC[C@@]2(O)CCCNC2)cc1 (3D coordinates assigned)
O=C([N-]c1cccc(O)c1)c1ccc(CNC[C@@]2(O)CCCNC2)cc1 (nonaromatic ring conformer: 66.02269869978842 kcal/mol)

>  <smiles>  (17) 
O=C(Nc1cccc(O)c1)c1ccc(CNCC2(O)CCCNC2)cc1

>  <score_type>  (17) 
oracle

>  <origin>  (17) 
adg

>  <m_score__min__energy>  (17) 
-10

>  <m_primary>  (17) 
energy

$$$$
17:0
     RDKit          3D

 42 44  0  0  0  0  0  0  0  0999 V2000
   59.3370   26.0340   48.2450 O   0  0  0  0  0  0  0  0  0  0  0  0
   58.4500   26.2950   47.3900 C   0  0  0  0  0  0  0  0  0  0  0  0
   57.1980   25.5920   47.4650 N   0  0  0  0  0  0  0  0  0  0  0  0
   56.5740   25.0220   46.4750 C   0  0  0  0  0  0  0  0  0  0  0  0
   57.3120   24.3350   45.5030 C   0  0  0  0  0  0  0  0  0  0  0  0
   56.6460   23.7270   44.4370 C   0  0  0  0  0  0  0  0  0  0  0  0
   55.2550   23.8140   44.3440 C   0  0  0  0  0  0  0  0  0  0  0  0
   54.5510   24.5160   45.3250 C   0  0  0  0  0  0  0  0  0  0  0  0
   55.2170   25.1020   46.3540 N   0  0  0  0  0  0  0  0  0  0  0  0
   58.7040   27.3540   46.3820 C   0  0  0  0  0  0  0  0  0  0  0  0
   60.0110   27.5890   45.9210 C   0  0  0  0  0  0  0  0  0  0  0  0
   60.2530   28.5820   44.9700 C   0  0  0  0  0  0  0  0  0  0  0  0
   59.2000   29.3540   44.4720 C   0  0  0  0  0  0  0  0  0  0  0  0
   57.8920   29.1440   44.9360 C   0  0  0  0  0  0  0  0  0  0  0  0
   56.5260   30.0890   44.3310 S   0  0  0  0  0  0  0  0  0  0  0  0
   56.5760   30.0800   42.8300 O   0  0  0  0  0  0  0  0  0  0  0  0
   55.2460   29.4390   44.7790 O   0  0  0  0  0  0  0  0  0  0  0  0
   56.5700   31.7490   44.8600 N   0  0  0  0  0  0  0  0  0  0  0  0
   57.7080   32.4690   44.2750 C   0  0  0  0  0  0  0  0  0  0  0  0
   58.3680   33.3360   45.3140 C   0  0  0  0  0  0  0  0  0  0  0  0
   58.2890   32.9890   46.6730 C   0  0  0  0  0  0  0  0  0  0  0  0
   58.8920   33.7970   47.6430 C   0  0  0  0  0  0  0  0  0  0  0  0
   59.5690   34.9600   47.2640 C   0  0  0  0  0  0  0  0  0  0  0  0
   59.6440   35.3160   45.9140 C   0  0  0  0  0  0  0  0  0  0  0  0
   59.0450   34.5100   44.9420 C   0  0  0  0  0  0  0  0  0  0  0  0
   57.6540   28.1550   45.9000 C   0  0  0  0  0  0  0  0  0  0  0  0
   58.4077   24.2749   45.5788 H   0  0  0  0  0  0  0  0  0  0  0  0
   57.2160   23.1802   43.6714 H   0  0  0  0  0  0  0  0  0  0  0  0
   54.7212   23.3361   43.5094 H   0  0  0  0  0  0  0  0  0  0  0  0
   53.4555   24.5945   45.2644 H   0  0  0  0  0  0  0  0  0  0  0  0
   60.8460   26.9884   46.3109 H   0  0  0  0  0  0  0  0  0  0  0  0
   61.2778   28.7576   44.6109 H   0  0  0  0  0  0  0  0  0  0  0  0
   59.3965   30.1276   43.7151 H   0  0  0  0  0  0  0  0  0  0  0  0
   55.6810   32.2050   44.5510 H   0  0  0  0  0  0  0  0  0  0  0  0
   58.4390   31.7420   43.8916 H   0  0  0  0  0  0  0  0  0  0  0  0
   57.3449   33.1065   43.4554 H   0  0  0  0  0  0  0  0  0  0  0  0
   57.7510   32.0785   46.9756 H   0  0  0  0  0  0  0  0  0  0  0  0
   58.8334   33.5169   48.7051 H   0  0  0  0  0  0  0  0  0  0  0  0
   60.0425   35.5947   48.0276 H   0  0  0  0  0  0  0  0  0  0  0  0
   60.1754   36.2320   45.6164 H   0  0  0  0  0  0  0  0  0  0  0  0
   59.1037   34.7957   43.8814 H   0  0  0  0  0  0  0  0  0  0  0  0
   56.6343   28.0038   46.2838 H   0  0  0  0  0  0  0  0  0  0  0  0
  1  2  2  0
  2  3  1  0
  3  4  2  3
  4  5  1  0
  5  6  2  0
  6  7  1  0
  7  8  2  0
  8  9  1  0
  2 10  1  0
 10 11  2  0
 11 12  1  0
 12 13  2  0
 13 14  1  0
 14 15  1  0
 15 16  2  0
 15 17  2  0
 15 18  1  0
 18 19  1  0
 19 20  1  0
 20 21  2  0
 21 22  1  0
 22 23  2  0
 23 24  1  0
 24 25  2  0
 14 26  2  0
  9  4  1  0
 26 10  1  0
 25 20  1  0
  5 27  1  0
  6 28  1  0
  7 29  1  0
  8 30  1  0
 11 31  1  0
 12 32  1  0
 13 33  1  0
 18 34  1  0
 19 35  1  0
 19 36  1  0
 21 37  1  0
 22 38  1  0
 23 39  1  0
 24 40  1  0
 25 41  1  0
 26 42  1  0
M  CHG  1   9  -1
M  END
>  <UniqueID>  (18) 
17

>  <SMILES>  (18) 
O=C(N=c1cccc[n-]1)c1cccc(S(=O)(=O)NCc2ccccc2)c1

>  <Energy>  (18) 
53.05551094033056

>  <Genealogy>  (18) 
O=C(N=c1cccc[n-]1)c1cccc(S(=O)(=O)NCc2ccccc2)c1 (protonated)
O=C(N=c1cccc[n-]1)c1cccc(S(=O)(=O)NCc2ccccc2)c1 (3D coordinates assigned)
O=C(N=c1cccc[n-]1)c1cccc(S(=O)(=O)NCc2ccccc2)c1 (optimized conformer: 53.05551094033056 kcal/mol)

>  <smiles>  (18) 
O=C(N=c1cccc[nH]1)c1cccc(S(=O)(=O)NCc2ccccc2)c1

>  <score_type>  (18) 
oracle

>  <origin>  (18) 
adg

>  <m_score__min__energy>  (18) 
-11.23

>  <m_primary>  (18) 
energy

$$$$
18:0
     RDKit          3D

 45 47  0  0  0  0  0  0  0  0999 V2000
   59.6740   34.6190   48.6210 C   0  0  0  0  0  0  0  0  0  0  0  0
   59.2350   34.0400   47.3090 C   0  0  0  0  0  0  0  0  0  0  0  0
   59.3970   34.7670   46.1190 C   0  0  0  0  0  0  0  0  0  0  0  0
   58.9490   34.2390   44.9060 C   0  0  0  0  0  0  0  0  0  0  0  0
   58.3200   32.9900   44.8720 C   0  0  0  0  0  0  0  0  0  0  0  0
   57.7190   32.3290   43.3120 S   0  0  0  0  0  0  0  0  0  0  0  0
   57.8270   30.5760   43.8190 C   0  0  0  0  0  0  0  0  0  0  0  0
   56.4660   30.0080   44.0620 C   0  0  0  0  0  0  0  0  0  0  0  0
   55.5160   30.3080   43.2890 O   0  0  0  0  0  0  0  0  0  0  0  0
   56.2360   29.2120   45.2310 N   0  0  0  0  0  0  0  0  0  0  0  0
   57.0230   28.0870   45.6430 C   0  0  0  0  0  0  0  0  0  0  0  0
   58.4160   28.1910   45.5770 C   0  0  0  0  0  0  0  0  0  0  0  0
   59.2230   27.1240   45.9670 C   0  0  0  0  0  0  0  0  0  0  0  0
   58.6450   25.9380   46.4210 C   0  0  0  0  0  0  0  0  0  0  0  0
   57.2480   25.7990   46.4780 C   0  0  0  0  0  0  0  0  0  0  0  0
   56.6670   24.5210   46.9640 C   0  0  0  0  0  0  0  0  0  0  0  0
   56.0550   24.5020   48.0680 O   0  0  0  0  0  0  0  0  0  0  0  0
   56.7390   23.2740   46.1690 C   0  0  0  0  0  0  0  0  0  0  0  0
   57.0920   22.0630   46.8010 C   0  0  0  0  0  0  0  0  0  0  0  0
   57.3550   22.0240   48.1670 O   0  0  0  0  0  0  0  0  0  0  0  0
   57.1980   20.8860   46.0570 C   0  0  0  0  0  0  0  0  0  0  0  0
   56.9700   20.8990   44.6830 C   0  0  0  0  0  0  0  0  0  0  0  0
   56.6200   22.0890   44.0410 C   0  0  0  0  0  0  0  0  0  0  0  0
   56.3180   22.0710   42.3090 Cl  0  0  0  0  0  0  0  0  0  0  0  0
   56.4910   23.2790   44.7740 C   0  0  0  0  0  0  0  0  0  0  0  0
   56.0930   24.4370   44.1030 O   0  0  0  0  0  0  0  0  0  0  0  0
   56.4330   26.8730   46.0510 C   0  0  0  0  0  0  0  0  0  0  0  0
   55.0520   26.7160   45.9770 O   0  0  0  0  0  0  0  0  0  0  0  0
   58.1560   32.2610   46.0540 C   0  0  0  0  0  0  0  0  0  0  0  0
   58.6040   32.7870   47.2700 C   0  0  0  0  0  0  0  0  0  0  0  0
   59.2332   34.0376   49.4442 H   0  0  0  0  0  0  0  0  0  0  0  0
   60.7711   34.5794   48.6905 H   0  0  0  0  0  0  0  0  0  0  0  0
   59.3397   35.6647   48.6905 H   0  0  0  0  0  0  0  0  0  0  0  0
   59.8784   35.7558   46.1420 H   0  0  0  0  0  0  0  0  0  0  0  0
   59.0912   34.8070   43.9748 H   0  0  0  0  0  0  0  0  0  0  0  0
   58.3210   30.0002   43.0225 H   0  0  0  0  0  0  0  0  0  0  0  0
   58.4061   30.5143   44.7522 H   0  0  0  0  0  0  0  0  0  0  0  0
   58.8778   29.1213   45.2148 H   0  0  0  0  0  0  0  0  0  0  0  0
   60.3179   27.2169   45.9168 H   0  0  0  0  0  0  0  0  0  0  0  0
   59.2889   25.1041   46.7372 H   0  0  0  0  0  0  0  0  0  0  0  0
   57.4630   19.9436   46.5587 H   0  0  0  0  0  0  0  0  0  0  0  0
   57.0658   19.9698   44.1021 H   0  0  0  0  0  0  0  0  0  0  0  0
   55.7880   25.2760   44.5780 H   0  0  0  0  0  0  0  0  0  0  0  0
   57.6740   31.2726   46.0274 H   0  0  0  0  0  0  0  0  0  0  0  0
   58.4612   32.2164   48.1995 H   0  0  0  0  0  0  0  0  0  0  0  0
  1  2  1  0
  2  3  2  0
  3  4  1  0
  4  5  2  0
  5  6  1  0
  6  7  1  0
  7  8  1  0
  8  9  2  0
  8 10  1  0
 10 11  1  0
 11 12  2  0
 12 13  1  0
 13 14  2  0
 14 15  1  0
 15 16  1  0
 16 17  2  0
 16 18  1  0
 18 19  2  0
 19 20  1  0
 19 21  1  0
 21 22  2  0
 22 23  1  0
 23 24  1  0
 23 25  2  0
 25 26  1  0
 15 27  2  0
 27 28  1  0
  5 29  1  0
 29 30  2  0
 30  2  1  0
 27 11  1  0
 25 18  1  0
  1 31  1  0
  1 32  1  0
  1 33  1  0
  3 34  1  0
  4 35  1  0
  7 36  1  0
  7 37  1  0
 12 38  1  0
 13 39  1  0
 14 40  1  0
 21 41  1  0
 22 42  1  0
 26 43  1  0
 29 44  1  0
 30 45  1  0
M  CHG  3  10  -1  20  -1  28  -1
M  END
>  <UniqueID>  (19) 
18

>  <SMILES>  (19) 
Cc1ccc(SCC(=O)[N-]c2cccc(C(=O)c3c([O-])ccc(Cl)c3O)c2[O-])cc1

>  <Energy>  (19) 
57.72613212446198

>  <Genealogy>  (19) 
Cc1ccc(SCC(=O)[N-]c2cccc(C(=O)c3c([O-])ccc(Cl)c3O)c2[O-])cc1 (protonated)
Cc1ccc(SCC(=O)[N-]c2cccc(C(=O)c3c([O-])ccc(Cl)c3O)c2[O-])cc1 (3D coordinates assigned)
Cc1ccc(SCC(=O)[N-]c2cccc(C(=O)c3c([O-])ccc(Cl)c3O)c2[O-])cc1 (optimized conformer: 57.72613212446198 kcal/mol)

>  <smiles>  (19) 
Cc1ccc(SCC(=O)Nc2cccc(C(=O)c3c(O)ccc(Cl)c3O)c2O)cc1

>  <score_type>  (19) 
oracle

>  <origin>  (19) 
adg

>  <m_score__min__energy>  (19) 
-17.039999999999999

>  <m_primary>  (19) 
energy

$$$$
19:0
     RDKit          3D

 46 48  0  0  0  0  0  0  0  0999 V2000
   60.7150   30.2520   50.6820 O   0  0  0  0  0  0  0  0  0  0  0  0
   60.6530   29.4000   49.7530 C   0  0  0  0  0  0  0  0  0  0  0  0
   60.6480   27.9390   50.0950 C   0  0  0  0  0  0  0  0  0  0  0  0
   60.7280   27.0740   48.8370 C   0  0  0  0  0  0  0  0  0  0  0  0
   59.5770   27.3300   47.9780 N   0  0  0  0  0  0  0  0  0  0  0  0
   59.6250   27.8330   46.6360 C   0  0  0  0  0  0  0  0  0  0  0  0
   60.6770   27.6500   45.9690 O   0  0  0  0  0  0  0  0  0  0  0  0
   58.4850   28.5140   45.9890 C   0  0  0  0  0  0  0  0  0  0  0  0
   57.2050   28.0250   45.7850 C   0  0  0  0  0  0  0  0  0  0  0  0
   56.4960   29.0630   45.2190 C   0  0  0  0  0  0  0  0  0  0  0  0
   55.1550   29.0000   44.8620 O   0  0  0  0  0  0  0  0  0  0  0  0
   57.2710   30.1580   45.0720 N   0  0  0  0  0  0  0  0  0  0  0  0
   56.8930   31.4740   44.5330 C   0  0  0  0  0  0  0  0  0  0  0  0
   57.7730   31.8780   43.3420 C   0  0  0  0  0  0  0  0  0  0  0  0
   58.4800   33.1670   43.7420 C   0  0  0  0  0  0  0  0  0  0  0  0
   57.6430   33.7660   44.8570 C   0  0  0  0  0  0  0  0  0  0  0  0
   57.0290   32.5810   45.5840 C   0  0  0  0  0  0  0  0  0  0  0  0
   58.4870   29.8300   45.5530 C   0  0  0  0  0  0  0  0  0  0  0  0
   60.6690   29.8170   48.3770 N   0  0  0  0  0  0  0  0  0  0  0  0
   60.5330   31.1840   47.9470 C   0  0  0  0  0  0  0  0  0  0  0  0
   61.5400   31.8160   47.1930 C   0  0  0  0  0  0  0  0  0  0  0  0
   61.3990   33.1540   46.8080 C   0  0  0  0  0  0  0  0  0  0  0  0
   60.2640   33.8760   47.1800 C   0  0  0  0  0  0  0  0  0  0  0  0
   60.1300   35.1720   46.8050 F   0  0  0  0  0  0  0  0  0  0  0  0
   59.2680   33.2650   47.9470 C   0  0  0  0  0  0  0  0  0  0  0  0
   59.4040   31.9270   48.3370 C   0  0  0  0  0  0  0  0  0  0  0  0
   58.4250   31.3500   49.0780 F   0  0  0  0  0  0  0  0  0  0  0  0
   61.5133   27.7183   50.7373 H   0  0  0  0  0  0  0  0  0  0  0  0
   59.7075   27.7076   50.6164 H   0  0  0  0  0  0  0  0  0  0  0  0
   61.6512   27.3135   48.2890 H   0  0  0  0  0  0  0  0  0  0  0  0
   60.7302   26.0135   49.1291 H   0  0  0  0  0  0  0  0  0  0  0  0
   56.8321   27.0183   46.0247 H   0  0  0  0  0  0  0  0  0  0  0  0
   55.8443   31.3699   44.2178 H   0  0  0  0  0  0  0  0  0  0  0  0
   58.5109   31.0901   43.1305 H   0  0  0  0  0  0  0  0  0  0  0  0
   57.1700   32.0213   42.4333 H   0  0  0  0  0  0  0  0  0  0  0  0
   59.4975   32.9511   44.0999 H   0  0  0  0  0  0  0  0  0  0  0  0
   58.5767   33.8576   42.8913 H   0  0  0  0  0  0  0  0  0  0  0  0
   58.2755   34.3511   45.5409 H   0  0  0  0  0  0  0  0  0  0  0  0
   56.8740   34.4498   44.4683 H   0  0  0  0  0  0  0  0  0  0  0  0
   57.6845   32.2527   46.4041 H   0  0  0  0  0  0  0  0  0  0  0  0
   56.0571   32.8381   46.0305 H   0  0  0  0  0  0  0  0  0  0  0  0
   59.3531   30.5069   45.5935 H   0  0  0  0  0  0  0  0  0  0  0  0
   60.8690   29.0910   47.6520 H   0  0  0  0  0  0  0  0  0  0  0  0
   62.4417   31.2556   46.9052 H   0  0  0  0  0  0  0  0  0  0  0  0
   62.1853   33.6382   46.2102 H   0  0  0  0  0  0  0  0  0  0  0  0
   58.3761   33.8360   48.2447 H   0  0  0  0  0  0  0  0  0  0  0  0
  1  2  2  0
  2  3  1  0
  3  4  1  0
  4  5  1  0
  5  6  1  0
  6  7  2  0
  6  8  1  0
  8  9  1  0
  9 10  2  0
 10 11  1  0
 10 12  1  0
 12 13  1  0
 13 14  1  0
 14 15  1  0
 15 16  1  0
 16 17  1  0
 12 18  1  0
  2 19  1  0
 19 20  1  0
 20 21  2  0
 21 22  1  0
 22 23  2  0
 23 24  1  0
 23 25  1  0
 25 26  2  0
 26 27  1  0
 18  8  2  0
 26 20  1  0
 17 13  1  0
  3 28  1  0
  3 29  1  0
  4 30  1  0
  4 31  1  0
  9 32  1  0
 13 33  1  0
 14 34  1  0
 14 35  1  0
 15 36  1  0
 15 37  1  0
 16 38  1  0
 16 39  1  0
 17 40  1  0
 17 41  1  0
 18 42  1  0
 19 43  1  0
 21 44  1  0
 22 45  1  0
 25 46  1  0
M  CHG  2   5  -1  11  -1
M  END
>  <UniqueID>  (20) 
19

>  <SMILES>  (20) 
O=C(CC[N-]C(=O)c1cc([O-])n(C2CCCC2)c1)Nc1ccc(F)cc1F

>  <Energy>  (20) 
77.25774641242249

>  <Genealogy>  (20) 
O=C(CC[N-]C(=O)c1cc([O-])n(C2CCCC2)c1)Nc1ccc(F)cc1F (protonated)
O=C(CC[N-]C(=O)c1cc([O-])n(C2CCCC2)c1)Nc1ccc(F)cc1F (3D coordinates assigned)
O=C(CC[N-]C(=O)c1cc([O-])n(C2CCCC2)c1)Nc1ccc(F)cc1F (nonaromatic ring conformer: 77.25774641242249 kcal/mol)

>  <smiles>  (20) 
O=C(CCNC(=O)c1cc(O)n(C2CCCC2)c1)Nc1ccc(F)cc1F

>  <score_type>  (20) 
oracle

>  <origin>  (20) 
adg

>  <m_score__min__energy>  (20) 
-12.050000000000001

>  <m_primary>  (20) 
energy

$$$$
20:0
     RDKit          3D

 39 42  0  0  0  0  0  0  0  0999 V2000
   59.5080   29.9090   48.0580 O   0  0  0  0  0  0  0  0  0  0  0  0
   60.5240   29.9550   47.3100 C   0  0  0  0  0  0  0  0  0  0  0  0
   60.4250   29.4740   45.8970 C   0  0  0  0  0  0  0  0  0  0  0  0
   59.0720   28.9630   45.6380 N   0  0  0  0  0  0  0  0  0  0  0  0
   58.6300   27.6930   45.8270 C   0  0  0  0  0  0  0  0  0  0  0  0
   59.3420   26.5510   46.2130 C   0  0  0  0  0  0  0  0  0  0  0  0
   58.6230   25.3500   46.3680 C   0  0  0  0  0  0  0  0  0  0  0  0
   57.2280   25.3120   46.1480 C   0  0  0  0  0  0  0  0  0  0  0  0
   56.5320   26.4760   45.7720 C   0  0  0  0  0  0  0  0  0  0  0  0
   57.2710   27.6460   45.6210 C   0  0  0  0  0  0  0  0  0  0  0  0
   56.9100   28.9380   45.3180 C   0  0  0  0  0  0  0  0  0  0  0  0
   55.7410   29.3480   45.0790 O   0  0  0  0  0  0  0  0  0  0  0  0
   58.0130   29.7190   45.3300 N   0  0  0  0  0  0  0  0  0  0  0  0
   58.0270   31.1470   45.1710 C   0  0  0  0  0  0  0  0  0  0  0  0
   58.0750   31.7180   43.8910 C   0  0  0  0  0  0  0  0  0  0  0  0
   58.1150   33.1080   43.7440 C   0  0  0  0  0  0  0  0  0  0  0  0
   58.1020   33.9350   44.8750 C   0  0  0  0  0  0  0  0  0  0  0  0
   58.0460   33.3690   46.1520 C   0  0  0  0  0  0  0  0  0  0  0  0
   58.0050   31.9790   46.3010 C   0  0  0  0  0  0  0  0  0  0  0  0
   61.7620   30.5100   47.7770 N   0  0  0  0  0  0  0  0  0  0  0  0
   62.2610   31.6710   47.4580 C   0  0  0  0  0  0  0  0  0  0  0  0
   63.5820   31.9450   47.3200 N   0  0  0  0  0  0  0  0  0  0  0  0
   63.7970   33.2340   46.9390 C   0  0  0  0  0  0  0  0  0  0  0  0
   62.6430   33.9920   46.7610 C   0  0  0  0  0  0  0  0  0  0  0  0
   61.3130   33.0080   47.0900 S   0  0  0  0  0  0  0  0  0  0  0  0
   60.6376   30.3078   45.2118 H   0  0  0  0  0  0  0  0  0  0  0  0
   61.1547   28.6666   45.7366 H   0  0  0  0  0  0  0  0  0  0  0  0
   60.4270   26.5905   46.3894 H   0  0  0  0  0  0  0  0  0  0  0  0
   59.1529   24.4324   46.6633 H   0  0  0  0  0  0  0  0  0  0  0  0
   56.6816   24.3653   46.2715 H   0  0  0  0  0  0  0  0  0  0  0  0
   55.4450   26.4618   45.6038 H   0  0  0  0  0  0  0  0  0  0  0  0
   58.0812   31.0713   43.0012 H   0  0  0  0  0  0  0  0  0  0  0  0
   58.1567   33.5529   42.7389 H   0  0  0  0  0  0  0  0  0  0  0  0
   58.1358   35.0283   44.7582 H   0  0  0  0  0  0  0  0  0  0  0  0
   58.0342   34.0175   47.0404 H   0  0  0  0  0  0  0  0  0  0  0  0
   57.9554   31.5365   47.3069 H   0  0  0  0  0  0  0  0  0  0  0  0
   64.3640   31.2650   47.4480 H   0  0  0  0  0  0  0  0  0  0  0  0
   64.8054   33.6452   46.7837 H   0  0  0  0  0  0  0  0  0  0  0  0
   62.6051   35.0489   46.4584 H   0  0  0  0  0  0  0  0  0  0  0  0
  1  2  2  0
  2  3  1  0
  3  4  1  0
  4  5  1  0
  5  6  2  0
  6  7  1  0
  7  8  2  0
  8  9  1  0
  9 10  2  0
 10 11  1  0
 11 12  2  0
 11 13  1  0
 13 14  1  0
 14 15  2  0
 15 16  1  0
 16 17  2  0
 17 18  1  0
 18 19  2  0
  2 20  1  0
 20 21  2  3
 21 22  1  0
 22 23  1  0
 23 24  2  0
 24 25  1  0
 13  4  1  0
 19 14  1  0
 25 21  1  0
 10  5  1  0
  3 26  1  0
  3 27  1  0
  6 28  1  0
  7 29  1  0
  8 30  1  0
  9 31  1  0
 15 32  1  0
 16 33  1  0
 17 34  1  0
 18 35  1  0
 19 36  1  0
 22 37  1  0
 23 38  1  0
 24 39  1  0
M  END
>  <UniqueID>  (21) 
20

>  <SMILES>  (21) 
O=C(Cn1c2ccccc2c(=O)n1-c1ccccc1)N=c1[nH]ccs1

>  <Energy>  (21) 
125.14963092651435

>  <Genealogy>  (21) 
O=C(Cn1c2ccccc2c(=O)n1-c1ccccc1)N=c1[nH]ccs1 (3D coordinates assigned)
O=C(Cn1c2ccccc2c(=O)n1-c1ccccc1)N=c1[nH]ccs1 (optimized conformer: 125.14963092651435 kcal/mol)

>  <smiles>  (21) 
O=C(Cn1c2ccccc2c(=O)n1-c1ccccc1)N=c1[nH]ccs1

>  <score_type>  (21) 
oracle

>  <origin>  (21) 
adg

>  <m_score__min__energy>  (21) 
-7.9100000000000001

>  <m_primary>  (21) 
energy

$$$$
21:0
     RDKit          3D

 54 56  0  0  0  0  0  0  0  0999 V2000
   57.4610   33.7520   44.8560 C   0  0  0  0  0  0  0  0  0  0  0  0
   57.7450   33.6560   46.3260 C   0  0  0  0  0  0  0  0  0  0  0  0
   56.7820   33.4310   47.1080 O   0  0  0  0  0  0  0  0  0  0  0  0
   59.1190   33.8190   46.8730 C   0  0  0  0  0  0  0  0  0  0  0  0
   60.2330   33.7290   46.0190 C   0  0  0  0  0  0  0  0  0  0  0  0
   61.5300   33.8780   46.5190 C   0  0  0  0  0  0  0  0  0  0  0  0
   61.7400   34.1170   47.8890 C   0  0  0  0  0  0  0  0  0  0  0  0
   63.0210   34.2690   48.4390 O   0  0  0  0  0  0  0  0  0  0  0  0
   63.8040   33.2020   48.9680 C   0  0  0  0  0  0  0  0  0  0  0  0
   63.1170   32.6360   50.1740 C   0  0  0  0  0  0  0  0  0  0  0  0
   62.6290   33.4190   51.0310 O   0  0  0  0  0  0  0  0  0  0  0  0
   62.9750   31.2230   50.3640 N   0  0  0  0  0  0  0  0  0  0  0  0
   61.7170   30.5630   50.6880 C   0  0  0  0  0  0  0  0  0  0  0  0
   60.9200   30.3690   49.4300 C   0  0  0  0  0  0  0  0  0  0  0  0
   59.6660   29.7390   49.4790 C   0  0  0  0  0  0  0  0  0  0  0  0
   58.9390   29.5240   48.3040 C   0  0  0  0  0  0  0  0  0  0  0  0
   59.4630   29.9270   47.0670 C   0  0  0  0  0  0  0  0  0  0  0  0
   58.5660   29.6510   45.5780 S   0  0  0  0  0  0  0  0  0  0  0  0
   57.2420   30.3640   45.6120 O   0  0  0  0  0  0  0  0  0  0  0  0
   59.3700   30.1690   44.4190 O   0  0  0  0  0  0  0  0  0  0  0  0
   58.2880   27.9550   45.3720 N   0  0  0  0  0  0  0  0  0  0  0  0
   56.9900   27.3710   45.4930 C   0  0  0  0  0  0  0  0  0  0  0  0
   55.9620   28.0740   45.2950 O   0  0  0  0  0  0  0  0  0  0  0  0
   56.8450   25.9290   45.7810 C   0  0  0  0  0  0  0  0  0  0  0  0
   58.0100   25.1560   45.9470 C   0  0  0  0  0  0  0  0  0  0  0  0
   57.9240   23.8050   46.2930 C   0  0  0  0  0  0  0  0  0  0  0  0
   56.6770   23.2080   46.4760 C   0  0  0  0  0  0  0  0  0  0  0  0
   55.5120   23.9540   46.2920 C   0  0  0  0  0  0  0  0  0  0  0  0
   55.5810   25.3050   45.9270 C   0  0  0  0  0  0  0  0  0  0  0  0
   54.3810   25.9750   45.6830 O   0  0  0  0  0  0  0  0  0  0  0  0
   60.7190   30.5450   47.0160 C   0  0  0  0  0  0  0  0  0  0  0  0
   61.4470   30.7600   48.1900 C   0  0  0  0  0  0  0  0  0  0  0  0
   60.6370   34.2080   48.7410 C   0  0  0  0  0  0  0  0  0  0  0  0
   59.3380   34.0610   48.2430 C   0  0  0  0  0  0  0  0  0  0  0  0
   56.4289   34.1009   44.7040 H   0  0  0  0  0  0  0  0  0  0  0  0
   58.1605   34.4636   44.3931 H   0  0  0  0  0  0  0  0  0  0  0  0
   57.5853   32.7619   44.3931 H   0  0  0  0  0  0  0  0  0  0  0  0
   60.0820   33.5393   44.9460 H   0  0  0  0  0  0  0  0  0  0  0  0
   62.3906   33.8080   45.8375 H   0  0  0  0  0  0  0  0  0  0  0  0
   63.9170   32.4162   48.2066 H   0  0  0  0  0  0  0  0  0  0  0  0
   64.7976   33.5789   49.2521 H   0  0  0  0  0  0  0  0  0  0  0  0
   61.9228   29.5848   51.1471 H   0  0  0  0  0  0  0  0  0  0  0  0
   61.1461   31.1841   51.3939 H   0  0  0  0  0  0  0  0  0  0  0  0
   59.2539   29.4133   50.4455 H   0  0  0  0  0  0  0  0  0  0  0  0
   57.9535   29.0375   48.3500 H   0  0  0  0  0  0  0  0  0  0  0  0
   58.9969   25.6199   45.8030 H   0  0  0  0  0  0  0  0  0  0  0  0
   58.8412   23.2114   46.4212 H   0  0  0  0  0  0  0  0  0  0  0  0
   56.6117   22.1488   46.7655 H   0  0  0  0  0  0  0  0  0  0  0  0
   54.5310   23.4772   46.4348 H   0  0  0  0  0  0  0  0  0  0  0  0
   54.2870   26.7150   45.0000 H   0  0  0  0  0  0  0  0  0  0  0  0
   61.1343   30.8625   46.0481 H   0  0  0  0  0  0  0  0  0  0  0  0
   62.4367   31.2375   48.1413 H   0  0  0  0  0  0  0  0  0  0  0  0
   60.7912   34.3970   49.8136 H   0  0  0  0  0  0  0  0  0  0  0  0
   58.4801   34.1351   48.9275 H   0  0  0  0  0  0  0  0  0  0  0  0
  1  2  1  0
  2  3  2  0
  2  4  1  0
  4  5  2  0
  5  6  1  0
  6  7  2  0
  7  8  1  0
  8  9  1  0
  9 10  1  0
 10 11  2  0
 10 12  1  0
 12 13  1  0
 13 14  1  0
 14 15  2  0
 15 16  1  0
 16 17  2  0
 17 18  1  0
 18 19  2  0
 18 20  2  0
 18 21  1  0
 21 22  1  0
 22 23  2  0
 22 24  1  0
 24 25  2  0
 25 26  1  0
 26 27  2  0
 27 28  1  0
 28 29  2  0
 29 30  1  0
 17 31  1  0
 31 32  2  0
  7 33  1  0
 33 34  2  0
 34  4  1  0
 32 14  1  0
 29 24  1  0
  1 35  1  0
  1 36  1  0
  1 37  1  0
  5 38  1  0
  6 39  1  0
  9 40  1  0
  9 41  1  0
 13 42  1  0
 13 43  1  0
 15 44  1  0
 16 45  1  0
 25 46  1  0
 26 47  1  0
 27 48  1  0
 28 49  1  0
 30 50  1  0
 31 51  1  0
 32 52  1  0
 33 53  1  0
 34 54  1  0
M  CHG  2  12  -1  21  -1
M  END
>  <UniqueID>  (22) 
21

>  <SMILES>  (22) 
CC(=O)c1ccc(OCC(=O)[N-]Cc2ccc(S(=O)(=O)[N-]C(=O)c3ccccc3O)cc2)cc1

>  <Energy>  (22) 
60.07066820282965

>  <Genealogy>  (22) 
CC(=O)c1ccc(OCC(=O)[N-]Cc2ccc(S(=O)(=O)[N-]C(=O)c3ccccc3O)cc2)cc1 (protonated)
CC(=O)c1ccc(OCC(=O)[N-]Cc2ccc(S(=O)(=O)[N-]C(=O)c3ccccc3O)cc2)cc1 (3D coordinates assigned)
CC(=O)c1ccc(OCC(=O)[N-]Cc2ccc(S(=O)(=O)[N-]C(=O)c3ccccc3O)cc2)cc1 (optimized conformer: 60.07066820282965 kcal/mol)

>  <smiles>  (22) 
CC(=O)c1ccc(OCC(=O)NCc2ccc(S(=O)(=O)NC(=O)c3ccccc3O)cc2)cc1

>  <score_type>  (22) 
oracle

>  <origin>  (22) 
adg

>  <m_score__min__energy>  (22) 
-12.58

>  <m_primary>  (22) 
energy

$$$$
22:0
     RDKit          3D

 50 52  0  0  0  0  0  0  0  0999 V2000
   62.2600   33.8860   49.9100 C   0  0  0  0  0  0  0  0  0  0  0  0
   61.4140   34.0090   48.6770 C   0  0  0  0  0  0  0  0  0  0  0  0
   60.0420   34.2850   48.7860 C   0  0  0  0  0  0  0  0  0  0  0  0
   59.2470   34.3620   47.6390 C   0  0  0  0  0  0  0  0  0  0  0  0
   59.8100   34.1400   46.3760 C   0  0  0  0  0  0  0  0  0  0  0  0
   58.7870   34.2530   44.9050 S   0  0  0  0  0  0  0  0  0  0  0  0
   57.5040   33.0890   45.4900 C   0  0  0  0  0  0  0  0  0  0  0  0
   57.2930   31.9900   44.4870 C   0  0  0  0  0  0  0  0  0  0  0  0
   57.4750   32.2300   43.2640 O   0  0  0  0  0  0  0  0  0  0  0  0
   56.8150   30.6960   44.8720 N   0  0  0  0  0  0  0  0  0  0  0  0
   57.6200   29.5970   45.3210 C   0  0  0  0  0  0  0  0  0  0  0  0
   59.0100   29.7270   45.4910 C   0  0  0  0  0  0  0  0  0  0  0  0
   59.7710   28.6310   45.9050 C   0  0  0  0  0  0  0  0  0  0  0  0
   59.1570   27.3970   46.1360 C   0  0  0  0  0  0  0  0  0  0  0  0
   57.7790   27.2490   45.9370 C   0  0  0  0  0  0  0  0  0  0  0  0
   57.0120   25.6920   46.2440 S   0  0  0  0  0  0  0  0  0  0  0  0
   57.2120   25.3010   47.6820 O   0  0  0  0  0  0  0  0  0  0  0  0
   55.5360   25.8330   45.9940 O   0  0  0  0  0  0  0  0  0  0  0  0
   57.6620   24.4620   45.1800 N   0  0  0  0  0  0  0  0  0  0  0  0
   57.2850   23.0990   45.6070 C   0  0  0  0  0  0  0  0  0  0  0  0
   55.8080   22.7700   45.3230 C   0  0  0  0  0  0  0  0  0  0  0  0
   55.3140   23.3230   43.9740 C   0  0  0  0  0  0  0  0  0  0  0  0
   56.4720   23.7220   43.0620 C   0  0  0  0  0  0  0  0  0  0  0  0
   57.3780   24.7580   43.7530 C   0  0  0  0  0  0  0  0  0  0  0  0
   57.0160   28.3500   45.5240 C   0  0  0  0  0  0  0  0  0  0  0  0
   61.1770   33.8600   46.2640 C   0  0  0  0  0  0  0  0  0  0  0  0
   61.9740   33.7820   47.4100 C   0  0  0  0  0  0  0  0  0  0  0  0
   61.6233   33.9786   50.8022 H   0  0  0  0  0  0  0  0  0  0  0  0
   62.7592   32.9058   49.9159 H   0  0  0  0  0  0  0  0  0  0  0  0
   63.0177   34.6834   49.9159 H   0  0  0  0  0  0  0  0  0  0  0  0
   59.5912   34.4412   49.7771 H   0  0  0  0  0  0  0  0  0  0  0  0
   58.1763   34.5976   47.7285 H   0  0  0  0  0  0  0  0  0  0  0  0
   57.8231   32.6496   46.4466 H   0  0  0  0  0  0  0  0  0  0  0  0
   56.5594   33.6373   45.6206 H   0  0  0  0  0  0  0  0  0  0  0  0
   59.4988   30.6933   45.2977 H   0  0  0  0  0  0  0  0  0  0  0  0
   60.8560   28.7396   46.0495 H   0  0  0  0  0  0  0  0  0  0  0  0
   59.7577   26.5401   46.4749 H   0  0  0  0  0  0  0  0  0  0  0  0
   57.9155   22.3756   45.0693 H   0  0  0  0  0  0  0  0  0  0  0  0
   57.4331   23.0409   46.6954 H   0  0  0  0  0  0  0  0  0  0  0  0
   55.6877   21.6766   45.3182 H   0  0  0  0  0  0  0  0  0  0  0  0
   55.2084   23.2472   46.1121 H   0  0  0  0  0  0  0  0  0  0  0  0
   54.7155   22.5495   43.4706 H   0  0  0  0  0  0  0  0  0  0  0  0
   54.7133   24.2224   44.1744 H   0  0  0  0  0  0  0  0  0  0  0  0
   57.0654   22.8280   42.8199 H   0  0  0  0  0  0  0  0  0  0  0  0
   56.0614   24.1680   42.1441 H   0  0  0  0  0  0  0  0  0  0  0  0
   58.3347   24.7955   43.2114 H   0  0  0  0  0  0  0  0  0  0  0  0
   56.8377   25.7159   43.7301 H   0  0  0  0  0  0  0  0  0  0  0  0
   55.9348   28.2336   45.3581 H   0  0  0  0  0  0  0  0  0  0  0  0
   61.6251   33.7010   45.2721 H   0  0  0  0  0  0  0  0  0  0  0  0
   63.0436   33.5419   47.3185 H   0  0  0  0  0  0  0  0  0  0  0  0
  1  2  1  0
  2  3  2  0
  3  4  1  0
  4  5  2  0
  5  6  1  0
  6  7  1  0
  7  8  1  0
  8  9  2  0
  8 10  1  0
 10 11  1  0
 11 12  2  0
 12 13  1  0
 13 14  2  0
 14 15  1  0
 15 16  1  0
 16 17  2  0
 16 18  2  0
 16 19  1  0
 19 20  1  0
 20 21  1  0
 21 22  1  0
 22 23  1  0
 23 24  1  0
 15 25  2  0
  5 26  1  0
 26 27  2  0
 27  2  1  0
 25 11  1  0
 24 19  1  0
  1 28  1  0
  1 29  1  0
  1 30  1  0
  3 31  1  0
  4 32  1  0
  7 33  1  0
  7 34  1  0
 12 35  1  0
 13 36  1  0
 14 37  1  0
 20 38  1  0
 20 39  1  0
 21 40  1  0
 21 41  1  0
 22 42  1  0
 22 43  1  0
 23 44  1  0
 23 45  1  0
 24 46  1  0
 24 47  1  0
 25 48  1  0
 26 49  1  0
 27 50  1  0
M  CHG  1  10  -1
M  END
>  <UniqueID>  (23) 
22

>  <SMILES>  (23) 
Cc1ccc(SCC(=O)[N-]c2cccc(S(=O)(=O)N3CCCCC3)c2)cc1

>  <Energy>  (23) 
58.80756714741876

>  <Genealogy>  (23) 
Cc1ccc(SCC(=O)[N-]c2cccc(S(=O)(=O)N3CCCCC3)c2)cc1 (protonated)
Cc1ccc(SCC(=O)[N-]c2cccc(S(=O)(=O)N3CCCCC3)c2)cc1 (3D coordinates assigned)
Cc1ccc(SCC(=O)[N-]c2cccc(S(=O)(=O)N3CCCCC3)c2)cc1 (nonaromatic ring conformer: 58.80756714741876 kcal/mol)

>  <smiles>  (23) 
Cc1ccc(SCC(=O)Nc2cccc(S(=O)(=O)N3CCCCC3)c2)cc1

>  <score_type>  (23) 
oracle

>  <origin>  (23) 
adg

>  <m_score__min__energy>  (23) 
-10.9

>  <m_primary>  (23) 
energy

$$$$
23:0
     RDKit          3D

 71 74  0  0  0  0  0  0  0  0999 V2000
   60.0060   33.3000   50.6350 C   0  0  0  0  0  0  0  0  0  0  0  0
   59.7510   32.0400   49.8220 C   0  0  0  0  0  0  0  0  0  0  0  0
   58.7630   31.1010   50.2400 C   0  0  0  0  0  0  0  0  0  0  0  0
   57.8970   31.2730   51.4870 C   0  0  2  0  0  0  0  0  0  0  0  0
   58.7350   31.4950   52.5940 O   0  0  0  0  0  0  0  0  0  0  0  0
   57.0380   30.0780   51.7080 N   0  0  0  0  0  0  0  0  0  0  0  0
   57.5840   29.1560   52.7280 C   0  0  0  0  0  0  0  0  0  0  0  0
   57.4840   29.7510   54.1550 C   0  0  0  0  0  0  0  0  0  0  0  0
   56.5610   30.8230   54.2500 O   0  0  0  0  0  0  0  0  0  0  0  0
   55.3740   30.5050   53.5590 C   0  0  0  0  0  0  0  0  0  0  0  0
   55.6320   30.4280   52.0370 C   0  0  0  0  0  0  0  0  0  0  0  0
   58.5680   29.9460   49.4780 C   0  0  0  0  0  0  0  0  0  0  0  0
   59.3330   29.6960   48.3450 C   0  0  0  0  0  0  0  0  0  0  0  0
   59.1410   28.4030   47.5860 C   0  0  0  0  0  0  0  0  0  0  0  0
   58.2580   28.5980   46.3860 C   0  0  0  0  0  0  0  0  0  0  0  0
   57.1450   28.0010   46.3170 O   0  0  0  0  0  0  0  0  0  0  0  0
   58.6550   29.5060   45.3490 N   0  0  0  0  0  0  0  0  0  0  0  0
   57.9040   29.6470   44.1030 C   0  0  0  0  0  0  0  0  0  0  0  0
   57.7570   31.1250   43.7020 C   0  0  0  0  0  0  0  0  0  0  0  0
   56.9750   31.9610   44.7290 C   0  0  0  0  0  0  0  0  0  0  0  0
   57.8530   32.9740   45.4150 C   0  0  0  0  0  0  0  0  0  0  0  0
   57.8620   33.0760   46.8170 C   0  0  0  0  0  0  0  0  0  0  0  0
   58.6470   34.0460   47.4510 C   0  0  0  0  0  0  0  0  0  0  0  0
   59.4260   34.9220   46.6880 C   0  0  0  0  0  0  0  0  0  0  0  0
   59.4230   34.8260   45.2930 C   0  0  0  0  0  0  0  0  0  0  0  0
   58.6410   33.8570   44.6570 C   0  0  0  0  0  0  0  0  0  0  0  0
   60.3280   30.6130   47.9800 C   0  0  0  0  0  0  0  0  0  0  0  0
   61.0370   30.3660   46.9650 O   0  0  0  0  0  0  0  0  0  0  0  0
   60.5310   31.7640   48.7100 N   0  0  0  0  0  0  0  0  0  0  0  0
   61.5960   32.7030   48.2760 C   0  0  0  0  0  0  0  0  0  0  0  0
   62.8990   32.4540   49.0040 C   0  0  0  0  0  0  0  0  0  0  0  0
   62.9980   31.4660   50.0020 C   0  0  0  0  0  0  0  0  0  0  0  0
   64.2010   31.2740   50.6900 C   0  0  0  0  0  0  0  0  0  0  0  0
   65.3080   32.0770   50.4030 C   0  0  0  0  0  0  0  0  0  0  0  0
   65.2110   33.0790   49.4350 C   0  0  0  0  0  0  0  0  0  0  0  0
   64.0140   33.2700   48.7400 C   0  0  0  0  0  0  0  0  0  0  0  0
   59.9575   33.0604   51.7075 H   0  0  0  0  0  0  0  0  0  0  0  0
   61.0027   33.6972   50.3927 H   0  0  0  0  0  0  0  0  0  0  0  0
   59.2422   34.0535   50.3927 H   0  0  0  0  0  0  0  0  0  0  0  0
   57.2295   32.1366   51.3506 H   0  0  0  0  0  0  0  0  0  0  0  0
   58.1730   31.8940   53.3090 H   0  0  0  0  0  0  0  0  0  0  0  0
   57.0181   28.2133   52.6950 H   0  0  0  0  0  0  0  0  0  0  0  0
   58.6472   28.9875   52.5019 H   0  0  0  0  0  0  0  0  0  0  0  0
   57.1669   28.9546   54.8444 H   0  0  0  0  0  0  0  0  0  0  0  0
   58.4761   30.1502   54.4129 H   0  0  0  0  0  0  0  0  0  0  0  0
   55.0004   29.5323   53.9116 H   0  0  0  0  0  0  0  0  0  0  0  0
   54.6304   31.2922   53.7523 H   0  0  0  0  0  0  0  0  0  0  0  0
   54.9694   29.6627   51.6066 H   0  0  0  0  0  0  0  0  0  0  0  0
   55.4319   31.4245   51.6165 H   0  0  0  0  0  0  0  0  0  0  0  0
   57.7962   29.2227   49.7799 H   0  0  0  0  0  0  0  0  0  0  0  0
   60.1223   28.0347   47.2523 H   0  0  0  0  0  0  0  0  0  0  0  0
   58.6589   27.6762   48.2563 H   0  0  0  0  0  0  0  0  0  0  0  0
   59.4940   30.1110   45.4980 H   0  0  0  0  0  0  0  0  0  0  0  0
   58.4339   29.1098   43.3027 H   0  0  0  0  0  0  0  0  0  0  0  0
   56.8986   29.2272   44.2547 H   0  0  0  0  0  0  0  0  0  0  0  0
   58.7621   31.5583   43.5923 H   0  0  0  0  0  0  0  0  0  0  0  0
   57.1883   31.1514   42.7608 H   0  0  0  0  0  0  0  0  0  0  0  0
   56.1606   32.4890   44.2114 H   0  0  0  0  0  0  0  0  0  0  0  0
   56.5809   31.2774   45.4954 H   0  0  0  0  0  0  0  0  0  0  0  0
   57.2486   32.3896   47.4192 H   0  0  0  0  0  0  0  0  0  0  0  0
   58.6513   34.1194   48.5485 H   0  0  0  0  0  0  0  0  0  0  0  0
   60.0410   35.6865   47.1854 H   0  0  0  0  0  0  0  0  0  0  0  0
   60.0374   35.5146   44.6944 H   0  0  0  0  0  0  0  0  0  0  0  0
   58.6425   33.7855   43.5593 H   0  0  0  0  0  0  0  0  0  0  0  0
   61.7624   32.5773   47.1960 H   0  0  0  0  0  0  0  0  0  0  0  0
   61.2649   33.7256   48.5099 H   0  0  0  0  0  0  0  0  0  0  0  0
   62.1248   30.8416   50.2422 H   0  0  0  0  0  0  0  0  0  0  0  0
   64.2755   30.4899   51.4579 H   0  0  0  0  0  0  0  0  0  0  0  0
   66.2555   31.9200   50.9393 H   0  0  0  0  0  0  0  0  0  0  0  0
   66.0790   33.7193   49.2192 H   0  0  0  0  0  0  0  0  0  0  0  0
   63.9431   34.0636   47.9816 H   0  0  0  0  0  0  0  0  0  0  0  0
  1  2  1  0
  2  3  2  0
  3  4  1  0
  4  5  1  0
  4  6  1  0
  6  7  1  0
  7  8  1  0
  8  9  1  0
  9 10  1  0
 10 11  1  0
  3 12  1  0
 12 13  2  0
 13 14  1  0
 14 15  1  0
 15 16  2  0
 15 17  1  0
 17 18  1  0
 18 19  1  0
 19 20  1  0
 20 21  1  0
 21 22  2  0
 22 23  1  0
 23 24  2  0
 24 25  1  0
 25 26  2  0
 13 27  1  0
 27 28  2  0
 27 29  1  0
 29 30  1  0
 30 31  1  0
 31 32  2  0
 32 33  1  0
 33 34  2  0
 34 35  1  0
 35 36  2  0
 29  2  1  0
 36 31  1  0
 11  6  1  0
 26 21  1  0
  1 37  1  0
  1 38  1  0
  1 39  1  0
  4 40  1  6
  5 41  1  0
  7 42  1  0
  7 43  1  0
  8 44  1  0
  8 45  1  0
 10 46  1  0
 10 47  1  0
 11 48  1  0
 11 49  1  0
 12 50  1  0
 14 51  1  0
 14 52  1  0
 17 53  1  0
 18 54  1  0
 18 55  1  0
 19 56  1  0
 19 57  1  0
 20 58  1  0
 20 59  1  0
 22 60  1  0
 23 61  1  0
 24 62  1  0
 25 63  1  0
 26 64  1  0
 30 65  1  0
 30 66  1  0
 32 67  1  0
 33 68  1  0
 34 69  1  0
 35 70  1  0
 36 71  1  0
M  END
>  <UniqueID>  (24) 
23

>  <SMILES>  (24) 
Cc1c([C@H](O)N2CCOCC2)cc(CC(=O)NCCCc2ccccc2)c(=O)n1Cc1ccccc1

>  <Energy>  (24) 
91.16904977853993

>  <Genealogy>  (24) 
Cc1c([C@H](O)N2CCOCC2)cc(CC(=O)NCCCc2ccccc2)c(=O)n1Cc1ccccc1 (chirality)
Cc1c([C@H](O)N2CCOCC2)cc(CC(=O)NCCCc2ccccc2)c(=O)n1Cc1ccccc1 (3D coordinates assigned)
Cc1c([C@H](O)N2CCOCC2)cc(CC(=O)NCCCc2ccccc2)c(=O)n1Cc1ccccc1 (nonaromatic ring conformer: 91.16904977853993 kcal/mol)

>  <smiles>  (24) 
Cc1c(C(O)N2CCOCC2)cc(CC(=O)NCCCc2ccccc2)c(=O)n1Cc1ccccc1

>  <score_type>  (24) 
oracle

>  <origin>  (24) 
adg

>  <m_score__min__energy>  (24) 
-8.7899999999999991

>  <m_primary>  (24) 
energy

$$$$
24:0
     RDKit          3D

 47 49  0  0  1  0  0  0  0  0999 V2000
   56.4430   29.3730   42.6180 N   0  0  0  0  0  0  0  0  0  0  0  0
   56.4540   29.7020   44.3290 S   0  0  0  0  0  0  0  0  0  0  0  0
   55.5230   28.6990   44.9700 O   0  0  0  0  0  0  0  0  0  0  0  0
   55.9620   31.1100   44.4820 O   0  0  0  0  0  0  0  0  0  0  0  0
   58.0830   29.5010   44.8810 C   0  0  0  0  0  0  0  0  0  0  0  0
   58.8960   28.4370   44.4820 C   0  0  0  0  0  0  0  0  0  0  0  0
   60.1890   28.3430   44.9670 C   0  0  0  0  0  0  0  0  0  0  0  0
   60.7260   29.2660   45.8400 C   0  0  0  0  0  0  0  0  0  0  0  0
   59.9140   30.3140   46.2280 C   0  0  0  0  0  0  0  0  0  0  0  0
   58.6150   30.4420   45.7660 C   0  0  0  0  0  0  0  0  0  0  0  0
   59.7240   34.6300   49.0230 N   0  0  0  0  0  0  0  0  0  0  0  0
   59.3280   34.2120   47.8680 C   0  0  0  0  0  0  0  0  0  0  0  0
   58.7450   33.0190   47.6740 N   0  0  0  0  0  0  0  0  0  0  0  0
   58.3630   32.6600   46.4340 C   0  0  0  0  0  0  0  0  0  0  0  0
   57.7970   31.5300   46.1790 N   0  0  0  0  0  0  0  0  0  0  0  0
   60.6250   33.8070   49.8040 C   0  0  0  0  0  0  0  0  0  0  0  0
   61.8010   33.4740   48.8740 C   0  0  0  0  0  0  0  0  0  0  0  0
   63.1120   33.5570   49.6330 C   0  0  0  0  0  0  0  0  0  0  0  0
   64.2290   33.4600   48.6150 C   0  0  0  0  0  0  0  0  0  0  0  0
   63.7260   32.9440   47.3640 N   0  0  0  0  0  0  0  0  0  0  0  0
   62.9530   31.7410   47.6080 C   0  0  0  0  0  0  0  0  0  0  0  0
   61.6770   32.0560   48.3610 C   0  0  0  0  0  0  0  0  0  0  0  0
   59.5410   35.0670   46.8270 N   0  0  0  0  0  0  0  0  0  0  0  0
   59.1790   34.7580   45.5680 C   0  0  0  0  0  0  0  0  0  0  0  0
   58.5810   33.5360   45.3700 C   0  0  0  0  0  0  0  0  0  0  0  0
   58.0880   33.0760   43.7620 Cl  0  0  0  0  0  0  0  0  0  0  0  0
   57.2570   29.7790   42.1290 H   0  0  0  0  0  0  0  0  0  0  0  0
   55.5290   29.7220   42.2240 H   0  0  0  0  0  0  0  0  0  0  0  0
   58.5103   27.6777   43.7858 H   0  0  0  0  0  0  0  0  0  0  0  0
   60.8138   27.4977   44.6430 H   0  0  0  0  0  0  0  0  0  0  0  0
   61.7571   29.1716   46.2115 H   0  0  0  0  0  0  0  0  0  0  0  0
   60.3106   31.0682   46.9237 H   0  0  0  0  0  0  0  0  0  0  0  0
   58.5990   32.3990   48.4730 H   0  0  0  0  0  0  0  0  0  0  0  0
   60.9795   34.3589   50.6870 H   0  0  0  0  0  0  0  0  0  0  0  0
   60.1274   32.8964   50.1690 H   0  0  0  0  0  0  0  0  0  0  0  0
   61.7832   34.1950   48.0435 H   0  0  0  0  0  0  0  0  0  0  0  0
   63.1754   34.5142   50.1712 H   0  0  0  0  0  0  0  0  0  0  0  0
   63.1865   32.7450   50.3713 H   0  0  0  0  0  0  0  0  0  0  0  0
   64.6561   34.4600   48.4491 H   0  0  0  0  0  0  0  0  0  0  0  0
   65.0023   32.7775   48.9975 H   0  0  0  0  0  0  0  0  0  0  0  0
   64.5280   32.6610   46.7500 H   0  0  0  0  0  0  0  0  0  0  0  0
   62.6962   31.2773   46.6441 H   0  0  0  0  0  0  0  0  0  0  0  0
   63.5583   31.0545   48.2182 H   0  0  0  0  0  0  0  0  0  0  0  0
   60.8112   31.9729   47.6875 H   0  0  0  0  0  0  0  0  0  0  0  0
   61.5289   31.3508   49.1921 H   0  0  0  0  0  0  0  0  0  0  0  0
   60.0020   36.0010   46.9950 H   0  0  0  0  0  0  0  0  0  0  0  0
   59.3540   35.4531   44.7336 H   0  0  0  0  0  0  0  0  0  0  0  0
  1  2  1  0
  2  3  2  0
  2  4  2  0
  2  5  1  0
  5  6  2  0
  6  7  1  0
  7  8  2  0
  8  9  1  0
  9 10  2  0
 10 11  1  0
 11 12  2  0
 12 13  1  0
 13 14  1  0
 14 15  2  0
 15 16  1  0
 16 17  1  0
 17 18  1  0
 18 19  1  0
 19 20  1  0
 20 21  1  0
 21 22  1  0
 14 23  1  0
 23 24  1  0
 24 25  2  0
 25 26  1  0
 10  5  1  0
 25 12  1  0
 22 17  1  0
  1 27  1  0
  1 28  1  0
  6 29  1  0
  7 30  1  0
  8 31  1  0
  9 32  1  0
 13 33  1  0
 16 34  1  0
 16 35  1  0
 17 36  1  0
 18 37  1  0
 18 38  1  0
 19 39  1  0
 19 40  1  0
 20 41  1  0
 21 42  1  0
 21 43  1  0
 22 44  1  0
 22 45  1  0
 23 46  1  0
 24 47  1  0
M  END
>  <smiles>  (25) 
NS(=O)(=O)c1ccccc1N=c1[nH]c(=NCC2CCNCC2)[nH]cc1Cl

>  <score_type>  (25) 
oracle

>  <origin>  (25) 
adg

>  <m_score__min__energy>  (25) 
-10.289999999999999

>  <m_primary>  (25) 
energy

$$$$
25:0
     RDKit          3D

 46 48  0  0  0  0  0  0  0  0999 V2000
   59.4620   33.8680   44.7150 O   0  0  0  0  0  0  0  0  0  0  0  0
   58.7830   32.8700   45.0750 C   0  0  0  0  0  0  0  0  0  0  0  0
   57.5070   32.5580   44.3510 C   0  0  0  0  0  0  0  0  0  0  0  0
   56.6510   31.6610   45.1370 N   0  0  0  0  0  0  0  0  0  0  0  0
   56.6420   30.0350   44.4940 S   0  0  0  0  0  0  0  0  0  0  0  0
   56.7150   30.1000   42.9940 O   0  0  0  0  0  0  0  0  0  0  0  0
   55.3520   29.3570   44.8780 O   0  0  0  0  0  0  0  0  0  0  0  0
   58.0150   29.0930   45.0880 C   0  0  0  0  0  0  0  0  0  0  0  0
   57.8400   28.1260   46.0870 C   0  0  0  0  0  0  0  0  0  0  0  0
   58.9390   27.4090   46.5730 C   0  0  0  0  0  0  0  0  0  0  0  0
   60.2150   27.6540   46.0640 C   0  0  0  0  0  0  0  0  0  0  0  0
   60.3930   28.6080   45.0570 C   0  0  0  0  0  0  0  0  0  0  0  0
   59.2970   29.3240   44.5670 C   0  0  0  0  0  0  0  0  0  0  0  0
   59.1840   32.0690   46.2010 N   0  0  0  0  0  0  0  0  0  0  0  0
   60.2890   32.3810   47.0660 C   0  0  0  0  0  0  0  0  0  0  0  0
   61.3370   31.4600   47.1910 C   0  0  0  0  0  0  0  0  0  0  0  0
   62.4210   31.7270   48.0320 C   0  0  0  0  0  0  0  0  0  0  0  0
   62.4810   32.9290   48.7530 C   0  0  0  0  0  0  0  0  0  0  0  0
   63.5570   33.1730   49.6740 N   0  0  0  0  0  0  0  0  0  0  0  0
   64.8630   32.5700   49.3730 C   0  0  0  0  0  0  0  0  0  0  0  0
   65.8980   32.8570   50.4620 C   0  0  0  0  0  0  0  0  0  0  0  0
   65.7970   34.1950   50.8980 O   0  0  0  0  0  0  0  0  0  0  0  0
   64.5980   34.3430   51.6310 C   0  0  0  0  0  0  0  0  0  0  0  0
   63.3730   34.1910   50.7190 C   0  0  0  0  0  0  0  0  0  0  0  0
   61.4500   33.8690   48.6050 C   0  0  0  0  0  0  0  0  0  0  0  0
   60.3660   33.6020   47.7600 C   0  0  0  0  0  0  0  0  0  0  0  0
   56.9643   33.4959   44.1618 H   0  0  0  0  0  0  0  0  0  0  0  0
   57.7593   32.0556   43.4055 H   0  0  0  0  0  0  0  0  0  0  0  0
   56.8356   27.9300   46.4904 H   0  0  0  0  0  0  0  0  0  0  0  0
   58.7969   26.6511   47.3575 H   0  0  0  0  0  0  0  0  0  0  0  0
   61.0798   27.0974   46.4543 H   0  0  0  0  0  0  0  0  0  0  0  0
   61.3975   28.7953   44.6497 H   0  0  0  0  0  0  0  0  0  0  0  0
   59.4400   30.0700   43.7714 H   0  0  0  0  0  0  0  0  0  0  0  0
   58.5520   31.2850   46.4950 H   0  0  0  0  0  0  0  0  0  0  0  0
   61.3066   30.5188   46.6225 H   0  0  0  0  0  0  0  0  0  0  0  0
   63.2320   30.9902   48.1291 H   0  0  0  0  0  0  0  0  0  0  0  0
   64.7376   31.4810   49.2820 H   0  0  0  0  0  0  0  0  0  0  0  0
   65.2298   33.0112   48.4345 H   0  0  0  0  0  0  0  0  0  0  0  0
   65.7230   32.1841   51.3144 H   0  0  0  0  0  0  0  0  0  0  0  0
   66.9043   32.6918   50.0495 H   0  0  0  0  0  0  0  0  0  0  0  0
   64.5593   33.5738   52.4164 H   0  0  0  0  0  0  0  0  0  0  0  0
   64.5811   35.3491   52.0755 H   0  0  0  0  0  0  0  0  0  0  0  0
   62.5089   33.9063   51.3373 H   0  0  0  0  0  0  0  0  0  0  0  0
   63.2170   35.1559   50.2143 H   0  0  0  0  0  0  0  0  0  0  0  0
   61.4935   34.8203   49.1555 H   0  0  0  0  0  0  0  0  0  0  0  0
   59.5700   34.3514   47.6382 H   0  0  0  0  0  0  0  0  0  0  0  0
  1  2  2  0
  2  3  1  0
  3  4  1  0
  4  5  1  0
  5  6  2  0
  5  7  2  0
  5  8  1  0
  8  9  2  0
  9 10  1  0
 10 11  2  0
 11 12  1  0
 12 13  2  0
  2 14  1  0
 14 15  1  0
 15 16  2  0
 16 17  1  0
 17 18  2  0
 18 19  1  0
 19 20  1  0
 20 21  1  0
 21 22  1  0
 22 23  1  0
 23 24  1  0
 18 25  1  0
 25 26  2  0
 13  8  1  0
 26 15  1  0
 24 19  1  0
  3 27  1  0
  3 28  1  0
  9 29  1  0
 10 30  1  0
 11 31  1  0
 12 32  1  0
 13 33  1  0
 14 34  1  0
 16 35  1  0
 17 36  1  0
 20 37  1  0
 20 38  1  0
 21 39  1  0
 21 40  1  0
 23 41  1  0
 23 42  1  0
 24 43  1  0
 24 44  1  0
 25 45  1  0
 26 46  1  0
M  CHG  1   4  -1
M  END
>  <UniqueID>  (26) 
24

>  <SMILES>  (26) 
O=C(C[N-]S(=O)(=O)c1ccccc1)Nc1ccc(N2CCOCC2)cc1

>  <Energy>  (26) 
56.73434780654831

>  <Genealogy>  (26) 
O=C(C[N-]S(=O)(=O)c1ccccc1)Nc1ccc(N2CCOCC2)cc1 (protonated)
O=C(C[N-]S(=O)(=O)c1ccccc1)Nc1ccc(N2CCOCC2)cc1 (3D coordinates assigned)
O=C(C[N-]S(=O)(=O)c1ccccc1)Nc1ccc(N2CCOCC2)cc1 (nonaromatic ring conformer: 56.73434780654831 kcal/mol)

>  <smiles>  (26) 
O=C(CNS(=O)(=O)c1ccccc1)Nc1ccc(N2CCOCC2)cc1

>  <score_type>  (26) 
oracle

>  <origin>  (26) 
adg

>  <m_score__min__energy>  (26) 
-9.0899999999999999

>  <m_primary>  (26) 
energy

$$$$
26:0
     RDKit          3D

 39 40  0  0  0  0  0  0  0  0999 V2000
   57.2830   21.8760   43.7420 C   0  0  0  0  0  0  0  0  0  0  0  0
   56.2760   22.7560   43.0100 C   0  0  0  0  0  0  0  0  0  0  0  0
   55.4330   23.4090   43.9390 O   0  0  0  0  0  0  0  0  0  0  0  0
   56.1540   24.3790   44.6710 C   0  0  0  0  0  0  0  0  0  0  0  0
   55.2240   25.1070   45.6000 C   0  0  0  0  0  0  0  0  0  0  0  0
   54.1850   24.5220   46.0050 O   0  0  0  0  0  0  0  0  0  0  0  0
   55.4570   26.4620   46.0130 N   0  0  0  0  0  0  0  0  0  0  0  0
   56.5480   27.3000   45.6090 C   0  0  0  0  0  0  0  0  0  0  0  0
   57.8820   26.9190   45.8180 C   0  0  0  0  0  0  0  0  0  0  0  0
   58.9220   27.7650   45.4290 C   0  0  0  0  0  0  0  0  0  0  0  0
   58.6420   29.0010   44.8450 C   0  0  0  0  0  0  0  0  0  0  0  0
   57.3110   29.4150   44.6550 C   0  0  0  0  0  0  0  0  0  0  0  0
   57.0080   30.7330   44.0500 C   0  0  0  0  0  0  0  0  0  0  0  0
   57.0800   30.8830   42.7990 O   0  0  0  0  0  0  0  0  0  0  0  0
   56.6860   31.8510   44.8900 N   0  0  0  0  0  0  0  0  0  0  0  0
   57.5880   32.8700   45.3470 C   0  0  0  0  0  0  0  0  0  0  0  0
   57.6460   33.2430   46.7040 C   0  0  0  0  0  0  0  0  0  0  0  0
   58.5510   34.2210   47.1280 C   0  0  0  0  0  0  0  0  0  0  0  0
   59.4130   34.8240   46.2120 C   0  0  0  0  0  0  0  0  0  0  0  0
   59.3810   34.4430   44.8680 C   0  0  0  0  0  0  0  0  0  0  0  0
   58.4800   33.4650   44.4310 C   0  0  0  0  0  0  0  0  0  0  0  0
   58.4820   33.1060   43.0830 O   0  0  0  0  0  0  0  0  0  0  0  0
   56.2690   28.5550   45.0530 C   0  0  0  0  0  0  0  0  0  0  0  0
   57.1502   21.9920   44.8278 H   0  0  0  0  0  0  0  0  0  0  0  0
   57.1217   20.8242   43.4632 H   0  0  0  0  0  0  0  0  0  0  0  0
   58.3037   22.1768   43.4632 H   0  0  0  0  0  0  0  0  0  0  0  0
   56.8152   23.5091   42.4166 H   0  0  0  0  0  0  0  0  0  0  0  0
   55.6624   22.1263   42.3489 H   0  0  0  0  0  0  0  0  0  0  0  0
   56.9422   23.8836   45.2569 H   0  0  0  0  0  0  0  0  0  0  0  0
   56.6087   25.0979   43.9736 H   0  0  0  0  0  0  0  0  0  0  0  0
   58.1089   25.9514   46.2895 H   0  0  0  0  0  0  0  0  0  0  0  0
   59.9664   27.4561   45.5834 H   0  0  0  0  0  0  0  0  0  0  0  0
   59.4678   29.6563   44.5310 H   0  0  0  0  0  0  0  0  0  0  0  0
   56.9767   32.7630   47.4331 H   0  0  0  0  0  0  0  0  0  0  0  0
   58.5833   34.5158   48.1873 H   0  0  0  0  0  0  0  0  0  0  0  0
   60.1177   35.5991   46.5475 H   0  0  0  0  0  0  0  0  0  0  0  0
   60.0677   34.9143   44.1494 H   0  0  0  0  0  0  0  0  0  0  0  0
   57.8850   32.3750   42.7140 H   0  0  0  0  0  0  0  0  0  0  0  0
   55.2236   28.8727   44.9257 H   0  0  0  0  0  0  0  0  0  0  0  0
  1  2  1  0
  2  3  1  0
  3  4  1  0
  4  5  1  0
  5  6  2  0
  5  7  1  0
  7  8  1  0
  8  9  2  0
  9 10  1  0
 10 11  2  0
 11 12  1  0
 12 13  1  0
 13 14  2  0
 13 15  1  0
 15 16  1  0
 16 17  2  0
 17 18  1  0
 18 19  2  0
 19 20  1  0
 20 21  2  0
 21 22  1  0
 12 23  2  0
 23  8  1  0
 21 16  1  0
  1 24  1  0
  1 25  1  0
  1 26  1  0
  2 27  1  0
  2 28  1  0
  4 29  1  0
  4 30  1  0
  9 31  1  0
 10 32  1  0
 11 33  1  0
 17 34  1  0
 18 35  1  0
 19 36  1  0
 20 37  1  0
 22 38  1  0
 23 39  1  0
M  CHG  2   7  -1  15  -1
M  END
>  <UniqueID>  (27) 
25

>  <SMILES>  (27) 
CCOCC(=O)[N-]c1cccc(C(=O)[N-]c2ccccc2O)c1

>  <Energy>  (27) 
47.82952952097863

>  <Genealogy>  (27) 
CCOCC(=O)[N-]c1cccc(C(=O)[N-]c2ccccc2O)c1 (protonated)
CCOCC(=O)[N-]c1cccc(C(=O)[N-]c2ccccc2O)c1 (3D coordinates assigned)
CCOCC(=O)[N-]c1cccc(C(=O)[N-]c2ccccc2O)c1 (optimized conformer: 47.82952952097863 kcal/mol)

>  <smiles>  (27) 
CCOCC(=O)Nc1cccc(C(=O)Nc2ccccc2O)c1

>  <score_type>  (27) 
oracle

>  <origin>  (27) 
adg

>  <m_score__min__energy>  (27) 
-10.449999999999999

>  <m_primary>  (27) 
energy

$$$$
27:0
     RDKit          3D

 22 23  0  0  0  0  0  0  0  0999 V2000
   59.4243   27.3003   47.0429 H   0  0  0  0  0  0  0  0  0  0  0  0
   58.8840   27.7310   46.1870 C   0  0  0  0  0  0  0  0  0  0  0  0
   57.8700   28.5610   46.2730 O   0  0  0  0  0  0  0  0  0  0  0  0
   57.4750   28.8680   45.0590 C   0  0  0  0  0  0  0  0  0  0  0  0
   56.3610   29.7750   44.7660 C   0  0  0  0  0  0  0  0  0  0  0  0
   55.1750   29.3520   44.8440 O   0  0  0  0  0  0  0  0  0  0  0  0
   56.6390   31.1560   44.4880 N   0  0  0  0  0  0  0  0  0  0  0  0
   57.3920   31.9890   45.1540 C   0  0  0  0  0  0  0  0  0  0  0  0
   57.4770   33.3120   44.7000 C   0  0  0  0  0  0  0  0  0  0  0  0
   56.9187   33.6252   43.8055 H   0  0  0  0  0  0  0  0  0  0  0  0
   58.2720   34.2310   45.3860 C   0  0  0  0  0  0  0  0  0  0  0  0
   58.3502   35.2682   45.0281 H   0  0  0  0  0  0  0  0  0  0  0  0
   58.9660   33.8310   46.5250 C   0  0  0  0  0  0  0  0  0  0  0  0
   59.6016   34.5455   47.0687 H   0  0  0  0  0  0  0  0  0  0  0  0
   58.8460   32.5130   46.9690 C   0  0  0  0  0  0  0  0  0  0  0  0
   59.3840   32.1895   47.8723 H   0  0  0  0  0  0  0  0  0  0  0  0
   58.0670   31.6250   46.2910 N   0  0  0  0  0  0  0  0  0  0  0  0
   57.9770   30.6730   46.7030 H   0  0  0  0  0  0  0  0  0  0  0  0
   58.2600   28.2140   44.1280 C   0  0  0  0  0  0  0  0  0  0  0  0
   58.1766   28.2674   43.0325 H   0  0  0  0  0  0  0  0  0  0  0  0
   59.1690   27.4810   44.8600 C   0  0  0  0  0  0  0  0  0  0  0  0
   59.9619   26.8282   44.4660 H   0  0  0  0  0  0  0  0  0  0  0  0
  1  2  1  0
  2  3  1  0
  3  4  1  0
  4  5  1  0
  5  6  2  0
  5  7  1  0
  7  8  2  0
  8  9  1  0
  9 10  1  0
  9 11  2  0
 11 12  1  0
 11 13  1  0
 13 14  1  0
 13 15  2  0
 15 16  1  0
 15 17  1  0
 17 18  1  0
  4 19  2  0
 19 20  1  0
 19 21  1  0
 21 22  1  0
 21  2  2  0
 17  8  1  0
M  END
>  <UniqueID>  (28) 
26

>  <SMILES>  (28) 
O=C(/N=c1/cccc[nH]1)c1ccco1

>  <Energy>  (28) 
54.83101597250546

>  <Genealogy>  (28) 
O=C(/N=c1/cccc[nH]1)c1ccco1 (cis-trans isomerization)
O=C(/N=c1/cccc[nH]1)c1ccco1 (3D coordinates assigned)
O=C(/N=c1/cccc[nH]1)c1ccco1 (optimized conformer: 54.83101597250546 kcal/mol)

>  <smiles>  (28) 
O=C(N=c1cccc[nH]1)c1ccco1

>  <score_type>  (28) 
oracle

>  <origin>  (28) 
adg

>  <m_score__min__energy>  (28) 
-5.6399999999999997

>  <m_primary>  (28) 
energy

$$$$
28:0
     RDKit          3D

 30 31  0  0  0  0  0  0  0  0999 V2000
   54.4646   29.8005   51.1033 H   0  0  0  0  0  0  0  0  0  0  0  0
   54.1370   30.4740   51.9090 C   0  0  0  0  0  0  0  0  0  0  0  0
   55.0470   31.1360   52.5640 N   0  0  0  0  0  0  0  0  0  0  0  0
   56.3350   31.5050   52.0560 C   0  0  0  0  0  0  0  0  0  0  0  0
   57.0490   30.5940   51.2670 C   0  0  0  0  0  0  0  0  0  0  0  0
   56.6284   29.5986   51.0616 H   0  0  0  0  0  0  0  0  0  0  0  0
   58.2950   30.9470   50.7400 C   0  0  0  0  0  0  0  0  0  0  0  0
   58.8398   30.2366   50.1008 H   0  0  0  0  0  0  0  0  0  0  0  0
   58.8540   32.2020   51.0220 C   0  0  0  0  0  0  0  0  0  0  0  0
   60.1670   32.6040   50.4080 C   0  0  0  0  0  0  0  0  0  0  0  0
   60.6095   31.7349   49.8993 H   0  0  0  0  0  0  0  0  0  0  0  0
   60.8370   32.9601   51.2044 H   0  0  0  0  0  0  0  0  0  0  0  0
   59.9640   33.7280   49.3960 C   0  0  0  0  0  0  0  0  0  0  0  0
   59.7930   34.6749   49.9291 H   0  0  0  0  0  0  0  0  0  0  0  0
   60.8602   33.8193   48.7647 H   0  0  0  0  0  0  0  0  0  0  0  0
   59.0925   33.5000   48.7647 H   0  0  0  0  0  0  0  0  0  0  0  0
   58.1480   33.1040   51.8350 C   0  0  0  0  0  0  0  0  0  0  0  0
   58.5783   34.0909   52.0607 H   0  0  0  0  0  0  0  0  0  0  0  0
   56.9010   32.7520   52.3580 C   0  0  0  0  0  0  0  0  0  0  0  0
   56.3613   33.4556   53.0090 H   0  0  0  0  0  0  0  0  0  0  0  0
   52.6600   30.5780   52.1920 C   0  0  0  0  0  0  0  0  0  0  0  0
   52.2983   29.6111   52.5718 H   0  0  0  0  0  0  0  0  0  0  0  0
   52.5028   31.3706   52.9384 H   0  0  0  0  0  0  0  0  0  0  0  0
   51.8950   30.9340   50.9520 C   0  0  0  0  0  0  0  0  0  0  0  0
   51.8080   30.1480   49.8650 N   0  0  0  0  0  0  0  0  0  0  0  0
   51.0400   30.8700   49.0200 C   0  0  0  0  0  0  0  0  0  0  0  0
   50.7300   30.4630   47.8700 O   0  0  0  0  0  0  0  0  0  0  0  0
   50.6300   32.0620   49.5030 N   0  0  0  0  0  0  0  0  0  0  0  0
   51.1770   32.0860   50.7290 C   0  0  0  0  0  0  0  0  0  0  0  0
   51.0240   33.1390   51.6220 O   0  0  0  0  0  0  0  0  0  0  0  0
  1  2  1  0
  2  3  2  0
  3  4  1  0
  4  5  2  0
  5  6  1  0
  5  7  1  0
  7  8  1  0
  7  9  2  0
  9 10  1  0
 10 11  1  0
 10 12  1  0
 10 13  1  0
 13 14  1  0
 13 15  1  0
 13 16  1  0
  9 17  1  0
 17 18  1  0
 17 19  2  0
 19 20  1  0
  2 21  1  0
 21 22  1  0
 21 23  1  0
 21 24  1  0
 24 25  1  0
 25 26  1  0
 26 27  2  0
 26 28  1  0
 28 29  1  0
 29 30  1  0
 19  4  1  0
 29 24  2  0
M  CHG  3  25  -1  28  -1  30  -1
M  END
>  <UniqueID>  (29) 
27

>  <SMILES>  (29) 
CCc1ccc(/N=C\Cc2[n-]c(=O)[n-]c2[O-])cc1

>  <Energy>  (29) 
60.55490868394332

>  <Genealogy>  (29) 
CCc1ccc(N=CCc2[n-]c(=O)[n-]c2[O-])cc1 (protonated)
CCc1ccc(/N=C\Cc2[n-]c(=O)[n-]c2[O-])cc1 (cis-trans isomerization)
CCc1ccc(/N=C\Cc2[n-]c(=O)[n-]c2[O-])cc1 (3D coordinates assigned)
CCc1ccc(/N=C\Cc2[n-]c(=O)[n-]c2[O-])cc1 (optimized conformer: 60.55490868394332 kcal/mol)

>  <smiles>  (29) 
CCc1ccc(N=CCc2[nH]c(=O)[nH]c2O)cc1

>  <score_type>  (29) 
oracle

>  <origin>  (29) 
adg

>  <m_score__min__energy>  (29) 
-15.119999999999999

>  <m_primary>  (29) 
energy

$$$$
29:0
     RDKit          3D

 44 46  0  0  0  0  0  0  0  0999 V2000
   59.8030   31.2420   49.3620 C   0  0  0  0  0  0  0  0  0  0  0  0
   59.5130   32.1320   48.1910 C   0  0  0  0  0  0  0  0  0  0  0  0
   58.6940   31.7910   47.1360 C   0  0  0  0  0  0  0  0  0  0  0  0
   58.6960   32.8650   46.2680 C   0  0  0  0  0  0  0  0  0  0  0  0
   57.9670   32.8760   44.9780 C   0  0  0  0  0  0  0  0  0  0  0  0
   57.0930   33.7660   44.7890 O   0  0  0  0  0  0  0  0  0  0  0  0
   58.1500   31.8200   43.9270 C   0  0  0  0  0  0  0  0  0  0  0  0
   56.5730   30.9710   43.5560 S   0  0  0  0  0  0  0  0  0  0  0  0
   56.9330   29.5120   44.5320 C   0  0  0  0  0  0  0  0  0  0  0  0
   58.2060   29.2640   44.9390 N   0  0  0  0  0  0  0  0  0  0  0  0
   58.4970   28.1660   45.6830 C   0  0  0  0  0  0  0  0  0  0  0  0
   59.6850   27.9530   46.0480 O   0  0  0  0  0  0  0  0  0  0  0  0
   57.4820   27.2790   46.0440 C   0  0  0  0  0  0  0  0  0  0  0  0
   56.1800   27.5560   45.6230 C   0  0  0  0  0  0  0  0  0  0  0  0
   55.1410   26.7010   45.9640 O   0  0  0  0  0  0  0  0  0  0  0  0
   55.9300   28.6640   44.8790 N   0  0  0  0  0  0  0  0  0  0  0  0
   59.4950   33.8500   46.8540 C   0  0  0  0  0  0  0  0  0  0  0  0
   59.7630   35.2180   46.2890 C   0  0  0  0  0  0  0  0  0  0  0  0
   59.9980   33.3850   48.0280 N   0  0  0  0  0  0  0  0  0  0  0  0
   60.9480   34.0580   48.9280 C   0  0  0  0  0  0  0  0  0  0  0  0
   62.3300   34.1930   48.2630 C   0  0  2  0  0  0  0  0  0  0  0  0
   62.5200   33.1640   47.1560 C   0  0  0  0  0  0  0  0  0  0  0  0
   63.2970   32.0800   47.8330 C   0  0  0  0  0  0  0  0  0  0  0  0
   64.0260   32.8200   48.9340 C   0  0  0  0  0  0  0  0  0  0  0  0
   63.3460   34.0200   49.2260 O   0  0  0  0  0  0  0  0  0  0  0  0
   59.6230   31.7945   50.2960 H   0  0  0  0  0  0  0  0  0  0  0  0
   59.1455   30.3610   49.3246 H   0  0  0  0  0  0  0  0  0  0  0  0
   60.8534   30.9175   49.3246 H   0  0  0  0  0  0  0  0  0  0  0  0
   58.1450   30.8461   47.0099 H   0  0  0  0  0  0  0  0  0  0  0  0
   58.5282   32.2911   43.0077 H   0  0  0  0  0  0  0  0  0  0  0  0
   58.8651   31.0744   44.3049 H   0  0  0  0  0  0  0  0  0  0  0  0
   57.7021   26.3844   46.6450 H   0  0  0  0  0  0  0  0  0  0  0  0
   59.9032   35.9338   47.1124 H   0  0  0  0  0  0  0  0  0  0  0  0
   60.6723   35.1877   45.6707 H   0  0  0  0  0  0  0  0  0  0  0  0
   58.9095   35.5330   45.6707 H   0  0  0  0  0  0  0  0  0  0  0  0
   60.5657   35.0602   49.1716 H   0  0  0  0  0  0  0  0  0  0  0  0
   61.0542   33.4558   49.8423 H   0  0  0  0  0  0  0  0  0  0  0  0
   62.3897   35.1991   47.8224 H   0  0  0  0  0  0  0  0  0  0  0  0
   61.5512   32.7890   46.7944 H   0  0  0  0  0  0  0  0  0  0  0  0
   63.0270   33.5709   46.2687 H   0  0  0  0  0  0  0  0  0  0  0  0
   62.6264   31.3135   48.2487 H   0  0  0  0  0  0  0  0  0  0  0  0
   63.9723   31.5410   47.1523 H   0  0  0  0  0  0  0  0  0  0  0  0
   64.0631   32.1912   49.8358 H   0  0  0  0  0  0  0  0  0  0  0  0
   65.0498   33.0505   48.6043 H   0  0  0  0  0  0  0  0  0  0  0  0
  1  2  1  0
  2  3  2  0
  3  4  1  0
  4  5  1  0
  5  6  2  0
  5  7  1  0
  7  8  1  0
  8  9  1  0
  9 10  2  0
 10 11  1  0
 11 12  2  0
 11 13  1  0
 13 14  2  0
 14 15  1  0
 14 16  1  0
  4 17  2  0
 17 18  1  0
 17 19  1  0
 19 20  1  0
 20 21  1  0
 21 22  1  0
 22 23  1  0
 23 24  1  0
 24 25  1  0
 19  2  1  0
 25 21  1  0
 16  9  1  0
  1 26  1  0
  1 27  1  0
  1 28  1  0
  3 29  1  0
  7 30  1  0
  7 31  1  0
 13 32  1  0
 18 33  1  0
 18 34  1  0
 18 35  1  0
 20 36  1  0
 20 37  1  0
 21 38  1  6
 22 39  1  0
 22 40  1  0
 23 41  1  0
 23 42  1  0
 24 43  1  0
 24 44  1  0
M  CHG  2  15  -1  16  -1
M  END
>  <UniqueID>  (30) 
28

>  <SMILES>  (30) 
Cc1cc(C(=O)CSc2nc(=O)cc([O-])[n-]2)c(C)n1C[C@@H]1CCCO1

>  <Energy>  (30) 
69.14729412725607

>  <Genealogy>  (30) 
Cc1cc(C(=O)CSc2nc(=O)cc([O-])[n-]2)c(C)n1CC1CCCO1 (protonated)
Cc1cc(C(=O)CSc2nc(=O)cc([O-])[n-]2)c(C)n1C[C@@H]1CCCO1 (chirality)
Cc1cc(C(=O)CSc2nc(=O)cc([O-])[n-]2)c(C)n1C[C@@H]1CCCO1 (3D coordinates assigned)
Cc1cc(C(=O)CSc2nc(=O)cc([O-])[n-]2)c(C)n1C[C@@H]1CCCO1 (nonaromatic ring conformer: 69.14729412725607 kcal/mol)

>  <smiles>  (30) 
Cc1cc(C(=O)CSc2nc(=O)cc(O)[nH]2)c(C)n1CC1CCCO1

>  <score_type>  (30) 
oracle

>  <origin>  (30) 
adg

>  <m_score__min__energy>  (30) 
-13.83

>  <m_primary>  (30) 
energy

$$$$
30:0
     RDKit          3D

 81 84  0  0  0  0  0  0  0  0999 V2000
   55.5420   26.3350   45.9900 C   0  0  0  0  0  0  0  0  0  0  0  0
   56.8980   25.6240   45.9460 C   0  0  1  0  0  0  0  0  0  0  0  0
   58.0130   26.5550   46.0630 N   0  0  0  0  0  0  0  0  0  0  0  0
   58.2840   27.7570   45.3320 C   0  0  0  0  0  0  0  0  0  0  0  0
   58.8850   27.6410   44.2310 O   0  0  0  0  0  0  0  0  0  0  0  0
   57.9790   29.1390   45.8730 C   0  0  1  0  0  0  0  0  0  0  0  0
   59.2010   30.0750   45.7280 C   0  0  0  0  0  0  0  0  0  0  0  0
   59.9510   30.2210   47.0280 C   0  0  0  0  0  0  0  0  0  0  0  0
   61.1750   30.9100   47.0660 C   0  0  0  0  0  0  0  0  0  0  0  0
   61.8440   31.0840   48.2810 C   0  0  0  0  0  0  0  0  0  0  0  0
   61.2960   30.5770   49.4630 C   0  0  0  0  0  0  0  0  0  0  0  0
   60.0790   29.8900   49.4310 C   0  0  0  0  0  0  0  0  0  0  0  0
   59.4090   29.7090   48.2190 C   0  0  0  0  0  0  0  0  0  0  0  0
   56.8010   29.7220   45.2200 N   0  0  0  0  0  0  0  0  0  0  0  0
   56.7800   30.8840   44.3790 C   0  0  0  0  0  0  0  0  0  0  0  0
   56.8990   30.7440   43.1320 O   0  0  0  0  0  0  0  0  0  0  0  0
   56.6340   32.1560   44.9380 O   0  0  0  0  0  0  0  0  0  0  0  0
   57.3940   33.2870   44.5360 C   0  0  0  0  0  0  0  0  0  0  0  0
   58.3330   33.6450   45.6520 C   0  0  0  0  0  0  0  0  0  0  0  0
   59.5490   34.2920   45.3640 C   0  0  0  0  0  0  0  0  0  0  0  0
   60.4710   34.5420   46.3840 C   0  0  0  0  0  0  0  0  0  0  0  0
   60.1930   34.1420   47.6940 C   0  0  0  0  0  0  0  0  0  0  0  0
   58.9890   33.4900   47.9870 C   0  0  0  0  0  0  0  0  0  0  0  0
   58.0640   33.2370   46.9690 C   0  0  0  0  0  0  0  0  0  0  0  0
   56.9960   24.6040   47.0590 C   0  0  0  0  0  0  0  0  0  0  0  0
   58.1280   24.1230   47.3290 O   0  0  0  0  0  0  0  0  0  0  0  0
   55.8620   24.1320   47.8140 N   0  0  0  0  0  0  0  0  0  0  0  0
   55.0180   22.9550   47.5750 C   0  0  1  0  0  0  0  0  0  0  0  0
   54.4970   22.9730   46.1310 C   0  0  0  0  0  0  0  0  0  0  0  0
   53.0270   22.6780   46.0850 C   0  0  0  0  0  0  0  0  0  0  0  0
   52.2450   22.2890   47.1450 C   0  0  0  0  0  0  0  0  0  0  0  0
   50.9910   22.0930   46.7090 N   0  0  0  0  0  0  0  0  0  0  0  0
   51.0540   22.3630   45.3870 C   0  0  0  0  0  0  0  0  0  0  0  0
   52.2860   22.7190   44.9660 N   0  0  0  0  0  0  0  0  0  0  0  0
   55.7620   21.6680   47.8520 C   0  0  0  0  0  0  0  0  0  0  0  0
   57.0170   21.7060   47.9480 O   0  0  0  0  0  0  0  0  0  0  0  0
   55.1110   20.3950   47.9380 N   0  0  0  0  0  0  0  0  0  0  0  0
   54.8390   19.4940   46.8230 C   0  0  0  0  0  0  0  0  0  0  0  0
   56.1040   19.2610   45.9820 C   0  0  0  0  0  0  0  0  0  0  0  0
   56.0080   19.8150   44.5500 C   0  0  0  0  0  0  0  0  0  0  0  0
   56.7430   21.1230   44.3800 C   0  0  0  0  0  0  0  0  0  0  0  0
   57.9590   21.3490   45.0500 C   0  0  0  0  0  0  0  0  0  0  0  0
   58.6290   22.5660   44.8990 C   0  0  0  0  0  0  0  0  0  0  0  0
   58.0920   23.5670   44.0850 C   0  0  0  0  0  0  0  0  0  0  0  0
   56.8790   23.3550   43.4250 C   0  0  0  0  0  0  0  0  0  0  0  0
   56.2030   22.1380   43.5710 C   0  0  0  0  0  0  0  0  0  0  0  0
   55.2438   26.4914   47.0372 H   0  0  0  0  0  0  0  0  0  0  0  0
   55.6213   27.3076   45.4822 H   0  0  0  0  0  0  0  0  0  0  0  0
   54.7871   25.7167   45.4822 H   0  0  0  0  0  0  0  0  0  0  0  0
   56.9622   25.1269   44.9668 H   0  0  0  0  0  0  0  0  0  0  0  0
   57.7530   29.0308   46.9441 H   0  0  0  0  0  0  0  0  0  0  0  0
   59.8804   29.6588   44.9696 H   0  0  0  0  0  0  0  0  0  0  0  0
   58.8371   31.0692   45.4293 H   0  0  0  0  0  0  0  0  0  0  0  0
   61.6074   31.3130   46.1383 H   0  0  0  0  0  0  0  0  0  0  0  0
   62.8037   31.6210   48.3071 H   0  0  0  0  0  0  0  0  0  0  0  0
   61.8226   30.7187   50.4183 H   0  0  0  0  0  0  0  0  0  0  0  0
   59.6485   29.4915   50.3615 H   0  0  0  0  0  0  0  0  0  0  0  0
   58.4539   29.1638   48.1967 H   0  0  0  0  0  0  0  0  0  0  0  0
   57.9685   33.0460   43.6294 H   0  0  0  0  0  0  0  0  0  0  0  0
   56.7267   34.1333   44.3160 H   0  0  0  0  0  0  0  0  0  0  0  0
   59.7745   34.6019   44.3329 H   0  0  0  0  0  0  0  0  0  0  0  0
   61.4171   35.0545   46.1555 H   0  0  0  0  0  0  0  0  0  0  0  0
   60.9204   34.3395   48.4952 H   0  0  0  0  0  0  0  0  0  0  0  0
   58.7705   33.1766   49.0185 H   0  0  0  0  0  0  0  0  0  0  0  0
   57.1228   32.7168   47.2004 H   0  0  0  0  0  0  0  0  0  0  0  0
   54.1669   22.9989   48.2705 H   0  0  0  0  0  0  0  0  0  0  0  0
   54.6780   23.9669   45.6959 H   0  0  0  0  0  0  0  0  0  0  0  0
   55.0275   22.1983   45.5579 H   0  0  0  0  0  0  0  0  0  0  0  0
   52.5900   22.1594   48.1814 H   0  0  0  0  0  0  0  0  0  0  0  0
   50.1839   22.2988   44.7171 H   0  0  0  0  0  0  0  0  0  0  0  0
   54.4867   18.5295   47.2176 H   0  0  0  0  0  0  0  0  0  0  0  0
   54.0713   19.9517   46.1818 H   0  0  0  0  0  0  0  0  0  0  0  0
   56.9508   19.7491   46.4867 H   0  0  0  0  0  0  0  0  0  0  0  0
   56.2358   18.1723   45.8963 H   0  0  0  0  0  0  0  0  0  0  0  0
   56.4389   19.0768   43.8576 H   0  0  0  0  0  0  0  0  0  0  0  0
   54.9451   20.0014   44.3367 H   0  0  0  0  0  0  0  0  0  0  0  0
   58.3838   20.5655   45.6947 H   0  0  0  0  0  0  0  0  0  0  0  0
   59.5815   22.7365   45.4222 H   0  0  0  0  0  0  0  0  0  0  0  0
   58.6244   24.5219   43.9639 H   0  0  0  0  0  0  0  0  0  0  0  0
   56.4544   24.1460   42.7894 H   0  0  0  0  0  0  0  0  0  0  0  0
   55.2471   21.9755   43.0515 H   0  0  0  0  0  0  0  0  0  0  0  0
  1  2  1  0
  2  3  1  0
  3  4  1  0
  4  5  2  0
  4  6  1  0
  6  7  1  0
  7  8  1  0
  8  9  2  0
  9 10  1  0
 10 11  2  0
 11 12  1  0
 12 13  2  0
  6 14  1  0
 14 15  1  0
 15 16  2  0
 15 17  1  0
 17 18  1  0
 18 19  1  0
 19 20  2  0
 20 21  1  0
 21 22  2  0
 22 23  1  0
 23 24  2  0
  2 25  1  0
 25 26  2  0
 25 27  1  0
 27 28  1  0
 28 29  1  0
 29 30  1  0
 30 31  2  0
 31 32  1  0
 32 33  1  0
 33 34  2  0
 28 35  1  0
 35 36  2  0
 35 37  1  0
 37 38  1  0
 38 39  1  0
 39 40  1  0
 40 41  1  0
 41 42  2  0
 42 43  1  0
 43 44  2  0
 44 45  1  0
 45 46  2  0
 13  8  1  0
 24 19  1  0
 34 30  1  0
 46 41  1  0
  1 47  1  0
  1 48  1  0
  1 49  1  0
  2 50  1  6
  6 51  1  1
  7 52  1  0
  7 53  1  0
  9 54  1  0
 10 55  1  0
 11 56  1  0
 12 57  1  0
 13 58  1  0
 18 59  1  0
 18 60  1  0
 20 61  1  0
 21 62  1  0
 22 63  1  0
 23 64  1  0
 24 65  1  0
 28 66  1  1
 29 67  1  0
 29 68  1  0
 31 69  1  0
 33 70  1  0
 38 71  1  0
 38 72  1  0
 39 73  1  0
 39 74  1  0
 40 75  1  0
 40 76  1  0
 42 77  1  0
 43 78  1  0
 44 79  1  0
 45 80  1  0
 46 81  1  0
M  CHG  5   3  -1  14  -1  27  -1  32  -1  37  -1
M  END
>  <UniqueID>  (31) 
29

>  <SMILES>  (31) 
C[C@@H]([N-]C(=O)[C@@H](Cc1ccccc1)[N-]C(=O)OCc1ccccc1)C(=O)[N-]C(Cc1c[n-]cn1)C(=O)[N-]CCCc1ccccc1

>  <Energy>  (31) 
100.20023442328672

>  <Genealogy>  (31) 
CC([N-]C(=O)C(Cc1ccccc1)[N-]C(=O)OCc1ccccc1)C(=O)[N-]C(Cc1c[n-]cn1)C(=O)[N-]CCCc1ccccc1 (protonated)
C[C@@H]([N-]C(=O)[C@@H](Cc1ccccc1)[N-]C(=O)OCc1ccccc1)C(=O)[N-]C(Cc1c[n-]cn1)C(=O)[N-]CCCc1ccccc1 (chirality)
C[C@@H]([N-]C(=O)[C@@H](Cc1ccccc1)[N-]C(=O)OCc1ccccc1)C(=O)[N-]C(Cc1c[n-]cn1)C(=O)[N-]CCCc1ccccc1 (3D coordinates assigned)
C[C@@H]([N-]C(=O)[C@@H](Cc1ccccc1)[N-]C(=O)OCc1ccccc1)C(=O)[N-]C(Cc1c[n-]cn1)C(=O)[N-]CCCc1ccccc1 (optimized conformer: 100.20023442328672 kcal/mol)

>  <smiles>  (31) 
CC(NC(=O)C(Cc1ccccc1)NC(=O)OCc1ccccc1)C(=O)NC(Cc1c[nH]cn1)C(=O)NCCCc1ccccc1

>  <score_type>  (31) 
oracle

>  <origin>  (31) 
adg

>  <m_score__min__energy>  (31) 
-17.010000000000002

>  <m_primary>  (31) 
energy

$$$$
31:0
     RDKit          3D

 31 32  0  0  0  0  0  0  0  0999 V2000
   57.7860   23.9690   44.5390 C   0  0  0  0  0  0  0  0  0  0  0  0
   56.5230   24.6280   45.0320 C   0  0  0  0  0  0  0  0  0  0  0  0
   55.3040   23.9440   44.9490 C   0  0  0  0  0  0  0  0  0  0  0  0
   54.1400   24.5560   45.4110 C   0  0  0  0  0  0  0  0  0  0  0  0
   53.0350   23.9550   45.3460 O   0  0  0  0  0  0  0  0  0  0  0  0
   54.2030   25.8050   45.9350 N   0  0  0  0  0  0  0  0  0  0  0  0
   55.3570   26.4670   46.0160 N   0  0  0  0  0  0  0  0  0  0  0  0
   56.5270   25.9320   45.5740 C   0  0  0  0  0  0  0  0  0  0  0  0
   57.7880   26.7370   45.7220 C   0  0  0  0  0  0  0  0  0  0  0  0
   57.4650   28.0640   46.2480 N   0  0  0  0  0  0  0  0  0  0  0  0
   57.0170   29.1220   44.9460 S   0  0  0  0  0  0  0  0  0  0  0  0
   57.5250   28.5740   43.6420 O   0  0  0  0  0  0  0  0  0  0  0  0
   55.5180   29.2190   44.8750 O   0  0  0  0  0  0  0  0  0  0  0  0
   57.6820   30.7260   45.2390 C   0  0  0  0  0  0  0  0  0  0  0  0
   58.5280   30.9350   46.3360 C   0  0  0  0  0  0  0  0  0  0  0  0
   59.0920   32.1960   46.5600 C   0  0  0  0  0  0  0  0  0  0  0  0
   58.8140   33.2520   45.6860 C   0  0  0  0  0  0  0  0  0  0  0  0
   59.5880   34.9720   45.9900 Br  0  0  0  0  0  0  0  0  0  0  0  0
   57.9710   33.0470   44.5890 C   0  0  0  0  0  0  0  0  0  0  0  0
   57.4080   31.7880   44.3640 C   0  0  0  0  0  0  0  0  0  0  0  0
   58.3939   23.6518   45.3992 H   0  0  0  0  0  0  0  0  0  0  0  0
   57.5274   23.0909   43.9291 H   0  0  0  0  0  0  0  0  0  0  0  0
   58.3583   24.6834   43.9291 H   0  0  0  0  0  0  0  0  0  0  0  0
   55.2653   22.9309   44.5222 H   0  0  0  0  0  0  0  0  0  0  0  0
   58.4702   26.2243   46.4161 H   0  0  0  0  0  0  0  0  0  0  0  0
   58.2718   26.8415   44.7397 H   0  0  0  0  0  0  0  0  0  0  0  0
   56.6300   27.9730   46.8720 H   0  0  0  0  0  0  0  0  0  0  0  0
   58.7496   30.1053   47.0234 H   0  0  0  0  0  0  0  0  0  0  0  0
   59.7541   32.3567   47.4236 H   0  0  0  0  0  0  0  0  0  0  0  0
   57.7509   33.8778   43.9025 H   0  0  0  0  0  0  0  0  0  0  0  0
   56.7481   31.6291   43.4984 H   0  0  0  0  0  0  0  0  0  0  0  0
  1  2  1  0
  2  3  2  0
  3  4  1  0
  4  5  2  0
  4  6  1  0
  6  7  1  0
  7  8  2  0
  8  9  1  0
  9 10  1  0
 10 11  1  0
 11 12  2  0
 11 13  2  0
 11 14  1  0
 14 15  2  0
 15 16  1  0
 16 17  2  0
 17 18  1  0
 17 19  1  0
 19 20  2  0
  8  2  1  0
 20 14  1  0
  1 21  1  0
  1 22  1  0
  1 23  1  0
  3 24  1  0
  9 25  1  0
  9 26  1  0
 10 27  1  0
 15 28  1  0
 16 29  1  0
 19 30  1  0
 20 31  1  0
M  CHG  1   6  -1
M  END
>  <UniqueID>  (32) 
30

>  <SMILES>  (32) 
Cc1cc(=O)[n-]nc1CNS(=O)(=O)c1ccc(Br)cc1

>  <Energy>  (32) 
29.205059826746115

>  <Genealogy>  (32) 
Cc1cc(=O)[n-]nc1CNS(=O)(=O)c1ccc(Br)cc1 (protonated)
Cc1cc(=O)[n-]nc1CNS(=O)(=O)c1ccc(Br)cc1 (3D coordinates assigned)
Cc1cc(=O)[n-]nc1CNS(=O)(=O)c1ccc(Br)cc1 (optimized conformer: 29.205059826746115 kcal/mol)

>  <smiles>  (32) 
Cc1cc(=O)[nH]nc1CNS(=O)(=O)c1ccc(Br)cc1

>  <score_type>  (32) 
oracle

>  <origin>  (32) 
adg

>  <m_score__min__energy>  (32) 
-11.789999999999999

>  <m_primary>  (32) 
energy

$$$$
32:0
     RDKit          3D

 51 53  0  0  0  0  0  0  0  0999 V2000
   59.1330   32.1170   49.0250 O   0  0  0  0  0  0  0  0  0  0  0  0
   59.2340   31.2880   48.0810 C   0  0  0  0  0  0  0  0  0  0  0  0
   60.3330   30.2670   48.1110 C   0  0  0  0  0  0  0  0  0  0  0  0
   59.9880   29.0660   47.2680 C   0  0  0  0  0  0  0  0  0  0  0  0
   60.2410   29.0760   45.8870 C   0  0  0  0  0  0  0  0  0  0  0  0
   59.8520   27.9930   45.0940 C   0  0  0  0  0  0  0  0  0  0  0  0
   59.2070   26.8970   45.6710 C   0  0  0  0  0  0  0  0  0  0  0  0
   58.9610   26.8670   47.0550 C   0  0  0  0  0  0  0  0  0  0  0  0
   58.2680   25.7730   47.6730 N   0  0  0  0  0  0  0  0  0  0  0  0
   57.3340   24.9020   47.0270 C   0  0  0  0  0  0  0  0  0  0  0  0
   57.3730   23.6680   47.2840 O   0  0  0  0  0  0  0  0  0  0  0  0
   56.4050   25.4040   46.0560 N   0  0  0  0  0  0  0  0  0  0  0  0
   55.2760   24.6150   45.5720 C   0  0  0  0  0  0  0  0  0  0  0  0
   55.7710   23.4510   44.7560 C   0  0  0  0  0  0  0  0  0  0  0  0
   55.8450   22.1650   45.3140 C   0  0  0  0  0  0  0  0  0  0  0  0
   56.2790   21.0830   44.5390 C   0  0  0  0  0  0  0  0  0  0  0  0
   56.6340   21.2790   43.2020 C   0  0  0  0  0  0  0  0  0  0  0  0
   56.5560   22.5550   42.6370 C   0  0  0  0  0  0  0  0  0  0  0  0
   56.1270   23.6390   43.4100 C   0  0  0  0  0  0  0  0  0  0  0  0
   59.3280   27.9650   47.8410 C   0  0  0  0  0  0  0  0  0  0  0  0
   58.2760   31.2800   47.0210 N   0  0  0  0  0  0  0  0  0  0  0  0
   57.9150   32.6700   46.0540 S   0  0  0  0  0  0  0  0  0  0  0  0
   56.6420   33.2990   46.5460 O   0  0  0  0  0  0  0  0  0  0  0  0
   59.0520   33.6470   46.1660 O   0  0  0  0  0  0  0  0  0  0  0  0
   57.7280   32.1800   44.3620 C   0  0  0  0  0  0  0  0  0  0  0  0
   58.2600   33.0120   43.3630 C   0  0  0  0  0  0  0  0  0  0  0  0
   58.0670   32.7150   42.0120 C   0  0  0  0  0  0  0  0  0  0  0  0
   57.3390   31.5860   41.6430 C   0  0  0  0  0  0  0  0  0  0  0  0
   56.8130   30.7420   42.6210 C   0  0  0  0  0  0  0  0  0  0  0  0
   57.0110   31.0130   43.9860 C   0  0  0  0  0  0  0  0  0  0  0  0
   56.4770   30.0980   44.9580 N   0  0  0  0  0  0  0  0  0  0  0  0
   57.2380   29.4340   45.6910 O   0  0  0  0  0  0  0  0  0  0  0  0
   55.1380   29.7790   44.9340 O   0  0  0  0  0  0  0  0  0  0  0  0
   61.2563   30.7229   47.7242 H   0  0  0  0  0  0  0  0  0  0  0  0
   60.4692   29.9340   49.1505 H   0  0  0  0  0  0  0  0  0  0  0  0
   60.7466   29.9384   45.4281 H   0  0  0  0  0  0  0  0  0  0  0  0
   60.0543   28.0039   44.0128 H   0  0  0  0  0  0  0  0  0  0  0  0
   58.8900   26.0536   45.0400 H   0  0  0  0  0  0  0  0  0  0  0  0
   56.5420   26.3640   45.6670 H   0  0  0  0  0  0  0  0  0  0  0  0
   54.7002   24.2389   46.4305 H   0  0  0  0  0  0  0  0  0  0  0  0
   54.6362   25.2504   44.9420 H   0  0  0  0  0  0  0  0  0  0  0  0
   55.5607   22.0068   46.3648 H   0  0  0  0  0  0  0  0  0  0  0  0
   56.3405   20.0784   44.9827 H   0  0  0  0  0  0  0  0  0  0  0  0
   56.9751   20.4284   42.5936 H   0  0  0  0  0  0  0  0  0  0  0  0
   56.8323   22.7070   41.5832 H   0  0  0  0  0  0  0  0  0  0  0  0
   56.0682   24.6421   42.9625 H   0  0  0  0  0  0  0  0  0  0  0  0
   59.0980   27.9666   48.9167 H   0  0  0  0  0  0  0  0  0  0  0  0
   58.8342   33.9061   43.6475 H   0  0  0  0  0  0  0  0  0  0  0  0
   58.4901   33.3730   41.2387 H   0  0  0  0  0  0  0  0  0  0  0  0
   57.1787   31.3598   40.5785 H   0  0  0  0  0  0  0  0  0  0  0  0
   56.2368   29.8544   42.3207 H   0  0  0  0  0  0  0  0  0  0  0  0
  1  2  2  0
  2  3  1  0
  3  4  1  0
  4  5  2  0
  5  6  1  0
  6  7  2  0
  7  8  1  0
  8  9  1  0
  9 10  1  0
 10 11  2  0
 10 12  1  0
 12 13  1  0
 13 14  1  0
 14 15  2  0
 15 16  1  0
 16 17  2  0
 17 18  1  0
 18 19  2  0
  8 20  2  0
  2 21  1  0
 21 22  1  0
 22 23  2  0
 22 24  2  0
 22 25  1  0
 25 26  2  0
 26 27  1  0
 27 28  2  0
 28 29  1  0
 29 30  2  0
 30 31  1  0
 31 32  2  0
 31 33  1  0
 20  4  1  0
 30 25  1  0
 19 14  1  0
  3 34  1  0
  3 35  1  0
  5 36  1  0
  6 37  1  0
  7 38  1  0
 12 39  1  0
 13 40  1  0
 13 41  1  0
 15 42  1  0
 16 43  1  0
 17 44  1  0
 18 45  1  0
 19 46  1  0
 20 47  1  0
 26 48  1  0
 27 49  1  0
 28 50  1  0
 29 51  1  0
M  CHG  4   9  -1  21  -1  31   1  33  -1
M  END
>  <UniqueID>  (33) 
31

>  <SMILES>  (33) 
O=C(Cc1cccc([N-]C(=O)NCc2ccccc2)c1)[N-]S(=O)(=O)c1ccccc1[N+](=O)[O-]

>  <Energy>  (33) 
61.556844825445815

>  <Genealogy>  (33) 
O=C(Cc1cccc([N-]C(=O)NCc2ccccc2)c1)[N-]S(=O)(=O)c1ccccc1[N+](=O)[O-] (protonated)
O=C(Cc1cccc([N-]C(=O)NCc2ccccc2)c1)[N-]S(=O)(=O)c1ccccc1[N+](=O)[O-] (3D coordinates assigned)
O=C(Cc1cccc([N-]C(=O)NCc2ccccc2)c1)[N-]S(=O)(=O)c1ccccc1[N+](=O)[O-] (optimized conformer: 61.556844825445815 kcal/mol)

>  <smiles>  (33) 
O=C(Cc1cccc(NC(=O)NCc2ccccc2)c1)NS(=O)(=O)c1ccccc1[N+](=O)[O-]

>  <score_type>  (33) 
oracle

>  <origin>  (33) 
adg

>  <m_score__min__energy>  (33) 
-13.09

>  <m_primary>  (33) 
energy

$$$$
33:0
     RDKit          3D

 39 41  0  0  0  0  0  0  0  0999 V2000
   57.6830   34.7000   44.7700 O   0  0  0  0  0  0  0  0  0  0  0  0
   57.9510   33.7690   45.5730 C   0  0  0  0  0  0  0  0  0  0  0  0
   57.1080   32.6120   45.5980 N   0  0  0  0  0  0  0  0  0  0  0  0
   57.6100   31.0090   45.1580 S   0  0  0  0  0  0  0  0  0  0  0  0
   58.4180   31.0750   43.8930 O   0  0  0  0  0  0  0  0  0  0  0  0
   56.3960   30.1620   44.8950 O   0  0  0  0  0  0  0  0  0  0  0  0
   58.5490   30.2670   46.4680 C   0  0  0  0  0  0  0  0  0  0  0  0
   58.8810   31.0650   47.5770 C   0  0  0  0  0  0  0  0  0  0  0  0
   59.6140   30.5420   48.6410 C   0  0  0  0  0  0  0  0  0  0  0  0
   60.0480   29.2210   48.6050 C   0  0  0  0  0  0  0  0  0  0  0  0
   59.7420   28.4140   47.5090 C   0  0  0  0  0  0  0  0  0  0  0  0
   58.9660   28.9060   46.4390 C   0  0  0  0  0  0  0  0  0  0  0  0
   58.7000   27.9980   45.2490 C   0  0  0  0  0  0  0  0  0  0  0  0
   57.5850   27.0090   45.5130 C   0  0  0  0  0  0  0  0  0  0  0  0
   56.2660   27.4610   45.6440 C   0  0  0  0  0  0  0  0  0  0  0  0
   55.2640   26.5820   45.8990 N   0  0  0  0  0  0  0  0  0  0  0  0
   55.5170   25.2550   46.0330 C   0  0  0  0  0  0  0  0  0  0  0  0
   54.5740   24.4550   46.2700 O   0  0  0  0  0  0  0  0  0  0  0  0
   56.7870   24.7890   45.9120 N   0  0  0  0  0  0  0  0  0  0  0  0
   57.8220   25.6300   45.6580 C   0  0  0  0  0  0  0  0  0  0  0  0
   58.9870   25.1610   45.5580 O   0  0  0  0  0  0  0  0  0  0  0  0
   59.1110   33.9110   46.4700 C   0  0  0  0  0  0  0  0  0  0  0  0
   58.9290   34.2500   47.8190 C   0  0  0  0  0  0  0  0  0  0  0  0
   60.0360   34.3980   48.6620 C   0  0  0  0  0  0  0  0  0  0  0  0
   61.3270   34.2010   48.1630 C   0  0  0  0  0  0  0  0  0  0  0  0
   61.5130   33.8430   46.8250 C   0  0  0  0  0  0  0  0  0  0  0  0
   60.4080   33.6900   45.9810 C   0  0  0  0  0  0  0  0  0  0  0  0
   58.5580   32.1161   47.6053 H   0  0  0  0  0  0  0  0  0  0  0  0
   59.8494   31.1744   49.5097 H   0  0  0  0  0  0  0  0  0  0  0  0
   60.6333   28.8121   49.4418 H   0  0  0  0  0  0  0  0  0  0  0  0
   60.1115   27.3784   47.4789 H   0  0  0  0  0  0  0  0  0  0  0  0
   58.4226   28.6203   44.3854 H   0  0  0  0  0  0  0  0  0  0  0  0
   59.6177   27.4234   45.0550 H   0  0  0  0  0  0  0  0  0  0  0  0
   56.0413   28.5327   45.5398 H   0  0  0  0  0  0  0  0  0  0  0  0
   57.9138   34.3998   48.2150 H   0  0  0  0  0  0  0  0  0  0  0  0
   59.8904   34.6695   49.7180 H   0  0  0  0  0  0  0  0  0  0  0  0
   62.1970   34.3279   48.8240 H   0  0  0  0  0  0  0  0  0  0  0  0
   62.5289   33.6814   46.4353 H   0  0  0  0  0  0  0  0  0  0  0  0
   60.5559   33.3958   44.9315 H   0  0  0  0  0  0  0  0  0  0  0  0
  1  2  2  0
  2  3  1  0
  3  4  1  0
  4  5  2  0
  4  6  2  0
  4  7  1  0
  7  8  2  0
  8  9  1  0
  9 10  2  0
 10 11  1  0
 11 12  2  0
 12 13  1  0
 13 14  1  0
 14 15  2  0
 15 16  1  0
 16 17  1  0
 17 18  2  0
 17 19  1  0
 19 20  1  0
 20 21  2  0
  2 22  1  0
 22 23  2  0
 23 24  1  0
 24 25  2  0
 25 26  1  0
 26 27  2  0
 12  7  1  0
 20 14  1  0
 27 22  1  0
  8 28  1  0
  9 29  1  0
 10 30  1  0
 11 31  1  0
 13 32  1  0
 13 33  1  0
 15 34  1  0
 23 35  1  0
 24 36  1  0
 25 37  1  0
 26 38  1  0
 27 39  1  0
M  CHG  3   3  -1  16  -1  19  -1
M  END
>  <UniqueID>  (34) 
32

>  <SMILES>  (34) 
O=C([N-]S(=O)(=O)c1ccccc1Cc1c[n-]c(=O)[n-]c1=O)c1ccccc1

>  <Energy>  (34) 
52.28076224833055

>  <Genealogy>  (34) 
O=C([N-]S(=O)(=O)c1ccccc1Cc1c[n-]c(=O)[n-]c1=O)c1ccccc1 (protonated)
O=C([N-]S(=O)(=O)c1ccccc1Cc1c[n-]c(=O)[n-]c1=O)c1ccccc1 (3D coordinates assigned)
O=C([N-]S(=O)(=O)c1ccccc1Cc1c[n-]c(=O)[n-]c1=O)c1ccccc1 (optimized conformer: 52.28076224833055 kcal/mol)

>  <smiles>  (34) 
O=C(NS(=O)(=O)c1ccccc1Cc1c[nH]c(=O)[nH]c1=O)c1ccccc1

>  <score_type>  (34) 
oracle

>  <origin>  (34) 
adg

>  <m_score__min__energy>  (34) 
-15.220000000000001

>  <m_primary>  (34) 
energy

$$$$
34:0
     RDKit          3D

 56 58  0  0  0  0  0  0  0  0999 V2000
   61.8200   31.5330   47.1200 C   0  0  0  0  0  0  0  0  0  0  0  0
   60.7610   30.5730   47.5960 C   0  0  0  0  0  0  0  0  0  0  0  0
   60.7020   29.2920   47.0150 C   0  0  0  0  0  0  0  0  0  0  0  0
   59.7810   28.3450   47.4720 C   0  0  0  0  0  0  0  0  0  0  0  0
   58.9090   28.6650   48.5120 C   0  0  0  0  0  0  0  0  0  0  0  0
   58.9330   29.9430   49.0780 C   0  0  0  0  0  0  0  0  0  0  0  0
   59.8270   30.9160   48.6080 C   0  0  0  0  0  0  0  0  0  0  0  0
   59.7660   32.2280   49.1910 N   0  0  0  0  0  0  0  0  0  0  0  0
   59.4580   33.4510   48.5080 C   0  0  0  0  0  0  0  0  0  0  0  0
   59.5280   34.5310   49.1560 O   0  0  0  0  0  0  0  0  0  0  0  0
   59.0280   33.4890   47.0860 C   0  0  0  0  0  0  0  0  0  0  0  0
   59.7180   34.3020   46.1710 C   0  0  0  0  0  0  0  0  0  0  0  0
   59.3350   34.3360   44.8280 C   0  0  0  0  0  0  0  0  0  0  0  0
   58.2510   33.5740   44.3870 C   0  0  0  0  0  0  0  0  0  0  0  0
   57.5250   32.7900   45.2890 C   0  0  0  0  0  0  0  0  0  0  0  0
   56.4390   31.9910   44.7930 N   0  0  0  0  0  0  0  0  0  0  0  0
   56.4730   30.5930   44.4770 C   0  0  0  0  0  0  0  0  0  0  0  0
   55.3940   29.9430   44.4870 O   0  0  0  0  0  0  0  0  0  0  0  0
   57.7610   29.8780   44.1650 C   0  0  0  0  0  0  0  0  0  0  0  0
   57.6280   28.3960   44.3970 C   0  0  0  0  0  0  0  0  0  0  0  0
   58.0620   27.4890   43.4200 C   0  0  0  0  0  0  0  0  0  0  0  0
   57.9550   26.1150   43.6380 C   0  0  0  0  0  0  0  0  0  0  0  0
   57.4130   25.6130   44.8380 C   0  0  0  0  0  0  0  0  0  0  0  0
   57.3420   24.1080   45.0080 C   0  0  0  0  0  0  0  0  0  0  0  0
   56.3210   23.4640   44.0510 C   0  0  0  0  0  0  0  0  0  0  0  0
   54.9160   24.0850   44.1360 C   0  0  0  0  0  0  0  0  0  0  0  0
   54.6080   24.6330   45.5000 C   0  0  0  0  0  0  0  0  0  0  0  0
   54.7800   23.9250   46.5260 O   0  0  0  0  0  0  0  0  0  0  0  0
   54.1960   25.9540   45.6410 O   0  0  0  0  0  0  0  0  0  0  0  0
   56.9910   26.5330   45.8360 C   0  0  0  0  0  0  0  0  0  0  0  0
   56.4550   26.1320   47.0640 O   0  0  0  0  0  0  0  0  0  0  0  0
   57.1060   27.9090   45.6040 C   0  0  0  0  0  0  0  0  0  0  0  0
   57.9260   32.7390   46.6360 C   0  0  0  0  0  0  0  0  0  0  0  0
   62.3205   31.9867   47.9881 H   0  0  0  0  0  0  0  0  0  0  0  0
   62.5596   30.9912   46.5122 H   0  0  0  0  0  0  0  0  0  0  0  0
   61.3531   32.3220   46.5122 H   0  0  0  0  0  0  0  0  0  0  0  0
   61.3870   29.0340   46.1939 H   0  0  0  0  0  0  0  0  0  0  0  0
   59.7441   27.3469   47.0110 H   0  0  0  0  0  0  0  0  0  0  0  0
   58.2015   27.9110   48.8874 H   0  0  0  0  0  0  0  0  0  0  0  0
   58.2441   30.1878   49.8999 H   0  0  0  0  0  0  0  0  0  0  0  0
   60.5644   34.9151   46.5141 H   0  0  0  0  0  0  0  0  0  0  0  0
   59.8890   34.9650   44.1156 H   0  0  0  0  0  0  0  0  0  0  0  0
   57.9668   33.5906   43.3245 H   0  0  0  0  0  0  0  0  0  0  0  0
   58.0239   30.0546   43.1116 H   0  0  0  0  0  0  0  0  0  0  0  0
   58.5464   30.2667   44.8298 H   0  0  0  0  0  0  0  0  0  0  0  0
   58.4888   27.8622   42.4774 H   0  0  0  0  0  0  0  0  0  0  0  0
   58.2983   25.4142   42.8627 H   0  0  0  0  0  0  0  0  0  0  0  0
   58.3355   23.6811   44.8062 H   0  0  0  0  0  0  0  0  0  0  0  0
   57.0192   23.8985   46.0385 H   0  0  0  0  0  0  0  0  0  0  0  0
   56.6898   23.5792   43.0211 H   0  0  0  0  0  0  0  0  0  0  0  0
   56.2244   22.4089   44.3468 H   0  0  0  0  0  0  0  0  0  0  0  0
   54.8477   24.9032   43.4040 H   0  0  0  0  0  0  0  0  0  0  0  0
   54.1868   23.2891   43.9244 H   0  0  0  0  0  0  0  0  0  0  0  0
   55.4950   25.8480   47.1960 H   0  0  0  0  0  0  0  0  0  0  0  0
   56.7822   28.6184   46.3798 H   0  0  0  0  0  0  0  0  0  0  0  0
   57.3723   32.1061   47.3451 H   0  0  0  0  0  0  0  0  0  0  0  0
  1  2  1  0
  2  3  2  0
  3  4  1  0
  4  5  2  0
  5  6  1  0
  6  7  2  0
  7  8  1  0
  8  9  1  0
  9 10  2  0
  9 11  1  0
 11 12  2  0
 12 13  1  0
 13 14  2  0
 14 15  1  0
 15 16  1  0
 16 17  1  0
 17 18  2  0
 17 19  1  0
 19 20  1  0
 20 21  2  0
 21 22  1  0
 22 23  2  0
 23 24  1  0
 24 25  1  0
 25 26  1  0
 26 27  1  0
 27 28  2  0
 27 29  1  0
 23 30  1  0
 30 31  1  0
 30 32  2  0
 15 33  2  0
  7  2  1  0
 33 11  1  0
 32 20  1  0
  1 34  1  0
  1 35  1  0
  1 36  1  0
  3 37  1  0
  4 38  1  0
  5 39  1  0
  6 40  1  0
 12 41  1  0
 13 42  1  0
 14 43  1  0
 19 44  1  0
 19 45  1  0
 21 46  1  0
 22 47  1  0
 24 48  1  0
 24 49  1  0
 25 50  1  0
 25 51  1  0
 26 52  1  0
 26 53  1  0
 31 54  1  0
 32 55  1  0
 33 56  1  0
M  CHG  3   8  -1  16  -1  29  -1
M  END
>  <UniqueID>  (35) 
33

>  <SMILES>  (35) 
Cc1ccccc1[N-]C(=O)c1cccc([N-]C(=O)Cc2ccc(CCCC(=O)[O-])c(O)c2)c1

>  <Energy>  (35) 
69.8694095300823

>  <Genealogy>  (35) 
Cc1ccccc1[N-]C(=O)c1cccc([N-]C(=O)Cc2ccc(CCCC(=O)[O-])c(O)c2)c1 (protonated)
Cc1ccccc1[N-]C(=O)c1cccc([N-]C(=O)Cc2ccc(CCCC(=O)[O-])c(O)c2)c1 (3D coordinates assigned)
Cc1ccccc1[N-]C(=O)c1cccc([N-]C(=O)Cc2ccc(CCCC(=O)[O-])c(O)c2)c1 (optimized conformer: 69.8694095300823 kcal/mol)

>  <smiles>  (35) 
Cc1ccccc1NC(=O)c1cccc(NC(=O)Cc2ccc(CCCC(=O)O)c(O)c2)c1

>  <score_type>  (35) 
oracle

>  <origin>  (35) 
adg

>  <m_score__min__energy>  (35) 
-14.800000000000001

>  <m_primary>  (35) 
energy

$$$$
35:0
     RDKit          3D

 43 45  0  0  0  0  0  0  0  0999 V2000
   62.6385   31.3975   49.3402 H   0  0  0  0  0  0  0  0  0  0  0  0
   62.1340   31.7010   48.4110 C   0  0  0  0  0  0  0  0  0  0  0  0
   60.9520   31.2230   47.8820 C   0  0  0  0  0  0  0  0  0  0  0  0
   60.0470   30.2180   48.5260 C   0  0  0  0  0  0  0  0  0  0  0  0
   60.2135   30.2319   49.6132 H   0  0  0  0  0  0  0  0  0  0  0  0
   59.0074   30.4855   48.2858 H   0  0  0  0  0  0  0  0  0  0  0  0
   60.3140   28.8030   47.9990 C   0  0  0  0  0  0  0  0  0  0  0  0
   61.3455   28.7528   47.6203 H   0  0  0  0  0  0  0  0  0  0  0  0
   60.1622   28.0952   48.8273 H   0  0  0  0  0  0  0  0  0  0  0  0
   59.3660   28.4320   46.8850 C   0  0  0  0  0  0  0  0  0  0  0  0
   58.8230   27.1440   46.8160 C   0  0  0  0  0  0  0  0  0  0  0  0
   59.0758   26.3948   47.5808 H   0  0  0  0  0  0  0  0  0  0  0  0
   57.9600   26.8170   45.7720 C   0  0  0  0  0  0  0  0  0  0  0  0
   57.5226   25.8091   45.7189 H   0  0  0  0  0  0  0  0  0  0  0  0
   57.6560   27.7370   44.8190 N   0  0  0  0  0  0  0  0  0  0  0  0
   57.0020   27.4590   44.0510 H   0  0  0  0  0  0  0  0  0  0  0  0
   58.1900   28.9950   44.8280 C   0  0  0  0  0  0  0  0  0  0  0  0
   57.8500   29.8220   43.8760 N   0  0  0  0  0  0  0  0  0  0  0  0
   57.1190   31.0520   43.9920 C   0  0  0  0  0  0  0  0  0  0  0  0
   55.9600   31.0720   44.4910 O   0  0  0  0  0  0  0  0  0  0  0  0
   57.7660   32.3340   43.5740 C   0  0  0  0  0  0  0  0  0  0  0  0
   58.6658   32.1121   42.9814 H   0  0  0  0  0  0  0  0  0  0  0  0
   57.0563   32.9171   42.9687 H   0  0  0  0  0  0  0  0  0  0  0  0
   58.1530   33.1320   44.7880 C   0  0  0  0  0  0  0  0  0  0  0  0
   59.0590   34.2020   44.6770 C   0  0  0  0  0  0  0  0  0  0  0  0
   59.4595   34.4824   43.6916 H   0  0  0  0  0  0  0  0  0  0  0  0
   59.4520   34.9110   45.8190 C   0  0  0  0  0  0  0  0  0  0  0  0
   60.1636   35.7451   45.7303 H   0  0  0  0  0  0  0  0  0  0  0  0
   58.9400   34.5590   47.0730 C   0  0  0  0  0  0  0  0  0  0  0  0
   59.2419   35.1233   47.9677 H   0  0  0  0  0  0  0  0  0  0  0  0
   58.0460   33.4920   47.1900 C   0  0  0  0  0  0  0  0  0  0  0  0
   57.6499   33.2130   48.1775 H   0  0  0  0  0  0  0  0  0  0  0  0
   57.6540   32.7780   46.0530 C   0  0  0  0  0  0  0  0  0  0  0  0
   56.9525   31.9362   46.1494 H   0  0  0  0  0  0  0  0  0  0  0  0
   59.0540   29.3620   45.8830 C   0  0  0  0  0  0  0  0  0  0  0  0
   59.4812   30.3750   45.9187 H   0  0  0  0  0  0  0  0  0  0  0  0
   60.6710   31.8670   46.7320 N   0  0  0  0  0  0  0  0  0  0  0  0
   61.6430   32.7070   46.5270 O   0  0  0  0  0  0  0  0  0  0  0  0
   62.5290   32.6500   47.4940 C   0  0  0  0  0  0  0  0  0  0  0  0
   63.7770   33.4650   47.5460 C   0  0  0  0  0  0  0  0  0  0  0  0
   64.0535   33.6456   48.5952 H   0  0  0  0  0  0  0  0  0  0  0  0
   64.5900   32.9233   47.0406 H   0  0  0  0  0  0  0  0  0  0  0  0
   63.6079   34.4272   47.0406 H   0  0  0  0  0  0  0  0  0  0  0  0
  1  2  1  0
  2  3  1  0
  3  4  1  0
  4  5  1  0
  4  6  1  0
  4  7  1  0
  7  8  1  0
  7  9  1  0
  7 10  1  0
 10 11  1  0
 11 12  1  0
 11 13  2  0
 13 14  1  0
 13 15  1  0
 15 16  1  0
 15 17  1  0
 17 18  2  0
 18 19  1  0
 19 20  2  0
 19 21  1  0
 21 22  1  0
 21 23  1  0
 21 24  1  0
 24 25  2  0
 25 26  1  0
 25 27  1  0
 27 28  1  0
 27 29  2  0
 29 30  1  0
 29 31  1  0
 31 32  1  0
 31 33  2  0
 33 34  1  0
 17 35  1  0
 35 36  1  0
  3 37  2  0
 37 38  1  0
 38 39  1  0
 39 40  1  0
 40 41  1  0
 40 42  1  0
 40 43  1  0
 39  2  2  0
 35 10  2  0
 33 24  1  0
M  END
>  <UniqueID>  (36) 
34

>  <SMILES>  (36) 
Cc1cc(CCc2cc[nH]/c(=N/C(=O)Cc3ccccc3)c2)no1

>  <Energy>  (36) 
75.69084916393639

>  <Genealogy>  (36) 
Cc1cc(CCc2cc[nH]/c(=N/C(=O)Cc3ccccc3)c2)no1 (cis-trans isomerization)
Cc1cc(CCc2cc[nH]/c(=N/C(=O)Cc3ccccc3)c2)no1 (3D coordinates assigned)
Cc1cc(CCc2cc[nH]/c(=N/C(=O)Cc3ccccc3)c2)no1 (optimized conformer: 75.69084916393639 kcal/mol)

>  <smiles>  (36) 
Cc1cc(CCc2cc[nH]c(=NC(=O)Cc3ccccc3)c2)no1

>  <score_type>  (36) 
oracle

>  <origin>  (36) 
adg

>  <m_score__min__energy>  (36) 
-9.2400000000000002

>  <m_primary>  (36) 
energy

$$$$
36:0
     RDKit          3D

 48 50  0  0  0  0  0  0  0  0999 V2000
   58.4900   34.7980   44.8350 C   0  0  0  0  0  0  0  0  0  0  0  0
   58.6070   34.0110   46.0770 N   0  0  0  0  0  0  0  0  0  0  0  0
   58.0600   32.7490   46.1580 C   0  0  0  0  0  0  0  0  0  0  0  0
   57.2910   32.1170   45.0220 C   0  0  0  0  0  0  0  0  0  0  0  0
   57.3840   30.6210   45.0770 C   0  0  0  0  0  0  0  0  0  0  0  0
   56.4980   29.9260   44.5070 O   0  0  0  0  0  0  0  0  0  0  0  0
   58.4810   29.9890   45.7570 N   0  0  0  0  0  0  0  0  0  0  0  0
   58.5890   28.5720   45.9700 C   0  0  0  0  0  0  0  0  0  0  0  0
   59.8470   28.0100   46.2300 C   0  0  0  0  0  0  0  0  0  0  0  0
   59.9780   26.6370   46.4550 C   0  0  0  0  0  0  0  0  0  0  0  0
   58.8490   25.8150   46.4370 C   0  0  0  0  0  0  0  0  0  0  0  0
   57.5810   26.3650   46.2090 C   0  0  0  0  0  0  0  0  0  0  0  0
   56.1530   25.3350   46.1970 S   0  0  0  0  0  0  0  0  0  0  0  0
   54.7440   26.3150   45.9970 N   0  0  0  0  0  0  0  0  0  0  0  0
   56.2390   24.3470   45.0670 O   0  0  0  0  0  0  0  0  0  0  0  0
   56.0630   24.5810   47.4940 O   0  0  0  0  0  0  0  0  0  0  0  0
   57.4530   27.7410   45.9780 C   0  0  0  0  0  0  0  0  0  0  0  0
   58.1640   32.0370   47.3130 N   0  0  0  0  0  0  0  0  0  0  0  0
   58.8070   32.5150   48.4070 C   0  0  0  0  0  0  0  0  0  0  0  0
   58.8840   31.7040   49.6010 N   0  0  0  0  0  0  0  0  0  0  0  0
   59.7870   30.5480   49.6750 C   0  0  0  0  0  0  0  0  0  0  0  0
   59.2650   29.5270   50.6900 C   0  0  0  0  0  0  0  0  0  0  0  0
   58.9810   30.1460   51.9280 O   0  0  0  0  0  0  0  0  0  0  0  0
   57.9090   31.0550   51.7660 C   0  0  0  0  0  0  0  0  0  0  0  0
   58.3160   32.2160   50.8550 C   0  0  0  0  0  0  0  0  0  0  0  0
   59.3680   33.7940   48.3480 C   0  0  0  0  0  0  0  0  0  0  0  0
   59.2570   34.5320   47.1700 C   0  0  0  0  0  0  0  0  0  0  0  0
   59.7620   35.6880   47.1340 O   0  0  0  0  0  0  0  0  0  0  0  0
   58.3325   35.8574   45.0857 H   0  0  0  0  0  0  0  0  0  0  0  0
   59.4135   34.6938   44.2465 H   0  0  0  0  0  0  0  0  0  0  0  0
   57.6367   34.4297   44.2465 H   0  0  0  0  0  0  0  0  0  0  0  0
   56.2344   32.4146   45.0933 H   0  0  0  0  0  0  0  0  0  0  0  0
   57.7247   32.4605   44.0712 H   0  0  0  0  0  0  0  0  0  0  0  0
   59.2990   30.5830   46.0230 H   0  0  0  0  0  0  0  0  0  0  0  0
   60.7377   28.6549   46.2571 H   0  0  0  0  0  0  0  0  0  0  0  0
   60.9707   26.2035   46.6464 H   0  0  0  0  0  0  0  0  0  0  0  0
   58.9558   24.7327   46.6023 H   0  0  0  0  0  0  0  0  0  0  0  0
   54.7980   27.0780   46.7080 H   0  0  0  0  0  0  0  0  0  0  0  0
   56.4577   28.1749   45.8017 H   0  0  0  0  0  0  0  0  0  0  0  0
   59.8510   30.0741   48.6844 H   0  0  0  0  0  0  0  0  0  0  0  0
   60.7818   30.8921   49.9944 H   0  0  0  0  0  0  0  0  0  0  0  0
   58.3457   29.0673   50.2980 H   0  0  0  0  0  0  0  0  0  0  0  0
   60.0396   28.7624   50.8491 H   0  0  0  0  0  0  0  0  0  0  0  0
   57.0534   30.5280   51.3186 H   0  0  0  0  0  0  0  0  0  0  0  0
   57.6359   31.4586   52.7522 H   0  0  0  0  0  0  0  0  0  0  0  0
   57.4303   32.8280   50.6292 H   0  0  0  0  0  0  0  0  0  0  0  0
   59.0738   32.8258   51.3688 H   0  0  0  0  0  0  0  0  0  0  0  0
   59.8907   34.2133   49.2203 H   0  0  0  0  0  0  0  0  0  0  0  0
  1  2  1  0
  2  3  1  0
  3  4  1  0
  4  5  1  0
  5  6  2  0
  5  7  1  0
  7  8  1  0
  8  9  2  0
  9 10  1  0
 10 11  2  0
 11 12  1  0
 12 13  1  0
 13 14  1  0
 13 15  2  0
 13 16  2  0
 12 17  2  0
  3 18  2  0
 18 19  1  0
 19 20  1  0
 20 21  1  0
 21 22  1  0
 22 23  1  0
 23 24  1  0
 24 25  1  0
 19 26  2  0
 26 27  1  0
 27 28  2  0
 27  2  1  0
 17  8  1  0
 25 20  1  0
  1 29  1  0
  1 30  1  0
  1 31  1  0
  4 32  1  0
  4 33  1  0
  7 34  1  0
  9 35  1  0
 10 36  1  0
 11 37  1  0
 14 38  1  0
 17 39  1  0
 21 40  1  0
 21 41  1  0
 22 42  1  0
 22 43  1  0
 24 44  1  0
 24 45  1  0
 25 46  1  0
 25 47  1  0
 26 48  1  0
M  CHG  1  14  -1
M  END
>  <UniqueID>  (37) 
35

>  <SMILES>  (37) 
Cn1c(CC(=O)Nc2cccc(S([NH-])(=O)=O)c2)nc(N2CCOCC2)cc1=O

>  <Energy>  (37) 
59.83115661348682

>  <Genealogy>  (37) 
Cn1c(CC(=O)Nc2cccc(S([NH-])(=O)=O)c2)nc(N2CCOCC2)cc1=O (protonated)
Cn1c(CC(=O)Nc2cccc(S([NH-])(=O)=O)c2)nc(N2CCOCC2)cc1=O (3D coordinates assigned)
Cn1c(CC(=O)Nc2cccc(S([NH-])(=O)=O)c2)nc(N2CCOCC2)cc1=O (nonaromatic ring conformer: 59.83115661348682 kcal/mol)

>  <smiles>  (37) 
Cn1c(CC(=O)Nc2cccc(S(N)(=O)=O)c2)nc(N2CCOCC2)cc1=O

>  <score_type>  (37) 
oracle

>  <origin>  (37) 
adg

>  <m_score__min__energy>  (37) 
-11.58

>  <m_primary>  (37) 
energy

$$$$
37:0
     RDKit          3D

 42 43  0  0  0  0  0  0  0  0999 V2000
   62.3300   33.4290   47.2650 C   0  0  0  0  0  0  0  0  0  0  0  0
   61.1940   33.0090   48.5930 S   0  0  0  0  0  0  0  0  0  0  0  0
   59.6770   33.9290   48.5080 C   0  0  0  0  0  0  0  0  0  0  0  0
   59.1350   33.9550   47.0770 C   0  0  0  0  0  0  0  0  0  0  0  0
   59.4350   34.9310   46.2610 C   0  0  0  0  0  0  0  0  0  0  0  0
   59.0390   34.9610   44.9730 C   0  0  0  0  0  0  0  0  0  0  0  0
   58.3510   33.9010   44.4700 C   0  0  0  0  0  0  0  0  0  0  0  0
   58.0980   32.7970   45.2940 C   0  0  0  0  0  0  0  0  0  0  0  0
   57.6770   31.3810   44.4440 S   0  0  0  0  0  0  0  0  0  0  0  0
   57.5110   31.8110   42.9770 O   0  0  0  0  0  0  0  0  0  0  0  0
   56.2710   30.9190   44.8150 O   0  0  0  0  0  0  0  0  0  0  0  0
   58.7220   30.1250   44.3520 N   0  0  0  0  0  0  0  0  0  0  0  0
   59.5400   29.9020   45.4660 C   0  0  0  0  0  0  0  0  0  0  0  0
   59.0940   28.9540   46.3690 C   0  0  0  0  0  0  0  0  0  0  0  0
   58.3580   27.7550   45.8990 C   0  0  0  0  0  0  0  0  0  0  0  0
   57.6060   27.0340   46.7660 C   0  0  0  0  0  0  0  0  0  0  0  0
   56.8750   25.9410   46.2980 C   0  0  0  0  0  0  0  0  0  0  0  0
   56.2390   25.1960   46.9740 O   0  0  0  0  0  0  0  0  0  0  0  0
   57.0020   25.7250   44.9410 N   0  0  0  0  0  0  0  0  0  0  0  0
   57.7690   26.4380   44.1770 C   0  0  0  0  0  0  0  0  0  0  0  0
   57.7820   26.3110   42.6380 C   0  0  0  0  0  0  0  0  0  0  0  0
   58.4980   27.4790   44.5730 N   0  0  0  0  0  0  0  0  0  0  0  0
   58.4580   32.8430   46.6040 C   0  0  0  0  0  0  0  0  0  0  0  0
   63.2805   33.7804   47.6929 H   0  0  0  0  0  0  0  0  0  0  0  0
   62.5138   32.5394   46.6447 H   0  0  0  0  0  0  0  0  0  0  0  0
   61.8909   34.2242   46.6447 H   0  0  0  0  0  0  0  0  0  0  0  0
   58.9325   33.4581   49.1668 H   0  0  0  0  0  0  0  0  0  0  0  0
   59.8738   34.9627   48.8287 H   0  0  0  0  0  0  0  0  0  0  0  0
   60.0390   35.7671   46.6434 H   0  0  0  0  0  0  0  0  0  0  0  0
   59.2687   35.8295   44.3383 H   0  0  0  0  0  0  0  0  0  0  0  0
   57.9975   33.9106   43.4284 H   0  0  0  0  0  0  0  0  0  0  0  0
   59.2020   29.9240   43.3620 H   0  0  0  0  0  0  0  0  0  0  0  0
   60.5258   29.5795   45.0998 H   0  0  0  0  0  0  0  0  0  0  0  0
   59.5522   30.8532   46.0184 H   0  0  0  0  0  0  0  0  0  0  0  0
   59.9814   28.5886   46.9065 H   0  0  0  0  0  0  0  0  0  0  0  0
   58.3339   29.5005   46.9466 H   0  0  0  0  0  0  0  0  0  0  0  0
   57.5721   27.3083   47.8307 H   0  0  0  0  0  0  0  0  0  0  0  0
   57.8903   25.2527   42.3583 H   0  0  0  0  0  0  0  0  0  0  0  0
   56.8390   26.7035   42.2297 H   0  0  0  0  0  0  0  0  0  0  0  0
   58.6259   26.8864   42.2297 H   0  0  0  0  0  0  0  0  0  0  0  0
   59.2240   27.9860   44.0790 H   0  0  0  0  0  0  0  0  0  0  0  0
   58.2151   32.0090   47.2789 H   0  0  0  0  0  0  0  0  0  0  0  0
  1  2  1  0
  2  3  1  0
  3  4  1  0
  4  5  2  0
  5  6  1  0
  6  7  2  0
  7  8  1  0
  8  9  1  0
  9 10  2  0
  9 11  2  0
  9 12  1  0
 12 13  1  0
 13 14  1  0
 14 15  1  0
 15 16  2  0
 16 17  1  0
 17 18  2  0
 17 19  1  0
 19 20  2  0
 20 21  1  0
 20 22  1  0
  8 23  2  0
 23  4  1  0
 22 15  1  0
  1 24  1  0
  1 25  1  0
  1 26  1  0
  3 27  1  0
  3 28  1  0
  5 29  1  0
  6 30  1  0
  7 31  1  0
 12 32  1  0
 13 33  1  0
 13 34  1  0
 14 35  1  0
 14 36  1  0
 16 37  1  0
 21 38  1  0
 21 39  1  0
 21 40  1  0
 22 41  1  0
 23 42  1  0
M  END
>  <smiles>  (38) 
CSCc1cccc(S(=O)(=O)NCCc2cc(=O)nc(C)[nH]2)c1

>  <score_type>  (38) 
oracle

>  <origin>  (38) 
adg

>  <m_score__min__energy>  (38) 
-8.4700000000000006

>  <m_primary>  (38) 
energy

$$$$
38:0
     RDKit          3D

 22 22  0  0  0  0  0  0  0  0999 V2000
   58.0000   26.7340   42.5660 C   0  0  0  0  0  0  0  0  0  0  0  0
   58.5040   27.5150   43.7790 C   0  0  0  0  0  0  0  0  0  0  0  0
   57.4110   28.3890   44.4200 C   0  0  0  0  0  0  0  0  0  0  0  0
   57.2700   28.2030   45.9410 C   0  0  0  0  0  0  0  0  0  0  0  0
   57.1850   26.7430   46.3360 C   0  0  0  0  0  0  0  0  0  0  0  0
   55.9530   26.0630   46.3630 C   0  0  0  0  0  0  0  0  0  0  0  0
   54.7750   26.7080   46.0060 O   0  0  0  0  0  0  0  0  0  0  0  0
   55.9050   24.7590   46.7390 N   0  0  0  0  0  0  0  0  0  0  0  0
   57.0290   24.0890   47.0960 C   0  0  0  0  0  0  0  0  0  0  0  0
   56.9590   22.8820   47.4400 O   0  0  0  0  0  0  0  0  0  0  0  0
   58.2300   24.7200   47.0800 N   0  0  0  0  0  0  0  0  0  0  0  0
   58.3340   26.0240   46.7120 C   0  0  0  0  0  0  0  0  0  0  0  0
   59.4680   26.5740   46.7090 O   0  0  0  0  0  0  0  0  0  0  0  0
   57.4327   25.8549   42.9058 H   0  0  0  0  0  0  0  0  0  0  0  0
   57.3476   27.3794   41.9596 H   0  0  0  0  0  0  0  0  0  0  0  0
   58.8569   26.4054   41.9596 H   0  0  0  0  0  0  0  0  0  0  0  0
   58.8686   26.7999   44.5311 H   0  0  0  0  0  0  0  0  0  0  0  0
   59.3044   28.1854   43.4328 H   0  0  0  0  0  0  0  0  0  0  0  0
   57.6517   29.4439   44.2217 H   0  0  0  0  0  0  0  0  0  0  0  0
   56.4547   28.0803   43.9725 H   0  0  0  0  0  0  0  0  0  0  0  0
   58.1439   28.6528   46.4349 H   0  0  0  0  0  0  0  0  0  0  0  0
   56.3357   28.6915   46.2547 H   0  0  0  0  0  0  0  0  0  0  0  0
  1  2  1  0
  2  3  1  0
  3  4  1  0
  4  5  1  0
  5  6  2  0
  6  7  1  0
  6  8  1  0
  8  9  1  0
  9 10  2  0
  9 11  1  0
 11 12  1  0
 12 13  2  0
 12  5  1  0
  1 14  1  0
  1 15  1  0
  1 16  1  0
  2 17  1  0
  2 18  1  0
  3 19  1  0
  3 20  1  0
  4 21  1  0
  4 22  1  0
M  CHG  3   7  -1   8  -1  11  -1
M  END
>  <UniqueID>  (39) 
36

>  <SMILES>  (39) 
CCCCc1c([O-])[n-]c(=O)[n-]c1=O

>  <Energy>  (39) 
17.3699893588393

>  <Genealogy>  (39) 
CCCCc1c([O-])[n-]c(=O)[n-]c1=O (protonated)
CCCCc1c([O-])[n-]c(=O)[n-]c1=O (3D coordinates assigned)
CCCCc1c([O-])[n-]c(=O)[n-]c1=O (optimized conformer: 17.3699893588393 kcal/mol)

>  <smiles>  (39) 
CCCCc1c(O)[nH]c(=O)[nH]c1=O

>  <score_type>  (39) 
oracle

>  <origin>  (39) 
adg

>  <m_score__min__energy>  (39) 
-14

>  <m_primary>  (39) 
energy

$$$$
39:0
     RDKit          3D

 43 45  0  0  1  0  0  0  0  0999 V2000
   57.7590   27.8740   43.2210 N   0  0  0  0  0  0  0  0  0  0  0  0
   58.2750   27.3690   44.7770 S   0  0  0  0  0  0  0  0  0  0  0  0
   57.2180   27.8010   45.7690 O   0  0  0  0  0  0  0  0  0  0  0  0
   58.3700   25.8800   44.9060 O   0  0  0  0  0  0  0  0  0  0  0  0
   59.7860   28.1780   45.2380 C   0  0  0  0  0  0  0  0  0  0  0  0
   59.8470   28.4900   46.6690 C   0  0  0  0  0  0  0  0  0  0  0  0
   60.3210   27.4840   47.5180 C   0  0  0  0  0  0  0  0  0  0  0  0
   60.3870   27.7500   48.8560 C   0  0  0  0  0  0  0  0  0  0  0  0
   60.0180   28.9490   49.4320 C   0  0  0  0  0  0  0  0  0  0  0  0
   59.5530   29.9330   48.5830 C   0  0  0  0  0  0  0  0  0  0  0  0
   59.1380   31.2170   49.0350 N   0  0  0  0  0  0  0  0  0  0  0  0
   59.1820   32.2420   48.2780 C   0  0  0  0  0  0  0  0  0  0  0  0
   60.1870   33.1320   48.5250 N   0  0  0  0  0  0  0  0  0  0  0  0
   60.3070   34.2570   47.7600 C   0  0  0  0  0  0  0  0  0  0  0  0
   59.3880   34.4590   46.7430 C   0  0  0  0  0  0  0  0  0  0  0  0
   58.3790   33.5320   46.5210 C   0  0  0  0  0  0  0  0  0  0  0  0
   57.5550   33.7770   45.5590 N   0  0  0  0  0  0  0  0  0  0  0  0
   57.3890   32.7650   44.5740 C   0  0  0  0  0  0  0  0  0  0  0  0
   57.9320   32.9540   43.3030 C   0  0  0  0  0  0  0  0  0  0  0  0
   57.7680   31.9660   42.3440 C   0  0  0  0  0  0  0  0  0  0  0  0
   57.0800   30.8380   42.6770 C   0  0  0  0  0  0  0  0  0  0  0  0
   56.5230   30.5970   43.9170 C   0  0  0  0  0  0  0  0  0  0  0  0
   55.8270   29.4410   44.2300 O   0  0  0  0  0  0  0  0  0  0  0  0
   56.6940   31.5960   44.8670 C   0  0  0  0  0  0  0  0  0  0  0  0
   58.2990   32.4370   47.2990 N   0  0  0  0  0  0  0  0  0  0  0  0
   59.4730   29.6970   47.2250 C   0  0  0  0  0  0  0  0  0  0  0  0
   58.1510   28.8100   42.9690 H   0  0  0  0  0  0  0  0  0  0  0  0
   56.7400   27.7940   43.0610 H   0  0  0  0  0  0  0  0  0  0  0  0
   60.6294   27.5186   44.9853 H   0  0  0  0  0  0  0  0  0  0  0  0
   59.8345   29.1295   44.6882 H   0  0  0  0  0  0  0  0  0  0  0  0
   60.6316   26.5070   47.1193 H   0  0  0  0  0  0  0  0  0  0  0  0
   60.7593   26.9553   49.5193 H   0  0  0  0  0  0  0  0  0  0  0  0
   60.0911   29.1127   50.5173 H   0  0  0  0  0  0  0  0  0  0  0  0
   60.8600   32.9670   49.2840 H   0  0  0  0  0  0  0  0  0  0  0  0
   61.1118   34.9834   47.9463 H   0  0  0  0  0  0  0  0  0  0  0  0
   59.4581   35.3560   46.1101 H   0  0  0  0  0  0  0  0  0  0  0  0
   58.4835   33.8754   43.0645 H   0  0  0  0  0  0  0  0  0  0  0  0
   58.1853   32.0905   41.3339 H   0  0  0  0  0  0  0  0  0  0  0  0
   56.9600   30.0651   41.9035 H   0  0  0  0  0  0  0  0  0  0  0  0
   56.2360   28.5170   44.1180 H   0  0  0  0  0  0  0  0  0  0  0  0
   56.2706   31.4598   45.8731 H   0  0  0  0  0  0  0  0  0  0  0  0
   57.5420   31.7350   47.1380 H   0  0  0  0  0  0  0  0  0  0  0  0
   59.0999   30.4949   46.5661 H   0  0  0  0  0  0  0  0  0  0  0  0
  1  2  1  0
  2  3  2  0
  2  4  2  0
  2  5  1  0
  5  6  1  0
  6  7  2  0
  7  8  1  0
  8  9  2  0
  9 10  1  0
 10 11  1  0
 11 12  2  0
 12 13  1  0
 13 14  1  0
 14 15  2  0
 15 16  1  0
 16 17  2  0
 17 18  1  0
 18 19  2  0
 19 20  1  0
 20 21  2  0
 21 22  1  0
 22 23  1  0
 22 24  2  0
 16 25  1  0
 10 26  2  0
 26  6  1  0
 25 12  1  0
 24 18  1  0
  1 27  1  0
  1 28  1  0
  5 29  1  0
  5 30  1  0
  7 31  1  0
  8 32  1  0
  9 33  1  0
 13 34  1  0
 14 35  1  0
 15 36  1  0
 19 37  1  0
 20 38  1  0
 21 39  1  0
 23 40  1  0
 24 41  1  0
 25 42  1  0
 26 43  1  0
M  END
>  <smiles>  (40) 
NS(=O)(=O)Cc1cccc(N=c2[nH]ccc(=Nc3cccc(O)c3)[nH]2)c1

>  <score_type>  (40) 
oracle

>  <origin>  (40) 
adg

>  <m_score__min__energy>  (40) 
-9.8200000000000003

>  <m_primary>  (40) 
energy

$$$$
40:0
     RDKit          3D

 55 58  0  0  0  0  0  0  0  0999 V2000
   60.3450   28.9150   44.5660 O   0  0  0  0  0  0  0  0  0  0  0  0
   59.4810   28.5910   45.4260 C   0  0  0  0  0  0  0  0  0  0  0  0
   59.9050   28.3700   46.8320 C   0  0  0  0  0  0  0  0  0  0  0  0
   60.1030   29.4800   47.6740 C   0  0  0  0  0  0  0  0  0  0  0  0
   60.4970   29.3040   49.0020 C   0  0  0  0  0  0  0  0  0  0  0  0
   60.6970   28.0190   49.5080 C   0  0  0  0  0  0  0  0  0  0  0  0
   60.5070   26.9070   48.6850 C   0  0  0  0  0  0  0  0  0  0  0  0
   60.1130   27.0710   47.3510 C   0  0  0  0  0  0  0  0  0  0  0  0
   59.9600   25.6270   46.3540 Cl  0  0  0  0  0  0  0  0  0  0  0  0
   58.1030   28.4230   45.0210 N   0  0  0  0  0  0  0  0  0  0  0  0
   57.1920   29.5410   45.0590 C   0  0  0  0  0  0  0  0  0  0  0  0
   55.9630   29.3350   45.2530 O   0  0  0  0  0  0  0  0  0  0  0  0
   57.6660   30.9330   44.8680 C   0  0  0  0  0  0  0  0  0  0  0  0
   57.7070   31.5060   43.5790 C   0  0  0  0  0  0  0  0  0  0  0  0
   57.2840   30.7740   42.4700 O   0  0  0  0  0  0  0  0  0  0  0  0
   58.1610   32.8230   43.4130 C   0  0  0  0  0  0  0  0  0  0  0  0
   58.5730   33.5710   44.5160 C   0  0  0  0  0  0  0  0  0  0  0  0
   58.5420   33.0080   45.7930 C   0  0  0  0  0  0  0  0  0  0  0  0
   58.0960   31.6960   45.9720 C   0  0  0  0  0  0  0  0  0  0  0  0
   58.1210   31.1610   47.2180 F   0  0  0  0  0  0  0  0  0  0  0  0
   57.5820   27.1070   44.7370 C   0  0  0  0  0  0  0  0  0  0  0  0
   57.9040   26.4520   43.5370 C   0  0  0  0  0  0  0  0  0  0  0  0
   57.3890   25.1830   43.2640 C   0  0  0  0  0  0  0  0  0  0  0  0
   56.5530   24.5460   44.1900 C   0  0  0  0  0  0  0  0  0  0  0  0
   55.9250   22.9330   43.8550 S   0  0  0  0  0  0  0  0  0  0  0  0
   54.8600   22.5980   44.8620 O   0  0  0  0  0  0  0  0  0  0  0  0
   55.2810   22.9380   42.4960 O   0  0  0  0  0  0  0  0  0  0  0  0
   57.1710   21.7020   43.8970 N   0  0  0  0  0  0  0  0  0  0  0  0
   56.8270   20.5800   44.7890 C   0  0  0  0  0  0  0  0  0  0  0  0
   57.1440   20.8670   46.2760 C   0  0  0  0  0  0  0  0  0  0  0  0
   57.8930   22.0510   46.4700 O   0  0  0  0  0  0  0  0  0  0  0  0
   58.9920   22.0670   45.5900 C   0  0  0  0  0  0  0  0  0  0  0  0
   58.5180   22.2600   44.1400 C   0  0  0  0  0  0  0  0  0  0  0  0
   56.2240   25.1990   45.3850 C   0  0  0  0  0  0  0  0  0  0  0  0
   56.7390   26.4680   45.6600 C   0  0  0  0  0  0  0  0  0  0  0  0
   59.9459   30.4958   47.2823 H   0  0  0  0  0  0  0  0  0  0  0  0
   60.6499   30.1795   49.6502 H   0  0  0  0  0  0  0  0  0  0  0  0
   61.0043   27.8820   50.5553 H   0  0  0  0  0  0  0  0  0  0  0  0
   60.6678   25.8958   49.0870 H   0  0  0  0  0  0  0  0  0  0  0  0
   57.6920   29.8760   42.2390 H   0  0  0  0  0  0  0  0  0  0  0  0
   58.1923   33.2682   42.4076 H   0  0  0  0  0  0  0  0  0  0  0  0
   58.9225   34.6050   44.3794 H   0  0  0  0  0  0  0  0  0  0  0  0
   58.8697   33.5990   46.6609 H   0  0  0  0  0  0  0  0  0  0  0  0
   58.5660   26.9417   42.8076 H   0  0  0  0  0  0  0  0  0  0  0  0
   57.6409   24.6816   42.3179 H   0  0  0  0  0  0  0  0  0  0  0  0
   55.7505   20.3746   44.6939 H   0  0  0  0  0  0  0  0  0  0  0  0
   57.4394   19.7188   44.4836 H   0  0  0  0  0  0  0  0  0  0  0  0
   56.1946   20.9608   46.8236 H   0  0  0  0  0  0  0  0  0  0  0  0
   57.7551   20.0306   46.6461 H   0  0  0  0  0  0  0  0  0  0  0  0
   59.6635   22.8939   45.8644 H   0  0  0  0  0  0  0  0  0  0  0  0
   59.5226   21.1065   45.6660 H   0  0  0  0  0  0  0  0  0  0  0  0
   58.4972   23.3371   43.9178 H   0  0  0  0  0  0  0  0  0  0  0  0
   59.2214   21.7215   43.4879 H   0  0  0  0  0  0  0  0  0  0  0  0
   55.5569   24.7101   46.1102 H   0  0  0  0  0  0  0  0  0  0  0  0
   56.4826   26.9694   46.6049 H   0  0  0  0  0  0  0  0  0  0  0  0
  1  2  2  0
  2  3  1  0
  3  4  2  0
  4  5  1  0
  5  6  2  0
  6  7  1  0
  7  8  2  0
  8  9  1  0
  2 10  1  0
 10 11  1  0
 11 12  2  0
 11 13  1  0
 13 14  2  0
 14 15  1  0
 14 16  1  0
 16 17  2  0
 17 18  1  0
 18 19  2  0
 19 20  1  0
 10 21  1  0
 21 22  2  0
 22 23  1  0
 23 24  2  0
 24 25  1  0
 25 26  2  0
 25 27  2  0
 25 28  1  0
 28 29  1  0
 29 30  1  0
 30 31  1  0
 31 32  1  0
 32 33  1  0
 24 34  1  0
 34 35  2  0
  8  3  1  0
 19 13  1  0
 35 21  1  0
 33 28  1  0
  4 36  1  0
  5 37  1  0
  6 38  1  0
  7 39  1  0
 15 40  1  0
 16 41  1  0
 17 42  1  0
 18 43  1  0
 22 44  1  0
 23 45  1  0
 29 46  1  0
 29 47  1  0
 30 48  1  0
 30 49  1  0
 32 50  1  0
 32 51  1  0
 33 52  1  0
 33 53  1  0
 34 54  1  0
 35 55  1  0
M  END
>  <UniqueID>  (41) 
37

>  <SMILES>  (41) 
O=C(c1ccccc1Cl)N(C(=O)c1c(O)cccc1F)c1ccc(S(=O)(=O)N2CCOCC2)cc1

>  <Energy>  (41) 
87.16950661453497

>  <Genealogy>  (41) 
O=C(c1ccccc1Cl)N(C(=O)c1c(O)cccc1F)c1ccc(S(=O)(=O)N2CCOCC2)cc1 (3D coordinates assigned)
O=C(c1ccccc1Cl)N(C(=O)c1c(O)cccc1F)c1ccc(S(=O)(=O)N2CCOCC2)cc1 (nonaromatic ring conformer: 87.16950661453497 kcal/mol)

>  <smiles>  (41) 
O=C(c1ccccc1Cl)N(C(=O)c1c(O)cccc1F)c1ccc(S(=O)(=O)N2CCOCC2)cc1

>  <score_type>  (41) 
oracle

>  <origin>  (41) 
adg

>  <m_score__min__energy>  (41) 
-9.5399999999999991

>  <m_primary>  (41) 
energy

$$$$
41:0
     RDKit          3D

 40 42  0  0  0  0  0  0  0  0999 V2000
   55.1320   29.3660   44.9550 O   0  0  0  0  0  0  0  0  0  0  0  0
   56.3370   29.3870   44.5890 C   0  0  0  0  0  0  0  0  0  0  0  0
   57.0680   28.1530   44.5610 N   0  0  0  0  0  0  0  0  0  0  0  0
   57.9300   27.6530   45.5950 C   0  0  0  0  0  0  0  0  0  0  0  0
   59.2280   28.1760   45.7480 C   0  0  0  0  0  0  0  0  0  0  0  0
   60.0650   27.7150   46.7640 C   0  0  0  0  0  0  0  0  0  0  0  0
   59.6250   26.7160   47.6300 C   0  0  0  0  0  0  0  0  0  0  0  0
   58.3520   26.1650   47.4740 C   0  0  0  0  0  0  0  0  0  0  0  0
   57.4930   26.6100   46.4510 C   0  0  0  0  0  0  0  0  0  0  0  0
   56.1850   26.0160   46.3100 N   0  0  0  0  0  0  0  0  0  0  0  0
   55.2020   26.7210   45.9990 O   0  0  0  0  0  0  0  0  0  0  0  0
   55.9720   24.6850   46.5890 O   0  0  0  0  0  0  0  0  0  0  0  0
   56.9830   30.6810   44.2730 C   0  0  0  0  0  0  0  0  0  0  0  0
   57.5000   30.9430   42.9970 C   0  0  0  0  0  0  0  0  0  0  0  0
   58.0830   32.1450   42.7430 N   0  0  0  0  0  0  0  0  0  0  0  0
   58.1740   33.1030   43.7040 C   0  0  0  0  0  0  0  0  0  0  0  0
   57.6500   32.8520   44.9860 C   0  0  0  0  0  0  0  0  0  0  0  0
   57.7080   33.7210   45.9530 N   0  0  0  0  0  0  0  0  0  0  0  0
   58.1840   33.4730   47.3110 C   0  0  0  0  0  0  0  0  0  0  0  0
   59.6580   33.1890   47.2730 C   0  0  0  0  0  0  0  0  0  0  0  0
   60.1530   31.9470   47.7040 C   0  0  0  0  0  0  0  0  0  0  0  0
   61.5210   31.6700   47.6300 C   0  0  0  0  0  0  0  0  0  0  0  0
   62.4020   32.6260   47.1160 C   0  0  0  0  0  0  0  0  0  0  0  0
   61.9150   33.8580   46.6690 C   0  0  0  0  0  0  0  0  0  0  0  0
   60.5470   34.1380   46.7420 C   0  0  0  0  0  0  0  0  0  0  0  0
   57.0670   31.6480   45.2240 N   0  0  0  0  0  0  0  0  0  0  0  0
   59.5856   28.9558   45.0596 H   0  0  0  0  0  0  0  0  0  0  0  0
   61.0727   28.1402   46.8817 H   0  0  0  0  0  0  0  0  0  0  0  0
   60.2818   26.3610   48.4378 H   0  0  0  0  0  0  0  0  0  0  0  0
   58.0156   25.3729   48.1591 H   0  0  0  0  0  0  0  0  0  0  0  0
   57.4346   30.1813   42.2061 H   0  0  0  0  0  0  0  0  0  0  0  0
   58.4710   32.3350   41.7920 H   0  0  0  0  0  0  0  0  0  0  0  0
   58.6538   34.0674   43.4809 H   0  0  0  0  0  0  0  0  0  0  0  0
   57.9960   34.3595   47.9345 H   0  0  0  0  0  0  0  0  0  0  0  0
   57.6520   32.6097   47.7374 H   0  0  0  0  0  0  0  0  0  0  0  0
   59.4613   31.1895   48.1013 H   0  0  0  0  0  0  0  0  0  0  0  0
   61.9047   30.6990   47.9765 H   0  0  0  0  0  0  0  0  0  0  0  0
   63.4791   32.4088   47.0632 H   0  0  0  0  0  0  0  0  0  0  0  0
   62.6084   34.6074   46.2597 H   0  0  0  0  0  0  0  0  0  0  0  0
   60.1656   35.1050   46.3823 H   0  0  0  0  0  0  0  0  0  0  0  0
  1  2  2  0
  2  3  1  0
  3  4  1  0
  4  5  2  0
  5  6  1  0
  6  7  2  0
  7  8  1  0
  8  9  2  0
  9 10  1  0
 10 11  2  0
 10 12  1  0
  2 13  1  0
 13 14  2  0
 14 15  1  0
 15 16  2  0
 16 17  1  0
 17 18  2  3
 18 19  1  0
 19 20  1  0
 20 21  2  0
 21 22  1  0
 22 23  2  0
 23 24  1  0
 24 25  2  0
 17 26  1  0
  9  4  1  0
 26 13  1  0
 25 20  1  0
  5 27  1  0
  6 28  1  0
  7 29  1  0
  8 30  1  0
 14 31  1  0
 15 32  1  0
 16 33  1  0
 19 34  1  0
 19 35  1  0
 21 36  1  0
 22 37  1  0
 23 38  1  0
 24 39  1  0
 25 40  1  0
M  CHG  5   3  -1  10   1  12  -1  15   1  26  -1
M  END
>  <UniqueID>  (42) 
38

>  <SMILES>  (42) 
O=C([N-]c1ccccc1[N+](=O)[O-])c1c[nH+]cc(=NCc2ccccc2)[n-]1

>  <Energy>  (42) 
53.39709312834153

>  <Genealogy>  (42) 
O=C([N-]c1ccccc1[N+](=O)[O-])c1c[nH+]cc(=NCc2ccccc2)[n-]1 (protonated)
O=C([N-]c1ccccc1[N+](=O)[O-])c1c[nH+]cc(=NCc2ccccc2)[n-]1 (3D coordinates assigned)
O=C([N-]c1ccccc1[N+](=O)[O-])c1c[nH+]cc(=NCc2ccccc2)[n-]1 (optimized conformer: 53.39709312834153 kcal/mol)

>  <smiles>  (42) 
O=C(Nc1ccccc1[N+](=O)[O-])c1cncc(=NCc2ccccc2)[nH]1

>  <score_type>  (42) 
oracle

>  <origin>  (42) 
adg

>  <m_score__min__energy>  (42) 
-11.880000000000001

>  <m_primary>  (42) 
energy

$$$$
42:0
     RDKit          3D

 46 48  0  0  0  0  0  0  0  0999 V2000
   55.8930   30.3830   43.2240 O   0  0  0  0  0  0  0  0  0  0  0  0
   56.4000   30.6240   44.3510 C   0  0  0  0  0  0  0  0  0  0  0  0
   57.0860   29.5140   45.1020 C   0  0  0  0  0  0  0  0  0  0  0  0
   56.1740   28.3920   45.3390 N   0  0  0  0  0  0  0  0  0  0  0  0
   56.6260   27.0750   45.7170 C   0  0  0  0  0  0  0  0  0  0  0  0
   58.0000   26.7630   45.7890 C   0  0  0  0  0  0  0  0  0  0  0  0
   58.4190   25.4820   46.1590 C   0  0  0  0  0  0  0  0  0  0  0  0
   57.4790   24.4970   46.4620 C   0  0  0  0  0  0  0  0  0  0  0  0
   56.1150   24.7910   46.3970 C   0  0  0  0  0  0  0  0  0  0  0  0
   55.6860   26.0710   46.0270 C   0  0  0  0  0  0  0  0  0  0  0  0
   54.3220   26.3350   45.9690 O   0  0  0  0  0  0  0  0  0  0  0  0
   56.2730   31.9440   44.8980 N   0  0  0  0  0  0  0  0  0  0  0  0
   57.3460   32.8010   45.3120 C   0  0  0  0  0  0  0  0  0  0  0  0
   57.8490   33.8090   44.4710 C   0  0  0  0  0  0  0  0  0  0  0  0
   58.8760   34.6440   44.9150 C   0  0  0  0  0  0  0  0  0  0  0  0
   59.3930   34.4970   46.2040 C   0  0  0  0  0  0  0  0  0  0  0  0
   58.8750   33.5200   47.0640 C   0  0  0  0  0  0  0  0  0  0  0  0
   59.5030   33.3560   48.7060 S   0  0  0  0  0  0  0  0  0  0  0  0
   58.5160   32.5840   49.5400 O   0  0  0  0  0  0  0  0  0  0  0  0
   59.6570   34.7220   49.3170 O   0  0  0  0  0  0  0  0  0  0  0  0
   61.0480   32.5370   48.7300 N   0  0  0  0  0  0  0  0  0  0  0  0
   61.2850   31.8480   47.4470 C   0  0  0  0  0  0  0  0  0  0  0  0
   62.7850   31.5730   47.2500 C   0  0  0  0  0  0  0  0  0  0  0  0
   63.5920   32.7440   47.2330 O   0  0  0  0  0  0  0  0  0  0  0  0
   63.0080   33.8550   47.8990 C   0  0  0  0  0  0  0  0  0  0  0  0
   62.1470   33.4520   49.1090 C   0  0  0  0  0  0  0  0  0  0  0  0
   57.8490   32.6750   46.6120 C   0  0  0  0  0  0  0  0  0  0  0  0
   57.9451   29.1599   44.5132 H   0  0  0  0  0  0  0  0  0  0  0  0
   57.4175   29.9050   46.0753 H   0  0  0  0  0  0  0  0  0  0  0  0
   55.1450   28.5570   45.2500 H   0  0  0  0  0  0  0  0  0  0  0  0
   58.7477   27.5343   45.5520 H   0  0  0  0  0  0  0  0  0  0  0  0
   59.4930   25.2500   46.2114 H   0  0  0  0  0  0  0  0  0  0  0  0
   57.8116   23.4894   46.7519 H   0  0  0  0  0  0  0  0  0  0  0  0
   55.3750   24.0135   46.6375 H   0  0  0  0  0  0  0  0  0  0  0  0
   57.4326   33.9400   43.4613 H   0  0  0  0  0  0  0  0  0  0  0  0
   59.2791   35.4199   44.2476 H   0  0  0  0  0  0  0  0  0  0  0  0
   60.2095   35.1504   46.5450 H   0  0  0  0  0  0  0  0  0  0  0  0
   60.7387   30.8932   47.4430 H   0  0  0  0  0  0  0  0  0  0  0  0
   60.9317   32.4917   46.6280 H   0  0  0  0  0  0  0  0  0  0  0  0
   63.1290   30.9281   48.0721 H   0  0  0  0  0  0  0  0  0  0  0  0
   62.8939   31.0980   46.2638 H   0  0  0  0  0  0  0  0  0  0  0  0
   63.8144   34.5166   48.2485 H   0  0  0  0  0  0  0  0  0  0  0  0
   62.3452   34.3566   47.1786 H   0  0  0  0  0  0  0  0  0  0  0  0
   62.7877   32.9496   49.8486 H   0  0  0  0  0  0  0  0  0  0  0  0
   61.6984   34.3662   49.5250 H   0  0  0  0  0  0  0  0  0  0  0  0
   57.4373   31.9081   47.2846 H   0  0  0  0  0  0  0  0  0  0  0  0
  1  2  2  0
  2  3  1  0
  3  4  1  0
  4  5  1  0
  5  6  2  0
  6  7  1  0
  7  8  2  0
  8  9  1  0
  9 10  2  0
 10 11  1  0
  2 12  1  0
 12 13  1  0
 13 14  2  0
 14 15  1  0
 15 16  2  0
 16 17  1  0
 17 18  1  0
 18 19  2  0
 18 20  2  0
 18 21  1  0
 21 22  1  0
 22 23  1  0
 23 24  1  0
 24 25  1  0
 25 26  1  0
 17 27  2  0
 10  5  1  0
 27 13  1  0
 26 21  1  0
  3 28  1  0
  3 29  1  0
  4 30  1  0
  6 31  1  0
  7 32  1  0
  8 33  1  0
  9 34  1  0
 14 35  1  0
 15 36  1  0
 16 37  1  0
 22 38  1  0
 22 39  1  0
 23 40  1  0
 23 41  1  0
 25 42  1  0
 25 43  1  0
 26 44  1  0
 26 45  1  0
 27 46  1  0
M  CHG  2  11  -1  12  -1
M  END
>  <UniqueID>  (43) 
39

>  <SMILES>  (43) 
O=C(CNc1ccccc1[O-])[N-]c1cccc(S(=O)(=O)N2CCOCC2)c1

>  <Energy>  (43) 
64.32822955846598

>  <Genealogy>  (43) 
O=C(CNc1ccccc1[O-])[N-]c1cccc(S(=O)(=O)N2CCOCC2)c1 (protonated)
O=C(CNc1ccccc1[O-])[N-]c1cccc(S(=O)(=O)N2CCOCC2)c1 (3D coordinates assigned)
O=C(CNc1ccccc1[O-])[N-]c1cccc(S(=O)(=O)N2CCOCC2)c1 (nonaromatic ring conformer: 64.32822955846598 kcal/mol)

>  <smiles>  (43) 
O=C(CNc1ccccc1O)Nc1cccc(S(=O)(=O)N2CCOCC2)c1

>  <score_type>  (43) 
oracle

>  <origin>  (43) 
adg

>  <m_score__min__energy>  (43) 
-14.800000000000001

>  <m_primary>  (43) 
energy

$$$$
43:0
     RDKit          3D

 25 26  0  0  0  0  0  0  0  0999 V2000
   59.8871   23.0940   45.5414 H   0  0  0  0  0  0  0  0  0  0  0  0
   58.9640   22.8930   44.9780 C   0  0  0  0  0  0  0  0  0  0  0  0
   57.9490   23.7960   44.9930 N   0  0  0  0  0  0  0  0  0  0  0  0
   56.7830   23.6020   44.3180 C   0  0  0  0  0  0  0  0  0  0  0  0
   55.8620   24.5220   44.4210 N   0  0  0  0  0  0  0  0  0  0  0  0
   55.1970   24.9880   45.6030 C   0  0  0  0  0  0  0  0  0  0  0  0
   54.4530   24.2000   46.2410 O   0  0  0  0  0  0  0  0  0  0  0  0
   55.3200   26.3470   46.0460 N   0  0  0  0  0  0  0  0  0  0  0  0
   56.4730   27.1790   45.8580 C   0  0  0  0  0  0  0  0  0  0  0  0
   57.7140   26.7250   46.3220 C   0  0  0  0  0  0  0  0  0  0  0  0
   57.7835   25.7532   46.8327 H   0  0  0  0  0  0  0  0  0  0  0  0
   58.8660   27.4980   46.1410 C   0  0  0  0  0  0  0  0  0  0  0  0
   60.4190   26.9040   46.6990 Cl  0  0  0  0  0  0  0  0  0  0  0  0
   58.7780   28.7430   45.5110 C   0  0  0  0  0  0  0  0  0  0  0  0
   59.6847   29.3467   45.3576 H   0  0  0  0  0  0  0  0  0  0  0  0
   57.5390   29.2210   45.0760 C   0  0  0  0  0  0  0  0  0  0  0  0
   57.4716   30.2045   44.5880 H   0  0  0  0  0  0  0  0  0  0  0  0
   56.3840   28.4530   45.2590 C   0  0  0  0  0  0  0  0  0  0  0  0
   55.1550   28.9750   44.8710 O   0  0  0  0  0  0  0  0  0  0  0  0
   56.6410   22.4340   43.5260 C   0  0  0  0  0  0  0  0  0  0  0  0
   55.5340   22.2130   42.7150 O   0  0  0  0  0  0  0  0  0  0  0  0
   57.6700   21.4870   43.5200 C   0  0  0  0  0  0  0  0  0  0  0  0
   57.5585   20.5607   42.9374 H   0  0  0  0  0  0  0  0  0  0  0  0
   58.8360   21.7120   44.2490 C   0  0  0  0  0  0  0  0  0  0  0  0
   59.6452   20.9669   44.2491 H   0  0  0  0  0  0  0  0  0  0  0  0
  1  2  1  0
  2  3  1  0
  3  4  1  0
  4  5  2  0
  5  6  1  0
  6  7  2  0
  6  8  1  0
  8  9  1  0
  9 10  2  0
 10 11  1  0
 10 12  1  0
 12 13  1  0
 12 14  2  0
 14 15  1  0
 14 16  1  0
 16 17  1  0
 16 18  2  0
 18 19  1  0
  4 20  1  0
 20 21  1  0
 20 22  2  0
 22 23  1  0
 22 24  1  0
 24 25  1  0
 24  2  2  0
 18  9  1  0
M  CHG  4   3  -1   8  -1  19  -1  21  -1
M  END
>  <UniqueID>  (44) 
40

>  <SMILES>  (44) 
O=C(/N=c1/[n-]cccc1[O-])[N-]c1cc(Cl)ccc1[O-]

>  <Energy>  (44) 
43.426213556751

>  <Genealogy>  (44) 
O=C(N=c1[n-]cccc1[O-])[N-]c1cc(Cl)ccc1[O-] (protonated)
O=C(/N=c1/[n-]cccc1[O-])[N-]c1cc(Cl)ccc1[O-] (cis-trans isomerization)
O=C(/N=c1/[n-]cccc1[O-])[N-]c1cc(Cl)ccc1[O-] (3D coordinates assigned)
O=C(/N=c1/[n-]cccc1[O-])[N-]c1cc(Cl)ccc1[O-] (optimized conformer: 43.426213556751 kcal/mol)

>  <smiles>  (44) 
O=C(N=c1[nH]cccc1O)Nc1cc(Cl)ccc1O

>  <score_type>  (44) 
oracle

>  <origin>  (44) 
adg

>  <m_score__min__energy>  (44) 
-15.59

>  <m_primary>  (44) 
energy

$$$$
44:0
     RDKit          3D

 23 24  0  0  0  0  0  0  0  0999 V2000
   57.3213   27.9155   43.9547 H   0  0  0  0  0  0  0  0  0  0  0  0
   57.1690   28.0400   45.0370 C   0  0  0  0  0  0  0  0  0  0  0  0
   56.9700   29.2450   45.4910 N   0  0  0  0  0  0  0  0  0  0  0  0
   57.3830   30.4840   44.8910 C   0  0  0  0  0  0  0  0  0  0  0  0
   57.3030   30.6960   43.5020 C   0  0  0  0  0  0  0  0  0  0  0  0
   56.9392   29.8921   42.8451 H   0  0  0  0  0  0  0  0  0  0  0  0
   57.6840   31.9240   42.9540 C   0  0  0  0  0  0  0  0  0  0  0  0
   57.6366   32.0787   41.8660 H   0  0  0  0  0  0  0  0  0  0  0  0
   58.1250   32.9550   43.7870 C   0  0  0  0  0  0  0  0  0  0  0  0
   58.4332   33.9179   43.3536 H   0  0  0  0  0  0  0  0  0  0  0  0
   58.1750   32.7640   45.1720 C   0  0  0  0  0  0  0  0  0  0  0  0
   58.7580   34.1810   46.3120 Br  0  0  0  0  0  0  0  0  0  0  0  0
   57.7940   31.5350   45.7210 C   0  0  0  0  0  0  0  0  0  0  0  0
   57.8173   31.3930   46.8115 H   0  0  0  0  0  0  0  0  0  0  0  0
   57.2030   26.8270   45.8870 C   0  0  0  0  0  0  0  0  0  0  0  0
   56.0250   26.2020   46.3310 C   0  0  0  0  0  0  0  0  0  0  0  0
   54.7760   26.6990   45.9760 O   0  0  0  0  0  0  0  0  0  0  0  0
   56.0990   25.0850   47.0990 N   0  0  0  0  0  0  0  0  0  0  0  0
   57.2970   24.5420   47.4340 C   0  0  0  0  0  0  0  0  0  0  0  0
   57.3410   23.5090   48.1510 O   0  0  0  0  0  0  0  0  0  0  0  0
   58.4480   25.1100   46.9920 N   0  0  0  0  0  0  0  0  0  0  0  0
   58.4280   26.2290   46.2240 C   0  0  0  0  0  0  0  0  0  0  0  0
   59.5160   26.7280   45.8300 O   0  0  0  0  0  0  0  0  0  0  0  0
  1  2  1  0
  2  3  2  0
  3  4  1  0
  4  5  2  0
  5  6  1  0
  5  7  1  0
  7  8  1  0
  7  9  2  0
  9 10  1  0
  9 11  1  0
 11 12  1  0
 11 13  2  0
 13 14  1  0
  2 15  1  0
 15 16  2  0
 16 17  1  0
 16 18  1  0
 18 19  1  0
 19 20  2  0
 19 21  1  0
 21 22  1  0
 22 23  2  0
 13  4  1  0
 22 15  1  0
M  CHG  3  17  -1  18  -1  21  -1
M  END
>  <UniqueID>  (45) 
41

>  <SMILES>  (45) 
O=c1[n-]c([O-])c(/C=N\c2cccc(Br)c2)c(=O)[n-]1

>  <Energy>  (45) 
38.486830095897496

>  <Genealogy>  (45) 
O=c1[n-]c([O-])c(C=Nc2cccc(Br)c2)c(=O)[n-]1 (protonated)
O=c1[n-]c([O-])c(/C=N\c2cccc(Br)c2)c(=O)[n-]1 (cis-trans isomerization)
O=c1[n-]c([O-])c(/C=N\c2cccc(Br)c2)c(=O)[n-]1 (3D coordinates assigned)
O=c1[n-]c([O-])c(/C=N\c2cccc(Br)c2)c(=O)[n-]1 (optimized conformer: 38.486830095897496 kcal/mol)

>  <smiles>  (45) 
O=c1[nH]c(O)c(C=Nc2cccc(Br)c2)c(=O)[nH]1

>  <score_type>  (45) 
oracle

>  <origin>  (45) 
adg

>  <m_score__min__energy>  (45) 
-14.56

>  <m_primary>  (45) 
energy

$$$$
45:0
     RDKit          3D

 44 46  0  0  0  0  0  0  0  0999 V2000
   60.1493   31.3787   48.4542 H   0  0  0  0  0  0  0  0  0  0  0  0
   59.5590   32.3050   48.5140 C   0  0  0  0  0  0  0  0  0  0  0  0
   59.1500   32.9360   47.2390 C   0  0  0  0  0  0  0  0  0  0  0  0
   59.8320   33.8780   46.7520 O   0  0  0  0  0  0  0  0  0  0  0  0
   57.9160   32.5820   46.6030 N   0  0  0  0  0  0  0  0  0  0  0  0
   57.7620   31.6810   45.4970 C   0  0  0  0  0  0  0  0  0  0  0  0
   57.7840   30.3010   45.7420 C   0  0  0  0  0  0  0  0  0  0  0  0
   57.9388   29.9293   46.7657 H   0  0  0  0  0  0  0  0  0  0  0  0
   57.6100   29.3940   44.6910 C   0  0  0  0  0  0  0  0  0  0  0  0
   57.6409   28.3122   44.8880 H   0  0  0  0  0  0  0  0  0  0  0  0
   57.3970   29.8610   43.3910 C   0  0  0  0  0  0  0  0  0  0  0  0
   57.2687   29.1471   42.5640 H   0  0  0  0  0  0  0  0  0  0  0  0
   57.3470   31.2360   43.1420 C   0  0  0  0  0  0  0  0  0  0  0  0
   57.1190   31.6890   41.8850 F   0  0  0  0  0  0  0  0  0  0  0  0
   57.5200   32.1450   44.1920 C   0  0  0  0  0  0  0  0  0  0  0  0
   57.4665   33.2260   43.9957 H   0  0  0  0  0  0  0  0  0  0  0  0
   59.2670   32.7730   49.7360 C   0  0  0  0  0  0  0  0  0  0  0  0
   59.6035   33.7910   49.9819 H   0  0  0  0  0  0  0  0  0  0  0  0
   58.5290   32.0300   50.7790 C   0  0  0  0  0  0  0  0  0  0  0  0
   58.5250   30.6250   50.8140 C   0  0  0  0  0  0  0  0  0  0  0  0
   59.1186   30.0583   50.0816 H   0  0  0  0  0  0  0  0  0  0  0  0
   57.7720   29.9440   51.7730 C   0  0  0  0  0  0  0  0  0  0  0  0
   57.8052   28.8453   51.8155 H   0  0  0  0  0  0  0  0  0  0  0  0
   56.9730   30.6540   52.6830 C   0  0  0  0  0  0  0  0  0  0  0  0
   56.1610   29.9480   53.6970 C   0  0  0  0  0  0  0  0  0  0  0  0
   56.6960   29.6370   54.7940 O   0  0  0  0  0  0  0  0  0  0  0  0
   54.7870   29.5940   53.4800 N   0  0  0  0  0  0  0  0  0  0  0  0
   54.0360   29.7310   52.2330 C   0  0  0  0  0  0  0  0  0  0  0  0
   54.7427   29.7617   51.3906 H   0  0  0  0  0  0  0  0  0  0  0  0
   53.3571   28.8705   52.1402 H   0  0  0  0  0  0  0  0  0  0  0  0
   53.1960   31.0130   52.2270 C   0  0  0  0  0  0  0  0  0  0  0  0
   52.5711   31.0314   53.1321 H   0  0  0  0  0  0  0  0  0  0  0  0
   53.8863   31.8690   52.1998 H   0  0  0  0  0  0  0  0  0  0  0  0
   52.3060   31.1010   51.0240 C   0  0  0  0  0  0  0  0  0  0  0  0
   52.3070   30.0120   49.7360 S   0  0  0  0  0  0  0  0  0  0  0  0
   51.0780   30.8330   48.9350 C   0  0  0  0  0  0  0  0  0  0  0  0
   50.6000   30.4860   47.8240 O   0  0  0  0  0  0  0  0  0  0  0  0
   50.6520   31.9200   49.6120 N   0  0  0  0  0  0  0  0  0  0  0  0
   51.3370   32.0710   50.7760 C   0  0  0  0  0  0  0  0  0  0  0  0
   51.0790   33.1250   51.6430 O   0  0  0  0  0  0  0  0  0  0  0  0
   56.9890   32.0580   52.6570 C   0  0  0  0  0  0  0  0  0  0  0  0
   56.4043   32.6251   53.3963 H   0  0  0  0  0  0  0  0  0  0  0  0
   57.7430   32.7390   51.6980 C   0  0  0  0  0  0  0  0  0  0  0  0
   57.7197   33.8382   51.6639 H   0  0  0  0  0  0  0  0  0  0  0  0
  1  2  1  0
  2  3  1  0
  3  4  2  0
  3  5  1  0
  5  6  1  0
  6  7  2  0
  7  8  1  0
  7  9  1  0
  9 10  1  0
  9 11  2  0
 11 12  1  0
 11 13  1  0
 13 14  1  0
 13 15  2  0
 15 16  1  0
  2 17  2  0
 17 18  1  0
 17 19  1  0
 19 20  2  0
 20 21  1  0
 20 22  1  0
 22 23  1  0
 22 24  2  0
 24 25  1  0
 25 26  2  0
 25 27  1  0
 27 28  1  0
 28 29  1  0
 28 30  1  0
 28 31  1  0
 31 32  1  0
 31 33  1  0
 31 34  1  0
 34 35  1  0
 35 36  1  0
 36 37  2  0
 36 38  1  0
 38 39  1  0
 39 40  1  0
 24 41  1  0
 41 42  1  0
 41 43  2  0
 43 44  1  0
 15  6  1  0
 43 19  1  0
 39 34  2  0
M  CHG  4   5  -1  27  -1  38  -1  40  -1
M  END
>  <UniqueID>  (46) 
42

>  <SMILES>  (46) 
O=C(/C=C\c1ccc(C(=O)[N-]CCc2sc(=O)[n-]c2[O-])cc1)[N-]c1cccc(F)c1

>  <Energy>  (46) 
88.53581132859266

>  <Genealogy>  (46) 
O=C(C=Cc1ccc(C(=O)[N-]CCc2sc(=O)[n-]c2[O-])cc1)[N-]c1cccc(F)c1 (protonated)
O=C(/C=C\c1ccc(C(=O)[N-]CCc2sc(=O)[n-]c2[O-])cc1)[N-]c1cccc(F)c1 (cis-trans isomerization)
O=C(/C=C\c1ccc(C(=O)[N-]CCc2sc(=O)[n-]c2[O-])cc1)[N-]c1cccc(F)c1 (3D coordinates assigned)
O=C(/C=C\c1ccc(C(=O)[N-]CCc2sc(=O)[n-]c2[O-])cc1)[N-]c1cccc(F)c1 (optimized conformer: 88.53581132859266 kcal/mol)

>  <smiles>  (46) 
O=C(C=Cc1ccc(C(=O)NCCc2sc(=O)[nH]c2O)cc1)Nc1cccc(F)c1

>  <score_type>  (46) 
oracle

>  <origin>  (46) 
adg

>  <m_score__min__energy>  (46) 
-18.489999999999998

>  <m_primary>  (46) 
energy

$$$$
46:0
     RDKit          3D

 47 49  0  0  0  0  0  0  0  0999 V2000
   55.1920   21.8360   47.4980 C   0  0  0  0  0  0  0  0  0  0  0  0
   56.9820   21.7280   47.1870 S   0  0  0  0  0  0  0  0  0  0  0  0
   56.8380   22.1280   45.4360 C   0  0  0  0  0  0  0  0  0  0  0  0
   57.0120   21.0900   44.5100 C   0  0  0  0  0  0  0  0  0  0  0  0
   56.8980   21.3350   43.1410 C   0  0  0  0  0  0  0  0  0  0  0  0
   56.6180   22.6220   42.6830 C   0  0  0  0  0  0  0  0  0  0  0  0
   56.4500   23.6680   43.5920 C   0  0  0  0  0  0  0  0  0  0  0  0
   56.5470   23.4370   44.9770 C   0  0  0  0  0  0  0  0  0  0  0  0
   56.3600   24.5750   45.9120 C   0  0  0  0  0  0  0  0  0  0  0  0
   55.2090   24.8340   46.3510 O   0  0  0  0  0  0  0  0  0  0  0  0
   57.4680   25.3400   46.4110 N   0  0  0  0  0  0  0  0  0  0  0  0
   57.7130   26.7410   46.2200 C   0  0  0  0  0  0  0  0  0  0  0  0
   58.9130   27.2830   46.6910 C   0  0  0  0  0  0  0  0  0  0  0  0
   59.1840   28.6480   46.5570 C   0  0  0  0  0  0  0  0  0  0  0  0
   60.4450   29.1470   47.0260 N   0  0  0  0  0  0  0  0  0  0  0  0
   60.6470   30.2720   47.8940 C   0  0  0  0  0  0  0  0  0  0  0  0
   60.9630   30.0900   49.1000 O   0  0  0  0  0  0  0  0  0  0  0  0
   60.5410   31.6500   47.3570 C   0  0  0  0  0  0  0  0  0  0  0  0
   61.6830   32.4620   47.2390 C   0  0  0  0  0  0  0  0  0  0  0  0
   61.5800   33.7630   46.7410 C   0  0  0  0  0  0  0  0  0  0  0  0
   60.3400   34.2690   46.3480 C   0  0  0  0  0  0  0  0  0  0  0  0
   59.1920   33.4690   46.4400 C   0  0  0  0  0  0  0  0  0  0  0  0
   57.8540   34.0290   46.0550 C   0  0  0  0  0  0  0  0  0  0  0  0
   59.2940   32.1670   46.9570 C   0  0  0  0  0  0  0  0  0  0  0  0
   58.2500   29.4780   45.9120 C   0  0  0  0  0  0  0  0  0  0  0  0
   57.0290   28.9540   45.4510 C   0  0  0  0  0  0  0  0  0  0  0  0
   56.0360   29.8270   44.7850 C   0  0  0  0  0  0  0  0  0  0  0  0
   56.3170   31.0250   44.5120 O   0  0  0  0  0  0  0  0  0  0  0  0
   54.7780   29.3370   44.4510 O   0  0  0  0  0  0  0  0  0  0  0  0
   56.7630   27.5870   45.6230 C   0  0  0  0  0  0  0  0  0  0  0  0
   55.0083   21.8471   48.5825 H   0  0  0  0  0  0  0  0  0  0  0  0
   54.7970   22.7596   47.0497 H   0  0  0  0  0  0  0  0  0  0  0  0
   54.6888   20.9666   47.0497 H   0  0  0  0  0  0  0  0  0  0  0  0
   57.2402   20.0743   44.8654 H   0  0  0  0  0  0  0  0  0  0  0  0
   57.0291   20.5123   42.4226 H   0  0  0  0  0  0  0  0  0  0  0  0
   56.5293   22.8133   41.6034 H   0  0  0  0  0  0  0  0  0  0  0  0
   56.2398   24.6825   43.2223 H   0  0  0  0  0  0  0  0  0  0  0  0
   59.6530   26.6271   47.1730 H   0  0  0  0  0  0  0  0  0  0  0  0
   62.6652   32.0696   47.5412 H   0  0  0  0  0  0  0  0  0  0  0  0
   62.4793   34.3910   46.6583 H   0  0  0  0  0  0  0  0  0  0  0  0
   60.2631   35.2974   45.9653 H   0  0  0  0  0  0  0  0  0  0  0  0
   57.2817   34.2685   46.9633 H   0  0  0  0  0  0  0  0  0  0  0  0
   57.9966   34.9430   45.4597 H   0  0  0  0  0  0  0  0  0  0  0  0
   57.3030   33.2860   45.4597 H   0  0  0  0  0  0  0  0  0  0  0  0
   58.3912   31.5455   47.0502 H   0  0  0  0  0  0  0  0  0  0  0  0
   58.4760   30.5447   45.7670 H   0  0  0  0  0  0  0  0  0  0  0  0
   55.8007   27.1733   45.2870 H   0  0  0  0  0  0  0  0  0  0  0  0
  1  2  1  0
  2  3  1  0
  3  4  2  0
  4  5  1  0
  5  6  2  0
  6  7  1  0
  7  8  2  0
  8  9  1  0
  9 10  2  0
  9 11  1  0
 11 12  1  0
 12 13  2  0
 13 14  1  0
 14 15  1  0
 15 16  1  0
 16 17  2  0
 16 18  1  0
 18 19  2  0
 19 20  1  0
 20 21  2  0
 21 22  1  0
 22 23  1  0
 22 24  2  0
 14 25  2  0
 25 26  1  0
 26 27  1  0
 27 28  2  0
 27 29  1  0
 26 30  2  0
  8  3  1  0
 30 12  1  0
 24 18  1  0
  1 31  1  0
  1 32  1  0
  1 33  1  0
  4 34  1  0
  5 35  1  0
  6 36  1  0
  7 37  1  0
 13 38  1  0
 19 39  1  0
 20 40  1  0
 21 41  1  0
 23 42  1  0
 23 43  1  0
 23 44  1  0
 24 45  1  0
 25 46  1  0
 30 47  1  0
M  CHG  3  11  -1  15  -1  29  -1
M  END
>  <UniqueID>  (47) 
43

>  <SMILES>  (47) 
CSc1ccccc1C(=O)[N-]c1cc([N-]C(=O)c2cccc(C)c2)cc(C(=O)[O-])c1

>  <Energy>  (47) 
58.32708622241064

>  <Genealogy>  (47) 
CSc1ccccc1C(=O)[N-]c1cc([N-]C(=O)c2cccc(C)c2)cc(C(=O)[O-])c1 (protonated)
CSc1ccccc1C(=O)[N-]c1cc([N-]C(=O)c2cccc(C)c2)cc(C(=O)[O-])c1 (3D coordinates assigned)
CSc1ccccc1C(=O)[N-]c1cc([N-]C(=O)c2cccc(C)c2)cc(C(=O)[O-])c1 (optimized conformer: 58.32708622241064 kcal/mol)

>  <smiles>  (47) 
CSc1ccccc1C(=O)Nc1cc(NC(=O)c2cccc(C)c2)cc(C(=O)O)c1

>  <score_type>  (47) 
oracle

>  <origin>  (47) 
adg

>  <m_score__min__energy>  (47) 
-13.57

>  <m_primary>  (47) 
energy

$$$$
47:0
     RDKit          3D

 60 63  0  0  0  0  0  0  0  0999 V2000
   58.2650   34.2180   46.0630 C   0  0  0  0  0  0  0  0  0  0  0  0
   58.9650   33.9700   47.3970 C   0  0  0  0  0  0  0  0  0  0  0  0
   58.4390   32.7280   48.1360 C   0  0  0  0  0  0  0  0  0  0  0  0
   59.5470   31.7750   48.6330 C   0  0  0  0  0  0  0  0  0  0  0  0
   59.6150   30.4000   47.9260 C   0  0  0  0  0  0  0  0  0  0  0  0
   60.1470   30.3720   46.4540 C   0  0  2  0  0  0  0  0  0  0  0  0
   61.3390   31.1230   46.4090 O   0  0  0  0  0  0  0  0  0  0  0  0
   59.1100   31.0430   45.5210 C   0  0  0  0  0  0  0  0  0  0  0  0
   57.8810   30.1950   45.3260 C   0  0  0  0  0  0  0  0  0  0  0  0
   56.8310   30.7610   44.9170 O   0  0  0  0  0  0  0  0  0  0  0  0
   57.9170   28.7200   45.5580 C   0  0  0  0  0  0  0  0  0  0  0  0
   59.1450   28.1050   45.8730 C   0  0  0  0  0  0  0  0  0  0  0  0
   59.2110   26.7130   46.0640 C   0  0  0  0  0  0  0  0  0  0  0  0
   60.4280   26.1570   46.4460 O   0  0  0  0  0  0  0  0  0  0  0  0
   58.0540   25.9060   45.9270 C   0  0  0  0  0  0  0  0  0  0  0  0
   58.1040   24.4830   46.0210 C   0  0  0  0  0  0  0  0  0  0  0  0
   59.3070   23.7710   45.9880 O   0  0  0  0  0  0  0  0  0  0  0  0
   56.9100   23.7420   46.1050 C   0  0  0  0  0  0  0  0  0  0  0  0
   56.9150   22.2450   46.3080 C   0  0  0  0  0  0  0  0  0  0  0  0
   57.2480   21.9320   47.6590 O   0  0  0  0  0  0  0  0  0  0  0  0
   56.7370   22.6320   48.7600 C   0  0  0  0  0  0  0  0  0  0  0  0
   57.3950   23.5800   49.2680 O   0  0  0  0  0  0  0  0  0  0  0  0
   55.4220   22.2540   49.3240 C   0  0  0  0  0  0  0  0  0  0  0  0
   54.2350   22.6170   48.6640 C   0  0  0  0  0  0  0  0  0  0  0  0
   52.9920   22.2620   49.1970 C   0  0  0  0  0  0  0  0  0  0  0  0
   52.9210   21.5430   50.3920 C   0  0  0  0  0  0  0  0  0  0  0  0
   54.0930   21.1780   51.0570 C   0  0  0  0  0  0  0  0  0  0  0  0
   55.3390   21.5290   50.5280 C   0  0  0  0  0  0  0  0  0  0  0  0
   55.6820   24.3910   45.9880 C   0  0  0  0  0  0  0  0  0  0  0  0
   55.6140   25.7630   45.7740 C   0  0  0  0  0  0  0  0  0  0  0  0
   54.3540   26.3330   45.6210 O   0  0  0  0  0  0  0  0  0  0  0  0
   56.7950   26.5430   45.7360 C   0  0  0  0  0  0  0  0  0  0  0  0
   56.7420   27.9420   45.5260 C   0  0  0  0  0  0  0  0  0  0  0  0
   55.5190   28.5670   45.2930 O   0  0  0  0  0  0  0  0  0  0  0  0
   60.4120   28.9370   45.9310 C   0  0  0  0  0  0  0  0  0  0  0  0
   57.2428   34.5802   46.2471 H   0  0  0  0  0  0  0  0  0  0  0  0
   58.8239   34.9728   45.4904 H   0  0  0  0  0  0  0  0  0  0  0  0
   58.2240   33.2797   45.4904 H   0  0  0  0  0  0  0  0  0  0  0  0
   60.0401   33.8349   47.2078 H   0  0  0  0  0  0  0  0  0  0  0  0
   58.7643   34.8410   48.0381 H   0  0  0  0  0  0  0  0  0  0  0  0
   57.8566   33.0646   49.0064 H   0  0  0  0  0  0  0  0  0  0  0  0
   57.8333   32.1614   47.4134 H   0  0  0  0  0  0  0  0  0  0  0  0
   60.5149   32.2775   48.4891 H   0  0  0  0  0  0  0  0  0  0  0  0
   59.3087   31.5602   49.6852 H   0  0  0  0  0  0  0  0  0  0  0  0
   60.2711   29.7525   48.5263 H   0  0  0  0  0  0  0  0  0  0  0  0
   58.5684   30.0693   47.8530 H   0  0  0  0  0  0  0  0  0  0  0  0
   62.1080   30.4950   46.3910 H   0  0  0  0  0  0  0  0  0  0  0  0
   58.8092   32.0053   45.9610 H   0  0  0  0  0  0  0  0  0  0  0  0
   59.5827   31.1802   44.5373 H   0  0  0  0  0  0  0  0  0  0  0  0
   60.2150   24.2160   45.9770 H   0  0  0  0  0  0  0  0  0  0  0  0
   55.9171   21.8438   46.0775 H   0  0  0  0  0  0  0  0  0  0  0  0
   57.6643   21.7949   45.6402 H   0  0  0  0  0  0  0  0  0  0  0  0
   54.2844   23.1838   47.7225 H   0  0  0  0  0  0  0  0  0  0  0  0
   52.0681   22.5497   48.6739 H   0  0  0  0  0  0  0  0  0  0  0  0
   51.9421   21.2643   50.8092 H   0  0  0  0  0  0  0  0  0  0  0  0
   54.0362   20.6131   51.9991 H   0  0  0  0  0  0  0  0  0  0  0  0
   56.2591   21.2371   51.0554 H   0  0  0  0  0  0  0  0  0  0  0  0
   54.7522   23.8085   46.0662 H   0  0  0  0  0  0  0  0  0  0  0  0
   61.1301   28.4425   46.6017 H   0  0  0  0  0  0  0  0  0  0  0  0
   60.8096   29.0183   44.9086 H   0  0  0  0  0  0  0  0  0  0  0  0
  1  2  1  0
  2  3  1  0
  3  4  1  0
  4  5  1  0
  5  6  1  0
  6  7  1  1
  6  8  1  0
  8  9  1  0
  9 10  2  0
  9 11  1  0
 11 12  2  0
 12 13  1  0
 13 14  1  0
 13 15  2  0
 15 16  1  0
 16 17  1  0
 16 18  2  0
 18 19  1  0
 19 20  1  0
 20 21  1  0
 21 22  2  0
 21 23  1  0
 23 24  2  0
 24 25  1  0
 25 26  2  0
 26 27  1  0
 27 28  2  0
 18 29  1  0
 29 30  2  0
 30 31  1  0
 30 32  1  0
 32 33  2  0
 33 34  1  0
 12 35  1  0
 35  6  1  0
 33 11  1  0
 32 15  1  0
 28 23  1  0
  1 36  1  0
  1 37  1  0
  1 38  1  0
  2 39  1  0
  2 40  1  0
  3 41  1  0
  3 42  1  0
  4 43  1  0
  4 44  1  0
  5 45  1  0
  5 46  1  0
  7 47  1  0
  8 48  1  0
  8 49  1  0
 17 50  1  0
 19 51  1  0
 19 52  1  0
 24 53  1  0
 25 54  1  0
 26 55  1  0
 27 56  1  0
 28 57  1  0
 29 58  1  0
 35 59  1  0
 35 60  1  0
M  CHG  3  14  -1  31  -1  34  -1
M  END
>  <UniqueID>  (48) 
44

>  <SMILES>  (48) 
CCCCC[C@]1(O)CC(=O)c2c(c([O-])c3c(O)c(COC(=O)c4ccccc4)cc([O-])c3c2[O-])C1

>  <Energy>  (48) 
84.73362089387415

>  <Genealogy>  (48) 
CCCCCC1(O)CC(=O)c2c(c([O-])c3c(O)c(COC(=O)c4ccccc4)cc([O-])c3c2[O-])C1 (protonated)
CCCCC[C@]1(O)CC(=O)c2c(c([O-])c3c(O)c(COC(=O)c4ccccc4)cc([O-])c3c2[O-])C1 (chirality)
CCCCC[C@]1(O)CC(=O)c2c(c([O-])c3c(O)c(COC(=O)c4ccccc4)cc([O-])c3c2[O-])C1 (3D coordinates assigned)
CCCCC[C@]1(O)CC(=O)c2c(c([O-])c3c(O)c(COC(=O)c4ccccc4)cc([O-])c3c2[O-])C1 (nonaromatic ring conformer: 84.73362089387415 kcal/mol)

>  <smiles>  (48) 
CCCCCC1(O)CC(=O)c2c(c(O)c3c(O)c(COC(=O)c4ccccc4)cc(O)c3c2O)C1

>  <score_type>  (48) 
oracle

>  <origin>  (48) 
adg

>  <m_score__min__energy>  (48) 
-16.100000000000001

>  <m_primary>  (48) 
energy

$$$$
48:0
     RDKit          3D

 40 42  0  0  1  0  0  0  0  0999 V2000
   59.8080   30.6050   47.9320 C   0  0  0  0  0  0  0  0  0  0  0  0
   60.4230   30.4820   46.6950 C   0  0  0  0  0  0  0  0  0  0  0  0
   60.2100   29.3800   45.9080 C   0  0  0  0  0  0  0  0  0  0  0  0
   59.3710   28.3660   46.3410 C   0  0  0  0  0  0  0  0  0  0  0  0
   59.1930   27.2030   45.4260 C   0  0  0  0  0  0  0  0  0  0  0  0
   57.7020   26.9560   45.2470 C   0  0  0  0  0  0  0  0  0  0  0  0
   57.0400   28.2190   44.8370 C   0  0  0  0  0  0  0  0  0  0  0  0
   57.5840   29.1690   43.9980 C   0  0  0  0  0  0  0  0  0  0  0  0
   56.5990   30.1590   43.9110 C   0  0  0  0  0  0  0  0  0  0  0  0
   56.7030   31.2390   43.2190 N   0  0  0  0  0  0  0  0  0  0  0  0
   57.9200   32.0370   43.1380 C   0  0  0  0  0  0  0  0  0  0  0  0
   58.1160   32.8290   44.3950 C   0  0  0  0  0  0  0  0  0  0  0  0
   59.0470   33.8590   44.4140 C   0  0  0  0  0  0  0  0  0  0  0  0
   59.1990   34.5700   45.5980 C   0  0  0  0  0  0  0  0  0  0  0  0
   58.4600   34.2760   46.7280 C   0  0  0  0  0  0  0  0  0  0  0  0
   57.5340   33.2460   46.7050 C   0  0  0  0  0  0  0  0  0  0  0  0
   57.3800   32.5430   45.5390 C   0  0  0  0  0  0  0  0  0  0  0  0
   55.5470   29.8180   44.6460 N   0  0  0  0  0  0  0  0  0  0  0  0
   55.8060   28.6400   45.2120 N   0  0  0  0  0  0  0  0  0  0  0  0
   58.7550   28.4710   47.5620 C   0  0  0  0  0  0  0  0  0  0  0  0
   58.9720   29.5850   48.3540 C   0  0  0  0  0  0  0  0  0  0  0  0
   59.9800   31.4903   48.5618 H   0  0  0  0  0  0  0  0  0  0  0  0
   61.0914   31.2804   46.3403 H   0  0  0  0  0  0  0  0  0  0  0  0
   60.7067   29.3005   44.9297 H   0  0  0  0  0  0  0  0  0  0  0  0
   59.6526   27.4235   44.4513 H   0  0  0  0  0  0  0  0  0  0  0  0
   59.6755   26.3105   45.8511 H   0  0  0  0  0  0  0  0  0  0  0  0
   57.5470   26.1916   44.4714 H   0  0  0  0  0  0  0  0  0  0  0  0
   57.2705   26.6059   46.1963 H   0  0  0  0  0  0  0  0  0  0  0  0
   58.5689   29.1522   43.5083 H   0  0  0  0  0  0  0  0  0  0  0  0
   58.7816   31.3686   42.9938 H   0  0  0  0  0  0  0  0  0  0  0  0
   57.8321   32.7328   42.2905 H   0  0  0  0  0  0  0  0  0  0  0  0
   59.6435   34.1036   43.5227 H   0  0  0  0  0  0  0  0  0  0  0  0
   59.9295   35.3915   45.6370 H   0  0  0  0  0  0  0  0  0  0  0  0
   58.6074   34.8611   47.6477 H   0  0  0  0  0  0  0  0  0  0  0  0
   56.9395   32.9996   47.5971 H   0  0  0  0  0  0  0  0  0  0  0  0
   56.6476   31.7229   45.5071 H   0  0  0  0  0  0  0  0  0  0  0  0
   54.6620   30.3610   44.7720 H   0  0  0  0  0  0  0  0  0  0  0  0
   55.1440   28.1410   45.8420 H   0  0  0  0  0  0  0  0  0  0  0  0
   58.0881   27.6693   47.9119 H   0  0  0  0  0  0  0  0  0  0  0  0
   58.4737   29.6612   49.3317 H   0  0  0  0  0  0  0  0  0  0  0  0
  1  2  2  0
  2  3  1  0
  3  4  2  0
  4  5  1  0
  5  6  1  0
  6  7  1  0
  7  8  2  0
  8  9  1  0
  9 10  2  0
 10 11  1  0
 11 12  1  0
 12 13  2  0
 13 14  1  0
 14 15  2  0
 15 16  1  0
 16 17  2  0
  9 18  1  0
 18 19  1  0
  4 20  1  0
 20 21  2  0
 21  1  1  0
 19  7  1  0
 17 12  1  0
  1 22  1  0
  2 23  1  0
  3 24  1  0
  5 25  1  0
  5 26  1  0
  6 27  1  0
  6 28  1  0
  8 29  1  0
 11 30  1  0
 11 31  1  0
 13 32  1  0
 14 33  1  0
 15 34  1  0
 16 35  1  0
 17 36  1  0
 18 37  1  0
 19 38  1  0
 20 39  1  0
 21 40  1  0
M  END
>  <smiles>  (49) 
c1ccc(CCc2cc(=NCc3ccccc3)[nH][nH]2)cc1

>  <score_type>  (49) 
oracle

>  <origin>  (49) 
adg

>  <m_score__min__energy>  (49) 
-8.2200000000000006

>  <m_primary>  (49) 
energy

$$$$
49:0
     RDKit          3D

 57 60  0  0  0  0  0  0  0  0999 V2000
   57.6790   27.0610   44.2890 O   0  0  0  0  0  0  0  0  0  0  0  0
   57.1520   27.4950   45.3460 C   0  0  0  0  0  0  0  0  0  0  0  0
   56.0040   28.3430   45.2520 N   0  0  0  0  0  0  0  0  0  0  0  0
   55.9840   29.6040   44.5140 C   0  0  0  0  0  0  0  0  0  0  0  0
   57.3880   29.9700   44.0170 C   0  0  0  0  0  0  0  0  0  0  0  0
   57.8140   31.3050   44.5470 C   0  0  0  0  0  0  0  0  0  0  0  0
   57.0550   32.4710   44.5090 C   0  0  0  0  0  0  0  0  0  0  0  0
   57.6140   33.5170   45.2500 C   0  0  0  0  0  0  0  0  0  0  0  0
   58.8100   33.1690   45.8670 C   0  0  0  0  0  0  0  0  0  0  0  0
   59.6990   34.1720   47.0050 S   0  0  0  0  0  0  0  0  0  0  0  0
   58.7520   34.6610   48.0680 O   0  0  0  0  0  0  0  0  0  0  0  0
   60.2550   35.3650   46.2780 O   0  0  0  0  0  0  0  0  0  0  0  0
   60.9880   33.2740   47.7750 N   0  0  0  0  0  0  0  0  0  0  0  0
   61.6430   34.0930   48.8130 C   0  0  0  0  0  0  0  0  0  0  0  0
   63.0340   33.5310   49.1470 C   0  0  0  0  0  0  0  0  0  0  0  0
   63.9280   33.4870   48.0410 O   0  0  0  0  0  0  0  0  0  0  0  0
   63.2800   33.4770   46.7770 C   0  0  0  0  0  0  0  0  0  0  0  0
   61.9360   32.7220   46.7830 C   0  0  0  0  0  0  0  0  0  0  0  0
   59.1750   31.5690   45.4990 S   0  0  0  0  0  0  0  0  0  0  0  0
   57.7270   27.2020   46.6280 N   0  0  0  0  0  0  0  0  0  0  0  0
   58.4400   28.1140   47.4770 C   0  0  0  0  0  0  0  0  0  0  0  0
   58.1550   29.4920   47.5040 C   0  0  0  0  0  0  0  0  0  0  0  0
   58.8770   30.3420   48.3500 C   0  0  0  0  0  0  0  0  0  0  0  0
   59.8880   29.8280   49.1790 C   0  0  0  0  0  0  0  0  0  0  0  0
   60.6680   30.7420   50.0850 C   0  0  0  0  0  0  0  0  0  0  0  0
   59.7370   31.6220   50.8720 C   0  0  0  0  0  0  0  0  0  0  0  0
   60.1080   32.9350   51.2020 C   0  0  0  0  0  0  0  0  0  0  0  0
   59.2390   33.7270   51.9580 C   0  0  0  0  0  0  0  0  0  0  0  0
   58.0450   33.2250   52.3730 N   0  0  0  0  0  0  0  0  0  0  0  0
   57.6630   31.9540   52.0740 C   0  0  0  0  0  0  0  0  0  0  0  0
   58.5030   31.1280   51.3230 C   0  0  0  0  0  0  0  0  0  0  0  0
   60.1990   28.4600   49.1170 C   0  0  0  0  0  0  0  0  0  0  0  0
   59.4820   27.6130   48.2670 C   0  0  0  0  0  0  0  0  0  0  0  0
   55.3106   29.5048   43.6499 H   0  0  0  0  0  0  0  0  0  0  0  0
   55.6312   30.3993   45.1870 H   0  0  0  0  0  0  0  0  0  0  0  0
   58.1008   29.2041   44.3565 H   0  0  0  0  0  0  0  0  0  0  0  0
   57.3692   30.0189   42.9182 H   0  0  0  0  0  0  0  0  0  0  0  0
   56.1106   32.5607   43.9522 H   0  0  0  0  0  0  0  0  0  0  0  0
   57.1545   34.5127   45.3358 H   0  0  0  0  0  0  0  0  0  0  0  0
   61.7483   35.1248   48.4465 H   0  0  0  0  0  0  0  0  0  0  0  0
   61.0248   34.0738   49.7226 H   0  0  0  0  0  0  0  0  0  0  0  0
   63.4826   34.1628   49.9278 H   0  0  0  0  0  0  0  0  0  0  0  0
   62.8840   32.4911   49.4728 H   0  0  0  0  0  0  0  0  0  0  0  0
   63.0939   34.5175   46.4725 H   0  0  0  0  0  0  0  0  0  0  0  0
   63.9445   32.9507   46.0760 H   0  0  0  0  0  0  0  0  0  0  0  0
   61.4843   32.7954   45.7827 H   0  0  0  0  0  0  0  0  0  0  0  0
   62.1383   31.6758   47.0559 H   0  0  0  0  0  0  0  0  0  0  0  0
   57.3636   29.9017   46.8592 H   0  0  0  0  0  0  0  0  0  0  0  0
   58.6515   31.4185   48.3658 H   0  0  0  0  0  0  0  0  0  0  0  0
   61.2684   30.1368   50.7801 H   0  0  0  0  0  0  0  0  0  0  0  0
   61.3242   31.3766   49.4713 H   0  0  0  0  0  0  0  0  0  0  0  0
   61.0756   33.3378   50.8681 H   0  0  0  0  0  0  0  0  0  0  0  0
   59.5213   34.7580   52.2177 H   0  0  0  0  0  0  0  0  0  0  0  0
   56.6911   31.5760   52.4241 H   0  0  0  0  0  0  0  0  0  0  0  0
   58.1994   30.0975   51.0867 H   0  0  0  0  0  0  0  0  0  0  0  0
   61.0097   28.0535   49.7395 H   0  0  0  0  0  0  0  0  0  0  0  0
   59.7384   26.5444   48.2183 H   0  0  0  0  0  0  0  0  0  0  0  0
  1  2  2  0
  2  3  1  0
  3  4  1  0
  4  5  1  0
  5  6  1  0
  6  7  2  0
  7  8  1  0
  8  9  2  0
  9 10  1  0
 10 11  2  0
 10 12  2  0
 10 13  1  0
 13 14  1  0
 14 15  1  0
 15 16  1  0
 16 17  1  0
 17 18  1  0
  9 19  1  0
  2 20  1  0
 20 21  1  0
 21 22  2  0
 22 23  1  0
 23 24  2  0
 24 25  1  0
 25 26  1  0
 26 27  2  0
 27 28  1  0
 28 29  2  0
 29 30  1  0
 30 31  2  0
 24 32  1  0
 32 33  2  0
 19  6  1  0
 33 21  1  0
 18 13  1  0
 31 26  1  0
  4 34  1  0
  4 35  1  0
  5 36  1  0
  5 37  1  0
  7 38  1  0
  8 39  1  0
 14 40  1  0
 14 41  1  0
 15 42  1  0
 15 43  1  0
 17 44  1  0
 17 45  1  0
 18 46  1  0
 18 47  1  0
 22 48  1  0
 23 49  1  0
 25 50  1  0
 25 51  1  0
 27 52  1  0
 28 53  1  0
 30 54  1  0
 31 55  1  0
 32 56  1  0
 33 57  1  0
M  CHG  2   3  -1  20  -1
M  END
>  <UniqueID>  (50) 
45

>  <SMILES>  (50) 
O=C([N-]CCc1ccc(S(=O)(=O)N2CCOCC2)s1)[N-]c1ccc(Cc2ccncc2)cc1

>  <Energy>  (50) 
95.41298270187626

>  <Genealogy>  (50) 
O=C([N-]CCc1ccc(S(=O)(=O)N2CCOCC2)s1)[N-]c1ccc(Cc2ccncc2)cc1 (protonated)
O=C([N-]CCc1ccc(S(=O)(=O)N2CCOCC2)s1)[N-]c1ccc(Cc2ccncc2)cc1 (3D coordinates assigned)
O=C([N-]CCc1ccc(S(=O)(=O)N2CCOCC2)s1)[N-]c1ccc(Cc2ccncc2)cc1 (nonaromatic ring conformer: 95.41298270187626 kcal/mol)

>  <smiles>  (50) 
O=C(NCCc1ccc(S(=O)(=O)N2CCOCC2)s1)Nc1ccc(Cc2ccncc2)cc1

>  <score_type>  (50) 
oracle

>  <origin>  (50) 
adg

>  <m_score__min__energy>  (50) 
-12.85

>  <m_primary>  (50) 
energy

$$$$
50:0
     RDKit          3D

 58 61  0  0  0  0  0  0  0  0999 V2000
   56.6660   34.5880   44.8790 C   0  0  0  0  0  0  0  0  0  0  0  0
   57.5490   33.4710   44.8960 O   0  0  0  0  0  0  0  0  0  0  0  0
   58.7710   33.4290   45.5870 C   0  0  0  0  0  0  0  0  0  0  0  0
   59.5250   34.5930   45.8320 C   0  0  0  0  0  0  0  0  0  0  0  0
   60.7450   34.5150   46.5090 C   0  0  0  0  0  0  0  0  0  0  0  0
   61.2430   33.2790   46.9380 C   0  0  0  0  0  0  0  0  0  0  0  0
   62.4970   33.2240   47.6380 N   0  0  0  0  0  0  0  0  0  0  0  0
   62.9920   32.0350   48.2780 C   0  0  0  0  0  0  0  0  0  0  0  0
   62.6380   30.9150   47.8270 O   0  0  0  0  0  0  0  0  0  0  0  0
   63.9660   32.1270   49.4070 C   0  0  0  0  0  0  0  0  0  0  0  0
   65.0050   33.0790   49.3240 C   0  0  0  0  0  0  0  0  0  0  0  0
   66.0210   33.1230   50.2800 C   0  0  0  0  0  0  0  0  0  0  0  0
   66.0250   32.2190   51.3360 C   0  0  0  0  0  0  0  0  0  0  0  0
   64.9930   31.2900   51.4610 C   0  0  0  0  0  0  0  0  0  0  0  0
   63.9340   31.2600   50.5390 C   0  0  0  0  0  0  0  0  0  0  0  0
   62.6040   30.0700   50.8420 S   0  0  0  0  0  0  0  0  0  0  0  0
   61.2710   31.2750   50.6500 C   0  0  0  0  0  0  0  0  0  0  0  0
   61.4260   32.5370   51.2440 C   0  0  0  0  0  0  0  0  0  0  0  0
   60.4310   33.5090   51.1190 C   0  0  0  0  0  0  0  0  0  0  0  0
   59.2630   33.2260   50.4110 C   0  0  0  0  0  0  0  0  0  0  0  0
   59.0800   31.9630   49.8430 C   0  0  0  0  0  0  0  0  0  0  0  0
   60.0710   30.9790   49.9660 C   0  0  0  0  0  0  0  0  0  0  0  0
   59.8010   29.6690   49.4310 C   0  0  0  0  0  0  0  0  0  0  0  0
   59.5910   28.6060   49.0220 N   0  0  0  0  0  0  0  0  0  0  0  0
   60.4820   32.1200   46.7160 C   0  0  0  0  0  0  0  0  0  0  0  0
   59.2510   32.1890   46.0460 C   0  0  0  0  0  0  0  0  0  0  0  0
   58.3220   30.7180   45.7540 S   0  0  0  0  0  0  0  0  0  0  0  0
   58.0700   30.0110   47.0580 O   0  0  0  0  0  0  0  0  0  0  0  0
   56.9910   31.1020   45.1650 O   0  0  0  0  0  0  0  0  0  0  0  0
   59.2460   29.7130   44.6520 N   0  0  0  0  0  0  0  0  0  0  0  0
   60.5190   29.2530   45.2400 C   0  0  0  0  0  0  0  0  0  0  0  0
   60.3400   28.0040   46.1290 C   0  0  0  0  0  0  0  0  0  0  0  0
   59.6480   26.9800   45.4440 O   0  0  0  0  0  0  0  0  0  0  0  0
   58.3570   27.4350   45.0930 C   0  0  0  0  0  0  0  0  0  0  0  0
   58.4600   28.5960   44.0950 C   0  0  0  0  0  0  0  0  0  0  0  0
   56.4310   34.8853   45.9116 H   0  0  0  0  0  0  0  0  0  0  0  0
   57.1471   35.4278   44.3561 H   0  0  0  0  0  0  0  0  0  0  0  0
   55.7379   34.3138   44.3561 H   0  0  0  0  0  0  0  0  0  0  0  0
   59.1515   35.5690   45.4885 H   0  0  0  0  0  0  0  0  0  0  0  0
   61.3188   35.4325   46.7065 H   0  0  0  0  0  0  0  0  0  0  0  0
   63.1400   34.0440   47.5560 H   0  0  0  0  0  0  0  0  0  0  0  0
   65.0141   33.7983   48.4918 H   0  0  0  0  0  0  0  0  0  0  0  0
   66.8201   33.8745   50.1976 H   0  0  0  0  0  0  0  0  0  0  0  0
   66.8419   32.2366   52.0725 H   0  0  0  0  0  0  0  0  0  0  0  0
   65.0084   30.5707   52.2931 H   0  0  0  0  0  0  0  0  0  0  0  0
   62.3397   32.7627   51.8134 H   0  0  0  0  0  0  0  0  0  0  0  0
   60.5685   34.4986   51.5793 H   0  0  0  0  0  0  0  0  0  0  0  0
   58.4864   33.9970   50.3000 H   0  0  0  0  0  0  0  0  0  0  0  0
   58.1524   31.7391   49.2957 H   0  0  0  0  0  0  0  0  0  0  0  0
   60.8547   31.1479   47.0710 H   0  0  0  0  0  0  0  0  0  0  0  0
   61.2167   29.0094   44.4252 H   0  0  0  0  0  0  0  0  0  0  0  0
   60.9070   30.0633   45.8747 H   0  0  0  0  0  0  0  0  0  0  0  0
   61.3312   27.6302   46.4252 H   0  0  0  0  0  0  0  0  0  0  0  0
   59.7509   28.2892   47.0131 H   0  0  0  0  0  0  0  0  0  0  0  0
   57.7928   26.6098   44.6341 H   0  0  0  0  0  0  0  0  0  0  0  0
   57.8397   27.7840   45.9989 H   0  0  0  0  0  0  0  0  0  0  0  0
   58.9481   28.2371   43.1769 H   0  0  0  0  0  0  0  0  0  0  0  0
   57.4445   28.9596   43.8791 H   0  0  0  0  0  0  0  0  0  0  0  0
  1  2  1  0
  2  3  1  0
  3  4  2  0
  4  5  1  0
  5  6  2  0
  6  7  1  0
  7  8  1  0
  8  9  2  0
  8 10  1  0
 10 11  2  0
 11 12  1  0
 12 13  2  0
 13 14  1  0
 14 15  2  0
 15 16  1  0
 16 17  1  0
 17 18  2  0
 18 19  1  0
 19 20  2  0
 20 21  1  0
 21 22  2  0
 22 23  1  0
 23 24  3  0
  6 25  1  0
 25 26  2  0
 26 27  1  0
 27 28  2  0
 27 29  2  0
 27 30  1  0
 30 31  1  0
 31 32  1  0
 32 33  1  0
 33 34  1  0
 34 35  1  0
 26  3  1  0
 35 30  1  0
 15 10  1  0
 22 17  1  0
  1 36  1  0
  1 37  1  0
  1 38  1  0
  4 39  1  0
  5 40  1  0
  7 41  1  0
 11 42  1  0
 12 43  1  0
 13 44  1  0
 14 45  1  0
 18 46  1  0
 19 47  1  0
 20 48  1  0
 21 49  1  0
 25 50  1  0
 31 51  1  0
 31 52  1  0
 32 53  1  0
 32 54  1  0
 34 55  1  0
 34 56  1  0
 35 57  1  0
 35 58  1  0
M  END
>  <UniqueID>  (51) 
46

>  <SMILES>  (51) 
COc1ccc(NC(=O)c2ccccc2Sc2ccccc2C#N)cc1S(=O)(=O)N1CCOCC1

>  <Energy>  (51) 
74.67231740628043

>  <Genealogy>  (51) 
COc1ccc(NC(=O)c2ccccc2Sc2ccccc2C#N)cc1S(=O)(=O)N1CCOCC1 (3D coordinates assigned)
COc1ccc(NC(=O)c2ccccc2Sc2ccccc2C#N)cc1S(=O)(=O)N1CCOCC1 (nonaromatic ring conformer: 74.67231740628043 kcal/mol)

>  <smiles>  (51) 
COc1ccc(NC(=O)c2ccccc2Sc2ccccc2C#N)cc1S(=O)(=O)N1CCOCC1

>  <score_type>  (51) 
oracle

>  <origin>  (51) 
adg

>  <m_score__min__energy>  (51) 
-9.2799999999999994

>  <m_primary>  (51) 
energy

$$$$
51:0
     RDKit          3D

 59 61  0  0  0  0  0  0  0  0999 V2000
   57.3422   30.5337   42.0135 H   0  0  0  0  0  0  0  0  0  0  0  0
   57.4220   31.1560   42.9170 C   0  0  0  0  0  0  0  0  0  0  0  0
   56.9100   30.6990   44.1380 C   0  0  0  0  0  0  0  0  0  0  0  0
   56.2670   29.3460   44.2450 C   0  0  0  0  0  0  0  0  0  0  0  0
   55.8160   29.0839   43.2766 H   0  0  0  0  0  0  0  0  0  0  0  0
   55.4969   29.3836   45.0295 H   0  0  0  0  0  0  0  0  0  0  0  0
   57.2590   28.3210   44.6080 N   0  0  0  0  0  0  0  0  0  0  0  0
   57.3040   27.8520   45.9720 C   0  0  0  0  0  0  0  0  0  0  0  0
   56.4010   27.0780   46.3940 O   0  0  0  0  0  0  0  0  0  0  0  0
   58.3940   28.2530   46.8910 C   0  0  0  0  0  0  0  0  0  0  0  0
   58.9750   27.3190   47.7580 C   0  0  0  0  0  0  0  0  0  0  0  0
   58.6286   26.2750   47.7475 H   0  0  0  0  0  0  0  0  0  0  0  0
   59.9900   27.7030   48.6350 C   0  0  0  0  0  0  0  0  0  0  0  0
   60.4389   26.9581   49.3085 H   0  0  0  0  0  0  0  0  0  0  0  0
   60.4450   29.0350   48.6660 C   0  0  0  0  0  0  0  0  0  0  0  0
   61.4570   29.4450   49.5490 O   0  0  0  0  0  0  0  0  0  0  0  0
   61.6210   28.9580   50.8770 C   0  0  0  0  0  0  0  0  0  0  0  0
   61.3546   29.7492   51.5932 H   0  0  0  0  0  0  0  0  0  0  0  0
   60.9664   28.0876   51.0318 H   0  0  0  0  0  0  0  0  0  0  0  0
   62.6687   28.6609   51.0318 H   0  0  0  0  0  0  0  0  0  0  0  0
   59.8630   29.9790   47.7940 C   0  0  0  0  0  0  0  0  0  0  0  0
   60.3620   31.6780   47.7840 S   0  0  0  0  0  0  0  0  0  0  0  0
   60.3900   32.2220   46.3820 O   0  0  0  0  0  0  0  0  0  0  0  0
   59.3610   32.4710   48.5770 O   0  0  0  0  0  0  0  0  0  0  0  0
   61.9430   31.8320   48.5150 N   0  0  0  0  0  0  0  0  0  0  0  0
   62.0380   31.0410   49.1940 H   0  0  0  0  0  0  0  0  0  0  0  0
   63.0200   31.7030   47.5020 C   0  0  0  0  0  0  0  0  0  0  0  0
   63.8034   31.0409   47.8993 H   0  0  0  0  0  0  0  0  0  0  0  0
   62.5753   31.2889   46.5851 H   0  0  0  0  0  0  0  0  0  0  0  0
   63.6490   33.0610   47.1520 C   0  0  0  0  0  0  0  0  0  0  0  0
   64.4397   32.8991   46.4046 H   0  0  0  0  0  0  0  0  0  0  0  0
   62.8462   33.7065   46.7662 H   0  0  0  0  0  0  0  0  0  0  0  0
   64.2170   33.7150   48.2780 O   0  0  0  0  0  0  0  0  0  0  0  0
   63.4840   33.5230   49.4830 C   0  0  0  0  0  0  0  0  0  0  0  0
   63.9882   32.7427   50.0720 H   0  0  0  0  0  0  0  0  0  0  0  0
   63.4591   34.4965   49.9944 H   0  0  0  0  0  0  0  0  0  0  0  0
   62.0190   33.0980   49.2740 C   0  0  0  0  0  0  0  0  0  0  0  0
   61.5402   32.9599   50.2546 H   0  0  0  0  0  0  0  0  0  0  0  0
   61.5021   33.8832   48.7027 H   0  0  0  0  0  0  0  0  0  0  0  0
   58.8350   29.5840   46.9270 C   0  0  0  0  0  0  0  0  0  0  0  0
   58.3675   30.3283   46.2655 H   0  0  0  0  0  0  0  0  0  0  0  0
   58.4000   28.0480   43.7160 C   0  0  0  0  0  0  0  0  0  0  0  0
   59.2811   27.8086   44.3294 H   0  0  0  0  0  0  0  0  0  0  0  0
   58.5742   28.9444   43.1027 H   0  0  0  0  0  0  0  0  0  0  0  0
   58.1220   26.8780   42.7740 C   0  0  0  0  0  0  0  0  0  0  0  0
   57.9074   25.9750   43.3643 H   0  0  0  0  0  0  0  0  0  0  0  0
   57.2554   27.1159   42.1397 H   0  0  0  0  0  0  0  0  0  0  0  0
   59.0030   26.7006   42.1397 H   0  0  0  0  0  0  0  0  0  0  0  0
   57.0270   31.4770   45.2490 N   0  0  0  0  0  0  0  0  0  0  0  0
   57.6170   32.7040   45.2260 C   0  0  0  0  0  0  0  0  0  0  0  0
   57.6840   33.3830   46.3360 N   0  0  0  0  0  0  0  0  0  0  0  0
   58.5350   34.5420   46.5840 C   0  0  0  0  0  0  0  0  0  0  0  0
   58.6445   34.6912   47.6683 H   0  0  0  0  0  0  0  0  0  0  0  0
   59.5250   34.3727   46.1353 H   0  0  0  0  0  0  0  0  0  0  0  0
   58.0771   35.4359   46.1353 H   0  0  0  0  0  0  0  0  0  0  0  0
   58.1350   33.1900   44.0090 C   0  0  0  0  0  0  0  0  0  0  0  0
   58.6154   34.1786   43.9668 H   0  0  0  0  0  0  0  0  0  0  0  0
   58.0340   32.4080   42.8580 C   0  0  0  0  0  0  0  0  0  0  0  0
   58.4370   32.7788   41.9040 H   0  0  0  0  0  0  0  0  0  0  0  0
  1  2  1  0
  2  3  2  0
  3  4  1  0
  4  5  1  0
  4  6  1  0
  4  7  1  0
  7  8  1  0
  8  9  2  0
  8 10  1  0
 10 11  2  0
 11 12  1  0
 11 13  1  0
 13 14  1  0
 13 15  2  0
 15 16  1  0
 16 17  1  0
 17 18  1  0
 17 19  1  0
 17 20  1  0
 15 21  1  0
 21 22  1  0
 22 23  2  0
 22 24  2  0
 22 25  1  0
 25 26  1  0
 25 27  1  0
 27 28  1  0
 27 29  1  0
 27 30  1  0
 30 31  1  0
 30 32  1  0
 30 33  1  0
 33 34  1  0
 34 35  1  0
 34 36  1  0
 34 37  1  0
 37 38  1  0
 37 39  1  0
 21 40  2  0
 40 41  1  0
  7 42  1  0
 42 43  1  0
 42 44  1  0
 42 45  1  0
 45 46  1  0
 45 47  1  0
 45 48  1  0
  3 49  1  0
 49 50  1  0
 50 51  2  0
 51 52  1  0
 52 53  1  0
 52 54  1  0
 52 55  1  0
 50 56  1  0
 56 57  1  0
 56 58  2  0
 58 59  1  0
 58  2  1  0
 40 10  1  0
 37 25  1  0
M  CHG  2  25   1  49  -1
M  END
>  <UniqueID>  (52) 
47

>  <SMILES>  (52) 
CCN(Cc1ccc/c(=N\C)[n-]1)C(=O)c1ccc(OC)c(S(=O)(=O)[NH+]2CCOCC2)c1

>  <Energy>  (52) 
75.59654100021427

>  <Genealogy>  (52) 
CCN(Cc1cccc(=NC)[n-]1)C(=O)c1ccc(OC)c(S(=O)(=O)[NH+]2CCOCC2)c1 (protonated)
CCN(Cc1ccc/c(=N\C)[n-]1)C(=O)c1ccc(OC)c(S(=O)(=O)[NH+]2CCOCC2)c1 (cis-trans isomerization)
CCN(Cc1ccc/c(=N\C)[n-]1)C(=O)c1ccc(OC)c(S(=O)(=O)[NH+]2CCOCC2)c1 (3D coordinates assigned)
CCN(Cc1ccc/c(=N\C)[n-]1)C(=O)c1ccc(OC)c(S(=O)(=O)[NH+]2CCOCC2)c1 (nonaromatic ring conformer: 75.59654100021427 kcal/mol)

>  <smiles>  (52) 
CCN(Cc1cccc(=NC)[nH]1)C(=O)c1ccc(OC)c(S(=O)(=O)N2CCOCC2)c1

>  <score_type>  (52) 
oracle

>  <origin>  (52) 
adg

>  <m_score__min__energy>  (52) 
-9.3699999999999992

>  <m_primary>  (52) 
energy

$$$$
52:0
     RDKit          3D

 22 23  0  0  0  0  0  0  0  0999 V2000
   57.7280   27.0370   47.3810 O   0  0  0  0  0  0  0  0  0  0  0  0
   57.1940   27.0060   46.2390 C   0  0  0  0  0  0  0  0  0  0  0  0
   56.7340   25.7080   45.6960 C   0  0  0  0  0  0  0  0  0  0  0  0
   57.6830   24.7350   45.3430 C   0  0  0  0  0  0  0  0  0  0  0  0
   57.2740   23.5030   44.8230 C   0  0  0  0  0  0  0  0  0  0  0  0
   55.9150   23.2230   44.6630 C   0  0  0  0  0  0  0  0  0  0  0  0
   55.5220   21.9930   44.1420 O   0  0  0  0  0  0  0  0  0  0  0  0
   54.9600   24.1790   45.0330 C   0  0  0  0  0  0  0  0  0  0  0  0
   55.3620   25.4130   45.5570 C   0  0  0  0  0  0  0  0  0  0  0  0
   54.3920   26.3230   45.9630 O   0  0  0  0  0  0  0  0  0  0  0  0
   57.0780   28.2180   45.4760 N   0  0  0  0  0  0  0  0  0  0  0  0
   58.0830   28.8380   44.8220 C   0  0  0  0  0  0  0  0  0  0  0  0
   57.5720   29.9420   44.1700 C   0  0  0  0  0  0  0  0  0  0  0  0
   56.2300   29.9110   44.4800 C   0  0  0  0  0  0  0  0  0  0  0  0
   55.3740   30.7440   44.0840 O   0  0  0  0  0  0  0  0  0  0  0  0
   55.9390   28.8600   45.2660 N   0  0  0  0  0  0  0  0  0  0  0  0
   58.7548   24.9432   45.4764 H   0  0  0  0  0  0  0  0  0  0  0  0
   58.0254   22.7515   44.5389 H   0  0  0  0  0  0  0  0  0  0  0  0
   55.5430   21.8090   43.1460 H   0  0  0  0  0  0  0  0  0  0  0  0
   53.8892   23.9587   44.9111 H   0  0  0  0  0  0  0  0  0  0  0  0
   59.1349   28.5166   44.8106 H   0  0  0  0  0  0  0  0  0  0  0  0
   58.1095   30.6740   43.5493 H   0  0  0  0  0  0  0  0  0  0  0  0
  1  2  2  0
  2  3  1  0
  3  4  2  0
  4  5  1  0
  5  6  2  0
  6  7  1  0
  6  8  1  0
  8  9  2  0
  9 10  1  0
  2 11  1  0
 11 12  1  0
 12 13  2  0
 13 14  1  0
 14 15  2  0
 14 16  1  0
  9  3  1  0
 16 11  1  0
  4 17  1  0
  5 18  1  0
  7 19  1  0
  8 20  1  0
 12 21  1  0
 13 22  1  0
M  CHG  2  10  -1  16  -1
M  END
>  <UniqueID>  (53) 
48

>  <SMILES>  (53) 
O=C(c1ccc(O)cc1[O-])n1ccc(=O)[n-]1

>  <Energy>  (53) 
59.06960617551534

>  <Genealogy>  (53) 
O=C(c1ccc(O)cc1[O-])n1ccc(=O)[n-]1 (protonated)
O=C(c1ccc(O)cc1[O-])n1ccc(=O)[n-]1 (3D coordinates assigned)
O=C(c1ccc(O)cc1[O-])n1ccc(=O)[n-]1 (optimized conformer: 59.06960617551534 kcal/mol)

>  <smiles>  (53) 
O=C(c1ccc(O)cc1O)n1ccc(=O)[nH]1

>  <score_type>  (53) 
oracle

>  <origin>  (53) 
adg

>  <m_score__min__energy>  (53) 
-11.98

>  <m_primary>  (53) 
energy

$$$$
53:0
     RDKit          3D

 34 35  0  0  0  0  0  0  0  0999 V2000
   61.6516   30.7712   47.9972 H   0  0  0  0  0  0  0  0  0  0  0  0
   61.1890   31.6460   47.5170 C   0  0  0  0  0  0  0  0  0  0  0  0
   59.8080   31.6740   47.3040 C   0  0  0  0  0  0  0  0  0  0  0  0
   59.1901   30.8177   47.6120 H   0  0  0  0  0  0  0  0  0  0  0  0
   59.2050   32.7870   46.7000 C   0  0  0  0  0  0  0  0  0  0  0  0
   57.7230   32.7990   46.4430 C   0  0  0  0  0  0  0  0  0  0  0  0
   57.2841   31.8590   46.8087 H   0  0  0  0  0  0  0  0  0  0  0  0
   57.2764   33.6550   46.9702 H   0  0  0  0  0  0  0  0  0  0  0  0
   57.4470   32.9350   44.9700 C   0  0  0  0  0  0  0  0  0  0  0  0
   57.4180   34.0820   44.4510 O   0  0  0  0  0  0  0  0  0  0  0  0
   57.3180   31.7860   44.1230 N   0  0  0  0  0  0  0  0  0  0  0  0
   56.8810   30.6160   44.4880 C   0  0  0  0  0  0  0  0  0  0  0  0
   57.6790   29.5470   44.8260 C   0  0  0  0  0  0  0  0  0  0  0  0
   59.1160   29.4990   44.8870 C   0  0  0  0  0  0  0  0  0  0  0  0
   60.2710   29.4600   44.9370 N   0  0  0  0  0  0  0  0  0  0  0  0
   56.7850   28.5270   45.0840 C   0  0  0  0  0  0  0  0  0  0  0  0
   57.1970   26.8550   45.5840 S   0  0  0  0  0  0  0  0  0  0  0  0
   57.9670   26.4450   43.9880 C   0  0  0  0  0  0  0  0  0  0  0  0
   58.9255   25.9346   44.1637 H   0  0  0  0  0  0  0  0  0  0  0  0
   57.2985   25.7834   43.4176 H   0  0  0  0  0  0  0  0  0  0  0  0
   58.1427   27.3690   43.4176 H   0  0  0  0  0  0  0  0  0  0  0  0
   55.5230   28.9650   44.8950 N   0  0  0  0  0  0  0  0  0  0  0  0
   55.5860   30.2370   44.5300 N   0  0  0  0  0  0  0  0  0  0  0  0
   54.7490   30.8060   44.2790 H   0  0  0  0  0  0  0  0  0  0  0  0
   60.0060   33.8660   46.2910 C   0  0  0  0  0  0  0  0  0  0  0  0
   59.5451   34.7358   45.8001 H   0  0  0  0  0  0  0  0  0  0  0  0
   61.3880   33.8380   46.5060 C   0  0  0  0  0  0  0  0  0  0  0  0
   62.0062   34.6914   46.1904 H   0  0  0  0  0  0  0  0  0  0  0  0
   61.9910   32.7340   47.1190 C   0  0  0  0  0  0  0  0  0  0  0  0
   63.3800   32.7550   47.3110 O   0  0  0  0  0  0  0  0  0  0  0  0
   64.0160   33.0660   48.5470 C   0  0  0  0  0  0  0  0  0  0  0  0
   63.3713   32.7507   49.3806 H   0  0  0  0  0  0  0  0  0  0  0  0
   64.9785   32.5369   48.6074 H   0  0  0  0  0  0  0  0  0  0  0  0
   64.1894   34.1506   48.6074 H   0  0  0  0  0  0  0  0  0  0  0  0
  1  2  1  0
  2  3  2  0
  3  4  1  0
  3  5  1  0
  5  6  1  0
  6  7  1  0
  6  8  1  0
  6  9  1  0
  9 10  2  0
  9 11  1  0
 11 12  2  0
 12 13  1  0
 13 14  1  0
 14 15  3  0
 13 16  2  0
 16 17  1  0
 17 18  1  0
 18 19  1  0
 18 20  1  0
 18 21  1  0
 16 22  1  0
 22 23  1  0
 23 24  1  0
  5 25  2  0
 25 26  1  0
 25 27  1  0
 27 28  1  0
 27 29  2  0
 29 30  1  0
 30 31  1  0
 31 32  1  0
 31 33  1  0
 31 34  1  0
 29  2  1  0
 23 12  1  0
M  CHG  1  22  -1
M  END
>  <UniqueID>  (54) 
49

>  <SMILES>  (54) 
COc1ccc(CC(=O)/N=c2\[nH][n-]c(SC)c2C#N)cc1

>  <Energy>  (54) 
66.88137885917428

>  <Genealogy>  (54) 
COc1ccc(CC(=O)N=c2[nH][n-]c(SC)c2C#N)cc1 (protonated)
COc1ccc(CC(=O)/N=c2\[nH][n-]c(SC)c2C#N)cc1 (cis-trans isomerization)
COc1ccc(CC(=O)/N=c2\[nH][n-]c(SC)c2C#N)cc1 (3D coordinates assigned)
COc1ccc(CC(=O)/N=c2\[nH][n-]c(SC)c2C#N)cc1 (optimized conformer: 66.88137885917428 kcal/mol)

>  <smiles>  (54) 
COc1ccc(CC(=O)N=c2[nH][nH]c(SC)c2C#N)cc1

>  <score_type>  (54) 
oracle

>  <origin>  (54) 
adg

>  <m_score__min__energy>  (54) 
-9.4800000000000004

>  <m_primary>  (54) 
energy

$$$$
54:0
     RDKit          3D

 34 35  0  0  0  0  0  0  0  0999 V2000
   57.6020   29.8530   46.3800 O   0  0  0  0  0  0  0  0  0  0  0  0
   57.0320   29.8100   45.2560 C   0  0  0  0  0  0  0  0  0  0  0  0
   56.6740   28.4920   44.6530 C   0  0  0  0  0  0  0  0  0  0  0  0
   57.1170   27.3880   45.5780 C   0  0  0  0  0  0  0  0  0  0  0  0
   58.4910   27.1480   45.7630 C   0  0  0  0  0  0  0  0  0  0  0  0
   58.9220   26.0820   46.5570 C   0  0  0  0  0  0  0  0  0  0  0  0
   57.9890   25.2440   47.1720 C   0  0  0  0  0  0  0  0  0  0  0  0
   56.6220   25.4660   46.9890 C   0  0  0  0  0  0  0  0  0  0  0  0
   56.1820   26.5260   46.1870 C   0  0  0  0  0  0  0  0  0  0  0  0
   54.8170   26.7090   45.9940 O   0  0  0  0  0  0  0  0  0  0  0  0
   56.6280   31.0170   44.6010 N   0  0  0  0  0  0  0  0  0  0  0  0
   57.0320   31.3660   43.2430 C   0  0  0  0  0  0  0  0  0  0  0  0
   58.0190   32.5330   43.2740 C   0  0  0  0  0  0  0  0  0  0  0  0
   57.6060   33.5080   44.2820 N   0  0  0  0  0  0  0  0  0  0  0  0
   58.2240   33.7820   45.3960 C   0  0  0  0  0  0  0  0  0  0  0  0
   59.2670   34.7170   45.3700 C   0  0  0  0  0  0  0  0  0  0  0  0
   59.9660   35.0080   46.5430 C   0  0  0  0  0  0  0  0  0  0  0  0
   59.6330   34.3910   47.7080 N   0  0  0  0  0  0  0  0  0  0  0  0
   58.6220   33.4850   47.7680 C   0  0  0  0  0  0  0  0  0  0  0  0
   57.8950   33.1640   46.6180 C   0  0  0  0  0  0  0  0  0  0  0  0
   55.5848   28.4368   44.5091 H   0  0  0  0  0  0  0  0  0  0  0  0
   57.1747   28.3823   43.6797 H   0  0  0  0  0  0  0  0  0  0  0  0
   59.2304   27.8035   45.2797 H   0  0  0  0  0  0  0  0  0  0  0  0
   59.9981   25.9025   46.6980 H   0  0  0  0  0  0  0  0  0  0  0  0
   58.3309   24.4087   47.8008 H   0  0  0  0  0  0  0  0  0  0  0  0
   55.8892   24.8061   47.4764 H   0  0  0  0  0  0  0  0  0  0  0  0
   57.5116   30.4959   42.7708 H   0  0  0  0  0  0  0  0  0  0  0  0
   56.1427   31.6608   42.6665 H   0  0  0  0  0  0  0  0  0  0  0  0
   59.0222   32.1556   43.5212 H   0  0  0  0  0  0  0  0  0  0  0  0
   58.0368   33.0183   42.2870 H   0  0  0  0  0  0  0  0  0  0  0  0
   59.5342   35.2200   44.4289 H   0  0  0  0  0  0  0  0  0  0  0  0
   60.7883   35.7384   46.5247 H   0  0  0  0  0  0  0  0  0  0  0  0
   58.3748   33.0024   48.7251 H   0  0  0  0  0  0  0  0  0  0  0  0
   57.0729   32.4348   46.6671 H   0  0  0  0  0  0  0  0  0  0  0  0
  1  2  2  0
  2  3  1  0
  3  4  1  0
  4  5  2  0
  5  6  1  0
  6  7  2  0
  7  8  1  0
  8  9  2  0
  9 10  1  0
  2 11  1  0
 11 12  1  0
 12 13  1  0
 13 14  1  0
 14 15  2  3
 15 16  1  0
 16 17  2  0
 17 18  1  0
 18 19  1  0
 19 20  2  0
  9  4  1  0
 20 15  1  0
  3 21  1  0
  3 22  1  0
  5 23  1  0
  6 24  1  0
  7 25  1  0
  8 26  1  0
 12 27  1  0
 12 28  1  0
 13 29  1  0
 13 30  1  0
 16 31  1  0
 17 32  1  0
 19 33  1  0
 20 34  1  0
M  CHG  3  10  -1  11  -1  18  -1
M  END
>  <UniqueID>  (55) 
50

>  <SMILES>  (55) 
O=C(Cc1ccccc1[O-])[N-]CCN=c1cc[n-]cc1

>  <Energy>  (55) 
28.774817972869133

>  <Genealogy>  (55) 
O=C(Cc1ccccc1[O-])[N-]CCN=c1cc[n-]cc1 (protonated)
O=C(Cc1ccccc1[O-])[N-]CCN=c1cc[n-]cc1 (3D coordinates assigned)
O=C(Cc1ccccc1[O-])[N-]CCN=c1cc[n-]cc1 (optimized conformer: 28.774817972869133 kcal/mol)

>  <smiles>  (55) 
O=C(Cc1ccccc1O)NCCN=c1cc[nH]cc1

>  <score_type>  (55) 
oracle

>  <origin>  (55) 
adg

>  <m_score__min__energy>  (55) 
-13.23

>  <m_primary>  (55) 
energy

$$$$
55:0
     RDKit          3D

 59 62  0  0  0  0  0  0  0  0999 V2000
   56.0340   26.6280   45.2590 H   0  0  0  0  0  0  0  0  0  0  0  0
   55.9210   27.5720   45.6110 O   0  0  0  0  0  0  0  0  0  0  0  0
   56.5070   28.6620   44.9730 C   0  0  0  0  0  0  0  0  0  0  0  0
   55.6950   29.6590   44.4230 C   0  0  0  0  0  0  0  0  0  0  0  0
   54.6006   29.5773   44.4982 H   0  0  0  0  0  0  0  0  0  0  0  0
   56.2680   30.7590   43.7780 C   0  0  0  0  0  0  0  0  0  0  0  0
   55.6230   31.5361   43.3420 H   0  0  0  0  0  0  0  0  0  0  0  0
   57.6640   30.8750   43.6850 C   0  0  0  0  0  0  0  0  0  0  0  0
   58.2810   32.0440   42.9590 C   0  0  0  0  0  0  0  0  0  0  0  0
   57.7830   32.1639   41.9856 H   0  0  0  0  0  0  0  0  0  0  0  0
   59.3541   31.8416   42.8265 H   0  0  0  0  0  0  0  0  0  0  0  0
   58.1310   33.3390   43.7570 C   0  0  0  0  0  0  0  0  0  0  0  0
   57.4247   34.0053   43.2402 H   0  0  0  0  0  0  0  0  0  0  0  0
   59.1132   33.8273   43.8397 H   0  0  0  0  0  0  0  0  0  0  0  0
   57.6270   33.0460   45.0980 N   0  0  0  0  0  0  0  0  0  0  0  0
   58.2450   33.1580   46.2440 C   0  0  0  0  0  0  0  0  0  0  0  0
   58.7990   34.3580   46.5410 N   0  0  0  0  0  0  0  0  0  0  0  0
   59.4530   34.5830   47.7030 C   0  0  0  0  0  0  0  0  0  0  0  0
   59.8930   35.5709   47.9040 H   0  0  0  0  0  0  0  0  0  0  0  0
   59.5700   33.5600   48.6490 C   0  0  0  0  0  0  0  0  0  0  0  0
   60.3040   33.8520   49.9360 C   0  0  0  0  0  0  0  0  0  0  0  0
   59.6609   33.5962   50.7910 H   0  0  0  0  0  0  0  0  0  0  0  0
   61.2249   33.2517   49.9772 H   0  0  0  0  0  0  0  0  0  0  0  0
   60.5609   34.9208   49.9772 H   0  0  0  0  0  0  0  0  0  0  0  0
   59.0410   32.3170   48.3710 N   0  0  0  0  0  0  0  0  0  0  0  0
   59.1490   31.2150   49.3530 C   0  0  0  0  0  0  0  0  0  0  0  0
   59.7513   31.5515   50.2097 H   0  0  0  0  0  0  0  0  0  0  0  0
   58.1386   30.9352   49.6860 H   0  0  0  0  0  0  0  0  0  0  0  0
   59.8060   30.0120   48.7270 C   0  0  0  0  0  0  0  0  0  0  0  0
   60.8570   30.1670   48.0520 O   0  0  0  0  0  0  0  0  0  0  0  0
   59.2450   28.6970   48.8400 N   0  0  0  0  0  0  0  0  0  0  0  0
   59.3500   27.6430   47.8730 C   0  0  0  0  0  0  0  0  0  0  0  0
   60.6100   27.3250   47.3520 C   0  0  0  0  0  0  0  0  0  0  0  0
   61.4962   27.8890   47.6785 H   0  0  0  0  0  0  0  0  0  0  0  0
   60.7460   26.2940   46.4190 C   0  0  0  0  0  0  0  0  0  0  0  0
   61.7353   26.0625   45.9974 H   0  0  0  0  0  0  0  0  0  0  0  0
   59.6280   25.5560   46.0200 C   0  0  0  0  0  0  0  0  0  0  0  0
   59.7361   24.7569   45.2718 H   0  0  0  0  0  0  0  0  0  0  0  0
   58.3660   25.8330   46.5730 C   0  0  0  0  0  0  0  0  0  0  0  0
   57.2180   25.1170   46.2010 O   0  0  0  0  0  0  0  0  0  0  0  0
   57.1770   24.0700   45.2690 C   0  0  0  0  0  0  0  0  0  0  0  0
   57.6640   22.7840   45.5700 C   0  0  0  0  0  0  0  0  0  0  0  0
   58.1062   22.5819   46.5567 H   0  0  0  0  0  0  0  0  0  0  0  0
   57.5870   21.7630   44.6180 C   0  0  0  0  0  0  0  0  0  0  0  0
   57.9790   20.7625   44.8532 H   0  0  0  0  0  0  0  0  0  0  0  0
   57.0130   22.0110   43.3680 C   0  0  0  0  0  0  0  0  0  0  0  0
   56.9564   21.2075   42.6189 H   0  0  0  0  0  0  0  0  0  0  0  0
   56.5110   23.2810   43.0710 C   0  0  0  0  0  0  0  0  0  0  0  0
   56.0556   23.4760   42.0888 H   0  0  0  0  0  0  0  0  0  0  0  0
   56.5870   24.3040   44.0210 C   0  0  0  0  0  0  0  0  0  0  0  0
   56.1807   25.2989   43.7865 H   0  0  0  0  0  0  0  0  0  0  0  0
   58.2330   26.8820   47.4910 C   0  0  0  0  0  0  0  0  0  0  0  0
   57.2451   27.1120   47.9167 H   0  0  0  0  0  0  0  0  0  0  0  0
   58.3630   32.1050   47.1900 C   0  0  0  0  0  0  0  0  0  0  0  0
   57.8490   30.9770   46.9570 O   0  0  0  0  0  0  0  0  0  0  0  0
   58.4780   29.8670   44.2300 C   0  0  0  0  0  0  0  0  0  0  0  0
   59.5725   29.9432   44.1503 H   0  0  0  0  0  0  0  0  0  0  0  0
   57.9010   28.7680   44.8730 C   0  0  0  0  0  0  0  0  0  0  0  0
   58.5428   27.9842   45.3017 H   0  0  0  0  0  0  0  0  0  0  0  0
  1  2  1  0
  2  3  1  0
  3  4  2  0
  4  5  1  0
  4  6  1  0
  6  7  1  0
  6  8  2  0
  8  9  1  0
  9 10  1  0
  9 11  1  0
  9 12  1  0
 12 13  1  0
 12 14  1  0
 12 15  1  0
 15 16  2  0
 16 17  1  0
 17 18  1  0
 18 19  1  0
 18 20  2  0
 20 21  1  0
 21 22  1  0
 21 23  1  0
 21 24  1  0
 20 25  1  0
 25 26  1  0
 26 27  1  0
 26 28  1  0
 26 29  1  0
 29 30  2  0
 29 31  1  0
 31 32  1  0
 32 33  2  0
 33 34  1  0
 33 35  1  0
 35 36  1  0
 35 37  2  0
 37 38  1  0
 37 39  1  0
 39 40  1  0
 40 41  1  0
 41 42  2  0
 42 43  1  0
 42 44  1  0
 44 45  1  0
 44 46  2  0
 46 47  1  0
 46 48  1  0
 48 49  1  0
 48 50  2  0
 50 51  1  0
 39 52  2  0
 52 53  1  0
 25 54  1  0
 54 55  2  0
  8 56  1  0
 56 57  1  0
 56 58  2  0
 58 59  1  0
 58  3  1  0
 54 16  1  0
 52 32  1  0
 50 41  1  0
M  CHG  2  17  -1  31  -1
M  END
>  <UniqueID>  (56) 
51

>  <SMILES>  (56) 
Cc1c[n-]/c(=N/CCc2ccc(O)cc2)c(=O)n1CC(=O)[N-]c1cccc(Oc2ccccc2)c1

>  <Energy>  (56) 
81.27477208250555

>  <Genealogy>  (56) 
Cc1c[n-]c(=NCCc2ccc(O)cc2)c(=O)n1CC(=O)[N-]c1cccc(Oc2ccccc2)c1 (protonated)
Cc1c[n-]/c(=N/CCc2ccc(O)cc2)c(=O)n1CC(=O)[N-]c1cccc(Oc2ccccc2)c1 (cis-trans isomerization)
Cc1c[n-]/c(=N/CCc2ccc(O)cc2)c(=O)n1CC(=O)[N-]c1cccc(Oc2ccccc2)c1 (3D coordinates assigned)
Cc1c[n-]/c(=N/CCc2ccc(O)cc2)c(=O)n1CC(=O)[N-]c1cccc(Oc2ccccc2)c1 (optimized conformer: 81.27477208250555 kcal/mol)

>  <smiles>  (56) 
Cc1c[nH]c(=NCCc2ccc(O)cc2)c(=O)n1CC(=O)Nc1cccc(Oc2ccccc2)c1

>  <score_type>  (56) 
oracle

>  <origin>  (56) 
adg

>  <m_score__min__energy>  (56) 
-12.640000000000001

>  <m_primary>  (56) 
energy

$$$$
56:0
     RDKit          3D

 40 42  0  0  0  0  0  0  0  0999 V2000
   58.5220   32.1590   43.6300 O   0  0  0  0  0  0  0  0  0  0  0  0
   57.7080   32.4760   44.5400 C   0  0  0  0  0  0  0  0  0  0  0  0
   56.6270   31.6030   44.8720 N   0  0  0  0  0  0  0  0  0  0  0  0
   56.4770   30.0090   44.2140 S   0  0  0  0  0  0  0  0  0  0  0  0
   56.5210   30.0730   42.7120 O   0  0  0  0  0  0  0  0  0  0  0  0
   55.1490   29.4340   44.6210 O   0  0  0  0  0  0  0  0  0  0  0  0
   57.7740   28.9810   44.8160 C   0  0  0  0  0  0  0  0  0  0  0  0
   59.1100   29.2850   44.5210 C   0  0  0  0  0  0  0  0  0  0  0  0
   60.1400   28.4820   45.0220 C   0  0  0  0  0  0  0  0  0  0  0  0
   59.8390   27.3660   45.8090 C   0  0  0  0  0  0  0  0  0  0  0  0
   61.1320   26.3510   46.4220 Cl  0  0  0  0  0  0  0  0  0  0  0  0
   58.5070   27.0510   46.0930 C   0  0  0  0  0  0  0  0  0  0  0  0
   57.4760   27.8560   45.5990 C   0  0  0  0  0  0  0  0  0  0  0  0
   57.8590   33.7090   45.2520 N   0  0  0  0  0  0  0  0  0  0  0  0
   58.9990   34.6050   45.0570 C   0  0  0  0  0  0  0  0  0  0  0  0
   59.6930   34.8970   46.3890 C   0  0  0  0  0  0  0  0  0  0  0  0
   60.6150   33.7800   46.7880 C   0  0  0  0  0  0  0  0  0  0  0  0
   62.0040   33.7880   46.7090 C   0  0  0  0  0  0  0  0  0  0  0  0
   62.5060   32.5990   47.1150 N   0  0  0  0  0  0  0  0  0  0  0  0
   61.4450   31.8390   47.4380 C   0  0  0  0  0  0  0  0  0  0  0  0
   61.4590   30.5280   47.9130 C   0  0  0  0  0  0  0  0  0  0  0  0
   60.2220   29.9110   48.1760 C   0  0  0  0  0  0  0  0  0  0  0  0
   59.0140   30.6070   47.9540 C   0  0  0  0  0  0  0  0  0  0  0  0
   59.0310   31.9330   47.4840 C   0  0  0  0  0  0  0  0  0  0  0  0
   60.2720   32.5210   47.2420 C   0  0  0  0  0  0  0  0  0  0  0  0
   59.3491   30.1568   43.8942 H   0  0  0  0  0  0  0  0  0  0  0  0
   61.1880   28.7287   44.7966 H   0  0  0  0  0  0  0  0  0  0  0  0
   58.2697   26.1689   46.7058 H   0  0  0  0  0  0  0  0  0  0  0  0
   56.4288   27.6065   45.8249 H   0  0  0  0  0  0  0  0  0  0  0  0
   57.1880   33.9230   46.0230 H   0  0  0  0  0  0  0  0  0  0  0  0
   59.7175   34.1310   44.3720 H   0  0  0  0  0  0  0  0  0  0  0  0
   58.6349   35.5526   44.6333 H   0  0  0  0  0  0  0  0  0  0  0  0
   60.2766   35.8243   46.2918 H   0  0  0  0  0  0  0  0  0  0  0  0
   58.9200   34.9992   47.1649 H   0  0  0  0  0  0  0  0  0  0  0  0
   62.6085   34.6403   46.3652 H   0  0  0  0  0  0  0  0  0  0  0  0
   63.5130   32.3280   47.1600 H   0  0  0  0  0  0  0  0  0  0  0  0
   62.4063   29.9935   48.0768 H   0  0  0  0  0  0  0  0  0  0  0  0
   60.1961   28.8795   48.5571 H   0  0  0  0  0  0  0  0  0  0  0  0
   58.0528   30.1092   48.1498 H   0  0  0  0  0  0  0  0  0  0  0  0
   58.0964   32.4874   47.3131 H   0  0  0  0  0  0  0  0  0  0  0  0
  1  2  2  0
  2  3  1  0
  3  4  1  0
  4  5  2  0
  4  6  2  0
  4  7  1  0
  7  8  2  0
  8  9  1  0
  9 10  2  0
 10 11  1  0
 10 12  1  0
 12 13  2  0
  2 14  1  0
 14 15  1  0
 15 16  1  0
 16 17  1  0
 17 18  2  0
 18 19  1  0
 19 20  1  0
 20 21  2  0
 21 22  1  0
 22 23  2  0
 23 24  1  0
 24 25  2  0
 13  7  1  0
 25 17  1  0
 25 20  1  0
  8 26  1  0
  9 27  1  0
 12 28  1  0
 13 29  1  0
 14 30  1  0
 15 31  1  0
 15 32  1  0
 16 33  1  0
 16 34  1  0
 18 35  1  0
 19 36  1  0
 21 37  1  0
 22 38  1  0
 23 39  1  0
 24 40  1  0
M  CHG  1   3  -1
M  END
>  <UniqueID>  (57) 
52

>  <SMILES>  (57) 
O=C([N-]S(=O)(=O)c1ccc(Cl)cc1)NCCc1c[nH]c2ccccc12

>  <Energy>  (57) 
66.46050532499136

>  <Genealogy>  (57) 
O=C([N-]S(=O)(=O)c1ccc(Cl)cc1)NCCc1c[nH]c2ccccc12 (protonated)
O=C([N-]S(=O)(=O)c1ccc(Cl)cc1)NCCc1c[nH]c2ccccc12 (3D coordinates assigned)
O=C([N-]S(=O)(=O)c1ccc(Cl)cc1)NCCc1c[nH]c2ccccc12 (optimized conformer: 66.46050532499136 kcal/mol)

>  <smiles>  (57) 
O=C(NCCc1c[nH]c2ccccc12)NS(=O)(=O)c1ccc(Cl)cc1

>  <score_type>  (57) 
oracle

>  <origin>  (57) 
adg

>  <m_score__min__energy>  (57) 
-10.19

>  <m_primary>  (57) 
energy

$$$$
57:0
     RDKit          3D

 51 53  0  0  0  0  0  0  0  0999 V2000
   62.2930   34.0820   47.8760 C   0  0  0  0  0  0  0  0  0  0  0  0
   62.3680   32.7160   48.5820 C   0  0  0  0  0  0  0  0  0  0  0  0
   63.8250   32.2240   48.5140 C   0  0  0  0  0  0  0  0  0  0  0  0
   61.4600   31.6730   47.8460 C   0  0  0  0  0  0  0  0  0  0  0  0
   59.9160   31.8950   48.0560 C   0  0  2  0  0  0  0  0  0  0  0  0
   59.1880   30.5090   47.9710 C   0  0  0  0  0  0  0  0  0  0  0  0
   59.9250   29.4310   47.1460 C   0  0  0  0  0  0  0  0  0  0  0  0
   59.8940   29.7290   45.7110 N   0  0  0  0  0  0  0  0  0  0  0  0
   58.6950   30.0910   45.0040 C   0  0  0  0  0  0  0  0  0  0  0  0
   58.6720   31.1580   44.0850 C   0  0  0  0  0  0  0  0  0  0  0  0
   57.4870   31.4920   43.4230 C   0  0  0  0  0  0  0  0  0  0  0  0
   56.3180   30.7670   43.6670 C   0  0  0  0  0  0  0  0  0  0  0  0
   56.3290   29.7000   44.5700 C   0  0  0  0  0  0  0  0  0  0  0  0
   55.1570   28.9850   44.8040 O   0  0  0  0  0  0  0  0  0  0  0  0
   57.5170   29.3610   45.2320 C   0  0  0  0  0  0  0  0  0  0  0  0
   59.2490   32.8590   47.0400 C   0  0  0  0  0  0  0  0  0  0  0  0
   59.9660   33.5600   46.0370 C   0  0  0  0  0  0  0  0  0  0  0  0
   59.3010   34.3620   45.1040 C   0  0  0  0  0  0  0  0  0  0  0  0
   57.9140   34.4710   45.1300 C   0  0  0  0  0  0  0  0  0  0  0  0
   57.1820   33.7690   46.0850 C   0  0  0  0  0  0  0  0  0  0  0  0
   57.8360   32.9670   47.0210 C   0  0  0  0  0  0  0  0  0  0  0  0
   59.7110   32.4660   49.5040 C   0  0  0  0  0  0  0  0  0  0  0  0
   60.9160   32.2080   50.4120 C   0  0  0  0  0  0  0  0  0  0  0  0
   62.0540   32.9170   49.9610 O   0  0  0  0  0  0  0  0  0  0  0  0
   62.2491   34.8822   48.6295 H   0  0  0  0  0  0  0  0  0  0  0  0
   63.1850   34.2191   47.2470 H   0  0  0  0  0  0  0  0  0  0  0  0
   61.3914   34.1207   47.2470 H   0  0  0  0  0  0  0  0  0  0  0  0
   64.2155   32.0921   49.5339 H   0  0  0  0  0  0  0  0  0  0  0  0
   63.8630   31.2632   47.9798 H   0  0  0  0  0  0  0  0  0  0  0  0
   64.4377   32.9651   47.9798 H   0  0  0  0  0  0  0  0  0  0  0  0
   61.6728   31.7310   46.7683 H   0  0  0  0  0  0  0  0  0  0  0  0
   61.6979   30.6892   48.2768 H   0  0  0  0  0  0  0  0  0  0  0  0
   59.0616   30.1272   48.9948 H   0  0  0  0  0  0  0  0  0  0  0  0
   58.2362   30.6944   47.4518 H   0  0  0  0  0  0  0  0  0  0  0  0
   60.9728   29.3834   47.4774 H   0  0  0  0  0  0  0  0  0  0  0  0
   59.4158   28.4693   47.3069 H   0  0  0  0  0  0  0  0  0  0  0  0
   60.7770   29.6400   45.1580 H   0  0  0  0  0  0  0  0  0  0  0  0
   59.5901   31.7308   43.8874 H   0  0  0  0  0  0  0  0  0  0  0  0
   57.4749   32.3279   42.7081 H   0  0  0  0  0  0  0  0  0  0  0  0
   55.3867   31.0364   43.1473 H   0  0  0  0  0  0  0  0  0  0  0  0
   55.1370   28.1950   45.4390 H   0  0  0  0  0  0  0  0  0  0  0  0
   57.5268   28.5160   45.9361 H   0  0  0  0  0  0  0  0  0  0  0  0
   61.0615   33.4716   45.9922 H   0  0  0  0  0  0  0  0  0  0  0  0
   59.8781   34.9102   44.3447 H   0  0  0  0  0  0  0  0  0  0  0  0
   57.3971   35.1096   44.3986 H   0  0  0  0  0  0  0  0  0  0  0  0
   56.0849   33.8472   46.1013 H   0  0  0  0  0  0  0  0  0  0  0  0
   57.2428   32.4072   47.7591 H   0  0  0  0  0  0  0  0  0  0  0  0
   59.5472   33.5516   49.4352 H   0  0  0  0  0  0  0  0  0  0  0  0
   58.8438   31.9533   49.9458 H   0  0  0  0  0  0  0  0  0  0  0  0
   60.6719   32.5331   51.4341 H   0  0  0  0  0  0  0  0  0  0  0  0
   61.1442   31.1321   50.3928 H   0  0  0  0  0  0  0  0  0  0  0  0
  1  2  1  0
  2  3  1  0
  2  4  1  0
  4  5  1  0
  5  6  1  1
  6  7  1  0
  7  8  1  0
  8  9  1  0
  9 10  2  0
 10 11  1  0
 11 12  2  0
 12 13  1  0
 13 14  1  0
 13 15  2  0
  5 16  1  0
 16 17  2  0
 17 18  1  0
 18 19  2  0
 19 20  1  0
 20 21  2  0
  5 22  1  0
 22 23  1  0
 23 24  1  0
 24  2  1  0
 15  9  1  0
 21 16  1  0
  1 25  1  0
  1 26  1  0
  1 27  1  0
  3 28  1  0
  3 29  1  0
  3 30  1  0
  4 31  1  0
  4 32  1  0
  6 33  1  0
  6 34  1  0
  7 35  1  0
  7 36  1  0
  8 37  1  0
 10 38  1  0
 11 39  1  0
 12 40  1  0
 14 41  1  0
 15 42  1  0
 17 43  1  0
 18 44  1  0
 19 45  1  0
 20 46  1  0
 21 47  1  0
 22 48  1  0
 22 49  1  0
 23 50  1  0
 23 51  1  0
M  END
>  <UniqueID>  (58) 
53

>  <SMILES>  (58) 
CC1(C)C[C@](CCNc2cccc(O)c2)(c2ccccc2)CCO1

>  <Energy>  (58) 
69.07453136632702

>  <Genealogy>  (58) 
CC1(C)C[C@](CCNc2cccc(O)c2)(c2ccccc2)CCO1 (chirality)
CC1(C)C[C@](CCNc2cccc(O)c2)(c2ccccc2)CCO1 (3D coordinates assigned)
CC1(C)C[C@](CCNc2cccc(O)c2)(c2ccccc2)CCO1 (nonaromatic ring conformer: 69.07453136632702 kcal/mol)

>  <smiles>  (58) 
CC1(C)CC(CCNc2cccc(O)c2)(c2ccccc2)CCO1

>  <score_type>  (58) 
oracle

>  <origin>  (58) 
adg

>  <m_score__min__energy>  (58) 
-9.1799999999999997

>  <m_primary>  (58) 
energy

$$$$
58:0
     RDKit          3D

 43 45  0  0  0  0  0  0  0  0999 V2000
   55.5870   28.9410   44.8790 N   0  0  0  0  0  0  0  0  0  0  0  0
   57.1450   29.6750   44.7410 S   0  0  0  0  0  0  0  0  0  0  0  0
   57.8600   29.1180   43.5430 O   0  0  0  0  0  0  0  0  0  0  0  0
   56.9740   31.1580   44.5660 O   0  0  0  0  0  0  0  0  0  0  0  0
   58.0800   29.3310   46.1910 C   0  0  0  0  0  0  0  0  0  0  0  0
   58.7670   28.1180   46.3330 C   0  0  0  0  0  0  0  0  0  0  0  0
   59.5310   27.8760   47.4770 C   0  0  0  0  0  0  0  0  0  0  0  0
   59.6170   28.8430   48.4810 C   0  0  0  0  0  0  0  0  0  0  0  0
   58.9330   30.0590   48.3490 C   0  0  0  0  0  0  0  0  0  0  0  0
   59.0540   31.2660   49.6250 S   0  0  0  0  0  0  0  0  0  0  0  0
   60.1400   30.8430   50.5720 O   0  0  0  0  0  0  0  0  0  0  0  0
   59.4110   32.6090   49.0560 O   0  0  0  0  0  0  0  0  0  0  0  0
   57.5740   31.3800   50.5270 N   0  0  0  0  0  0  0  0  0  0  0  0
   57.1300   30.6270   51.6710 C   0  0  0  0  0  0  0  0  0  0  0  0
   58.1180   29.9240   52.3760 C   0  0  0  0  0  0  0  0  0  0  0  0
   57.7960   29.1670   53.5010 C   0  0  0  0  0  0  0  0  0  0  0  0
   56.4770   29.0950   53.9400 C   0  0  0  0  0  0  0  0  0  0  0  0
   56.1610   28.3500   55.0280 F   0  0  0  0  0  0  0  0  0  0  0  0
   55.4770   29.7900   53.2570 C   0  0  0  0  0  0  0  0  0  0  0  0
   55.7860   30.5680   52.1260 C   0  0  0  0  0  0  0  0  0  0  0  0
   54.7270   31.2160   51.4080 N   0  0  0  0  0  0  0  0  0  0  0  0
   53.3700   30.7520   51.3420 C   0  0  0  0  0  0  0  0  0  0  0  0
   53.0580   29.8550   50.5120 O   0  0  0  0  0  0  0  0  0  0  0  0
   52.3520   31.2890   52.2780 C   0  0  0  0  0  0  0  0  0  0  0  0
   52.3350   30.8480   53.6140 C   0  0  0  0  0  0  0  0  0  0  0  0
   51.3740   31.3230   54.5110 C   0  0  0  0  0  0  0  0  0  0  0  0
   50.4270   32.2550   54.0910 C   0  0  0  0  0  0  0  0  0  0  0  0
   50.4410   32.7190   52.7750 C   0  0  0  0  0  0  0  0  0  0  0  0
   51.3930   32.2410   51.8660 C   0  0  0  0  0  0  0  0  0  0  0  0
   51.3640   32.7140   50.5580 O   0  0  0  0  0  0  0  0  0  0  0  0
   58.1570   30.2950   47.2060 C   0  0  0  0  0  0  0  0  0  0  0  0
   55.0980   29.4100   45.6740 H   0  0  0  0  0  0  0  0  0  0  0  0
   58.7046   27.3555   45.5426 H   0  0  0  0  0  0  0  0  0  0  0  0
   60.0663   26.9214   47.5874 H   0  0  0  0  0  0  0  0  0  0  0  0
   60.2235   28.6496   49.3781 H   0  0  0  0  0  0  0  0  0  0  0  0
   59.1630   29.9709   52.0357 H   0  0  0  0  0  0  0  0  0  0  0  0
   58.5854   28.6256   54.0429 H   0  0  0  0  0  0  0  0  0  0  0  0
   54.4360   29.7287   53.6070 H   0  0  0  0  0  0  0  0  0  0  0  0
   53.0864   30.1213   53.9564 H   0  0  0  0  0  0  0  0  0  0  0  0
   51.3653   30.9607   55.5496 H   0  0  0  0  0  0  0  0  0  0  0  0
   49.6686   32.6249   54.7967 H   0  0  0  0  0  0  0  0  0  0  0  0
   49.7002   33.4643   52.4499 H   0  0  0  0  0  0  0  0  0  0  0  0
   57.6056   31.2414   47.1048 H   0  0  0  0  0  0  0  0  0  0  0  0
  1  2  1  0
  2  3  2  0
  2  4  2  0
  2  5  1  0
  5  6  2  0
  6  7  1  0
  7  8  2  0
  8  9  1  0
  9 10  1  0
 10 11  2  0
 10 12  2  0
 10 13  1  0
 13 14  1  0
 14 15  2  0
 15 16  1  0
 16 17  2  0
 17 18  1  0
 17 19  1  0
 19 20  2  0
 20 21  1  0
 21 22  1  0
 22 23  2  0
 22 24  1  0
 24 25  2  0
 25 26  1  0
 26 27  2  0
 27 28  1  0
 28 29  2  0
 29 30  1  0
  9 31  2  0
 31  5  1  0
 20 14  1  0
 29 24  1  0
  1 32  1  0
  6 33  1  0
  7 34  1  0
  8 35  1  0
 15 36  1  0
 16 37  1  0
 19 38  1  0
 25 39  1  0
 26 40  1  0
 27 41  1  0
 28 42  1  0
 31 43  1  0
M  CHG  4   1  -1  13  -1  21  -1  30  -1
M  END
>  <UniqueID>  (59) 
54

>  <SMILES>  (59) 
[NH-]S(=O)(=O)c1cccc(S(=O)(=O)[N-]c2ccc(F)cc2[N-]C(=O)c2ccccc2[O-])c1

>  <Energy>  (59) 
56.56450496434172

>  <Genealogy>  (59) 
[NH-]S(=O)(=O)c1cccc(S(=O)(=O)[N-]c2ccc(F)cc2[N-]C(=O)c2ccccc2[O-])c1 (protonated)
[NH-]S(=O)(=O)c1cccc(S(=O)(=O)[N-]c2ccc(F)cc2[N-]C(=O)c2ccccc2[O-])c1 (3D coordinates assigned)
[NH-]S(=O)(=O)c1cccc(S(=O)(=O)[N-]c2ccc(F)cc2[N-]C(=O)c2ccccc2[O-])c1 (optimized conformer: 56.56450496434172 kcal/mol)

>  <smiles>  (59) 
NS(=O)(=O)c1cccc(S(=O)(=O)Nc2ccc(F)cc2NC(=O)c2ccccc2O)c1

>  <score_type>  (59) 
oracle

>  <origin>  (59) 
adg

>  <m_score__min__energy>  (59) 
-16.670000000000002

>  <m_primary>  (59) 
energy

$$$$
59:0
     RDKit          3D

 48 50  0  0  0  0  0  0  0  0999 V2000
   62.7088   34.5323   48.4815 H   0  0  0  0  0  0  0  0  0  0  0  0
   61.7370   34.2220   48.8930 C   0  0  0  0  0  0  0  0  0  0  0  0
   61.6678   33.8662   49.9316 H   0  0  0  0  0  0  0  0  0  0  0  0
   60.6460   34.2770   48.1350 C   0  0  0  0  0  0  0  0  0  0  0  0
   60.7266   34.6344   47.0978 H   0  0  0  0  0  0  0  0  0  0  0  0
   59.3310   33.8680   48.6590 C   0  0  0  0  0  0  0  0  0  0  0  0
   58.9141   34.3779   49.5400 H   0  0  0  0  0  0  0  0  0  0  0  0
   58.6380   32.8830   48.0750 C   0  0  0  0  0  0  0  0  0  0  0  0
   58.2765   32.0595   48.7084 H   0  0  0  0  0  0  0  0  0  0  0  0
   58.3280   32.8350   46.6250 C   0  0  0  0  0  0  0  0  0  0  0  0
   58.3520   34.0340   45.8940 C   0  0  0  0  0  0  0  0  0  0  0  0
   58.5906   34.9787   46.4045 H   0  0  0  0  0  0  0  0  0  0  0  0
   58.0760   34.0380   44.5260 C   0  0  0  0  0  0  0  0  0  0  0  0
   58.1138   34.9811   43.9611 H   0  0  0  0  0  0  0  0  0  0  0  0
   57.7520   32.8470   43.8730 C   0  0  0  0  0  0  0  0  0  0  0  0
   57.5514   32.8538   42.7915 H   0  0  0  0  0  0  0  0  0  0  0  0
   57.6810   31.6460   44.5850 C   0  0  0  0  0  0  0  0  0  0  0  0
   57.3440   30.4770   43.8880 O   0  0  0  0  0  0  0  0  0  0  0  0
   56.7040   29.3600   44.4430 C   0  0  0  0  0  0  0  0  0  0  0  0
   55.5020   29.4410   44.8230 O   0  0  0  0  0  0  0  0  0  0  0  0
   57.4050   28.0940   44.4720 N   0  0  0  0  0  0  0  0  0  0  0  0
   56.9180   27.4670   43.7880 H   0  0  0  0  0  0  0  0  0  0  0  0
   58.8050   28.1840   44.0320 C   0  0  0  0  0  0  0  0  0  0  0  0
   59.1786   27.1636   43.8612 H   0  0  0  0  0  0  0  0  0  0  0  0
   58.8095   28.7994   43.1202 H   0  0  0  0  0  0  0  0  0  0  0  0
   59.7440   28.8800   45.0390 C   0  0  0  0  0  0  0  0  0  0  0  0
   60.7370   28.4148   44.9514 H   0  0  0  0  0  0  0  0  0  0  0  0
   59.7249   29.9479   44.7759 H   0  0  0  0  0  0  0  0  0  0  0  0
   59.3330   28.8090   46.4600 N   0  0  0  0  0  0  0  0  0  0  0  0
   60.1690   29.4590   47.4690 C   0  0  0  0  0  0  0  0  0  0  0  0
   61.0750   30.4920   47.1180 C   0  0  0  0  0  0  0  0  0  0  0  0
   61.1517   30.8111   46.0681 H   0  0  0  0  0  0  0  0  0  0  0  0
   61.8720   31.1110   48.0850 C   0  0  0  0  0  0  0  0  0  0  0  0
   62.5653   31.9128   47.7910 H   0  0  0  0  0  0  0  0  0  0  0  0
   61.7930   30.7180   49.4190 C   0  0  0  0  0  0  0  0  0  0  0  0
   62.4212   31.2091   50.1767 H   0  0  0  0  0  0  0  0  0  0  0  0
   60.9160   29.7010   49.7910 C   0  0  0  0  0  0  0  0  0  0  0  0
   60.8546   29.3889   50.8440 H   0  0  0  0  0  0  0  0  0  0  0  0
   60.1130   29.0750   48.8310 C   0  0  0  0  0  0  0  0  0  0  0  0
   59.4274   28.2719   49.1392 H   0  0  0  0  0  0  0  0  0  0  0  0
   58.0400   28.2290   46.8780 C   0  0  0  0  0  0  0  0  0  0  0  0
   58.2231   27.5532   47.7264 H   0  0  0  0  0  0  0  0  0  0  0  0
   57.3845   29.0728   47.1394 H   0  0  0  0  0  0  0  0  0  0  0  0
   57.3240   27.4390   45.7810 C   0  0  0  0  0  0  0  0  0  0  0  0
   57.7848   26.4430   45.7059 H   0  0  0  0  0  0  0  0  0  0  0  0
   56.2610   27.3738   46.0564 H   0  0  0  0  0  0  0  0  0  0  0  0
   57.9830   31.6390   45.9610 C   0  0  0  0  0  0  0  0  0  0  0  0
   57.9496   30.6935   46.5222 H   0  0  0  0  0  0  0  0  0  0  0  0
  1  2  1  0
  2  3  1  0
  2  4  2  0
  4  5  1  0
  4  6  1  0
  6  7  1  0
  6  8  2  0
  8  9  1  0
  8 10  1  0
 10 11  2  0
 11 12  1  0
 11 13  1  0
 13 14  1  0
 13 15  2  0
 15 16  1  0
 15 17  1  0
 17 18  1  0
 18 19  1  0
 19 20  2  0
 19 21  1  0
 21 22  1  0
 21 23  1  0
 23 24  1  0
 23 25  1  0
 23 26  1  0
 26 27  1  0
 26 28  1  0
 26 29  1  0
 29 30  1  0
 30 31  2  0
 31 32  1  0
 31 33  1  0
 33 34  1  0
 33 35  2  0
 35 36  1  0
 35 37  1  0
 37 38  1  0
 37 39  2  0
 39 40  1  0
 29 41  1  0
 41 42  1  0
 41 43  1  0
 41 44  1  0
 44 45  1  0
 44 46  1  0
 17 47  2  0
 47 48  1  0
 47 10  1  0
 44 21  1  0
 39 30  1  0
M  CHG  1  21   1
M  END
>  <UniqueID>  (60) 
55

>  <SMILES>  (60) 
C=C/C=C/c1cccc(OC(=O)[NH+]2CCN(c3ccccc3)CC2)c1

>  <Energy>  (60) 
66.61480624622617

>  <Genealogy>  (60) 
C=CC=Cc1cccc(OC(=O)[NH+]2CCN(c3ccccc3)CC2)c1 (protonated)
C=C/C=C/c1cccc(OC(=O)[NH+]2CCN(c3ccccc3)CC2)c1 (cis-trans isomerization)
C=C/C=C/c1cccc(OC(=O)[NH+]2CCN(c3ccccc3)CC2)c1 (3D coordinates assigned)
C=C/C=C/c1cccc(OC(=O)[NH+]2CCN(c3ccccc3)CC2)c1 (nonaromatic ring conformer: 66.61480624622617 kcal/mol)

>  <smiles>  (60) 
C=CC=Cc1cccc(OC(=O)N2CCN(c3ccccc3)CC2)c1

>  <score_type>  (60) 
oracle

>  <origin>  (60) 
adg

>  <m_score__min__energy>  (60) 
-6.4699999999999998

>  <m_primary>  (60) 
energy

$$$$
60:0
     RDKit          3D

 47 50  0  0  0  0  0  0  0  0999 V2000
   57.1090   32.1150   45.1680 O   0  0  0  0  0  0  0  0  0  0  0  0
   58.2780   32.3310   45.5900 C   0  0  0  0  0  0  0  0  0  0  0  0
   58.7540   33.7430   45.7480 C   0  0  0  0  0  0  0  0  0  0  0  0
   58.5100   34.2320   47.1760 C   0  0  0  0  0  0  0  0  0  0  0  0
   59.4550   33.2740   48.3490 S   0  0  0  0  0  0  0  0  0  0  0  0
   58.8480   31.9050   48.4770 O   0  0  0  0  0  0  0  0  0  0  0  0
   59.4190   33.9430   49.6940 O   0  0  0  0  0  0  0  0  0  0  0  0
   61.1200   33.1210   47.7930 C   0  0  0  0  0  0  0  0  0  0  0  0
   61.6490   34.0330   46.8680 C   0  0  0  0  0  0  0  0  0  0  0  0
   62.9650   33.8920   46.4160 C   0  0  0  0  0  0  0  0  0  0  0  0
   63.7560   32.8380   46.8840 C   0  0  0  0  0  0  0  0  0  0  0  0
   63.2290   31.9210   47.7990 C   0  0  0  0  0  0  0  0  0  0  0  0
   61.9140   32.0610   48.2530 C   0  0  0  0  0  0  0  0  0  0  0  0
   59.1180   31.2420   46.0070 N   0  0  0  0  0  0  0  0  0  0  0  0
   58.8550   29.8590   45.7140 C   0  0  0  0  0  0  0  0  0  0  0  0
   58.6930   28.9530   46.7710 C   0  0  0  0  0  0  0  0  0  0  0  0
   58.4630   27.5980   46.5150 C   0  0  0  0  0  0  0  0  0  0  0  0
   58.4050   27.1190   45.1940 C   0  0  0  0  0  0  0  0  0  0  0  0
   58.1680   25.6800   44.9340 C   0  0  0  0  0  0  0  0  0  0  0  0
   57.4050   25.2270   43.9050 N   0  0  0  0  0  0  0  0  0  0  0  0
   57.3420   23.8720   43.8930 C   0  0  0  0  0  0  0  0  0  0  0  0
   56.6320   23.1220   42.9520 C   0  0  0  0  0  0  0  0  0  0  0  0
   56.6490   21.7210   43.0540 C   0  0  0  0  0  0  0  0  0  0  0  0
   57.3700   21.0880   44.0880 C   0  0  0  0  0  0  0  0  0  0  0  0
   58.0810   21.8520   45.0280 C   0  0  0  0  0  0  0  0  0  0  0  0
   58.0480   23.2380   44.9030 C   0  0  0  0  0  0  0  0  0  0  0  0
   58.7890   24.3970   45.8610 S   0  0  0  0  0  0  0  0  0  0  0  0
   58.5890   28.0270   44.1360 C   0  0  0  0  0  0  0  0  0  0  0  0
   58.8190   29.3810   44.3930 C   0  0  0  0  0  0  0  0  0  0  0  0
   59.8309   33.7890   45.5283 H   0  0  0  0  0  0  0  0  0  0  0  0
   58.1977   34.3868   45.0508 H   0  0  0  0  0  0  0  0  0  0  0  0
   58.8081   35.2882   47.2507 H   0  0  0  0  0  0  0  0  0  0  0  0
   57.4411   34.1165   47.4087 H   0  0  0  0  0  0  0  0  0  0  0  0
   61.0273   34.8612   46.4971 H   0  0  0  0  0  0  0  0  0  0  0  0
   63.3779   34.6102   45.6923 H   0  0  0  0  0  0  0  0  0  0  0  0
   64.7927   32.7302   46.5324 H   0  0  0  0  0  0  0  0  0  0  0  0
   63.8498   31.0886   48.1620 H   0  0  0  0  0  0  0  0  0  0  0  0
   61.5017   31.3382   48.9724 H   0  0  0  0  0  0  0  0  0  0  0  0
   59.9310   31.4670   46.6260 H   0  0  0  0  0  0  0  0  0  0  0  0
   58.7472   29.3108   47.8098 H   0  0  0  0  0  0  0  0  0  0  0  0
   58.3262   26.9003   47.3543 H   0  0  0  0  0  0  0  0  0  0  0  0
   56.0707   23.6188   42.1470 H   0  0  0  0  0  0  0  0  0  0  0  0
   56.0962   21.1134   42.3224 H   0  0  0  0  0  0  0  0  0  0  0  0
   57.3755   19.9903   44.1585 H   0  0  0  0  0  0  0  0  0  0  0  0
   58.6469   21.3696   45.8386 H   0  0  0  0  0  0  0  0  0  0  0  0
   58.5515   27.6681   43.0969 H   0  0  0  0  0  0  0  0  0  0  0  0
   58.9729   30.0775   43.5556 H   0  0  0  0  0  0  0  0  0  0  0  0
  1  2  2  0
  2  3  1  0
  3  4  1  0
  4  5  1  0
  5  6  2  0
  5  7  2  0
  5  8  1  0
  8  9  2  0
  9 10  1  0
 10 11  2  0
 11 12  1  0
 12 13  2  0
  2 14  1  0
 14 15  1  0
 15 16  2  0
 16 17  1  0
 17 18  2  0
 18 19  1  0
 19 20  2  0
 20 21  1  0
 21 22  2  0
 22 23  1  0
 23 24  2  0
 24 25  1  0
 25 26  2  0
 26 27  1  0
 18 28  1  0
 28 29  2  0
 13  8  1  0
 29 15  1  0
 27 19  1  0
 26 21  1  0
  3 30  1  0
  3 31  1  0
  4 32  1  0
  4 33  1  0
  9 34  1  0
 10 35  1  0
 11 36  1  0
 12 37  1  0
 13 38  1  0
 14 39  1  0
 16 40  1  0
 17 41  1  0
 22 42  1  0
 23 43  1  0
 24 44  1  0
 25 45  1  0
 28 46  1  0
 29 47  1  0
M  END
>  <UniqueID>  (61) 
56

>  <SMILES>  (61) 
O=C(CCS(=O)(=O)c1ccccc1)Nc1ccc(-c2nc3ccccc3s2)cc1

>  <Energy>  (61) 
83.84759099592098

>  <Genealogy>  (61) 
O=C(CCS(=O)(=O)c1ccccc1)Nc1ccc(-c2nc3ccccc3s2)cc1 (3D coordinates assigned)
O=C(CCS(=O)(=O)c1ccccc1)Nc1ccc(-c2nc3ccccc3s2)cc1 (optimized conformer: 83.84759099592098 kcal/mol)

>  <smiles>  (61) 
O=C(CCS(=O)(=O)c1ccccc1)Nc1ccc(-c2nc3ccccc3s2)cc1

>  <score_type>  (61) 
oracle

>  <origin>  (61) 
adg

>  <m_score__min__energy>  (61) 
-9.2899999999999991

>  <m_primary>  (61) 
energy

$$$$
61:0
     RDKit          3D

 63 67  0  0  0  0  0  0  0  0999 V2000
   61.8580   26.8560   51.2850 O   0  0  0  0  0  0  0  0  0  0  0  0
   61.4610   27.9220   50.7370 C   0  0  0  0  0  0  0  0  0  0  0  0
   61.8640   29.1900   51.2810 N   0  0  0  0  0  0  0  0  0  0  0  0
   62.7810   29.2990   52.4120 C   0  0  0  0  0  0  0  0  0  0  0  0
   64.1250   29.7790   51.9400 C   0  0  0  0  0  0  0  0  0  0  0  0
   64.2800   31.0790   51.4320 C   0  0  0  0  0  0  0  0  0  0  0  0
   65.5290   31.5100   50.9690 C   0  0  0  0  0  0  0  0  0  0  0  0
   66.6260   30.6440   51.0040 C   0  0  0  0  0  0  0  0  0  0  0  0
   66.4760   29.3450   51.4980 C   0  0  0  0  0  0  0  0  0  0  0  0
   65.2300   28.9110   51.9610 C   0  0  0  0  0  0  0  0  0  0  0  0
   60.5740   27.8400   49.5490 C   0  0  0  0  0  0  0  0  0  0  0  0
   60.7360   26.7940   48.6220 C   0  0  0  0  0  0  0  0  0  0  0  0
   59.9170   26.7120   47.4910 C   0  0  0  0  0  0  0  0  0  0  0  0
   58.9150   27.6680   47.2680 C   0  0  0  0  0  0  0  0  0  0  0  0
   58.0530   27.5930   46.0370 C   0  0  0  0  0  0  0  0  0  0  0  0
   57.0460   28.6510   46.0740 N   0  0  0  0  0  0  0  0  0  0  0  0
   56.4480   29.3070   44.9450 C   0  0  0  0  0  0  0  0  0  0  0  0
   55.1910   29.3370   44.8690 O   0  0  0  0  0  0  0  0  0  0  0  0
   57.2680   30.0320   43.9010 C   0  0  2  0  0  0  0  0  0  0  0  0
   58.7730   29.8090   44.1180 C   0  0  0  0  0  0  0  0  0  0  0  0
   59.2670   30.5230   45.3840 C   0  0  0  0  0  0  0  0  0  0  0  0
   58.8070   31.9640   45.4440 C   0  0  0  0  0  0  0  0  0  0  0  0
   57.6540   32.3490   44.7230 C   0  0  0  0  0  0  0  0  0  0  0  0
   57.1810   33.6620   44.8020 C   0  0  0  0  0  0  0  0  0  0  0  0
   57.8210   34.5910   45.6180 C   0  0  0  0  0  0  0  0  0  0  0  0
   58.9390   34.2170   46.3630 C   0  0  0  0  0  0  0  0  0  0  0  0
   59.4430   32.9100   46.2840 C   0  0  0  0  0  0  0  0  0  0  0  0
   60.6180   32.5580   47.1050 C   0  0  0  0  0  0  0  0  0  0  0  0
   60.4810   31.6970   48.2060 C   0  0  0  0  0  0  0  0  0  0  0  0
   61.5980   31.3590   48.9750 C   0  0  0  0  0  0  0  0  0  0  0  0
   62.8580   31.8690   48.6440 C   0  0  0  0  0  0  0  0  0  0  0  0
   63.0010   32.7140   47.5400 C   0  0  0  0  0  0  0  0  0  0  0  0
   61.8850   33.0560   46.7690 C   0  0  0  0  0  0  0  0  0  0  0  0
   56.9730   31.4300   43.9150 O   0  0  0  0  0  0  0  0  0  0  0  0
   58.7580   28.7190   48.1820 C   0  0  0  0  0  0  0  0  0  0  0  0
   59.5810   28.8090   49.3080 C   0  0  0  0  0  0  0  0  0  0  0  0
   61.3910   30.0650   50.9660 H   0  0  0  0  0  0  0  0  0  0  0  0
   62.3749   30.0140   53.1426 H   0  0  0  0  0  0  0  0  0  0  0  0
   62.8950   28.3105   52.8809 H   0  0  0  0  0  0  0  0  0  0  0  0
   63.4174   31.7608   51.3977 H   0  0  0  0  0  0  0  0  0  0  0  0
   65.6473   32.5311   50.5773 H   0  0  0  0  0  0  0  0  0  0  0  0
   67.6074   30.9849   50.6427 H   0  0  0  0  0  0  0  0  0  0  0  0
   67.3391   28.6635   51.5225 H   0  0  0  0  0  0  0  0  0  0  0  0
   65.1143   27.8860   52.3432 H   0  0  0  0  0  0  0  0  0  0  0  0
   61.5136   26.0339   48.7882 H   0  0  0  0  0  0  0  0  0  0  0  0
   60.0597   25.8922   46.7715 H   0  0  0  0  0  0  0  0  0  0  0  0
   58.6814   27.7178   45.1428 H   0  0  0  0  0  0  0  0  0  0  0  0
   57.5514   26.6146   46.0033 H   0  0  0  0  0  0  0  0  0  0  0  0
   56.9984   29.6183   42.9180 H   0  0  0  0  0  0  0  0  0  0  0  0
   58.9645   28.7304   44.2174 H   0  0  0  0  0  0  0  0  0  0  0  0
   59.3130   30.2227   43.2536 H   0  0  0  0  0  0  0  0  0  0  0  0
   58.8796   29.9905   46.2651 H   0  0  0  0  0  0  0  0  0  0  0  0
   60.3668   30.5200   45.3661 H   0  0  0  0  0  0  0  0  0  0  0  0
   56.2993   33.9626   44.2169 H   0  0  0  0  0  0  0  0  0  0  0  0
   57.4438   35.6227   45.6752 H   0  0  0  0  0  0  0  0  0  0  0  0
   59.4295   34.9524   47.0177 H   0  0  0  0  0  0  0  0  0  0  0  0
   59.4929   31.2880   48.4636 H   0  0  0  0  0  0  0  0  0  0  0  0
   61.4863   30.6910   49.8418 H   0  0  0  0  0  0  0  0  0  0  0  0
   63.7357   31.6051   49.2523 H   0  0  0  0  0  0  0  0  0  0  0  0
   63.9927   33.1108   47.2769 H   0  0  0  0  0  0  0  0  0  0  0  0
   62.0016   33.7169   45.8974 H   0  0  0  0  0  0  0  0  0  0  0  0
   57.9810   29.4788   48.0117 H   0  0  0  0  0  0  0  0  0  0  0  0
   59.4520   29.6441   50.0122 H   0  0  0  0  0  0  0  0  0  0  0  0
  1  2  2  0
  2  3  1  0
  3  4  1  0
  4  5  1  0
  5  6  2  0
  6  7  1  0
  7  8  2  0
  8  9  1  0
  9 10  2  0
  2 11  1  0
 11 12  2  0
 12 13  1  0
 13 14  2  0
 14 15  1  0
 15 16  1  0
 16 17  1  0
 17 18  2  0
 17 19  1  0
 19 20  1  0
 20 21  1  0
 21 22  1  0
 22 23  2  0
 23 24  1  0
 24 25  2  0
 25 26  1  0
 26 27  2  0
 27 28  1  0
 28 29  2  0
 29 30  1  0
 30 31  2  0
 31 32  1  0
 32 33  2  0
 23 34  1  0
 14 35  1  0
 35 36  2  0
 10  5  1  0
 36 11  1  0
 34 19  1  0
 27 22  1  0
 33 28  1  0
  3 37  1  0
  4 38  1  0
  4 39  1  0
  6 40  1  0
  7 41  1  0
  8 42  1  0
  9 43  1  0
 10 44  1  0
 12 45  1  0
 13 46  1  0
 15 47  1  0
 15 48  1  0
 19 49  1  6
 20 50  1  0
 20 51  1  0
 21 52  1  0
 21 53  1  0
 24 54  1  0
 25 55  1  0
 26 56  1  0
 29 57  1  0
 30 58  1  0
 31 59  1  0
 32 60  1  0
 33 61  1  0
 35 62  1  0
 36 63  1  0
M  CHG  1  16  -1
M  END
>  <UniqueID>  (62) 
57

>  <SMILES>  (62) 
O=C(NCc1ccccc1)c1ccc(C[N-]C(=O)[C@@H]2CCc3c(cccc3-c3ccccc3)O2)cc1

>  <Energy>  (62) 
78.79597043960986

>  <Genealogy>  (62) 
O=C(NCc1ccccc1)c1ccc(C[N-]C(=O)C2CCc3c(cccc3-c3ccccc3)O2)cc1 (protonated)
O=C(NCc1ccccc1)c1ccc(C[N-]C(=O)[C@@H]2CCc3c(cccc3-c3ccccc3)O2)cc1 (chirality)
O=C(NCc1ccccc1)c1ccc(C[N-]C(=O)[C@@H]2CCc3c(cccc3-c3ccccc3)O2)cc1 (3D coordinates assigned)
O=C(NCc1ccccc1)c1ccc(C[N-]C(=O)[C@@H]2CCc3c(cccc3-c3ccccc3)O2)cc1 (nonaromatic ring conformer: 78.79597043960986 kcal/mol)

>  <smiles>  (62) 
O=C(NCc1ccccc1)c1ccc(CNC(=O)C2CCc3c(cccc3-c3ccccc3)O2)cc1

>  <score_type>  (62) 
oracle

>  <origin>  (62) 
adg

>  <m_score__min__energy>  (62) 
-11.31

>  <m_primary>  (62) 
energy

$$$$
62:0
     RDKit          3D

 38 40  0  0  0  0  0  0  0  0999 V2000
   53.3530   28.1690   54.3490 O   0  0  0  0  0  0  0  0  0  0  0  0
   54.4620   28.5170   53.8640 C   0  0  0  0  0  0  0  0  0  0  0  0
   55.5610   27.7600   54.1170 N   0  0  0  0  0  0  0  0  0  0  0  0
   56.7800   28.0790   53.6150 C   0  0  0  0  0  0  0  0  0  0  0  0
   56.9370   29.2110   52.8190 C   0  0  0  0  0  0  0  0  0  0  0  0
   55.8310   30.0360   52.5350 C   0  0  0  0  0  0  0  0  0  0  0  0
   55.9800   31.2380   51.7430 N   0  0  0  0  0  0  0  0  0  0  0  0
   57.1950   32.0540   51.6890 C   0  0  0  0  0  0  0  0  0  0  0  0
   57.8460   31.9590   50.3070 C   0  0  0  0  0  0  0  0  0  0  0  0
   58.7900   30.8460   50.2720 N   0  0  0  0  0  0  0  0  0  0  0  0
   59.6850   30.5340   51.2300 C   0  0  0  0  0  0  0  0  0  0  0  0
   60.3540   29.3780   50.8800 C   0  0  0  0  0  0  0  0  0  0  0  0
   59.8320   28.9710   49.6660 C   0  0  0  0  0  0  0  0  0  0  0  0
   58.8650   29.8940   49.3230 C   0  0  0  0  0  0  0  0  0  0  0  0
   54.5650   29.6700   53.0600 C   0  0  0  0  0  0  0  0  0  0  0  0
   53.3520   30.4720   52.7830 C   0  0  0  0  0  0  0  0  0  0  0  0
   52.9160   30.6580   51.4630 C   0  0  0  0  0  0  0  0  0  0  0  0
   51.7650   31.4070   51.1970 C   0  0  0  0  0  0  0  0  0  0  0  0
   51.3590   31.5800   49.8750 O   0  0  0  0  0  0  0  0  0  0  0  0
   51.0390   31.9720   52.2600 C   0  0  0  0  0  0  0  0  0  0  0  0
   49.8940   32.7190   52.0060 O   0  0  0  0  0  0  0  0  0  0  0  0
   51.4700   31.7800   53.5810 C   0  0  0  0  0  0  0  0  0  0  0  0
   50.4970   32.5380   55.0440 Br  0  0  0  0  0  0  0  0  0  0  0  0
   52.6210   31.0310   53.8400 C   0  0  0  0  0  0  0  0  0  0  0  0
   57.6481   27.4411   53.8375 H   0  0  0  0  0  0  0  0  0  0  0  0
   57.9273   29.4616   52.4110 H   0  0  0  0  0  0  0  0  0  0  0  0
   55.1820   31.5770   51.1630 H   0  0  0  0  0  0  0  0  0  0  0  0
   56.9356   33.1029   51.8952 H   0  0  0  0  0  0  0  0  0  0  0  0
   57.9055   31.6829   52.4423 H   0  0  0  0  0  0  0  0  0  0  0  0
   57.0662   31.7986   49.5479 H   0  0  0  0  0  0  0  0  0  0  0  0
   58.3852   32.8948   50.0982 H   0  0  0  0  0  0  0  0  0  0  0  0
   59.8564   31.1119   52.1501 H   0  0  0  0  0  0  0  0  0  0  0  0
   61.1476   28.8782   51.4549 H   0  0  0  0  0  0  0  0  0  0  0  0
   60.1294   28.0845   49.0866 H   0  0  0  0  0  0  0  0  0  0  0  0
   58.2490   29.8574   48.4124 H   0  0  0  0  0  0  0  0  0  0  0  0
   53.4825   30.2123   50.6321 H   0  0  0  0  0  0  0  0  0  0  0  0
   51.3430   32.4900   49.4310 H   0  0  0  0  0  0  0  0  0  0  0  0
   52.9544   30.8796   54.8773 H   0  0  0  0  0  0  0  0  0  0  0  0
  1  2  2  0
  2  3  1  0
  3  4  1  0
  4  5  2  0
  5  6  1  0
  6  7  1  0
  7  8  1  0
  8  9  1  0
  9 10  1  0
 10 11  1  0
 11 12  2  0
 12 13  1  0
 13 14  2  0
  6 15  2  0
 15 16  1  0
 16 17  2  0
 17 18  1  0
 18 19  1  0
 18 20  2  0
 20 21  1  0
 20 22  1  0
 22 23  1  0
 22 24  2  0
 15  2  1  0
 24 16  1  0
 14 10  1  0
  4 25  1  0
  5 26  1  0
  7 27  1  0
  8 28  1  0
  8 29  1  0
  9 30  1  0
  9 31  1  0
 11 32  1  0
 12 33  1  0
 13 34  1  0
 14 35  1  0
 17 36  1  0
 19 37  1  0
 24 38  1  0
M  CHG  2   3  -1  21  -1
M  END
>  <UniqueID>  (63) 
58

>  <SMILES>  (63) 
O=c1[n-]ccc(NCCn2cccc2)c1-c1cc(O)c([O-])c(Br)c1

>  <Energy>  (63) 
73.70486328645696

>  <Genealogy>  (63) 
O=c1[n-]ccc(NCCn2cccc2)c1-c1cc(O)c([O-])c(Br)c1 (protonated)
O=c1[n-]ccc(NCCn2cccc2)c1-c1cc(O)c([O-])c(Br)c1 (3D coordinates assigned)
O=c1[n-]ccc(NCCn2cccc2)c1-c1cc(O)c([O-])c(Br)c1 (optimized conformer: 73.70486328645696 kcal/mol)

>  <smiles>  (63) 
O=c1[nH]ccc(NCCn2cccc2)c1-c1cc(O)c(O)c(Br)c1

>  <score_type>  (63) 
oracle

>  <origin>  (63) 
adg

>  <m_score__min__energy>  (63) 
-11.550000000000001

>  <m_primary>  (63) 
energy

$$$$
63:0
     RDKit          3D

 48 50  0  0  0  0  0  0  0  0999 V2000
   57.9820   23.7330   44.3810 C   0  0  0  0  0  0  0  0  0  0  0  0
   58.1490   24.2450   45.8090 C   0  0  0  0  0  0  0  0  0  0  0  0
   57.9920   25.7540   45.8700 C   0  0  0  0  0  0  0  0  0  0  0  0
   56.7240   26.3900   45.8630 C   0  0  0  0  0  0  0  0  0  0  0  0
   55.4370   25.6740   45.7190 C   0  0  0  0  0  0  0  0  0  0  0  0
   54.3620   26.2750   45.9850 O   0  0  0  0  0  0  0  0  0  0  0  0
   55.3720   24.3770   45.2260 O   0  0  0  0  0  0  0  0  0  0  0  0
   56.6630   27.7410   45.9850 N   0  0  0  0  0  0  0  0  0  0  0  0
   57.7540   28.5440   46.0990 C   0  0  0  0  0  0  0  0  0  0  0  0
   57.5500   29.9730   46.1340 N   0  0  0  0  0  0  0  0  0  0  0  0
   57.4540   30.5000   44.7930 C   0  0  0  0  0  0  0  0  0  0  0  0
   58.1370   31.6800   44.4410 C   0  0  0  0  0  0  0  0  0  0  0  0
   58.0500   32.1870   43.1410 C   0  0  0  0  0  0  0  0  0  0  0  0
   57.2930   31.5170   42.1770 C   0  0  0  0  0  0  0  0  0  0  0  0
   56.6230   30.3380   42.5110 C   0  0  0  0  0  0  0  0  0  0  0  0
   56.7010   29.8290   43.8110 C   0  0  0  0  0  0  0  0  0  0  0  0
   59.0430   27.9610   46.0760 C   0  0  0  0  0  0  0  0  0  0  0  0
   60.2750   28.7750   46.1790 C   0  0  0  0  0  0  0  0  0  0  0  0
   60.9040   29.1110   45.1390 O   0  0  0  0  0  0  0  0  0  0  0  0
   60.7200   29.2270   47.4610 N   0  0  0  0  0  0  0  0  0  0  0  0
   59.8090   30.3340   48.4310 S   0  0  0  0  0  0  0  0  0  0  0  0
   60.4640   30.4560   49.7780 O   0  0  0  0  0  0  0  0  0  0  0  0
   58.4170   29.8050   48.6320 O   0  0  0  0  0  0  0  0  0  0  0  0
   59.7560   31.9150   47.6600 C   0  0  0  0  0  0  0  0  0  0  0  0
   58.5780   32.6770   47.6910 C   0  0  0  0  0  0  0  0  0  0  0  0
   58.5410   33.9380   47.0870 C   0  0  0  0  0  0  0  0  0  0  0  0
   59.6790   34.4440   46.4530 C   0  0  0  0  0  0  0  0  0  0  0  0
   60.8540   33.6870   46.4160 C   0  0  0  0  0  0  0  0  0  0  0  0
   60.8910   32.4230   47.0120 C   0  0  0  0  0  0  0  0  0  0  0  0
   59.1470   26.5610   45.9570 C   0  0  0  0  0  0  0  0  0  0  0  0
   60.2880   26.0200   45.9470 O   0  0  0  0  0  0  0  0  0  0  0  0
   57.6410   22.6874   44.4039 H   0  0  0  0  0  0  0  0  0  0  0  0
   57.2385   24.3498   43.8549 H   0  0  0  0  0  0  0  0  0  0  0  0
   58.9462   23.7928   43.8549 H   0  0  0  0  0  0  0  0  0  0  0  0
   57.3863   23.7782   46.4496 H   0  0  0  0  0  0  0  0  0  0  0  0
   59.1590   23.9842   46.1580 H   0  0  0  0  0  0  0  0  0  0  0  0
   56.6540   30.1840   46.6320 H   0  0  0  0  0  0  0  0  0  0  0  0
   58.3030   30.4420   46.6830 H   0  0  0  0  0  0  0  0  0  0  0  0
   58.7427   32.2061   45.1935 H   0  0  0  0  0  0  0  0  0  0  0  0
   58.5785   33.1149   42.8769 H   0  0  0  0  0  0  0  0  0  0  0  0
   57.2246   31.9179   41.1550 H   0  0  0  0  0  0  0  0  0  0  0  0
   56.0322   29.8083   41.7492 H   0  0  0  0  0  0  0  0  0  0  0  0
   56.1713   28.8997   44.0676 H   0  0  0  0  0  0  0  0  0  0  0  0
   57.6817   32.2817   48.1914 H   0  0  0  0  0  0  0  0  0  0  0  0
   57.6154   34.5319   47.1110 H   0  0  0  0  0  0  0  0  0  0  0  0
   59.6503   35.4381   45.9829 H   0  0  0  0  0  0  0  0  0  0  0  0
   61.7497   34.0862   45.9177 H   0  0  0  0  0  0  0  0  0  0  0  0
   61.8134   31.8250   46.9725 H   0  0  0  0  0  0  0  0  0  0  0  0
  1  2  1  0
  2  3  1  0
  3  4  2  0
  4  5  1  0
  5  6  2  0
  5  7  1  0
  4  8  1  0
  8  9  1  0
  9 10  1  0
 10 11  1  0
 11 12  2  0
 12 13  1  0
 13 14  2  0
 14 15  1  0
 15 16  2  0
  9 17  2  0
 17 18  1  0
 18 19  2  0
 18 20  1  0
 20 21  1  0
 21 22  2  0
 21 23  2  0
 21 24  1  0
 24 25  2  0
 25 26  1  0
 26 27  2  0
 27 28  1  0
 28 29  2  0
 17 30  1  0
 30 31  2  0
 30  3  1  0
 16 11  1  0
 29 24  1  0
  1 32  1  0
  1 33  1  0
  1 34  1  0
  2 35  1  0
  2 36  1  0
 10 37  1  0
 10 38  1  0
 12 39  1  0
 13 40  1  0
 14 41  1  0
 15 42  1  0
 16 43  1  0
 25 44  1  0
 26 45  1  0
 27 46  1  0
 28 47  1  0
 29 48  1  0
M  CHG  4   7  -1   8  -1  10   1  20  -1
M  END
>  <UniqueID>  (64) 
59

>  <SMILES>  (64) 
CCc1c(C(=O)[O-])[n-]c([NH2+]c2ccccc2)c(C(=O)[N-]S(=O)(=O)c2ccccc2)c1=O

>  <Energy>  (64) 
63.814436564526645

>  <Genealogy>  (64) 
CCc1c(C(=O)[O-])[n-]c([NH2+]c2ccccc2)c(C(=O)[N-]S(=O)(=O)c2ccccc2)c1=O (protonated)
CCc1c(C(=O)[O-])[n-]c([NH2+]c2ccccc2)c(C(=O)[N-]S(=O)(=O)c2ccccc2)c1=O (3D coordinates assigned)
CCc1c(C(=O)[O-])[n-]c([NH2+]c2ccccc2)c(C(=O)[N-]S(=O)(=O)c2ccccc2)c1=O (optimized conformer: 63.814436564526645 kcal/mol)

>  <smiles>  (64) 
CCc1c(C(=O)O)[nH]c(Nc2ccccc2)c(C(=O)NS(=O)(=O)c2ccccc2)c1=O

>  <score_type>  (64) 
oracle

>  <origin>  (64) 
adg

>  <m_score__min__energy>  (64) 
-12.130000000000001

>  <m_primary>  (64) 
energy

$$$$
64:0
     RDKit          3D

 78 82  0  0  0  0  0  0  0  0999 V2000
   57.3923   23.2813   44.4527 H   0  0  0  0  0  0  0  0  0  0  0  0
   57.3240   24.2200   45.0220 C   0  0  0  0  0  0  0  0  0  0  0  0
   56.0920   24.8620   45.1620 C   0  0  0  0  0  0  0  0  0  0  0  0
   55.1908   24.4275   44.7048 H   0  0  0  0  0  0  0  0  0  0  0  0
   56.0030   26.0570   45.8830 C   0  0  0  0  0  0  0  0  0  0  0  0
   54.7790   26.6960   46.0190 O   0  0  0  0  0  0  0  0  0  0  0  0
   57.1480   26.6040   46.4730 C   0  0  0  0  0  0  0  0  0  0  0  0
   57.0764   27.5467   47.0354 H   0  0  0  0  0  0  0  0  0  0  0  0
   58.3880   25.9560   46.3510 C   0  0  0  0  0  0  0  0  0  0  0  0
   59.6240   26.5600   46.9620 C   0  0  0  0  0  0  0  0  0  0  0  0
   60.2373   27.0013   46.1626 H   0  0  0  0  0  0  0  0  0  0  0  0
   60.1717   25.7625   47.4855 H   0  0  0  0  0  0  0  0  0  0  0  0
   59.2950   27.6000   47.9350 N   0  0  0  0  0  0  0  0  0  0  0  0
   59.8690   28.9120   47.9260 C   0  0  0  0  0  0  0  0  0  0  0  0
   60.9250   29.1190   48.5870 O   0  0  0  0  0  0  0  0  0  0  0  0
   59.1760   30.0620   47.2450 C   0  0  0  0  0  0  0  0  0  0  0  0
   58.1196   30.0670   47.5516 H   0  0  0  0  0  0  0  0  0  0  0  0
   59.2854   29.9187   46.1599 H   0  0  0  0  0  0  0  0  0  0  0  0
   59.8000   31.4330   47.5990 C   0  0  2  0  0  0  0  0  0  0  0  0
   60.6746   31.2670   48.2452 H   0  0  0  0  0  0  0  0  0  0  0  0
   58.8160   32.2430   48.3540 N   0  0  0  0  0  0  0  0  0  0  0  0
   58.6780   32.0610   49.7810 C   0  0  0  0  0  0  0  0  0  0  0  0
   59.3730   32.8430   50.6510 N   0  0  0  0  0  0  0  0  0  0  0  0
   59.2710   32.6450   51.9900 C   0  0  0  0  0  0  0  0  0  0  0  0
   59.9540   33.3930   52.8020 N   0  0  0  0  0  0  0  0  0  0  0  0
   61.4100   33.3420   52.9170 C   0  0  0  0  0  0  0  0  0  0  0  0
   61.6939   32.5327   53.6058 H   0  0  0  0  0  0  0  0  0  0  0  0
   61.7780   34.3037   53.3039 H   0  0  0  0  0  0  0  0  0  0  0  0
   62.0170   33.0850   51.5690 C   0  0  0  0  0  0  0  0  0  0  0  0
   62.4890   31.8080   51.2370 C   0  0  0  0  0  0  0  0  0  0  0  0
   62.4172   30.9910   51.9700 H   0  0  0  0  0  0  0  0  0  0  0  0
   63.0510   31.5660   49.9790 C   0  0  0  0  0  0  0  0  0  0  0  0
   63.4247   30.5619   49.7296 H   0  0  0  0  0  0  0  0  0  0  0  0
   63.1400   32.6030   49.0310 C   0  0  0  0  0  0  0  0  0  0  0  0
   63.7090   32.4160   47.7640 O   0  0  0  0  0  0  0  0  0  0  0  0
   63.7340   33.4020   46.7380 C   0  0  0  0  0  0  0  0  0  0  0  0
   63.7594   34.4034   47.1924 H   0  0  0  0  0  0  0  0  0  0  0  0
   64.6288   33.2596   46.1143 H   0  0  0  0  0  0  0  0  0  0  0  0
   62.8331   33.3051   46.1143 H   0  0  0  0  0  0  0  0  0  0  0  0
   62.6460   33.8710   49.3580 C   0  0  0  0  0  0  0  0  0  0  0  0
   62.7024   34.6850   48.6202 H   0  0  0  0  0  0  0  0  0  0  0  0
   62.0820   34.1120   50.6130 C   0  0  0  0  0  0  0  0  0  0  0  0
   61.6872   35.1101   50.8536 H   0  0  0  0  0  0  0  0  0  0  0  0
   58.4630   31.6610   52.4630 N   0  0  0  0  0  0  0  0  0  0  0  0
   57.7630   30.8740   51.6060 C   0  0  0  0  0  0  0  0  0  0  0  0
   56.9980   29.9210   52.0440 N   0  0  0  0  0  0  0  0  0  0  0  0
   55.9940   30.0610   53.1010 C   0  0  0  0  0  0  0  0  0  0  0  0
   56.4262   29.7120   54.0504 H   0  0  0  0  0  0  0  0  0  0  0  0
   55.7082   31.1215   53.1614 H   0  0  0  0  0  0  0  0  0  0  0  0
   54.7280   29.2430   52.8010 C   0  0  0  0  0  0  0  0  0  0  0  0
   54.9230   28.5889   51.9383 H   0  0  0  0  0  0  0  0  0  0  0  0
   54.4818   28.6538   53.6967 H   0  0  0  0  0  0  0  0  0  0  0  0
   53.5500   30.1290   52.4850 C   0  0  0  0  0  0  0  0  0  0  0  0
   52.5940   30.4160   53.4730 C   0  0  0  0  0  0  0  0  0  0  0  0
   52.6845   29.9630   54.4713 H   0  0  0  0  0  0  0  0  0  0  0  0
   51.5270   31.2760   53.1920 C   0  0  0  0  0  0  0  0  0  0  0  0
   50.7799   31.4965   53.9687 H   0  0  0  0  0  0  0  0  0  0  0  0
   51.4090   31.8560   51.9240 C   0  0  0  0  0  0  0  0  0  0  0  0
   50.3480   32.7090   51.6460 O   0  0  0  0  0  0  0  0  0  0  0  0
   52.3610   31.5780   50.9360 C   0  0  0  0  0  0  0  0  0  0  0  0
   52.2687   32.0349   49.9396 H   0  0  0  0  0  0  0  0  0  0  0  0
   53.4290   30.7200   51.2150 C   0  0  0  0  0  0  0  0  0  0  0  0
   54.1776   30.5065   50.4378 H   0  0  0  0  0  0  0  0  0  0  0  0
   57.8730   31.0780   50.2700 N   0  0  0  0  0  0  0  0  0  0  0  0
   57.8430   33.1220   47.6790 C   0  0  0  0  0  0  0  0  0  0  0  0
   56.8291   32.7490   47.8860 H   0  0  0  0  0  0  0  0  0  0  0  0
   57.9892   34.1403   48.0684 H   0  0  0  0  0  0  0  0  0  0  0  0
   58.0450   33.1730   46.1690 C   0  0  0  0  0  0  0  0  0  0  0  0
   57.6924   32.2324   45.7208 H   0  0  0  0  0  0  0  0  0  0  0  0
   57.4745   34.0166   45.7531 H   0  0  0  0  0  0  0  0  0  0  0  0
   59.5220   33.3600   45.8560 C   0  0  0  0  0  0  0  0  0  0  0  0
   59.6461   33.4594   44.7676 H   0  0  0  0  0  0  0  0  0  0  0  0
   59.8715   34.2640   46.3762 H   0  0  0  0  0  0  0  0  0  0  0  0
   60.3600   32.1710   46.3460 C   0  0  0  0  0  0  0  0  0  0  0  0
   60.4287   31.4423   45.5249 H   0  0  0  0  0  0  0  0  0  0  0  0
   61.3322   32.5879   46.6478 H   0  0  0  0  0  0  0  0  0  0  0  0
   58.4710   24.7680   45.6040 C   0  0  0  0  0  0  0  0  0  0  0  0
   59.4423   24.2676   45.4769 H   0  0  0  0  0  0  0  0  0  0  0  0
  1  2  1  0
  2  3  2  0
  3  4  1  0
  3  5  1  0
  5  6  1  0
  5  7  2  0
  7  8  1  0
  7  9  1  0
  9 10  1  0
 10 11  1  0
 10 12  1  0
 10 13  1  0
 13 14  1  0
 14 15  2  0
 14 16  1  0
 16 17  1  0
 16 18  1  0
 16 19  1  0
 19 20  1  1
 19 21  1  0
 21 22  1  0
 22 23  2  0
 23 24  1  0
 24 25  2  0
 25 26  1  0
 26 27  1  0
 26 28  1  0
 26 29  1  0
 29 30  2  0
 30 31  1  0
 30 32  1  0
 32 33  1  0
 32 34  2  0
 34 35  1  0
 35 36  1  0
 36 37  1  0
 36 38  1  0
 36 39  1  0
 34 40  1  0
 40 41  1  0
 40 42  2  0
 42 43  1  0
 24 44  1  0
 44 45  1  0
 45 46  2  3
 46 47  1  0
 47 48  1  0
 47 49  1  0
 47 50  1  0
 50 51  1  0
 50 52  1  0
 50 53  1  0
 53 54  2  0
 54 55  1  0
 54 56  1  0
 56 57  1  0
 56 58  2  0
 58 59  1  0
 58 60  1  0
 60 61  1  0
 60 62  2  0
 62 63  1  0
 45 64  1  0
 21 65  1  0
 65 66  1  0
 65 67  1  0
 65 68  1  0
 68 69  1  0
 68 70  1  0
 68 71  1  0
 71 72  1  0
 71 73  1  0
 71 74  1  0
 74 75  1  0
 74 76  1  0
  9 77  2  0
 77 78  1  0
 77  2  1  0
 74 19  1  0
 64 22  1  0
 42 29  1  0
 62 53  1  0
M  CHG  5   6  -1  13  -1  44  -1  59  -1  64  -1
M  END
>  <UniqueID>  (65) 
60

>  <SMILES>  (65) 
COc1ccc(C/N=c2/nc(N3CCCC[C@@H]3CC(=O)[N-]Cc3cccc([O-])c3)[n-]c(=NCCc3ccc([O-])cc3)[n-]2)cc1

>  <Energy>  (65) 
82.82999271757532

>  <Genealogy>  (65) 
COc1ccc(CN=c2nc(N3CCCCC3CC(=O)[N-]Cc3cccc([O-])c3)[n-]c(=NCCc3ccc([O-])cc3)[n-]2)cc1 (protonated)
COc1ccc(CN=c2nc(N3CCCC[C@@H]3CC(=O)[N-]Cc3cccc([O-])c3)[n-]c(=NCCc3ccc([O-])cc3)[n-]2)cc1 (chirality)
COc1ccc(C/N=c2/nc(N3CCCC[C@@H]3CC(=O)[N-]Cc3cccc([O-])c3)[n-]c(=NCCc3ccc([O-])cc3)[n-]2)cc1 (cis-trans isomerization)
COc1ccc(C/N=c2/nc(N3CCCC[C@@H]3CC(=O)[N-]Cc3cccc([O-])c3)[n-]c(=NCCc3ccc([O-])cc3)[n-]2)cc1 (3D coordinates assigned)
COc1ccc(C/N=c2/nc(N3CCCC[C@@H]3CC(=O)[N-]Cc3cccc([O-])c3)[n-]c(=NCCc3ccc([O-])cc3)[n-]2)cc1 (nonaromatic ring conformer: 82.82999271757532 kcal/mol)

>  <smiles>  (65) 
COc1ccc(CN=c2nc(N3CCCCC3CC(=O)NCc3cccc(O)c3)[nH]c(=NCCc3ccc(O)cc3)[nH]2)cc1

>  <score_type>  (65) 
oracle

>  <origin>  (65) 
adg

>  <m_score__min__energy>  (65) 
-21.359999999999999

>  <m_primary>  (65) 
energy

$$$$
65:0
     RDKit          3D

 46 49  0  0  0  0  0  0  0  0999 V2000
   50.8230   32.7110   51.7670 O   0  0  0  0  0  0  0  0  0  0  0  0
   51.3850   32.2070   50.7590 C   0  0  0  0  0  0  0  0  0  0  0  0
   51.0500   32.6580   49.4880 O   0  0  0  0  0  0  0  0  0  0  0  0
   52.4350   31.1530   50.9300 C   0  0  0  0  0  0  0  0  0  0  0  0
   53.4890   31.5590   51.9650 C   0  0  0  0  0  0  0  0  0  0  0  0
   54.8230   31.1280   51.5490 N   0  0  0  0  0  0  0  0  0  0  0  0
   55.6770   30.3280   52.3830 C   0  0  0  0  0  0  0  0  0  0  0  0
   55.1920   29.7220   53.3770 O   0  0  0  0  0  0  0  0  0  0  0  0
   57.1090   30.1590   52.0710 C   0  0  0  0  0  0  0  0  0  0  0  0
   57.8110   29.2130   52.7490 N   0  0  0  0  0  0  0  0  0  0  0  0
   59.1330   28.9730   52.5420 C   0  0  0  0  0  0  0  0  0  0  0  0
   59.7420   27.8680   53.3060 C   0  0  0  0  0  0  0  0  0  0  0  0
   60.1030   28.0390   54.6490 C   0  0  0  0  0  0  0  0  0  0  0  0
   60.7170   26.9950   55.3440 C   0  0  0  0  0  0  0  0  0  0  0  0
   60.9780   25.7940   54.6820 C   0  0  0  0  0  0  0  0  0  0  0  0
   60.6420   25.6500   53.3720 N   0  0  0  0  0  0  0  0  0  0  0  0
   60.0420   26.6520   52.6740 C   0  0  0  0  0  0  0  0  0  0  0  0
   59.8450   29.7580   51.5970 C   0  0  0  0  0  0  0  0  0  0  0  0
   61.2340   29.6520   51.3420 C   0  0  0  0  0  0  0  0  0  0  0  0
   61.9620   28.8450   51.9760 O   0  0  0  0  0  0  0  0  0  0  0  0
   61.8120   30.4490   50.4090 N   0  0  0  0  0  0  0  0  0  0  0  0
   61.1010   31.3730   49.7100 C   0  0  0  0  0  0  0  0  0  0  0  0
   61.7680   32.2250   48.6960 C   0  0  0  0  0  0  0  0  0  0  0  0
   61.0080   33.0190   47.8140 C   0  0  0  0  0  0  0  0  0  0  0  0
   61.6400   33.8220   46.8590 C   0  0  0  0  0  0  0  0  0  0  0  0
   63.0330   33.8430   46.7710 C   0  0  0  0  0  0  0  0  0  0  0  0
   63.7980   33.0610   47.6390 C   0  0  0  0  0  0  0  0  0  0  0  0
   63.1730   32.2560   48.5960 C   0  0  0  0  0  0  0  0  0  0  0  0
   59.7740   31.5160   49.9620 N   0  0  0  0  0  0  0  0  0  0  0  0
   59.1330   30.7460   50.8790 C   0  0  0  0  0  0  0  0  0  0  0  0
   57.7710   30.9560   51.1220 C   0  0  0  0  0  0  0  0  0  0  0  0
   57.1020   31.9730   50.4490 O   0  0  0  0  0  0  0  0  0  0  0  0
   51.9529   30.2211   51.2602 H   0  0  0  0  0  0  0  0  0  0  0  0
   52.9416   31.0165   49.9632 H   0  0  0  0  0  0  0  0  0  0  0  0
   53.4824   32.6534   52.0753 H   0  0  0  0  0  0  0  0  0  0  0  0
   53.2461   31.0745   52.9222 H   0  0  0  0  0  0  0  0  0  0  0  0
   55.1250   31.3480   50.5730 H   0  0  0  0  0  0  0  0  0  0  0  0
   59.9029   28.9948   55.1554 H   0  0  0  0  0  0  0  0  0  0  0  0
   60.9921   27.1177   56.4020 H   0  0  0  0  0  0  0  0  0  0  0  0
   61.4562   24.9627   55.2208 H   0  0  0  0  0  0  0  0  0  0  0  0
   59.7918   26.5084   51.6125 H   0  0  0  0  0  0  0  0  0  0  0  0
   59.9099   33.0072   47.8771 H   0  0  0  0  0  0  0  0  0  0  0  0
   61.0378   34.4386   46.1755 H   0  0  0  0  0  0  0  0  0  0  0  0
   63.5276   34.4749   46.0187 H   0  0  0  0  0  0  0  0  0  0  0  0
   64.8957   33.0785   47.5695 H   0  0  0  0  0  0  0  0  0  0  0  0
   63.7825   31.6425   49.2757 H   0  0  0  0  0  0  0  0  0  0  0  0
  1  2  2  0
  2  3  1  0
  2  4  1  0
  4  5  1  0
  5  6  1  0
  6  7  1  0
  7  8  2  0
  7  9  1  0
  9 10  2  0
 10 11  1  0
 11 12  1  0
 12 13  2  0
 13 14  1  0
 14 15  2  0
 15 16  1  0
 16 17  2  0
 11 18  2  0
 18 19  1  0
 19 20  2  0
 19 21  1  0
 21 22  1  0
 22 23  1  0
 23 24  2  0
 24 25  1  0
 25 26  2  0
 26 27  1  0
 27 28  2  0
 22 29  2  0
 29 30  1  0
 30 31  2  0
 31 32  1  0
 31  9  1  0
 17 12  1  0
 30 18  1  0
 28 23  1  0
  4 33  1  0
  4 34  1  0
  5 35  1  0
  5 36  1  0
  6 37  1  0
 13 38  1  0
 14 39  1  0
 15 40  1  0
 17 41  1  0
 24 42  1  0
 25 43  1  0
 26 44  1  0
 27 45  1  0
 28 46  1  0
M  CHG  3   3  -1  21  -1  32  -1
M  END
>  <UniqueID>  (66) 
61

>  <SMILES>  (66) 
O=C([O-])CCNC(=O)c1nc(-c2cccnc2)c2c(=O)[n-]c(-c3ccccc3)nc2c1[O-]

>  <Energy>  (66) 
68.43090459239559

>  <Genealogy>  (66) 
O=C([O-])CCNC(=O)c1nc(-c2cccnc2)c2c(=O)[n-]c(-c3ccccc3)nc2c1[O-] (protonated)
O=C([O-])CCNC(=O)c1nc(-c2cccnc2)c2c(=O)[n-]c(-c3ccccc3)nc2c1[O-] (3D coordinates assigned)
O=C([O-])CCNC(=O)c1nc(-c2cccnc2)c2c(=O)[n-]c(-c3ccccc3)nc2c1[O-] (optimized conformer: 68.43090459239559 kcal/mol)

>  <smiles>  (66) 
O=C(O)CCNC(=O)c1nc(-c2cccnc2)c2c(=O)[nH]c(-c3ccccc3)nc2c1O

>  <score_type>  (66) 
oracle

>  <origin>  (66) 
adg

>  <m_score__min__energy>  (66) 
-12.99

>  <m_primary>  (66) 
energy

$$$$
66:0
     RDKit          3D

 33 34  0  0  0  0  0  0  0  0999 V2000
   55.9850   29.8280   44.8750 O   0  0  0  0  0  0  0  0  0  0  0  0
   57.0810   29.5730   44.3040 C   0  0  0  0  0  0  0  0  0  0  0  0
   57.4950   28.1470   44.1100 C   0  0  0  0  0  0  0  0  0  0  0  0
   58.0240   27.4070   45.6930 S   0  0  0  0  0  0  0  0  0  0  0  0
   57.2400   25.8150   45.3910 C   0  0  0  0  0  0  0  0  0  0  0  0
   58.0180   24.7420   44.9420 C   0  0  0  0  0  0  0  0  0  0  0  0
   57.4140   23.5050   44.7130 C   0  0  0  0  0  0  0  0  0  0  0  0
   56.0440   23.3540   44.9260 C   0  0  0  0  0  0  0  0  0  0  0  0
   55.2950   24.4480   45.3640 C   0  0  0  0  0  0  0  0  0  0  0  0
   55.8960   25.6510   45.5840 N   0  0  0  0  0  0  0  0  0  0  0  0
   55.1260   26.7120   46.0020 O   0  0  0  0  0  0  0  0  0  0  0  0
   57.9100   30.6350   43.8150 N   0  0  0  0  0  0  0  0  0  0  0  0
   57.5400   32.0420   43.9440 C   0  0  0  0  0  0  0  0  0  0  0  0
   58.2170   32.6550   45.1410 C   0  0  0  0  0  0  0  0  0  0  0  0
   58.9740   31.8560   46.0150 C   0  0  0  0  0  0  0  0  0  0  0  0
   59.6180   32.4300   47.1150 C   0  0  0  0  0  0  0  0  0  0  0  0
   59.5170   33.8030   47.3490 C   0  0  0  0  0  0  0  0  0  0  0  0
   58.7710   34.6070   46.4820 C   0  0  0  0  0  0  0  0  0  0  0  0
   58.1230   34.0390   45.3790 C   0  0  0  0  0  0  0  0  0  0  0  0
   57.4090   34.8360   44.5450 F   0  0  0  0  0  0  0  0  0  0  0  0
   56.6443   27.5753   43.7106 H   0  0  0  0  0  0  0  0  0  0  0  0
   58.3396   28.1168   43.4060 H   0  0  0  0  0  0  0  0  0  0  0  0
   59.0968   24.8725   44.7710 H   0  0  0  0  0  0  0  0  0  0  0  0
   58.0161   22.6524   44.3659 H   0  0  0  0  0  0  0  0  0  0  0  0
   55.5583   22.3827   44.7507 H   0  0  0  0  0  0  0  0  0  0  0  0
   54.2135   24.3381   45.5324 H   0  0  0  0  0  0  0  0  0  0  0  0
   58.7990   30.3960   43.3210 H   0  0  0  0  0  0  0  0  0  0  0  0
   57.8483   32.5825   43.0369 H   0  0  0  0  0  0  0  0  0  0  0  0
   56.4502   32.1139   44.0747 H   0  0  0  0  0  0  0  0  0  0  0  0
   59.0601   30.7746   45.8327 H   0  0  0  0  0  0  0  0  0  0  0  0
   60.2056   31.7987   47.7978 H   0  0  0  0  0  0  0  0  0  0  0  0
   60.0244   34.2520   48.2156 H   0  0  0  0  0  0  0  0  0  0  0  0
   58.6931   35.6885   46.6671 H   0  0  0  0  0  0  0  0  0  0  0  0
  1  2  2  0
  2  3  1  0
  3  4  1  0
  4  5  1  0
  5  6  2  0
  6  7  1  0
  7  8  2  0
  8  9  1  0
  9 10  2  0
 10 11  1  0
  2 12  1  0
 12 13  1  0
 13 14  1  0
 14 15  2  0
 15 16  1  0
 16 17  2  0
 17 18  1  0
 18 19  2  0
 19 20  1  0
 10  5  1  0
 19 14  1  0
  3 21  1  0
  3 22  1  0
  6 23  1  0
  7 24  1  0
  8 25  1  0
  9 26  1  0
 12 27  1  0
 13 28  1  0
 13 29  1  0
 15 30  1  0
 16 31  1  0
 17 32  1  0
 18 33  1  0
M  CHG  2  10   1  11  -1
M  END
>  <UniqueID>  (67) 
62

>  <SMILES>  (67) 
O=C(CSc1cccc[n+]1[O-])NCc1ccccc1F

>  <Energy>  (67) 
26.49011078042231

>  <Genealogy>  (67) 
O=C(CSc1cccc[n+]1[O-])NCc1ccccc1F (3D coordinates assigned)
O=C(CSc1cccc[n+]1[O-])NCc1ccccc1F (optimized conformer: 26.49011078042231 kcal/mol)

>  <smiles>  (67) 
O=C(CSc1cccc[n+]1[O-])NCc1ccccc1F

>  <score_type>  (67) 
oracle

>  <origin>  (67) 
adg

>  <m_score__min__energy>  (67) 
-8.8699999999999992

>  <m_primary>  (67) 
energy

$$$$
67:0
     RDKit          3D

 37 39  0  0  1  0  0  0  0  0999 V2000
   60.3770   31.0560   48.2020 C   0  0  0  0  0  0  0  0  0  0  0  0
   61.4970   31.9640   47.9580 C   0  0  0  0  0  0  0  0  0  0  0  0
   62.6720   31.8060   48.5980 N   0  0  0  0  0  0  0  0  0  0  0  0
   63.7350   32.6030   48.4100 C   0  0  0  0  0  0  0  0  0  0  0  0
   64.7870   32.3350   49.0860 O   0  0  0  0  0  0  0  0  0  0  0  0
   63.6790   33.6590   47.5260 C   0  0  0  0  0  0  0  0  0  0  0  0
   62.4840   33.8510   46.8500 C   0  0  0  0  0  0  0  0  0  0  0  0
   61.4270   33.0210   47.0680 C   0  0  0  0  0  0  0  0  0  0  0  0
   60.1860   33.3010   46.3190 C   0  0  0  0  0  0  0  0  0  0  0  0
   59.4760   32.5500   45.6130 N   0  0  0  0  0  0  0  0  0  0  0  0
   58.3820   32.9010   44.9890 C   0  0  0  0  0  0  0  0  0  0  0  0
   57.5330   32.0110   44.1570 C   0  0  0  0  0  0  0  0  0  0  0  0
   57.4320   32.3190   42.9500 O   0  0  0  0  0  0  0  0  0  0  0  0
   56.9240   30.9080   44.7880 N   0  0  0  0  0  0  0  0  0  0  0  0
   57.4510   29.7940   45.0840 C   0  0  0  0  0  0  0  0  0  0  0  0
   56.6240   28.6960   45.2740 C   0  0  0  0  0  0  0  0  0  0  0  0
   57.2290   27.4910   45.6070 C   0  0  0  0  0  0  0  0  0  0  0  0
   56.4020   26.3120   45.8200 C   0  0  0  0  0  0  0  0  0  0  0  0
   57.0700   25.0340   45.8230 N   0  0  0  0  0  0  0  0  0  0  0  0
   55.1570   26.3670   45.9960 O   0  0  0  0  0  0  0  0  0  0  0  0
   58.5890   27.4490   45.7320 N   0  0  0  0  0  0  0  0  0  0  0  0
   59.3360   28.5530   45.5350 C   0  0  0  0  0  0  0  0  0  0  0  0
   58.7850   29.7330   45.2090 N   0  0  0  0  0  0  0  0  0  0  0  0
   58.0180   34.2270   45.1530 C   0  0  0  0  0  0  0  0  0  0  0  0
   59.3670   34.8940   46.2610 S   0  0  0  0  0  0  0  0  0  0  0  0
   60.2306   30.9373   49.2857 H   0  0  0  0  0  0  0  0  0  0  0  0
   59.4633   31.4715   47.7519 H   0  0  0  0  0  0  0  0  0  0  0  0
   60.5946   30.0762   47.7519 H   0  0  0  0  0  0  0  0  0  0  0  0
   62.7440   31.0090   49.2800 H   0  0  0  0  0  0  0  0  0  0  0  0
   64.5435   34.3196   47.3642 H   0  0  0  0  0  0  0  0  0  0  0  0
   62.3892   34.6795   46.1327 H   0  0  0  0  0  0  0  0  0  0  0  0
   55.5324   28.7768   45.1652 H   0  0  0  0  0  0  0  0  0  0  0  0
   57.0460   24.4000   45.0130 H   0  0  0  0  0  0  0  0  0  0  0  0
   57.5730   24.8250   46.7310 H   0  0  0  0  0  0  0  0  0  0  0  0
   60.4285   28.4855   45.6444 H   0  0  0  0  0  0  0  0  0  0  0  0
   59.3720   30.5730   45.0580 H   0  0  0  0  0  0  0  0  0  0  0  0
   57.1495   34.7567   44.7345 H   0  0  0  0  0  0  0  0  0  0  0  0
  1  2  1  0
  2  3  1  0
  3  4  1  0
  4  5  2  0
  4  6  1  0
  6  7  2  0
  7  8  1  0
  8  9  1  0
  9 10  2  0
 10 11  1  0
 11 12  1  0
 12 13  2  0
 12 14  1  0
 14 15  2  0
 15 16  1  0
 16 17  2  0
 17 18  1  0
 18 19  1  0
 18 20  2  0
 17 21  1  0
 21 22  2  0
 22 23  1  0
 11 24  2  0
 24 25  1  0
  8  2  2  0
 25  9  1  0
 23 15  1  0
  1 26  1  0
  1 27  1  0
  1 28  1  0
  3 29  1  0
  6 30  1  0
  7 31  1  0
 16 32  1  0
 19 33  1  0
 19 34  1  0
 22 35  1  0
 23 36  1  0
 24 37  1  0
M  END
>  <smiles>  (68) 
Cc1[nH]c(=O)ccc1-c1nc(C(=O)N=c2cc(C(N)=O)nc[nH]2)cs1

>  <score_type>  (68) 
oracle

>  <origin>  (68) 
adg

>  <m_score__min__energy>  (68) 
-8.1300000000000008

>  <m_primary>  (68) 
energy

$$$$
68:0
     RDKit          3D

 48 51  0  0  0  0  0  0  0  0999 V2000
   55.9380   27.3370   46.2380 H   0  0  0  0  0  0  0  0  0  0  0  0
   55.3260   26.5580   46.0340 O   0  0  0  0  0  0  0  0  0  0  0  0
   55.8290   25.2820   45.7790 C   0  0  0  0  0  0  0  0  0  0  0  0
   55.1820   24.4410   44.8590 C   0  0  0  0  0  0  0  0  0  0  0  0
   54.2608   24.7791   44.3619 H   0  0  0  0  0  0  0  0  0  0  0  0
   55.7040   23.1750   44.5720 C   0  0  0  0  0  0  0  0  0  0  0  0
   55.1938   22.5211   43.8494 H   0  0  0  0  0  0  0  0  0  0  0  0
   56.8720   22.7410   45.2020 C   0  0  0  0  0  0  0  0  0  0  0  0
   57.2820   21.7458   44.9751 H   0  0  0  0  0  0  0  0  0  0  0  0
   57.5210   23.5720   46.1220 C   0  0  0  0  0  0  0  0  0  0  0  0
   58.4508   23.2339   46.6028 H   0  0  0  0  0  0  0  0  0  0  0  0
   56.9930   24.8340   46.4350 C   0  0  0  0  0  0  0  0  0  0  0  0
   57.7060   25.6840   47.4050 C   0  0  0  0  0  0  0  0  0  0  0  0
   57.7777   25.3366   48.4462 H   0  0  0  0  0  0  0  0  0  0  0  0
   58.2710   26.8550   47.0890 C   0  0  0  0  0  0  0  0  0  0  0  0
   58.1090   27.4850   45.8250 N   0  0  0  0  0  0  0  0  0  0  0  0
   58.8750   28.5350   45.8170 C   0  0  0  0  0  0  0  0  0  0  0  0
   59.0330   29.5640   44.3560 S   0  0  0  0  0  0  0  0  0  0  0  0
   57.3900   29.1280   43.6890 C   0  0  0  0  0  0  0  0  0  0  0  0
   57.2618   28.0361   43.7266 H   0  0  0  0  0  0  0  0  0  0  0  0
   57.3220   29.4813   42.6495 H   0  0  0  0  0  0  0  0  0  0  0  0
   56.3100   29.7790   44.4940 C   0  0  0  0  0  0  0  0  0  0  0  0
   55.5280   29.0640   45.1730 O   0  0  0  0  0  0  0  0  0  0  0  0
   56.2070   31.2120   44.4990 N   0  0  0  0  0  0  0  0  0  0  0  0
   57.1100   32.0980   44.8150 C   0  0  0  0  0  0  0  0  0  0  0  0
   57.3730   32.3000   46.1370 N   0  0  0  0  0  0  0  0  0  0  0  0
   58.3270   33.1690   46.5690 C   0  0  0  0  0  0  0  0  0  0  0  0
   58.5044   33.3014   47.6465 H   0  0  0  0  0  0  0  0  0  0  0  0
   59.0780   33.8900   45.6450 C   0  0  0  0  0  0  0  0  0  0  0  0
   59.8488   34.5968   45.9861 H   0  0  0  0  0  0  0  0  0  0  0  0
   58.8430   33.7070   44.2800 C   0  0  0  0  0  0  0  0  0  0  0  0
   59.4263   34.2761   43.5411 H   0  0  0  0  0  0  0  0  0  0  0  0
   57.8680   32.8020   43.8520 C   0  0  0  0  0  0  0  0  0  0  0  0
   57.6926   32.6395   42.7783 H   0  0  0  0  0  0  0  0  0  0  0  0
   59.6220   28.7440   47.0240 N   0  0  0  0  0  0  0  0  0  0  0  0
   60.1100   30.0090   47.4980 C   0  0  0  0  0  0  0  0  0  0  0  0
   59.5560   30.5990   48.6460 C   0  0  0  0  0  0  0  0  0  0  0  0
   58.7558   30.0819   49.1959 H   0  0  0  0  0  0  0  0  0  0  0  0
   60.0180   31.8420   49.0930 C   0  0  0  0  0  0  0  0  0  0  0  0
   59.5778   32.3008   49.9906 H   0  0  0  0  0  0  0  0  0  0  0  0
   61.0380   32.5020   48.4010 C   0  0  0  0  0  0  0  0  0  0  0  0
   61.3968   33.4811   48.7510 H   0  0  0  0  0  0  0  0  0  0  0  0
   61.6010   31.9160   47.2640 C   0  0  0  0  0  0  0  0  0  0  0  0
   62.4078   32.4318   46.7227 H   0  0  0  0  0  0  0  0  0  0  0  0
   61.1400   30.6740   46.8130 C   0  0  0  0  0  0  0  0  0  0  0  0
   61.5865   30.2165   45.9178 H   0  0  0  0  0  0  0  0  0  0  0  0
   59.2220   27.6520   47.8380 C   0  0  0  0  0  0  0  0  0  0  0  0
   59.7060   27.3980   48.9730 O   0  0  0  0  0  0  0  0  0  0  0  0
  1  2  1  0
  2  3  1  0
  3  4  2  0
  4  5  1  0
  4  6  1  0
  6  7  1  0
  6  8  2  0
  8  9  1  0
  8 10  1  0
 10 11  1  0
 10 12  2  0
 12 13  1  0
 13 14  1  0
 13 15  2  0
 15 16  1  0
 16 17  2  0
 17 18  1  0
 18 19  1  0
 19 20  1  0
 19 21  1  0
 19 22  1  0
 22 23  2  0
 22 24  1  0
 24 25  2  3
 25 26  1  0
 26 27  1  0
 27 28  1  0
 27 29  2  0
 29 30  1  0
 29 31  1  0
 31 32  1  0
 31 33  2  0
 33 34  1  0
 17 35  1  0
 35 36  1  0
 36 37  2  0
 37 38  1  0
 37 39  1  0
 39 40  1  0
 39 41  2  0
 41 42  1  0
 41 43  1  0
 43 44  1  0
 43 45  2  0
 45 46  1  0
 35 47  1  0
 47 48  2  0
 12  3  1  0
 47 15  1  0
 33 25  1  0
 45 36  1  0
M  CHG  1  26  -1
M  END
>  <UniqueID>  (69) 
63

>  <SMILES>  (69) 
O=C(CSC1=N/C(=C/c2ccccc2O)C(=O)N1c1ccccc1)N=c1cccc[n-]1

>  <Energy>  (69) 
96.02527731157332

>  <Genealogy>  (69) 
O=C(CSC1=NC(=Cc2ccccc2O)C(=O)N1c1ccccc1)N=c1cccc[n-]1 (protonated)
O=C(CSC1=N/C(=C/c2ccccc2O)C(=O)N1c1ccccc1)N=c1cccc[n-]1 (cis-trans isomerization)
O=C(CSC1=N/C(=C/c2ccccc2O)C(=O)N1c1ccccc1)N=c1cccc[n-]1 (3D coordinates assigned)
O=C(CSC1=N/C(=C/c2ccccc2O)C(=O)N1c1ccccc1)N=c1cccc[n-]1 (nonaromatic ring conformer: 96.02527731157332 kcal/mol)

>  <smiles>  (69) 
O=C(CSC1=NC(=Cc2ccccc2O)C(=O)N1c1ccccc1)N=c1cccc[nH]1

>  <score_type>  (69) 
oracle

>  <origin>  (69) 
adg

>  <m_score__min__energy>  (69) 
-10.609999999999999

>  <m_primary>  (69) 
energy

$$$$
69:0
     RDKit          3D

 59 62  0  0  0  0  0  0  0  0999 V2000
   59.5990   30.2720   48.8630 C   0  0  0  0  0  0  0  0  0  0  0  0
   58.9400   31.3190   47.9790 C   0  0  0  0  0  0  0  0  0  0  0  0
   58.4480   30.8630   46.7390 C   0  0  0  0  0  0  0  0  0  0  0  0
   57.8440   31.7330   45.8220 C   0  0  0  0  0  0  0  0  0  0  0  0
   57.3130   31.1770   44.6180 N   0  0  0  0  0  0  0  0  0  0  0  0
   56.7730   29.5510   44.3360 S   0  0  0  0  0  0  0  0  0  0  0  0
   55.3760   29.4400   44.8900 O   0  0  0  0  0  0  0  0  0  0  0  0
   56.7080   29.2890   42.8540 O   0  0  0  0  0  0  0  0  0  0  0  0
   57.7710   28.3030   45.0960 C   0  0  0  0  0  0  0  0  0  0  0  0
   59.1700   28.4430   45.0410 C   0  0  0  0  0  0  0  0  0  0  0  0
   60.0120   27.4960   45.6430 C   0  0  0  0  0  0  0  0  0  0  0  0
   59.4690   26.3580   46.2430 C   0  0  0  0  0  0  0  0  0  0  0  0
   58.0780   26.1980   46.3010 C   0  0  0  0  0  0  0  0  0  0  0  0
   57.2190   27.1740   45.7540 C   0  0  0  0  0  0  0  0  0  0  0  0
   55.8080   27.0530   45.9710 N   0  0  0  0  0  0  0  0  0  0  0  0
   57.7010   33.0820   46.1570 C   0  0  0  0  0  0  0  0  0  0  0  0
   58.1590   33.5580   47.3920 C   0  0  0  0  0  0  0  0  0  0  0  0
   58.7620   32.6940   48.3350 C   0  0  0  0  0  0  0  0  0  0  0  0
   59.1590   33.2950   49.5480 O   0  0  0  0  0  0  0  0  0  0  0  0
   58.9560   32.8170   50.8400 C   0  0  0  0  0  0  0  0  0  0  0  0
   57.6970   32.5120   51.2490 N   0  0  0  0  0  0  0  0  0  0  0  0
   57.4550   32.1350   52.5280 C   0  0  0  0  0  0  0  0  0  0  0  0
   58.4730   32.0880   53.4300 N   0  0  0  0  0  0  0  0  0  0  0  0
   59.7590   32.3500   53.0740 C   0  0  0  0  0  0  0  0  0  0  0  0
   60.8210   32.2450   54.1290 C   0  0  0  0  0  0  0  0  0  0  0  0
   60.0470   32.6880   51.7280 C   0  0  0  0  0  0  0  0  0  0  0  0
   61.7060   32.8460   51.0830 S   0  0  0  0  0  0  0  0  0  0  0  0
   62.5860   31.8130   51.7320 O   0  0  0  0  0  0  0  0  0  0  0  0
   62.2780   34.1790   51.4500 O   0  0  0  0  0  0  0  0  0  0  0  0
   61.7370   32.6470   49.3390 N   0  0  0  0  0  0  0  0  0  0  0  0
   62.8200   31.7220   48.9610 C   0  0  0  0  0  0  0  0  0  0  0  0
   63.1870   31.8550   47.4650 C   0  0  0  0  0  0  0  0  0  0  0  0
   62.1260   32.4490   46.7400 O   0  0  0  0  0  0  0  0  0  0  0  0
   61.9600   33.7930   47.1560 C   0  0  0  0  0  0  0  0  0  0  0  0
   61.9290   33.9560   48.6960 C   0  0  0  0  0  0  0  0  0  0  0  0
   59.4367   30.5298   49.9200 H   0  0  0  0  0  0  0  0  0  0  0  0
   59.1584   29.2859   48.6543 H   0  0  0  0  0  0  0  0  0  0  0  0
   60.6786   30.2428   48.6543 H   0  0  0  0  0  0  0  0  0  0  0  0
   58.5408   29.7968   46.4850 H   0  0  0  0  0  0  0  0  0  0  0  0
   59.6092   29.3061   44.5193 H   0  0  0  0  0  0  0  0  0  0  0  0
   61.1012   27.6501   45.6424 H   0  0  0  0  0  0  0  0  0  0  0  0
   60.1310   25.5896   46.6688 H   0  0  0  0  0  0  0  0  0  0  0  0
   57.6520   25.3028   46.7776 H   0  0  0  0  0  0  0  0  0  0  0  0
   55.1400   27.4990   45.2920 H   0  0  0  0  0  0  0  0  0  0  0  0
   55.4170   26.3940   46.6750 H   0  0  0  0  0  0  0  0  0  0  0  0
   57.2258   33.7743   45.4464 H   0  0  0  0  0  0  0  0  0  0  0  0
   58.0474   34.6254   47.6332 H   0  0  0  0  0  0  0  0  0  0  0  0
   56.4342   31.8666   52.8376 H   0  0  0  0  0  0  0  0  0  0  0  0
   60.3549   32.2911   55.1243 H   0  0  0  0  0  0  0  0  0  0  0  0
   61.3549   31.2897   54.0180 H   0  0  0  0  0  0  0  0  0  0  0  0
   61.5316   33.0773   54.0180 H   0  0  0  0  0  0  0  0  0  0  0  0
   63.7094   31.9469   49.5679 H   0  0  0  0  0  0  0  0  0  0  0  0
   62.4718   30.6939   49.1394 H   0  0  0  0  0  0  0  0  0  0  0  0
   64.0858   32.4817   47.3681 H   0  0  0  0  0  0  0  0  0  0  0  0
   63.3756   30.8512   47.0567 H   0  0  0  0  0  0  0  0  0  0  0  0
   62.7955   34.3877   46.7583 H   0  0  0  0  0  0  0  0  0  0  0  0
   60.9883   34.1364   46.7715 H   0  0  0  0  0  0  0  0  0  0  0  0
   62.8804   34.3918   49.0350 H   0  0  0  0  0  0  0  0  0  0  0  0
   61.0949   34.6182   48.9713 H   0  0  0  0  0  0  0  0  0  0  0  0
  1  2  1  0
  2  3  2  0
  3  4  1  0
  4  5  1  0
  5  6  1  0
  6  7  2  0
  6  8  2  0
  6  9  1  0
  9 10  2  0
 10 11  1  0
 11 12  2  0
 12 13  1  0
 13 14  2  0
 14 15  1  0
  4 16  2  0
 16 17  1  0
 17 18  2  0
 18 19  1  0
 19 20  1  0
 20 21  2  0
 21 22  1  0
 22 23  2  0
 23 24  1  0
 24 25  1  0
 24 26  2  0
 26 27  1  0
 27 28  2  0
 27 29  2  0
 27 30  1  0
 30 31  1  0
 31 32  1  0
 32 33  1  0
 33 34  1  0
 34 35  1  0
 18  2  1  0
 26 20  1  0
 35 30  1  0
 14  9  1  0
  1 36  1  0
  1 37  1  0
  1 38  1  0
  3 39  1  0
 10 40  1  0
 11 41  1  0
 12 42  1  0
 13 43  1  0
 15 44  1  0
 15 45  1  0
 16 46  1  0
 17 47  1  0
 22 48  1  0
 25 49  1  0
 25 50  1  0
 25 51  1  0
 31 52  1  0
 31 53  1  0
 32 54  1  0
 32 55  1  0
 34 56  1  0
 34 57  1  0
 35 58  1  0
 35 59  1  0
M  CHG  1   5  -1
M  END
>  <UniqueID>  (70) 
64

>  <SMILES>  (70) 
Cc1cc([N-]S(=O)(=O)c2ccccc2N)ccc1Oc1ncnc(C)c1S(=O)(=O)N1CCOCC1

>  <Energy>  (70) 
101.94320597369038

>  <Genealogy>  (70) 
Cc1cc([N-]S(=O)(=O)c2ccccc2N)ccc1Oc1ncnc(C)c1S(=O)(=O)N1CCOCC1 (protonated)
Cc1cc([N-]S(=O)(=O)c2ccccc2N)ccc1Oc1ncnc(C)c1S(=O)(=O)N1CCOCC1 (3D coordinates assigned)
Cc1cc([N-]S(=O)(=O)c2ccccc2N)ccc1Oc1ncnc(C)c1S(=O)(=O)N1CCOCC1 (nonaromatic ring conformer: 101.94320597369038 kcal/mol)

>  <smiles>  (70) 
Cc1cc(NS(=O)(=O)c2ccccc2N)ccc1Oc1ncnc(C)c1S(=O)(=O)N1CCOCC1

>  <score_type>  (70) 
oracle

>  <origin>  (70) 
adg

>  <m_score__min__energy>  (70) 
-12.220000000000001

>  <m_primary>  (70) 
energy

$$$$
70:0
     RDKit          3D

 41 43  0  0  0  0  0  0  0  0999 V2000
   61.1050   30.3300   46.8630 O   0  0  0  0  0  0  0  0  0  0  0  0
   60.1290   30.2540   46.0680 C   0  0  0  0  0  0  0  0  0  0  0  0
   60.0780   29.1540   45.0530 C   0  0  0  0  0  0  0  0  0  0  0  0
   58.8130   28.4190   45.2010 N   0  0  0  0  0  0  0  0  0  0  0  0
   58.8390   27.1690   45.7560 C   0  0  0  0  0  0  0  0  0  0  0  0
   57.6550   26.4920   46.0460 C   0  0  0  0  0  0  0  0  0  0  0  0
   56.4250   27.1040   45.7780 C   0  0  0  0  0  0  0  0  0  0  0  0
   55.1880   26.4600   46.1160 N   0  0  0  0  0  0  0  0  0  0  0  0
   54.7480   25.1930   45.6060 C   0  0  0  0  0  0  0  0  0  0  0  0
   53.5160   24.9320   45.6210 O   0  0  0  0  0  0  0  0  0  0  0  0
   55.7100   24.1690   45.1340 C   0  0  0  0  0  0  0  0  0  0  0  0
   55.7130   23.7450   43.7940 C   0  0  0  0  0  0  0  0  0  0  0  0
   56.6310   22.7740   43.3840 C   0  0  0  0  0  0  0  0  0  0  0  0
   57.5290   22.2320   44.3040 C   0  0  0  0  0  0  0  0  0  0  0  0
   57.4930   22.6680   45.6290 C   0  0  0  0  0  0  0  0  0  0  0  0
   56.5920   23.6110   46.0110 N   0  0  0  0  0  0  0  0  0  0  0  0
   56.4060   28.3580   45.1650 C   0  0  0  0  0  0  0  0  0  0  0  0
   55.1940   28.9640   44.8510 O   0  0  0  0  0  0  0  0  0  0  0  0
   57.6140   29.0150   44.8940 C   0  0  0  0  0  0  0  0  0  0  0  0
   57.5850   30.1670   44.3810 O   0  0  0  0  0  0  0  0  0  0  0  0
   59.0800   31.2310   46.1100 N   0  0  0  0  0  0  0  0  0  0  0  0
   59.2850   32.6200   46.4180 C   0  0  0  0  0  0  0  0  0  0  0  0
   59.4960   33.0030   47.7530 C   0  0  0  0  0  0  0  0  0  0  0  0
   59.6540   34.3510   48.0870 C   0  0  0  0  0  0  0  0  0  0  0  0
   59.5870   35.3310   47.0940 C   0  0  0  0  0  0  0  0  0  0  0  0
   59.3560   34.9650   45.7660 C   0  0  0  0  0  0  0  0  0  0  0  0
   59.1970   33.6180   45.4260 C   0  0  0  0  0  0  0  0  0  0  0  0
   60.1383   29.5830   44.0419 H   0  0  0  0  0  0  0  0  0  0  0  0
   60.9244   28.4686   45.2075 H   0  0  0  0  0  0  0  0  0  0  0  0
   59.8055   26.6922   45.9762 H   0  0  0  0  0  0  0  0  0  0  0  0
   57.6874   25.4830   46.4828 H   0  0  0  0  0  0  0  0  0  0  0  0
   54.9995   24.1733   43.0746 H   0  0  0  0  0  0  0  0  0  0  0  0
   56.6454   22.4374   42.3369 H   0  0  0  0  0  0  0  0  0  0  0  0
   58.2568   21.4699   43.9885 H   0  0  0  0  0  0  0  0  0  0  0  0
   58.1945   22.2481   46.3650 H   0  0  0  0  0  0  0  0  0  0  0  0
   58.1180   30.9210   45.8410 H   0  0  0  0  0  0  0  0  0  0  0  0
   59.5372   32.2366   48.5410 H   0  0  0  0  0  0  0  0  0  0  0  0
   59.8313   34.6405   49.1333 H   0  0  0  0  0  0  0  0  0  0  0  0
   59.7162   36.3911   47.3578 H   0  0  0  0  0  0  0  0  0  0  0  0
   59.2990   35.7383   44.9857 H   0  0  0  0  0  0  0  0  0  0  0  0
   59.0025   33.3360   44.3807 H   0  0  0  0  0  0  0  0  0  0  0  0
  1  2  2  0
  2  3  1  0
  3  4  1  0
  4  5  1  0
  5  6  2  0
  6  7  1  0
  7  8  1  0
  8  9  1  0
  9 10  2  0
  9 11  1  0
 11 12  2  0
 12 13  1  0
 13 14  2  0
 14 15  1  0
 15 16  2  0
  7 17  2  0
 17 18  1  0
 17 19  1  0
 19 20  2  0
  2 21  1  0
 21 22  1  0
 22 23  2  0
 23 24  1  0
 24 25  2  0
 25 26  1  0
 26 27  2  0
 19  4  1  0
 27 22  1  0
 16 11  1  0
  3 28  1  0
  3 29  1  0
  5 30  1  0
  6 31  1  0
 12 32  1  0
 13 33  1  0
 14 34  1  0
 15 35  1  0
 21 36  1  0
 23 37  1  0
 24 38  1  0
 25 39  1  0
 26 40  1  0
 27 41  1  0
M  CHG  2   8  -1  18  -1
M  END
>  <UniqueID>  (71) 
65

>  <SMILES>  (71) 
O=C(Cn1ccc([N-]C(=O)c2ccccn2)c([O-])c1=O)Nc1ccccc1

>  <Energy>  (71) 
54.04533190533034

>  <Genealogy>  (71) 
O=C(Cn1ccc([N-]C(=O)c2ccccn2)c([O-])c1=O)Nc1ccccc1 (protonated)
O=C(Cn1ccc([N-]C(=O)c2ccccn2)c([O-])c1=O)Nc1ccccc1 (3D coordinates assigned)
O=C(Cn1ccc([N-]C(=O)c2ccccn2)c([O-])c1=O)Nc1ccccc1 (optimized conformer: 54.04533190533034 kcal/mol)

>  <smiles>  (71) 
O=C(Cn1ccc(NC(=O)c2ccccn2)c(O)c1=O)Nc1ccccc1

>  <score_type>  (71) 
oracle

>  <origin>  (71) 
adg

>  <m_score__min__energy>  (71) 
-13.970000000000001

>  <m_primary>  (71) 
energy

$$$$
71:0
     RDKit          3D

 50 52  0  0  0  0  0  0  0  0999 V2000
   57.9210   31.5160   42.8370 O   0  0  0  0  0  0  0  0  0  0  0  0
   57.1340   31.1340   43.7450 C   0  0  0  0  0  0  0  0  0  0  0  0
   56.2910   29.9170   43.5220 C   0  0  0  0  0  0  0  0  0  0  0  0
   55.8770   29.3640   44.8180 N   0  0  0  0  0  0  0  0  0  0  0  0
   56.7450   28.2550   45.2420 C   0  0  0  0  0  0  0  0  0  0  0  0
   58.1530   28.7140   45.5390 C   0  0  0  0  0  0  0  0  0  0  0  0
   59.1800   28.5110   44.6010 C   0  0  0  0  0  0  0  0  0  0  0  0
   60.4770   28.9600   44.8690 C   0  0  0  0  0  0  0  0  0  0  0  0
   60.7570   29.6170   46.0710 C   0  0  0  0  0  0  0  0  0  0  0  0
   59.7390   29.8280   47.0060 C   0  0  0  0  0  0  0  0  0  0  0  0
   58.4410   29.3810   46.7410 C   0  0  0  0  0  0  0  0  0  0  0  0
   57.0220   31.8660   44.9750 N   0  0  0  0  0  0  0  0  0  0  0  0
   57.9210   32.9140   45.3750 C   0  0  0  0  0  0  0  0  0  0  0  0
   58.2330   33.9820   44.5130 C   0  0  0  0  0  0  0  0  0  0  0  0
   59.1230   34.9790   44.9210 C   0  0  0  0  0  0  0  0  0  0  0  0
   59.7220   34.9140   46.1820 C   0  0  0  0  0  0  0  0  0  0  0  0
   59.4440   33.8390   47.0360 C   0  0  0  0  0  0  0  0  0  0  0  0
   60.1810   33.7510   48.6350 S   0  0  0  0  0  0  0  0  0  0  0  0
   59.6980   32.5220   49.3550 O   0  0  0  0  0  0  0  0  0  0  0  0
   59.7680   34.9620   49.4250 O   0  0  0  0  0  0  0  0  0  0  0  0
   61.9190   33.7170   48.4790 N   0  0  0  0  0  0  0  0  0  0  0  0
   62.2950   33.4540   47.0770 C   0  0  0  0  0  0  0  0  0  0  0  0
   63.7970   33.1240   46.9620 C   0  0  0  0  0  0  0  0  0  0  0  0
   64.4800   33.4550   48.1540 O   0  0  0  0  0  0  0  0  0  0  0  0
   64.0160   32.6410   49.2160 C   0  0  0  0  0  0  0  0  0  0  0  0
   62.4800   32.6810   49.3580 C   0  0  0  0  0  0  0  0  0  0  0  0
   58.5460   32.8430   46.6290 C   0  0  0  0  0  0  0  0  0  0  0  0
   55.3996   30.1904   42.9384 H   0  0  0  0  0  0  0  0  0  0  0  0
   56.8732   29.1637   42.9710 H   0  0  0  0  0  0  0  0  0  0  0  0
   55.9110   30.1230   45.5390 H   0  0  0  0  0  0  0  0  0  0  0  0
   56.3215   27.8009   46.1500 H   0  0  0  0  0  0  0  0  0  0  0  0
   56.7933   27.5294   44.4167 H   0  0  0  0  0  0  0  0  0  0  0  0
   58.9628   27.9972   43.6529 H   0  0  0  0  0  0  0  0  0  0  0  0
   61.2780   28.7961   44.1331 H   0  0  0  0  0  0  0  0  0  0  0  0
   61.7781   29.9679   46.2811 H   0  0  0  0  0  0  0  0  0  0  0  0
   59.9595   30.3461   47.9509 H   0  0  0  0  0  0  0  0  0  0  0  0
   57.6418   29.5525   47.4772 H   0  0  0  0  0  0  0  0  0  0  0  0
   56.1870   31.6790   45.5760 H   0  0  0  0  0  0  0  0  0  0  0  0
   57.7745   34.0320   43.5144 H   0  0  0  0  0  0  0  0  0  0  0  0
   59.3529   35.8177   44.2475 H   0  0  0  0  0  0  0  0  0  0  0  0
   60.4123   35.7076   46.5041 H   0  0  0  0  0  0  0  0  0  0  0  0
   61.7094   32.6021   46.7009 H   0  0  0  0  0  0  0  0  0  0  0  0
   62.0871   34.3559   46.4826 H   0  0  0  0  0  0  0  0  0  0  0  0
   63.9151   32.0480   46.7664 H   0  0  0  0  0  0  0  0  0  0  0  0
   64.2238   33.7141   46.1376 H   0  0  0  0  0  0  0  0  0  0  0  0
   64.3267   31.6028   49.0274 H   0  0  0  0  0  0  0  0  0  0  0  0
   64.4500   33.0275   50.1500 H   0  0  0  0  0  0  0  0  0  0  0  0
   62.0631   31.7021   49.0790 H   0  0  0  0  0  0  0  0  0  0  0  0
   62.2205   32.9143   50.4012 H   0  0  0  0  0  0  0  0  0  0  0  0
   58.3292   31.9979   47.2989 H   0  0  0  0  0  0  0  0  0  0  0  0
  1  2  2  0
  2  3  1  0
  3  4  1  0
  4  5  1  0
  5  6  1  0
  6  7  2  0
  7  8  1  0
  8  9  2  0
  9 10  1  0
 10 11  2  0
  2 12  1  0
 12 13  1  0
 13 14  2  0
 14 15  1  0
 15 16  2  0
 16 17  1  0
 17 18  1  0
 18 19  2  0
 18 20  2  0
 18 21  1  0
 21 22  1  0
 22 23  1  0
 23 24  1  0
 24 25  1  0
 25 26  1  0
 17 27  2  0
 11  6  1  0
 27 13  1  0
 26 21  1  0
  3 28  1  0
  3 29  1  0
  4 30  1  0
  5 31  1  0
  5 32  1  0
  7 33  1  0
  8 34  1  0
  9 35  1  0
 10 36  1  0
 11 37  1  0
 12 38  1  0
 14 39  1  0
 15 40  1  0
 16 41  1  0
 22 42  1  0
 22 43  1  0
 23 44  1  0
 23 45  1  0
 25 46  1  0
 25 47  1  0
 26 48  1  0
 26 49  1  0
 27 50  1  0
M  END
>  <UniqueID>  (72) 
66

>  <SMILES>  (72) 
O=C(CNCc1ccccc1)Nc1cccc(S(=O)(=O)N2CCOCC2)c1

>  <Energy>  (72) 
59.757176505732154

>  <Genealogy>  (72) 
O=C(CNCc1ccccc1)Nc1cccc(S(=O)(=O)N2CCOCC2)c1 (3D coordinates assigned)
O=C(CNCc1ccccc1)Nc1cccc(S(=O)(=O)N2CCOCC2)c1 (nonaromatic ring conformer: 59.757176505732154 kcal/mol)

>  <smiles>  (72) 
O=C(CNCc1ccccc1)Nc1cccc(S(=O)(=O)N2CCOCC2)c1

>  <score_type>  (72) 
oracle

>  <origin>  (72) 
adg

>  <m_score__min__energy>  (72) 
-10.35

>  <m_primary>  (72) 
energy

$$$$
72:0
     RDKit          3D

 39 41  0  0  0  0  0  0  0  0999 V2000
   64.2164   32.8996   48.8607 H   0  0  0  0  0  0  0  0  0  0  0  0
   63.2920   33.2720   48.3950 C   0  0  0  0  0  0  0  0  0  0  0  0
   63.1980   33.3620   47.0020 C   0  0  0  0  0  0  0  0  0  0  0  0
   64.0473   33.0569   46.3730 H   0  0  0  0  0  0  0  0  0  0  0  0
   62.0240   33.8400   46.4080 C   0  0  0  0  0  0  0  0  0  0  0  0
   61.9508   33.9034   45.3123 H   0  0  0  0  0  0  0  0  0  0  0  0
   60.9390   34.2390   47.2060 C   0  0  0  0  0  0  0  0  0  0  0  0
   59.6610   34.7100   46.5670 C   0  0  0  0  0  0  0  0  0  0  0  0
   59.8988   35.3035   45.6719 H   0  0  0  0  0  0  0  0  0  0  0  0
   59.1039   35.3268   47.2876 H   0  0  0  0  0  0  0  0  0  0  0  0
   58.8210   33.5370   46.1740 C   0  0  0  0  0  0  0  0  0  0  0  0
   58.5620   32.4900   46.9880 N   0  0  0  0  0  0  0  0  0  0  0  0
   57.7680   31.5740   46.4350 N   0  0  0  0  0  0  0  0  0  0  0  0
   57.3770   31.8930   45.1830 C   0  0  0  0  0  0  0  0  0  0  0  0
   56.6250   31.1030   44.4730 N   0  0  0  0  0  0  0  0  0  0  0  0
   56.3340   29.7180   44.7150 C   0  0  0  0  0  0  0  0  0  0  0  0
   55.1410   29.3790   44.9350 O   0  0  0  0  0  0  0  0  0  0  0  0
   57.3820   28.6480   44.6300 C   0  0  0  0  0  0  0  0  0  0  0  0
   57.3007   28.1327   43.6616 H   0  0  0  0  0  0  0  0  0  0  0  0
   58.3780   29.1056   44.7226 H   0  0  0  0  0  0  0  0  0  0  0  0
   57.1910   27.6870   45.7070 N   0  0  0  0  0  0  0  0  0  0  0  0
   58.1300   27.5140   46.7720 C   0  0  0  0  0  0  0  0  0  0  0  0
   58.1740   26.4130   47.3870 O   0  0  0  0  0  0  0  0  0  0  0  0
   59.0550   28.6120   47.1540 C   0  0  0  0  0  0  0  0  0  0  0  0
   58.9420   29.2130   48.4230 C   0  0  0  0  0  0  0  0  0  0  0  0
   58.1642   28.8690   49.1206 H   0  0  0  0  0  0  0  0  0  0  0  0
   59.8070   30.2410   48.8050 C   0  0  0  0  0  0  0  0  0  0  0  0
   59.7046   30.7038   49.7976 H   0  0  0  0  0  0  0  0  0  0  0  0
   60.8000   30.6820   47.9310 C   0  0  0  0  0  0  0  0  0  0  0  0
   61.4804   31.4914   48.2342 H   0  0  0  0  0  0  0  0  0  0  0  0
   60.9300   30.0950   46.6700 C   0  0  0  0  0  0  0  0  0  0  0  0
   61.7142   30.4439   45.9821 H   0  0  0  0  0  0  0  0  0  0  0  0
   60.0680   29.0660   46.2780 C   0  0  0  0  0  0  0  0  0  0  0  0
   60.2370   28.5190   45.0480 F   0  0  0  0  0  0  0  0  0  0  0  0
   58.0440   33.3650   44.6900 S   0  0  0  0  0  0  0  0  0  0  0  0
   61.0370   34.1330   48.6050 C   0  0  0  0  0  0  0  0  0  0  0  0
   60.1866   34.4270   49.2377 H   0  0  0  0  0  0  0  0  0  0  0  0
   62.2120   33.6550   49.1950 C   0  0  0  0  0  0  0  0  0  0  0  0
   62.2859   33.5805   50.2900 H   0  0  0  0  0  0  0  0  0  0  0  0
  1  2  1  0
  2  3  2  0
  3  4  1  0
  3  5  1  0
  5  6  1  0
  5  7  2  0
  7  8  1  0
  8  9  1  0
  8 10  1  0
  8 11  1  0
 11 12  2  0
 12 13  1  0
 13 14  1  0
 14 15  2  0
 15 16  1  0
 16 17  2  0
 16 18  1  0
 18 19  1  0
 18 20  1  0
 18 21  1  0
 21 22  1  0
 22 23  2  0
 22 24  1  0
 24 25  2  0
 25 26  1  0
 25 27  1  0
 27 28  1  0
 27 29  2  0
 29 30  1  0
 29 31  1  0
 31 32  1  0
 31 33  2  0
 33 34  1  0
 14 35  1  0
  7 36  1  0
 36 37  1  0
 36 38  2  0
 38 39  1  0
 38  2  1  0
 35 11  1  0
 33 24  1  0
M  CHG  2  13  -1  21  -1
M  END
>  <UniqueID>  (73) 
67

>  <SMILES>  (73) 
O=C(C[N-]C(=O)c1ccccc1F)/N=c1/[n-]nc(Cc2ccccc2)s1

>  <Energy>  (73) 
78.1530976824469

>  <Genealogy>  (73) 
O=C(C[N-]C(=O)c1ccccc1F)N=c1[n-]nc(Cc2ccccc2)s1 (protonated)
O=C(C[N-]C(=O)c1ccccc1F)/N=c1/[n-]nc(Cc2ccccc2)s1 (cis-trans isomerization)
O=C(C[N-]C(=O)c1ccccc1F)/N=c1/[n-]nc(Cc2ccccc2)s1 (3D coordinates assigned)
O=C(C[N-]C(=O)c1ccccc1F)/N=c1/[n-]nc(Cc2ccccc2)s1 (optimized conformer: 78.1530976824469 kcal/mol)

>  <smiles>  (73) 
O=C(CNC(=O)c1ccccc1F)N=c1[nH]nc(Cc2ccccc2)s1

>  <score_type>  (73) 
oracle

>  <origin>  (73) 
adg

>  <m_score__min__energy>  (73) 
-13.16

>  <m_primary>  (73) 
energy

$$$$
73:0
     RDKit          3D

 26 27  0  0  0  0  0  0  0  0999 V2000
   55.1850   29.0750   44.8890 O   0  0  0  0  0  0  0  0  0  0  0  0
   56.1300   29.7260   44.3690 C   0  0  0  0  0  0  0  0  0  0  0  0
   56.0020   30.1570   43.0540 O   0  0  0  0  0  0  0  0  0  0  0  0
   57.3730   29.9840   45.1390 C   0  0  0  0  0  0  0  0  0  0  0  0
   57.7520   31.3190   45.3810 C   0  0  0  0  0  0  0  0  0  0  0  0
   58.8680   31.6140   46.1660 C   0  0  0  0  0  0  0  0  0  0  0  0
   59.6230   30.5840   46.7230 C   0  0  0  0  0  0  0  0  0  0  0  0
   59.2750   29.2540   46.4840 C   0  0  0  0  0  0  0  0  0  0  0  0
   58.1660   28.9380   45.6820 C   0  0  0  0  0  0  0  0  0  0  0  0
   57.9190   27.5140   45.3840 C   0  0  0  0  0  0  0  0  0  0  0  0
   58.0410   27.0990   44.2000 O   0  0  0  0  0  0  0  0  0  0  0  0
   57.3870   26.5900   46.4390 C   0  0  0  0  0  0  0  0  0  0  0  0
   56.6630   25.4500   45.7960 C   0  0  0  0  0  0  0  0  0  0  0  0
   57.4010   24.1030   45.0940 S   0  0  0  0  0  0  0  0  0  0  0  0
   55.9340   23.4690   44.5650 C   0  0  0  0  0  0  0  0  0  0  0  0
   55.8130   22.3880   43.9320 O   0  0  0  0  0  0  0  0  0  0  0  0
   54.8900   24.2570   44.8950 N   0  0  0  0  0  0  0  0  0  0  0  0
   55.2910   25.3640   45.5700 C   0  0  0  0  0  0  0  0  0  0  0  0
   54.3900   26.3350   45.9930 O   0  0  0  0  0  0  0  0  0  0  0  0
   57.1614   32.1389   44.9462 H   0  0  0  0  0  0  0  0  0  0  0  0
   59.1518   32.6615   46.3451 H   0  0  0  0  0  0  0  0  0  0  0  0
   60.4943   30.8195   47.3518 H   0  0  0  0  0  0  0  0  0  0  0  0
   59.8747   28.4456   46.9277 H   0  0  0  0  0  0  0  0  0  0  0  0
   58.2230   26.2002   47.0383 H   0  0  0  0  0  0  0  0  0  0  0  0
   56.6914   27.1421   47.0881 H   0  0  0  0  0  0  0  0  0  0  0  0
   53.8960   24.0470   44.6520 H   0  0  0  0  0  0  0  0  0  0  0  0
  1  2  2  0
  2  3  1  0
  2  4  1  0
  4  5  2  0
  5  6  1  0
  6  7  2  0
  7  8  1  0
  8  9  2  0
  9 10  1  0
 10 11  2  0
 10 12  1  0
 12 13  1  0
 13 14  1  0
 14 15  1  0
 15 16  2  0
 15 17  1  0
 17 18  1  0
 18 19  1  0
  9  4  1  0
 18 13  2  0
  5 20  1  0
  6 21  1  0
  7 22  1  0
  8 23  1  0
 12 24  1  0
 12 25  1  0
 17 26  1  0
M  CHG  2   3  -1  19  -1
M  END
>  <UniqueID>  (74) 
68

>  <SMILES>  (74) 
O=C([O-])c1ccccc1C(=O)Cc1sc(=O)[nH]c1[O-]

>  <Energy>  (74) 
65.32814689177361

>  <Genealogy>  (74) 
O=C([O-])c1ccccc1C(=O)Cc1sc(=O)[nH]c1[O-] (protonated)
O=C([O-])c1ccccc1C(=O)Cc1sc(=O)[nH]c1[O-] (3D coordinates assigned)
O=C([O-])c1ccccc1C(=O)Cc1sc(=O)[nH]c1[O-] (optimized conformer: 65.32814689177361 kcal/mol)

>  <smiles>  (74) 
O=C(O)c1ccccc1C(=O)Cc1sc(=O)[nH]c1O

>  <score_type>  (74) 
oracle

>  <origin>  (74) 
adg

>  <m_score__min__energy>  (74) 
-13.220000000000001

>  <m_primary>  (74) 
energy

$$$$
74:0
     RDKit          3D

 56 58  0  0  0  0  0  0  0  0999 V2000
   55.1430   27.4470   46.0090 H   0  0  0  0  0  0  0  0  0  0  0  0
   55.0080   26.4120   45.9990 N   0  0  0  0  0  0  0  0  0  0  0  0
   56.0800   25.5300   46.3260 C   0  0  0  0  0  0  0  0  0  0  0  0
   55.8110   24.3650   46.7290 O   0  0  0  0  0  0  0  0  0  0  0  0
   57.4910   25.9640   46.1920 C   0  0  0  0  0  0  0  0  0  0  0  0
   58.5460   25.0230   46.2580 C   0  0  0  0  0  0  0  0  0  0  0  0
   58.3146   23.9562   46.3937 H   0  0  0  0  0  0  0  0  0  0  0  0
   59.8900   25.4360   46.1520 C   0  0  0  0  0  0  0  0  0  0  0  0
   60.6958   24.6896   46.2118 H   0  0  0  0  0  0  0  0  0  0  0  0
   60.2090   26.7900   45.9710 C   0  0  0  0  0  0  0  0  0  0  0  0
   61.2556   27.1204   45.8974 H   0  0  0  0  0  0  0  0  0  0  0  0
   59.1570   27.7070   45.8870 C   0  0  0  0  0  0  0  0  0  0  0  0
   57.8530   27.3090   46.0070 C   0  0  0  0  0  0  0  0  0  0  0  0
   57.0430   28.3800   45.9790 N   0  0  0  0  0  0  0  0  0  0  0  0
   57.8920   29.4240   45.8220 C   0  0  0  0  0  0  0  0  0  0  0  0
   57.4290   30.6440   45.7880 N   0  0  0  0  0  0  0  0  0  0  0  0
   57.2110   31.4980   44.6600 C   0  0  0  0  0  0  0  0  0  0  0  0
   56.8290   31.0020   43.5650 O   0  0  0  0  0  0  0  0  0  0  0  0
   57.3460   32.9900   44.7880 C   0  0  0  0  0  0  0  0  0  0  0  0
   56.3838   33.4085   45.1181 H   0  0  0  0  0  0  0  0  0  0  0  0
   57.6345   33.3948   43.8067 H   0  0  0  0  0  0  0  0  0  0  0  0
   58.4110   33.3670   45.7850 C   0  0  0  0  0  0  0  0  0  0  0  0
   59.6160   33.9420   45.3520 C   0  0  0  0  0  0  0  0  0  0  0  0
   59.7973   34.0935   44.2777 H   0  0  0  0  0  0  0  0  0  0  0  0
   60.5850   34.3220   46.2830 C   0  0  0  0  0  0  0  0  0  0  0  0
   61.5363   34.7537   45.9384 H   0  0  0  0  0  0  0  0  0  0  0  0
   60.3510   34.1560   47.6510 C   0  0  0  0  0  0  0  0  0  0  0  0
   61.1219   34.4502   48.3785 H   0  0  0  0  0  0  0  0  0  0  0  0
   59.1330   33.6140   48.1010 C   0  0  0  0  0  0  0  0  0  0  0  0
   58.8480   33.4310   49.4630 O   0  0  0  0  0  0  0  0  0  0  0  0
   59.4930   32.5250   50.3130 C   0  0  0  0  0  0  0  0  0  0  0  0
   60.7070   32.6900   50.6250 O   0  0  0  0  0  0  0  0  0  0  0  0
   58.7360   31.4430   50.8910 N   0  0  0  0  0  0  0  0  0  0  0  0
   58.4690   30.7750   50.1290 H   0  0  0  0  0  0  0  0  0  0  0  0
   59.5500   30.7120   51.8750 C   0  0  0  0  0  0  0  0  0  0  0  0
   59.2368   30.9932   52.8913 H   0  0  0  0  0  0  0  0  0  0  0  0
   59.4107   29.6299   51.7347 H   0  0  0  0  0  0  0  0  0  0  0  0
   60.6109   30.9664   51.7347 H   0  0  0  0  0  0  0  0  0  0  0  0
   57.5020   31.9570   51.5050 C   0  0  0  0  0  0  0  0  0  0  0  0
   57.5940   31.9187   52.6005 H   0  0  0  0  0  0  0  0  0  0  0  0
   57.3400   32.9974   51.1868 H   0  0  0  0  0  0  0  0  0  0  0  0
   56.6493   31.3392   51.1868 H   0  0  0  0  0  0  0  0  0  0  0  0
   58.1780   33.2060   47.1620 C   0  0  0  0  0  0  0  0  0  0  0  0
   57.2354   32.7547   47.5053 H   0  0  0  0  0  0  0  0  0  0  0  0
   59.2130   29.0520   45.7570 N   0  0  0  0  0  0  0  0  0  0  0  0
   60.4360   29.8590   45.8950 C   0  0  0  0  0  0  0  0  0  0  0  0
   61.3153   29.2031   45.8129 H   0  0  0  0  0  0  0  0  0  0  0  0
   60.4573   30.6173   45.0984 H   0  0  0  0  0  0  0  0  0  0  0  0
   60.4550   30.5630   47.2560 C   0  0  0  0  0  0  0  0  0  0  0  0
   61.4930   30.8230   47.5108 H   0  0  0  0  0  0  0  0  0  0  0  0
   59.8334   31.4680   47.1883 H   0  0  0  0  0  0  0  0  0  0  0  0
   59.8820   29.6630   48.3540 C   0  0  0  0  0  0  0  0  0  0  0  0
   59.9043   28.6169   48.0147 H   0  0  0  0  0  0  0  0  0  0  0  0
   60.4897   29.7758   49.2639 H   0  0  0  0  0  0  0  0  0  0  0  0
   58.5600   30.0290   48.6390 O   0  0  0  0  0  0  0  0  0  0  0  0
   58.0650   29.9980   47.7780 H   0  0  0  0  0  0  0  0  0  0  0  0
  1  2  1  0
  2  3  1  0
  3  4  2  0
  3  5  1  0
  5  6  2  0
  6  7  1  0
  6  8  1  0
  8  9  1  0
  8 10  2  0
 10 11  1  0
 10 12  1  0
 12 13  2  0
 13 14  1  0
 14 15  1  0
 15 16  2  0
 16 17  1  0
 17 18  2  0
 17 19  1  0
 19 20  1  0
 19 21  1  0
 19 22  1  0
 22 23  2  0
 23 24  1  0
 23 25  1  0
 25 26  1  0
 25 27  2  0
 27 28  1  0
 27 29  1  0
 29 30  1  0
 30 31  1  0
 31 32  2  0
 31 33  1  0
 33 34  1  0
 33 35  1  0
 35 36  1  0
 35 37  1  0
 35 38  1  0
 33 39  1  0
 39 40  1  0
 39 41  1  0
 39 42  1  0
 29 43  2  0
 43 44  1  0
 15 45  1  0
 45 46  1  0
 46 47  1  0
 46 48  1  0
 46 49  1  0
 49 50  1  0
 49 51  1  0
 49 52  1  0
 52 53  1  0
 52 54  1  0
 52 55  1  0
 55 56  1  0
 13  5  1  0
 43 22  1  0
 45 12  1  0
M  CHG  3   2  -1  14  -1  33   1
M  END
>  <UniqueID>  (75) 
69

>  <SMILES>  (75) 
C[NH+](C)C(=O)Oc1cccc(CC(=O)/N=c2/[n-]c3c(C([NH-])=O)cccc3n2CCCO)c1

>  <Energy>  (75) 
108.5700702948913

>  <Genealogy>  (75) 
C[NH+](C)C(=O)Oc1cccc(CC(=O)N=c2[n-]c3c(C([NH-])=O)cccc3n2CCCO)c1 (protonated)
C[NH+](C)C(=O)Oc1cccc(CC(=O)/N=c2/[n-]c3c(C([NH-])=O)cccc3n2CCCO)c1 (cis-trans isomerization)
C[NH+](C)C(=O)Oc1cccc(CC(=O)/N=c2/[n-]c3c(C([NH-])=O)cccc3n2CCCO)c1 (3D coordinates assigned)
C[NH+](C)C(=O)Oc1cccc(CC(=O)/N=c2/[n-]c3c(C([NH-])=O)cccc3n2CCCO)c1 (optimized conformer: 108.5700702948913 kcal/mol)

>  <smiles>  (75) 
CN(C)C(=O)Oc1cccc(CC(=O)N=c2[nH]c3c(C(N)=O)cccc3n2CCCO)c1

>  <score_type>  (75) 
oracle

>  <origin>  (75) 
adg

>  <m_score__min__energy>  (75) 
-11.359999999999999

>  <m_primary>  (75) 
energy

$$$$
75:0
     RDKit          3D

 42 44  0  0  0  0  0  0  0  0999 V2000
   59.3770   33.8870   50.5860 N   0  0  0  0  0  0  0  0  0  0  0  0
   59.6940   32.5020   49.6010 S   0  0  0  0  0  0  0  0  0  0  0  0
   60.1750   31.3790   50.4740 O   0  0  0  0  0  0  0  0  0  0  0  0
   58.4250   32.0670   48.9220 O   0  0  0  0  0  0  0  0  0  0  0  0
   60.9230   32.9020   48.3910 C   0  0  0  0  0  0  0  0  0  0  0  0
   62.2110   32.3600   48.5390 C   0  0  0  0  0  0  0  0  0  0  0  0
   63.2020   32.6110   47.5890 C   0  0  0  0  0  0  0  0  0  0  0  0
   62.9220   33.4090   46.4800 C   0  0  0  0  0  0  0  0  0  0  0  0
   61.6520   33.9630   46.3220 C   0  0  0  0  0  0  0  0  0  0  0  0
   60.6420   33.7230   47.2690 C   0  0  0  0  0  0  0  0  0  0  0  0
   59.3100   34.3320   47.0510 C   0  0  0  0  0  0  0  0  0  0  0  0
   58.8960   35.2120   47.8520 O   0  0  0  0  0  0  0  0  0  0  0  0
   58.5090   34.0170   45.9040 N   0  0  0  0  0  0  0  0  0  0  0  0
   58.2980   32.7220   45.3190 C   0  0  0  0  0  0  0  0  0  0  0  0
   57.9250   32.6490   43.9740 C   0  0  0  0  0  0  0  0  0  0  0  0
   57.7170   31.4110   43.3640 C   0  0  0  0  0  0  0  0  0  0  0  0
   57.8670   30.2330   44.0990 C   0  0  0  0  0  0  0  0  0  0  0  0
   58.2040   30.2840   45.4630 C   0  0  0  0  0  0  0  0  0  0  0  0
   58.3780   29.0220   46.2280 C   0  0  0  0  0  0  0  0  0  0  0  0
   59.5030   28.7560   46.7270 O   0  0  0  0  0  0  0  0  0  0  0  0
   57.2920   28.1170   46.4750 N   0  0  0  0  0  0  0  0  0  0  0  0
   57.2380   26.7220   46.1450 C   0  0  0  0  0  0  0  0  0  0  0  0
   58.4450   26.0310   45.9730 C   0  0  0  0  0  0  0  0  0  0  0  0
   58.4440   24.6770   45.6330 C   0  0  0  0  0  0  0  0  0  0  0  0
   57.2350   23.9990   45.4580 C   0  0  0  0  0  0  0  0  0  0  0  0
   56.0260   24.6830   45.6040 C   0  0  0  0  0  0  0  0  0  0  0  0
   56.0180   26.0440   45.9280 C   0  0  0  0  0  0  0  0  0  0  0  0
   54.8020   26.7130   46.0010 O   0  0  0  0  0  0  0  0  0  0  0  0
   58.4100   31.5360   46.0690 C   0  0  0  0  0  0  0  0  0  0  0  0
   59.2460   34.6970   49.9380 H   0  0  0  0  0  0  0  0  0  0  0  0
   62.4404   31.7317   49.4123 H   0  0  0  0  0  0  0  0  0  0  0  0
   64.2056   32.1787   47.7151 H   0  0  0  0  0  0  0  0  0  0  0  0
   63.7031   33.6015   45.7298 H   0  0  0  0  0  0  0  0  0  0  0  0
   61.4387   34.5944   45.4469 H   0  0  0  0  0  0  0  0  0  0  0  0
   57.7945   33.5734   43.3923 H   0  0  0  0  0  0  0  0  0  0  0  0
   57.4343   31.3630   42.3020 H   0  0  0  0  0  0  0  0  0  0  0  0
   57.7206   29.2597   43.6079 H   0  0  0  0  0  0  0  0  0  0  0  0
   59.4004   26.5595   46.1069 H   0  0  0  0  0  0  0  0  0  0  0  0
   59.3968   24.1430   45.5026 H   0  0  0  0  0  0  0  0  0  0  0  0
   57.2353   22.9283   45.2057 H   0  0  0  0  0  0  0  0  0  0  0  0
   55.0748   24.1486   45.4635 H   0  0  0  0  0  0  0  0  0  0  0  0
   58.6609   31.5892   47.1387 H   0  0  0  0  0  0  0  0  0  0  0  0
  1  2  1  0
  2  3  2  0
  2  4  2  0
  2  5  1  0
  5  6  2  0
  6  7  1  0
  7  8  2  0
  8  9  1  0
  9 10  2  0
 10 11  1  0
 11 12  2  0
 11 13  1  0
 13 14  1  0
 14 15  2  0
 15 16  1  0
 16 17  2  0
 17 18  1  0
 18 19  1  0
 19 20  2  0
 19 21  1  0
 21 22  1  0
 22 23  2  0
 23 24  1  0
 24 25  2  0
 25 26  1  0
 26 27  2  0
 27 28  1  0
 18 29  2  0
 10  5  1  0
 29 14  1  0
 27 22  1  0
  1 30  1  0
  6 31  1  0
  7 32  1  0
  8 33  1  0
  9 34  1  0
 15 35  1  0
 16 36  1  0
 17 37  1  0
 23 38  1  0
 24 39  1  0
 25 40  1  0
 26 41  1  0
 29 42  1  0
M  CHG  4   1  -1  13  -1  21  -1  28  -1
M  END
>  <UniqueID>  (76) 
70

>  <SMILES>  (76) 
[NH-]S(=O)(=O)c1ccccc1C(=O)[N-]c1cccc(C(=O)[N-]c2ccccc2[O-])c1

>  <Energy>  (76) 
60.8624917018445

>  <Genealogy>  (76) 
[NH-]S(=O)(=O)c1ccccc1C(=O)[N-]c1cccc(C(=O)[N-]c2ccccc2[O-])c1 (protonated)
[NH-]S(=O)(=O)c1ccccc1C(=O)[N-]c1cccc(C(=O)[N-]c2ccccc2[O-])c1 (3D coordinates assigned)
[NH-]S(=O)(=O)c1ccccc1C(=O)[N-]c1cccc(C(=O)[N-]c2ccccc2[O-])c1 (optimized conformer: 60.8624917018445 kcal/mol)

>  <smiles>  (76) 
NS(=O)(=O)c1ccccc1C(=O)Nc1cccc(C(=O)Nc2ccccc2O)c1

>  <score_type>  (76) 
oracle

>  <origin>  (76) 
adg

>  <m_score__min__energy>  (76) 
-16.390000000000001

>  <m_primary>  (76) 
energy

$$$$
76:0
     RDKit          3D

 33 34  0  0  0  0  0  0  0  0999 V2000
   55.1480   28.1990   45.7020 H   0  0  0  0  0  0  0  0  0  0  0  0
   55.5050   28.6480   44.8680 O   0  0  0  0  0  0  0  0  0  0  0  0
   56.4500   29.6770   44.9040 C   0  0  0  0  0  0  0  0  0  0  0  0
   56.0510   30.9550   44.5020 C   0  0  0  0  0  0  0  0  0  0  0  0
   55.0199   31.1199   44.1562 H   0  0  0  0  0  0  0  0  0  0  0  0
   56.9480   32.0240   44.5350 C   0  0  0  0  0  0  0  0  0  0  0  0
   56.6177   33.0264   44.2250 H   0  0  0  0  0  0  0  0  0  0  0  0
   58.2720   31.8240   44.9630 C   0  0  0  0  0  0  0  0  0  0  0  0
   59.2140   32.8620   45.0060 O   0  0  0  0  0  0  0  0  0  0  0  0
   58.9380   34.1790   45.4710 C   0  0  0  0  0  0  0  0  0  0  0  0
   58.9364   34.1867   46.5710 H   0  0  0  0  0  0  0  0  0  0  0  0
   59.7112   34.8682   45.1007 H   0  0  0  0  0  0  0  0  0  0  0  0
   57.9531   34.4997   45.1007 H   0  0  0  0  0  0  0  0  0  0  0  0
   58.6760   30.5430   45.3570 C   0  0  0  0  0  0  0  0  0  0  0  0
   59.7149   30.3778   45.6786 H   0  0  0  0  0  0  0  0  0  0  0  0
   57.7740   29.4640   45.3480 C   0  0  0  0  0  0  0  0  0  0  0  0
   58.2350   28.1100   45.7370 C   0  0  0  0  0  0  0  0  0  0  0  0
   59.1718   27.7418   45.2935 H   0  0  0  0  0  0  0  0  0  0  0  0
   57.5900   27.3020   46.5920 C   0  0  0  0  0  0  0  0  0  0  0  0
   57.4266   27.6672   47.6167 H   0  0  0  0  0  0  0  0  0  0  0  0
   57.0820   25.9510   46.2520 C   0  0  0  0  0  0  0  0  0  0  0  0
   55.7110   25.6970   46.1170 C   0  0  0  0  0  0  0  0  0  0  0  0
   54.7740   26.7100   46.2880 O   0  0  0  0  0  0  0  0  0  0  0  0
   55.2860   24.4530   45.7900 N   0  0  0  0  0  0  0  0  0  0  0  0
   56.1580   23.4360   45.5800 C   0  0  0  0  0  0  0  0  0  0  0  0
   55.7050   22.3020   45.2660 O   0  0  0  0  0  0  0  0  0  0  0  0
   57.5090   23.6450   45.6980 N   0  0  0  0  0  0  0  0  0  0  0  0
   58.4530   22.5480   45.4260 C   0  0  0  0  0  0  0  0  0  0  0  0
   58.8130   22.1297   46.3775 H   0  0  0  0  0  0  0  0  0  0  0  0
   57.9448   21.7616   44.8486 H   0  0  0  0  0  0  0  0  0  0  0  0
   59.3064   22.9333   44.8486 H   0  0  0  0  0  0  0  0  0  0  0  0
   57.9780   24.8990   46.0000 C   0  0  0  0  0  0  0  0  0  0  0  0
   59.2210   25.1150   46.0640 O   0  0  0  0  0  0  0  0  0  0  0  0
  1  2  1  0
  2  3  1  0
  3  4  2  0
  4  5  1  0
  4  6  1  0
  6  7  1  0
  6  8  2  0
  8  9  1  0
  9 10  1  0
 10 11  1  0
 10 12  1  0
 10 13  1  0
  8 14  1  0
 14 15  1  0
 14 16  2  0
 16 17  1  0
 17 18  1  0
 17 19  2  0
 19 20  1  0
 19 21  1  0
 21 22  2  0
 22 23  1  0
 22 24  1  0
 24 25  1  0
 25 26  2  0
 25 27  1  0
 27 28  1  0
 28 29  1  0
 28 30  1  0
 28 31  1  0
 27 32  1  0
 32 33  2  0
 16  3  1  0
 32 21  1  0
M  CHG  2  23  -1  24  -1
M  END
>  <UniqueID>  (77) 
71

>  <SMILES>  (77) 
COc1ccc(O)c(/C=C\c2c([O-])[n-]c(=O)n(C)c2=O)c1

>  <Energy>  (77) 
50.16905478647727

>  <Genealogy>  (77) 
COc1ccc(O)c(C=Cc2c([O-])[n-]c(=O)n(C)c2=O)c1 (protonated)
COc1ccc(O)c(/C=C\c2c([O-])[n-]c(=O)n(C)c2=O)c1 (cis-trans isomerization)
COc1ccc(O)c(/C=C\c2c([O-])[n-]c(=O)n(C)c2=O)c1 (3D coordinates assigned)
COc1ccc(O)c(/C=C\c2c([O-])[n-]c(=O)n(C)c2=O)c1 (optimized conformer: 50.16905478647727 kcal/mol)

>  <smiles>  (77) 
COc1ccc(O)c(C=Cc2c(O)[nH]c(=O)n(C)c2=O)c1

>  <score_type>  (77) 
oracle

>  <origin>  (77) 
adg

>  <m_score__min__energy>  (77) 
-12.23

>  <m_primary>  (77) 
energy

$$$$
77:0
     RDKit          3D

 58 60  0  0  0  0  0  0  0  0999 V2000
   56.3970   24.5350   44.5050 C   0  0  0  0  0  0  0  0  0  0  0  0
   55.4300   25.3550   45.7540 S   0  0  0  0  0  0  0  0  0  0  0  0
   55.9090   24.9080   47.1070 O   0  0  0  0  0  0  0  0  0  0  0  0
   53.9780   24.9870   45.6110 O   0  0  0  0  0  0  0  0  0  0  0  0
   55.6260   27.0750   45.6330 N   0  0  0  0  0  0  0  0  0  0  0  0
   56.8740   27.7820   45.6490 C   0  0  0  0  0  0  0  0  0  0  0  0
   57.2400   28.6850   44.6360 C   0  0  0  0  0  0  0  0  0  0  0  0
   58.4650   29.3540   44.7010 C   0  0  0  0  0  0  0  0  0  0  0  0
   59.3370   29.1240   45.7680 C   0  0  0  0  0  0  0  0  0  0  0  0
   58.9950   28.2060   46.7760 C   0  0  0  0  0  0  0  0  0  0  0  0
   59.8630   27.9700   47.8980 N   0  0  0  0  0  0  0  0  0  0  0  0
   60.3560   28.9930   48.7780 C   0  0  0  0  0  0  0  0  0  0  0  0
   60.8100   30.2210   48.2930 C   0  0  0  0  0  0  0  0  0  0  0  0
   61.3000   31.1650   49.1960 C   0  0  0  0  0  0  0  0  0  0  0  0
   61.6850   32.2840   48.7570 O   0  0  0  0  0  0  0  0  0  0  0  0
   61.3600   30.8780   50.5380 N   0  0  0  0  0  0  0  0  0  0  0  0
   61.8420   31.8910   51.4960 C   0  0  0  0  0  0  0  0  0  0  0  0
   60.7670   32.9580   51.7250 C   0  0  0  0  0  0  0  0  0  0  0  0
   59.4010   32.3330   51.8060 C   0  0  0  0  0  0  0  0  0  0  0  0
   58.9620   31.7480   53.0020 C   0  0  0  0  0  0  0  0  0  0  0  0
   57.6820   31.1910   53.0870 C   0  0  0  0  0  0  0  0  0  0  0  0
   56.8130   31.2180   51.9820 C   0  0  0  0  0  0  0  0  0  0  0  0
   55.4570   30.6220   52.0920 C   0  0  0  0  0  0  0  0  0  0  0  0
   55.3440   29.3940   52.3620 O   0  0  0  0  0  0  0  0  0  0  0  0
   54.2720   31.4210   51.9210 N   0  0  0  0  0  0  0  0  0  0  0  0
   52.9290   30.8550   52.0190 C   0  0  0  0  0  0  0  0  0  0  0  0
   52.2180   30.9660   50.6690 C   0  0  0  0  0  0  0  0  0  0  0  0
   51.4000   32.2180   50.5860 C   0  0  0  0  0  0  0  0  0  0  0  0
   51.0110   32.6490   49.4670 O   0  0  0  0  0  0  0  0  0  0  0  0
   51.0150   32.8790   51.7460 O   0  0  0  0  0  0  0  0  0  0  0  0
   57.2610   31.8040   50.7820 C   0  0  0  0  0  0  0  0  0  0  0  0
   58.5390   32.3650   50.7010 C   0  0  0  0  0  0  0  0  0  0  0  0
   60.9160   29.6580   50.9840 C   0  0  0  0  0  0  0  0  0  0  0  0
   60.9440   29.3730   52.2120 O   0  0  0  0  0  0  0  0  0  0  0  0
   60.4340   28.7400   50.1080 N   0  0  0  0  0  0  0  0  0  0  0  0
   57.7540   27.5560   46.7160 C   0  0  0  0  0  0  0  0  0  0  0  0
   57.1513   23.8953   44.9865 H   0  0  0  0  0  0  0  0  0  0  0  0
   55.7378   23.9164   43.8783 H   0  0  0  0  0  0  0  0  0  0  0  0
   56.8996   25.2864   43.8783 H   0  0  0  0  0  0  0  0  0  0  0  0
   56.5605   28.8655   43.7900 H   0  0  0  0  0  0  0  0  0  0  0  0
   58.7439   30.0645   43.9089 H   0  0  0  0  0  0  0  0  0  0  0  0
   60.2944   29.6631   45.8195 H   0  0  0  0  0  0  0  0  0  0  0  0
   60.1510   26.9850   48.0970 H   0  0  0  0  0  0  0  0  0  0  0  0
   60.7818   30.4409   47.2156 H   0  0  0  0  0  0  0  0  0  0  0  0
   62.0784   31.4025   52.4528 H   0  0  0  0  0  0  0  0  0  0  0  0
   62.7427   32.3717   51.0865 H   0  0  0  0  0  0  0  0  0  0  0  0
   60.9781   33.4861   52.6666 H   0  0  0  0  0  0  0  0  0  0  0  0
   60.7829   33.6610   50.8791 H   0  0  0  0  0  0  0  0  0  0  0  0
   59.6274   31.7270   53.8777 H   0  0  0  0  0  0  0  0  0  0  0  0
   57.3517   30.7270   54.0281 H   0  0  0  0  0  0  0  0  0  0  0  0
   54.3460   32.4620   51.9090 H   0  0  0  0  0  0  0  0  0  0  0  0
   52.9996   29.7960   52.3082 H   0  0  0  0  0  0  0  0  0  0  0  0
   52.3564   31.4098   52.7769 H   0  0  0  0  0  0  0  0  0  0  0  0
   52.9710   30.9762   49.8672 H   0  0  0  0  0  0  0  0  0  0  0  0
   51.5444   30.1033   50.5594 H   0  0  0  0  0  0  0  0  0  0  0  0
   56.6007   31.8203   49.9024 H   0  0  0  0  0  0  0  0  0  0  0  0
   58.8706   32.8349   49.7633 H   0  0  0  0  0  0  0  0  0  0  0  0
   57.4673   26.8592   47.5174 H   0  0  0  0  0  0  0  0  0  0  0  0
  1  2  1  0
  2  3  2  0
  2  4  2  0
  2  5  1  0
  5  6  1  0
  6  7  2  0
  7  8  1  0
  8  9  2  0
  9 10  1  0
 10 11  1  0
 11 12  1  0
 12 13  2  0
 13 14  1  0
 14 15  2  0
 14 16  1  0
 16 17  1  0
 17 18  1  0
 18 19  1  0
 19 20  2  0
 20 21  1  0
 21 22  2  0
 22 23  1  0
 23 24  2  0
 23 25  1  0
 25 26  1  0
 26 27  1  0
 27 28  1  0
 28 29  2  0
 28 30  1  0
 22 31  1  0
 31 32  2  0
 16 33  1  0
 33 34  2  0
 33 35  1  0
 10 36  2  0
 36  6  1  0
 35 12  1  0
 32 19  1  0
  1 37  1  0
  1 38  1  0
  1 39  1  0
  7 40  1  0
  8 41  1  0
  9 42  1  0
 11 43  1  0
 13 44  1  0
 17 45  1  0
 17 46  1  0
 18 47  1  0
 18 48  1  0
 20 49  1  0
 21 50  1  0
 25 51  1  0
 26 52  1  0
 26 53  1  0
 27 54  1  0
 27 55  1  0
 31 56  1  0
 32 57  1  0
 36 58  1  0
M  CHG  3   5  -1  30  -1  35  -1
M  END
>  <UniqueID>  (78) 
72

>  <SMILES>  (78) 
CS(=O)(=O)[N-]c1cccc(Nc2cc(=O)n(CCc3ccc(C(=O)NCCC(=O)[O-])cc3)c(=O)[n-]2)c1

>  <Energy>  (78) 
64.24106262544437

>  <Genealogy>  (78) 
CS(=O)(=O)[N-]c1cccc(Nc2cc(=O)n(CCc3ccc(C(=O)NCCC(=O)[O-])cc3)c(=O)[n-]2)c1 (protonated)
CS(=O)(=O)[N-]c1cccc(Nc2cc(=O)n(CCc3ccc(C(=O)NCCC(=O)[O-])cc3)c(=O)[n-]2)c1 (3D coordinates assigned)
CS(=O)(=O)[N-]c1cccc(Nc2cc(=O)n(CCc3ccc(C(=O)NCCC(=O)[O-])cc3)c(=O)[n-]2)c1 (optimized conformer: 64.24106262544437 kcal/mol)

>  <smiles>  (78) 
CS(=O)(=O)Nc1cccc(Nc2cc(=O)n(CCc3ccc(C(=O)NCCC(=O)O)cc3)c(=O)[nH]2)c1

>  <score_type>  (78) 
oracle

>  <origin>  (78) 
adg

>  <m_score__min__energy>  (78) 
-17.199999999999999

>  <m_primary>  (78) 
energy

$$$$
78:0
     RDKit          3D

 40 42  0  0  0  0  0  0  0  0999 V2000
   62.4490   31.6460   47.9660 O   0  0  0  0  0  0  0  0  0  0  0  0
   61.3140   31.1680   47.6990 C   0  0  0  0  0  0  0  0  0  0  0  0
   61.0160   30.7200   46.3700 N   0  0  0  0  0  0  0  0  0  0  0  0
   59.9260   29.8750   45.9720 C   0  0  0  0  0  0  0  0  0  0  0  0
   60.1490   28.4970   45.8820 C   0  0  0  0  0  0  0  0  0  0  0  0
   59.1240   27.6400   45.4780 C   0  0  0  0  0  0  0  0  0  0  0  0
   57.8690   28.1540   45.1430 C   0  0  0  0  0  0  0  0  0  0  0  0
   57.6290   29.5380   45.2010 C   0  0  0  0  0  0  0  0  0  0  0  0
   56.3440   30.0760   44.8370 N   0  0  0  0  0  0  0  0  0  0  0  0
   56.2290   31.2700   44.4900 O   0  0  0  0  0  0  0  0  0  0  0  0
   55.2200   29.2840   44.8650 O   0  0  0  0  0  0  0  0  0  0  0  0
   58.6680   30.3950   45.6120 C   0  0  0  0  0  0  0  0  0  0  0  0
   60.2530   31.1480   48.7330 C   0  0  0  0  0  0  0  0  0  0  0  0
   59.7970   29.9070   49.2100 C   0  0  0  0  0  0  0  0  0  0  0  0
   58.7790   29.8340   50.1620 C   0  0  0  0  0  0  0  0  0  0  0  0
   58.1890   31.0030   50.6660 C   0  0  0  0  0  0  0  0  0  0  0  0
   57.1370   30.9230   51.6450 N   0  0  0  0  0  0  0  0  0  0  0  0
   56.6410   29.8210   51.9600 O   0  0  0  0  0  0  0  0  0  0  0  0
   56.6590   32.0610   52.2520 O   0  0  0  0  0  0  0  0  0  0  0  0
   58.6480   32.2480   50.2050 C   0  0  0  0  0  0  0  0  0  0  0  0
   59.6770   32.3310   49.2570 C   0  0  0  0  0  0  0  0  0  0  0  0
   60.2610   33.9740   48.8000 S   0  0  0  0  0  0  0  0  0  0  0  0
   59.3180   33.9910   47.2740 C   0  0  0  0  0  0  0  0  0  0  0  0
   59.8760   34.5350   46.1090 C   0  0  0  0  0  0  0  0  0  0  0  0
   59.1380   34.5540   44.9210 C   0  0  0  0  0  0  0  0  0  0  0  0
   57.8430   34.0260   44.8930 C   0  0  0  0  0  0  0  0  0  0  0  0
   57.2870   33.4750   46.0530 C   0  0  0  0  0  0  0  0  0  0  0  0
   58.0240   33.4550   47.2410 C   0  0  0  0  0  0  0  0  0  0  0  0
   61.1385   28.0861   46.1312 H   0  0  0  0  0  0  0  0  0  0  0  0
   59.3050   26.5564   45.4232 H   0  0  0  0  0  0  0  0  0  0  0  0
   57.0640   27.4719   44.8321 H   0  0  0  0  0  0  0  0  0  0  0  0
   58.4953   31.4806   45.6522 H   0  0  0  0  0  0  0  0  0  0  0  0
   60.2490   28.9800   48.8275 H   0  0  0  0  0  0  0  0  0  0  0  0
   58.4364   28.8520   50.5201 H   0  0  0  0  0  0  0  0  0  0  0  0
   58.1933   33.1711   50.5936 H   0  0  0  0  0  0  0  0  0  0  0  0
   60.8955   34.9475   46.1290 H   0  0  0  0  0  0  0  0  0  0  0  0
   59.5761   34.9843   44.0084 H   0  0  0  0  0  0  0  0  0  0  0  0
   57.2617   34.0439   43.9593 H   0  0  0  0  0  0  0  0  0  0  0  0
   56.2696   33.0574   46.0302 H   0  0  0  0  0  0  0  0  0  0  0  0
   57.5872   33.0178   48.1510 H   0  0  0  0  0  0  0  0  0  0  0  0
  1  2  2  0
  2  3  1  0
  3  4  1  0
  4  5  2  0
  5  6  1  0
  6  7  2  0
  7  8  1  0
  8  9  1  0
  9 10  2  0
  9 11  1  0
  8 12  2  0
  2 13  1  0
 13 14  2  0
 14 15  1  0
 15 16  2  0
 16 17  1  0
 17 18  2  0
 17 19  1  0
 16 20  1  0
 20 21  2  0
 21 22  1  0
 22 23  1  0
 23 24  2  0
 24 25  1  0
 25 26  2  0
 26 27  1  0
 27 28  2  0
 12  4  1  0
 21 13  1  0
 28 23  1  0
  5 29  1  0
  6 30  1  0
  7 31  1  0
 12 32  1  0
 14 33  1  0
 15 34  1  0
 20 35  1  0
 24 36  1  0
 25 37  1  0
 26 38  1  0
 27 39  1  0
 28 40  1  0
M  CHG  5   3  -1   9   1  11  -1  17   1  19  -1
M  END
>  <UniqueID>  (79) 
73

>  <SMILES>  (79) 
O=C([N-]c1cccc([N+](=O)[O-])c1)c1ccc([N+](=O)[O-])cc1Sc1ccccc1

>  <Energy>  (79) 
48.13240012858839

>  <Genealogy>  (79) 
O=C([N-]c1cccc([N+](=O)[O-])c1)c1ccc([N+](=O)[O-])cc1Sc1ccccc1 (protonated)
O=C([N-]c1cccc([N+](=O)[O-])c1)c1ccc([N+](=O)[O-])cc1Sc1ccccc1 (3D coordinates assigned)
O=C([N-]c1cccc([N+](=O)[O-])c1)c1ccc([N+](=O)[O-])cc1Sc1ccccc1 (optimized conformer: 48.13240012858839 kcal/mol)

>  <smiles>  (79) 
O=C(Nc1cccc([N+](=O)[O-])c1)c1ccc([N+](=O)[O-])cc1Sc1ccccc1

>  <score_type>  (79) 
oracle

>  <origin>  (79) 
adg

>  <m_score__min__energy>  (79) 
-10.25

>  <m_primary>  (79) 
energy

$$$$
79:0
     RDKit          3D

 49 51  0  0  0  0  0  0  0  0999 V2000
   64.1520   32.1990   48.9170 C   0  0  0  0  0  0  0  0  0  0  0  0
   63.5760   33.5740   48.7560 C   0  0  0  0  0  0  0  0  0  0  0  0
   63.7810   34.1940   47.6780 O   0  0  0  0  0  0  0  0  0  0  0  0
   62.7970   34.1970   49.7930 N   0  0  0  0  0  0  0  0  0  0  0  0
   63.4400   34.9530   50.7180 O   0  0  0  0  0  0  0  0  0  0  0  0
   61.3970   33.9160   49.9770 C   0  0  0  0  0  0  0  0  0  0  0  0
   60.8450   34.1930   51.0780 O   0  0  0  0  0  0  0  0  0  0  0  0
   60.5780   33.3600   48.8790 C   0  0  0  0  0  0  0  0  0  0  0  0
   60.6000   33.9410   47.6020 C   0  0  0  0  0  0  0  0  0  0  0  0
   59.8310   33.4040   46.5650 C   0  0  0  0  0  0  0  0  0  0  0  0
   59.0320   32.2660   46.7800 C   0  0  0  0  0  0  0  0  0  0  0  0
   58.2270   31.7030   45.7240 N   0  0  0  0  0  0  0  0  0  0  0  0
   58.2250   32.0580   44.4200 C   0  0  0  0  0  0  0  0  0  0  0  0
   57.3150   31.2660   43.7520 C   0  0  0  0  0  0  0  0  0  0  0  0
   57.0290   31.3000   42.2790 C   0  0  0  0  0  0  0  0  0  0  0  0
   56.4340   30.0980   41.8720 O   0  0  0  0  0  0  0  0  0  0  0  0
   56.7960   30.4210   44.7250 C   0  0  0  0  0  0  0  0  0  0  0  0
   55.7960   29.3520   44.5570 C   0  0  0  0  0  0  0  0  0  0  0  0
   54.8240   29.5310   43.7750 O   0  0  0  0  0  0  0  0  0  0  0  0
   55.9210   28.1210   45.2720 N   0  0  0  0  0  0  0  0  0  0  0  0
   57.0920   27.2620   45.1800 C   0  0  0  0  0  0  0  0  0  0  0  0
   58.2180   27.8770   45.9580 C   0  0  0  0  0  0  0  0  0  0  0  0
   58.2090   27.8460   47.3620 C   0  0  0  0  0  0  0  0  0  0  0  0
   59.2800   28.3800   48.0860 C   0  0  0  0  0  0  0  0  0  0  0  0
   60.3720   28.9380   47.4130 C   0  0  0  0  0  0  0  0  0  0  0  0
   61.4100   29.4530   48.1150 F   0  0  0  0  0  0  0  0  0  0  0  0
   60.3950   28.9580   46.0150 C   0  0  0  0  0  0  0  0  0  0  0  0
   59.3260   28.4230   45.2880 C   0  0  0  0  0  0  0  0  0  0  0  0
   57.3660   30.7110   45.9100 N   0  0  0  0  0  0  0  0  0  0  0  0
   59.0210   31.6820   48.0590 C   0  0  0  0  0  0  0  0  0  0  0  0
   59.7920   32.2170   49.0940 C   0  0  0  0  0  0  0  0  0  0  0  0
   64.2498   31.9655   49.9875 H   0  0  0  0  0  0  0  0  0  0  0  0
   63.4860   31.4644   48.4408 H   0  0  0  0  0  0  0  0  0  0  0  0
   65.1428   32.1584   48.4408 H   0  0  0  0  0  0  0  0  0  0  0  0
   62.8360   34.9770   51.5030 H   0  0  0  0  0  0  0  0  0  0  0  0
   61.2268   34.8254   47.4153 H   0  0  0  0  0  0  0  0  0  0  0  0
   59.8509   33.8758   45.5715 H   0  0  0  0  0  0  0  0  0  0  0  0
   58.8449   32.8461   43.9676 H   0  0  0  0  0  0  0  0  0  0  0  0
   56.3468   32.1349   42.0608 H   0  0  0  0  0  0  0  0  0  0  0  0
   57.9747   31.4343   41.7335 H   0  0  0  0  0  0  0  0  0  0  0  0
   55.5060   30.1070   42.2270 H   0  0  0  0  0  0  0  0  0  0  0  0
   56.8553   26.2716   45.5961 H   0  0  0  0  0  0  0  0  0  0  0  0
   57.3878   27.1524   44.1262 H   0  0  0  0  0  0  0  0  0  0  0  0
   57.3561   27.3999   47.8945 H   0  0  0  0  0  0  0  0  0  0  0  0
   59.2636   28.3611   49.1857 H   0  0  0  0  0  0  0  0  0  0  0  0
   61.2548   29.3950   45.4861 H   0  0  0  0  0  0  0  0  0  0  0  0
   59.3530   28.4298   44.1883 H   0  0  0  0  0  0  0  0  0  0  0  0
   58.3988   30.7945   48.2467 H   0  0  0  0  0  0  0  0  0  0  0  0
   59.7830   31.7390   50.0847 H   0  0  0  0  0  0  0  0  0  0  0  0
  1  2  1  0
  2  3  2  0
  2  4  1  0
  4  5  1  0
  4  6  1  0
  6  7  2  0
  6  8  1  0
  8  9  2  0
  9 10  1  0
 10 11  2  0
 11 12  1  0
 12 13  1  0
 13 14  2  0
 14 15  1  0
 15 16  1  0
 14 17  1  0
 17 18  1  0
 18 19  2  0
 18 20  1  0
 20 21  1  0
 21 22  1  0
 22 23  2  0
 23 24  1  0
 24 25  2  0
 25 26  1  0
 25 27  1  0
 27 28  2  0
 17 29  2  0
 11 30  1  0
 30 31  2  0
 31  8  1  0
 29 12  1  0
 28 22  1  0
  1 32  1  0
  1 33  1  0
  1 34  1  0
  5 35  1  0
  9 36  1  0
 10 37  1  0
 13 38  1  0
 15 39  1  0
 15 40  1  0
 16 41  1  0
 21 42  1  0
 21 43  1  0
 23 44  1  0
 24 45  1  0
 27 46  1  0
 28 47  1  0
 30 48  1  0
 31 49  1  0
M  CHG  1  20  -1
M  END
>  <UniqueID>  (80) 
74

>  <SMILES>  (80) 
CC(=O)N(O)C(=O)c1ccc(-n2cc(CO)c(C(=O)[N-]Cc3ccc(F)cc3)n2)cc1

>  <Energy>  (80) 
84.48699500452733

>  <Genealogy>  (80) 
CC(=O)N(O)C(=O)c1ccc(-n2cc(CO)c(C(=O)[N-]Cc3ccc(F)cc3)n2)cc1 (protonated)
CC(=O)N(O)C(=O)c1ccc(-n2cc(CO)c(C(=O)[N-]Cc3ccc(F)cc3)n2)cc1 (3D coordinates assigned)
CC(=O)N(O)C(=O)c1ccc(-n2cc(CO)c(C(=O)[N-]Cc3ccc(F)cc3)n2)cc1 (optimized conformer: 84.48699500452733 kcal/mol)

>  <smiles>  (80) 
CC(=O)N(O)C(=O)c1ccc(-n2cc(CO)c(C(=O)NCc3ccc(F)cc3)n2)cc1

>  <score_type>  (80) 
oracle

>  <origin>  (80) 
adg

>  <m_score__min__energy>  (80) 
-10.68

>  <m_primary>  (80) 
energy

$$$$
80:0
     RDKit          3D

 33 33  0  0  0  0  0  0  0  0999 V2000
   59.8864   28.1802   43.6656 H   0  0  0  0  0  0  0  0  0  0  0  0
   59.2300   28.3940   44.5220 C   0  0  0  0  0  0  0  0  0  0  0  0
   59.6358   28.8911   45.4154 H   0  0  0  0  0  0  0  0  0  0  0  0
   57.9400   28.0500   44.4770 C   0  0  0  0  0  0  0  0  0  0  0  0
   57.5510   27.5537   43.5757 H   0  0  0  0  0  0  0  0  0  0  0  0
   57.0050   28.3210   45.6210 C   0  0  0  0  0  0  0  0  0  0  0  0
   56.4803   27.3924   45.8899 H   0  0  0  0  0  0  0  0  0  0  0  0
   57.5850   28.6857   46.4816 H   0  0  0  0  0  0  0  0  0  0  0  0
   56.0280   29.3340   45.2400 N   0  0  0  0  0  0  0  0  0  0  0  0
   56.1580   30.1630   44.0790 C   0  0  0  0  0  0  0  0  0  0  0  0
   55.5090   29.8850   43.0330 O   0  0  0  0  0  0  0  0  0  0  0  0
   57.0060   31.3800   44.1120 C   0  0  0  0  0  0  0  0  0  0  0  0
   56.9710   32.2700   45.1250 C   0  0  0  0  0  0  0  0  0  0  0  0
   55.9966   32.4613   45.5983 H   0  0  0  0  0  0  0  0  0  0  0  0
   58.1420   33.0100   45.6500 C   0  0  0  0  0  0  0  0  0  0  0  0
   58.4850   34.2670   45.1210 C   0  0  0  0  0  0  0  0  0  0  0  0
   57.8943   34.6928   44.2965 H   0  0  0  0  0  0  0  0  0  0  0  0
   59.5710   34.9780   45.6360 C   0  0  0  0  0  0  0  0  0  0  0  0
   59.8431   35.9536   45.2068 H   0  0  0  0  0  0  0  0  0  0  0  0
   60.3110   34.4510   46.6950 C   0  0  0  0  0  0  0  0  0  0  0  0
   61.1706   35.0091   47.0945 H   0  0  0  0  0  0  0  0  0  0  0  0
   59.9640   33.2180   47.2490 C   0  0  0  0  0  0  0  0  0  0  0  0
   60.5455   32.8137   48.0907 H   0  0  0  0  0  0  0  0  0  0  0  0
   58.8720   32.4870   46.7360 C   0  0  0  0  0  0  0  0  0  0  0  0
   58.4950   31.2440   47.2710 O   0  0  0  0  0  0  0  0  0  0  0  0
   59.3920   30.1650   47.5150 C   0  0  0  0  0  0  0  0  0  0  0  0
   59.5093   30.0238   48.5996 H   0  0  0  0  0  0  0  0  0  0  0  0
   58.9891   29.2447   47.0669 H   0  0  0  0  0  0  0  0  0  0  0  0
   60.3704   30.3931   47.0669 H   0  0  0  0  0  0  0  0  0  0  0  0
   57.8260   31.7070   42.8920 C   0  0  0  0  0  0  0  0  0  0  0  0
   58.8061   32.0978   43.2029 H   0  0  0  0  0  0  0  0  0  0  0  0
   57.9681   30.7968   42.2910 H   0  0  0  0  0  0  0  0  0  0  0  0
   57.3028   32.4653   42.2910 H   0  0  0  0  0  0  0  0  0  0  0  0
  1  2  1  0
  2  3  1  0
  2  4  2  0
  4  5  1  0
  4  6  1  0
  6  7  1  0
  6  8  1  0
  6  9  1  0
  9 10  1  0
 10 11  2  0
 10 12  1  0
 12 13  2  0
 13 14  1  0
 13 15  1  0
 15 16  2  0
 16 17  1  0
 16 18  1  0
 18 19  1  0
 18 20  2  0
 20 21  1  0
 20 22  1  0
 22 23  1  0
 22 24  2  0
 24 25  1  0
 25 26  1  0
 26 27  1  0
 26 28  1  0
 26 29  1  0
 12 30  1  0
 30 31  1  0
 30 32  1  0
 30 33  1  0
 24 15  1  0
M  CHG  1   9  -1
M  END
>  <UniqueID>  (81) 
75

>  <SMILES>  (81) 
C=CC[N-]C(=O)/C(C)=C\c1ccccc1OC

>  <Energy>  (81) 
34.654235984654896

>  <Genealogy>  (81) 
C=CC[N-]C(=O)C(C)=Cc1ccccc1OC (protonated)
C=CC[N-]C(=O)/C(C)=C\c1ccccc1OC (cis-trans isomerization)
C=CC[N-]C(=O)/C(C)=C\c1ccccc1OC (3D coordinates assigned)
C=CC[N-]C(=O)/C(C)=C\c1ccccc1OC (optimized conformer: 34.654235984654896 kcal/mol)

>  <smiles>  (81) 
C=CCNC(=O)C(C)=Cc1ccccc1OC

>  <score_type>  (81) 
oracle

>  <origin>  (81) 
adg

>  <m_score__min__energy>  (81) 
-7.9299999999999997

>  <m_primary>  (81) 
energy

$$$$
81:0
     RDKit          3D

 29 30  0  0  0  0  0  0  0  0999 V2000
   56.0470   29.9100   42.8670 C   0  0  0  0  0  0  0  0  0  0  0  0
   56.7110   29.6410   44.1820 C   0  0  0  0  0  0  0  0  0  0  0  0
   56.7140   28.4330   44.7770 N   0  0  0  0  0  0  0  0  0  0  0  0
   57.4050   28.5670   45.9250 C   0  0  0  0  0  0  0  0  0  0  0  0
   57.7030   27.4310   46.8550 C   0  0  0  0  0  0  0  0  0  0  0  0
   57.3890   26.1190   46.1860 C   0  0  0  0  0  0  0  0  0  0  0  0
   58.4090   25.1710   45.9940 C   0  0  0  0  0  0  0  0  0  0  0  0
   58.1260   23.9360   45.4070 C   0  0  0  0  0  0  0  0  0  0  0  0
   56.8210   23.6300   45.0140 C   0  0  0  0  0  0  0  0  0  0  0  0
   55.7960   24.5580   45.2110 C   0  0  0  0  0  0  0  0  0  0  0  0
   56.0710   25.7980   45.8000 C   0  0  0  0  0  0  0  0  0  0  0  0
   55.0330   26.7030   45.9990 O   0  0  0  0  0  0  0  0  0  0  0  0
   57.8660   29.8610   46.0670 C   0  0  0  0  0  0  0  0  0  0  0  0
   57.4190   30.5540   44.9550 C   0  0  0  0  0  0  0  0  0  0  0  0
   57.6790   31.9780   44.6720 C   0  0  0  0  0  0  0  0  0  0  0  0
   57.1620   32.9820   45.5440 N   0  0  0  0  0  0  0  0  0  0  0  0
   58.3540   32.3190   43.6660 O   0  0  0  0  0  0  0  0  0  0  0  0
   55.0403   30.3178   43.0412 H   0  0  0  0  0  0  0  0  0  0  0  0
   56.6437   30.6373   42.2969 H   0  0  0  0  0  0  0  0  0  0  0  0
   55.9692   28.9725   42.2969 H   0  0  0  0  0  0  0  0  0  0  0  0
   56.2750   27.5580   44.4140 H   0  0  0  0  0  0  0  0  0  0  0  0
   58.7682   27.4543   47.1283 H   0  0  0  0  0  0  0  0  0  0  0  0
   57.0828   27.5325   47.7578 H   0  0  0  0  0  0  0  0  0  0  0  0
   59.4372   25.4036   46.3083 H   0  0  0  0  0  0  0  0  0  0  0  0
   58.9319   23.2031   45.2539 H   0  0  0  0  0  0  0  0  0  0  0  0
   56.6005   22.6577   44.5492 H   0  0  0  0  0  0  0  0  0  0  0  0
   54.7689   24.3137   44.9022 H   0  0  0  0  0  0  0  0  0  0  0  0
   58.4674   30.2607   46.8968 H   0  0  0  0  0  0  0  0  0  0  0  0
   56.1660   32.9610   45.8560 H   0  0  0  0  0  0  0  0  0  0  0  0
  1  2  1  0
  2  3  1  0
  3  4  1  0
  4  5  1  0
  5  6  1  0
  6  7  2  0
  7  8  1  0
  8  9  2  0
  9 10  1  0
 10 11  2  0
 11 12  1  0
  4 13  2  0
 13 14  1  0
 14 15  1  0
 15 16  1  0
 15 17  2  0
 14  2  2  0
 11  6  1  0
  1 18  1  0
  1 19  1  0
  1 20  1  0
  3 21  1  0
  5 22  1  0
  5 23  1  0
  7 24  1  0
  8 25  1  0
  9 26  1  0
 10 27  1  0
 13 28  1  0
 16 29  1  0
M  CHG  2  12  -1  16  -1
M  END
>  <UniqueID>  (82) 
76

>  <SMILES>  (82) 
Cc1[nH]c(Cc2ccccc2[O-])cc1C([NH-])=O

>  <Energy>  (82) 
51.7964839506455

>  <Genealogy>  (82) 
Cc1[nH]c(Cc2ccccc2[O-])cc1C([NH-])=O (protonated)
Cc1[nH]c(Cc2ccccc2[O-])cc1C([NH-])=O (3D coordinates assigned)
Cc1[nH]c(Cc2ccccc2[O-])cc1C([NH-])=O (optimized conformer: 51.7964839506455 kcal/mol)

>  <smiles>  (82) 
Cc1[nH]c(Cc2ccccc2O)cc1C(N)=O

>  <score_type>  (82) 
oracle

>  <origin>  (82) 
adg

>  <m_score__min__energy>  (82) 
-10.9

>  <m_primary>  (82) 
energy

$$$$
82:0
     RDKit          3D

 47 50  0  0  1  0  0  0  0  0999 V2000
   55.8770   29.4100   42.8060 O   0  0  0  0  0  0  0  0  0  0  0  0
   56.1690   29.7720   43.9770 C   0  0  0  0  0  0  0  0  0  0  0  0
   55.3740   29.3870   45.0600 O   0  0  0  0  0  0  0  0  0  0  0  0
   57.3510   30.6170   44.2970 C   0  0  0  0  0  0  0  0  0  0  0  0
   58.2710   29.7640   45.1220 C   0  0  0  0  0  0  0  0  0  0  0  0
   59.2150   28.9830   44.4820 C   0  0  0  0  0  0  0  0  0  0  0  0
   60.0830   28.1810   45.2260 C   0  0  0  0  0  0  0  0  0  0  0  0
   59.9620   28.1980   46.6050 C   0  0  0  0  0  0  0  0  0  0  0  0
   59.0240   28.9720   47.2580 C   0  0  0  0  0  0  0  0  0  0  0  0
   58.9780   28.9220   48.6800 N   0  0  0  0  0  0  0  0  0  0  0  0
   59.1670   29.9520   49.4310 C   0  0  0  0  0  0  0  0  0  0  0  0
   60.2840   30.7160   49.3090 N   0  0  0  0  0  0  0  0  0  0  0  0
   60.4780   31.7920   50.0970 C   0  0  0  0  0  0  0  0  0  0  0  0
   61.6010   32.6050   50.0120 O   0  0  0  0  0  0  0  0  0  0  0  0
   62.0410   33.1240   48.7770 C   0  0  0  0  0  0  0  0  0  0  0  0
   60.8780   33.3200   47.8550 C   0  0  0  0  0  0  0  0  0  0  0  0
   60.0280   34.3820   48.0970 C   0  0  0  0  0  0  0  0  0  0  0  0
   58.9550   34.5830   47.2670 C   0  0  0  0  0  0  0  0  0  0  0  0
   58.7120   33.7350   46.1850 C   0  0  0  0  0  0  0  0  0  0  0  0
   57.3280   34.0160   45.1350 Cl  0  0  0  0  0  0  0  0  0  0  0  0
   59.5580   32.6740   45.9400 C   0  0  0  0  0  0  0  0  0  0  0  0
   60.6350   32.4820   46.7840 C   0  0  0  0  0  0  0  0  0  0  0  0
   59.5260   32.1210   51.0410 C   0  0  0  0  0  0  0  0  0  0  0  0
   59.6840   33.1750   51.8320 N   0  0  0  0  0  0  0  0  0  0  0  0
   58.8000   33.5480   52.7660 C   0  0  0  0  0  0  0  0  0  0  0  0
   57.6540   32.8000   52.9220 C   0  0  0  0  0  0  0  0  0  0  0  0
   57.4490   31.6970   52.1200 C   0  0  0  0  0  0  0  0  0  0  0  0
   58.3920   31.3470   51.1630 C   0  0  0  0  0  0  0  0  0  0  0  0
   58.2460   30.2820   50.3530 N   0  0  0  0  0  0  0  0  0  0  0  0
   58.1960   29.7420   46.4890 C   0  0  0  0  0  0  0  0  0  0  0  0
   55.5720   29.7040   46.0070 H   0  0  0  0  0  0  0  0  0  0  0  0
   57.8539   30.9339   43.3714 H   0  0  0  0  0  0  0  0  0  0  0  0
   57.0556   31.5264   44.8408 H   0  0  0  0  0  0  0  0  0  0  0  0
   59.2827   28.9932   43.3841 H   0  0  0  0  0  0  0  0  0  0  0  0
   60.8400   27.5547   44.7313 H   0  0  0  0  0  0  0  0  0  0  0  0
   60.6393   27.5707   47.2032 H   0  0  0  0  0  0  0  0  0  0  0  0
   62.5381   34.0907   48.9455 H   0  0  0  0  0  0  0  0  0  0  0  0
   62.7459   32.4140   48.3198 H   0  0  0  0  0  0  0  0  0  0  0  0
   60.2098   35.0582   48.9453 H   0  0  0  0  0  0  0  0  0  0  0  0
   58.2746   35.4262   47.4569 H   0  0  0  0  0  0  0  0  0  0  0  0
   59.3796   31.9962   45.0922 H   0  0  0  0  0  0  0  0  0  0  0  0
   61.3172   31.6393   46.5981 H   0  0  0  0  0  0  0  0  0  0  0  0
   58.9848   34.4317   53.3944 H   0  0  0  0  0  0  0  0  0  0  0  0
   56.9081   33.0802   53.6804 H   0  0  0  0  0  0  0  0  0  0  0  0
   56.5370   31.0936   52.2387 H   0  0  0  0  0  0  0  0  0  0  0  0
   57.3900   29.7180   50.4650 H   0  0  0  0  0  0  0  0  0  0  0  0
   57.4409   30.3675   46.9876 H   0  0  0  0  0  0  0  0  0  0  0  0
  1  2  2  0
  2  3  1  0
  2  4  1  0
  4  5  1  0
  5  6  2  0
  6  7  1  0
  7  8  2  0
  8  9  1  0
  9 10  1  0
 10 11  2  0
 11 12  1  0
 12 13  2  0
 13 14  1  0
 14 15  1  0
 15 16  1  0
 16 17  2  0
 17 18  1  0
 18 19  2  0
 19 20  1  0
 19 21  1  0
 21 22  2  0
 13 23  1  0
 23 24  2  0
 24 25  1  0
 25 26  2  0
 26 27  1  0
 27 28  2  0
 28 29  1  0
  9 30  2  0
 30  5  1  0
 29 11  1  0
 22 16  1  0
 28 23  1  0
  3 31  1  0
  4 32  1  0
  4 33  1  0
  6 34  1  0
  7 35  1  0
  8 36  1  0
 15 37  1  0
 15 38  1  0
 17 39  1  0
 18 40  1  0
 21 41  1  0
 22 42  1  0
 25 43  1  0
 26 44  1  0
 27 45  1  0
 29 46  1  0
 30 47  1  0
M  END
>  <smiles>  (83) 
O=C(O)Cc1cccc(N=c2nc(OCc3ccc(Cl)cc3)c3ncccc3[nH]2)c1

>  <score_type>  (83) 
oracle

>  <origin>  (83) 
adg

>  <m_score__min__energy>  (83) 
-10.02

>  <m_primary>  (83) 
energy

$$$$
83:0
     RDKit          3D

 51 55  0  0  0  0  0  0  0  0999 V2000
   59.7610   30.0560   50.1890 C   0  0  0  0  0  0  0  0  0  0  0  0
   59.6780   29.0420   49.1480 N   0  0  0  0  0  0  0  0  0  0  0  0
   58.6570   28.8860   48.2860 C   0  0  0  0  0  0  0  0  0  0  0  0
   59.0100   27.9010   47.3880 C   0  0  0  0  0  0  0  0  0  0  0  0
   58.2440   27.4690   46.1740 C   0  0  0  0  0  0  0  0  0  0  0  0
   58.9210   27.9180   44.9370 N   0  0  0  0  0  0  0  0  0  0  0  0
   57.9740   28.1190   43.8200 C   0  0  0  0  0  0  0  0  0  0  0  0
   56.9860   29.2710   44.0790 C   0  0  0  0  0  0  0  0  0  0  0  0
   57.6240   30.4600   44.7460 C   0  0  0  0  0  0  0  0  0  0  0  0
   56.9000   31.6060   44.8690 N   0  0  0  0  0  0  0  0  0  0  0  0
   57.3590   32.6910   45.5450 C   0  0  0  0  0  0  0  0  0  0  0  0
   56.6430   33.7250   45.6110 O   0  0  0  0  0  0  0  0  0  0  0  0
   58.6140   32.6400   46.1730 C   0  0  0  0  0  0  0  0  0  0  0  0
   59.1340   33.7090   46.9170 C   0  0  0  0  0  0  0  0  0  0  0  0
   60.3420   33.5910   47.5300 N   0  0  0  0  0  0  0  0  0  0  0  0
   61.0730   32.4410   47.4300 C   0  0  0  0  0  0  0  0  0  0  0  0
   62.3380   32.2950   48.1110 N   0  0  0  0  0  0  0  0  0  0  0  0
   62.5600   31.1990   49.0600 C   0  0  0  0  0  0  0  0  0  0  0  0
   63.6520   31.5800   50.0660 C   0  0  0  0  0  0  0  0  0  0  0  0
   64.8100   32.0450   49.4030 O   0  0  0  0  0  0  0  0  0  0  0  0
   64.5170   33.2570   48.7340 C   0  0  0  0  0  0  0  0  0  0  0  0
   63.5100   33.0260   47.6070 C   0  0  0  0  0  0  0  0  0  0  0  0
   60.5860   31.4040   46.6990 N   0  0  0  0  0  0  0  0  0  0  0  0
   59.3840   31.4680   46.0720 C   0  0  0  0  0  0  0  0  0  0  0  0
   58.8940   30.3670   45.3480 C   0  0  0  0  0  0  0  0  0  0  0  0
   59.7400   29.1320   45.1360 C   0  0  0  0  0  0  0  0  0  0  0  0
   60.2850   27.5130   47.7530 C   0  0  0  0  0  0  0  0  0  0  0  0
   60.6730   28.2300   48.8270 N   0  0  0  0  0  0  0  0  0  0  0  0
   59.7214   29.5722   51.1761 H   0  0  0  0  0  0  0  0  0  0  0  0
   60.7073   30.6078   50.0888 H   0  0  0  0  0  0  0  0  0  0  0  0
   58.9170   30.7543   50.0888 H   0  0  0  0  0  0  0  0  0  0  0  0
   57.7095   29.4447   48.2958 H   0  0  0  0  0  0  0  0  0  0  0  0
   58.1698   26.3715   46.1663 H   0  0  0  0  0  0  0  0  0  0  0  0
   57.2417   27.9208   46.2108 H   0  0  0  0  0  0  0  0  0  0  0  0
   58.5473   28.3452   42.9089 H   0  0  0  0  0  0  0  0  0  0  0  0
   57.3866   27.1953   43.7120 H   0  0  0  0  0  0  0  0  0  0  0  0
   56.5656   29.5945   43.1153 H   0  0  0  0  0  0  0  0  0  0  0  0
   56.2111   28.8903   44.7606 H   0  0  0  0  0  0  0  0  0  0  0  0
   58.5633   34.6452   47.0049 H   0  0  0  0  0  0  0  0  0  0  0  0
   60.6820   34.3930   48.1060 H   0  0  0  0  0  0  0  0  0  0  0  0
   61.6247   30.9920   49.6006 H   0  0  0  0  0  0  0  0  0  0  0  0
   62.8803   30.3046   48.5055 H   0  0  0  0  0  0  0  0  0  0  0  0
   63.2721   32.3736   50.7262 H   0  0  0  0  0  0  0  0  0  0  0  0
   63.9173   30.6870   50.6509 H   0  0  0  0  0  0  0  0  0  0  0  0
   64.0943   33.9732   49.4540 H   0  0  0  0  0  0  0  0  0  0  0  0
   65.4467   33.6536   48.3000 H   0  0  0  0  0  0  0  0  0  0  0  0
   63.1863   33.9974   47.2050 H   0  0  0  0  0  0  0  0  0  0  0  0
   63.9893   32.4311   46.8156 H   0  0  0  0  0  0  0  0  0  0  0  0
   60.3700   29.2832   44.2471 H   0  0  0  0  0  0  0  0  0  0  0  0
   60.3491   28.9824   46.0397 H   0  0  0  0  0  0  0  0  0  0  0  0
   60.8868   26.7428   47.2484 H   0  0  0  0  0  0  0  0  0  0  0  0
  1  2  1  0
  2  3  1  0
  3  4  2  0
  4  5  1  0
  5  6  1  0
  6  7  1  0
  7  8  1  0
  8  9  1  0
  9 10  1  0
 10 11  1  0
 11 12  2  0
 11 13  1  0
 13 14  2  0
 14 15  1  0
 15 16  2  0
 16 17  1  0
 17 18  1  0
 18 19  1  0
 19 20  1  0
 20 21  1  0
 21 22  1  0
 16 23  1  0
 23 24  2  0
 24 25  1  0
 25 26  1  0
  4 27  1  0
 27 28  2  0
 28  2  1  0
 26  6  1  0
 25  9  2  0
 24 13  1  0
 22 17  1  0
  1 29  1  0
  1 30  1  0
  1 31  1  0
  3 32  1  0
  5 33  1  0
  5 34  1  0
  7 35  1  0
  7 36  1  0
  8 37  1  0
  8 38  1  0
 14 39  1  0
 15 40  1  0
 18 41  1  0
 18 42  1  0
 19 43  1  0
 19 44  1  0
 21 45  1  0
 21 46  1  0
 22 47  1  0
 22 48  1  0
 26 49  1  0
 26 50  1  0
 27 51  1  0
M  CHG  2  10  -1  15   1
M  END
>  <UniqueID>  (84) 
77

>  <SMILES>  (84) 
Cn1cc(CN2CCc3[n-]c(=O)c4c[nH+]c(N5CCOCC5)nc4c3C2)cn1

>  <Energy>  (84) 
96.90946927338176

>  <Genealogy>  (84) 
Cn1cc(CN2CCc3[n-]c(=O)c4c[nH+]c(N5CCOCC5)nc4c3C2)cn1 (protonated)
Cn1cc(CN2CCc3[n-]c(=O)c4c[nH+]c(N5CCOCC5)nc4c3C2)cn1 (3D coordinates assigned)
Cn1cc(CN2CCc3[n-]c(=O)c4c[nH+]c(N5CCOCC5)nc4c3C2)cn1 (nonaromatic ring conformer: 96.90946927338176 kcal/mol)

>  <smiles>  (84) 
Cn1cc(CN2CCc3[nH]c(=O)c4cnc(N5CCOCC5)nc4c3C2)cn1

>  <score_type>  (84) 
oracle

>  <origin>  (84) 
adg

>  <m_score__min__energy>  (84) 
-8.0299999999999994

>  <m_primary>  (84) 
energy

$$$$
84:0
     RDKit          3D

 45 46  0  0  0  0  0  0  0  0999 V2000
   56.0090   27.2700   45.3360 H   0  0  0  0  0  0  0  0  0  0  0  0
   55.4530   26.7290   45.9550 O   0  0  0  0  0  0  0  0  0  0  0  0
   56.0240   25.4500   45.9970 C   0  0  0  0  0  0  0  0  0  0  0  0
   56.0489   25.0324   44.9796 H   0  0  0  0  0  0  0  0  0  0  0  0
   55.4161   24.8137   46.6569 H   0  0  0  0  0  0  0  0  0  0  0  0
   57.4500   25.5100   46.5500 C   0  0  0  0  0  0  0  0  0  0  0  0
   58.1519   25.1685   45.7749 H   0  0  0  0  0  0  0  0  0  0  0  0
   57.5118   24.8609   47.4359 H   0  0  0  0  0  0  0  0  0  0  0  0
   57.7980   26.8740   46.9440 N   0  0  0  0  0  0  0  0  0  0  0  0
   57.0550   27.6030   46.8670 H   0  0  0  0  0  0  0  0  0  0  0  0
   59.0800   27.2190   47.4950 C   0  0  0  0  0  0  0  0  0  0  0  0
   59.9270   26.3170   47.7360 O   0  0  0  0  0  0  0  0  0  0  0  0
   59.4250   28.6200   47.7920 C   0  0  0  0  0  0  0  0  0  0  0  0
   60.6610   29.1330   47.6160 N   0  0  0  0  0  0  0  0  0  0  0  0
   60.6160   30.4120   47.9530 N   0  0  0  0  0  0  0  0  0  0  0  0
   61.7640   31.3090   47.8940 C   0  0  0  0  0  0  0  0  0  0  0  0
   62.0858   31.5604   48.9154 H   0  0  0  0  0  0  0  0  0  0  0  0
   62.5891   30.8139   47.3610 H   0  0  0  0  0  0  0  0  0  0  0  0
   61.4832   32.2294   47.3610 H   0  0  0  0  0  0  0  0  0  0  0  0
   59.3670   30.7270   48.3460 C   0  0  0  0  0  0  0  0  0  0  0  0
   59.0080   31.9290   48.7010 N   0  0  0  0  0  0  0  0  0  0  0  0
   58.9850   33.0920   47.8590 C   0  0  0  0  0  0  0  0  0  0  0  0
   59.2420   34.2130   48.3710 O   0  0  0  0  0  0  0  0  0  0  0  0
   58.5870   33.0110   46.4370 C   0  0  0  0  0  0  0  0  0  0  0  0
   57.6090   32.1440   46.0600 N   0  0  0  0  0  0  0  0  0  0  0  0
   57.2030   31.9990   44.7700 C   0  0  0  0  0  0  0  0  0  0  0  0
   56.2750   31.1160   44.5210 N   0  0  0  0  0  0  0  0  0  0  0  0
   56.2260   29.7100   44.8210 C   0  0  0  0  0  0  0  0  0  0  0  0
   55.1450   29.0670   44.7720 O   0  0  0  0  0  0  0  0  0  0  0  0
   57.4080   29.0370   45.2620 N   0  0  0  0  0  0  0  0  0  0  0  0
   58.5100   28.6740   44.3770 C   0  0  0  0  0  0  0  0  0  0  0  0
   59.4009   28.4528   44.9831 H   0  0  0  0  0  0  0  0  0  0  0  0
   58.7074   29.5162   43.6974 H   0  0  0  0  0  0  0  0  0  0  0  0
   58.1560   27.4470   43.5430 C   0  0  0  0  0  0  0  0  0  0  0  0
   57.9137   26.6072   44.2108 H   0  0  0  0  0  0  0  0  0  0  0  0
   57.2865   27.6734   42.9083 H   0  0  0  0  0  0  0  0  0  0  0  0
   59.0124   27.1755   42.9083 H   0  0  0  0  0  0  0  0  0  0  0  0
   57.8310   32.7710   43.7710 C   0  0  0  0  0  0  0  0  0  0  0  0
   57.5436   32.6527   42.7158 H   0  0  0  0  0  0  0  0  0  0  0  0
   58.8210   33.6870   44.1330 C   0  0  0  0  0  0  0  0  0  0  0  0
   59.3022   34.3076   43.3627 H   0  0  0  0  0  0  0  0  0  0  0  0
   59.2010   33.8170   45.4680 C   0  0  0  0  0  0  0  0  0  0  0  0
   59.9740   34.5439   45.7579 H   0  0  0  0  0  0  0  0  0  0  0  0
   58.5620   29.6050   48.2470 C   0  0  0  0  0  0  0  0  0  0  0  0
   57.4897   29.5160   48.4756 H   0  0  0  0  0  0  0  0  0  0  0  0
  1  2  1  0
  2  3  1  0
  3  4  1  0
  3  5  1  0
  3  6  1  0
  6  7  1  0
  6  8  1  0
  6  9  1  0
  9 10  1  0
  9 11  1  0
 11 12  2  0
 11 13  1  0
 13 14  1  0
 14 15  1  0
 15 16  1  0
 16 17  1  0
 16 18  1  0
 16 19  1  0
 15 20  1  0
 20 21  2  0
 21 22  1  0
 22 23  2  0
 22 24  1  0
 24 25  1  0
 25 26  1  0
 26 27  2  0
 27 28  1  0
 28 29  2  0
 28 30  1  0
 30 31  1  0
 31 32  1  0
 31 33  1  0
 31 34  1  0
 34 35  1  0
 34 36  1  0
 34 37  1  0
 26 38  1  0
 38 39  1  0
 38 40  2  0
 40 41  1  0
 40 42  1  0
 42 43  1  0
 20 44  1  0
 44 45  1  0
 44 13  2  0
 42 24  2  0
M  CHG  3  14  -1  25  -1  30  -1
M  END
>  <UniqueID>  (85) 
78

>  <SMILES>  (85) 
CC[N-]C(=O)/N=c1\cccc(C(=O)/N=c2\cc(C(=O)NCCO)[n-]n2C)[n-]1

>  <Energy>  (85) 
79.4209502218027

>  <Genealogy>  (85) 
CC[N-]C(=O)N=c1cccc(C(=O)N=c2cc(C(=O)NCCO)[n-]n2C)[n-]1 (protonated)
CC[N-]C(=O)/N=c1\cccc(C(=O)/N=c2\cc(C(=O)NCCO)[n-]n2C)[n-]1 (cis-trans isomerization)
CC[N-]C(=O)/N=c1\cccc(C(=O)/N=c2\cc(C(=O)NCCO)[n-]n2C)[n-]1 (3D coordinates assigned)
CC[N-]C(=O)/N=c1\cccc(C(=O)/N=c2\cc(C(=O)NCCO)[n-]n2C)[n-]1 (optimized conformer: 79.4209502218027 kcal/mol)

>  <smiles>  (85) 
CCNC(=O)N=c1cccc(C(=O)N=c2cc(C(=O)NCCO)[nH]n2C)[nH]1

>  <score_type>  (85) 
oracle

>  <origin>  (85) 
adg

>  <m_score__min__energy>  (85) 
-11.050000000000001

>  <m_primary>  (85) 
energy

$$$$
85:0
     RDKit          3D

 44 46  0  0  0  0  0  0  0  0999 V2000
   56.9380   26.9680   46.7790 O   0  0  0  0  0  0  0  0  0  0  0  0
   57.9400   26.9130   46.0150 C   0  0  0  0  0  0  0  0  0  0  0  0
   57.7660   26.4050   44.6140 C   0  0  0  0  0  0  0  0  0  0  0  0
   58.1370   27.4710   43.5740 C   0  0  0  0  0  0  0  0  0  0  0  0
   57.8890   28.8720   44.0860 C   0  0  0  0  0  0  0  0  0  0  0  0
   56.5910   29.4000   44.0920 C   0  0  0  0  0  0  0  0  0  0  0  0
   56.3740   30.6760   44.5020 N   0  0  0  0  0  0  0  0  0  0  0  0
   57.4020   31.4620   44.9130 C   0  0  0  0  0  0  0  0  0  0  0  0
   57.0860   33.1390   45.4490 S   0  0  0  0  0  0  0  0  0  0  0  0
   57.7230   32.8440   47.1300 C   0  0  0  0  0  0  0  0  0  0  0  0
   59.2140   33.0150   47.1400 C   0  0  0  0  0  0  0  0  0  0  0  0
   59.8140   34.0410   46.3920 C   0  0  0  0  0  0  0  0  0  0  0  0
   61.2060   34.1810   46.3800 C   0  0  0  0  0  0  0  0  0  0  0  0
   62.0070   33.2930   47.1050 C   0  0  0  0  0  0  0  0  0  0  0  0
   63.7520   33.4700   47.0880 Cl  0  0  0  0  0  0  0  0  0  0  0  0
   61.4150   32.2600   47.8400 C   0  0  0  0  0  0  0  0  0  0  0  0
   60.0250   32.1170   47.8550 C   0  0  0  0  0  0  0  0  0  0  0  0
   58.6700   30.9770   44.9140 N   0  0  0  0  0  0  0  0  0  0  0  0
   58.9390   29.7100   44.5060 C   0  0  0  0  0  0  0  0  0  0  0  0
   60.1300   29.3020   44.5050 O   0  0  0  0  0  0  0  0  0  0  0  0
   59.2160   27.4220   46.4370 N   0  0  0  0  0  0  0  0  0  0  0  0
   59.4660   28.0130   47.7220 C   0  0  0  0  0  0  0  0  0  0  0  0
   58.6530   29.0700   48.1580 C   0  0  0  0  0  0  0  0  0  0  0  0
   58.8810   29.6750   49.3980 C   0  0  0  0  0  0  0  0  0  0  0  0
   59.9360   29.2410   50.2040 C   0  0  0  0  0  0  0  0  0  0  0  0
   60.7690   28.2070   49.7670 C   0  0  0  0  0  0  0  0  0  0  0  0
   60.5410   27.5970   48.5290 C   0  0  0  0  0  0  0  0  0  0  0  0
   58.4123   25.5266   44.4704 H   0  0  0  0  0  0  0  0  0  0  0  0
   56.7071   26.1423   44.4733 H   0  0  0  0  0  0  0  0  0  0  0  0
   59.2033   27.3677   43.3243 H   0  0  0  0  0  0  0  0  0  0  0  0
   57.5041   27.3160   42.6878 H   0  0  0  0  0  0  0  0  0  0  0  0
   55.7450   28.7785   43.7634 H   0  0  0  0  0  0  0  0  0  0  0  0
   57.2672   33.5637   47.8259 H   0  0  0  0  0  0  0  0  0  0  0  0
   57.4704   31.8199   47.4421 H   0  0  0  0  0  0  0  0  0  0  0  0
   59.1878   34.7365   45.8139 H   0  0  0  0  0  0  0  0  0  0  0  0
   61.6713   34.9911   45.7992 H   0  0  0  0  0  0  0  0  0  0  0  0
   62.0450   31.5590   48.4072 H   0  0  0  0  0  0  0  0  0  0  0  0
   59.5641   31.2991   48.4282 H   0  0  0  0  0  0  0  0  0  0  0  0
   59.9630   27.5100   45.7110 H   0  0  0  0  0  0  0  0  0  0  0  0
   57.8304   29.4254   47.5200 H   0  0  0  0  0  0  0  0  0  0  0  0
   58.2293   30.4930   49.7388 H   0  0  0  0  0  0  0  0  0  0  0  0
   60.1113   29.7127   51.1822 H   0  0  0  0  0  0  0  0  0  0  0  0
   61.6056   27.8723   50.3980 H   0  0  0  0  0  0  0  0  0  0  0  0
   61.2042   26.7895   48.1852 H   0  0  0  0  0  0  0  0  0  0  0  0
  1  2  2  0
  2  3  1  0
  3  4  1  0
  4  5  1  0
  5  6  2  0
  6  7  1  0
  7  8  2  0
  8  9  1  0
  9 10  1  0
 10 11  1  0
 11 12  2  0
 12 13  1  0
 13 14  2  0
 14 15  1  0
 14 16  1  0
 16 17  2  0
  8 18  1  0
 18 19  1  0
 19 20  2  0
  2 21  1  0
 21 22  1  0
 22 23  2  0
 23 24  1  0
 24 25  2  0
 25 26  1  0
 26 27  2  0
 19  5  1  0
 27 22  1  0
 17 11  1  0
  3 28  1  0
  3 29  1  0
  4 30  1  0
  4 31  1  0
  6 32  1  0
 10 33  1  0
 10 34  1  0
 12 35  1  0
 13 36  1  0
 16 37  1  0
 17 38  1  0
 21 39  1  0
 23 40  1  0
 24 41  1  0
 25 42  1  0
 26 43  1  0
 27 44  1  0
M  CHG  1  18  -1
M  END
>  <UniqueID>  (86) 
79

>  <SMILES>  (86) 
O=C(CCc1cnc(SCc2ccc(Cl)cc2)[n-]c1=O)Nc1ccccc1

>  <Energy>  (86) 
41.74033425497576

>  <Genealogy>  (86) 
O=C(CCc1cnc(SCc2ccc(Cl)cc2)[n-]c1=O)Nc1ccccc1 (protonated)
O=C(CCc1cnc(SCc2ccc(Cl)cc2)[n-]c1=O)Nc1ccccc1 (3D coordinates assigned)
O=C(CCc1cnc(SCc2ccc(Cl)cc2)[n-]c1=O)Nc1ccccc1 (optimized conformer: 41.74033425497576 kcal/mol)

>  <smiles>  (86) 
O=C(CCc1cnc(SCc2ccc(Cl)cc2)[nH]c1=O)Nc1ccccc1

>  <score_type>  (86) 
oracle

>  <origin>  (86) 
adg

>  <m_score__min__energy>  (86) 
-10.029999999999999

>  <m_primary>  (86) 
energy

$$$$
86:0
     RDKit          3D

 53 55  0  0  0  0  0  0  0  0999 V2000
   57.3080   24.8440   43.3200 C   0  0  0  0  0  0  0  0  0  0  0  0
   57.1240   24.1870   44.6660 C   0  0  0  0  0  0  0  0  0  0  0  0
   57.2690   22.7900   44.7670 C   0  0  0  0  0  0  0  0  0  0  0  0
   57.1120   22.1450   45.9970 C   0  0  0  0  0  0  0  0  0  0  0  0
   56.8230   22.8860   47.1420 C   0  0  0  0  0  0  0  0  0  0  0  0
   56.6810   24.2750   47.0630 C   0  0  0  0  0  0  0  0  0  0  0  0
   56.8260   24.9410   45.8310 C   0  0  0  0  0  0  0  0  0  0  0  0
   56.6780   26.4180   45.7840 C   0  0  0  0  0  0  0  0  0  0  0  0
   55.5390   26.9360   45.9740 O   0  0  0  0  0  0  0  0  0  0  0  0
   57.8840   27.3140   45.6090 C   0  0  2  0  0  0  0  0  0  0  0  0
   59.1780   26.5390   45.9370 C   0  0  0  0  0  0  0  0  0  0  0  0
   60.3300   27.4670   46.3640 C   0  0  0  0  0  0  0  0  0  0  0  0
   60.1640   28.8760   45.7760 C   0  0  0  0  0  0  0  0  0  0  0  0
   58.9010   29.5330   46.2080 N   0  0  0  0  0  0  0  0  0  0  0  0
   59.1320   30.4340   47.3590 C   0  0  0  0  0  0  0  0  0  0  0  0
   59.0410   31.8860   46.9460 C   0  0  0  0  0  0  0  0  0  0  0  0
   59.8880   32.8370   47.5430 C   0  0  0  0  0  0  0  0  0  0  0  0
   59.8010   34.1850   47.1870 C   0  0  0  0  0  0  0  0  0  0  0  0
   58.8670   34.5980   46.2370 C   0  0  0  0  0  0  0  0  0  0  0  0
   58.0140   33.6650   45.6410 C   0  0  0  0  0  0  0  0  0  0  0  0
   58.0900   32.3000   45.9890 C   0  0  0  0  0  0  0  0  0  0  0  0
   57.2410   31.3330   45.4190 O   0  0  0  0  0  0  0  0  0  0  0  0
   57.0200   31.1470   44.0210 C   0  0  0  0  0  0  0  0  0  0  0  0
   56.0860   29.9990   43.7800 C   0  0  0  0  0  0  0  0  0  0  0  0
   55.4100   29.3730   44.8690 N   0  0  0  0  0  0  0  0  0  0  0  0
   55.9190   29.5660   42.6100 O   0  0  0  0  0  0  0  0  0  0  0  0
   57.7870   28.5840   46.4770 C   0  0  0  0  0  0  0  0  0  0  0  0
   57.6022   25.8944   43.4618 H   0  0  0  0  0  0  0  0  0  0  0  0
   58.0928   24.3160   42.7585 H   0  0  0  0  0  0  0  0  0  0  0  0
   56.3631   24.8005   42.7585 H   0  0  0  0  0  0  0  0  0  0  0  0
   57.5081   22.2008   43.8694 H   0  0  0  0  0  0  0  0  0  0  0  0
   57.2165   21.0519   46.0616 H   0  0  0  0  0  0  0  0  0  0  0  0
   56.7064   22.3768   48.1100 H   0  0  0  0  0  0  0  0  0  0  0  0
   56.4540   24.8523   47.9714 H   0  0  0  0  0  0  0  0  0  0  0  0
   57.9099   27.6333   44.5567 H   0  0  0  0  0  0  0  0  0  0  0  0
   58.9696   25.8356   46.7566 H   0  0  0  0  0  0  0  0  0  0  0  0
   59.4934   26.0140   45.0233 H   0  0  0  0  0  0  0  0  0  0  0  0
   60.3447   27.5370   47.4617 H   0  0  0  0  0  0  0  0  0  0  0  0
   61.2726   27.0439   45.9864 H   0  0  0  0  0  0  0  0  0  0  0  0
   61.0124   29.4956   46.1020 H   0  0  0  0  0  0  0  0  0  0  0  0
   60.1296   28.7773   44.6810 H   0  0  0  0  0  0  0  0  0  0  0  0
   58.3737   30.2324   48.1299 H   0  0  0  0  0  0  0  0  0  0  0  0
   60.1430   30.2465   47.7498 H   0  0  0  0  0  0  0  0  0  0  0  0
   60.6240   32.5171   48.2954 H   0  0  0  0  0  0  0  0  0  0  0  0
   60.4698   34.9215   47.6564 H   0  0  0  0  0  0  0  0  0  0  0  0
   58.8017   35.6596   45.9564 H   0  0  0  0  0  0  0  0  0  0  0  0
   57.2776   33.9977   44.8947 H   0  0  0  0  0  0  0  0  0  0  0  0
   56.5816   32.0637   43.5997 H   0  0  0  0  0  0  0  0  0  0  0  0
   57.9830   30.9269   43.5370 H   0  0  0  0  0  0  0  0  0  0  0  0
   55.5470   29.7080   45.8490 H   0  0  0  0  0  0  0  0  0  0  0  0
   54.7710   28.5670   44.6960 H   0  0  0  0  0  0  0  0  0  0  0  0
   57.8180   28.2921   47.5371 H   0  0  0  0  0  0  0  0  0  0  0  0
   56.8429   29.0915   46.2299 H   0  0  0  0  0  0  0  0  0  0  0  0
  1  2  1  0
  2  3  2  0
  3  4  1  0
  4  5  2  0
  5  6  1  0
  6  7  2  0
  7  8  1  0
  8  9  2  0
  8 10  1  0
 10 11  1  0
 11 12  1  0
 12 13  1  0
 13 14  1  0
 14 15  1  0
 15 16  1  0
 16 17  2  0
 17 18  1  0
 18 19  2  0
 19 20  1  0
 20 21  2  0
 21 22  1  0
 22 23  1  0
 23 24  1  0
 24 25  1  0
 24 26  2  0
 14 27  1  0
  7  2  1  0
 27 10  1  0
 21 16  1  0
  1 28  1  0
  1 29  1  0
  1 30  1  0
  3 31  1  0
  4 32  1  0
  5 33  1  0
  6 34  1  0
 10 35  1  6
 11 36  1  0
 11 37  1  0
 12 38  1  0
 12 39  1  0
 13 40  1  0
 13 41  1  0
 15 42  1  0
 15 43  1  0
 17 44  1  0
 18 45  1  0
 19 46  1  0
 20 47  1  0
 23 48  1  0
 23 49  1  0
 25 50  1  0
 25 51  1  0
 27 52  1  0
 27 53  1  0
M  END
>  <UniqueID>  (87) 
80

>  <SMILES>  (87) 
Cc1ccccc1C(=O)[C@@H]1CCCN(Cc2ccccc2OCC(N)=O)C1

>  <Energy>  (87) 
65.95493512132087

>  <Genealogy>  (87) 
Cc1ccccc1C(=O)[C@@H]1CCCN(Cc2ccccc2OCC(N)=O)C1 (chirality)
Cc1ccccc1C(=O)[C@@H]1CCCN(Cc2ccccc2OCC(N)=O)C1 (3D coordinates assigned)
Cc1ccccc1C(=O)[C@@H]1CCCN(Cc2ccccc2OCC(N)=O)C1 (nonaromatic ring conformer: 65.95493512132087 kcal/mol)

>  <smiles>  (87) 
Cc1ccccc1C(=O)C1CCCN(Cc2ccccc2OCC(N)=O)C1

>  <score_type>  (87) 
oracle

>  <origin>  (87) 
adg

>  <m_score__min__energy>  (87) 
-9.8699999999999992

>  <m_primary>  (87) 
energy

$$$$
87:0
     RDKit          3D

 35 36  0  0  0  0  0  0  0  0999 V2000
   59.6750   35.7120   45.9340 C   0  0  0  0  0  0  0  0  0  0  0  0
   59.8980   34.4990   46.4510 C   0  0  0  0  0  0  0  0  0  0  0  0
   59.6780   33.2760   45.6000 C   0  0  0  0  0  0  0  0  0  0  0  0
   57.9720   33.2780   44.9590 S   0  0  0  0  0  0  0  0  0  0  0  0
   57.8730   31.4940   44.8880 C   0  0  0  0  0  0  0  0  0  0  0  0
   59.0080   30.7550   44.8020 N   0  0  0  0  0  0  0  0  0  0  0  0
   58.9610   29.4000   44.7480 C   0  0  0  0  0  0  0  0  0  0  0  0
   60.0320   28.7510   44.6240 O   0  0  0  0  0  0  0  0  0  0  0  0
   57.7190   28.7390   44.8040 C   0  0  0  0  0  0  0  0  0  0  0  0
   57.6140   27.3090   44.7310 N   0  0  0  0  0  0  0  0  0  0  0  0
   57.1920   26.4410   45.7900 C   0  0  0  0  0  0  0  0  0  0  0  0
   57.8740   26.3990   46.8480 O   0  0  0  0  0  0  0  0  0  0  0  0
   56.0270   25.5490   45.6450 C   0  0  0  0  0  0  0  0  0  0  0  0
   56.0740   24.1970   45.3660 C   0  0  0  0  0  0  0  0  0  0  0  0
   54.7610   23.7810   45.3150 C   0  0  0  0  0  0  0  0  0  0  0  0
   53.9950   24.9020   45.5610 C   0  0  0  0  0  0  0  0  0  0  0  0
   54.7770   25.9390   45.7520 O   0  0  0  0  0  0  0  0  0  0  0  0
   56.5570   29.5270   44.8600 C   0  0  0  0  0  0  0  0  0  0  0  0
   55.2880   28.9490   44.8770 O   0  0  0  0  0  0  0  0  0  0  0  0
   56.6620   30.8800   44.9090 N   0  0  0  0  0  0  0  0  0  0  0  0
   60.2910   34.3490   47.8710 C   0  0  0  0  0  0  0  0  0  0  0  0
   59.6090   34.9070   48.7740 O   0  0  0  0  0  0  0  0  0  0  0  0
   61.4190   33.5940   48.2120 O   0  0  0  0  0  0  0  0  0  0  0  0
   62.5720   33.5170   47.3820 C   0  0  0  0  0  0  0  0  0  0  0  0
   59.8335   36.6098   46.5495 H   0  0  0  0  0  0  0  0  0  0  0  0
   59.3331   35.8119   44.8933 H   0  0  0  0  0  0  0  0  0  0  0  0
   60.3857   33.2835   44.7579 H   0  0  0  0  0  0  0  0  0  0  0  0
   59.8394   32.3735   46.2078 H   0  0  0  0  0  0  0  0  0  0  0  0
   56.9725   23.5805   45.2158 H   0  0  0  0  0  0  0  0  0  0  0  0
   54.3974   22.7617   45.1181 H   0  0  0  0  0  0  0  0  0  0  0  0
   52.8957   24.9235   45.5923 H   0  0  0  0  0  0  0  0  0  0  0  0
   55.1500   27.9460   44.9020 H   0  0  0  0  0  0  0  0  0  0  0  0
   63.4728   33.4568   48.0104 H   0  0  0  0  0  0  0  0  0  0  0  0
   62.5075   32.6212   46.7469 H   0  0  0  0  0  0  0  0  0  0  0  0
   62.6272   34.4135   46.7469 H   0  0  0  0  0  0  0  0  0  0  0  0
  1  2  2  0
  2  3  1  0
  3  4  1  0
  4  5  1  0
  5  6  2  0
  6  7  1  0
  7  8  2  0
  7  9  1  0
  9 10  1  0
 10 11  1  0
 11 12  2  0
 11 13  1  0
 13 14  2  0
 14 15  1  0
 15 16  2  0
 16 17  1  0
  9 18  2  0
 18 19  1  0
 18 20  1  0
  2 21  1  0
 21 22  2  0
 21 23  1  0
 23 24  1  0
 20  5  1  0
 17 13  1  0
  1 25  1  0
  1 26  1  0
  3 27  1  0
  3 28  1  0
 14 29  1  0
 15 30  1  0
 16 31  1  0
 19 32  1  0
 24 33  1  0
 24 34  1  0
 24 35  1  0
M  CHG  2  10  -1  20  -1
M  END
>  <UniqueID>  (88) 
81

>  <SMILES>  (88) 
C=C(CSc1nc(=O)c([N-]C(=O)c2ccco2)c(O)[n-]1)C(=O)OC

>  <Energy>  (88) 
60.868004739133184

>  <Genealogy>  (88) 
C=C(CSc1nc(=O)c([N-]C(=O)c2ccco2)c(O)[n-]1)C(=O)OC (protonated)
C=C(CSc1nc(=O)c([N-]C(=O)c2ccco2)c(O)[n-]1)C(=O)OC (3D coordinates assigned)
C=C(CSc1nc(=O)c([N-]C(=O)c2ccco2)c(O)[n-]1)C(=O)OC (optimized conformer: 60.868004739133184 kcal/mol)

>  <smiles>  (88) 
C=C(CSc1nc(=O)c(NC(=O)c2ccco2)c(O)[nH]1)C(=O)OC

>  <score_type>  (88) 
oracle

>  <origin>  (88) 
adg

>  <m_score__min__energy>  (88) 
-11.23

>  <m_primary>  (88) 
energy

$$$$
88:0
     RDKit          3D

 52 54  0  0  0  0  0  0  0  0999 V2000
   55.1480   29.3280   44.8640 O   0  0  0  0  0  0  0  0  0  0  0  0
   56.3650   29.6530   44.8680 C   0  0  0  0  0  0  0  0  0  0  0  0
   57.3690   28.6940   44.5140 N   0  0  0  0  0  0  0  0  0  0  0  0
   57.6170   27.4690   45.2630 C   0  0  0  0  0  0  0  0  0  0  0  0
   58.1830   27.7940   46.6110 C   0  0  0  0  0  0  0  0  0  0  0  0
   58.2670   26.8840   47.4800 O   0  0  0  0  0  0  0  0  0  0  0  0
   58.6190   29.1300   46.9080 N   0  0  0  0  0  0  0  0  0  0  0  0
   59.4530   29.4750   48.0270 C   0  0  0  0  0  0  0  0  0  0  0  0
   60.1160   28.4900   48.7800 C   0  0  0  0  0  0  0  0  0  0  0  0
   60.9500   28.8560   49.8400 C   0  0  0  0  0  0  0  0  0  0  0  0
   61.1440   30.2030   50.1490 C   0  0  0  0  0  0  0  0  0  0  0  0
   60.5120   31.1970   49.3880 C   0  0  0  0  0  0  0  0  0  0  0  0
   60.7860   32.9030   49.7490 S   0  0  0  0  0  0  0  0  0  0  0  0
   61.4610   33.0220   51.0870 O   0  0  0  0  0  0  0  0  0  0  0  0
   59.4550   33.5950   49.8450 O   0  0  0  0  0  0  0  0  0  0  0  0
   61.7640   33.7010   48.5340 N   0  0  0  0  0  0  0  0  0  0  0  0
   63.0600   34.1620   49.0660 C   0  0  0  0  0  0  0  0  0  0  0  0
   64.1300   33.0450   49.1130 C   0  0  0  0  0  0  0  0  0  0  0  0
   63.7380   31.8660   48.4380 O   0  0  0  0  0  0  0  0  0  0  0  0
   63.2350   32.1910   47.1640 C   0  0  0  0  0  0  0  0  0  0  0  0
   61.8860   32.9150   47.2870 C   0  0  0  0  0  0  0  0  0  0  0  0
   59.6670   30.8280   48.3330 C   0  0  0  0  0  0  0  0  0  0  0  0
   56.7330   30.9860   45.2280 N   0  0  0  0  0  0  0  0  0  0  0  0
   57.4520   31.8930   44.3410 C   0  0  0  0  0  0  0  0  0  0  0  0
   58.1080   32.9930   45.1320 C   0  0  0  0  0  0  0  0  0  0  0  0
   58.9800   33.8930   44.4960 C   0  0  0  0  0  0  0  0  0  0  0  0
   59.6090   34.9020   45.2310 C   0  0  0  0  0  0  0  0  0  0  0  0
   59.3740   35.0190   46.6040 C   0  0  0  0  0  0  0  0  0  0  0  0
   58.5090   34.1280   47.2430 C   0  0  0  0  0  0  0  0  0  0  0  0
   57.8770   33.1170   46.5130 C   0  0  0  0  0  0  0  0  0  0  0  0
   56.6711   26.9216   45.3882 H   0  0  0  0  0  0  0  0  0  0  0  0
   58.3384   26.8495   44.7101 H   0  0  0  0  0  0  0  0  0  0  0  0
   58.2640   29.9060   46.3060 H   0  0  0  0  0  0  0  0  0  0  0  0
   59.9777   27.4269   48.5338 H   0  0  0  0  0  0  0  0  0  0  0  0
   61.4554   28.0795   50.4330 H   0  0  0  0  0  0  0  0  0  0  0  0
   61.7935   30.4854   50.9906 H   0  0  0  0  0  0  0  0  0  0  0  0
   63.4315   34.9757   48.4258 H   0  0  0  0  0  0  0  0  0  0  0  0
   62.8895   34.4960   50.1001 H   0  0  0  0  0  0  0  0  0  0  0  0
   65.0513   33.4243   48.6468 H   0  0  0  0  0  0  0  0  0  0  0  0
   64.2788   32.7808   50.1704 H   0  0  0  0  0  0  0  0  0  0  0  0
   63.9520   32.8466   46.6482 H   0  0  0  0  0  0  0  0  0  0  0  0
   63.0899   31.2630   46.5914 H   0  0  0  0  0  0  0  0  0  0  0  0
   61.7744   33.5964   46.4307 H   0  0  0  0  0  0  0  0  0  0  0  0
   61.0999   32.1458   47.3045 H   0  0  0  0  0  0  0  0  0  0  0  0
   59.1663   31.6065   47.7386 H   0  0  0  0  0  0  0  0  0  0  0  0
   58.2234   31.3299   43.7952 H   0  0  0  0  0  0  0  0  0  0  0  0
   56.7378   32.3401   43.6339 H   0  0  0  0  0  0  0  0  0  0  0  0
   59.1682   33.8031   43.4160 H   0  0  0  0  0  0  0  0  0  0  0  0
   60.2897   35.6048   44.7283 H   0  0  0  0  0  0  0  0  0  0  0  0
   59.8704   35.8130   47.1812 H   0  0  0  0  0  0  0  0  0  0  0  0
   58.3245   34.2219   48.3233 H   0  0  0  0  0  0  0  0  0  0  0  0
   57.1972   32.4168   47.0206 H   0  0  0  0  0  0  0  0  0  0  0  0
  1  2  2  0
  2  3  1  0
  3  4  1  0
  4  5  1  0
  5  6  2  0
  5  7  1  0
  7  8  1  0
  8  9  2  0
  9 10  1  0
 10 11  2  0
 11 12  1  0
 12 13  1  0
 13 14  2  0
 13 15  2  0
 13 16  1  0
 16 17  1  0
 17 18  1  0
 18 19  1  0
 19 20  1  0
 20 21  1  0
 12 22  2  0
  2 23  1  0
 23 24  1  0
 24 25  1  0
 25 26  2  0
 26 27  1  0
 27 28  2  0
 28 29  1  0
 29 30  2  0
 22  8  1  0
 30 25  1  0
 21 16  1  0
  4 31  1  0
  4 32  1  0
  7 33  1  0
  9 34  1  0
 10 35  1  0
 11 36  1  0
 17 37  1  0
 17 38  1  0
 18 39  1  0
 18 40  1  0
 20 41  1  0
 20 42  1  0
 21 43  1  0
 21 44  1  0
 22 45  1  0
 24 46  1  0
 24 47  1  0
 26 48  1  0
 27 49  1  0
 28 50  1  0
 29 51  1  0
 30 52  1  0
M  CHG  2   3  -1  23  -1
M  END
>  <UniqueID>  (89) 
82

>  <SMILES>  (89) 
O=C([N-]CC(=O)Nc1cccc(S(=O)(=O)N2CCOCC2)c1)[N-]Cc1ccccc1

>  <Energy>  (89) 
60.80765297623496

>  <Genealogy>  (89) 
O=C([N-]CC(=O)Nc1cccc(S(=O)(=O)N2CCOCC2)c1)[N-]Cc1ccccc1 (protonated)
O=C([N-]CC(=O)Nc1cccc(S(=O)(=O)N2CCOCC2)c1)[N-]Cc1ccccc1 (3D coordinates assigned)
O=C([N-]CC(=O)Nc1cccc(S(=O)(=O)N2CCOCC2)c1)[N-]Cc1ccccc1 (nonaromatic ring conformer: 60.80765297623496 kcal/mol)

>  <smiles>  (89) 
O=C(CNC(=O)NCc1ccccc1)Nc1cccc(S(=O)(=O)N2CCOCC2)c1

>  <score_type>  (89) 
oracle

>  <origin>  (89) 
adg

>  <m_score__min__energy>  (89) 
-13.130000000000001

>  <m_primary>  (89) 
energy

$$$$
89:0
     RDKit          3D

 43 45  0  0  0  0  0  0  0  0999 V2000
   53.4620   24.2060   45.4340 O   0  0  0  0  0  0  0  0  0  0  0  0
   54.5780   24.7690   45.5710 C   0  0  0  0  0  0  0  0  0  0  0  0
   54.6150   26.0900   45.9930 O   0  0  0  0  0  0  0  0  0  0  0  0
   55.8400   24.0480   45.3050 C   0  0  0  0  0  0  0  0  0  0  0  0
   55.8890   22.4980   44.6490 S   0  0  0  0  0  0  0  0  0  0  0  0
   57.5530   22.3950   44.4910 C   0  0  0  0  0  0  0  0  0  0  0  0
   58.1050   23.5880   44.9370 C   0  0  0  0  0  0  0  0  0  0  0  0
   57.1560   24.5150   45.4030 C   0  0  0  0  0  0  0  0  0  0  0  0
   57.6120   26.1330   45.9580 S   0  0  0  0  0  0  0  0  0  0  0  0
   59.0280   26.4370   45.5460 O   0  0  0  0  0  0  0  0  0  0  0  0
   57.4900   26.1550   47.4570 O   0  0  0  0  0  0  0  0  0  0  0  0
   56.5730   27.3390   45.2500 N   0  0  0  0  0  0  0  0  0  0  0  0
   56.9530   28.7120   45.0440 C   0  0  0  0  0  0  0  0  0  0  0  0
   56.3580   29.5090   44.0450 C   0  0  0  0  0  0  0  0  0  0  0  0
   56.7860   30.8230   43.8400 C   0  0  0  0  0  0  0  0  0  0  0  0
   57.7810   31.3770   44.6560 C   0  0  0  0  0  0  0  0  0  0  0  0
   58.2490   32.7500   44.4010 C   0  0  0  0  0  0  0  0  0  0  0  0
   58.5030   33.0750   43.2100 O   0  0  0  0  0  0  0  0  0  0  0  0
   58.4400   33.7100   45.4670 N   0  0  0  0  0  0  0  0  0  0  0  0
   58.9720   35.0480   45.1520 C   0  0  0  0  0  0  0  0  0  0  0  0
   59.6420   35.6950   46.3790 C   0  0  0  0  0  0  0  0  0  0  0  0
   60.4010   34.6350   47.1930 C   0  0  0  0  0  0  0  0  0  0  0  0
   59.4660   33.5080   47.6960 C   0  0  0  0  0  0  0  0  0  0  0  0
   58.1650   33.4010   46.8800 C   0  0  0  0  0  0  0  0  0  0  0  0
   58.3620   30.5980   45.6680 C   0  0  0  0  0  0  0  0  0  0  0  0
   57.9390   29.2780   45.8700 C   0  0  0  0  0  0  0  0  0  0  0  0
   58.1119   21.5314   44.1012 H   0  0  0  0  0  0  0  0  0  0  0  0
   59.1863   23.7898   44.9268 H   0  0  0  0  0  0  0  0  0  0  0  0
   55.5800   27.0690   45.0700 H   0  0  0  0  0  0  0  0  0  0  0  0
   55.5515   29.0936   43.4229 H   0  0  0  0  0  0  0  0  0  0  0  0
   56.3400   31.4251   43.0347 H   0  0  0  0  0  0  0  0  0  0  0  0
   59.7153   34.9561   44.3464 H   0  0  0  0  0  0  0  0  0  0  0  0
   58.1328   35.6875   44.8410 H   0  0  0  0  0  0  0  0  0  0  0  0
   60.3483   36.4677   46.0414 H   0  0  0  0  0  0  0  0  0  0  0  0
   58.8656   36.1460   47.0145 H   0  0  0  0  0  0  0  0  0  0  0  0
   61.1814   34.1913   46.5574 H   0  0  0  0  0  0  0  0  0  0  0  0
   60.8373   35.1312   48.0724 H   0  0  0  0  0  0  0  0  0  0  0  0
   60.0027   32.5502   47.6283 H   0  0  0  0  0  0  0  0  0  0  0  0
   59.1870   33.7482   48.7326 H   0  0  0  0  0  0  0  0  0  0  0  0
   57.7659   32.3791   46.9601 H   0  0  0  0  0  0  0  0  0  0  0  0
   57.4279   34.1167   47.2731 H   0  0  0  0  0  0  0  0  0  0  0  0
   59.1514   31.0248   46.3042 H   0  0  0  0  0  0  0  0  0  0  0  0
   58.3816   28.6805   46.6806 H   0  0  0  0  0  0  0  0  0  0  0  0
  1  2  2  0
  2  3  1  0
  2  4  1  0
  4  5  1  0
  5  6  1  0
  6  7  2  0
  7  8  1  0
  8  9  1  0
  9 10  2  0
  9 11  2  0
  9 12  1  0
 12 13  1  0
 13 14  2  0
 14 15  1  0
 15 16  2  0
 16 17  1  0
 17 18  2  0
 17 19  1  0
 19 20  1  0
 20 21  1  0
 21 22  1  0
 22 23  1  0
 23 24  1  0
 16 25  1  0
 25 26  2  0
  8  4  2  0
 26 13  1  0
 24 19  1  0
  6 27  1  0
  7 28  1  0
 12 29  1  0
 14 30  1  0
 15 31  1  0
 20 32  1  0
 20 33  1  0
 21 34  1  0
 21 35  1  0
 22 36  1  0
 22 37  1  0
 23 38  1  0
 23 39  1  0
 24 40  1  0
 24 41  1  0
 25 42  1  0
 26 43  1  0
M  CHG  1   3  -1
M  END
>  <UniqueID>  (90) 
83

>  <SMILES>  (90) 
O=C([O-])c1sccc1S(=O)(=O)Nc1ccc(C(=O)N2CCCCC2)cc1

>  <Energy>  (90) 
87.048784193756

>  <Genealogy>  (90) 
O=C([O-])c1sccc1S(=O)(=O)Nc1ccc(C(=O)N2CCCCC2)cc1 (protonated)
O=C([O-])c1sccc1S(=O)(=O)Nc1ccc(C(=O)N2CCCCC2)cc1 (3D coordinates assigned)
O=C([O-])c1sccc1S(=O)(=O)Nc1ccc(C(=O)N2CCCCC2)cc1 (nonaromatic ring conformer: 87.048784193756 kcal/mol)

>  <smiles>  (90) 
O=C(O)c1sccc1S(=O)(=O)Nc1ccc(C(=O)N2CCCCC2)cc1

>  <score_type>  (90) 
oracle

>  <origin>  (90) 
adg

>  <m_score__min__energy>  (90) 
-11.699999999999999

>  <m_primary>  (90) 
energy

$$$$
90:0
     RDKit          3D

 42 45  0  0  0  0  0  0  0  0999 V2000
   59.0846   29.1543   48.5316 H   0  0  0  0  0  0  0  0  0  0  0  0
   59.6880   30.0640   48.6670 C   0  0  0  0  0  0  0  0  0  0  0  0
   60.6520   30.0380   49.6000 C   0  0  0  0  0  0  0  0  0  0  0  0
   60.5018   29.3765   50.4660 H   0  0  0  0  0  0  0  0  0  0  0  0
   61.9020   30.8300   49.5550 C   0  0  0  0  0  0  0  0  0  0  0  0
   62.0940   31.7350   48.5980 O   0  0  0  0  0  0  0  0  0  0  0  0
   63.1920   32.4760   48.5220 C   0  0  0  0  0  0  0  0  0  0  0  0
   63.3070   33.3090   47.5830 O   0  0  0  0  0  0  0  0  0  0  0  0
   64.2060   32.3250   49.4780 C   0  0  0  0  0  0  0  0  0  0  0  0
   65.3930   33.0780   49.4520 C   0  0  0  0  0  0  0  0  0  0  0  0
   65.5562   33.8209   48.6573 H   0  0  0  0  0  0  0  0  0  0  0  0
   66.3660   32.8820   50.4370 C   0  0  0  0  0  0  0  0  0  0  0  0
   67.2947   33.4710   50.4152 H   0  0  0  0  0  0  0  0  0  0  0  0
   66.1620   31.9400   51.4490 C   0  0  0  0  0  0  0  0  0  0  0  0
   66.9304   31.7899   52.2217 H   0  0  0  0  0  0  0  0  0  0  0  0
   64.9840   31.1880   51.4820 C   0  0  0  0  0  0  0  0  0  0  0  0
   64.8276   30.4479   52.2807 H   0  0  0  0  0  0  0  0  0  0  0  0
   64.0010   31.3750   50.4990 C   0  0  0  0  0  0  0  0  0  0  0  0
   62.8500   30.6480   50.5170 N   0  0  0  0  0  0  0  0  0  0  0  0
   62.6920   29.9410   51.2720 H   0  0  0  0  0  0  0  0  0  0  0  0
   59.3780   31.2260   47.8080 C   0  0  0  0  0  0  0  0  0  0  0  0
   58.8650   32.4000   48.3880 C   0  0  0  0  0  0  0  0  0  0  0  0
   58.7149   32.4513   49.4765 H   0  0  0  0  0  0  0  0  0  0  0  0
   58.5450   33.5010   47.5910 C   0  0  0  0  0  0  0  0  0  0  0  0
   58.1394   34.4136   48.0521 H   0  0  0  0  0  0  0  0  0  0  0  0
   58.7390   33.4450   46.2110 C   0  0  0  0  0  0  0  0  0  0  0  0
   58.4761   34.3094   45.5835 H   0  0  0  0  0  0  0  0  0  0  0  0
   59.2670   32.2920   45.6250 C   0  0  0  0  0  0  0  0  0  0  0  0
   59.4124   32.2503   44.5354 H   0  0  0  0  0  0  0  0  0  0  0  0
   59.6130   31.1870   46.4170 C   0  0  0  0  0  0  0  0  0  0  0  0
   60.2840   29.7220   45.6100 S   0  0  0  0  0  0  0  0  0  0  0  0
   58.7370   28.8150   45.7000 C   0  0  0  0  0  0  0  0  0  0  0  0
   58.6690   27.5970   46.3880 C   0  0  0  0  0  0  0  0  0  0  0  0
   59.5678   27.1909   46.8751 H   0  0  0  0  0  0  0  0  0  0  0  0
   57.4610   26.8960   46.4570 C   0  0  0  0  0  0  0  0  0  0  0  0
   57.4131   25.9356   46.9912 H   0  0  0  0  0  0  0  0  0  0  0  0
   56.3140   27.4140   45.8480 C   0  0  0  0  0  0  0  0  0  0  0  0
   55.1150   26.7160   45.9150 O   0  0  0  0  0  0  0  0  0  0  0  0
   56.3750   28.6380   45.1730 C   0  0  0  0  0  0  0  0  0  0  0  0
   55.4729   29.0483   44.6957 H   0  0  0  0  0  0  0  0  0  0  0  0
   57.5830   29.3400   45.1050 C   0  0  0  0  0  0  0  0  0  0  0  0
   57.6267   30.3071   44.5827 H   0  0  0  0  0  0  0  0  0  0  0  0
  1  2  1  0
  2  3  2  0
  3  4  1  0
  3  5  1  0
  5  6  1  0
  6  7  1  0
  7  8  2  0
  7  9  1  0
  9 10  2  0
 10 11  1  0
 10 12  1  0
 12 13  1  0
 12 14  2  0
 14 15  1  0
 14 16  1  0
 16 17  1  0
 16 18  2  0
 18 19  1  0
 19 20  1  0
  2 21  1  0
 21 22  2  0
 22 23  1  0
 22 24  1  0
 24 25  1  0
 24 26  2  0
 26 27  1  0
 26 28  1  0
 28 29  1  0
 28 30  2  0
 30 31  1  0
 31 32  1  0
 32 33  2  0
 33 34  1  0
 33 35  1  0
 35 36  1  0
 35 37  2  0
 37 38  1  0
 37 39  1  0
 39 40  1  0
 39 41  2  0
 41 42  1  0
 19  5  2  0
 30 21  1  0
 41 32  1  0
 18  9  1  0
M  CHG  2  19   1  38  -1
M  END
>  <UniqueID>  (91) 
84

>  <SMILES>  (91) 
O=c1oc(/C=C\c2ccccc2Sc2ccc([O-])cc2)[nH+]c2ccccc12

>  <Energy>  (91) 
56.18078033762068

>  <Genealogy>  (91) 
O=c1oc(C=Cc2ccccc2Sc2ccc([O-])cc2)[nH+]c2ccccc12 (protonated)
O=c1oc(/C=C\c2ccccc2Sc2ccc([O-])cc2)[nH+]c2ccccc12 (cis-trans isomerization)
O=c1oc(/C=C\c2ccccc2Sc2ccc([O-])cc2)[nH+]c2ccccc12 (3D coordinates assigned)
O=c1oc(/C=C\c2ccccc2Sc2ccc([O-])cc2)[nH+]c2ccccc12 (optimized conformer: 56.18078033762068 kcal/mol)

>  <smiles>  (91) 
O=c1oc(C=Cc2ccccc2Sc2ccc(O)cc2)nc2ccccc12

>  <score_type>  (91) 
oracle

>  <origin>  (91) 
adg

>  <m_score__min__energy>  (91) 
-10.51

>  <m_primary>  (91) 
energy

$$$$
91:0
     RDKit          3D

 35 37  0  0  0  0  0  0  0  0999 V2000
   56.1225   21.7812   44.4457 H   0  0  0  0  0  0  0  0  0  0  0  0
   55.9280   22.8080   44.7890 C   0  0  0  0  0  0  0  0  0  0  0  0
   56.8940   23.7580   44.6720 N   0  0  0  0  0  0  0  0  0  0  0  0
   56.7110   25.0440   45.0800 C   0  0  0  0  0  0  0  0  0  0  0  0
   57.7090   25.8730   44.9360 N   0  0  0  0  0  0  0  0  0  0  0  0
   57.8690   26.9050   43.9520 C   0  0  0  0  0  0  0  0  0  0  0  0
   58.3710   26.6030   42.8370 O   0  0  0  0  0  0  0  0  0  0  0  0
   57.5320   28.3190   44.2540 C   0  0  0  0  0  0  0  0  0  0  0  0
   57.9200   28.8960   45.4760 C   0  0  0  0  0  0  0  0  0  0  0  0
   58.4597   28.2902   46.2188 H   0  0  0  0  0  0  0  0  0  0  0  0
   57.6250   30.2340   45.7540 C   0  0  0  0  0  0  0  0  0  0  0  0
   57.9357   30.6731   46.7135 H   0  0  0  0  0  0  0  0  0  0  0  0
   56.9380   31.0190   44.8220 C   0  0  0  0  0  0  0  0  0  0  0  0
   56.6810   32.3940   45.1380 N   0  0  0  0  0  0  0  0  0  0  0  0
   57.8070   33.6950   44.9180 S   0  0  0  0  0  0  0  0  0  0  0  0
   58.7020   33.3840   43.7510 O   0  0  0  0  0  0  0  0  0  0  0  0
   57.0490   34.9610   44.6360 O   0  0  0  0  0  0  0  0  0  0  0  0
   58.7580   33.9120   46.3750 C   0  0  0  0  0  0  0  0  0  0  0  0
   60.0100   35.0170   46.5550 S   0  0  0  0  0  0  0  0  0  0  0  0
   60.3980   34.5800   48.1330 C   0  0  0  0  0  0  0  0  0  0  0  0
   61.1929   35.0285   48.7470 H   0  0  0  0  0  0  0  0  0  0  0  0
   59.5450   33.5570   48.5300 C   0  0  0  0  0  0  0  0  0  0  0  0
   59.5886   33.0877   49.5239 H   0  0  0  0  0  0  0  0  0  0  0  0
   58.6250   33.1810   47.5440 C   0  0  0  0  0  0  0  0  0  0  0  0
   57.8752   32.3882   47.6830 H   0  0  0  0  0  0  0  0  0  0  0  0
   56.5280   30.4420   43.6090 C   0  0  0  0  0  0  0  0  0  0  0  0
   55.9728   31.0455   42.8759 H   0  0  0  0  0  0  0  0  0  0  0  0
   56.8220   29.1050   43.3290 C   0  0  0  0  0  0  0  0  0  0  0  0
   56.4950   28.6632   42.3762 H   0  0  0  0  0  0  0  0  0  0  0  0
   55.4510   25.4170   45.6170 C   0  0  0  0  0  0  0  0  0  0  0  0
   55.1520   26.7250   45.9810 O   0  0  0  0  0  0  0  0  0  0  0  0
   54.4550   24.4440   45.7550 C   0  0  0  0  0  0  0  0  0  0  0  0
   53.4813   24.7138   46.1899 H   0  0  0  0  0  0  0  0  0  0  0  0
   54.6930   23.1340   45.3430 C   0  0  0  0  0  0  0  0  0  0  0  0
   53.9135   22.3659   45.4543 H   0  0  0  0  0  0  0  0  0  0  0  0
  1  2  1  0
  2  3  1  0
  3  4  1  0
  4  5  2  0
  5  6  1  0
  6  7  2  0
  6  8  1  0
  8  9  2  0
  9 10  1  0
  9 11  1  0
 11 12  1  0
 11 13  2  0
 13 14  1  0
 14 15  1  0
 15 16  2  0
 15 17  2  0
 15 18  1  0
 18 19  1  0
 19 20  1  0
 20 21  1  0
 20 22  2  0
 22 23  1  0
 22 24  1  0
 24 25  1  0
 13 26  1  0
 26 27  1  0
 26 28  2  0
 28 29  1  0
  4 30  1  0
 30 31  1  0
 30 32  2  0
 32 33  1  0
 32 34  1  0
 34 35  1  0
 34  2  2  0
 28  8  1  0
 24 18  2  0
M  CHG  3   3  -1  14  -1  31  -1
M  END
>  <UniqueID>  (92) 
85

>  <SMILES>  (92) 
O=C(/N=c1/[n-]cccc1[O-])c1ccc([N-]S(=O)(=O)c2cccs2)cc1

>  <Energy>  (92) 
81.26649558936278

>  <Genealogy>  (92) 
O=C(N=c1[n-]cccc1[O-])c1ccc([N-]S(=O)(=O)c2cccs2)cc1 (protonated)
O=C(/N=c1/[n-]cccc1[O-])c1ccc([N-]S(=O)(=O)c2cccs2)cc1 (cis-trans isomerization)
O=C(/N=c1/[n-]cccc1[O-])c1ccc([N-]S(=O)(=O)c2cccs2)cc1 (3D coordinates assigned)
O=C(/N=c1/[n-]cccc1[O-])c1ccc([N-]S(=O)(=O)c2cccs2)cc1 (optimized conformer: 81.26649558936278 kcal/mol)

>  <smiles>  (92) 
O=C(N=c1[nH]cccc1O)c1ccc(NS(=O)(=O)c2cccs2)cc1

>  <score_type>  (92) 
oracle

>  <origin>  (92) 
adg

>  <m_score__min__energy>  (92) 
-14.57

>  <m_primary>  (92) 
energy

$$$$
92:0
     RDKit          3D

 40 42  0  0  0  0  0  0  0  0999 V2000
   60.0461   26.4721   47.6685 H   0  0  0  0  0  0  0  0  0  0  0  0
   59.6230   26.6200   46.6640 C   0  0  0  0  0  0  0  0  0  0  0  0
   59.2420   25.5920   45.9690 N   0  0  0  0  0  0  0  0  0  0  0  0
   57.8890   25.1550   45.7500 C   0  0  0  0  0  0  0  0  0  0  0  0
   57.6830   23.8360   45.3300 C   0  0  0  0  0  0  0  0  0  0  0  0
   58.5470   23.1737   45.1724 H   0  0  0  0  0  0  0  0  0  0  0  0
   56.3920   23.3520   45.1090 C   0  0  0  0  0  0  0  0  0  0  0  0
   56.2463   22.3142   44.7747 H   0  0  0  0  0  0  0  0  0  0  0  0
   55.2810   24.1820   45.3110 C   0  0  0  0  0  0  0  0  0  0  0  0
   53.6510   23.5680   45.0340 S   0  0  0  0  0  0  0  0  0  0  0  0
   53.3510   23.5900   43.5610 O   0  0  0  0  0  0  0  0  0  0  0  0
   52.6420   24.4170   45.7550 O   0  0  0  0  0  0  0  0  0  0  0  0
   53.5410   21.9940   45.6080 O   0  0  0  0  0  0  0  0  0  0  0  0
   55.4770   25.5010   45.7520 C   0  0  0  0  0  0  0  0  0  0  0  0
   54.3900   26.3380   45.9800 O   0  0  0  0  0  0  0  0  0  0  0  0
   56.7720   25.9850   45.9710 C   0  0  0  0  0  0  0  0  0  0  0  0
   56.9185   27.0187   46.3174 H   0  0  0  0  0  0  0  0  0  0  0  0
   59.4940   27.9830   46.1200 C   0  0  0  0  0  0  0  0  0  0  0  0
   59.0280   28.3880   44.8750 C   0  0  0  0  0  0  0  0  0  0  0  0
   58.5470   27.5140   43.7630 C   0  0  0  0  0  0  0  0  0  0  0  0
   58.0567   26.6232   44.1826 H   0  0  0  0  0  0  0  0  0  0  0  0
   57.8282   28.0707   43.1438 H   0  0  0  0  0  0  0  0  0  0  0  0
   59.4019   27.2046   43.1438 H   0  0  0  0  0  0  0  0  0  0  0  0
   59.0410   29.7340   44.8050 N   0  0  0  0  0  0  0  0  0  0  0  0
   59.5110   30.1980   45.9540 N   0  0  0  0  0  0  0  0  0  0  0  0
   59.6420   31.6000   46.2350 C   0  0  0  0  0  0  0  0  0  0  0  0
   58.5900   32.4740   45.9280 C   0  0  0  0  0  0  0  0  0  0  0  0
   57.6637   32.0796   45.4847 H   0  0  0  0  0  0  0  0  0  0  0  0
   58.7100   33.8410   46.1810 C   0  0  0  0  0  0  0  0  0  0  0  0
   57.8751   34.5178   45.9468 H   0  0  0  0  0  0  0  0  0  0  0  0
   59.8880   34.3520   46.7310 C   0  0  0  0  0  0  0  0  0  0  0  0
   59.9739   35.4300   46.9325 H   0  0  0  0  0  0  0  0  0  0  0  0
   60.9650   33.4980   47.0290 C   0  0  0  0  0  0  0  0  0  0  0  0
   62.1860   34.0210   47.5810 N   0  0  0  0  0  0  0  0  0  0  0  0
   62.2800   34.2660   48.8020 O   0  0  0  0  0  0  0  0  0  0  0  0
   63.2750   34.2560   46.7730 O   0  0  0  0  0  0  0  0  0  0  0  0
   60.8340   32.1200   46.7690 C   0  0  0  0  0  0  0  0  0  0  0  0
   61.6735   31.4432   46.9861 H   0  0  0  0  0  0  0  0  0  0  0  0
   59.7920   29.1620   46.7770 C   0  0  0  0  0  0  0  0  0  0  0  0
   60.2970   29.2970   48.4590 Cl  0  0  0  0  0  0  0  0  0  0  0  0
  1  2  1  0
  2  3  2  0
  3  4  1  0
  4  5  2  0
  5  6  1  0
  5  7  1  0
  7  8  1  0
  7  9  2  0
  9 10  1  0
 10 11  2  0
 10 12  2  0
 10 13  1  0
  9 14  1  0
 14 15  1  0
 14 16  2  0
 16 17  1  0
  2 18  1  0
 18 19  1  0
 19 20  1  0
 20 21  1  0
 20 22  1  0
 20 23  1  0
 19 24  2  0
 24 25  1  0
 25 26  1  0
 26 27  2  0
 27 28  1  0
 27 29  1  0
 29 30  1  0
 29 31  2  0
 31 32  1  0
 31 33  1  0
 33 34  1  0
 34 35  2  0
 34 36  1  0
 33 37  2  0
 37 38  1  0
 25 39  1  0
 39 40  1  0
 16  4  1  0
 39 18  2  0
 37 26  1  0
M  CHG  4  13  -1  15  -1  34   1  36  -1
M  END
>  <UniqueID>  (93) 
86

>  <SMILES>  (93) 
Cc1nn(-c2cccc([N+](=O)[O-])c2)c(Cl)c1/C=N/c1ccc(S(=O)(=O)[O-])c([O-])c1

>  <Energy>  (93) 
83.06344376393471

>  <Genealogy>  (93) 
Cc1nn(-c2cccc([N+](=O)[O-])c2)c(Cl)c1C=Nc1ccc(S(=O)(=O)[O-])c([O-])c1 (protonated)
Cc1nn(-c2cccc([N+](=O)[O-])c2)c(Cl)c1/C=N/c1ccc(S(=O)(=O)[O-])c([O-])c1 (cis-trans isomerization)
Cc1nn(-c2cccc([N+](=O)[O-])c2)c(Cl)c1/C=N/c1ccc(S(=O)(=O)[O-])c([O-])c1 (3D coordinates assigned)
Cc1nn(-c2cccc([N+](=O)[O-])c2)c(Cl)c1/C=N/c1ccc(S(=O)(=O)[O-])c([O-])c1 (optimized conformer: 83.06344376393471 kcal/mol)

>  <smiles>  (93) 
Cc1nn(-c2cccc([N+](=O)[O-])c2)c(Cl)c1C=Nc1ccc(S(=O)(=O)O)c(O)c1

>  <score_type>  (93) 
oracle

>  <origin>  (93) 
adg

>  <m_score__min__energy>  (93) 
-15.199999999999999

>  <m_primary>  (93) 
energy

$$$$
93:0
     RDKit          3D

 42 44  0  0  0  0  0  0  0  0999 V2000
   55.1420   29.3300   44.8700 O   0  0  0  0  0  0  0  0  0  0  0  0
   56.3130   29.7850   44.7520 C   0  0  0  0  0  0  0  0  0  0  0  0
   56.5190   31.1860   44.5430 N   0  0  0  0  0  0  0  0  0  0  0  0
   57.8290   31.7820   44.3110 C   0  0  0  0  0  0  0  0  0  0  0  0
   58.6600   31.7210   45.5580 C   0  0  0  0  0  0  0  0  0  0  0  0
   58.6650   32.7910   46.4650 C   0  0  0  0  0  0  0  0  0  0  0  0
   59.4290   32.6970   47.6310 C   0  0  0  0  0  0  0  0  0  0  0  0
   60.1740   31.5430   47.8810 C   0  0  0  0  0  0  0  0  0  0  0  0
   60.1410   30.4940   46.9590 C   0  0  0  0  0  0  0  0  0  0  0  0
   59.3910   30.6040   45.8290 N   0  0  0  0  0  0  0  0  0  0  0  0
   57.4450   28.9060   44.7830 N   0  0  0  0  0  0  0  0  0  0  0  0
   57.3830   27.5180   45.1520 C   0  0  0  0  0  0  0  0  0  0  0  0
   57.7750   26.5440   44.2290 C   0  0  0  0  0  0  0  0  0  0  0  0
   57.7430   25.1880   44.5660 C   0  0  0  0  0  0  0  0  0  0  0  0
   57.3290   24.7620   45.8490 C   0  0  0  0  0  0  0  0  0  0  0  0
   57.2900   23.3450   46.2030 N   0  0  0  0  0  0  0  0  0  0  0  0
   58.0520   22.3740   45.3900 C   0  0  0  0  0  0  0  0  0  0  0  0
   57.8520   20.9200   45.8220 C   0  0  0  0  0  0  0  0  0  0  0  0
   57.7770   20.8150   47.2230 O   0  0  0  0  0  0  0  0  0  0  0  0
   56.5740   21.4100   47.6480 C   0  0  0  0  0  0  0  0  0  0  0  0
   56.6120   22.9270   47.4490 C   0  0  0  0  0  0  0  0  0  0  0  0
   56.9680   25.7630   46.7820 C   0  0  0  0  0  0  0  0  0  0  0  0
   57.0000   27.1170   46.4400 C   0  0  0  0  0  0  0  0  0  0  0  0
   58.3403   31.2316   43.5075 H   0  0  0  0  0  0  0  0  0  0  0  0
   57.6956   32.8351   44.0226 H   0  0  0  0  0  0  0  0  0  0  0  0
   58.0732   33.6953   46.2603 H   0  0  0  0  0  0  0  0  0  0  0  0
   59.4435   33.5296   48.3498 H   0  0  0  0  0  0  0  0  0  0  0  0
   60.7808   31.4606   48.7948 H   0  0  0  0  0  0  0  0  0  0  0  0
   60.7216   29.5787   47.1466 H   0  0  0  0  0  0  0  0  0  0  0  0
   58.3530   29.2830   44.4280 H   0  0  0  0  0  0  0  0  0  0  0  0
   58.1122   26.8480   43.2270 H   0  0  0  0  0  0  0  0  0  0  0  0
   58.0454   24.4387   43.8196 H   0  0  0  0  0  0  0  0  0  0  0  0
   57.7326   22.4721   44.3420 H   0  0  0  0  0  0  0  0  0  0  0  0
   59.1184   22.6065   45.5270 H   0  0  0  0  0  0  0  0  0  0  0  0
   56.9182   20.5396   45.3825 H   0  0  0  0  0  0  0  0  0  0  0  0
   58.7117   20.3296   45.4723 H   0  0  0  0  0  0  0  0  0  0  0  0
   55.7402   20.9915   47.0652 H   0  0  0  0  0  0  0  0  0  0  0  0
   56.4388   21.2004   48.7194 H   0  0  0  0  0  0  0  0  0  0  0  0
   55.5776   23.3002   47.4238 H   0  0  0  0  0  0  0  0  0  0  0  0
   57.1888   23.3473   48.2861 H   0  0  0  0  0  0  0  0  0  0  0  0
   56.6564   25.4694   47.7953 H   0  0  0  0  0  0  0  0  0  0  0  0
   56.7224   27.8750   47.1873 H   0  0  0  0  0  0  0  0  0  0  0  0
  1  2  2  0
  2  3  1  0
  3  4  1  0
  4  5  1  0
  5  6  2  0
  6  7  1  0
  7  8  2  0
  8  9  1  0
  9 10  2  0
  2 11  1  0
 11 12  1  0
 12 13  2  0
 13 14  1  0
 14 15  2  0
 15 16  1  0
 16 17  1  0
 17 18  1  0
 18 19  1  0
 19 20  1  0
 20 21  1  0
 15 22  1  0
 22 23  2  0
 10  5  1  0
 23 12  1  0
 21 16  1  0
  4 24  1  0
  4 25  1  0
  6 26  1  0
  7 27  1  0
  8 28  1  0
  9 29  1  0
 11 30  1  0
 13 31  1  0
 14 32  1  0
 17 33  1  0
 17 34  1  0
 18 35  1  0
 18 36  1  0
 20 37  1  0
 20 38  1  0
 21 39  1  0
 21 40  1  0
 22 41  1  0
 23 42  1  0
M  CHG  1   3  -1
M  END
>  <UniqueID>  (94) 
87

>  <SMILES>  (94) 
O=C([N-]Cc1ccccn1)Nc1ccc(N2CCOCC2)cc1

>  <Energy>  (94) 
52.41536107487892

>  <Genealogy>  (94) 
O=C([N-]Cc1ccccn1)Nc1ccc(N2CCOCC2)cc1 (protonated)
O=C([N-]Cc1ccccn1)Nc1ccc(N2CCOCC2)cc1 (3D coordinates assigned)
O=C([N-]Cc1ccccn1)Nc1ccc(N2CCOCC2)cc1 (nonaromatic ring conformer: 52.41536107487892 kcal/mol)

>  <smiles>  (94) 
O=C(NCc1ccccn1)Nc1ccc(N2CCOCC2)cc1

>  <score_type>  (94) 
oracle

>  <origin>  (94) 
adg

>  <m_score__min__energy>  (94) 
-9.3300000000000001

>  <m_primary>  (94) 
energy

$$$$
94:0
     RDKit          3D

 28 30  0  0  0  0  0  0  0  0999 V2000
   54.5850   25.6850   46.3900 H   0  0  0  0  0  0  0  0  0  0  0  0
   54.1410   24.8390   46.0560 O   0  0  0  0  0  0  0  0  0  0  0  0
   54.6550   23.5660   46.3060 C   0  0  0  0  0  0  0  0  0  0  0  0
   53.9690   22.4850   45.8500 N   0  0  0  0  0  0  0  0  0  0  0  0
   54.4180   21.2230   46.0610 C   0  0  0  0  0  0  0  0  0  0  0  0
   53.7630   20.2420   45.6220 O   0  0  0  0  0  0  0  0  0  0  0  0
   55.5700   21.0160   46.7470 N   0  0  0  0  0  0  0  0  0  0  0  0
   56.2960   22.0580   47.2290 C   0  0  0  0  0  0  0  0  0  0  0  0
   57.3480   21.8260   47.8830 O   0  0  0  0  0  0  0  0  0  0  0  0
   55.8640   23.3780   47.0040 C   0  0  0  0  0  0  0  0  0  0  0  0
   56.6140   24.5290   47.5500 C   0  0  0  0  0  0  0  0  0  0  0  0
   56.9422   24.4819   48.5988 H   0  0  0  0  0  0  0  0  0  0  0  0
   56.9180   25.6270   46.8430 C   0  0  0  0  0  0  0  0  0  0  0  0
   55.9730   26.5430   46.4700 N   0  0  0  0  0  0  0  0  0  0  0  0
   56.7090   27.4400   45.7820 C   0  0  0  0  0  0  0  0  0  0  0  0
   56.4080   28.6030   45.1190 C   0  0  0  0  0  0  0  0  0  0  0  0
   55.1570   29.1980   44.9980 O   0  0  0  0  0  0  0  0  0  0  0  0
   57.6270   29.0530   44.5870 C   0  0  0  0  0  0  0  0  0  0  0  0
   57.7950   30.1600   43.8610 C   0  0  0  0  0  0  0  0  0  0  0  0
   58.7950   30.4269   43.4884 H   0  0  0  0  0  0  0  0  0  0  0  0
   56.9335   30.8056   43.6351 H   0  0  0  0  0  0  0  0  0  0  0  0
   58.6080   28.1120   44.9700 C   0  0  0  0  0  0  0  0  0  0  0  0
   59.9140   28.1170   44.6900 C   0  0  0  0  0  0  0  0  0  0  0  0
   60.3449   28.9326   44.0908 H   0  0  0  0  0  0  0  0  0  0  0  0
   60.5586   27.3055   45.0586 H   0  0  0  0  0  0  0  0  0  0  0  0
   57.9880   27.1620   45.6930 N   0  0  0  0  0  0  0  0  0  0  0  0
   58.1710   26.0150   46.3470 C   0  0  0  0  0  0  0  0  0  0  0  0
   59.2720   25.4090   46.4480 O   0  0  0  0  0  0  0  0  0  0  0  0
  1  2  1  0
  2  3  1  0
  3  4  1  0
  4  5  1  0
  5  6  2  0
  5  7  1  0
  7  8  1  0
  8  9  2  0
  8 10  1  0
 10 11  1  0
 11 12  1  0
 11 13  2  0
 13 14  1  0
 14 15  1  0
 15 16  2  0
 16 17  1  0
 16 18  1  0
 18 19  2  0
 19 20  1  0
 19 21  1  0
 18 22  1  0
 22 23  2  0
 23 24  1  0
 23 25  1  0
 22 26  1  0
 26 27  1  0
 27 28  2  0
 10  3  2  0
 27 13  1  0
 26 15  1  0
M  CHG  4   4  -1   7  -1  14  -1  17  -1
M  END
>  <UniqueID>  (95) 
88

>  <SMILES>  (95) 
C=c1c([O-])c2[n-]/c(=C/c3c(O)[n-]c(=O)[n-]c3=O)c(=O)n2c1=C

>  <Energy>  (95) 
131.0777227416598

>  <Genealogy>  (95) 
C=c1c([O-])c2[n-]c(=Cc3c(O)[n-]c(=O)[n-]c3=O)c(=O)n2c1=C (protonated)
C=c1c([O-])c2[n-]/c(=C/c3c(O)[n-]c(=O)[n-]c3=O)c(=O)n2c1=C (cis-trans isomerization)
C=c1c([O-])c2[n-]/c(=C/c3c(O)[n-]c(=O)[n-]c3=O)c(=O)n2c1=C (3D coordinates assigned)
C=c1c([O-])c2[n-]/c(=C/c3c(O)[n-]c(=O)[n-]c3=O)c(=O)n2c1=C (optimized conformer: 131.0777227416598 kcal/mol)

>  <smiles>  (95) 
C=c1c(O)c2[nH]c(=Cc3c(O)[nH]c(=O)[nH]c3=O)c(=O)n2c1=C

>  <score_type>  (95) 
oracle

>  <origin>  (95) 
adg

>  <m_score__min__energy>  (95) 
-15.380000000000001

>  <m_primary>  (95) 
energy

$$$$
95:0
     RDKit          3D

 49 51  0  0  0  0  0  0  0  0999 V2000
   60.4260   27.9810   49.3800 C   0  0  0  0  0  0  0  0  0  0  0  0
   60.6480   29.2490   49.9870 O   0  0  0  0  0  0  0  0  0  0  0  0
   60.2780   30.4760   49.4150 C   0  0  0  0  0  0  0  0  0  0  0  0
   58.9350   30.8580   49.2510 C   0  0  0  0  0  0  0  0  0  0  0  0
   58.6190   32.0860   48.6700 C   0  0  0  0  0  0  0  0  0  0  0  0
   59.6320   32.9430   48.2280 C   0  0  0  0  0  0  0  0  0  0  0  0
   59.2710   34.1950   47.6360 N   0  0  0  0  0  0  0  0  0  0  0  0
   59.0530   34.4050   46.2350 C   0  0  0  0  0  0  0  0  0  0  0  0
   59.9200   35.0320   45.5730 O   0  0  0  0  0  0  0  0  0  0  0  0
   57.7840   33.9700   45.5550 C   0  0  0  0  0  0  0  0  0  0  0  0
   58.1460   33.0390   44.0260 S   0  0  0  0  0  0  0  0  0  0  0  0
   57.8670   31.4310   44.7640 C   0  0  0  0  0  0  0  0  0  0  0  0
   58.8580   30.8290   45.4700 N   0  0  0  0  0  0  0  0  0  0  0  0
   58.6670   29.6150   46.0460 C   0  0  0  0  0  0  0  0  0  0  0  0
   59.6070   29.0810   46.6930 O   0  0  0  0  0  0  0  0  0  0  0  0
   57.4280   28.9700   45.9310 C   0  0  0  0  0  0  0  0  0  0  0  0
   57.2400   27.6820   46.5370 N   0  0  0  0  0  0  0  0  0  0  0  0
   56.4520   26.6140   45.9940 C   0  0  0  0  0  0  0  0  0  0  0  0
   55.1940   26.7090   45.9760 O   0  0  0  0  0  0  0  0  0  0  0  0
   57.1080   25.3790   45.5050 C   0  0  0  0  0  0  0  0  0  0  0  0
   56.5460   24.6400   44.4460 C   0  0  0  0  0  0  0  0  0  0  0  0
   57.1670   23.4750   43.9880 C   0  0  0  0  0  0  0  0  0  0  0  0
   58.3530   23.0330   44.5800 C   0  0  0  0  0  0  0  0  0  0  0  0
   58.9200   23.7560   45.6310 C   0  0  0  0  0  0  0  0  0  0  0  0
   58.3020   24.9220   46.0940 C   0  0  0  0  0  0  0  0  0  0  0  0
   56.4310   29.5930   45.1590 C   0  0  0  0  0  0  0  0  0  0  0  0
   55.2110   28.9640   44.9270 O   0  0  0  0  0  0  0  0  0  0  0  0
   56.6710   30.8110   44.6050 N   0  0  0  0  0  0  0  0  0  0  0  0
   60.9810   32.5930   48.4210 C   0  0  0  0  0  0  0  0  0  0  0  0
   61.9790   33.5080   48.0450 O   0  0  0  0  0  0  0  0  0  0  0  0
   62.6260   33.5220   46.7770 C   0  0  0  0  0  0  0  0  0  0  0  0
   61.2930   31.3480   49.0020 C   0  0  0  0  0  0  0  0  0  0  0  0
   60.2925   27.2186   50.1617 H   0  0  0  0  0  0  0  0  0  0  0  0
   59.5223   28.0271   48.7546 H   0  0  0  0  0  0  0  0  0  0  0  0
   61.2916   27.7173   48.7546 H   0  0  0  0  0  0  0  0  0  0  0  0
   58.1300   30.1856   49.5823 H   0  0  0  0  0  0  0  0  0  0  0  0
   57.5656   32.3825   48.5586 H   0  0  0  0  0  0  0  0  0  0  0  0
   57.2109   33.3278   46.2399 H   0  0  0  0  0  0  0  0  0  0  0  0
   57.2036   34.8661   45.2903 H   0  0  0  0  0  0  0  0  0  0  0  0
   55.6120   24.9821   43.9763 H   0  0  0  0  0  0  0  0  0  0  0  0
   56.7213   22.9047   43.1597 H   0  0  0  0  0  0  0  0  0  0  0  0
   58.8398   22.1154   44.2179 H   0  0  0  0  0  0  0  0  0  0  0  0
   59.8543   23.4080   46.0957 H   0  0  0  0  0  0  0  0  0  0  0  0
   58.7521   25.4859   46.9243 H   0  0  0  0  0  0  0  0  0  0  0  0
   55.1290   27.9550   44.9710 H   0  0  0  0  0  0  0  0  0  0  0  0
   63.7162   33.5456   46.9219 H   0  0  0  0  0  0  0  0  0  0  0  0
   62.3503   32.6177   46.2147 H   0  0  0  0  0  0  0  0  0  0  0  0
   62.3115   34.4135   46.2147 H   0  0  0  0  0  0  0  0  0  0  0  0
   62.3459   31.0576   49.1327 H   0  0  0  0  0  0  0  0  0  0  0  0
  1  2  1  0
  2  3  1  0
  3  4  2  0
  4  5  1  0
  5  6  2  0
  6  7  1  0
  7  8  1  0
  8  9  2  0
  8 10  1  0
 10 11  1  0
 11 12  1  0
 12 13  2  0
 13 14  1  0
 14 15  2  0
 14 16  1  0
 16 17  1  0
 17 18  1  0
 18 19  2  0
 18 20  1  0
 20 21  2  0
 21 22  1  0
 22 23  2  0
 23 24  1  0
 24 25  2  0
 16 26  2  0
 26 27  1  0
 26 28  1  0
  6 29  1  0
 29 30  1  0
 30 31  1  0
 29 32  2  0
 32  3  1  0
 28 12  1  0
 25 20  1  0
  1 33  1  0
  1 34  1  0
  1 35  1  0
  4 36  1  0
  5 37  1  0
 10 38  1  0
 10 39  1  0
 21 40  1  0
 22 41  1  0
 23 42  1  0
 24 43  1  0
 25 44  1  0
 27 45  1  0
 31 46  1  0
 31 47  1  0
 31 48  1  0
 32 49  1  0
M  CHG  3   7  -1  17  -1  28  -1
M  END
>  <UniqueID>  (96) 
89

>  <SMILES>  (96) 
COc1ccc([N-]C(=O)CSc2nc(=O)c([N-]C(=O)c3ccccc3)c(O)[n-]2)c(OC)c1

>  <Energy>  (96) 
59.292303986639475

>  <Genealogy>  (96) 
COc1ccc([N-]C(=O)CSc2nc(=O)c([N-]C(=O)c3ccccc3)c(O)[n-]2)c(OC)c1 (protonated)
COc1ccc([N-]C(=O)CSc2nc(=O)c([N-]C(=O)c3ccccc3)c(O)[n-]2)c(OC)c1 (3D coordinates assigned)
COc1ccc([N-]C(=O)CSc2nc(=O)c([N-]C(=O)c3ccccc3)c(O)[n-]2)c(OC)c1 (optimized conformer: 59.292303986639475 kcal/mol)

>  <smiles>  (96) 
COc1ccc(NC(=O)CSc2nc(=O)c(NC(=O)c3ccccc3)c(O)[nH]2)c(OC)c1

>  <score_type>  (96) 
oracle

>  <origin>  (96) 
adg

>  <m_score__min__energy>  (96) 
-13.119999999999999

>  <m_primary>  (96) 
energy

$$$$
96:0
     RDKit          3D

 48 51  0  0  0  0  0  0  0  0999 V2000
   61.8490   32.7910   47.6400 C   0  0  0  0  0  0  0  0  0  0  0  0
   60.8000   32.8790   48.6660 N   0  0  0  0  0  0  0  0  0  0  0  0
   59.8250   33.9950   48.5160 C   0  0  0  0  0  0  0  0  0  0  0  0
   59.0590   34.0150   47.2070 C   0  0  0  0  0  0  0  0  0  0  0  0
   59.6310   34.5680   46.0500 C   0  0  0  0  0  0  0  0  0  0  0  0
   58.9120   34.5970   44.8510 C   0  0  0  0  0  0  0  0  0  0  0  0
   57.6180   34.0720   44.7970 C   0  0  0  0  0  0  0  0  0  0  0  0
   57.0410   33.5170   45.9420 C   0  0  0  0  0  0  0  0  0  0  0  0
   57.7560   33.4890   47.1430 C   0  0  0  0  0  0  0  0  0  0  0  0
   60.0070   31.3350   48.8820 S   0  0  0  0  0  0  0  0  0  0  0  0
   58.6960   31.5580   49.5860 O   0  0  0  0  0  0  0  0  0  0  0  0
   60.8490   30.4370   49.7460 O   0  0  0  0  0  0  0  0  0  0  0  0
   59.7110   30.5320   47.3390 C   0  0  0  0  0  0  0  0  0  0  0  0
   60.7640   29.9100   46.6580 C   0  0  0  0  0  0  0  0  0  0  0  0
   60.5370   29.3020   45.4220 C   0  0  0  0  0  0  0  0  0  0  0  0
   59.2580   29.3070   44.8600 C   0  0  0  0  0  0  0  0  0  0  0  0
   58.1880   29.9260   45.5310 C   0  0  0  0  0  0  0  0  0  0  0  0
   56.8230   29.8980   44.9490 C   0  0  0  0  0  0  0  0  0  0  0  0
   56.4750   30.7990   44.1390 O   0  0  0  0  0  0  0  0  0  0  0  0
   55.9050   28.8290   45.2190 N   0  0  0  0  0  0  0  0  0  0  0  0
   56.2460   27.6080   45.5040 C   0  0  0  0  0  0  0  0  0  0  0  0
   57.4990   27.1420   45.2610 N   0  0  0  0  0  0  0  0  0  0  0  0
   57.4140   25.8690   45.6700 C   0  0  0  0  0  0  0  0  0  0  0  0
   58.4170   24.9020   45.6570 C   0  0  0  0  0  0  0  0  0  0  0  0
   58.0920   23.6160   46.1290 C   0  0  0  0  0  0  0  0  0  0  0  0
   56.7850   23.3330   46.5880 C   0  0  0  0  0  0  0  0  0  0  0  0
   55.7970   24.3340   46.5810 C   0  0  0  0  0  0  0  0  0  0  0  0
   56.1580   25.5990   46.1210 C   0  0  0  0  0  0  0  0  0  0  0  0
   55.3860   26.6930   46.0290 N   0  0  0  0  0  0  0  0  0  0  0  0
   58.4250   30.5260   46.7820 C   0  0  0  0  0  0  0  0  0  0  0  0
   62.8320   32.7085   48.1268 H   0  0  0  0  0  0  0  0  0  0  0  0
   61.6749   31.9043   47.0127 H   0  0  0  0  0  0  0  0  0  0  0  0
   61.8251   33.6943   47.0127 H   0  0  0  0  0  0  0  0  0  0  0  0
   59.0952   33.9211   49.3357 H   0  0  0  0  0  0  0  0  0  0  0  0
   60.4177   34.9214   48.5357 H   0  0  0  0  0  0  0  0  0  0  0  0
   60.6500   34.9806   46.0870 H   0  0  0  0  0  0  0  0  0  0  0  0
   59.3656   35.0337   43.9490 H   0  0  0  0  0  0  0  0  0  0  0  0
   57.0538   34.0957   43.8530 H   0  0  0  0  0  0  0  0  0  0  0  0
   56.0233   33.1017   45.8985 H   0  0  0  0  0  0  0  0  0  0  0  0
   57.2972   33.0533   48.0428 H   0  0  0  0  0  0  0  0  0  0  0  0
   61.7723   29.9003   47.0976 H   0  0  0  0  0  0  0  0  0  0  0  0
   61.3681   28.8173   44.8887 H   0  0  0  0  0  0  0  0  0  0  0  0
   59.0867   28.8239   43.8867 H   0  0  0  0  0  0  0  0  0  0  0  0
   59.4277   25.1352   45.2907 H   0  0  0  0  0  0  0  0  0  0  0  0
   58.8588   22.8274   46.1407 H   0  0  0  0  0  0  0  0  0  0  0  0
   56.5395   22.3246   46.9525 H   0  0  0  0  0  0  0  0  0  0  0  0
   54.7739   24.1254   46.9269 H   0  0  0  0  0  0  0  0  0  0  0  0
   57.5928   30.9947   47.3277 H   0  0  0  0  0  0  0  0  0  0  0  0
  1  2  1  0
  2  3  1  0
  3  4  1  0
  4  5  2  0
  5  6  1  0
  6  7  2  0
  7  8  1  0
  8  9  2  0
  2 10  1  0
 10 11  2  0
 10 12  2  0
 10 13  1  0
 13 14  2  0
 14 15  1  0
 15 16  2  0
 16 17  1  0
 17 18  1  0
 18 19  2  0
 18 20  1  0
 20 21  2  3
 21 22  1  0
 22 23  1  0
 23 24  2  0
 24 25  1  0
 25 26  2  0
 26 27  1  0
 27 28  2  0
 28 29  1  0
 17 30  2  0
  9  4  1  0
 30 13  1  0
 29 21  1  0
 28 23  1  0
  1 31  1  0
  1 32  1  0
  1 33  1  0
  3 34  1  0
  3 35  1  0
  5 36  1  0
  6 37  1  0
  7 38  1  0
  8 39  1  0
  9 40  1  0
 14 41  1  0
 15 42  1  0
 16 43  1  0
 24 44  1  0
 25 45  1  0
 26 46  1  0
 27 47  1  0
 30 48  1  0
M  CHG  2  22  -1  29  -1
M  END
>  <UniqueID>  (97) 
90

>  <SMILES>  (97) 
CN(Cc1ccccc1)S(=O)(=O)c1cccc(C(=O)N=c2[n-]c3ccccc3[n-]2)c1

>  <Energy>  (97) 
97.17817286116085

>  <Genealogy>  (97) 
CN(Cc1ccccc1)S(=O)(=O)c1cccc(C(=O)N=c2[n-]c3ccccc3[n-]2)c1 (protonated)
CN(Cc1ccccc1)S(=O)(=O)c1cccc(C(=O)N=c2[n-]c3ccccc3[n-]2)c1 (3D coordinates assigned)
CN(Cc1ccccc1)S(=O)(=O)c1cccc(C(=O)N=c2[n-]c3ccccc3[n-]2)c1 (optimized conformer: 97.17817286116085 kcal/mol)

>  <smiles>  (97) 
CN(Cc1ccccc1)S(=O)(=O)c1cccc(C(=O)N=c2[nH]c3ccccc3[nH]2)c1

>  <score_type>  (97) 
oracle

>  <origin>  (97) 
adg

>  <m_score__min__energy>  (97) 
-13.039999999999999

>  <m_primary>  (97) 
energy

$$$$
97:0
     RDKit          3D

 32 35  0  0  0  0  0  0  0  0999 V2000
   63.6410   31.9640   47.8270 C   0  0  0  0  0  0  0  0  0  0  0  0
   62.5000   31.8410   48.6240 C   0  0  0  0  0  0  0  0  0  0  0  0
   61.4290   32.7230   48.4540 C   0  0  0  0  0  0  0  0  0  0  0  0
   61.4860   33.7350   47.4860 C   0  0  0  0  0  0  0  0  0  0  0  0
   60.3800   34.5900   47.3530 O   0  0  0  0  0  0  0  0  0  0  0  0
   59.7040   34.8770   46.1290 C   0  0  0  0  0  0  0  0  0  0  0  0
   58.8620   33.7160   45.7020 C   0  0  0  0  0  0  0  0  0  0  0  0
   59.1740   32.4160   45.9770 N   0  0  0  0  0  0  0  0  0  0  0  0
   58.2290   31.6160   45.5090 N   0  0  0  0  0  0  0  0  0  0  0  0
   57.9560   30.3060   45.4910 C   0  0  0  0  0  0  0  0  0  0  0  0
   58.7860   29.2190   46.0360 C   0  0  0  0  0  0  0  0  0  0  0  0
   59.5760   28.3590   45.2810 C   0  0  0  0  0  0  0  0  0  0  0  0
   60.2720   27.4210   46.0520 C   0  0  0  0  0  0  0  0  0  0  0  0
   60.0370   27.5350   47.4150 C   0  0  0  0  0  0  0  0  0  0  0  0
   58.9650   28.8060   47.6580 S   0  0  0  0  0  0  0  0  0  0  0  0
   56.7550   30.1190   44.8750 N   0  0  0  0  0  0  0  0  0  0  0  0
   56.2810   31.3170   44.5130 N   0  0  0  0  0  0  0  0  0  0  0  0
   57.2160   32.1910   44.9190 C   0  0  0  0  0  0  0  0  0  0  0  0
   57.3500   33.8630   44.8840 S   0  0  0  0  0  0  0  0  0  0  0  0
   62.6420   33.8550   46.6880 C   0  0  0  0  0  0  0  0  0  0  0  0
   63.7120   32.9710   46.8600 C   0  0  0  0  0  0  0  0  0  0  0  0
   64.4830   31.2688   47.9604 H   0  0  0  0  0  0  0  0  0  0  0  0
   62.4445   31.0495   49.3858 H   0  0  0  0  0  0  0  0  0  0  0  0
   60.5339   32.6220   49.0853 H   0  0  0  0  0  0  0  0  0  0  0  0
   59.0595   35.7571   46.2708 H   0  0  0  0  0  0  0  0  0  0  0  0
   60.4547   35.0737   45.3494 H   0  0  0  0  0  0  0  0  0  0  0  0
   60.0260   32.1000   46.4890 H   0  0  0  0  0  0  0  0  0  0  0  0
   59.6470   28.4109   44.1845 H   0  0  0  0  0  0  0  0  0  0  0  0
   60.9424   26.6644   45.6183 H   0  0  0  0  0  0  0  0  0  0  0  0
   60.4765   26.9027   48.2005 H   0  0  0  0  0  0  0  0  0  0  0  0
   62.7026   34.6470   45.9271 H   0  0  0  0  0  0  0  0  0  0  0  0
   64.6108   33.0683   46.2334 H   0  0  0  0  0  0  0  0  0  0  0  0
  1  2  2  0
  2  3  1  0
  3  4  2  0
  4  5  1  0
  5  6  1  0
  6  7  1  0
  7  8  2  0
  8  9  1  0
  9 10  1  0
 10 11  1  0
 11 12  2  0
 12 13  1  0
 13 14  2  0
 14 15  1  0
 10 16  2  0
 16 17  1  0
 17 18  2  0
 18 19  1  0
  4 20  1  0
 20 21  2  0
 21  1  1  0
 19  7  1  0
 18  9  1  0
 15 11  1  0
  1 22  1  0
  2 23  1  0
  3 24  1  0
  6 25  1  0
  6 26  1  0
  8 27  1  0
 12 28  1  0
 13 29  1  0
 14 30  1  0
 20 31  1  0
 21 32  1  0
M  CHG  1   8   1
M  END
>  <UniqueID>  (98) 
91

>  <SMILES>  (98) 
c1ccc(OCc2[nH+]n3c(-c4cccs4)nnc3s2)cc1

>  <Energy>  (98) 
154.8105406022114

>  <Genealogy>  (98) 
c1ccc(OCc2[nH+]n3c(-c4cccs4)nnc3s2)cc1 (protonated)
c1ccc(OCc2[nH+]n3c(-c4cccs4)nnc3s2)cc1 (3D coordinates assigned)
c1ccc(OCc2[nH+]n3c(-c4cccs4)nnc3s2)cc1 (optimized conformer: 154.8105406022114 kcal/mol)

>  <smiles>  (98) 
c1ccc(OCc2nn3c(-c4cccs4)nnc3s2)cc1

>  <score_type>  (98) 
oracle

>  <origin>  (98) 
adg

>  <m_score__min__energy>  (98) 
-6.4100000000000001

>  <m_primary>  (98) 
energy

$$$$
98:0
     RDKit          3D

 64 67  0  0  0  0  0  0  0  0999 V2000
   60.7840   30.4340   46.6540 C   0  0  0  0  0  0  0  0  0  0  0  0
   60.8040   29.3620   47.7030 C   0  0  0  0  0  0  0  0  0  0  0  0
   61.1590   29.6720   49.0220 C   0  0  0  0  0  0  0  0  0  0  0  0
   61.1430   28.6780   50.0080 C   0  0  0  0  0  0  0  0  0  0  0  0
   60.7860   27.3570   49.6810 C   0  0  0  0  0  0  0  0  0  0  0  0
   60.7780   26.2930   50.7430 C   0  0  0  0  0  0  0  0  0  0  0  0
   60.3880   26.8670   52.0260 N   0  0  0  0  0  0  0  0  0  0  0  0
   59.9850   26.0680   53.1540 C   0  0  0  0  0  0  0  0  0  0  0  0
   60.0330   24.8100   53.0900 O   0  0  0  0  0  0  0  0  0  0  0  0
   59.4980   26.7170   54.4160 C   0  0  0  0  0  0  0  0  0  0  0  0
   58.1070   27.1300   54.2610 N   0  0  0  0  0  0  0  0  0  0  0  0
   57.6130   28.2920   53.5730 C   0  0  0  0  0  0  0  0  0  0  0  0
   56.3680   28.4890   53.5690 O   0  0  0  0  0  0  0  0  0  0  0  0
   58.4970   29.2770   52.8940 C   0  0  0  0  0  0  0  0  0  0  0  0
   57.9840   30.0810   51.8620 C   0  0  0  0  0  0  0  0  0  0  0  0
   58.7840   31.0530   51.2530 C   0  0  0  0  0  0  0  0  0  0  0  0
   60.1220   31.2100   51.6320 C   0  0  0  0  0  0  0  0  0  0  0  0
   60.9150   32.2070   50.9750 N   0  0  0  0  0  0  0  0  0  0  0  0
   60.2890   33.6400   50.2190 S   0  0  0  0  0  0  0  0  0  0  0  0
   61.4210   34.5970   49.9830 O   0  0  0  0  0  0  0  0  0  0  0  0
   59.3010   34.2790   51.1530 O   0  0  0  0  0  0  0  0  0  0  0  0
   59.5190   33.2930   48.6730 C   0  0  0  0  0  0  0  0  0  0  0  0
   58.7960   32.1040   48.4840 C   0  0  0  0  0  0  0  0  0  0  0  0
   58.1350   31.8660   47.2740 C   0  0  0  0  0  0  0  0  0  0  0  0
   58.2150   32.8030   46.2240 C   0  0  0  0  0  0  0  0  0  0  0  0
   57.4940   32.5730   44.9500 C   0  0  0  0  0  0  0  0  0  0  0  0
   57.4910   33.4730   44.0640 O   0  0  0  0  0  0  0  0  0  0  0  0
   56.8040   31.3290   44.7300 N   0  0  0  0  0  0  0  0  0  0  0  0
   57.3340   30.1400   44.7250 C   0  0  0  0  0  0  0  0  0  0  0  0
   58.6650   29.9630   44.4820 N   0  0  0  0  0  0  0  0  0  0  0  0
   59.2350   28.7300   44.4360 C   0  0  0  0  0  0  0  0  0  0  0  0
   58.4540   27.5920   44.6460 C   0  0  0  0  0  0  0  0  0  0  0  0
   57.0870   27.7400   44.9020 C   0  0  0  0  0  0  0  0  0  0  0  0
   56.5190   29.0160   44.9380 C   0  0  0  0  0  0  0  0  0  0  0  0
   55.1560   29.1620   45.1820 O   0  0  0  0  0  0  0  0  0  0  0  0
   58.9750   33.9730   46.4080 C   0  0  0  0  0  0  0  0  0  0  0  0
   59.6160   34.2190   47.6250 C   0  0  0  0  0  0  0  0  0  0  0  0
   60.6340   30.4210   52.6690 C   0  0  0  0  0  0  0  0  0  0  0  0
   59.8190   29.4890   53.3140 C   0  0  0  0  0  0  0  0  0  0  0  0
   60.3960   27.0560   48.3670 C   0  0  0  0  0  0  0  0  0  0  0  0
   60.3980   28.0520   47.3850 C   0  0  0  0  0  0  0  0  0  0  0  0
   60.7656   31.4212   47.1389 H   0  0  0  0  0  0  0  0  0  0  0  0
   61.6839   30.3502   46.0269 H   0  0  0  0  0  0  0  0  0  0  0  0
   59.8879   30.3167   46.0269 H   0  0  0  0  0  0  0  0  0  0  0  0
   61.4513   30.6996   49.2841 H   0  0  0  0  0  0  0  0  0  0  0  0
   61.4111   28.9314   51.0443 H   0  0  0  0  0  0  0  0  0  0  0  0
   60.0619   25.5061   50.4639 H   0  0  0  0  0  0  0  0  0  0  0  0
   61.7879   25.8662   50.8321 H   0  0  0  0  0  0  0  0  0  0  0  0
   60.2920   27.9040   52.0690 H   0  0  0  0  0  0  0  0  0  0  0  0
   59.5746   26.0004   55.2470 H   0  0  0  0  0  0  0  0  0  0  0  0
   60.1157   27.6022   54.6281 H   0  0  0  0  0  0  0  0  0  0  0  0
   56.9441   29.9446   51.5303 H   0  0  0  0  0  0  0  0  0  0  0  0
   58.3586   31.6987   50.4706 H   0  0  0  0  0  0  0  0  0  0  0  0
   58.7492   31.3571   49.2902 H   0  0  0  0  0  0  0  0  0  0  0  0
   57.5504   30.9437   47.1415 H   0  0  0  0  0  0  0  0  0  0  0  0
   60.3114   28.6288   44.2334 H   0  0  0  0  0  0  0  0  0  0  0  0
   58.9084   26.5909   44.6105 H   0  0  0  0  0  0  0  0  0  0  0  0
   56.4599   26.8530   45.0748 H   0  0  0  0  0  0  0  0  0  0  0  0
   59.0652   34.6997   45.5872 H   0  0  0  0  0  0  0  0  0  0  0  0
   60.1985   35.1421   47.7611 H   0  0  0  0  0  0  0  0  0  0  0  0
   61.6837   30.5360   52.9771 H   0  0  0  0  0  0  0  0  0  0  0  0
   60.2182   28.9135   54.1622 H   0  0  0  0  0  0  0  0  0  0  0  0
   60.0874   26.0324   48.1082 H   0  0  0  0  0  0  0  0  0  0  0  0
   60.0809   27.8107   46.3597 H   0  0  0  0  0  0  0  0  0  0  0  0
  1  2  1  0
  2  3  2  0
  3  4  1  0
  4  5  2  0
  5  6  1  0
  6  7  1  0
  7  8  1  0
  8  9  2  0
  8 10  1  0
 10 11  1  0
 11 12  1  0
 12 13  2  0
 12 14  1  0
 14 15  2  0
 15 16  1  0
 16 17  2  0
 17 18  1  0
 18 19  1  0
 19 20  2  0
 19 21  2  0
 19 22  1  0
 22 23  2  0
 23 24  1  0
 24 25  2  0
 25 26  1  0
 26 27  2  0
 26 28  1  0
 28 29  2  3
 29 30  1  0
 30 31  1  0
 31 32  2  0
 32 33  1  0
 33 34  2  0
 34 35  1  0
 25 36  1  0
 36 37  2  0
 17 38  1  0
 38 39  2  0
  5 40  1  0
 40 41  2  0
 41  2  1  0
 39 14  1  0
 37 22  1  0
 34 29  1  0
  1 42  1  0
  1 43  1  0
  1 44  1  0
  3 45  1  0
  4 46  1  0
  6 47  1  0
  6 48  1  0
  7 49  1  0
 10 50  1  0
 10 51  1  0
 15 52  1  0
 16 53  1  0
 23 54  1  0
 24 55  1  0
 31 56  1  0
 32 57  1  0
 33 58  1  0
 36 59  1  0
 37 60  1  0
 38 61  1  0
 39 62  1  0
 40 63  1  0
 41 64  1  0
M  CHG  4  11  -1  18  -1  30  -1  35  -1
M  END
>  <UniqueID>  (99) 
92

>  <SMILES>  (99) 
Cc1ccc(CNC(=O)C[N-]C(=O)c2ccc([N-]S(=O)(=O)c3ccc(C(=O)N=c4[n-]cccc4[O-])cc3)cc2)cc1

>  <Energy>  (99) 
77.52024370773351

>  <Genealogy>  (99) 
Cc1ccc(CNC(=O)C[N-]C(=O)c2ccc([N-]S(=O)(=O)c3ccc(C(=O)N=c4[n-]cccc4[O-])cc3)cc2)cc1 (protonated)
Cc1ccc(CNC(=O)C[N-]C(=O)c2ccc([N-]S(=O)(=O)c3ccc(C(=O)N=c4[n-]cccc4[O-])cc3)cc2)cc1 (3D coordinates assigned)
Cc1ccc(CNC(=O)C[N-]C(=O)c2ccc([N-]S(=O)(=O)c3ccc(C(=O)N=c4[n-]cccc4[O-])cc3)cc2)cc1 (optimized conformer: 77.52024370773351 kcal/mol)

>  <smiles>  (99) 
Cc1ccc(CNC(=O)CNC(=O)c2ccc(NS(=O)(=O)c3ccc(C(=O)N=c4[nH]cccc4O)cc3)cc2)cc1

>  <score_type>  (99) 
oracle

>  <origin>  (99) 
adg

>  <m_score__min__energy>  (99) 
-17.719999999999999

>  <m_primary>  (99) 
energy

$$$$
