0:0
     RDKit          3D

 65 68  0  0  0  0  0  0  0  0999 V2000
   55.1800   26.2770   45.9890 N   0  0  0  0  0  0  0  0  0  0  0  0
   56.8870   26.5260   45.9000 S   0  0  0  0  0  0  0  0  0  0  0  0
   57.4670   25.6300   44.8410 O   0  0  0  0  0  0  0  0  0  0  0  0
   57.5180   26.1890   47.2210 O   0  0  0  0  0  0  0  0  0  0  0  0
   57.2070   28.2110   45.5070 C   0  0  0  0  0  0  0  0  0  0  0  0
   56.2530   28.9590   44.8070 C   0  0  0  0  0  0  0  0  0  0  0  0
   56.5030   30.2960   44.4880 C   0  0  0  0  0  0  0  0  0  0  0  0
   57.7040   30.9040   44.8920 C   0  0  0  0  0  0  0  0  0  0  0  0
   57.9990   32.2660   44.5580 N   0  0  0  0  0  0  0  0  0  0  0  0
   57.9340   33.3950   45.4420 C   0  0  0  0  0  0  0  0  0  0  0  0
   57.0710   34.2870   45.2220 O   0  0  0  0  0  0  0  0  0  0  0  0
   58.9490   33.6250   46.5300 C   0  0  0  0  0  0  0  0  0  0  0  0
   60.2330   33.0640   46.1310 N   0  0  0  0  0  0  0  0  0  0  0  0
   61.3330   32.8940   47.0310 C   0  0  0  0  0  0  0  0  0  0  0  0
   61.9330   31.7870   47.1050 O   0  0  0  0  0  0  0  0  0  0  0  0
   61.7380   34.0310   47.9200 C   0  0  0  0  0  0  0  0  0  0  0  0
   61.2050   33.8500   49.3170 C   0  0  0  0  0  0  0  0  0  0  0  0
   62.0430   33.3870   50.3430 C   0  0  0  0  0  0  0  0  0  0  0  0
   61.5490   33.2330   51.6410 C   0  0  0  0  0  0  0  0  0  0  0  0
   60.2140   33.5390   51.9360 C   0  0  0  0  0  0  0  0  0  0  0  0
   59.7760   33.4320   53.2980 N   0  0  0  0  0  0  0  0  0  0  0  0
   59.2940   32.2460   53.9500 C   0  0  0  0  0  0  0  0  0  0  0  0
   60.0910   31.5310   54.6220 O   0  0  0  0  0  0  0  0  0  0  0  0
   57.8050   31.9430   53.9470 C   0  0  2  0  0  0  0  0  0  0  0  0
   57.4730   30.5660   54.6120 C   0  0  0  0  0  0  0  0  0  0  0  0
   56.4930   29.7120   53.7900 C   0  0  0  0  0  0  0  0  0  0  0  0
   57.0360   29.5160   52.3660 C   0  0  0  0  0  0  0  0  0  0  0  0
   57.4950   30.7890   51.7870 N   0  0  0  0  0  0  0  0  0  0  0  0
   58.3060   30.7900   50.5940 C   0  0  0  0  0  0  0  0  0  0  0  0
   58.1330   31.6770   49.7140 O   0  0  0  0  0  0  0  0  0  0  0  0
   59.3900   29.7630   50.4070 C   0  0  0  0  0  0  0  0  0  0  0  0
   60.6200   30.2100   49.6270 C   0  0  0  0  0  0  0  0  0  0  0  0
   59.5760   29.3320   48.9580 C   0  0  0  0  0  0  0  0  0  0  0  0
   57.2260   32.0350   52.5160 C   0  0  0  0  0  0  0  0  0  0  0  0
   59.3840   34.0410   50.9180 C   0  0  0  0  0  0  0  0  0  0  0  0
   59.8750   34.1850   49.6150 C   0  0  0  0  0  0  0  0  0  0  0  0
   58.6750   30.1440   45.5550 C   0  0  0  0  0  0  0  0  0  0  0  0
   58.4240   28.8060   45.8710 C   0  0  0  0  0  0  0  0  0  0  0  0
   54.7740   27.0930   46.5020 H   0  0  0  0  0  0  0  0  0  0  0  0
   55.3031   28.4924   44.5070 H   0  0  0  0  0  0  0  0  0  0  0  0
   55.7589   30.8736   43.9199 H   0  0  0  0  0  0  0  0  0  0  0  0
   59.0603   34.7055   46.7036 H   0  0  0  0  0  0  0  0  0  0  0  0
   58.6091   33.1351   47.4544 H   0  0  0  0  0  0  0  0  0  0  0  0
   62.8361   34.0816   47.9592 H   0  0  0  0  0  0  0  0  0  0  0  0
   61.3201   34.9608   47.5067 H   0  0  0  0  0  0  0  0  0  0  0  0
   63.0934   33.1442   50.1245 H   0  0  0  0  0  0  0  0  0  0  0  0
   62.2139   32.8684   52.4379 H   0  0  0  0  0  0  0  0  0  0  0  0
   57.3179   32.7122   54.5643 H   0  0  0  0  0  0  0  0  0  0  0  0
   58.4098   30.0024   54.7334 H   0  0  0  0  0  0  0  0  0  0  0  0
   56.9885   30.7791   55.5763 H   0  0  0  0  0  0  0  0  0  0  0  0
   56.3715   28.7308   54.2721 H   0  0  0  0  0  0  0  0  0  0  0  0
   55.5211   30.2247   53.7392 H   0  0  0  0  0  0  0  0  0  0  0  0
   57.8808   28.8123   52.3987 H   0  0  0  0  0  0  0  0  0  0  0  0
   56.2243   29.1219   51.7369 H   0  0  0  0  0  0  0  0  0  0  0  0
   59.2389   29.2623   51.3747 H   0  0  0  0  0  0  0  0  0  0  0  0
   60.7277   31.2626   49.3262 H   0  0  0  0  0  0  0  0  0  0  0  0
   61.7067   30.1434   49.7841 H   0  0  0  0  0  0  0  0  0  0  0  0
   58.9282   29.7492   48.1729 H   0  0  0  0  0  0  0  0  0  0  0  0
   59.5946   28.3669   48.4304 H   0  0  0  0  0  0  0  0  0  0  0  0
   57.6959   32.8765   51.9858 H   0  0  0  0  0  0  0  0  0  0  0  0
   56.1390   32.1929   52.5746 H   0  0  0  0  0  0  0  0  0  0  0  0
   58.3452   34.3216   51.1463 H   0  0  0  0  0  0  0  0  0  0  0  0
   59.2149   34.5628   48.8203 H   0  0  0  0  0  0  0  0  0  0  0  0
   59.6376   30.6010   45.8278 H   0  0  0  0  0  0  0  0  0  0  0  0
   59.1833   28.2175   46.4069 H   0  0  0  0  0  0  0  0  0  0  0  0
  1  2  1  0
  2  3  2  0
  2  4  2  0
  2  5  1  0
  5  6  2  0
  6  7  1  0
  7  8  2  0
  8  9  1  0
  9 10  1  0
 10 11  2  0
 10 12  1  0
 12 13  1  0
 13 14  1  0
 14 15  2  0
 14 16  1  0
 16 17  1  0
 17 18  2  0
 18 19  1  0
 19 20  2  0
 20 21  1  0
 21 22  1  0
 22 23  2  0
 22 24  1  0
 24 25  1  0
 25 26  1  0
 26 27  1  0
 27 28  1  0
 28 29  1  0
 29 30  2  0
 29 31  1  0
 31 32  1  0
 32 33  1  0
 28 34  1  0
 20 35  1  0
 35 36  2  0
  8 37  1  0
 37 38  2  0
 38  5  1  0
 36 17  1  0
 34 24  1  0
 33 31  1  0
  1 39  1  0
  6 40  1  0
  7 41  1  0
 12 42  1  0
 12 43  1  0
 16 44  1  0
 16 45  1  0
 18 46  1  0
 19 47  1  0
 24 48  1  1
 25 49  1  0
 25 50  1  0
 26 51  1  0
 26 52  1  0
 27 53  1  0
 27 54  1  0
 31 55  1  0
 32 56  1  0
 32 57  1  0
 33 58  1  0
 33 59  1  0
 34 60  1  0
 34 61  1  0
 35 62  1  0
 36 63  1  0
 37 64  1  0
 38 65  1  0
M  CHG  4   1  -1   9  -1  13  -1  21  -1
M  END
>  <UniqueID>  (1) 
1

>  <SMILES>  (1) 
[NH-]S(=O)(=O)c1ccc([N-]C(=O)C[N-]C(=O)Cc2ccc([N-]C(=O)[C@@H]3CCCN(C(=O)C4CC4)C3)cc2)cc1

>  <Energy>  (1) 
338.97800967787816

>  <Genealogy>  (1) 
[NH-]S(=O)(=O)c1ccc([N-]C(=O)C[N-]C(=O)Cc2ccc([N-]C(=O)C3CCCN(C(=O)C4CC4)C3)cc2)cc1 (protonated)
[NH-]S(=O)(=O)c1ccc([N-]C(=O)C[N-]C(=O)Cc2ccc([N-]C(=O)[C@@H]3CCCN(C(=O)C4CC4)C3)cc2)cc1 (chirality)
[NH-]S(=O)(=O)c1ccc([N-]C(=O)C[N-]C(=O)Cc2ccc([N-]C(=O)[C@@H]3CCCN(C(=O)C4CC4)C3)cc2)cc1 (3D coordinates assigned)
[NH-]S(=O)(=O)c1ccc([N-]C(=O)C[N-]C(=O)Cc2ccc([N-]C(=O)[C@@H]3CCCN(C(=O)C4CC4)C3)cc2)cc1 (nonaromatic ring conformer: 338.97800967787816 kcal/mol)

>  <smiles>  (1) 
NS(=O)(=O)c1ccc(NC(=O)CNC(=O)Cc2ccc(NC(=O)C3CCCN(C(=O)C4CC4)C3)cc2)cc1

>  <score_type>  (1) 
oracle

>  <origin>  (1) 
adg

>  <m_score__min__energy>  (1) 
-13.640000000000001

>  <m_primary>  (1) 
energy

$$$$
1:0
     RDKit          3D

 57 59  0  0  0  0  0  0  0  0999 V2000
   60.7030   29.5240   47.7310 C   0  0  0  0  0  0  0  0  0  0  0  0
   60.1010   28.1990   47.3750 C   0  0  0  0  0  0  0  0  0  0  0  0
   60.5880   27.4620   46.2840 C   0  0  0  0  0  0  0  0  0  0  0  0
   60.0450   26.2100   45.9790 C   0  0  0  0  0  0  0  0  0  0  0  0
   59.0150   25.6770   46.7670 C   0  0  0  0  0  0  0  0  0  0  0  0
   58.3070   24.1100   46.3830 S   0  0  0  0  0  0  0  0  0  0  0  0
   59.3890   23.1960   45.8770 O   0  0  0  0  0  0  0  0  0  0  0  0
   57.6890   23.5000   47.6140 O   0  0  0  0  0  0  0  0  0  0  0  0
   57.0940   24.2890   45.1460 N   0  0  0  0  0  0  0  0  0  0  0  0
   57.1720   25.6130   44.5200 C   0  0  0  0  0  0  0  0  0  0  0  0
   56.6280   26.6610   45.4370 C   0  0  0  0  0  0  0  0  0  0  0  0
   55.5010   26.4890   45.9820 O   0  0  0  0  0  0  0  0  0  0  0  0
   57.3650   27.8310   45.6630 O   0  0  0  0  0  0  0  0  0  0  0  0
   57.9170   28.6260   44.6150 C   0  0  0  0  0  0  0  0  0  0  0  0
   57.0990   29.8660   44.3980 C   0  0  0  0  0  0  0  0  0  0  0  0
   56.5750   30.0730   43.2690 O   0  0  0  0  0  0  0  0  0  0  0  0
   57.0250   30.8560   45.4300 N   0  0  0  0  0  0  0  0  0  0  0  0
   57.8440   32.0280   45.5660 C   0  0  0  0  0  0  0  0  0  0  0  0
   57.9440   32.8990   44.4750 C   0  0  0  0  0  0  0  0  0  0  0  0
   58.7350   34.0470   44.5570 C   0  0  0  0  0  0  0  0  0  0  0  0
   59.4420   34.3270   45.7280 C   0  0  0  0  0  0  0  0  0  0  0  0
   59.3730   33.4530   46.8210 C   0  0  0  0  0  0  0  0  0  0  0  0
   60.2810   33.7980   48.2940 S   0  0  0  0  0  0  0  0  0  0  0  0
   60.2380   32.5900   49.1910 O   0  0  0  0  0  0  0  0  0  0  0  0
   59.6150   34.9330   49.0220 O   0  0  0  0  0  0  0  0  0  0  0  0
   61.9520   34.2100   47.9730 N   0  0  0  0  0  0  0  0  0  0  0  0
   62.8050   34.0810   49.1710 C   0  0  0  0  0  0  0  0  0  0  0  0
   63.2880   32.6290   49.4200 C   0  0  0  0  0  0  0  0  0  0  0  0
   63.0320   31.7560   48.3360 O   0  0  0  0  0  0  0  0  0  0  0  0
   63.4340   32.3620   47.1280 C   0  0  0  0  0  0  0  0  0  0  0  0
   62.4960   33.5250   46.7770 C   0  0  0  0  0  0  0  0  0  0  0  0
   58.5850   32.2960   46.7320 C   0  0  0  0  0  0  0  0  0  0  0  0
   58.5380   26.4060   47.8650 C   0  0  0  0  0  0  0  0  0  0  0  0
   59.0800   27.6580   48.1710 C   0  0  0  0  0  0  0  0  0  0  0  0
   60.7484   29.6239   48.8255 H   0  0  0  0  0  0  0  0  0  0  0  0
   61.7190   29.5889   47.3144 H   0  0  0  0  0  0  0  0  0  0  0  0
   60.0836   30.3320   47.3144 H   0  0  0  0  0  0  0  0  0  0  0  0
   61.4007   27.8714   45.6660 H   0  0  0  0  0  0  0  0  0  0  0  0
   60.4271   25.6416   45.1183 H   0  0  0  0  0  0  0  0  0  0  0  0
   58.2229   25.8433   44.2908 H   0  0  0  0  0  0  0  0  0  0  0  0
   56.5744   25.6046   43.5965 H   0  0  0  0  0  0  0  0  0  0  0  0
   58.9440   28.9141   44.8838 H   0  0  0  0  0  0  0  0  0  0  0  0
   57.9150   28.0358   43.6868 H   0  0  0  0  0  0  0  0  0  0  0  0
   57.3961   32.6779   43.5471 H   0  0  0  0  0  0  0  0  0  0  0  0
   58.8011   34.7313   43.6983 H   0  0  0  0  0  0  0  0  0  0  0  0
   60.0557   35.2376   45.7928 H   0  0  0  0  0  0  0  0  0  0  0  0
   63.6867   34.7264   49.0441 H   0  0  0  0  0  0  0  0  0  0  0  0
   62.1985   34.3784   50.0392 H   0  0  0  0  0  0  0  0  0  0  0  0
   64.3726   32.6491   49.6024 H   0  0  0  0  0  0  0  0  0  0  0  0
   62.7270   32.2448   50.2847 H   0  0  0  0  0  0  0  0  0  0  0  0
   64.4599   32.7436   47.2374 H   0  0  0  0  0  0  0  0  0  0  0  0
   63.3937   31.6144   46.3221 H   0  0  0  0  0  0  0  0  0  0  0  0
   63.0554   34.2580   46.1771 H   0  0  0  0  0  0  0  0  0  0  0  0
   61.6442   33.1052   46.2218 H   0  0  0  0  0  0  0  0  0  0  0  0
   58.5460   31.5943   47.5782 H   0  0  0  0  0  0  0  0  0  0  0  0
   57.7330   25.9909   48.4893 H   0  0  0  0  0  0  0  0  0  0  0  0
   58.7048   28.2207   49.0385 H   0  0  0  0  0  0  0  0  0  0  0  0
  1  2  1  0
  2  3  2  0
  3  4  1  0
  4  5  2  0
  5  6  1  0
  6  7  2  0
  6  8  2  0
  6  9  1  0
  9 10  1  0
 10 11  1  0
 11 12  2  0
 11 13  1  0
 13 14  1  0
 14 15  1  0
 15 16  2  0
 15 17  1  0
 17 18  1  0
 18 19  2  0
 19 20  1  0
 20 21  2  0
 21 22  1  0
 22 23  1  0
 23 24  2  0
 23 25  2  0
 23 26  1  0
 26 27  1  0
 27 28  1  0
 28 29  1  0
 29 30  1  0
 30 31  1  0
 22 32  2  0
  5 33  1  0
 33 34  2  0
 34  2  1  0
 32 18  1  0
 31 26  1  0
  1 35  1  0
  1 36  1  0
  1 37  1  0
  3 38  1  0
  4 39  1  0
 10 40  1  0
 10 41  1  0
 14 42  1  0
 14 43  1  0
 19 44  1  0
 20 45  1  0
 21 46  1  0
 27 47  1  0
 27 48  1  0
 28 49  1  0
 28 50  1  0
 30 51  1  0
 30 52  1  0
 31 53  1  0
 31 54  1  0
 32 55  1  0
 33 56  1  0
 34 57  1  0
M  CHG  2   9  -1  17  -1
M  END
>  <UniqueID>  (2) 
2

>  <SMILES>  (2) 
Cc1ccc(S(=O)(=O)[N-]CC(=O)OCC(=O)[N-]c2cccc(S(=O)(=O)N3CCOCC3)c2)cc1

>  <Energy>  (2) 
67.49047902808749

>  <Genealogy>  (2) 
Cc1ccc(S(=O)(=O)[N-]CC(=O)OCC(=O)[N-]c2cccc(S(=O)(=O)N3CCOCC3)c2)cc1 (protonated)
Cc1ccc(S(=O)(=O)[N-]CC(=O)OCC(=O)[N-]c2cccc(S(=O)(=O)N3CCOCC3)c2)cc1 (3D coordinates assigned)
Cc1ccc(S(=O)(=O)[N-]CC(=O)OCC(=O)[N-]c2cccc(S(=O)(=O)N3CCOCC3)c2)cc1 (nonaromatic ring conformer: 67.49047902808749 kcal/mol)

>  <smiles>  (2) 
Cc1ccc(S(=O)(=O)NCC(=O)OCC(=O)Nc2cccc(S(=O)(=O)N3CCOCC3)c2)cc1

>  <score_type>  (2) 
oracle

>  <origin>  (2) 
adg

>  <m_score__min__energy>  (2) 
-12.359999999999999

>  <m_primary>  (2) 
energy

$$$$
2:0
     RDKit          3D

 49 51  0  0  0  0  0  0  0  0999 V2000
   59.9935   27.3134   46.0631 H   0  0  0  0  0  0  0  0  0  0  0  0
   58.9050   27.1610   46.0200 C   0  0  0  0  0  0  0  0  0  0  0  0
   58.1060   28.1160   45.4760 N   0  0  0  0  0  0  0  0  0  0  0  0
   56.7540   27.9840   45.3890 C   0  0  0  0  0  0  0  0  0  0  0  0
   56.0860   28.9610   44.8390 N   0  0  0  0  0  0  0  0  0  0  0  0
   56.5700   30.0530   44.0410 C   0  0  0  0  0  0  0  0  0  0  0  0
   56.4850   29.9950   42.7840 O   0  0  0  0  0  0  0  0  0  0  0  0
   57.2700   31.1910   44.6850 C   0  0  0  0  0  0  0  0  0  0  0  0
   57.4150   32.4110   44.0050 C   0  0  0  0  0  0  0  0  0  0  0  0
   57.0102   32.5209   42.9881 H   0  0  0  0  0  0  0  0  0  0  0  0
   58.0690   33.4850   44.6100 C   0  0  0  0  0  0  0  0  0  0  0  0
   58.1801   34.4333   44.0637 H   0  0  0  0  0  0  0  0  0  0  0  0
   58.5870   33.3660   45.9110 C   0  0  0  0  0  0  0  0  0  0  0  0
   59.2440   34.4270   46.5580 O   0  0  0  0  0  0  0  0  0  0  0  0
   60.6460   34.4890   46.8270 C   0  0  0  0  0  0  0  0  0  0  0  0
   61.0149   35.4989   46.5948 H   0  0  0  0  0  0  0  0  0  0  0  0
   61.1616   33.7444   46.2026 H   0  0  0  0  0  0  0  0  0  0  0  0
   60.9190   34.1820   48.2790 C   0  0  0  0  0  0  0  0  0  0  0  0
   62.2370   34.0630   48.7690 C   0  0  0  0  0  0  0  0  0  0  0  0
   63.3180   34.2170   47.8820 O   0  0  0  0  0  0  0  0  0  0  0  0
   63.7510   33.2560   46.9200 C   0  0  0  0  0  0  0  0  0  0  0  0
   64.8494   33.2722   46.8630 H   0  0  0  0  0  0  0  0  0  0  0  0
   63.3134   33.5121   45.9438 H   0  0  0  0  0  0  0  0  0  0  0  0
   63.2910   31.8550   47.3100 C   0  0  0  0  0  0  0  0  0  0  0  0
   63.2631   31.7702   48.4064 H   0  0  0  0  0  0  0  0  0  0  0  0
   62.2857   31.6724   46.9024 H   0  0  0  0  0  0  0  0  0  0  0  0
   63.9924   31.1121   46.9024 H   0  0  0  0  0  0  0  0  0  0  0  0
   62.4230   33.7830   50.1350 C   0  0  0  0  0  0  0  0  0  0  0  0
   63.4407   33.6869   50.5414 H   0  0  0  0  0  0  0  0  0  0  0  0
   61.3220   33.6270   50.9750 C   0  0  0  0  0  0  0  0  0  0  0  0
   61.4659   33.4140   52.0445 H   0  0  0  0  0  0  0  0  0  0  0  0
   60.0390   33.7430   50.4490 C   0  0  0  0  0  0  0  0  0  0  0  0
   59.1646   33.6166   51.1044 H   0  0  0  0  0  0  0  0  0  0  0  0
   59.8620   34.0120   49.1280 N   0  0  0  0  0  0  0  0  0  0  0  0
   58.8860   34.0900   48.7650 H   0  0  0  0  0  0  0  0  0  0  0  0
   58.4520   32.1520   46.6000 C   0  0  0  0  0  0  0  0  0  0  0  0
   58.9820   32.0610   47.8960 O   0  0  0  0  0  0  0  0  0  0  0  0
   59.3250   30.8420   48.5470 C   0  0  0  0  0  0  0  0  0  0  0  0
   59.2849   30.9845   49.6370 H   0  0  0  0  0  0  0  0  0  0  0  0
   58.6130   30.0566   48.2535 H   0  0  0  0  0  0  0  0  0  0  0  0
   60.3421   30.5431   48.2535 H   0  0  0  0  0  0  0  0  0  0  0  0
   57.7930   31.0700   45.9840 C   0  0  0  0  0  0  0  0  0  0  0  0
   57.6864   30.1189   46.5262 H   0  0  0  0  0  0  0  0  0  0  0  0
   56.1490   26.8210   45.9340 C   0  0  0  0  0  0  0  0  0  0  0  0
   54.7700   26.6550   45.9960 O   0  0  0  0  0  0  0  0  0  0  0  0
   56.9620   25.8240   46.4810 C   0  0  0  0  0  0  0  0  0  0  0  0
   56.5079   24.9050   46.8801 H   0  0  0  0  0  0  0  0  0  0  0  0
   58.3450   25.9890   46.5230 C   0  0  0  0  0  0  0  0  0  0  0  0
   58.9867   25.2033   46.9482 H   0  0  0  0  0  0  0  0  0  0  0  0
  1  2  1  0
  2  3  1  0
  3  4  1  0
  4  5  2  0
  5  6  1  0
  6  7  2  0
  6  8  1  0
  8  9  2  0
  9 10  1  0
  9 11  1  0
 11 12  1  0
 11 13  2  0
 13 14  1  0
 14 15  1  0
 15 16  1  0
 15 17  1  0
 15 18  1  0
 18 19  2  0
 19 20  1  0
 20 21  1  0
 21 22  1  0
 21 23  1  0
 21 24  1  0
 24 25  1  0
 24 26  1  0
 24 27  1  0
 19 28  1  0
 28 29  1  0
 28 30  2  0
 30 31  1  0
 30 32  1  0
 32 33  1  0
 32 34  2  0
 34 35  1  0
 13 36  1  0
 36 37  1  0
 37 38  1  0
 38 39  1  0
 38 40  1  0
 38 41  1  0
 36 42  2  0
 42 43  1  0
  4 44  1  0
 44 45  1  0
 44 46  2  0
 46 47  1  0
 46 48  1  0
 48 49  1  0
 48  2  2  0
 42  8  1  0
 34 18  1  0
M  CHG  3   3  -1  34   1  45  -1
M  END
>  <UniqueID>  (3) 
3

>  <SMILES>  (3) 
CCOc1ccc[nH+]c1COc1ccc(C(=O)/N=c2/[n-]cccc2[O-])cc1OC

>  <Energy>  (3) 
62.37167681672986

>  <Genealogy>  (3) 
CCOc1ccc[nH+]c1COc1ccc(C(=O)N=c2[n-]cccc2[O-])cc1OC (protonated)
CCOc1ccc[nH+]c1COc1ccc(C(=O)/N=c2/[n-]cccc2[O-])cc1OC (cis-trans isomerization)
CCOc1ccc[nH+]c1COc1ccc(C(=O)/N=c2/[n-]cccc2[O-])cc1OC (3D coordinates assigned)
CCOc1ccc[nH+]c1COc1ccc(C(=O)/N=c2/[n-]cccc2[O-])cc1OC (optimized conformer: 62.37167681672986 kcal/mol)

>  <smiles>  (3) 
CCOc1cccnc1COc1ccc(C(=O)N=c2[nH]cccc2O)cc1OC

>  <score_type>  (3) 
oracle

>  <origin>  (3) 
adg

>  <m_score__min__energy>  (3) 
-11.49

>  <m_primary>  (3) 
energy

$$$$
3:0
     RDKit          3D

 19 20  0  0  0  0  0  0  0  0999 V2000
   51.3550   29.8770   48.3400 C   0  0  0  0  0  0  0  0  0  0  0  0
   52.1380   29.9120   49.4160 C   0  0  0  0  0  0  0  0  0  0  0  0
   51.8580   30.7870   50.5700 C   0  0  0  0  0  0  0  0  0  0  0  0
   51.1480   31.9650   50.5080 C   0  0  0  0  0  0  0  0  0  0  0  0
   50.6410   32.5450   49.3510 O   0  0  0  0  0  0  0  0  0  0  0  0
   50.9800   32.4880   51.7380 N   0  0  0  0  0  0  0  0  0  0  0  0
   51.6120   31.6010   52.5350 C   0  0  0  0  0  0  0  0  0  0  0  0
   51.7000   31.7520   53.7820 O   0  0  0  0  0  0  0  0  0  0  0  0
   52.1630   30.5590   51.8690 N   0  0  0  0  0  0  0  0  0  0  0  0
   53.0040   29.5440   52.4400 C   0  0  0  0  0  0  0  0  0  0  0  0
   52.5200   28.4110   52.9930 N   0  0  0  0  0  0  0  0  0  0  0  0
   53.5070   27.6550   53.5430 C   0  0  0  0  0  0  0  0  0  0  0  0
   54.7860   28.1950   53.4510 C   0  0  0  0  0  0  0  0  0  0  0  0
   54.6700   29.6710   52.6540 S   0  0  0  0  0  0  0  0  0  0  0  0
   51.6018   29.2089   47.5017 H   0  0  0  0  0  0  0  0  0  0  0  0
   50.4612   30.5162   48.2892 H   0  0  0  0  0  0  0  0  0  0  0  0
   53.0267   29.2644   49.4456 H   0  0  0  0  0  0  0  0  0  0  0  0
   53.3088   26.6866   54.0257 H   0  0  0  0  0  0  0  0  0  0  0  0
   55.7104   27.7369   53.8325 H   0  0  0  0  0  0  0  0  0  0  0  0
  1  2  2  0
  2  3  1  0
  3  4  2  0
  4  5  1  0
  4  6  1  0
  6  7  1  0
  7  8  2  0
  7  9  1  0
  9 10  1  0
 10 11  2  0
 11 12  1  0
 12 13  2  0
 13 14  1  0
  9  3  1  0
 14 10  1  0
  1 15  1  0
  1 16  1  0
  2 17  1  0
 12 18  1  0
 13 19  1  0
M  CHG  2   5  -1   6  -1
M  END
>  <UniqueID>  (4) 
4

>  <SMILES>  (4) 
C=Cc1c([O-])[n-]c(=O)n1-c1nccs1

>  <Energy>  (4) 
88.48156252815001

>  <Genealogy>  (4) 
C=Cc1c([O-])[n-]c(=O)n1-c1nccs1 (protonated)
C=Cc1c([O-])[n-]c(=O)n1-c1nccs1 (3D coordinates assigned)
C=Cc1c([O-])[n-]c(=O)n1-c1nccs1 (optimized conformer: 88.48156252815001 kcal/mol)

>  <smiles>  (4) 
C=Cc1c(O)[nH]c(=O)n1-c1nccs1

>  <score_type>  (4) 
oracle

>  <origin>  (4) 
adg

>  <m_score__min__energy>  (4) 
-11.359999999999999

>  <m_primary>  (4) 
energy

$$$$
4:0
     RDKit          3D

 56 59  0  0  0  0  0  0  0  0999 V2000
   55.4300   31.6100   51.1170 H   0  0  0  0  0  0  0  0  0  0  0  0
   55.7300   30.7970   51.6400 O   0  0  0  0  0  0  0  0  0  0  0  0
   56.9480   30.7710   52.3210 C   0  0  0  0  0  0  0  0  0  0  0  0
   57.0500   31.2810   53.6230 C   0  0  0  0  0  0  0  0  0  0  0  0
   56.1690   31.7227   54.1115 H   0  0  0  0  0  0  0  0  0  0  0  0
   58.2700   31.2280   54.2990 C   0  0  0  0  0  0  0  0  0  0  0  0
   58.3479   31.6202   55.3238 H   0  0  0  0  0  0  0  0  0  0  0  0
   59.3930   30.6770   53.6750 C   0  0  0  0  0  0  0  0  0  0  0  0
   60.3482   30.6250   54.2180 H   0  0  0  0  0  0  0  0  0  0  0  0
   59.3120   30.1910   52.3650 C   0  0  0  0  0  0  0  0  0  0  0  0
   60.4800   29.5960   51.7760 N   0  0  0  0  0  0  0  0  0  0  0  0
   60.5480   28.9720   50.6370 C   0  0  0  0  0  0  0  0  0  0  0  0
   60.6270   29.6520   49.4630 N   0  0  0  0  0  0  0  0  0  0  0  0
   60.7070   29.0030   48.2690 C   0  0  0  0  0  0  0  0  0  0  0  0
   60.7570   29.7230   47.0730 O   0  0  0  0  0  0  0  0  0  0  0  0
   61.1410   31.0890   47.0140 C   0  0  0  0  0  0  0  0  0  0  0  0
   61.2518   31.4832   48.0350 H   0  0  0  0  0  0  0  0  0  0  0  0
   62.0989   31.1779   46.4807 H   0  0  0  0  0  0  0  0  0  0  0  0
   60.3697   31.6640   46.4807 H   0  0  0  0  0  0  0  0  0  0  0  0
   60.7290   27.6050   48.2470 C   0  0  0  0  0  0  0  0  0  0  0  0
   60.8420   26.6990   46.7010 S   0  0  0  0  0  0  0  0  0  0  0  0
   59.0670   26.7040   46.4450 C   0  0  0  0  0  0  0  0  0  0  0  0
   58.3070   25.5810   46.7730 C   0  0  0  0  0  0  0  0  0  0  0  0
   58.7996   24.6827   47.1734 H   0  0  0  0  0  0  0  0  0  0  0  0
   56.9220   25.5950   46.5940 C   0  0  0  0  0  0  0  0  0  0  0  0
   56.3286   24.7041   46.8472 H   0  0  0  0  0  0  0  0  0  0  0  0
   56.2850   26.7370   46.0940 C   0  0  0  0  0  0  0  0  0  0  0  0
   54.9060   26.7150   45.9270 O   0  0  0  0  0  0  0  0  0  0  0  0
   57.0400   27.8880   45.7690 C   0  0  0  0  0  0  0  0  0  0  0  0
   56.4020   29.1020   45.1900 C   0  0  0  0  0  0  0  0  0  0  0  0
   55.1910   29.0710   44.8430 O   0  0  0  0  0  0  0  0  0  0  0  0
   57.1530   30.3070   44.9720 N   0  0  0  0  0  0  0  0  0  0  0  0
   57.2070   30.8750   43.6250 C   0  0  0  0  0  0  0  0  0  0  0  0
   57.5459   30.1016   42.9200 H   0  0  0  0  0  0  0  0  0  0  0  0
   56.2025   31.2282   43.3490 H   0  0  0  0  0  0  0  0  0  0  0  0
   58.1740   32.0560   43.5770 C   0  0  0  0  0  0  0  0  0  0  0  0
   59.2001   31.6911   43.7317 H   0  0  0  0  0  0  0  0  0  0  0  0
   58.0917   32.5457   42.5955 H   0  0  0  0  0  0  0  0  0  0  0  0
   57.8410   33.0360   44.6320 N   0  0  0  0  0  0  0  0  0  0  0  0
   58.7670   34.1750   44.5690 C   0  0  0  0  0  0  0  0  0  0  0  0
   59.0261   34.4937   45.5894 H   0  0  0  0  0  0  0  0  0  0  0  0
   59.6810   33.8754   44.0352 H   0  0  0  0  0  0  0  0  0  0  0  0
   58.2872   35.0086   44.0352 H   0  0  0  0  0  0  0  0  0  0  0  0
   57.7780   32.4650   46.0080 C   0  0  0  0  0  0  0  0  0  0  0  0
   58.5956   32.9019   46.6001 H   0  0  0  0  0  0  0  0  0  0  0  0
   56.7828   32.7117   46.4064 H   0  0  0  0  0  0  0  0  0  0  0  0
   57.9080   30.9300   46.0640 C   0  0  0  0  0  0  0  0  0  0  0  0
   58.9689   30.6537   45.9734 H   0  0  0  0  0  0  0  0  0  0  0  0
   57.5023   30.5749   47.0228 H   0  0  0  0  0  0  0  0  0  0  0  0
   58.4370   27.8480   45.9420 C   0  0  0  0  0  0  0  0  0  0  0  0
   59.0415   28.7283   45.6781 H   0  0  0  0  0  0  0  0  0  0  0  0
   60.6560   26.9210   49.4600 C   0  0  0  0  0  0  0  0  0  0  0  0
   60.6673   25.8211   49.4735 H   0  0  0  0  0  0  0  0  0  0  0  0
   60.5710   27.6140   50.6240 N   0  0  0  0  0  0  0  0  0  0  0  0
   58.0730   30.2210   51.6980 C   0  0  0  0  0  0  0  0  0  0  0  0
   57.9890   29.8097   50.6813 H   0  0  0  0  0  0  0  0  0  0  0  0
  1  2  1  0
  2  3  1  0
  3  4  2  0
  4  5  1  0
  4  6  1  0
  6  7  1  0
  6  8  2  0
  8  9  1  0
  8 10  1  0
 10 11  1  0
 11 12  2  0
 12 13  1  0
 13 14  2  0
 14 15  1  0
 15 16  1  0
 16 17  1  0
 16 18  1  0
 16 19  1  0
 14 20  1  0
 20 21  1  0
 21 22  1  0
 22 23  2  0
 23 24  1  0
 23 25  1  0
 25 26  1  0
 25 27  2  0
 27 28  1  0
 27 29  1  0
 29 30  1  0
 30 31  2  0
 30 32  1  0
 32 33  1  0
 33 34  1  0
 33 35  1  0
 33 36  1  0
 36 37  1  0
 36 38  1  0
 36 39  1  0
 39 40  1  0
 40 41  1  0
 40 42  1  0
 40 43  1  0
 39 44  1  0
 44 45  1  0
 44 46  1  0
 44 47  1  0
 47 48  1  0
 47 49  1  0
 29 50  2  0
 50 51  1  0
 20 52  2  0
 52 53  1  0
 52 54  1  0
 10 55  2  0
 55 56  1  0
 55  3  1  0
 54 12  1  0
 50 22  1  0
 47 32  1  0
M  CHG  2  28  -1  54  -1
M  END
>  <UniqueID>  (5) 
5

>  <SMILES>  (5) 
COc1n/c(=N\c2cccc(O)c2)[n-]cc1Sc1ccc([O-])c(C(=O)N2CCN(C)CC2)c1

>  <Energy>  (5) 
70.71641656873203

>  <Genealogy>  (5) 
COc1nc(=Nc2cccc(O)c2)[n-]cc1Sc1ccc([O-])c(C(=O)N2CCN(C)CC2)c1 (protonated)
COc1n/c(=N\c2cccc(O)c2)[n-]cc1Sc1ccc([O-])c(C(=O)N2CCN(C)CC2)c1 (cis-trans isomerization)
COc1n/c(=N\c2cccc(O)c2)[n-]cc1Sc1ccc([O-])c(C(=O)N2CCN(C)CC2)c1 (3D coordinates assigned)
COc1n/c(=N\c2cccc(O)c2)[n-]cc1Sc1ccc([O-])c(C(=O)N2CCN(C)CC2)c1 (nonaromatic ring conformer: 70.71641656873203 kcal/mol)

>  <smiles>  (5) 
COc1nc(=Nc2cccc(O)c2)[nH]cc1Sc1ccc(O)c(C(=O)N2CCN(C)CC2)c1

>  <score_type>  (5) 
oracle

>  <origin>  (5) 
adg

>  <m_score__min__energy>  (5) 
-13.550000000000001

>  <m_primary>  (5) 
energy

$$$$
5:0
     RDKit          3D

 50 52  0  0  0  0  0  0  0  0999 V2000
   55.7760   29.5510   44.9460 O   0  0  0  0  0  0  0  0  0  0  0  0
   56.8600   29.0080   45.2900 C   0  0  0  0  0  0  0  0  0  0  0  0
   56.8760   27.5340   45.5700 C   0  0  0  0  0  0  0  0  0  0  0  0
   55.5250   27.0820   45.8820 N   0  0  0  0  0  0  0  0  0  0  0  0
   55.1470   25.7030   45.9730 C   0  0  0  0  0  0  0  0  0  0  0  0
   53.9870   25.3600   45.6270 O   0  0  0  0  0  0  0  0  0  0  0  0
   56.0620   24.7050   46.4410 N   0  0  0  0  0  0  0  0  0  0  0  0
   56.7210   23.7460   45.6000 C   0  0  0  0  0  0  0  0  0  0  0  0
   58.1180   23.5840   45.6520 C   0  0  0  0  0  0  0  0  0  0  0  0
   58.7560   22.6630   44.8200 C   0  0  0  0  0  0  0  0  0  0  0  0
   58.0060   21.8830   43.9370 C   0  0  0  0  0  0  0  0  0  0  0  0
   56.6160   22.0200   43.8910 C   0  0  0  0  0  0  0  0  0  0  0  0
   55.9670   22.9440   44.7200 C   0  0  0  0  0  0  0  0  0  0  0  0
   54.5790   23.0570   44.6430 O   0  0  0  0  0  0  0  0  0  0  0  0
   58.0080   29.8390   45.5130 N   0  0  0  0  0  0  0  0  0  0  0  0
   58.0290   31.2710   45.6080 C   0  0  0  0  0  0  0  0  0  0  0  0
   57.6870   32.0690   44.5010 C   0  0  0  0  0  0  0  0  0  0  0  0
   57.6220   33.4580   44.6240 C   0  0  0  0  0  0  0  0  0  0  0  0
   57.8540   34.0630   45.8610 C   0  0  0  0  0  0  0  0  0  0  0  0
   58.1520   33.2770   46.9770 C   0  0  0  0  0  0  0  0  0  0  0  0
   58.2480   31.8850   46.8600 C   0  0  0  0  0  0  0  0  0  0  0  0
   58.5230   31.1350   48.0090 O   0  0  0  0  0  0  0  0  0  0  0  0
   58.9020   31.6950   49.2340 C   0  0  0  0  0  0  0  0  0  0  0  0
   58.0800   32.3650   49.9120 O   0  0  0  0  0  0  0  0  0  0  0  0
   60.2260   31.5000   49.7300 N   0  0  0  0  0  0  0  0  0  0  0  0
   61.1230   32.6080   50.0330 C   0  0  0  0  0  0  0  0  0  0  0  0
   61.8170   33.0620   48.7780 C   0  0  0  0  0  0  0  0  0  0  0  0
   63.1600   32.7210   48.5360 C   0  0  0  0  0  0  0  0  0  0  0  0
   63.7770   33.0920   47.3380 C   0  0  0  0  0  0  0  0  0  0  0  0
   63.0600   33.8060   46.3730 C   0  0  0  0  0  0  0  0  0  0  0  0
   61.7250   34.1470   46.6040 C   0  0  0  0  0  0  0  0  0  0  0  0
   61.1020   33.7730   47.7990 C   0  0  0  0  0  0  0  0  0  0  0  0
   57.2467   26.9969   44.6845 H   0  0  0  0  0  0  0  0  0  0  0  0
   57.5365   27.3313   46.4260 H   0  0  0  0  0  0  0  0  0  0  0  0
   58.7117   24.1880   46.3539 H   0  0  0  0  0  0  0  0  0  0  0  0
   59.8496   22.5514   44.8596 H   0  0  0  0  0  0  0  0  0  0  0  0
   58.5095   21.1607   43.2776 H   0  0  0  0  0  0  0  0  0  0  0  0
   56.0280   21.3985   43.1996 H   0  0  0  0  0  0  0  0  0  0  0  0
   54.0690   23.7990   45.1080 H   0  0  0  0  0  0  0  0  0  0  0  0
   57.4694   31.5954   43.5323 H   0  0  0  0  0  0  0  0  0  0  0  0
   57.3877   34.0768   43.7453 H   0  0  0  0  0  0  0  0  0  0  0  0
   57.8022   35.1576   45.9567 H   0  0  0  0  0  0  0  0  0  0  0  0
   58.3124   33.7552   47.9546 H   0  0  0  0  0  0  0  0  0  0  0  0
   60.5425   33.4434   50.4515 H   0  0  0  0  0  0  0  0  0  0  0  0
   61.8755   32.2758   50.7633 H   0  0  0  0  0  0  0  0  0  0  0  0
   63.7273   32.1598   49.2931 H   0  0  0  0  0  0  0  0  0  0  0  0
   64.8274   32.8221   47.1542 H   0  0  0  0  0  0  0  0  0  0  0  0
   63.5473   34.0994   45.4315 H   0  0  0  0  0  0  0  0  0  0  0  0
   61.1629   34.7106   45.8447 H   0  0  0  0  0  0  0  0  0  0  0  0
   60.0483   34.0364   47.9733 H   0  0  0  0  0  0  0  0  0  0  0  0
  1  2  2  0
  2  3  1  0
  3  4  1  0
  4  5  1  0
  5  6  2  0
  5  7  1  0
  7  8  1  0
  8  9  2  0
  9 10  1  0
 10 11  2  0
 11 12  1  0
 12 13  2  0
 13 14  1  0
  2 15  1  0
 15 16  1  0
 16 17  2  0
 17 18  1  0
 18 19  2  0
 19 20  1  0
 20 21  2  0
 21 22  1  0
 22 23  1  0
 23 24  2  0
 23 25  1  0
 25 26  1  0
 26 27  1  0
 27 28  2  0
 28 29  1  0
 29 30  2  0
 30 31  1  0
 31 32  2  0
 13  8  1  0
 21 16  1  0
 32 27  1  0
  3 33  1  0
  3 34  1  0
  9 35  1  0
 10 36  1  0
 11 37  1  0
 12 38  1  0
 14 39  1  0
 17 40  1  0
 18 41  1  0
 19 42  1  0
 20 43  1  0
 26 44  1  0
 26 45  1  0
 28 46  1  0
 29 47  1  0
 30 48  1  0
 31 49  1  0
 32 50  1  0
M  CHG  4   4  -1   7  -1  15  -1  25  -1
M  END
>  <UniqueID>  (6) 
6

>  <SMILES>  (6) 
O=C(C[N-]C(=O)[N-]c1ccccc1O)[N-]c1ccccc1OC(=O)[N-]Cc1ccccc1

>  <Energy>  (6) 
60.81708984026416

>  <Genealogy>  (6) 
O=C(C[N-]C(=O)[N-]c1ccccc1O)[N-]c1ccccc1OC(=O)[N-]Cc1ccccc1 (protonated)
O=C(C[N-]C(=O)[N-]c1ccccc1O)[N-]c1ccccc1OC(=O)[N-]Cc1ccccc1 (3D coordinates assigned)
O=C(C[N-]C(=O)[N-]c1ccccc1O)[N-]c1ccccc1OC(=O)[N-]Cc1ccccc1 (optimized conformer: 60.81708984026416 kcal/mol)

>  <smiles>  (6) 
O=C(CNC(=O)Nc1ccccc1O)Nc1ccccc1OC(=O)NCc1ccccc1

>  <score_type>  (6) 
oracle

>  <origin>  (6) 
adg

>  <m_score__min__energy>  (6) 
-15.01

>  <m_primary>  (6) 
energy

$$$$
6:0
     RDKit          3D

 43 45  0  0  1  0  0  0  0  0999 V2000
   56.4160   29.7700   45.1090 N   0  0  0  0  0  0  0  0  0  0  0  0
   57.0520   30.8400   44.7280 C   0  0  0  0  0  0  0  0  0  0  0  0
   57.4440   30.9000   43.4240 N   0  0  0  0  0  0  0  0  0  0  0  0
   58.1070   31.9780   42.9630 C   0  0  0  0  0  0  0  0  0  0  0  0
   58.3960   33.0310   43.8060 C   0  0  0  0  0  0  0  0  0  0  0  0
   57.9770   32.9190   45.1160 C   0  0  0  0  0  0  0  0  0  0  0  0
   58.2420   33.8920   45.9040 N   0  0  0  0  0  0  0  0  0  0  0  0
   59.3950   34.7740   45.7370 C   0  0  0  0  0  0  0  0  0  0  0  0
   60.4150   34.3800   46.7410 C   0  0  0  0  0  0  0  0  0  0  0  0
   61.6140   33.8130   46.3220 C   0  0  0  0  0  0  0  0  0  0  0  0
   62.5680   33.4450   47.2690 C   0  0  0  0  0  0  0  0  0  0  0  0
   62.3190   33.6420   48.6100 C   0  0  0  0  0  0  0  0  0  0  0  0
   63.3480   33.2410   49.5600 C   0  0  0  0  0  0  0  0  0  0  0  0
   63.0790   33.3420   50.7830 O   0  0  0  0  0  0  0  0  0  0  0  0
   64.6220   32.7480   49.1650 N   0  0  0  0  0  0  0  0  0  0  0  0
   65.6110   32.3620   50.1150 C   0  0  0  0  0  0  0  0  0  0  0  0
   66.8160   33.0300   50.1480 C   0  0  0  0  0  0  0  0  0  0  0  0
   67.7930   32.6830   51.0540 C   0  0  0  0  0  0  0  0  0  0  0  0
   67.5290   31.6450   51.9260 C   0  0  0  0  0  0  0  0  0  0  0  0
   66.3030   30.9720   51.8860 C   0  0  0  0  0  0  0  0  0  0  0  0
   65.3200   31.3140   50.9810 C   0  0  0  0  0  0  0  0  0  0  0  0
   64.0650   30.6600   50.9040 N   0  0  0  0  0  0  0  0  0  0  0  0
   61.1190   34.2070   48.9840 C   0  0  0  0  0  0  0  0  0  0  0  0
   60.1440   34.5880   48.0860 C   0  0  0  0  0  0  0  0  0  0  0  0
   57.3140   31.8470   45.5900 N   0  0  0  0  0  0  0  0  0  0  0  0
   55.8830   29.6980   45.9870 H   0  0  0  0  0  0  0  0  0  0  0  0
   57.2330   30.1080   42.7690 H   0  0  0  0  0  0  0  0  0  0  0  0
   58.4195   32.0189   41.9091 H   0  0  0  0  0  0  0  0  0  0  0  0
   58.9364   33.9204   43.4498 H   0  0  0  0  0  0  0  0  0  0  0  0
   59.8063   34.6647   44.7226 H   0  0  0  0  0  0  0  0  0  0  0  0
   59.1001   35.8241   45.8796 H   0  0  0  0  0  0  0  0  0  0  0  0
   61.8079   33.6561   45.2506 H   0  0  0  0  0  0  0  0  0  0  0  0
   63.5195   32.9974   46.9461 H   0  0  0  0  0  0  0  0  0  0  0  0
   64.8560   32.6590   48.1530 H   0  0  0  0  0  0  0  0  0  0  0  0
   66.9998   33.8520   49.4405 H   0  0  0  0  0  0  0  0  0  0  0  0
   68.7546   33.2163   51.0825 H   0  0  0  0  0  0  0  0  0  0  0  0
   68.2910   31.3441   52.6600 H   0  0  0  0  0  0  0  0  0  0  0  0
   66.1186   30.1502   52.5935 H   0  0  0  0  0  0  0  0  0  0  0  0
   63.9910   29.6210   50.8510 H   0  0  0  0  0  0  0  0  0  0  0  0
   63.1600   31.1820   50.8980 H   0  0  0  0  0  0  0  0  0  0  0  0
   60.9286   34.3624   50.0562 H   0  0  0  0  0  0  0  0  0  0  0  0
   59.1964   35.0356   48.4201 H   0  0  0  0  0  0  0  0  0  0  0  0
   57.0140   31.8000   46.5810 H   0  0  0  0  0  0  0  0  0  0  0  0
  1  2  2  3
  2  3  1  0
  3  4  1  0
  4  5  2  0
  5  6  1  0
  6  7  2  0
  7  8  1  0
  8  9  1  0
  9 10  2  0
 10 11  1  0
 11 12  2  0
 12 13  1  0
 13 14  2  0
 13 15  1  0
 15 16  1  0
 16 17  2  0
 17 18  1  0
 18 19  2  0
 19 20  1  0
 20 21  2  0
 21 22  1  0
 12 23  1  0
 23 24  2  0
  6 25  1  0
 25  2  1  0
 24  9  1  0
 21 16  1  0
  1 26  1  0
  3 27  1  0
  4 28  1  0
  5 29  1  0
  8 30  1  0
  8 31  1  0
 10 32  1  0
 11 33  1  0
 15 34  1  0
 17 35  1  0
 18 36  1  0
 19 37  1  0
 20 38  1  0
 22 39  1  0
 22 40  1  0
 23 41  1  0
 24 42  1  0
 25 43  1  0
M  END
>  <smiles>  (7) 
N=c1[nH]ccc(=NCc2ccc(C(=O)Nc3ccccc3N)cc2)[nH]1

>  <score_type>  (7) 
oracle

>  <origin>  (7) 
adg

>  <m_score__min__energy>  (7) 
-7.9100000000000001

>  <m_primary>  (7) 
energy

$$$$
7:0
     RDKit          3D

 44 45  0  0  0  0  0  0  0  0999 V2000
   56.6090   23.6470   43.1760 C   0  0  0  0  0  0  0  0  0  0  0  0
   57.3620   24.8390   43.7550 C   0  0  0  0  0  0  0  0  0  0  0  0
   57.6070   24.6630   45.2570 C   0  0  0  0  0  0  0  0  0  0  0  0
   57.9480   25.9440   45.8730 N   0  0  0  0  0  0  0  0  0  0  0  0
   56.9600   26.9200   46.2210 C   0  0  0  0  0  0  0  0  0  0  0  0
   55.7340   26.6460   46.1170 O   0  0  0  0  0  0  0  0  0  0  0  0
   57.3750   28.2070   46.6830 N   0  0  0  0  0  0  0  0  0  0  0  0
   58.8840   28.9190   46.2160 S   0  0  0  0  0  0  0  0  0  0  0  0
   59.5630   28.0410   45.2040 O   0  0  0  0  0  0  0  0  0  0  0  0
   59.7710   29.0380   47.4240 O   0  0  0  0  0  0  0  0  0  0  0  0
   58.5900   30.5090   45.5190 C   0  0  0  0  0  0  0  0  0  0  0  0
   59.2570   31.6520   45.9790 C   0  0  0  0  0  0  0  0  0  0  0  0
   58.7780   32.8230   45.4130 C   0  0  0  0  0  0  0  0  0  0  0  0
   59.2770   34.4740   45.8810 S   0  0  0  0  0  0  0  0  0  0  0  0
   59.9370   33.9030   47.4490 C   0  0  0  0  0  0  0  0  0  0  0  0
   61.3190   33.7630   47.6150 C   0  0  0  0  0  0  0  0  0  0  0  0
   61.8330   33.2930   48.8240 C   0  0  0  0  0  0  0  0  0  0  0  0
   60.9710   32.9710   49.8760 C   0  0  0  0  0  0  0  0  0  0  0  0
   59.5780   33.1030   49.7230 C   0  0  0  0  0  0  0  0  0  0  0  0
   58.6650   32.7580   50.8370 C   0  0  0  0  0  0  0  0  0  0  0  0
   57.6700   31.7490   50.6710 N   0  0  0  0  0  0  0  0  0  0  0  0
   58.7570   33.3530   51.9440 O   0  0  0  0  0  0  0  0  0  0  0  0
   59.0700   33.5740   48.4980 C   0  0  0  0  0  0  0  0  0  0  0  0
   57.5410   32.4600   44.3380 S   0  0  0  0  0  0  0  0  0  0  0  0
   57.5960   30.7960   44.5800 C   0  0  0  0  0  0  0  0  0  0  0  0
   56.5030   29.6580   43.8030 S   0  0  0  0  0  0  0  0  0  0  0  0
   55.1570   29.3350   44.8380 N   0  0  0  0  0  0  0  0  0  0  0  0
   56.0160   30.2230   42.4980 O   0  0  0  0  0  0  0  0  0  0  0  0
   57.2310   28.3720   43.5320 O   0  0  0  0  0  0  0  0  0  0  0  0
   56.2174   23.0272   43.9961 H   0  0  0  0  0  0  0  0  0  0  0  0
   55.7737   24.0065   42.5570 H   0  0  0  0  0  0  0  0  0  0  0  0
   57.2924   23.0471   42.5570 H   0  0  0  0  0  0  0  0  0  0  0  0
   58.3305   24.9350   43.2423 H   0  0  0  0  0  0  0  0  0  0  0  0
   56.7525   25.7423   43.6050 H   0  0  0  0  0  0  0  0  0  0  0  0
   56.6960   24.2656   45.7284 H   0  0  0  0  0  0  0  0  0  0  0  0
   58.4442   23.9643   45.4017 H   0  0  0  0  0  0  0  0  0  0  0  0
   58.9500   26.1490   46.0860 H   0  0  0  0  0  0  0  0  0  0  0  0
   60.0757   31.6231   46.7131 H   0  0  0  0  0  0  0  0  0  0  0  0
   62.0007   34.0236   46.7920 H   0  0  0  0  0  0  0  0  0  0  0  0
   62.9195   33.1756   48.9495 H   0  0  0  0  0  0  0  0  0  0  0  0
   61.3841   32.6119   50.8302 H   0  0  0  0  0  0  0  0  0  0  0  0
   56.6800   32.0000   50.4560 H   0  0  0  0  0  0  0  0  0  0  0  0
   57.9838   33.6845   48.3637 H   0  0  0  0  0  0  0  0  0  0  0  0
   55.5150   28.7600   45.6330 H   0  0  0  0  0  0  0  0  0  0  0  0
  1  2  1  0
  2  3  1  0
  3  4  1  0
  4  5  1  0
  5  6  2  0
  5  7  1  0
  7  8  1  0
  8  9  2  0
  8 10  2  0
  8 11  1  0
 11 12  1  0
 12 13  2  0
 13 14  1  0
 14 15  1  0
 15 16  2  0
 16 17  1  0
 17 18  2  0
 18 19  1  0
 19 20  1  0
 20 21  1  0
 20 22  2  0
 19 23  2  0
 13 24  1  0
 24 25  1  0
 25 26  1  0
 26 27  1  0
 26 28  2  0
 26 29  2  0
 25 11  2  0
 23 15  1  0
  1 30  1  0
  1 31  1  0
  1 32  1  0
  2 33  1  0
  2 34  1  0
  3 35  1  0
  3 36  1  0
  4 37  1  0
 12 38  1  0
 16 39  1  0
 17 40  1  0
 18 41  1  0
 21 42  1  0
 23 43  1  0
 27 44  1  0
M  CHG  3   7  -1  21  -1  27  -1
M  END
>  <UniqueID>  (8) 
7

>  <SMILES>  (8) 
CCCNC(=O)[N-]S(=O)(=O)c1cc(Sc2cccc(C([NH-])=O)c2)sc1S([NH-])(=O)=O

>  <Energy>  (8) 
57.063676565249914

>  <Genealogy>  (8) 
CCCNC(=O)[N-]S(=O)(=O)c1cc(Sc2cccc(C([NH-])=O)c2)sc1S([NH-])(=O)=O (protonated)
CCCNC(=O)[N-]S(=O)(=O)c1cc(Sc2cccc(C([NH-])=O)c2)sc1S([NH-])(=O)=O (3D coordinates assigned)
CCCNC(=O)[N-]S(=O)(=O)c1cc(Sc2cccc(C([NH-])=O)c2)sc1S([NH-])(=O)=O (optimized conformer: 57.063676565249914 kcal/mol)

>  <smiles>  (8) 
CCCNC(=O)NS(=O)(=O)c1cc(Sc2cccc(C(N)=O)c2)sc1S(N)(=O)=O

>  <score_type>  (8) 
oracle

>  <origin>  (8) 
adg

>  <m_score__min__energy>  (8) 
-14.029999999999999

>  <m_primary>  (8) 
energy

$$$$
8:0
     RDKit          3D

 31 32  0  0  0  0  0  0  0  0999 V2000
   56.8990   25.5105   45.6302 H   0  0  0  0  0  0  0  0  0  0  0  0
   56.3850   26.4770   45.7380 C   0  0  0  0  0  0  0  0  0  0  0  0
   55.1650   26.4910   46.0470 O   0  0  0  0  0  0  0  0  0  0  0  0
   57.1460   27.7260   45.5160 C   0  0  0  0  0  0  0  0  0  0  0  0
   58.5420   27.6920   45.6600 C   0  0  0  0  0  0  0  0  0  0  0  0
   59.0382   26.7527   45.9453 H   0  0  0  0  0  0  0  0  0  0  0  0
   59.3060   28.8410   45.4440 C   0  0  0  0  0  0  0  0  0  0  0  0
   60.4003   28.8002   45.5478 H   0  0  0  0  0  0  0  0  0  0  0  0
   58.6840   30.0400   45.0970 C   0  0  0  0  0  0  0  0  0  0  0  0
   59.2921   30.9393   44.9197 H   0  0  0  0  0  0  0  0  0  0  0  0
   57.2940   30.1070   44.9730 C   0  0  0  0  0  0  0  0  0  0  0  0
   56.7140   31.3360   44.6290 O   0  0  0  0  0  0  0  0  0  0  0  0
   57.1830   32.5800   45.0680 C   0  0  0  0  0  0  0  0  0  0  0  0
   56.6230   33.1710   46.0320 O   0  0  0  0  0  0  0  0  0  0  0  0
   58.3310   33.1870   44.3670 C   0  0  0  0  0  0  0  0  0  0  0  0
   58.5680   32.7996   43.3651 H   0  0  0  0  0  0  0  0  0  0  0  0
   59.1120   34.1700   44.8430 C   0  0  0  0  0  0  0  0  0  0  0  0
   59.2894   35.0358   44.1881 H   0  0  0  0  0  0  0  0  0  0  0  0
   59.7520   34.1840   46.1730 C   0  0  0  0  0  0  0  0  0  0  0  0
   61.0740   33.7310   46.3060 C   0  0  0  0  0  0  0  0  0  0  0  0
   61.6337   33.4074   45.4160 H   0  0  0  0  0  0  0  0  0  0  0  0
   61.6830   33.6890   47.5640 C   0  0  0  0  0  0  0  0  0  0  0  0
   62.7244   33.3476   47.6588 H   0  0  0  0  0  0  0  0  0  0  0  0
   60.9710   34.0800   48.7010 C   0  0  0  0  0  0  0  0  0  0  0  0
   61.4543   34.0550   49.6888 H   0  0  0  0  0  0  0  0  0  0  0  0
   59.6440   34.5030   48.5820 C   0  0  0  0  0  0  0  0  0  0  0  0
   59.0809   34.8033   49.4779 H   0  0  0  0  0  0  0  0  0  0  0  0
   59.0310   34.5450   47.3250 C   0  0  0  0  0  0  0  0  0  0  0  0
   57.9812   34.8616   47.2376 H   0  0  0  0  0  0  0  0  0  0  0  0
   56.5200   28.9410   45.1550 C   0  0  0  0  0  0  0  0  0  0  0  0
   55.1450   28.9890   44.9410 O   0  0  0  0  0  0  0  0  0  0  0  0
  1  2  1  0
  2  3  2  0
  2  4  1  0
  4  5  2  0
  5  6  1  0
  5  7  1  0
  7  8  1  0
  7  9  2  0
  9 10  1  0
  9 11  1  0
 11 12  1  0
 12 13  1  0
 13 14  2  0
 13 15  1  0
 15 16  1  0
 15 17  2  0
 17 18  1  0
 17 19  1  0
 19 20  2  0
 20 21  1  0
 20 22  1  0
 22 23  1  0
 22 24  2  0
 24 25  1  0
 24 26  1  0
 26 27  1  0
 26 28  2  0
 28 29  1  0
 11 30  2  0
 30 31  1  0
 30  4  1  0
 28 19  1  0
M  CHG  1  31  -1
M  END
>  <UniqueID>  (9) 
8

>  <SMILES>  (9) 
O=Cc1cccc(OC(=O)/C=C\c2ccccc2)c1[O-]

>  <Energy>  (9) 
47.318202972046045

>  <Genealogy>  (9) 
O=Cc1cccc(OC(=O)C=Cc2ccccc2)c1[O-] (protonated)
O=Cc1cccc(OC(=O)/C=C\c2ccccc2)c1[O-] (cis-trans isomerization)
O=Cc1cccc(OC(=O)/C=C\c2ccccc2)c1[O-] (3D coordinates assigned)
O=Cc1cccc(OC(=O)/C=C\c2ccccc2)c1[O-] (optimized conformer: 47.318202972046045 kcal/mol)

>  <smiles>  (9) 
O=Cc1cccc(OC(=O)C=Cc2ccccc2)c1O

>  <score_type>  (9) 
oracle

>  <origin>  (9) 
adg

>  <m_score__min__energy>  (9) 
-11.960000000000001

>  <m_primary>  (9) 
energy

$$$$
9:0
     RDKit          3D

 39 41  0  0  0  0  0  0  0  0999 V2000
   60.7948   29.4915   45.1235 H   0  0  0  0  0  0  0  0  0  0  0  0
   59.9290   29.8360   45.7080 C   0  0  0  0  0  0  0  0  0  0  0  0
   60.0310   31.0320   46.3300 C   0  0  0  0  0  0  0  0  0  0  0  0
   59.0530   32.1110   46.0240 C   0  0  0  0  0  0  0  0  0  0  0  0
   58.6870   33.0400   47.0150 C   0  0  0  0  0  0  0  0  0  0  0  0
   59.1158   32.9673   48.0254 H   0  0  0  0  0  0  0  0  0  0  0  0
   57.7770   34.0550   46.7110 C   0  0  0  0  0  0  0  0  0  0  0  0
   57.4855   34.7799   47.4853 H   0  0  0  0  0  0  0  0  0  0  0  0
   57.2510   34.1500   45.4630 N   0  0  0  0  0  0  0  0  0  0  0  0
   57.5880   33.2730   44.4800 C   0  0  0  0  0  0  0  0  0  0  0  0
   57.1465   33.3760   43.4778 H   0  0  0  0  0  0  0  0  0  0  0  0
   58.4940   32.2410   44.7400 C   0  0  0  0  0  0  0  0  0  0  0  0
   58.7687   31.5335   43.9438 H   0  0  0  0  0  0  0  0  0  0  0  0
   61.0690   31.2910   47.3620 C   0  0  0  0  0  0  0  0  0  0  0  0
   62.0570   32.2600   47.1210 C   0  0  0  0  0  0  0  0  0  0  0  0
   62.0590   32.8163   46.1720 H   0  0  0  0  0  0  0  0  0  0  0  0
   63.0380   32.5200   48.0830 C   0  0  0  0  0  0  0  0  0  0  0  0
   63.8152   33.2730   47.8857 H   0  0  0  0  0  0  0  0  0  0  0  0
   63.0320   31.8240   49.2950 C   0  0  0  0  0  0  0  0  0  0  0  0
   63.8083   32.0251   50.0479 H   0  0  0  0  0  0  0  0  0  0  0  0
   62.0420   30.8740   49.5510 C   0  0  0  0  0  0  0  0  0  0  0  0
   62.0368   30.3320   50.5082 H   0  0  0  0  0  0  0  0  0  0  0  0
   61.0570   30.6090   48.5950 C   0  0  0  0  0  0  0  0  0  0  0  0
   60.0840   29.7070   48.8780 F   0  0  0  0  0  0  0  0  0  0  0  0
   58.7390   28.9540   45.7540 C   0  0  0  0  0  0  0  0  0  0  0  0
   58.8520   27.6880   46.3420 C   0  0  0  0  0  0  0  0  0  0  0  0
   59.8194   27.3602   46.7503 H   0  0  0  0  0  0  0  0  0  0  0  0
   57.7450   26.8380   46.4140 C   0  0  0  0  0  0  0  0  0  0  0  0
   57.8500   25.8390   46.8622 H   0  0  0  0  0  0  0  0  0  0  0  0
   56.4950   27.2550   45.9150 C   0  0  0  0  0  0  0  0  0  0  0  0
   55.3580   26.4350   45.9610 O   0  0  0  0  0  0  0  0  0  0  0  0
   55.3580   25.0410   45.6630 C   0  0  0  0  0  0  0  0  0  0  0  0
   56.3951   24.6824   45.5863 H   0  0  0  0  0  0  0  0  0  0  0  0
   54.8395   24.4947   46.4646 H   0  0  0  0  0  0  0  0  0  0  0  0
   54.8395   24.8702   44.7080 H   0  0  0  0  0  0  0  0  0  0  0  0
   56.3770   28.5340   45.3550 C   0  0  0  0  0  0  0  0  0  0  0  0
   55.1490   28.9700   44.8700 O   0  0  0  0  0  0  0  0  0  0  0  0
   57.4860   29.3820   45.2830 C   0  0  0  0  0  0  0  0  0  0  0  0
   57.3773   30.3896   44.8554 H   0  0  0  0  0  0  0  0  0  0  0  0
  1  2  1  0
  2  3  2  0
  3  4  1  0
  4  5  2  0
  5  6  1  0
  5  7  1  0
  7  8  1  0
  7  9  2  0
  9 10  1  0
 10 11  1  0
 10 12  2  0
 12 13  1  0
  3 14  1  0
 14 15  2  0
 15 16  1  0
 15 17  1  0
 17 18  1  0
 17 19  2  0
 19 20  1  0
 19 21  1  0
 21 22  1  0
 21 23  2  0
 23 24  1  0
  2 25  1  0
 25 26  2  0
 26 27  1  0
 26 28  1  0
 28 29  1  0
 28 30  2  0
 30 31  1  0
 31 32  1  0
 32 33  1  0
 32 34  1  0
 32 35  1  0
 30 36  1  0
 36 37  1  0
 36 38  2  0
 38 39  1  0
 12  4  1  0
 23 14  1  0
 38 25  1  0
M  CHG  1  37  -1
M  END
>  <UniqueID>  (10) 
9

>  <SMILES>  (10) 
COc1ccc(/C=C(/c2ccncc2)c2ccccc2F)cc1[O-]

>  <Energy>  (10) 
58.001984474188546

>  <Genealogy>  (10) 
COc1ccc(C=C(c2ccncc2)c2ccccc2F)cc1[O-] (protonated)
COc1ccc(/C=C(/c2ccncc2)c2ccccc2F)cc1[O-] (cis-trans isomerization)
COc1ccc(/C=C(/c2ccncc2)c2ccccc2F)cc1[O-] (3D coordinates assigned)
COc1ccc(/C=C(/c2ccncc2)c2ccccc2F)cc1[O-] (optimized conformer: 58.001984474188546 kcal/mol)

>  <smiles>  (10) 
COc1ccc(C=C(c2ccncc2)c2ccccc2F)cc1O

>  <score_type>  (10) 
oracle

>  <origin>  (10) 
adg

>  <m_score__min__energy>  (10) 
-11.42

>  <m_primary>  (10) 
energy

$$$$
10:0
     RDKit          3D

 38 40  0  0  0  0  0  0  0  0999 V2000
   56.9847   30.9387   42.7414 H   0  0  0  0  0  0  0  0  0  0  0  0
   57.0780   30.9080   43.8370 C   0  0  0  0  0  0  0  0  0  0  0  0
   56.8510   31.9870   44.5260 N   0  0  0  0  0  0  0  0  0  0  0  0
   57.7550   32.6280   45.4420 C   0  0  0  0  0  0  0  0  0  0  0  0
   58.2900   33.9130   45.2160 C   0  0  0  0  0  0  0  0  0  0  0  0
   58.0245   34.4640   44.3017 H   0  0  0  0  0  0  0  0  0  0  0  0
   59.1560   34.4890   46.1490 C   0  0  0  0  0  0  0  0  0  0  0  0
   59.5832   35.4840   45.9552 H   0  0  0  0  0  0  0  0  0  0  0  0
   59.4840   33.8110   47.3270 C   0  0  0  0  0  0  0  0  0  0  0  0
   60.3520   34.4260   48.2380 O   0  0  0  0  0  0  0  0  0  0  0  0
   61.6610   33.9970   48.5030 C   0  0  0  0  0  0  0  0  0  0  0  0
   62.3960   33.4070   47.4660 C   0  0  0  0  0  0  0  0  0  0  0  0
   61.9399   33.2869   46.4723 H   0  0  0  0  0  0  0  0  0  0  0  0
   63.7060   32.9700   47.6870 C   0  0  0  0  0  0  0  0  0  0  0  0
   64.2741   32.5019   46.8696 H   0  0  0  0  0  0  0  0  0  0  0  0
   64.2940   33.1270   48.9440 C   0  0  0  0  0  0  0  0  0  0  0  0
   65.3234   32.7799   49.1166 H   0  0  0  0  0  0  0  0  0  0  0  0
   63.5750   33.7250   49.9830 C   0  0  0  0  0  0  0  0  0  0  0  0
   64.1490   33.8860   51.2000 F   0  0  0  0  0  0  0  0  0  0  0  0
   62.2640   34.1640   49.7660 C   0  0  0  0  0  0  0  0  0  0  0  0
   61.7027   34.6406   50.5832 H   0  0  0  0  0  0  0  0  0  0  0  0
   58.9640   32.5230   47.5530 C   0  0  0  0  0  0  0  0  0  0  0  0
   59.4310   31.5810   48.9640 Cl  0  0  0  0  0  0  0  0  0  0  0  0
   58.0970   31.9480   46.6180 C   0  0  0  0  0  0  0  0  0  0  0  0
   57.6783   30.9488   46.8086 H   0  0  0  0  0  0  0  0  0  0  0  0
   57.4600   29.6370   44.4980 C   0  0  0  0  0  0  0  0  0  0  0  0
   58.8280   29.3340   44.6210 C   0  0  0  0  0  0  0  0  0  0  0  0
   59.5756   30.0393   44.2290 H   0  0  0  0  0  0  0  0  0  0  0  0
   59.2560   28.1440   45.2370 C   0  0  0  0  0  0  0  0  0  0  0  0
   60.6610   27.8490   45.3550 N   0  0  0  0  0  0  0  0  0  0  0  0
   61.5110   28.5690   44.7910 O   0  0  0  0  0  0  0  0  0  0  0  0
   61.0900   26.7690   46.0900 O   0  0  0  0  0  0  0  0  0  0  0  0
   58.2930   27.2500   45.7330 C   0  0  0  0  0  0  0  0  0  0  0  0
   58.6128   26.3153   46.2168 H   0  0  0  0  0  0  0  0  0  0  0  0
   56.9330   27.5400   45.6160 C   0  0  0  0  0  0  0  0  0  0  0  0
   56.1886   26.8319   46.0090 H   0  0  0  0  0  0  0  0  0  0  0  0
   56.5090   28.7220   45.0040 C   0  0  0  0  0  0  0  0  0  0  0  0
   55.1440   28.9690   44.9070 O   0  0  0  0  0  0  0  0  0  0  0  0
  1  2  1  0
  2  3  2  0
  3  4  1  0
  4  5  2  0
  5  6  1  0
  5  7  1  0
  7  8  1  0
  7  9  2  0
  9 10  1  0
 10 11  1  0
 11 12  2  0
 12 13  1  0
 12 14  1  0
 14 15  1  0
 14 16  2  0
 16 17  1  0
 16 18  1  0
 18 19  1  0
 18 20  2  0
 20 21  1  0
  9 22  1  0
 22 23  1  0
 22 24  2  0
 24 25  1  0
  2 26  1  0
 26 27  2  0
 27 28  1  0
 27 29  1  0
 29 30  1  0
 30 31  2  0
 30 32  1  0
 29 33  2  0
 33 34  1  0
 33 35  1  0
 35 36  1  0
 35 37  2  0
 37 38  1  0
 24  4  1  0
 37 26  1  0
 20 11  1  0
M  CHG  3  30   1  32  -1  38  -1
M  END
>  <UniqueID>  (11) 
10

>  <SMILES>  (11) 
O=[N+]([O-])c1ccc([O-])c(/C=N/c2ccc(Oc3cccc(F)c3)c(Cl)c2)c1

>  <Energy>  (11) 
55.653800505761836

>  <Genealogy>  (11) 
O=[N+]([O-])c1ccc([O-])c(C=Nc2ccc(Oc3cccc(F)c3)c(Cl)c2)c1 (protonated)
O=[N+]([O-])c1ccc([O-])c(/C=N/c2ccc(Oc3cccc(F)c3)c(Cl)c2)c1 (cis-trans isomerization)
O=[N+]([O-])c1ccc([O-])c(/C=N/c2ccc(Oc3cccc(F)c3)c(Cl)c2)c1 (3D coordinates assigned)
O=[N+]([O-])c1ccc([O-])c(/C=N/c2ccc(Oc3cccc(F)c3)c(Cl)c2)c1 (optimized conformer: 55.653800505761836 kcal/mol)

>  <smiles>  (11) 
O=[N+]([O-])c1ccc(O)c(C=Nc2ccc(Oc3cccc(F)c3)c(Cl)c2)c1

>  <score_type>  (11) 
oracle

>  <origin>  (11) 
adg

>  <m_score__min__energy>  (11) 
-12.17

>  <m_primary>  (11) 
energy

$$$$
11:0
     RDKit          3D

 45 47  0  0  0  0  0  0  0  0999 V2000
   55.1660   29.3490   44.8810 N   0  0  0  0  0  0  0  0  0  0  0  0
   56.7670   29.6360   44.2980 S   0  0  0  0  0  0  0  0  0  0  0  0
   56.7170   30.5740   43.1260 O   0  0  0  0  0  0  0  0  0  0  0  0
   57.3770   28.3360   43.8500 O   0  0  0  0  0  0  0  0  0  0  0  0
   57.7390   30.3420   45.5850 C   0  0  0  0  0  0  0  0  0  0  0  0
   58.4650   29.5170   46.4530 C   0  0  0  0  0  0  0  0  0  0  0  0
   59.2270   30.0790   47.4810 C   0  0  0  0  0  0  0  0  0  0  0  0
   59.2650   31.4660   47.6470 C   0  0  0  0  0  0  0  0  0  0  0  0
   58.5390   32.3030   46.7930 C   0  0  0  0  0  0  0  0  0  0  0  0
   58.6060   33.6880   47.0040 O   0  0  0  0  0  0  0  0  0  0  0  0
   59.6500   34.5300   46.5210 C   0  0  0  0  0  0  0  0  0  0  0  0
   60.9480   34.1110   47.1470 C   0  0  0  0  0  0  0  0  0  0  0  0
   62.0280   33.7200   46.3410 C   0  0  0  0  0  0  0  0  0  0  0  0
   63.2500   33.3690   46.9200 C   0  0  0  0  0  0  0  0  0  0  0  0
   63.4130   33.4160   48.3130 C   0  0  0  0  0  0  0  0  0  0  0  0
   64.7310   33.0490   48.9470 C   0  0  0  0  0  0  0  0  0  0  0  0
   64.5630   32.8250   50.4000 N   0  0  0  0  0  0  0  0  0  0  0  0
   65.6440   33.4580   51.1730 C   0  0  0  0  0  0  0  0  0  0  0  0
   66.7420   32.4240   51.3850 C   0  0  0  0  0  0  0  0  0  0  0  0
   66.1150   31.0860   51.0420 C   0  0  0  0  0  0  0  0  0  0  0  0
   64.6590   31.3950   50.7260 C   0  0  0  0  0  0  0  0  0  0  0  0
   62.3380   33.8240   49.1180 C   0  0  0  0  0  0  0  0  0  0  0  0
   61.1150   34.1750   48.5390 C   0  0  0  0  0  0  0  0  0  0  0  0
   57.7720   31.7330   45.7580 C   0  0  0  0  0  0  0  0  0  0  0  0
   55.2380   28.6210   45.6270 H   0  0  0  0  0  0  0  0  0  0  0  0
   58.4355   28.4248   46.3255 H   0  0  0  0  0  0  0  0  0  0  0  0
   59.7976   29.4287   48.1603 H   0  0  0  0  0  0  0  0  0  0  0  0
   59.8702   31.9028   48.4551 H   0  0  0  0  0  0  0  0  0  0  0  0
   59.7217   34.4373   45.4273 H   0  0  0  0  0  0  0  0  0  0  0  0
   59.4332   35.5763   46.7824 H   0  0  0  0  0  0  0  0  0  0  0  0
   61.9119   33.6897   45.2476 H   0  0  0  0  0  0  0  0  0  0  0  0
   64.0883   33.0543   46.2810 H   0  0  0  0  0  0  0  0  0  0  0  0
   65.1132   32.1289   48.4808 H   0  0  0  0  0  0  0  0  0  0  0  0
   65.4413   33.8749   48.7943 H   0  0  0  0  0  0  0  0  0  0  0  0
   66.0447   34.3189   50.6177 H   0  0  0  0  0  0  0  0  0  0  0  0
   65.2625   33.8129   52.1418 H   0  0  0  0  0  0  0  0  0  0  0  0
   67.5956   32.6291   50.7222 H   0  0  0  0  0  0  0  0  0  0  0  0
   67.1238   32.4418   52.4165 H   0  0  0  0  0  0  0  0  0  0  0  0
   66.6127   30.6398   50.1684 H   0  0  0  0  0  0  0  0  0  0  0  0
   66.2118   30.3640   51.8663 H   0  0  0  0  0  0  0  0  0  0  0  0
   64.3265   30.7925   49.8678 H   0  0  0  0  0  0  0  0  0  0  0  0
   64.0195   31.1539   51.5880 H   0  0  0  0  0  0  0  0  0  0  0  0
   62.4586   33.8678   50.2105 H   0  0  0  0  0  0  0  0  0  0  0  0
   60.2806   34.5025   49.1766 H   0  0  0  0  0  0  0  0  0  0  0  0
   57.1961   32.3824   45.0822 H   0  0  0  0  0  0  0  0  0  0  0  0
  1  2  1  0
  2  3  2  0
  2  4  2  0
  2  5  1  0
  5  6  2  0
  6  7  1  0
  7  8  2  0
  8  9  1  0
  9 10  1  0
 10 11  1  0
 11 12  1  0
 12 13  2  0
 13 14  1  0
 14 15  2  0
 15 16  1  0
 16 17  1  0
 17 18  1  0
 18 19  1  0
 19 20  1  0
 20 21  1  0
 15 22  1  0
 22 23  2  0
  9 24  2  0
 24  5  1  0
 23 12  1  0
 21 17  1  0
  1 25  1  0
  6 26  1  0
  7 27  1  0
  8 28  1  0
 11 29  1  0
 11 30  1  0
 13 31  1  0
 14 32  1  0
 16 33  1  0
 16 34  1  0
 18 35  1  0
 18 36  1  0
 19 37  1  0
 19 38  1  0
 20 39  1  0
 20 40  1  0
 21 41  1  0
 21 42  1  0
 22 43  1  0
 23 44  1  0
 24 45  1  0
M  CHG  1   1  -1
M  END
>  <UniqueID>  (12) 
11

>  <SMILES>  (12) 
[NH-]S(=O)(=O)c1cccc(OCc2ccc(CN3CCCC3)cc2)c1

>  <Energy>  (12) 
47.59895996854902

>  <Genealogy>  (12) 
[NH-]S(=O)(=O)c1cccc(OCc2ccc(CN3CCCC3)cc2)c1 (protonated)
[NH-]S(=O)(=O)c1cccc(OCc2ccc(CN3CCCC3)cc2)c1 (3D coordinates assigned)
[NH-]S(=O)(=O)c1cccc(OCc2ccc(CN3CCCC3)cc2)c1 (nonaromatic ring conformer: 47.59895996854902 kcal/mol)

>  <smiles>  (12) 
NS(=O)(=O)c1cccc(OCc2ccc(CN3CCCC3)cc2)c1

>  <score_type>  (12) 
oracle

>  <origin>  (12) 
adg

>  <m_score__min__energy>  (12) 
-12.01

>  <m_primary>  (12) 
energy

$$$$
12:0
     RDKit          3D

 35 37  0  0  0  0  0  0  0  0999 V2000
   54.6110   27.0920   46.7480 H   0  0  0  0  0  0  0  0  0  0  0  0
   55.1510   26.5770   46.0190 N   0  0  0  0  0  0  0  0  0  0  0  0
   54.8130   25.2360   45.6670 C   0  0  0  0  0  0  0  0  0  0  0  0
   53.6320   24.8340   45.8450 O   0  0  0  0  0  0  0  0  0  0  0  0
   55.8340   24.3420   45.0630 C   0  0  0  0  0  0  0  0  0  0  0  0
   55.4120   23.1200   44.5050 C   0  0  0  0  0  0  0  0  0  0  0  0
   54.3391   22.8794   44.4721 H   0  0  0  0  0  0  0  0  0  0  0  0
   56.3390   22.2100   43.9930 C   0  0  0  0  0  0  0  0  0  0  0  0
   55.9040   21.0060   43.4520 O   0  0  0  0  0  0  0  0  0  0  0  0
   57.7010   22.5050   44.0270 C   0  0  0  0  0  0  0  0  0  0  0  0
   58.4297   21.7817   43.6322 H   0  0  0  0  0  0  0  0  0  0  0  0
   58.1410   23.7160   44.5610 C   0  0  0  0  0  0  0  0  0  0  0  0
   59.2173   23.9420   44.5834 H   0  0  0  0  0  0  0  0  0  0  0  0
   57.2230   24.6510   45.0710 C   0  0  0  0  0  0  0  0  0  0  0  0
   57.7450   25.9540   45.5420 C   0  0  0  0  0  0  0  0  0  0  0  0
   57.9390   27.0080   44.6340 C   0  0  0  0  0  0  0  0  0  0  0  0
   57.7189   26.8592   43.5666 H   0  0  0  0  0  0  0  0  0  0  0  0
   58.4110   28.2460   45.0820 C   0  0  0  0  0  0  0  0  0  0  0  0
   58.5700   29.0645   44.3645 H   0  0  0  0  0  0  0  0  0  0  0  0
   58.6820   28.4470   46.4420 C   0  0  0  0  0  0  0  0  0  0  0  0
   59.2620   30.0070   47.0160 S   0  0  0  0  0  0  0  0  0  0  0  0
   60.5400   30.3870   46.3200 O   0  0  0  0  0  0  0  0  0  0  0  0
   59.5180   29.9180   48.4930 O   0  0  0  0  0  0  0  0  0  0  0  0
   58.0700   31.2320   46.7180 N   0  0  0  0  0  0  0  0  0  0  0  0
   58.3360   32.4160   46.2550 C   0  0  0  0  0  0  0  0  0  0  0  0
   58.8300   33.3990   47.0350 N   0  0  0  0  0  0  0  0  0  0  0  0
   59.0240   34.5460   46.3310 C   0  0  0  0  0  0  0  0  0  0  0  0
   59.4212   35.4611   46.7945 H   0  0  0  0  0  0  0  0  0  0  0  0
   58.6850   34.4810   44.9840 C   0  0  0  0  0  0  0  0  0  0  0  0
   58.7705   35.3012   44.2560 H   0  0  0  0  0  0  0  0  0  0  0  0
   58.1210   32.9280   44.6620 S   0  0  0  0  0  0  0  0  0  0  0  0
   58.4820   27.4000   47.3500 C   0  0  0  0  0  0  0  0  0  0  0  0
   58.6972   27.5525   48.4179 H   0  0  0  0  0  0  0  0  0  0  0  0
   58.0100   26.1620   46.9050 C   0  0  0  0  0  0  0  0  0  0  0  0
   57.8455   25.3473   47.6256 H   0  0  0  0  0  0  0  0  0  0  0  0
  1  2  1  0
  2  3  1  0
  3  4  2  0
  3  5  1  0
  5  6  2  0
  6  7  1  0
  6  8  1  0
  8  9  1  0
  8 10  2  0
 10 11  1  0
 10 12  1  0
 12 13  1  0
 12 14  2  0
 14 15  1  0
 15 16  2  0
 16 17  1  0
 16 18  1  0
 18 19  1  0
 18 20  2  0
 20 21  1  0
 21 22  2  0
 21 23  2  0
 21 24  1  0
 24 25  2  0
 25 26  1  0
 26 27  1  0
 27 28  1  0
 27 29  2  0
 29 30  1  0
 29 31  1  0
 20 32  1  0
 32 33  1  0
 32 34  2  0
 34 35  1  0
 14  5  1  0
 34 15  1  0
 31 25  1  0
M  CHG  3   2  -1   9  -1  26  -1
M  END
>  <UniqueID>  (13) 
12

>  <SMILES>  (13) 
[NH-]C(=O)c1cc([O-])ccc1-c1ccc(S(=O)(=O)/N=c2/[n-]ccs2)cc1

>  <Energy>  (13) 
81.77715481226993

>  <Genealogy>  (13) 
[NH-]C(=O)c1cc([O-])ccc1-c1ccc(S(=O)(=O)N=c2[n-]ccs2)cc1 (protonated)
[NH-]C(=O)c1cc([O-])ccc1-c1ccc(S(=O)(=O)/N=c2/[n-]ccs2)cc1 (cis-trans isomerization)
[NH-]C(=O)c1cc([O-])ccc1-c1ccc(S(=O)(=O)/N=c2/[n-]ccs2)cc1 (3D coordinates assigned)
[NH-]C(=O)c1cc([O-])ccc1-c1ccc(S(=O)(=O)/N=c2/[n-]ccs2)cc1 (optimized conformer: 81.77715481226993 kcal/mol)

>  <smiles>  (13) 
NC(=O)c1cc(O)ccc1-c1ccc(S(=O)(=O)N=c2[nH]ccs2)cc1

>  <score_type>  (13) 
oracle

>  <origin>  (13) 
adg

>  <m_score__min__energy>  (13) 
-14.48

>  <m_primary>  (13) 
energy

$$$$
13:0
     RDKit          3D

 53 56  0  0  0  0  0  0  0  0999 V2000
   57.3990   31.9550   42.3410 C   0  0  0  0  0  0  0  0  0  0  0  0
   57.7060   31.2170   43.5780 N   0  0  0  0  0  0  0  0  0  0  0  0
   58.1520   31.9000   44.6880 C   0  0  0  0  0  0  0  0  0  0  0  0
   58.3400   33.1470   44.6520 O   0  0  0  0  0  0  0  0  0  0  0  0
   58.4000   31.1790   45.8500 C   0  0  0  0  0  0  0  0  0  0  0  0
   58.2020   29.8370   45.8730 C   0  0  0  0  0  0  0  0  0  0  0  0
   58.4970   29.3460   47.0910 N   0  0  0  0  0  0  0  0  0  0  0  0
   58.8910   30.4360   47.7900 C   0  0  0  0  0  0  0  0  0  0  0  0
   59.2600   30.3830   49.1740 N   0  0  0  0  0  0  0  0  0  0  0  0
   60.2290   29.3850   49.6380 C   0  0  0  0  0  0  0  0  0  0  0  0
   61.2490   30.0120   50.6040 C   0  0  0  0  0  0  0  0  0  0  0  0
   60.6700   31.1600   51.4570 C   0  0  0  0  0  0  0  0  0  0  0  0
   59.1310   31.1030   51.5480 C   0  0  1  0  0  0  0  0  0  0  0  0
   58.6090   32.1710   52.4030 N   0  0  0  0  0  0  0  0  0  0  0  0
   58.5230   31.2090   50.1380 C   0  0  0  0  0  0  0  0  0  0  0  0
   58.8360   31.5860   47.0650 N   0  0  0  0  0  0  0  0  0  0  0  0
   59.0790   32.9510   47.5490 C   0  0  0  0  0  0  0  0  0  0  0  0
   60.5510   33.2460   47.7820 C   0  0  0  0  0  0  0  0  0  0  0  0
   61.5050   33.0690   46.7580 C   0  0  0  0  0  0  0  0  0  0  0  0
   62.8520   33.3600   46.9790 C   0  0  0  0  0  0  0  0  0  0  0  0
   63.2700   33.8480   48.2170 C   0  0  0  0  0  0  0  0  0  0  0  0
   62.3400   34.0540   49.2360 C   0  0  0  0  0  0  0  0  0  0  0  0
   60.9840   33.7660   49.0280 C   0  0  0  0  0  0  0  0  0  0  0  0
   60.0570   34.0200   50.1040 C   0  0  0  0  0  0  0  0  0  0  0  0
   59.3120   34.2240   50.9660 N   0  0  0  0  0  0  0  0  0  0  0  0
   57.7440   29.1450   44.7950 N   0  0  0  0  0  0  0  0  0  0  0  0
   57.5180   27.6950   44.8960 C   0  0  0  0  0  0  0  0  0  0  0  0
   57.4740   29.8520   43.6420 C   0  0  0  0  0  0  0  0  0  0  0  0
   57.0070   29.2510   42.6340 O   0  0  0  0  0  0  0  0  0  0  0  0
   56.9880   32.9430   42.5959 H   0  0  0  0  0  0  0  0  0  0  0  0
   58.3191   32.0816   41.7516 H   0  0  0  0  0  0  0  0  0  0  0  0
   56.6606   31.3916   41.7516 H   0  0  0  0  0  0  0  0  0  0  0  0
   58.4350   28.3610   47.4300 H   0  0  0  0  0  0  0  0  0  0  0  0
   59.6923   28.5770   50.1567 H   0  0  0  0  0  0  0  0  0  0  0  0
   60.7703   28.9909   48.7653 H   0  0  0  0  0  0  0  0  0  0  0  0
   61.6145   29.2261   51.2814 H   0  0  0  0  0  0  0  0  0  0  0  0
   62.0527   30.4423   49.9885 H   0  0  0  0  0  0  0  0  0  0  0  0
   61.0872   31.0913   52.4725 H   0  0  0  0  0  0  0  0  0  0  0  0
   60.9436   32.1095   50.9737 H   0  0  0  0  0  0  0  0  0  0  0  0
   58.8474   30.1405   51.9988 H   0  0  0  0  0  0  0  0  0  0  0  0
   59.4000   32.8030   52.6680 H   0  0  0  0  0  0  0  0  0  0  0  0
   57.9210   32.7470   51.8620 H   0  0  0  0  0  0  0  0  0  0  0  0
   57.4768   30.8710   50.1729 H   0  0  0  0  0  0  0  0  0  0  0  0
   58.5833   32.2581   49.8127 H   0  0  0  0  0  0  0  0  0  0  0  0
   58.6932   33.6612   46.8028 H   0  0  0  0  0  0  0  0  0  0  0  0
   58.5663   33.0526   48.5169 H   0  0  0  0  0  0  0  0  0  0  0  0
   61.1835   32.6973   45.7739 H   0  0  0  0  0  0  0  0  0  0  0  0
   63.5860   33.2041   46.1747 H   0  0  0  0  0  0  0  0  0  0  0  0
   64.3333   34.0705   48.3898 H   0  0  0  0  0  0  0  0  0  0  0  0
   62.6728   34.4449   50.2089 H   0  0  0  0  0  0  0  0  0  0  0  0
   57.4726   27.4039   45.9558 H   0  0  0  0  0  0  0  0  0  0  0  0
   56.5688   27.4367   44.4039 H   0  0  0  0  0  0  0  0  0  0  0  0
   58.3436   27.1601   44.4039 H   0  0  0  0  0  0  0  0  0  0  0  0
  1  2  1  0
  2  3  1  0
  3  4  2  0
  3  5  1  0
  5  6  2  0
  6  7  1  0
  7  8  2  0
  8  9  1  0
  9 10  1  0
 10 11  1  0
 11 12  1  0
 12 13  1  0
 13 14  1  0
 13 15  1  0
  8 16  1  0
 16 17  1  0
 17 18  1  0
 18 19  2  0
 19 20  1  0
 20 21  2  0
 21 22  1  0
 22 23  2  0
 23 24  1  0
 24 25  3  0
  6 26  1  0
 26 27  1  0
 26 28  1  0
 28 29  2  0
 28  2  1  0
 16  5  1  0
 23 18  1  0
 15  9  1  0
  1 30  1  0
  1 31  1  0
  1 32  1  0
  7 33  1  0
 10 34  1  0
 10 35  1  0
 11 36  1  0
 11 37  1  0
 12 38  1  0
 12 39  1  0
 13 40  1  1
 14 41  1  0
 14 42  1  0
 15 43  1  0
 15 44  1  0
 17 45  1  0
 17 46  1  0
 19 47  1  0
 20 48  1  0
 21 49  1  0
 22 50  1  0
 27 51  1  0
 27 52  1  0
 27 53  1  0
M  CHG  1   7   1
M  END
>  <UniqueID>  (14) 
13

>  <SMILES>  (14) 
Cn1c(=O)c2c([nH+]c(N3CCC[C@@H](N)C3)n2Cc2ccccc2C#N)n(C)c1=O

>  <Energy>  (14) 
109.2986788450911

>  <Genealogy>  (14) 
Cn1c(=O)c2c([nH+]c(N3CCCC(N)C3)n2Cc2ccccc2C#N)n(C)c1=O (protonated)
Cn1c(=O)c2c([nH+]c(N3CCC[C@@H](N)C3)n2Cc2ccccc2C#N)n(C)c1=O (chirality)
Cn1c(=O)c2c([nH+]c(N3CCC[C@@H](N)C3)n2Cc2ccccc2C#N)n(C)c1=O (3D coordinates assigned)
Cn1c(=O)c2c([nH+]c(N3CCC[C@@H](N)C3)n2Cc2ccccc2C#N)n(C)c1=O (nonaromatic ring conformer: 109.2986788450911 kcal/mol)

>  <smiles>  (14) 
Cn1c(=O)c2c(nc(N3CCCC(N)C3)n2Cc2ccccc2C#N)n(C)c1=O

>  <score_type>  (14) 
oracle

>  <origin>  (14) 
adg

>  <m_score__min__energy>  (14) 
-6.4299999999999997

>  <m_primary>  (14) 
energy

$$$$
14:0
     RDKit          3D

 57 60  0  0  0  0  0  0  0  0999 V2000
   57.0640   22.0160   43.4270 C   0  0  0  0  0  0  0  0  0  0  0  0
   55.9260   23.0310   43.5450 C   0  0  0  0  0  0  0  0  0  0  0  0
   55.6810   23.4740   44.9950 C   0  0  0  0  0  0  0  0  0  0  0  0
   56.1750   24.8680   45.2350 C   0  0  0  0  0  0  0  0  0  0  0  0
   57.3260   25.4280   44.7220 C   0  0  0  0  0  0  0  0  0  0  0  0
   57.3340   26.6990   45.2700 C   0  0  0  0  0  0  0  0  0  0  0  0
   58.3190   27.7690   45.0270 C   0  0  0  0  0  0  0  0  0  0  0  0
   59.5170   27.4460   44.8070 O   0  0  0  0  0  0  0  0  0  0  0  0
   57.9580   29.1620   45.0690 N   0  0  0  0  0  0  0  0  0  0  0  0
   56.7420   29.5870   44.3600 C   0  0  0  0  0  0  0  0  0  0  0  0
   56.4990   31.0970   44.4990 C   0  0  0  0  0  0  0  0  0  0  0  0
   57.8120   31.9070   44.3620 C   0  0  1  0  0  0  0  0  0  0  0  0
   58.3160   31.7470   43.0520 O   0  0  0  0  0  0  0  0  0  0  0  0
   57.4800   33.4080   44.5330 C   0  0  0  0  0  0  0  0  0  0  0  0
   58.7630   34.2120   44.7510 C   0  0  0  0  0  0  0  0  0  0  0  0
   59.4340   33.8360   46.0160 N   0  0  0  0  0  0  0  0  0  0  0  0
   60.8610   34.2260   46.0810 C   0  0  0  0  0  0  0  0  0  0  0  0
   61.6250   33.5640   47.2100 C   0  0  0  0  0  0  0  0  0  0  0  0
   61.0980   33.5380   48.5110 C   0  0  0  0  0  0  0  0  0  0  0  0
   61.8140   32.9310   49.5420 C   0  0  0  0  0  0  0  0  0  0  0  0
   63.0570   32.3560   49.2700 C   0  0  0  0  0  0  0  0  0  0  0  0
   63.5710   32.4070   48.0110 N   0  0  0  0  0  0  0  0  0  0  0  0
   62.8940   33.0030   46.9900 C   0  0  0  0  0  0  0  0  0  0  0  0
   59.1230   32.4840   46.5370 C   0  0  0  0  0  0  0  0  0  0  0  0
   58.8930   31.4420   45.4150 C   0  0  1  0  0  0  0  0  0  0  0  0
   58.5720   30.0660   46.0500 C   0  0  0  0  0  0  0  0  0  0  0  0
   56.2420   26.8620   46.0430 N   0  0  0  0  0  0  0  0  0  0  0  0
   55.5760   25.7460   46.0020 O   0  0  0  0  0  0  0  0  0  0  0  0
   57.3965   21.7194   44.4327 H   0  0  0  0  0  0  0  0  0  0  0  0
   56.7091   21.1290   42.8817 H   0  0  0  0  0  0  0  0  0  0  0  0
   57.9048   22.4696   42.8817 H   0  0  0  0  0  0  0  0  0  0  0  0
   56.1794   23.9165   42.9436 H   0  0  0  0  0  0  0  0  0  0  0  0
   55.0070   22.5462   43.1838 H   0  0  0  0  0  0  0  0  0  0  0  0
   54.6014   23.4369   45.2024 H   0  0  0  0  0  0  0  0  0  0  0  0
   56.2317   22.7936   45.6611 H   0  0  0  0  0  0  0  0  0  0  0  0
   58.0610   24.9739   44.0411 H   0  0  0  0  0  0  0  0  0  0  0  0
   56.8471   29.3400   43.2933 H   0  0  0  0  0  0  0  0  0  0  0  0
   55.8850   29.0604   44.8052 H   0  0  0  0  0  0  0  0  0  0  0  0
   55.7989   31.4185   43.7138 H   0  0  0  0  0  0  0  0  0  0  0  0
   56.0845   31.2854   45.5004 H   0  0  0  0  0  0  0  0  0  0  0  0
   58.5090   30.7860   42.8980 H   0  0  0  0  0  0  0  0  0  0  0  0
   56.9719   33.7730   43.6282 H   0  0  0  0  0  0  0  0  0  0  0  0
   56.8253   33.5331   45.4081 H   0  0  0  0  0  0  0  0  0  0  0  0
   59.4497   34.0226   43.9128 H   0  0  0  0  0  0  0  0  0  0  0  0
   58.4957   35.2776   44.8071 H   0  0  0  0  0  0  0  0  0  0  0  0
   61.3396   33.9501   45.1298 H   0  0  0  0  0  0  0  0  0  0  0  0
   60.8888   35.3097   46.2675 H   0  0  0  0  0  0  0  0  0  0  0  0
   60.1197   33.9967   48.7171 H   0  0  0  0  0  0  0  0  0  0  0  0
   61.4028   32.9053   50.5619 H   0  0  0  0  0  0  0  0  0  0  0  0
   63.6213   31.8613   50.0742 H   0  0  0  0  0  0  0  0  0  0  0  0
   64.5090   31.9870   47.8260 H   0  0  0  0  0  0  0  0  0  0  0  0
   63.3438   33.0452   45.9871 H   0  0  0  0  0  0  0  0  0  0  0  0
   59.9635   32.1470   47.1615 H   0  0  0  0  0  0  0  0  0  0  0  0
   58.1887   32.5598   47.1125 H   0  0  0  0  0  0  0  0  0  0  0  0
   59.8202   31.3433   44.8315 H   0  0  0  0  0  0  0  0  0  0  0  0
   59.5044   29.6148   46.4202 H   0  0  0  0  0  0  0  0  0  0  0  0
   57.8623   30.2193   46.8763 H   0  0  0  0  0  0  0  0  0  0  0  0
  1  2  1  0
  2  3  1  0
  3  4  1  0
  4  5  2  0
  5  6  1  0
  6  7  1  0
  7  8  2  0
  7  9  1  0
  9 10  1  0
 10 11  1  0
 11 12  1  0
 12 13  1  6
 12 14  1  0
 14 15  1  0
 15 16  1  0
 16 17  1  0
 17 18  1  0
 18 19  2  0
 19 20  1  0
 20 21  2  0
 21 22  1  0
 22 23  2  0
 16 24  1  0
 24 25  1  0
 25 26  1  0
  6 27  2  0
 27 28  1  0
 28  4  1  0
 26  9  1  0
 25 12  1  0
 23 18  1  0
  1 29  1  0
  1 30  1  0
  1 31  1  0
  2 32  1  0
  2 33  1  0
  3 34  1  0
  3 35  1  0
  5 36  1  0
 10 37  1  0
 10 38  1  0
 11 39  1  0
 11 40  1  0
 13 41  1  0
 14 42  1  0
 14 43  1  0
 15 44  1  0
 15 45  1  0
 17 46  1  0
 17 47  1  0
 19 48  1  0
 20 49  1  0
 21 50  1  0
 22 51  1  0
 23 52  1  0
 24 53  1  0
 24 54  1  0
 25 55  1  6
 26 56  1  0
 26 57  1  0
M  CHG  1  22   1
M  END
>  <UniqueID>  (15) 
14

>  <SMILES>  (15) 
CCCc1cc(C(=O)N2CC[C@@]3(O)CCN(Cc4ccc[nH+]c4)C[C@H]3C2)no1

>  <Energy>  (15) 
100.46083192256918

>  <Genealogy>  (15) 
CCCc1cc(C(=O)N2CCC3(O)CCN(Cc4ccc[nH+]c4)CC3C2)no1 (protonated)
CCCc1cc(C(=O)N2CC[C@@]3(O)CCN(Cc4ccc[nH+]c4)C[C@H]3C2)no1 (chirality)
CCCc1cc(C(=O)N2CC[C@@]3(O)CCN(Cc4ccc[nH+]c4)C[C@H]3C2)no1 (3D coordinates assigned)
CCCc1cc(C(=O)N2CC[C@@]3(O)CCN(Cc4ccc[nH+]c4)C[C@H]3C2)no1 (nonaromatic ring conformer: 100.46083192256918 kcal/mol)

>  <smiles>  (15) 
CCCc1cc(C(=O)N2CCC3(O)CCN(Cc4cccnc4)CC3C2)no1

>  <score_type>  (15) 
oracle

>  <origin>  (15) 
adg

>  <m_score__min__energy>  (15) 
-8.0399999999999991

>  <m_primary>  (15) 
energy

$$$$
15:0
     RDKit          3D

 56 59  0  0  0  0  0  0  0  0999 V2000
   50.9500   30.5610   48.6400 O   0  0  0  0  0  0  0  0  0  0  0  0
   51.0230   31.4660   49.5130 C   0  0  0  0  0  0  0  0  0  0  0  0
   51.6630   31.2270   50.8260 C   0  0  0  0  0  0  0  0  0  0  0  0
   52.7700   30.3640   50.8870 C   0  0  0  0  0  0  0  0  0  0  0  0
   53.4370   30.1360   52.0960 C   0  0  0  0  0  0  0  0  0  0  0  0
   54.6100   29.3130   52.0940 N   0  0  0  0  0  0  0  0  0  0  0  0
   56.0100   29.5960   53.0800 S   0  0  0  0  0  0  0  0  0  0  0  0
   55.6150   29.9760   54.4780 O   0  0  0  0  0  0  0  0  0  0  0  0
   56.8010   28.3230   53.1400 O   0  0  0  0  0  0  0  0  0  0  0  0
   56.9960   30.8690   52.3570 C   0  0  0  0  0  0  0  0  0  0  0  0
   57.3270   32.0220   53.0810 C   0  0  0  0  0  0  0  0  0  0  0  0
   58.1290   33.0100   52.5000 C   0  0  0  0  0  0  0  0  0  0  0  0
   58.6100   32.8500   51.1980 C   0  0  0  0  0  0  0  0  0  0  0  0
   58.2890   31.6990   50.4600 C   0  0  0  0  0  0  0  0  0  0  0  0
   58.7900   31.5100   49.0780 C   0  0  0  0  0  0  0  0  0  0  0  0
   59.4970   30.3450   48.7290 C   0  0  0  0  0  0  0  0  0  0  0  0
   59.9060   30.1350   47.4120 C   0  0  0  0  0  0  0  0  0  0  0  0
   59.6010   31.0700   46.4230 C   0  0  0  0  0  0  0  0  0  0  0  0
   58.8890   32.2320   46.7480 C   0  0  0  0  0  0  0  0  0  0  0  0
   58.4740   33.2010   45.6700 C   0  0  0  0  0  0  0  0  0  0  0  0
   59.5440   34.1730   45.3780 N   0  0  0  0  0  0  0  0  0  0  0  0
   59.9950   34.9050   46.5750 C   0  0  0  0  0  0  0  0  0  0  0  0
   61.1960   34.2330   47.1880 C   0  0  0  0  0  0  0  0  0  0  0  0
   61.2830   34.0770   48.5820 C   0  0  0  0  0  0  0  0  0  0  0  0
   62.4210   33.5070   49.1590 C   0  0  0  0  0  0  0  0  0  0  0  0
   63.4760   33.0780   48.3500 C   0  0  0  0  0  0  0  0  0  0  0  0
   63.3940   33.2170   46.9630 C   0  0  0  0  0  0  0  0  0  0  0  0
   62.2570   33.7870   46.3800 C   0  0  0  0  0  0  0  0  0  0  0  0
   58.5160   32.4640   48.0830 C   0  0  0  0  0  0  0  0  0  0  0  0
   57.4670   30.7220   51.0460 C   0  0  0  0  0  0  0  0  0  0  0  0
   52.9550   30.7310   53.2720 C   0  0  0  0  0  0  0  0  0  0  0  0
   51.8520   31.5840   53.2230 C   0  0  0  0  0  0  0  0  0  0  0  0
   51.2120   31.8490   52.0090 C   0  0  0  0  0  0  0  0  0  0  0  0
   50.1340   32.7290   51.9960 O   0  0  0  0  0  0  0  0  0  0  0  0
   50.6009   32.4580   49.2943 H   0  0  0  0  0  0  0  0  0  0  0  0
   53.1170   29.8609   49.9724 H   0  0  0  0  0  0  0  0  0  0  0  0
   56.9555   32.1506   54.1083 H   0  0  0  0  0  0  0  0  0  0  0  0
   58.3818   33.9161   53.0702 H   0  0  0  0  0  0  0  0  0  0  0  0
   59.2432   33.6293   50.7488 H   0  0  0  0  0  0  0  0  0  0  0  0
   59.7288   29.5949   49.4995 H   0  0  0  0  0  0  0  0  0  0  0  0
   60.4716   29.2280   47.1523 H   0  0  0  0  0  0  0  0  0  0  0  0
   59.9203   30.8946   45.3851 H   0  0  0  0  0  0  0  0  0  0  0  0
   58.2417   32.6386   44.7536 H   0  0  0  0  0  0  0  0  0  0  0  0
   57.5913   33.7542   46.0234 H   0  0  0  0  0  0  0  0  0  0  0  0
   59.1450   34.8740   44.7100 H   0  0  0  0  0  0  0  0  0  0  0  0
   60.2625   35.9332   46.2902 H   0  0  0  0  0  0  0  0  0  0  0  0
   59.1792   34.9138   47.3129 H   0  0  0  0  0  0  0  0  0  0  0  0
   60.4510   34.4053   49.2223 H   0  0  0  0  0  0  0  0  0  0  0  0
   62.4861   33.3960   50.2514 H   0  0  0  0  0  0  0  0  0  0  0  0
   64.3716   32.6306   48.8057 H   0  0  0  0  0  0  0  0  0  0  0  0
   64.2251   32.8776   46.3273 H   0  0  0  0  0  0  0  0  0  0  0  0
   62.1928   33.8866   45.2864 H   0  0  0  0  0  0  0  0  0  0  0  0
   58.0051   33.4005   48.3515 H   0  0  0  0  0  0  0  0  0  0  0  0
   57.1893   29.8288   50.4671 H   0  0  0  0  0  0  0  0  0  0  0  0
   53.4475   30.5246   54.2337 H   0  0  0  0  0  0  0  0  0  0  0  0
   51.4829   32.0519   54.1476 H   0  0  0  0  0  0  0  0  0  0  0  0
  1  2  2  0
  2  3  1  0
  3  4  2  0
  4  5  1  0
  5  6  1  0
  6  7  1  0
  7  8  2  0
  7  9  2  0
  7 10  1  0
 10 11  2  0
 11 12  1  0
 12 13  2  0
 13 14  1  0
 14 15  1  0
 15 16  2  0
 16 17  1  0
 17 18  2  0
 18 19  1  0
 19 20  1  0
 20 21  1  0
 21 22  1  0
 22 23  1  0
 23 24  2  0
 24 25  1  0
 25 26  2  0
 26 27  1  0
 27 28  2  0
 19 29  2  0
 14 30  2  0
  5 31  2  0
 31 32  1  0
 32 33  2  0
 33 34  1  0
 33  3  1  0
 30 10  1  0
 29 15  1  0
 28 23  1  0
  2 35  1  0
  4 36  1  0
 11 37  1  0
 12 38  1  0
 13 39  1  0
 16 40  1  0
 17 41  1  0
 18 42  1  0
 20 43  1  0
 20 44  1  0
 21 45  1  0
 22 46  1  0
 22 47  1  0
 24 48  1  0
 25 49  1  0
 26 50  1  0
 27 51  1  0
 28 52  1  0
 29 53  1  0
 30 54  1  0
 31 55  1  0
 32 56  1  0
M  CHG  2   6  -1  34  -1
M  END
>  <UniqueID>  (16) 
15

>  <SMILES>  (16) 
O=Cc1cc([N-]S(=O)(=O)c2cccc(-c3cccc(CNCc4ccccc4)c3)c2)ccc1[O-]

>  <Energy>  (16) 
66.65217969393485

>  <Genealogy>  (16) 
O=Cc1cc([N-]S(=O)(=O)c2cccc(-c3cccc(CNCc4ccccc4)c3)c2)ccc1[O-] (protonated)
O=Cc1cc([N-]S(=O)(=O)c2cccc(-c3cccc(CNCc4ccccc4)c3)c2)ccc1[O-] (3D coordinates assigned)
O=Cc1cc([N-]S(=O)(=O)c2cccc(-c3cccc(CNCc4ccccc4)c3)c2)ccc1[O-] (optimized conformer: 66.65217969393485 kcal/mol)

>  <smiles>  (16) 
O=Cc1cc(NS(=O)(=O)c2cccc(-c3cccc(CNCc4ccccc4)c3)c2)ccc1O

>  <score_type>  (16) 
oracle

>  <origin>  (16) 
adg

>  <m_score__min__energy>  (16) 
-14.93

>  <m_primary>  (16) 
energy

$$$$
16:0
     RDKit          3D

 33 34  0  0  0  0  0  0  0  0999 V2000
   57.3760   31.8210   44.9110 C   0  0  0  0  0  0  0  0  0  0  0  0
   56.8020   30.4660   44.8620 N   0  0  0  0  0  0  0  0  0  0  0  0
   56.2710   30.2010   43.5120 C   0  0  0  0  0  0  0  0  0  0  0  0
   57.8270   29.4680   45.2280 C   0  0  0  0  0  0  0  0  0  0  0  0
   57.1790   28.1890   45.6730 C   0  0  0  0  0  0  0  0  0  0  0  0
   55.9090   27.8530   45.3840 N   0  0  0  0  0  0  0  0  0  0  0  0
   55.7570   26.6610   45.9990 C   0  0  0  0  0  0  0  0  0  0  0  0
   54.6800   26.0100   45.9600 O   0  0  0  0  0  0  0  0  0  0  0  0
   56.8470   26.2230   46.6610 N   0  0  0  0  0  0  0  0  0  0  0  0
   57.7460   27.2020   46.4560 C   0  0  0  0  0  0  0  0  0  0  0  0
   59.1400   27.1820   46.9970 C   0  0  0  0  0  0  0  0  0  0  0  0
   59.2200   28.0480   48.1260 O   0  0  0  0  0  0  0  0  0  0  0  0
   59.5650   29.4060   48.0610 C   0  0  0  0  0  0  0  0  0  0  0  0
   60.6130   29.7860   47.2110 C   0  0  0  0  0  0  0  0  0  0  0  0
   60.9950   31.1280   47.1130 C   0  0  0  0  0  0  0  0  0  0  0  0
   60.3330   32.1000   47.8660 C   0  0  0  0  0  0  0  0  0  0  0  0
   59.2850   31.7330   48.7140 C   0  0  0  0  0  0  0  0  0  0  0  0
   58.8990   30.3930   48.8140 C   0  0  0  0  0  0  0  0  0  0  0  0
   57.5055   32.1267   45.9597 H   0  0  0  0  0  0  0  0  0  0  0  0
   58.3527   31.8240   44.4049 H   0  0  0  0  0  0  0  0  0  0  0  0
   56.6987   32.5247   44.4049 H   0  0  0  0  0  0  0  0  0  0  0  0
   55.2895   29.7112   43.5937 H   0  0  0  0  0  0  0  0  0  0  0  0
   56.1627   31.1507   42.9677 H   0  0  0  0  0  0  0  0  0  0  0  0
   56.9648   29.5435   42.9677 H   0  0  0  0  0  0  0  0  0  0  0  0
   58.4643   29.2663   44.3544 H   0  0  0  0  0  0  0  0  0  0  0  0
   58.4330   29.8667   46.0549 H   0  0  0  0  0  0  0  0  0  0  0  0
   59.4016   26.1576   47.3005 H   0  0  0  0  0  0  0  0  0  0  0  0
   59.8411   27.5228   46.2210 H   0  0  0  0  0  0  0  0  0  0  0  0
   61.1385   29.0237   46.6171 H   0  0  0  0  0  0  0  0  0  0  0  0
   61.8173   31.4179   46.4424 H   0  0  0  0  0  0  0  0  0  0  0  0
   60.6366   33.1546   47.7915 H   0  0  0  0  0  0  0  0  0  0  0  0
   58.7624   32.5001   49.3043 H   0  0  0  0  0  0  0  0  0  0  0  0
   58.0730   30.1086   49.4825 H   0  0  0  0  0  0  0  0  0  0  0  0
  1  2  1  0
  2  3  1  0
  2  4  1  0
  4  5  1  0
  5  6  1  0
  6  7  1  0
  7  8  2  0
  7  9  1  0
  9 10  1  0
 10 11  1  0
 11 12  1  0
 12 13  1  0
 13 14  2  0
 14 15  1  0
 15 16  2  0
 16 17  1  0
 17 18  2  0
 10  5  2  0
 18 13  1  0
  1 19  1  0
  1 20  1  0
  1 21  1  0
  3 22  1  0
  3 23  1  0
  3 24  1  0
  4 25  1  0
  4 26  1  0
 11 27  1  0
 11 28  1  0
 14 29  1  0
 15 30  1  0
 16 31  1  0
 17 32  1  0
 18 33  1  0
M  CHG  2   6  -1   9  -1
M  END
>  <UniqueID>  (17) 
16

>  <SMILES>  (17) 
CN(C)Cc1[n-]c(=O)[n-]c1COc1ccccc1

>  <Energy>  (17) 
58.39436429819656

>  <Genealogy>  (17) 
CN(C)Cc1[n-]c(=O)[n-]c1COc1ccccc1 (protonated)
CN(C)Cc1[n-]c(=O)[n-]c1COc1ccccc1 (3D coordinates assigned)
CN(C)Cc1[n-]c(=O)[n-]c1COc1ccccc1 (optimized conformer: 58.39436429819656 kcal/mol)

>  <smiles>  (17) 
CN(C)Cc1[nH]c(=O)[nH]c1COc1ccccc1

>  <score_type>  (17) 
oracle

>  <origin>  (17) 
adg

>  <m_score__min__energy>  (17) 
-10.029999999999999

>  <m_primary>  (17) 
energy

$$$$
17:0
     RDKit          3D

 41 43  0  0  0  0  0  0  0  0999 V2000
   62.4610   33.5640   46.8110 C   0  0  0  0  0  0  0  0  0  0  0  0
   61.1330   33.9840   47.1100 O   0  0  0  0  0  0  0  0  0  0  0  0
   59.9790   33.4300   46.5350 C   0  0  0  0  0  0  0  0  0  0  0  0
   59.3120   32.4130   47.2270 C   0  0  0  0  0  0  0  0  0  0  0  0
   58.1590   31.8280   46.6960 C   0  0  0  0  0  0  0  0  0  0  0  0
   57.6560   32.2560   45.4560 C   0  0  0  0  0  0  0  0  0  0  0  0
   56.4750   31.6870   44.8730 N   0  0  0  0  0  0  0  0  0  0  0  0
   56.3430   30.0720   44.2560 S   0  0  0  0  0  0  0  0  0  0  0  0
   55.1430   29.3890   44.8500 O   0  0  0  0  0  0  0  0  0  0  0  0
   56.2100   30.1250   42.7590 O   0  0  0  0  0  0  0  0  0  0  0  0
   57.7910   29.1780   44.6990 C   0  0  0  0  0  0  0  0  0  0  0  0
   59.0620   29.7520   44.5530 C   0  0  0  0  0  0  0  0  0  0  0  0
   60.2030   29.0270   44.9070 C   0  0  0  0  0  0  0  0  0  0  0  0
   60.0830   27.7310   45.4130 C   0  0  0  0  0  0  0  0  0  0  0  0
   58.8130   27.1530   45.5800 C   0  0  0  0  0  0  0  0  0  0  0  0
   58.6560   25.8150   46.0740 N   0  0  0  0  0  0  0  0  0  0  0  0
   57.4730   25.2730   46.6760 C   0  0  0  0  0  0  0  0  0  0  0  0
   57.3740   25.2910   47.9330 O   0  0  0  0  0  0  0  0  0  0  0  0
   56.4170   24.6270   45.8670 C   0  0  0  0  0  0  0  0  0  0  0  0
   56.7380   23.6800   44.8820 C   0  0  0  0  0  0  0  0  0  0  0  0
   55.7040   23.1180   44.1300 C   0  0  0  0  0  0  0  0  0  0  0  0
   55.9590   22.2650   43.2400 O   0  0  0  0  0  0  0  0  0  0  0  0
   54.4190   23.4930   44.3590 N   0  0  0  0  0  0  0  0  0  0  0  0
   54.1220   24.4150   45.3100 C   0  0  0  0  0  0  0  0  0  0  0  0
   52.9250   24.7520   45.5070 O   0  0  0  0  0  0  0  0  0  0  0  0
   55.1130   24.9740   46.0490 N   0  0  0  0  0  0  0  0  0  0  0  0
   57.6740   27.8730   45.2000 C   0  0  0  0  0  0  0  0  0  0  0  0
   58.3210   33.2740   44.7620 C   0  0  0  0  0  0  0  0  0  0  0  0
   59.4740   33.8610   45.2930 C   0  0  0  0  0  0  0  0  0  0  0  0
   63.0103   33.3903   47.7480 H   0  0  0  0  0  0  0  0  0  0  0  0
   62.4282   32.6324   46.2270 H   0  0  0  0  0  0  0  0  0  0  0  0
   62.9699   34.3451   46.2270 H   0  0  0  0  0  0  0  0  0  0  0  0
   59.6988   32.0706   48.1982 H   0  0  0  0  0  0  0  0  0  0  0  0
   57.6438   31.0300   47.2507 H   0  0  0  0  0  0  0  0  0  0  0  0
   59.1610   30.7743   44.1593 H   0  0  0  0  0  0  0  0  0  0  0  0
   61.1988   29.4786   44.7867 H   0  0  0  0  0  0  0  0  0  0  0  0
   60.9848   27.1612   45.6815 H   0  0  0  0  0  0  0  0  0  0  0  0
   57.7833   23.3863   44.7058 H   0  0  0  0  0  0  0  0  0  0  0  0
   56.6799   27.4119   45.2950 H   0  0  0  0  0  0  0  0  0  0  0  0
   57.9333   33.6151   43.7907 H   0  0  0  0  0  0  0  0  0  0  0  0
   59.9875   34.6610   44.7394 H   0  0  0  0  0  0  0  0  0  0  0  0
  1  2  1  0
  2  3  1  0
  3  4  2  0
  4  5  1  0
  5  6  2  0
  6  7  1  0
  7  8  1  0
  8  9  2  0
  8 10  2  0
  8 11  1  0
 11 12  2  0
 12 13  1  0
 13 14  2  0
 14 15  1  0
 15 16  1  0
 16 17  1  0
 17 18  2  0
 17 19  1  0
 19 20  2  0
 20 21  1  0
 21 22  2  0
 21 23  1  0
 23 24  1  0
 24 25  2  0
 24 26  1  0
 15 27  2  0
  6 28  1  0
 28 29  2  0
 29  3  1  0
 27 11  1  0
 26 19  1  0
  1 30  1  0
  1 31  1  0
  1 32  1  0
  4 33  1  0
  5 34  1  0
 12 35  1  0
 13 36  1  0
 14 37  1  0
 20 38  1  0
 27 39  1  0
 28 40  1  0
 29 41  1  0
M  CHG  4   7  -1  16  -1  23  -1  26  -1
M  END
>  <UniqueID>  (18) 
17

>  <SMILES>  (18) 
COc1ccc([N-]S(=O)(=O)c2cccc([N-]C(=O)c3cc(=O)[n-]c(=O)[n-]3)c2)cc1

>  <Energy>  (18) 
54.21201120819741

>  <Genealogy>  (18) 
COc1ccc([N-]S(=O)(=O)c2cccc([N-]C(=O)c3cc(=O)[n-]c(=O)[n-]3)c2)cc1 (protonated)
COc1ccc([N-]S(=O)(=O)c2cccc([N-]C(=O)c3cc(=O)[n-]c(=O)[n-]3)c2)cc1 (3D coordinates assigned)
COc1ccc([N-]S(=O)(=O)c2cccc([N-]C(=O)c3cc(=O)[n-]c(=O)[n-]3)c2)cc1 (optimized conformer: 54.21201120819741 kcal/mol)

>  <smiles>  (18) 
COc1ccc(NS(=O)(=O)c2cccc(NC(=O)c3cc(=O)[nH]c(=O)[nH]3)c2)cc1

>  <score_type>  (18) 
oracle

>  <origin>  (18) 
adg

>  <m_score__min__energy>  (18) 
-15.15

>  <m_primary>  (18) 
energy

$$$$
18:0
     RDKit          3D

 42 43  0  0  0  0  0  0  0  0999 V2000
   57.5500   29.6810   46.6900 O   0  0  0  0  0  0  0  0  0  0  0  0
   57.0200   29.4080   45.5770 C   0  0  0  0  0  0  0  0  0  0  0  0
   56.6950   28.0540   45.2420 N   0  0  0  0  0  0  0  0  0  0  0  0
   57.1140   26.9070   46.0530 C   0  0  2  0  0  0  0  0  0  0  0  0
   58.2180   26.1190   45.3360 C   0  0  0  0  0  0  0  0  0  0  0  0
   59.7960   26.2380   46.2600 S   0  0  0  0  0  0  0  0  0  0  0  0
   60.3000   27.8550   45.5790 C   0  0  0  0  0  0  0  0  0  0  0  0
   60.3360   28.8810   46.6740 C   0  0  0  0  0  0  0  0  0  0  0  0
   60.7340   30.2000   46.4020 C   0  0  0  0  0  0  0  0  0  0  0  0
   60.7660   31.1510   47.4250 C   0  0  0  0  0  0  0  0  0  0  0  0
   60.3810   30.7980   48.7220 C   0  0  0  0  0  0  0  0  0  0  0  0
   59.9720   29.4910   48.9990 C   0  0  0  0  0  0  0  0  0  0  0  0
   59.9480   28.5330   47.9790 C   0  0  0  0  0  0  0  0  0  0  0  0
   55.9340   26.0230   46.3300 C   0  0  0  0  0  0  0  0  0  0  0  0
   54.7850   26.3440   45.9220 O   0  0  0  0  0  0  0  0  0  0  0  0
   56.1060   24.8290   47.0180 O   0  0  0  0  0  0  0  0  0  0  0  0
   56.7380   30.4270   44.6600 O   0  0  0  0  0  0  0  0  0  0  0  0
   57.7460   31.1920   44.0020 C   0  0  0  0  0  0  0  0  0  0  0  0
   58.1190   32.3960   44.8260 C   0  0  0  0  0  0  0  0  0  0  0  0
   57.8110   32.4480   46.1960 C   0  0  0  0  0  0  0  0  0  0  0  0
   58.1880   33.5580   46.9610 C   0  0  0  0  0  0  0  0  0  0  0  0
   58.8740   34.6180   46.3650 C   0  0  0  0  0  0  0  0  0  0  0  0
   59.1850   34.5730   45.0030 C   0  0  0  0  0  0  0  0  0  0  0  0
   58.8140   33.4630   44.2360 C   0  0  0  0  0  0  0  0  0  0  0  0
   56.1560   27.8820   44.3630 H   0  0  0  0  0  0  0  0  0  0  0  0
   57.5173   27.2733   47.0086 H   0  0  0  0  0  0  0  0  0  0  0  0
   57.9199   25.0627   45.2635 H   0  0  0  0  0  0  0  0  0  0  0  0
   58.3617   26.5426   44.3310 H   0  0  0  0  0  0  0  0  0  0  0  0
   61.3000   27.7659   45.1295 H   0  0  0  0  0  0  0  0  0  0  0  0
   59.5749   28.1676   44.8131 H   0  0  0  0  0  0  0  0  0  0  0  0
   61.0217   30.4856   45.3794 H   0  0  0  0  0  0  0  0  0  0  0  0
   61.0944   32.1785   47.2098 H   0  0  0  0  0  0  0  0  0  0  0  0
   60.4001   31.5497   49.5248 H   0  0  0  0  0  0  0  0  0  0  0  0
   59.6686   29.2148   50.0196 H   0  0  0  0  0  0  0  0  0  0  0  0
   59.6246   27.5050   48.1994 H   0  0  0  0  0  0  0  0  0  0  0  0
   58.6374   30.5646   43.8542 H   0  0  0  0  0  0  0  0  0  0  0  0
   57.3560   31.5330   43.0316 H   0  0  0  0  0  0  0  0  0  0  0  0
   57.2719   31.6138   46.6688 H   0  0  0  0  0  0  0  0  0  0  0  0
   57.9435   33.5952   48.0328 H   0  0  0  0  0  0  0  0  0  0  0  0
   59.1700   35.4892   46.9678 H   0  0  0  0  0  0  0  0  0  0  0  0
   59.7217   35.4107   44.5338 H   0  0  0  0  0  0  0  0  0  0  0  0
   59.0681   33.4266   43.1664 H   0  0  0  0  0  0  0  0  0  0  0  0
  1  2  2  0
  2  3  1  0
  3  4  1  0
  4  5  1  0
  5  6  1  0
  6  7  1  0
  7  8  1  0
  8  9  2  0
  9 10  1  0
 10 11  2  0
 11 12  1  0
 12 13  2  0
  4 14  1  0
 14 15  2  0
 14 16  1  0
  2 17  1  0
 17 18  1  0
 18 19  1  0
 19 20  2  0
 20 21  1  0
 21 22  2  0
 22 23  1  0
 23 24  2  0
 13  8  1  0
 24 19  1  0
  3 25  1  0
  4 26  1  1
  5 27  1  0
  5 28  1  0
  7 29  1  0
  7 30  1  0
  9 31  1  0
 10 32  1  0
 11 33  1  0
 12 34  1  0
 13 35  1  0
 18 36  1  0
 18 37  1  0
 20 38  1  0
 21 39  1  0
 22 40  1  0
 23 41  1  0
 24 42  1  0
M  CHG  1  16  -1
M  END
>  <UniqueID>  (19) 
18

>  <SMILES>  (19) 
O=C(N[C@H](CSCc1ccccc1)C(=O)[O-])OCc1ccccc1

>  <Energy>  (19) 
31.51647096945692

>  <Genealogy>  (19) 
O=C(NC(CSCc1ccccc1)C(=O)[O-])OCc1ccccc1 (protonated)
O=C(N[C@H](CSCc1ccccc1)C(=O)[O-])OCc1ccccc1 (chirality)
O=C(N[C@H](CSCc1ccccc1)C(=O)[O-])OCc1ccccc1 (3D coordinates assigned)
O=C(N[C@H](CSCc1ccccc1)C(=O)[O-])OCc1ccccc1 (optimized conformer: 31.51647096945692 kcal/mol)

>  <smiles>  (19) 
O=C(NC(CSCc1ccccc1)C(=O)O)OCc1ccccc1

>  <score_type>  (19) 
oracle

>  <origin>  (19) 
adg

>  <m_score__min__energy>  (19) 
-10.789999999999999

>  <m_primary>  (19) 
energy

$$$$
19:0
     RDKit          3D

 38 40  0  0  0  0  0  0  0  0999 V2000
   56.6260   19.6320   50.5910 N   0  0  0  0  0  0  0  0  0  0  0  0
   57.1890   20.6780   49.3360 S   0  0  0  0  0  0  0  0  0  0  0  0
   57.8140   21.9010   49.9470 O   0  0  0  0  0  0  0  0  0  0  0  0
   58.2270   19.9650   48.5150 O   0  0  0  0  0  0  0  0  0  0  0  0
   55.8360   21.1470   48.3110 C   0  0  0  0  0  0  0  0  0  0  0  0
   55.5410   20.4120   47.1560 C   0  0  0  0  0  0  0  0  0  0  0  0
   54.4590   20.7750   46.3480 C   0  0  0  0  0  0  0  0  0  0  0  0
   53.6710   21.8850   46.6770 C   0  0  0  0  0  0  0  0  0  0  0  0
   52.5520   22.2120   45.8430 N   0  0  0  0  0  0  0  0  0  0  0  0
   52.2830   23.4850   45.2390 C   0  0  0  0  0  0  0  0  0  0  0  0
   51.2650   24.1290   45.6090 O   0  0  0  0  0  0  0  0  0  0  0  0
   53.1540   24.0490   44.1500 C   0  0  0  0  0  0  0  0  0  0  0  0
   54.5250   24.2170   44.6330 N   0  0  0  0  0  0  0  0  0  0  0  0
   55.5720   23.3940   44.4110 C   0  0  0  0  0  0  0  0  0  0  0  0
   55.5180   22.2500   43.6250 O   0  0  0  0  0  0  0  0  0  0  0  0
   56.6890   23.8460   45.0860 C   0  0  0  0  0  0  0  0  0  0  0  0
   56.3080   24.9810   45.7570 C   0  0  0  0  0  0  0  0  0  0  0  0
   54.9720   25.1810   45.4680 C   0  0  0  0  0  0  0  0  0  0  0  0
   54.1850   26.2110   45.9680 O   0  0  0  0  0  0  0  0  0  0  0  0
   57.2100   25.7710   46.6500 C   0  0  0  0  0  0  0  0  0  0  0  0
   58.6200   25.2160   46.6550 C   0  0  0  0  0  0  0  0  0  0  0  0
   58.9960   24.0980   45.9940 C   0  0  0  0  0  0  0  0  0  0  0  0
   58.0580   23.2500   45.1580 C   0  0  0  0  0  0  0  0  0  0  0  0
   53.9470   22.6000   47.8550 C   0  0  0  0  0  0  0  0  0  0  0  0
   55.0280   22.2360   48.6640 C   0  0  0  0  0  0  0  0  0  0  0  0
   57.4720   19.2340   51.0580 H   0  0  0  0  0  0  0  0  0  0  0  0
   56.1625   19.5463   46.8835 H   0  0  0  0  0  0  0  0  0  0  0  0
   54.2255   20.1855   45.4491 H   0  0  0  0  0  0  0  0  0  0  0  0
   53.1533   23.3610   43.2917 H   0  0  0  0  0  0  0  0  0  0  0  0
   52.7584   25.0296   43.8468 H   0  0  0  0  0  0  0  0  0  0  0  0
   57.2381   26.8125   46.2971 H   0  0  0  0  0  0  0  0  0  0  0  0
   56.8148   25.7126   47.6749 H   0  0  0  0  0  0  0  0  0  0  0  0
   59.3850   25.7561   47.2321 H   0  0  0  0  0  0  0  0  0  0  0  0
   60.0478   23.7844   46.0675 H   0  0  0  0  0  0  0  0  0  0  0  0
   58.4647   23.1673   44.1393 H   0  0  0  0  0  0  0  0  0  0  0  0
   57.9765   22.2606   45.6317 H   0  0  0  0  0  0  0  0  0  0  0  0
   53.3100   23.4496   48.1419 H   0  0  0  0  0  0  0  0  0  0  0  0
   55.2445   22.8059   49.5796 H   0  0  0  0  0  0  0  0  0  0  0  0
  1  2  1  0
  2  3  2  0
  2  4  2  0
  2  5  1  0
  5  6  2  0
  6  7  1  0
  7  8  2  0
  8  9  1  0
  9 10  1  0
 10 11  2  0
 10 12  1  0
 12 13  1  0
 13 14  1  0
 14 15  1  0
 14 16  2  0
 16 17  1  0
 17 18  2  0
 18 19  1  0
 17 20  1  0
 20 21  1  0
 21 22  2  0
 22 23  1  0
  8 24  1  0
 24 25  2  0
 25  5  1  0
 18 13  1  0
 23 16  1  0
  1 26  1  0
  6 27  1  0
  7 28  1  0
 12 29  1  0
 12 30  1  0
 20 31  1  0
 20 32  1  0
 21 33  1  0
 22 34  1  0
 23 35  1  0
 23 36  1  0
 24 37  1  0
 25 38  1  0
M  CHG  4   1  -1   9  -1  15  -1  19  -1
M  END
>  <UniqueID>  (20) 
19

>  <SMILES>  (20) 
[NH-]S(=O)(=O)c1ccc([N-]C(=O)Cn2c([O-])c3c(c2[O-])CC=CC3)cc1

>  <Energy>  (20) 
75.87035409662458

>  <Genealogy>  (20) 
[NH-]S(=O)(=O)c1ccc([N-]C(=O)Cn2c([O-])c3c(c2[O-])CC=CC3)cc1 (protonated)
[NH-]S(=O)(=O)c1ccc([N-]C(=O)Cn2c([O-])c3c(c2[O-])CC=CC3)cc1 (3D coordinates assigned)
[NH-]S(=O)(=O)c1ccc([N-]C(=O)Cn2c([O-])c3c(c2[O-])CC=CC3)cc1 (nonaromatic ring conformer: 75.87035409662458 kcal/mol)

>  <smiles>  (20) 
NS(=O)(=O)c1ccc(NC(=O)Cn2c(O)c3c(c2O)CC=CC3)cc1

>  <score_type>  (20) 
oracle

>  <origin>  (20) 
adg

>  <m_score__min__energy>  (20) 
-14.050000000000001

>  <m_primary>  (20) 
energy

$$$$
20:0
     RDKit          3D

 45 47  0  0  1  0  0  0  0  0999 V2000
   55.9310   29.1140   45.4780 O   0  0  0  0  0  0  0  0  0  0  0  0
   57.0120   28.6090   44.7400 C   0  0  1  0  0  0  0  0  0  0  0  0
   57.0430   29.2600   43.3510 C   0  0  0  0  0  0  0  0  0  0  0  0
   56.4790   30.5900   43.5400 N   0  0  0  0  0  0  0  0  0  0  0  0
   57.2020   31.5230   44.0410 C   0  0  0  0  0  0  0  0  0  0  0  0
   57.4370   31.6700   45.3590 N   0  0  0  0  0  0  0  0  0  0  0  0
   58.1980   32.6580   45.8440 C   0  0  0  0  0  0  0  0  0  0  0  0
   58.4310   32.8050   47.1180 N   0  0  0  0  0  0  0  0  0  0  0  0
   59.7720   33.0810   47.5680 C   0  0  0  0  0  0  0  0  0  0  0  0
   60.8130   32.4360   46.9010 C   0  0  0  0  0  0  0  0  0  0  0  0
   62.0950   32.7070   47.3390 C   0  0  0  0  0  0  0  0  0  0  0  0
   62.3560   33.5750   48.3900 C   0  0  0  0  0  0  0  0  0  0  0  0
   63.6830   33.7680   48.7400 O   0  0  0  0  0  0  0  0  0  0  0  0
   64.4200   32.9840   49.6280 C   0  0  0  0  0  0  0  0  0  0  0  0
   63.9730   31.6650   49.4720 F   0  0  0  0  0  0  0  0  0  0  0  0
   64.1530   33.2860   50.9630 F   0  0  0  0  0  0  0  0  0  0  0  0
   65.7720   33.0080   49.4130 F   0  0  0  0  0  0  0  0  0  0  0  0
   61.3080   34.2090   49.0430 C   0  0  0  0  0  0  0  0  0  0  0  0
   60.0050   33.9480   48.6150 C   0  0  0  0  0  0  0  0  0  0  0  0
   58.7920   33.5890   45.0480 N   0  0  0  0  0  0  0  0  0  0  0  0
   58.5740   33.4720   43.7080 C   0  0  0  0  0  0  0  0  0  0  0  0
   57.7940   32.4590   43.2030 C   0  0  0  0  0  0  0  0  0  0  0  0
   57.5230   32.3400   41.3220 Br  0  0  0  0  0  0  0  0  0  0  0  0
   58.3020   28.7840   45.4570 C   0  0  0  0  0  0  0  0  0  0  0  0
   58.3700   28.8270   46.8350 C   0  0  0  0  0  0  0  0  0  0  0  0
   59.5840   28.9920   47.5100 C   0  0  0  0  0  0  0  0  0  0  0  0
   60.7460   29.1150   46.7730 C   0  0  0  0  0  0  0  0  0  0  0  0
   60.7040   29.0750   45.3940 C   0  0  0  0  0  0  0  0  0  0  0  0
   59.4820   28.9090   44.7360 C   0  0  0  0  0  0  0  0  0  0  0  0
   55.9630   30.0900   45.6000 H   0  0  0  0  0  0  0  0  0  0  0  0
   56.8706   27.5252   44.6160 H   0  0  0  0  0  0  0  0  0  0  0  0
   58.0763   29.3283   42.9800 H   0  0  0  0  0  0  0  0  0  0  0  0
   56.4780   28.6753   42.6101 H   0  0  0  0  0  0  0  0  0  0  0  0
   56.9970   30.9710   46.0190 H   0  0  0  0  0  0  0  0  0  0  0  0
   60.6227   31.7450   46.0666 H   0  0  0  0  0  0  0  0  0  0  0  0
   62.9410   32.2162   46.8356 H   0  0  0  0  0  0  0  0  0  0  0  0
   61.4994   34.9000   49.8772 H   0  0  0  0  0  0  0  0  0  0  0  0
   59.1575   34.4377   49.1168 H   0  0  0  0  0  0  0  0  0  0  0  0
   59.3820   34.3570   45.4200 H   0  0  0  0  0  0  0  0  0  0  0  0
   59.0292   34.1994   43.0198 H   0  0  0  0  0  0  0  0  0  0  0  0
   57.4430   28.7287   47.4190 H   0  0  0  0  0  0  0  0  0  0  0  0
   59.6130   29.0233   48.6092 H   0  0  0  0  0  0  0  0  0  0  0  0
   61.7094   29.2454   47.2877 H   0  0  0  0  0  0  0  0  0  0  0  0
   61.6325   29.1738   44.8126 H   0  0  0  0  0  0  0  0  0  0  0  0
   59.4549   28.8771   43.6368 H   0  0  0  0  0  0  0  0  0  0  0  0
  1  2  1  0
  2  3  1  0
  3  4  1  0
  4  5  2  0
  5  6  1  0
  6  7  1  0
  7  8  2  0
  8  9  1  0
  9 10  2  0
 10 11  1  0
 11 12  2  0
 12 13  1  0
 13 14  1  0
 14 15  1  0
 14 16  1  0
 14 17  1  0
 12 18  1  0
 18 19  2  0
  7 20  1  0
 20 21  1  0
 21 22  2  0
 22 23  1  0
  2 24  1  0
 24 25  2  0
 25 26  1  0
 26 27  2  0
 27 28  1  0
 28 29  2  0
 22  5  1  0
 29 24  1  0
 19  9  1  0
  1 30  1  0
  2 31  1  6
  3 32  1  0
  3 33  1  0
  6 34  1  0
 10 35  1  0
 11 36  1  0
 18 37  1  0
 19 38  1  0
 20 39  1  0
 21 40  1  0
 25 41  1  0
 26 42  1  0
 27 43  1  0
 28 44  1  0
 29 45  1  0
M  END
>  <smiles>  (21) 
OC(CN=c1[nH]c(=Nc2ccc(OC(F)(F)F)cc2)[nH]cc1Br)c1ccccc1

>  <score_type>  (21) 
oracle

>  <origin>  (21) 
adg

>  <m_score__min__energy>  (21) 
-8.6600000000000001

>  <m_primary>  (21) 
energy

$$$$
21:0
     RDKit          3D

 69 74  0  0  0  0  0  0  0  0999 V2000
   63.4040   32.7530   49.8710 C   0  0  0  0  0  0  0  0  0  0  0  0
   62.2390   32.3090   49.0840 N   0  0  0  0  0  0  0  0  0  0  0  0
   62.6590   32.0550   47.6930 C   0  0  0  0  0  0  0  0  0  0  0  0
   61.1650   33.3330   49.1570 C   0  0  0  0  0  0  0  0  0  0  0  0
   59.8010   32.7740   49.6130 C   0  0  0  0  0  0  0  0  0  0  0  0
   59.3710   31.5650   48.8120 C   0  0  0  0  0  0  0  0  0  0  0  0
   59.0320   31.5750   47.4540 C   0  0  0  0  0  0  0  0  0  0  0  0
   58.9080   32.7400   46.5600 C   0  0  0  0  0  0  0  0  0  0  0  0
   60.0150   33.5760   46.3340 C   0  0  0  0  0  0  0  0  0  0  0  0
   59.8970   34.6870   45.4940 C   0  0  0  0  0  0  0  0  0  0  0  0
   58.6790   34.9660   44.8680 C   0  0  0  0  0  0  0  0  0  0  0  0
   57.5780   34.1310   45.0770 C   0  0  0  0  0  0  0  0  0  0  0  0
   57.6920   33.0180   45.9160 C   0  0  0  0  0  0  0  0  0  0  0  0
   58.8320   30.2530   47.1080 C   0  0  0  0  0  0  0  0  0  0  0  0
   58.4550   29.6830   45.8910 C   0  0  0  0  0  0  0  0  0  0  0  0
   58.2990   28.2810   45.8320 C   0  0  0  0  0  0  0  0  0  0  0  0
   57.9190   27.6270   44.6470 C   0  0  0  0  0  0  0  0  0  0  0  0
   57.7030   28.2790   43.5900 O   0  0  0  0  0  0  0  0  0  0  0  0
   57.7750   26.2370   44.6350 C   0  0  0  0  0  0  0  0  0  0  0  0
   58.0110   25.4940   45.8060 C   0  0  0  0  0  0  0  0  0  0  0  0
   57.8610   24.0160   45.8360 C   0  0  0  0  0  0  0  0  0  0  0  0
   57.0240   23.4170   46.7960 C   0  0  0  0  0  0  0  0  0  0  0  0
   56.8780   22.0270   46.8430 C   0  0  0  0  0  0  0  0  0  0  0  0
   57.5710   21.2190   45.9390 C   0  0  0  0  0  0  0  0  0  0  0  0
   58.4160   21.7990   44.9900 C   0  0  0  0  0  0  0  0  0  0  0  0
   58.5640   23.1880   44.9370 C   0  0  0  0  0  0  0  0  0  0  0  0
   58.3670   26.1480   46.9470 N   0  0  0  0  0  0  0  0  0  0  0  0
   58.5180   27.4960   47.0000 C   0  0  0  0  0  0  0  0  0  0  0  0
   58.8900   28.1070   48.2120 C   0  0  0  0  0  0  0  0  0  0  0  0
   59.0380   29.4990   48.2360 C   0  0  0  0  0  0  0  0  0  0  0  0
   59.3720   30.2870   49.2850 N   0  0  0  0  0  0  0  0  0  0  0  0
   59.5880   29.8610   50.6760 C   0  0  0  0  0  0  0  0  0  0  0  0
   58.3330   30.0470   51.4920 C   0  0  0  0  0  0  0  0  0  0  0  0
   57.4640   31.1190   51.2260 C   0  0  0  0  0  0  0  0  0  0  0  0
   56.3010   31.2890   51.9820 C   0  0  0  0  0  0  0  0  0  0  0  0
   55.9920   30.3890   53.0050 C   0  0  0  0  0  0  0  0  0  0  0  0
   56.8440   29.3130   53.2700 C   0  0  0  0  0  0  0  0  0  0  0  0
   58.0080   29.1390   52.5160 C   0  0  0  0  0  0  0  0  0  0  0  0
   63.1764   32.6663   50.9437 H   0  0  0  0  0  0  0  0  0  0  0  0
   64.2722   32.1227   49.6282 H   0  0  0  0  0  0  0  0  0  0  0  0
   63.6325   33.8013   49.6282 H   0  0  0  0  0  0  0  0  0  0  0  0
   61.9080   31.4130   49.5070 H   0  0  0  0  0  0  0  0  0  0  0  0
   63.6003   31.4858   47.6923 H   0  0  0  0  0  0  0  0  0  0  0  0
   61.8802   31.4764   47.1747 H   0  0  0  0  0  0  0  0  0  0  0  0
   62.8097   33.0134   47.1747 H   0  0  0  0  0  0  0  0  0  0  0  0
   61.4761   34.1117   49.8690 H   0  0  0  0  0  0  0  0  0  0  0  0
   61.0262   33.7247   48.1385 H   0  0  0  0  0  0  0  0  0  0  0  0
   59.8742   32.4870   50.6724 H   0  0  0  0  0  0  0  0  0  0  0  0
   59.0491   33.5616   49.4572 H   0  0  0  0  0  0  0  0  0  0  0  0
   60.9770   33.3553   46.8196 H   0  0  0  0  0  0  0  0  0  0  0  0
   60.7640   35.3426   45.3254 H   0  0  0  0  0  0  0  0  0  0  0  0
   58.5869   35.8431   44.2106 H   0  0  0  0  0  0  0  0  0  0  0  0
   56.6208   34.3495   44.5811 H   0  0  0  0  0  0  0  0  0  0  0  0
   56.8258   32.3581   46.0719 H   0  0  0  0  0  0  0  0  0  0  0  0
   58.2842   30.3087   45.0025 H   0  0  0  0  0  0  0  0  0  0  0  0
   57.4769   25.7234   43.7091 H   0  0  0  0  0  0  0  0  0  0  0  0
   56.4803   24.0473   47.5151 H   0  0  0  0  0  0  0  0  0  0  0  0
   56.2163   21.5694   47.5932 H   0  0  0  0  0  0  0  0  0  0  0  0
   57.4514   20.1261   45.9743 H   0  0  0  0  0  0  0  0  0  0  0  0
   58.9663   21.1612   44.2826 H   0  0  0  0  0  0  0  0  0  0  0  0
   59.2333   23.6380   44.1890 H   0  0  0  0  0  0  0  0  0  0  0  0
   59.0602   27.5061   49.1175 H   0  0  0  0  0  0  0  0  0  0  0  0
   59.8724   28.7985   50.6881 H   0  0  0  0  0  0  0  0  0  0  0  0
   60.3885   30.4755   51.1136 H   0  0  0  0  0  0  0  0  0  0  0  0
   57.7004   31.8278   50.4187 H   0  0  0  0  0  0  0  0  0  0  0  0
   55.6276   32.1329   51.7713 H   0  0  0  0  0  0  0  0  0  0  0  0
   55.0784   30.5271   53.6018 H   0  0  0  0  0  0  0  0  0  0  0  0
   56.5981   28.6024   54.0728 H   0  0  0  0  0  0  0  0  0  0  0  0
   58.6731   28.2880   52.7244 H   0  0  0  0  0  0  0  0  0  0  0  0
  1  2  1  0
  2  3  1  0
  2  4  1  0
  4  5  1  0
  5  6  1  0
  6  7  2  0
  7  8  1  0
  8  9  2  0
  9 10  1  0
 10 11  2  0
 11 12  1  0
 12 13  2  0
  7 14  1  0
 14 15  2  0
 15 16  1  0
 16 17  1  0
 17 18  2  0
 17 19  1  0
 19 20  2  0
 20 21  1  0
 21 22  2  0
 22 23  1  0
 23 24  2  0
 24 25  1  0
 25 26  2  0
 20 27  1  0
 27 28  1  0
 28 29  1  0
 29 30  2  0
 30 31  1  0
 31 32  1  0
 32 33  1  0
 33 34  2  0
 34 35  1  0
 35 36  2  0
 36 37  1  0
 37 38  2  0
 31  6  1  0
 38 33  1  0
 13  8  1  0
 30 14  1  0
 28 16  2  0
 26 21  1  0
  1 39  1  0
  1 40  1  0
  1 41  1  0
  2 42  1  0
  3 43  1  0
  3 44  1  0
  3 45  1  0
  4 46  1  0
  4 47  1  0
  5 48  1  0
  5 49  1  0
  9 50  1  0
 10 51  1  0
 11 52  1  0
 12 53  1  0
 13 54  1  0
 15 55  1  0
 19 56  1  0
 22 57  1  0
 23 58  1  0
 24 59  1  0
 25 60  1  0
 26 61  1  0
 29 62  1  0
 32 63  1  0
 32 64  1  0
 34 65  1  0
 35 66  1  0
 36 67  1  0
 37 68  1  0
 38 69  1  0
M  CHG  2   2   1  27  -1
M  END
>  <UniqueID>  (22) 
20

>  <SMILES>  (22) 
C[NH+](C)CCc1c(-c2ccccc2)c2cc3c(=O)cc(-c4ccccc4)[n-]c3cc2n1Cc1ccccc1

>  <Energy>  (22) 
121.97287956521507

>  <Genealogy>  (22) 
C[NH+](C)CCc1c(-c2ccccc2)c2cc3c(=O)cc(-c4ccccc4)[n-]c3cc2n1Cc1ccccc1 (protonated)
C[NH+](C)CCc1c(-c2ccccc2)c2cc3c(=O)cc(-c4ccccc4)[n-]c3cc2n1Cc1ccccc1 (3D coordinates assigned)
C[NH+](C)CCc1c(-c2ccccc2)c2cc3c(=O)cc(-c4ccccc4)[n-]c3cc2n1Cc1ccccc1 (optimized conformer: 121.97287956521507 kcal/mol)

>  <smiles>  (22) 
CN(C)CCc1c(-c2ccccc2)c2cc3c(=O)cc(-c4ccccc4)[nH]c3cc2n1Cc1ccccc1

>  <score_type>  (22) 
oracle

>  <origin>  (22) 
adg

>  <m_score__min__energy>  (22) 
-9.4299999999999997

>  <m_primary>  (22) 
energy

$$$$
22:0
     RDKit          3D

 39 40  0  0  0  0  0  0  0  0999 V2000
   54.0570   24.8170   45.6270 C   0  0  0  0  0  0  0  0  0  0  0  0
   54.6840   26.0860   45.9640 N   0  0  0  0  0  0  0  0  0  0  0  0
   56.0820   26.2430   46.2320 C   0  0  0  0  0  0  0  0  0  0  0  0
   56.7020   25.3010   46.7940 O   0  0  0  0  0  0  0  0  0  0  0  0
   56.8160   27.4890   45.8210 C   0  0  0  0  0  0  0  0  0  0  0  0
   55.8930   28.4630   45.2410 N   0  0  0  0  0  0  0  0  0  0  0  0
   56.7520   29.5200   44.1630 S   0  0  0  0  0  0  0  0  0  0  0  0
   55.7890   30.4750   43.5140 O   0  0  0  0  0  0  0  0  0  0  0  0
   57.4060   28.7000   43.0870 O   0  0  0  0  0  0  0  0  0  0  0  0
   57.9930   30.4140   45.0400 C   0  0  0  0  0  0  0  0  0  0  0  0
   59.1240   29.7570   45.5400 C   0  0  0  0  0  0  0  0  0  0  0  0
   60.1160   30.4750   46.2140 C   0  0  0  0  0  0  0  0  0  0  0  0
   59.9960   31.8660   46.3900 C   0  0  0  0  0  0  0  0  0  0  0  0
   61.0400   32.6370   47.1090 C   0  0  0  0  0  0  0  0  0  0  0  0
   61.0410   33.8960   47.0370 O   0  0  0  0  0  0  0  0  0  0  0  0
   62.0780   31.9650   47.8420 N   0  0  0  0  0  0  0  0  0  0  0  0
   62.8620   32.5900   48.8730 C   0  0  0  0  0  0  0  0  0  0  0  0
   64.2440   32.3460   48.9950 C   0  0  0  0  0  0  0  0  0  0  0  0
   64.9870   32.9850   49.9920 C   0  0  0  0  0  0  0  0  0  0  0  0
   64.3640   33.8790   50.8670 C   0  0  0  0  0  0  0  0  0  0  0  0
   62.9980   34.1430   50.7410 C   0  0  0  0  0  0  0  0  0  0  0  0
   62.2510   33.5060   49.7440 C   0  0  0  0  0  0  0  0  0  0  0  0
   58.8540   32.5170   45.8890 C   0  0  0  0  0  0  0  0  0  0  0  0
   57.8650   31.7970   45.2140 C   0  0  0  0  0  0  0  0  0  0  0  0
   53.7926   24.2819   46.5510 H   0  0  0  0  0  0  0  0  0  0  0  0
   53.1470   25.0027   45.0376 H   0  0  0  0  0  0  0  0  0  0  0  0
   54.7574   24.2070   45.0376 H   0  0  0  0  0  0  0  0  0  0  0  0
   57.3000   27.9313   46.7043 H   0  0  0  0  0  0  0  0  0  0  0  0
   57.5707   27.2230   45.0663 H   0  0  0  0  0  0  0  0  0  0  0  0
   59.2323   28.6711   45.4018 H   0  0  0  0  0  0  0  0  0  0  0  0
   60.9971   29.9487   46.6098 H   0  0  0  0  0  0  0  0  0  0  0  0
   62.3550   31.0060   47.5340 H   0  0  0  0  0  0  0  0  0  0  0  0
   64.7405   31.6499   48.3030 H   0  0  0  0  0  0  0  0  0  0  0  0
   66.0642   32.7837   50.0879 H   0  0  0  0  0  0  0  0  0  0  0  0
   64.9494   34.3750   51.6552 H   0  0  0  0  0  0  0  0  0  0  0  0
   62.5095   34.8519   51.4258 H   0  0  0  0  0  0  0  0  0  0  0  0
   61.1777   33.7244   49.6419 H   0  0  0  0  0  0  0  0  0  0  0  0
   58.7387   33.6018   46.0298 H   0  0  0  0  0  0  0  0  0  0  0  0
   56.9818   32.3193   44.8175 H   0  0  0  0  0  0  0  0  0  0  0  0
  1  2  1  0
  2  3  1  0
  3  4  2  0
  3  5  1  0
  5  6  1  0
  6  7  1  0
  7  8  2  0
  7  9  2  0
  7 10  1  0
 10 11  2  0
 11 12  1  0
 12 13  2  0
 13 14  1  0
 14 15  2  0
 14 16  1  0
 16 17  1  0
 17 18  2  0
 18 19  1  0
 19 20  2  0
 20 21  1  0
 21 22  2  0
 13 23  1  0
 23 24  2  0
 24 10  1  0
 22 17  1  0
  1 25  1  0
  1 26  1  0
  1 27  1  0
  5 28  1  0
  5 29  1  0
 11 30  1  0
 12 31  1  0
 16 32  1  0
 18 33  1  0
 19 34  1  0
 20 35  1  0
 21 36  1  0
 22 37  1  0
 23 38  1  0
 24 39  1  0
M  CHG  2   2  -1   6  -1
M  END
>  <UniqueID>  (23) 
21

>  <SMILES>  (23) 
C[N-]C(=O)C[N-]S(=O)(=O)c1ccc(C(=O)Nc2ccccc2)cc1

>  <Energy>  (23) 
40.38291164027227

>  <Genealogy>  (23) 
C[N-]C(=O)C[N-]S(=O)(=O)c1ccc(C(=O)Nc2ccccc2)cc1 (protonated)
C[N-]C(=O)C[N-]S(=O)(=O)c1ccc(C(=O)Nc2ccccc2)cc1 (3D coordinates assigned)
C[N-]C(=O)C[N-]S(=O)(=O)c1ccc(C(=O)Nc2ccccc2)cc1 (optimized conformer: 40.38291164027227 kcal/mol)

>  <smiles>  (23) 
CNC(=O)CNS(=O)(=O)c1ccc(C(=O)Nc2ccccc2)cc1

>  <score_type>  (23) 
oracle

>  <origin>  (23) 
adg

>  <m_score__min__energy>  (23) 
-11.56

>  <m_primary>  (23) 
energy

$$$$
23:0
     RDKit          3D

 66 69  0  0  0  0  0  0  0  0999 V2000
   59.9750   36.1710   45.6310 C   0  0  0  0  0  0  0  0  0  0  0  0
   59.6120   34.7520   45.7560 N   0  0  0  0  0  0  0  0  0  0  0  0
   58.8040   34.5470   46.9820 C   0  0  0  0  0  0  0  0  0  0  0  0
   58.5780   33.0470   47.2350 C   0  0  0  0  0  0  0  0  0  0  0  0
   58.0970   32.3800   45.9840 C   0  0  0  0  0  0  0  0  0  0  0  0
   57.4050   31.2120   45.9780 N   0  0  0  0  0  0  0  0  0  0  0  0
   57.0560   30.8500   44.7210 C   0  0  0  0  0  0  0  0  0  0  0  0
   56.2330   29.6650   44.4330 C   0  0  0  0  0  0  0  0  0  0  0  0
   55.4120   29.7080   43.4810 O   0  0  0  0  0  0  0  0  0  0  0  0
   56.3110   28.4730   45.2220 N   0  0  0  0  0  0  0  0  0  0  0  0
   57.4950   27.9170   45.8130 C   0  0  0  0  0  0  0  0  0  0  0  0
   57.8710   26.6120   45.4700 C   0  0  0  0  0  0  0  0  0  0  0  0
   59.0200   26.0410   46.0220 C   0  0  0  0  0  0  0  0  0  0  0  0
   59.8060   26.7710   46.9170 C   0  0  0  0  0  0  0  0  0  0  0  0
   59.4530   28.0850   47.2590 C   0  0  0  0  0  0  0  0  0  0  0  0
   60.3150   28.8650   48.2170 C   0  0  0  0  0  0  0  0  0  0  0  0
   60.1460   30.3190   47.9970 N   0  0  0  0  0  0  0  0  0  0  0  0
   60.8840   30.8180   46.8050 C   0  0  0  0  0  0  0  0  0  0  0  0
   61.9100   31.9190   47.1170 C   0  0  0  0  0  0  0  0  0  0  0  0
   62.7450   31.5270   48.3430 C   0  0  0  0  0  0  0  0  0  0  0  0
   63.7980   32.5640   48.6350 C   0  0  0  0  0  0  0  0  0  0  0  0
   63.6220   33.7590   48.2700 O   0  0  0  0  0  0  0  0  0  0  0  0
   64.9720   32.1870   49.3670 N   0  0  0  0  0  0  0  0  0  0  0  0
   65.3910   32.7010   50.6760 C   0  0  0  0  0  0  0  0  0  0  0  0
   66.7950   33.3260   50.5800 C   0  0  0  0  0  0  0  0  0  0  0  0
   65.4360   31.5170   51.6540 C   0  0  0  0  0  0  0  0  0  0  0  0
   64.3760   33.7390   51.1920 C   0  0  0  0  0  0  0  0  0  0  0  0
   61.8540   31.2790   49.5840 C   0  0  0  0  0  0  0  0  0  0  0  0
   60.3620   31.1150   49.2300 C   0  0  0  0  0  0  0  0  0  0  0  0
   58.3130   28.6660   46.6820 C   0  0  0  0  0  0  0  0  0  0  0  0
   57.6050   31.9650   43.5750 S   0  0  0  0  0  0  0  0  0  0  0  0
   58.3410   32.9300   44.7350 C   0  0  0  0  0  0  0  0  0  0  0  0
   58.8700   34.3150   44.5500 C   0  0  0  0  0  0  0  0  0  0  0  0
   60.0874   36.6104   46.6332 H   0  0  0  0  0  0  0  0  0  0  0  0
   60.9247   36.2596   45.0832 H   0  0  0  0  0  0  0  0  0  0  0  0
   59.1845   36.7048   45.0832 H   0  0  0  0  0  0  0  0  0  0  0  0
   59.3339   34.9831   47.8417 H   0  0  0  0  0  0  0  0  0  0  0  0
   57.8276   35.0361   46.8499 H   0  0  0  0  0  0  0  0  0  0  0  0
   59.5245   32.5851   47.5525 H   0  0  0  0  0  0  0  0  0  0  0  0
   57.8191   32.9254   48.0220 H   0  0  0  0  0  0  0  0  0  0  0  0
   57.2584   26.0340   44.7624 H   0  0  0  0  0  0  0  0  0  0  0  0
   59.3067   25.0141   45.7514 H   0  0  0  0  0  0  0  0  0  0  0  0
   60.7053   26.3137   47.3553 H   0  0  0  0  0  0  0  0  0  0  0  0
   60.0246   28.6184   49.2489 H   0  0  0  0  0  0  0  0  0  0  0  0
   61.3686   28.5986   48.0468 H   0  0  0  0  0  0  0  0  0  0  0  0
   61.4154   29.9702   46.3480 H   0  0  0  0  0  0  0  0  0  0  0  0
   60.1359   31.2632   46.1326 H   0  0  0  0  0  0  0  0  0  0  0  0
   62.5751   32.0529   46.2511 H   0  0  0  0  0  0  0  0  0  0  0  0
   61.3781   32.8584   47.3281 H   0  0  0  0  0  0  0  0  0  0  0  0
   63.2533   30.5808   48.1056 H   0  0  0  0  0  0  0  0  0  0  0  0
   67.1884   33.5011   51.5922 H   0  0  0  0  0  0  0  0  0  0  0  0
   67.4650   32.6412   50.0396 H   0  0  0  0  0  0  0  0  0  0  0  0
   66.7345   34.2822   50.0396 H   0  0  0  0  0  0  0  0  0  0  0  0
   65.4217   31.8941   52.6872 H   0  0  0  0  0  0  0  0  0  0  0  0
   64.5618   30.8705   51.4875 H   0  0  0  0  0  0  0  0  0  0  0  0
   66.3568   30.9387   51.4875 H   0  0  0  0  0  0  0  0  0  0  0  0
   64.3773   33.7377   52.2920 H   0  0  0  0  0  0  0  0  0  0  0  0
   64.6552   34.7381   50.8262 H   0  0  0  0  0  0  0  0  0  0  0  0
   63.3709   33.4823   50.8262 H   0  0  0  0  0  0  0  0  0  0  0  0
   62.1983   30.3625   50.0855 H   0  0  0  0  0  0  0  0  0  0  0  0
   61.9432   32.1610   50.2353 H   0  0  0  0  0  0  0  0  0  0  0  0
   59.8560   30.6108   50.0665 H   0  0  0  0  0  0  0  0  0  0  0  0
   59.9527   32.1201   49.0503 H   0  0  0  0  0  0  0  0  0  0  0  0
   58.0569   29.7113   46.9094 H   0  0  0  0  0  0  0  0  0  0  0  0
   59.5466   34.3313   43.6829 H   0  0  0  0  0  0  0  0  0  0  0  0
   58.0251   34.9996   44.3843 H   0  0  0  0  0  0  0  0  0  0  0  0
  1  2  1  0
  2  3  1  0
  3  4  1  0
  4  5  1  0
  5  6  1  0
  6  7  2  0
  7  8  1  0
  8  9  2  0
  8 10  1  0
 10 11  1  0
 11 12  2  0
 12 13  1  0
 13 14  2  0
 14 15  1  0
 15 16  1  0
 16 17  1  0
 17 18  1  0
 18 19  1  0
 19 20  1  0
 20 21  1  0
 21 22  2  0
 21 23  1  0
 23 24  1  0
 24 25  1  0
 24 26  1  0
 24 27  1  0
 20 28  1  0
 28 29  1  0
 15 30  2  0
  7 31  1  0
 31 32  1  0
 32 33  1  0
 33  2  1  0
 32  5  2  0
 30 11  1  0
 29 17  1  0
  1 34  1  0
  1 35  1  0
  1 36  1  0
  3 37  1  0
  3 38  1  0
  4 39  1  0
  4 40  1  0
 12 41  1  0
 13 42  1  0
 14 43  1  0
 16 44  1  0
 16 45  1  0
 18 46  1  0
 18 47  1  0
 19 48  1  0
 19 49  1  0
 20 50  1  0
 25 51  1  0
 25 52  1  0
 25 53  1  0
 26 54  1  0
 26 55  1  0
 26 56  1  0
 27 57  1  0
 27 58  1  0
 27 59  1  0
 28 60  1  0
 28 61  1  0
 29 62  1  0
 29 63  1  0
 30 64  1  0
 33 65  1  0
 33 66  1  0
M  CHG  2  10  -1  23  -1
M  END
>  <UniqueID>  (24) 
22

>  <SMILES>  (24) 
CN1CCc2nc(C(=O)[N-]c3cccc(CN4CCC(C(=O)[N-]C(C)(C)C)CC4)c3)sc2C1

>  <Energy>  (24) 
109.0523146700881

>  <Genealogy>  (24) 
CN1CCc2nc(C(=O)[N-]c3cccc(CN4CCC(C(=O)[N-]C(C)(C)C)CC4)c3)sc2C1 (protonated)
CN1CCc2nc(C(=O)[N-]c3cccc(CN4CCC(C(=O)[N-]C(C)(C)C)CC4)c3)sc2C1 (3D coordinates assigned)
CN1CCc2nc(C(=O)[N-]c3cccc(CN4CCC(C(=O)[N-]C(C)(C)C)CC4)c3)sc2C1 (nonaromatic ring conformer: 109.0523146700881 kcal/mol)

>  <smiles>  (24) 
CN1CCc2nc(C(=O)Nc3cccc(CN4CCC(C(=O)NC(C)(C)C)CC4)c3)sc2C1

>  <score_type>  (24) 
oracle

>  <origin>  (24) 
adg

>  <m_score__min__energy>  (24) 
-12.789999999999999

>  <m_primary>  (24) 
energy

$$$$
24:0
     RDKit          3D

 72 76  0  0  0  0  0  0  0  0999 V2000
   56.6170   30.4790   42.8170 C   0  0  0  0  0  0  0  0  0  0  0  0
   56.6630   29.7730   44.4480 S   0  0  0  0  0  0  0  0  0  0  0  0
   57.2260   30.7810   45.4100 O   0  0  0  0  0  0  0  0  0  0  0  0
   55.2680   29.4070   44.8660 O   0  0  0  0  0  0  0  0  0  0  0  0
   57.6950   28.3150   44.4310 C   0  0  0  0  0  0  0  0  0  0  0  0
   58.5770   28.2820   45.6470 C   0  0  0  0  0  0  0  0  0  0  0  0
   58.2780   27.4250   46.7160 C   0  0  0  0  0  0  0  0  0  0  0  0
   59.0740   27.4170   47.8640 C   0  0  0  0  0  0  0  0  0  0  0  0
   60.1970   28.2610   47.9510 C   0  0  0  0  0  0  0  0  0  0  0  0
   61.0420   28.3200   49.1140 N   0  0  0  0  0  0  0  0  0  0  0  0
   60.8870   27.7200   50.2580 C   0  0  0  0  0  0  0  0  0  0  0  0
   60.1130   28.3070   51.2060 N   0  0  0  0  0  0  0  0  0  0  0  0
   59.9380   27.7420   52.4320 C   0  0  0  0  0  0  0  0  0  0  0  0
   59.1140   28.3430   53.3910 O   0  0  0  0  0  0  0  0  0  0  0  0
   58.1550   29.3220   53.1030 C   0  0  0  0  0  0  0  0  0  0  0  0
   56.9130   29.2570   53.7430 C   0  0  0  0  0  0  0  0  0  0  0  0
   55.9350   30.2190   53.4800 C   0  0  0  0  0  0  0  0  0  0  0  0
   56.1940   31.2570   52.5810 C   0  0  0  0  0  0  0  0  0  0  0  0
   57.4370   31.3420   51.9340 C   0  0  0  0  0  0  0  0  0  0  0  0
   57.7340   32.4260   51.0370 N   0  0  0  0  0  0  0  0  0  0  0  0
   58.9560   33.1840   51.1030 C   0  0  0  0  0  0  0  0  0  0  0  0
   59.6800   33.1230   52.1320 O   0  0  0  0  0  0  0  0  0  0  0  0
   59.3990   33.9780   50.0000 N   0  0  0  0  0  0  0  0  0  0  0  0
   59.5720   33.5400   48.6460 C   0  0  0  0  0  0  0  0  0  0  0  0
   58.6580   33.9130   47.6480 C   0  0  0  0  0  0  0  0  0  0  0  0
   58.8620   33.5280   46.3120 C   0  0  0  0  0  0  0  0  0  0  0  0
   57.9140   33.9680   45.2240 C   0  0  0  0  0  0  0  0  0  0  0  0
   57.8820   33.0280   44.2090 F   0  0  0  0  0  0  0  0  0  0  0  0
   56.6270   34.1220   45.7120 F   0  0  0  0  0  0  0  0  0  0  0  0
   58.3450   35.1770   44.7080 F   0  0  0  0  0  0  0  0  0  0  0  0
   60.0200   32.8040   45.9810 C   0  0  0  0  0  0  0  0  0  0  0  0
   60.9380   32.4420   46.9700 C   0  0  0  0  0  0  0  0  0  0  0  0
   60.7220   32.8150   48.3000 C   0  0  0  0  0  0  0  0  0  0  0  0
   61.6590   32.4280   49.3130 N   0  0  0  0  0  0  0  0  0  0  0  0
   62.9540   33.1160   49.3370 C   0  0  0  0  0  0  0  0  0  0  0  0
   63.9500   32.4470   50.2910 C   0  0  0  0  0  0  0  0  0  0  0  0
   63.7790   31.0480   50.2850 O   0  0  0  0  0  0  0  0  0  0  0  0
   62.5610   30.7370   50.9240 C   0  0  0  0  0  0  0  0  0  0  0  0
   61.3600   31.2210   50.1000 C   0  0  0  0  0  0  0  0  0  0  0  0
   58.4200   30.3800   52.2110 C   0  0  0  0  0  0  0  0  0  0  0  0
   60.5610   26.5280   52.7240 C   0  0  0  0  0  0  0  0  0  0  0  0
   61.3630   25.9390   51.7470 C   0  0  0  0  0  0  0  0  0  0  0  0
   61.5150   26.5460   50.5400 N   0  0  0  0  0  0  0  0  0  0  0  0
   60.4670   29.1410   46.8990 C   0  0  0  0  0  0  0  0  0  0  0  0
   59.6680   29.1510   45.7540 C   0  0  0  0  0  0  0  0  0  0  0  0
   56.5457   31.5740   42.8933 H   0  0  0  0  0  0  0  0  0  0  0  0
   57.5347   30.2083   42.2743 H   0  0  0  0  0  0  0  0  0  0  0  0
   55.7422   30.0915   42.2743 H   0  0  0  0  0  0  0  0  0  0  0  0
   57.0565   27.4193   44.4222 H   0  0  0  0  0  0  0  0  0  0  0  0
   58.3284   28.3372   43.5319 H   0  0  0  0  0  0  0  0  0  0  0  0
   57.4093   26.7534   46.6500 H   0  0  0  0  0  0  0  0  0  0  0  0
   58.8226   26.7498   48.7016 H   0  0  0  0  0  0  0  0  0  0  0  0
   56.7057   28.4454   54.4560 H   0  0  0  0  0  0  0  0  0  0  0  0
   54.9581   30.1593   53.9820 H   0  0  0  0  0  0  0  0  0  0  0  0
   55.4196   32.0117   52.3792 H   0  0  0  0  0  0  0  0  0  0  0  0
   57.0080   32.6850   50.3360 H   0  0  0  0  0  0  0  0  0  0  0  0
   57.7745   34.5118   47.9140 H   0  0  0  0  0  0  0  0  0  0  0  0
   60.2052   32.5199   44.9346 H   0  0  0  0  0  0  0  0  0  0  0  0
   61.8332   31.8619   46.7015 H   0  0  0  0  0  0  0  0  0  0  0  0
   63.3772   33.1090   48.3217 H   0  0  0  0  0  0  0  0  0  0  0  0
   62.7834   34.1424   49.6938 H   0  0  0  0  0  0  0  0  0  0  0  0
   64.9746   32.6874   49.9709 H   0  0  0  0  0  0  0  0  0  0  0  0
   63.7720   32.8218   51.3097 H   0  0  0  0  0  0  0  0  0  0  0  0
   62.4917   29.6467   51.0522 H   0  0  0  0  0  0  0  0  0  0  0  0
   62.5407   31.2453   51.8993 H   0  0  0  0  0  0  0  0  0  0  0  0
   61.0594   30.4177   49.4113 H   0  0  0  0  0  0  0  0  0  0  0  0
   60.5550   31.4758   50.8051 H   0  0  0  0  0  0  0  0  0  0  0  0
   59.4056   30.4523   51.7279 H   0  0  0  0  0  0  0  0  0  0  0  0
   60.4225   26.0463   53.7032 H   0  0  0  0  0  0  0  0  0  0  0  0
   61.8715   24.9855   51.9524 H   0  0  0  0  0  0  0  0  0  0  0  0
   61.3185   29.8334   46.9741 H   0  0  0  0  0  0  0  0  0  0  0  0
   59.8975   29.8454   44.9323 H   0  0  0  0  0  0  0  0  0  0  0  0
  1  2  1  0
  2  3  2  0
  2  4  2  0
  2  5  1  0
  5  6  1  0
  6  7  2  0
  7  8  1  0
  8  9  2  0
  9 10  1  0
 10 11  2  3
 11 12  1  0
 12 13  2  0
 13 14  1  0
 14 15  1  0
 15 16  2  0
 16 17  1  0
 17 18  2  0
 18 19  1  0
 19 20  1  0
 20 21  1  0
 21 22  2  0
 21 23  1  0
 23 24  1  0
 24 25  2  0
 25 26  1  0
 26 27  1  0
 27 28  1  0
 27 29  1  0
 27 30  1  0
 26 31  2  0
 31 32  1  0
 32 33  2  0
 33 34  1  0
 34 35  1  0
 35 36  1  0
 36 37  1  0
 37 38  1  0
 38 39  1  0
 19 40  2  0
 13 41  1  0
 41 42  2  0
 42 43  1  0
  9 44  1  0
 44 45  2  0
 45  6  1  0
 43 11  1  0
 40 15  1  0
 33 24  1  0
 39 34  1  0
  1 46  1  0
  1 47  1  0
  1 48  1  0
  5 49  1  0
  5 50  1  0
  7 51  1  0
  8 52  1  0
 16 53  1  0
 17 54  1  0
 18 55  1  0
 20 56  1  0
 25 57  1  0
 31 58  1  0
 32 59  1  0
 35 60  1  0
 35 61  1  0
 36 62  1  0
 36 63  1  0
 38 64  1  0
 38 65  1  0
 39 66  1  0
 39 67  1  0
 40 68  1  0
 41 69  1  0
 42 70  1  0
 44 71  1  0
 45 72  1  0
M  CHG  2  23  -1  43  -1
M  END
>  <UniqueID>  (25) 
23

>  <SMILES>  (25) 
CS(=O)(=O)Cc1ccc(N=c2nc(Oc3cccc(NC(=O)[N-]c4cc(C(F)(F)F)ccc4N4CCOCC4)c3)cc[n-]2)cc1

>  <Energy>  (25) 
100.34881474789354

>  <Genealogy>  (25) 
CS(=O)(=O)Cc1ccc(N=c2nc(Oc3cccc(NC(=O)[N-]c4cc(C(F)(F)F)ccc4N4CCOCC4)c3)cc[n-]2)cc1 (protonated)
CS(=O)(=O)Cc1ccc(N=c2nc(Oc3cccc(NC(=O)[N-]c4cc(C(F)(F)F)ccc4N4CCOCC4)c3)cc[n-]2)cc1 (3D coordinates assigned)
CS(=O)(=O)Cc1ccc(N=c2nc(Oc3cccc(NC(=O)[N-]c4cc(C(F)(F)F)ccc4N4CCOCC4)c3)cc[n-]2)cc1 (nonaromatic ring conformer: 100.34881474789354 kcal/mol)

>  <smiles>  (25) 
CS(=O)(=O)Cc1ccc(N=c2nc(Oc3cccc(NC(=O)Nc4cc(C(F)(F)F)ccc4N4CCOCC4)c3)cc[nH]2)cc1

>  <score_type>  (25) 
oracle

>  <origin>  (25) 
adg

>  <m_score__min__energy>  (25) 
-12.4

>  <m_primary>  (25) 
energy

$$$$
25:0
     RDKit          3D

 34 36  0  0  0  0  0  0  0  0999 V2000
   55.5080   29.1120   44.6580 O   0  0  0  0  0  0  0  0  0  0  0  0
   56.6380   29.3410   45.1660 C   0  0  0  0  0  0  0  0  0  0  0  0
   57.0230   30.5990   45.3360 O   0  0  0  0  0  0  0  0  0  0  0  0
   58.1970   30.9360   45.8640 C   0  0  0  0  0  0  0  0  0  0  0  0
   58.5360   32.2830   46.0140 O   0  0  0  0  0  0  0  0  0  0  0  0
   58.2350   33.2650   45.0270 C   0  0  0  0  0  0  0  0  0  0  0  0
   59.0300   34.5390   45.3020 C   0  0  0  0  0  0  0  0  0  0  0  0
   59.8980   34.3840   46.5240 C   0  0  0  0  0  0  0  0  0  0  0  0
   61.2430   34.0000   46.3920 C   0  0  0  0  0  0  0  0  0  0  0  0
   62.0370   33.8190   47.5290 C   0  0  0  0  0  0  0  0  0  0  0  0
   61.4930   34.0080   48.8020 C   0  0  0  0  0  0  0  0  0  0  0  0
   60.1520   34.3790   48.9410 C   0  0  0  0  0  0  0  0  0  0  0  0
   59.3550   34.5630   47.8070 C   0  0  0  0  0  0  0  0  0  0  0  0
   59.1020   29.9480   46.2740 C   0  0  0  0  0  0  0  0  0  0  0  0
   60.7900   30.4930   47.0220 Br  0  0  0  0  0  0  0  0  0  0  0  0
   58.7420   28.5950   46.1150 C   0  0  0  0  0  0  0  0  0  0  0  0
   59.5990   27.5460   46.5030 C   0  0  0  0  0  0  0  0  0  0  0  0
   59.2090   26.2140   46.3310 C   0  0  0  0  0  0  0  0  0  0  0  0
   57.9680   25.9120   45.7740 C   0  0  0  0  0  0  0  0  0  0  0  0
   57.1050   26.9370   45.3830 C   0  0  0  0  0  0  0  0  0  0  0  0
   57.4830   28.2830   45.5490 C   0  0  0  0  0  0  0  0  0  0  0  0
   58.5011   32.8765   44.0329 H   0  0  0  0  0  0  0  0  0  0  0  0
   57.1598   33.4947   45.0609 H   0  0  0  0  0  0  0  0  0  0  0  0
   59.6683   34.7586   44.4335 H   0  0  0  0  0  0  0  0  0  0  0  0
   58.3214   35.3615   45.4790 H   0  0  0  0  0  0  0  0  0  0  0  0
   61.6726   33.8413   45.3919 H   0  0  0  0  0  0  0  0  0  0  0  0
   63.0921   33.5272   47.4208 H   0  0  0  0  0  0  0  0  0  0  0  0
   62.1195   33.8650   49.6947 H   0  0  0  0  0  0  0  0  0  0  0  0
   59.7237   34.5262   49.9434 H   0  0  0  0  0  0  0  0  0  0  0  0
   58.2989   34.8490   47.9200 H   0  0  0  0  0  0  0  0  0  0  0  0
   60.5803   27.7760   46.9436 H   0  0  0  0  0  0  0  0  0  0  0  0
   59.8846   25.4015   46.6367 H   0  0  0  0  0  0  0  0  0  0  0  0
   57.6674   24.8622   45.6420 H   0  0  0  0  0  0  0  0  0  0  0  0
   56.1266   26.6924   44.9438 H   0  0  0  0  0  0  0  0  0  0  0  0
  1  2  2  0
  2  3  1  0
  3  4  1  0
  4  5  1  0
  5  6  1  0
  6  7  1  0
  7  8  1  0
  8  9  2  0
  9 10  1  0
 10 11  2  0
 11 12  1  0
 12 13  2  0
  4 14  2  0
 14 15  1  0
 14 16  1  0
 16 17  2  0
 17 18  1  0
 18 19  2  0
 19 20  1  0
 20 21  2  0
 21  2  1  0
 13  8  1  0
 21 16  1  0
  6 22  1  0
  6 23  1  0
  7 24  1  0
  7 25  1  0
  9 26  1  0
 10 27  1  0
 11 28  1  0
 12 29  1  0
 13 30  1  0
 17 31  1  0
 18 32  1  0
 19 33  1  0
 20 34  1  0
M  END
>  <UniqueID>  (26) 
24

>  <SMILES>  (26) 
O=c1oc(OCCc2ccccc2)c(Br)c2ccccc12

>  <Energy>  (26) 
38.97286924833315

>  <Genealogy>  (26) 
O=c1oc(OCCc2ccccc2)c(Br)c2ccccc12 (3D coordinates assigned)
O=c1oc(OCCc2ccccc2)c(Br)c2ccccc12 (optimized conformer: 38.97286924833315 kcal/mol)

>  <smiles>  (26) 
O=c1oc(OCCc2ccccc2)c(Br)c2ccccc12

>  <score_type>  (26) 
oracle

>  <origin>  (26) 
adg

>  <m_score__min__energy>  (26) 
-7.7999999999999998

>  <m_primary>  (26) 
energy

$$$$
26:0
     RDKit          3D

 58 60  0  0  0  0  0  0  0  0999 V2000
   59.1060   31.8850   48.2560 C   0  0  0  0  0  0  0  0  0  0  0  0
   59.0520   32.9750   47.2060 C   0  0  0  0  0  0  0  0  0  0  0  0
   59.7440   34.2110   47.3530 C   0  0  0  0  0  0  0  0  0  0  0  0
   60.5660   34.5630   48.5860 C   0  0  0  0  0  0  0  0  0  0  0  0
   61.9800   34.1200   48.4840 N   0  0  0  0  0  0  0  0  0  0  0  0
   62.2850   33.1530   49.5710 C   0  0  0  0  0  0  0  0  0  0  0  0
   63.6170   32.4170   49.3230 C   0  0  0  0  0  0  0  0  0  0  0  0
   64.4110   33.1200   48.3830 O   0  0  0  0  0  0  0  0  0  0  0  0
   63.7830   33.0890   47.1100 C   0  0  0  0  0  0  0  0  0  0  0  0
   62.2960   33.5160   47.1670 C   0  0  0  0  0  0  0  0  0  0  0  0
   59.6720   35.1660   46.3220 C   0  0  0  0  0  0  0  0  0  0  0  0
   58.9010   34.9340   45.1860 C   0  0  0  0  0  0  0  0  0  0  0  0
   58.1730   33.7540   45.0650 C   0  0  0  0  0  0  0  0  0  0  0  0
   58.2440   32.7680   46.0600 C   0  0  0  0  0  0  0  0  0  0  0  0
   57.4140   31.6000   45.9730 N   0  0  0  0  0  0  0  0  0  0  0  0
   57.0570   30.9110   44.7700 C   0  0  0  0  0  0  0  0  0  0  0  0
   55.8420   30.8420   44.4430 O   0  0  0  0  0  0  0  0  0  0  0  0
   58.0630   30.1070   43.9970 C   0  0  0  0  0  0  0  0  0  0  0  0
   58.3600   28.8260   44.7290 C   0  0  0  0  0  0  0  0  0  0  0  0
   59.6210   28.6230   45.3110 C   0  0  0  0  0  0  0  0  0  0  0  0
   59.8990   27.4350   45.9870 C   0  0  0  0  0  0  0  0  0  0  0  0
   58.9210   26.4450   46.0970 C   0  0  0  0  0  0  0  0  0  0  0  0
   57.6310   26.6490   45.5660 C   0  0  0  0  0  0  0  0  0  0  0  0
   56.5800   25.5980   45.6490 C   0  0  0  0  0  0  0  0  0  0  0  0
   55.5300   25.8450   46.3040 O   0  0  0  0  0  0  0  0  0  0  0  0
   56.6930   24.3390   44.9610 N   0  0  0  0  0  0  0  0  0  0  0  0
   57.9650   23.6140   44.8690 C   0  0  0  0  0  0  0  0  0  0  0  0
   55.4780   23.7130   44.4310 C   0  0  0  0  0  0  0  0  0  0  0  0
   57.3640   27.8470   44.8790 C   0  0  0  0  0  0  0  0  0  0  0  0
   59.0835   32.3393   49.2576 H   0  0  0  0  0  0  0  0  0  0  0  0
   58.2398   31.2176   48.1365 H   0  0  0  0  0  0  0  0  0  0  0  0
   60.0339   31.3065   48.1365 H   0  0  0  0  0  0  0  0  0  0  0  0
   60.5490   35.6548   48.7192 H   0  0  0  0  0  0  0  0  0  0  0  0
   60.1170   34.0390   49.4426 H   0  0  0  0  0  0  0  0  0  0  0  0
   62.5920   34.9640   48.6150 H   0  0  0  0  0  0  0  0  0  0  0  0
   62.3509   33.6977   50.5244 H   0  0  0  0  0  0  0  0  0  0  0  0
   61.4798   32.4041   49.5994 H   0  0  0  0  0  0  0  0  0  0  0  0
   64.1673   32.3369   50.2721 H   0  0  0  0  0  0  0  0  0  0  0  0
   63.3984   31.4161   48.9225 H   0  0  0  0  0  0  0  0  0  0  0  0
   64.3199   33.7727   46.4360 H   0  0  0  0  0  0  0  0  0  0  0  0
   63.8170   32.0509   46.7479 H   0  0  0  0  0  0  0  0  0  0  0  0
   62.1002   34.2530   46.3742 H   0  0  0  0  0  0  0  0  0  0  0  0
   61.6645   32.6271   47.0222 H   0  0  0  0  0  0  0  0  0  0  0  0
   60.2321   36.1081   46.4147 H   0  0  0  0  0  0  0  0  0  0  0  0
   58.8672   35.6847   44.3827 H   0  0  0  0  0  0  0  0  0  0  0  0
   57.5369   33.5934   44.1821 H   0  0  0  0  0  0  0  0  0  0  0  0
   57.6573   29.8736   43.0016 H   0  0  0  0  0  0  0  0  0  0  0  0
   58.9903   30.6891   43.8911 H   0  0  0  0  0  0  0  0  0  0  0  0
   60.3925   29.4033   45.2338 H   0  0  0  0  0  0  0  0  0  0  0  0
   60.8915   27.2778   46.4346 H   0  0  0  0  0  0  0  0  0  0  0  0
   59.1589   25.4974   46.6024 H   0  0  0  0  0  0  0  0  0  0  0  0
   58.3394   23.4006   45.8811 H   0  0  0  0  0  0  0  0  0  0  0  0
   57.8099   22.6686   44.3285 H   0  0  0  0  0  0  0  0  0  0  0  0
   58.6994   24.2292   44.3285 H   0  0  0  0  0  0  0  0  0  0  0  0
   54.8408   23.3847   45.2654 H   0  0  0  0  0  0  0  0  0  0  0  0
   54.9294   24.4407   43.8150 H   0  0  0  0  0  0  0  0  0  0  0  0
   55.7521   22.8439   43.8150 H   0  0  0  0  0  0  0  0  0  0  0  0
   56.3639   28.0191   44.4544 H   0  0  0  0  0  0  0  0  0  0  0  0
  1  2  1  0
  2  3  2  0
  3  4  1  0
  4  5  1  0
  5  6  1  0
  6  7  1  0
  7  8  1  0
  8  9  1  0
  9 10  1  0
  3 11  1  0
 11 12  2  0
 12 13  1  0
 13 14  2  0
 14 15  1  0
 15 16  1  0
 16 17  2  0
 16 18  1  0
 18 19  1  0
 19 20  2  0
 20 21  1  0
 21 22  2  0
 22 23  1  0
 23 24  1  0
 24 25  2  0
 24 26  1  0
 26 27  1  0
 26 28  1  0
 23 29  2  0
 14  2  1  0
 29 19  1  0
 10  5  1  0
  1 30  1  0
  1 31  1  0
  1 32  1  0
  4 33  1  0
  4 34  1  0
  5 35  1  0
  6 36  1  0
  6 37  1  0
  7 38  1  0
  7 39  1  0
  9 40  1  0
  9 41  1  0
 10 42  1  0
 10 43  1  0
 11 44  1  0
 12 45  1  0
 13 46  1  0
 18 47  1  0
 18 48  1  0
 20 49  1  0
 21 50  1  0
 22 51  1  0
 27 52  1  0
 27 53  1  0
 27 54  1  0
 28 55  1  0
 28 56  1  0
 28 57  1  0
 29 58  1  0
M  CHG  2   5   1  15  -1
M  END
>  <UniqueID>  (27) 
25

>  <SMILES>  (27) 
Cc1c(C[NH+]2CCOCC2)cccc1[N-]C(=O)Cc1cccc(C(=O)N(C)C)c1

>  <Energy>  (27) 
80.58246045729908

>  <Genealogy>  (27) 
Cc1c(C[NH+]2CCOCC2)cccc1[N-]C(=O)Cc1cccc(C(=O)N(C)C)c1 (protonated)
Cc1c(C[NH+]2CCOCC2)cccc1[N-]C(=O)Cc1cccc(C(=O)N(C)C)c1 (3D coordinates assigned)
Cc1c(C[NH+]2CCOCC2)cccc1[N-]C(=O)Cc1cccc(C(=O)N(C)C)c1 (nonaromatic ring conformer: 80.58246045729908 kcal/mol)

>  <smiles>  (27) 
Cc1c(CN2CCOCC2)cccc1NC(=O)Cc1cccc(C(=O)N(C)C)c1

>  <score_type>  (27) 
oracle

>  <origin>  (27) 
adg

>  <m_score__min__energy>  (27) 
-9.8200000000000003

>  <m_primary>  (27) 
energy

$$$$
27:0
     RDKit          3D

 63 67  0  0  0  0  0  0  0  0999 V2000
   63.0110   34.2030   49.0730 C   0  0  0  0  0  0  0  0  0  0  0  0
   61.9980   33.6990   50.0530 C   0  0  0  0  0  0  0  0  0  0  0  0
   62.2930   33.4910   51.3630 N   0  0  0  0  0  0  0  0  0  0  0  0
   61.1110   33.1140   51.8840 C   0  0  0  0  0  0  0  0  0  0  0  0
   60.8360   32.7890   53.2080 C   0  0  0  0  0  0  0  0  0  0  0  0
   59.5100   32.4610   53.5410 C   0  0  0  0  0  0  0  0  0  0  0  0
   58.4900   32.4810   52.5590 C   0  0  0  0  0  0  0  0  0  0  0  0
   57.1510   32.1430   52.9430 N   0  0  0  0  0  0  0  0  0  0  0  0
   56.4130   31.0100   52.4740 C   0  0  0  0  0  0  0  0  0  0  0  0
   56.7340   30.4860   51.3760 O   0  0  0  0  0  0  0  0  0  0  0  0
   55.3620   30.4360   53.2670 N   0  0  0  0  0  0  0  0  0  0  0  0
   54.3210   29.5920   52.6930 C   0  0  0  0  0  0  0  0  0  0  0  0
   53.0790   30.4080   52.4550 C   0  0  0  0  0  0  0  0  0  0  0  0
   52.1460   30.6000   53.4930 C   0  0  0  0  0  0  0  0  0  0  0  0
   51.0180   31.4050   53.2870 C   0  0  0  0  0  0  0  0  0  0  0  0
   50.8180   32.0250   52.0460 C   0  0  0  0  0  0  0  0  0  0  0  0
   51.7440   31.8410   51.0090 C   0  0  0  0  0  0  0  0  0  0  0  0
   52.8740   31.0390   51.2130 C   0  0  0  0  0  0  0  0  0  0  0  0
   58.8170   32.7780   51.2160 C   0  0  0  0  0  0  0  0  0  0  0  0
   60.1440   33.1020   50.9230 C   0  0  0  0  0  0  0  0  0  0  0  0
   60.6920   33.4630   49.7480 N   0  0  0  0  0  0  0  0  0  0  0  0
   60.0220   33.6540   48.4570 C   0  0  0  0  0  0  0  0  0  0  0  0
   59.7090   32.3250   47.8230 C   0  0  0  0  0  0  0  0  0  0  0  0
   58.8350   31.4270   48.4590 C   0  0  0  0  0  0  0  0  0  0  0  0
   58.5570   30.1860   47.8840 C   0  0  0  0  0  0  0  0  0  0  0  0
   59.1410   29.8290   46.6610 C   0  0  0  0  0  0  0  0  0  0  0  0
   58.8540   28.5110   46.0590 C   0  0  0  0  0  0  0  0  0  0  0  0
   59.6110   27.4050   46.4810 C   0  0  0  0  0  0  0  0  0  0  0  0
   59.3890   26.1430   45.9290 C   0  0  0  0  0  0  0  0  0  0  0  0
   58.4170   25.9720   44.9420 C   0  0  0  0  0  0  0  0  0  0  0  0
   57.6560   27.0630   44.5100 C   0  0  0  0  0  0  0  0  0  0  0  0
   57.8530   28.3370   45.0700 C   0  0  0  0  0  0  0  0  0  0  0  0
   56.8240   29.6740   44.5290 S   0  0  0  0  0  0  0  0  0  0  0  0
   55.1640   29.3180   44.8470 N   0  0  0  0  0  0  0  0  0  0  0  0
   56.9900   29.8820   43.0490 O   0  0  0  0  0  0  0  0  0  0  0  0
   57.2160   30.9350   45.2460 O   0  0  0  0  0  0  0  0  0  0  0  0
   60.0230   30.7170   46.0300 C   0  0  0  0  0  0  0  0  0  0  0  0
   60.3060   31.9580   46.6060 C   0  0  0  0  0  0  0  0  0  0  0  0
   63.8670   34.6289   49.6169 H   0  0  0  0  0  0  0  0  0  0  0  0
   63.3553   33.3711   48.4410 H   0  0  0  0  0  0  0  0  0  0  0  0
   62.5551   34.9794   48.4410 H   0  0  0  0  0  0  0  0  0  0  0  0
   61.6298   32.7886   53.9695 H   0  0  0  0  0  0  0  0  0  0  0  0
   59.2620   32.1856   54.5767 H   0  0  0  0  0  0  0  0  0  0  0  0
   55.2570   30.7280   54.2650 H   0  0  0  0  0  0  0  0  0  0  0  0
   54.6734   29.1757   51.7378 H   0  0  0  0  0  0  0  0  0  0  0  0
   54.0904   28.7734   53.3906 H   0  0  0  0  0  0  0  0  0  0  0  0
   52.3037   30.1163   54.4683 H   0  0  0  0  0  0  0  0  0  0  0  0
   50.2899   31.5503   54.0986 H   0  0  0  0  0  0  0  0  0  0  0  0
   49.9325   32.6575   51.8850 H   0  0  0  0  0  0  0  0  0  0  0  0
   51.5828   32.3266   50.0352 H   0  0  0  0  0  0  0  0  0  0  0  0
   53.6032   30.9017   50.4009 H   0  0  0  0  0  0  0  0  0  0  0  0
   58.0510   32.7547   50.4269 H   0  0  0  0  0  0  0  0  0  0  0  0
   59.0857   34.2096   48.6139 H   0  0  0  0  0  0  0  0  0  0  0  0
   60.6904   34.2176   47.7895 H   0  0  0  0  0  0  0  0  0  0  0  0
   58.3673   31.7037   49.4154 H   0  0  0  0  0  0  0  0  0  0  0  0
   57.8775   29.4860   48.3922 H   0  0  0  0  0  0  0  0  0  0  0  0
   60.3844   27.5351   47.2523 H   0  0  0  0  0  0  0  0  0  0  0  0
   59.9808   25.2816   46.2721 H   0  0  0  0  0  0  0  0  0  0  0  0
   58.2492   24.9774   44.5032 H   0  0  0  0  0  0  0  0  0  0  0  0
   56.8974   26.9229   43.7259 H   0  0  0  0  0  0  0  0  0  0  0  0
   55.1450   28.6340   45.6350 H   0  0  0  0  0  0  0  0  0  0  0  0
   60.4945   30.4355   45.0769 H   0  0  0  0  0  0  0  0  0  0  0  0
   60.9987   32.6499   46.1046 H   0  0  0  0  0  0  0  0  0  0  0  0
  1  2  1  0
  2  3  2  0
  3  4  1  0
  4  5  2  0
  5  6  1  0
  6  7  2  0
  7  8  1  0
  8  9  1  0
  9 10  2  0
  9 11  1  0
 11 12  1  0
 12 13  1  0
 13 14  2  0
 14 15  1  0
 15 16  2  0
 16 17  1  0
 17 18  2  0
  7 19  1  0
 19 20  2  0
 20 21  1  0
 21 22  1  0
 22 23  1  0
 23 24  2  0
 24 25  1  0
 25 26  2  0
 26 27  1  0
 27 28  2  0
 28 29  1  0
 29 30  2  0
 30 31  1  0
 31 32  2  0
 32 33  1  0
 33 34  1  0
 33 35  2  0
 33 36  2  0
 26 37  1  0
 37 38  2  0
 21  2  1  0
 38 23  1  0
 20  4  1  0
 32 27  1  0
 18 13  1  0
  1 39  1  0
  1 40  1  0
  1 41  1  0
  5 42  1  0
  6 43  1  0
 11 44  1  0
 12 45  1  0
 12 46  1  0
 14 47  1  0
 15 48  1  0
 16 49  1  0
 17 50  1  0
 18 51  1  0
 19 52  1  0
 22 53  1  0
 22 54  1  0
 24 55  1  0
 25 56  1  0
 28 57  1  0
 29 58  1  0
 30 59  1  0
 31 60  1  0
 34 61  1  0
 37 62  1  0
 38 63  1  0
M  CHG  2   8  -1  34  -1
M  END
>  <UniqueID>  (28) 
26

>  <SMILES>  (28) 
Cc1nc2ccc([N-]C(=O)NCc3ccccc3)cc2n1Cc1ccc(-c2ccccc2S([NH-])(=O)=O)cc1

>  <Energy>  (28) 
108.80720127163357

>  <Genealogy>  (28) 
Cc1nc2ccc([N-]C(=O)NCc3ccccc3)cc2n1Cc1ccc(-c2ccccc2S([NH-])(=O)=O)cc1 (protonated)
Cc1nc2ccc([N-]C(=O)NCc3ccccc3)cc2n1Cc1ccc(-c2ccccc2S([NH-])(=O)=O)cc1 (3D coordinates assigned)
Cc1nc2ccc([N-]C(=O)NCc3ccccc3)cc2n1Cc1ccc(-c2ccccc2S([NH-])(=O)=O)cc1 (optimized conformer: 108.80720127163357 kcal/mol)

>  <smiles>  (28) 
Cc1nc2ccc(NC(=O)NCc3ccccc3)cc2n1Cc1ccc(-c2ccccc2S(N)(=O)=O)cc1

>  <score_type>  (28) 
oracle

>  <origin>  (28) 
adg

>  <m_score__min__energy>  (28) 
-14.07

>  <m_primary>  (28) 
energy

$$$$
28:0
     RDKit          3D

 50 53  0  0  0  0  0  0  0  0999 V2000
   57.0730   22.9290   44.2810 C   0  0  0  0  0  0  0  0  0  0  0  0
   56.4290   24.2990   44.0110 C   0  0  0  0  0  0  0  0  0  0  0  0
   55.8570   24.9130   45.3030 C   0  0  0  0  0  0  0  0  0  0  0  0
   56.9560   25.3790   46.2840 C   0  0  0  0  0  0  0  0  0  0  0  0
   58.2690   25.5530   45.6260 N   0  0  0  0  0  0  0  0  0  0  0  0
   59.3450   26.4650   46.6550 S   0  0  0  0  0  0  0  0  0  0  0  0
   58.9640   26.2500   48.0940 O   0  0  0  0  0  0  0  0  0  0  0  0
   60.7520   25.9660   46.4700 O   0  0  0  0  0  0  0  0  0  0  0  0
   59.2890   28.1890   46.2850 C   0  0  0  0  0  0  0  0  0  0  0  0
   60.4020   29.0130   46.5660 C   0  0  0  0  0  0  0  0  0  0  0  0
   60.3620   30.3910   46.2940 C   0  0  0  0  0  0  0  0  0  0  0  0
   59.1940   30.9280   45.7440 C   0  0  0  0  0  0  0  0  0  0  0  0
   58.1120   30.1130   45.4560 C   0  0  0  0  0  0  0  0  0  0  0  0
   58.1280   28.7460   45.7150 C   0  0  0  0  0  0  0  0  0  0  0  0
   57.0680   30.9460   44.8830 C   0  0  0  0  0  0  0  0  0  0  0  0
   55.9290   30.5780   44.4950 O   0  0  0  0  0  0  0  0  0  0  0  0
   57.6140   32.2930   44.8580 C   0  0  0  0  0  0  0  0  0  0  0  0
   57.0110   33.3170   44.4400 O   0  0  0  0  0  0  0  0  0  0  0  0
   58.9420   32.2970   45.3890 N   0  0  0  0  0  0  0  0  0  0  0  0
   59.7310   33.4790   45.7400 C   0  0  0  0  0  0  0  0  0  0  0  0
   60.0580   33.4800   47.2170 C   0  0  0  0  0  0  0  0  0  0  0  0
   59.0150   33.3270   48.1540 C   0  0  0  0  0  0  0  0  0  0  0  0
   57.7370   33.1390   47.7430 F   0  0  0  0  0  0  0  0  0  0  0  0
   59.2840   33.3570   49.5250 C   0  0  0  0  0  0  0  0  0  0  0  0
   60.5880   33.5400   49.9810 C   0  0  0  0  0  0  0  0  0  0  0  0
   61.6320   33.6910   49.0680 C   0  0  0  0  0  0  0  0  0  0  0  0
   61.3810   33.6640   47.6900 C   0  0  0  0  0  0  0  0  0  0  0  0
   62.7580   33.8470   46.6070 Cl  0  0  0  0  0  0  0  0  0  0  0  0
   58.1270   26.2130   44.3200 C   0  0  0  0  0  0  0  0  0  0  0  0
   57.4200   25.2740   43.3250 C   0  0  0  0  0  0  0  0  0  0  0  0
   57.1491   22.7671   45.3664 H   0  0  0  0  0  0  0  0  0  0  0  0
   56.4525   22.1378   43.8349 H   0  0  0  0  0  0  0  0  0  0  0  0
   58.0781   22.9020   43.8349 H   0  0  0  0  0  0  0  0  0  0  0  0
   55.5933   24.1329   43.3153 H   0  0  0  0  0  0  0  0  0  0  0  0
   55.2354   25.7799   45.0345 H   0  0  0  0  0  0  0  0  0  0  0  0
   55.2718   24.1313   45.8094 H   0  0  0  0  0  0  0  0  0  0  0  0
   56.6517   26.3406   46.7230 H   0  0  0  0  0  0  0  0  0  0  0  0
   57.0690   24.5999   47.0523 H   0  0  0  0  0  0  0  0  0  0  0  0
   61.3097   28.5708   47.0025 H   0  0  0  0  0  0  0  0  0  0  0  0
   61.2294   31.0324   46.5088 H   0  0  0  0  0  0  0  0  0  0  0  0
   57.2566   28.1169   45.4807 H   0  0  0  0  0  0  0  0  0  0  0  0
   60.6671   33.4737   45.1623 H   0  0  0  0  0  0  0  0  0  0  0  0
   59.1448   34.3798   45.5054 H   0  0  0  0  0  0  0  0  0  0  0  0
   58.4631   33.2357   50.2471 H   0  0  0  0  0  0  0  0  0  0  0  0
   60.7943   33.5654   51.0612 H   0  0  0  0  0  0  0  0  0  0  0  0
   62.6600   33.8323   49.4329 H   0  0  0  0  0  0  0  0  0  0  0  0
   57.5324   27.1307   44.4392 H   0  0  0  0  0  0  0  0  0  0  0  0
   59.1260   26.4612   43.9322 H   0  0  0  0  0  0  0  0  0  0  0  0
   56.8638   25.8863   42.5999 H   0  0  0  0  0  0  0  0  0  0  0  0
   58.1966   24.6654   42.8387 H   0  0  0  0  0  0  0  0  0  0  0  0
  1  2  1  0
  2  3  1  0
  3  4  1  0
  4  5  1  0
  5  6  1  0
  6  7  2  0
  6  8  2  0
  6  9  1  0
  9 10  2  0
 10 11  1  0
 11 12  2  0
 12 13  1  0
 13 14  2  0
 13 15  1  0
 15 16  2  0
 15 17  1  0
 17 18  2  0
 17 19  1  0
 19 20  1  0
 20 21  1  0
 21 22  2  0
 22 23  1  0
 22 24  1  0
 24 25  2  0
 25 26  1  0
 26 27  2  0
 27 28  1  0
  5 29  1  0
 29 30  1  0
 30  2  1  0
 14  9  1  0
 27 21  1  0
 19 12  1  0
  1 31  1  0
  1 32  1  0
  1 33  1  0
  2 34  1  0
  3 35  1  0
  3 36  1  0
  4 37  1  0
  4 38  1  0
 10 39  1  0
 11 40  1  0
 14 41  1  0
 20 42  1  0
 20 43  1  0
 24 44  1  0
 25 45  1  0
 26 46  1  0
 29 47  1  0
 29 48  1  0
 30 49  1  0
 30 50  1  0
M  END
>  <UniqueID>  (29) 
27

>  <SMILES>  (29) 
CC1CCN(S(=O)(=O)c2ccc3c(c2)C(=O)C(=O)N3Cc2c(F)cccc2Cl)CC1

>  <Energy>  (29) 
88.94599741136612

>  <Genealogy>  (29) 
CC1CCN(S(=O)(=O)c2ccc3c(c2)C(=O)C(=O)N3Cc2c(F)cccc2Cl)CC1 (3D coordinates assigned)
CC1CCN(S(=O)(=O)c2ccc3c(c2)C(=O)C(=O)N3Cc2c(F)cccc2Cl)CC1 (nonaromatic ring conformer: 88.94599741136612 kcal/mol)

>  <smiles>  (29) 
CC1CCN(S(=O)(=O)c2ccc3c(c2)C(=O)C(=O)N3Cc2c(F)cccc2Cl)CC1

>  <score_type>  (29) 
oracle

>  <origin>  (29) 
adg

>  <m_score__min__energy>  (29) 
-9.5700000000000003

>  <m_primary>  (29) 
energy

$$$$
29:0
     RDKit          3D

 33 34  0  0  0  0  0  0  0  0999 V2000
   57.1700   21.4660   43.0430 C   0  0  0  0  0  0  0  0  0  0  0  0
   57.7830   20.9120   44.2520 N   0  0  0  0  0  0  0  0  0  0  0  0
   57.6120   21.8200   45.3540 C   0  0  0  0  0  0  0  0  0  0  0  0
   56.8510   21.4570   46.4740 C   0  0  0  0  0  0  0  0  0  0  0  0
   56.6960   22.3860   47.5050 C   0  0  0  0  0  0  0  0  0  0  0  0
   56.0230   22.0890   48.5270 O   0  0  0  0  0  0  0  0  0  0  0  0
   57.2700   23.6120   47.4050 N   0  0  0  0  0  0  0  0  0  0  0  0
   57.9990   23.9540   46.3100 C   0  0  0  0  0  0  0  0  0  0  0  0
   58.7470   25.5760   46.2030 S   0  0  0  0  0  0  0  0  0  0  0  0
   57.5620   26.2070   44.9660 C   0  0  0  0  0  0  0  0  0  0  0  0
   56.3570   26.7860   45.6380 C   0  0  0  0  0  0  0  0  0  0  0  0
   55.8090   26.1580   46.5820 O   0  0  0  0  0  0  0  0  0  0  0  0
   55.8940   28.0870   45.2520 N   0  0  0  0  0  0  0  0  0  0  0  0
   56.7070   29.2080   44.8780 C   0  0  0  0  0  0  0  0  0  0  0  0
   57.8730   29.5530   45.5880 C   0  0  0  0  0  0  0  0  0  0  0  0
   58.6280   30.6650   45.2020 C   0  0  0  0  0  0  0  0  0  0  0  0
   58.2220   31.4480   44.1180 C   0  0  0  0  0  0  0  0  0  0  0  0
   57.0530   31.1260   43.4240 C   0  0  0  0  0  0  0  0  0  0  0  0
   56.2940   30.0150   43.8060 C   0  0  0  0  0  0  0  0  0  0  0  0
   55.1590   29.7150   43.1250 F   0  0  0  0  0  0  0  0  0  0  0  0
   58.1580   23.0660   45.2940 N   0  0  0  0  0  0  0  0  0  0  0  0
   56.3813   22.1788   43.3254 H   0  0  0  0  0  0  0  0  0  0  0  0
   57.9363   21.9840   42.4477 H   0  0  0  0  0  0  0  0  0  0  0  0
   56.7319   20.6513   42.4477 H   0  0  0  0  0  0  0  0  0  0  0  0
   58.8040   20.7600   44.0810 H   0  0  0  0  0  0  0  0  0  0  0  0
   57.3450   19.9870   44.4730 H   0  0  0  0  0  0  0  0  0  0  0  0
   56.3862   20.4622   46.5392 H   0  0  0  0  0  0  0  0  0  0  0  0
   58.0497   26.9874   44.3634 H   0  0  0  0  0  0  0  0  0  0  0  0
   57.2431   25.3733   44.3231 H   0  0  0  0  0  0  0  0  0  0  0  0
   58.1909   28.9462   46.4486 H   0  0  0  0  0  0  0  0  0  0  0  0
   59.5440   30.9241   45.7532 H   0  0  0  0  0  0  0  0  0  0  0  0
   58.8224   32.3172   43.8114 H   0  0  0  0  0  0  0  0  0  0  0  0
   56.7290   31.7471   42.5759 H   0  0  0  0  0  0  0  0  0  0  0  0
  1  2  1  0
  2  3  1  0
  3  4  2  0
  4  5  1  0
  5  6  2  0
  5  7  1  0
  7  8  2  0
  8  9  1  0
  9 10  1  0
 10 11  1  0
 11 12  2  0
 11 13  1  0
 13 14  1  0
 14 15  2  0
 15 16  1  0
 16 17  2  0
 17 18  1  0
 18 19  2  0
 19 20  1  0
  8 21  1  0
 21  3  1  0
 19 14  1  0
  1 22  1  0
  1 23  1  0
  1 24  1  0
  2 25  1  0
  2 26  1  0
  4 27  1  0
 10 28  1  0
 10 29  1  0
 15 30  1  0
 16 31  1  0
 17 32  1  0
 18 33  1  0
M  CHG  3   2   1  13  -1  21  -1
M  END
>  <UniqueID>  (30) 
28

>  <SMILES>  (30) 
C[NH2+]c1cc(=O)nc(SCC(=O)[N-]c2ccccc2F)[n-]1

>  <Energy>  (30) 
32.1819780568031

>  <Genealogy>  (30) 
C[NH2+]c1cc(=O)nc(SCC(=O)[N-]c2ccccc2F)[n-]1 (protonated)
C[NH2+]c1cc(=O)nc(SCC(=O)[N-]c2ccccc2F)[n-]1 (3D coordinates assigned)
C[NH2+]c1cc(=O)nc(SCC(=O)[N-]c2ccccc2F)[n-]1 (optimized conformer: 32.1819780568031 kcal/mol)

>  <smiles>  (30) 
CNc1cc(=O)nc(SCC(=O)Nc2ccccc2F)[nH]1

>  <score_type>  (30) 
oracle

>  <origin>  (30) 
adg

>  <m_score__min__energy>  (30) 
-9.7200000000000006

>  <m_primary>  (30) 
energy

$$$$
30:0
     RDKit          3D

 48 50  0  0  0  0  0  0  0  0999 V2000
   61.3430   32.0580   46.8270 O   0  0  0  0  0  0  0  0  0  0  0  0
   61.4930   33.3020   47.0350 C   0  0  0  0  0  0  0  0  0  0  0  0
   62.8890   33.8430   47.2510 C   0  0  0  0  0  0  0  0  0  0  0  0
   63.3240   33.7190   48.6900 C   0  0  0  0  0  0  0  0  0  0  0  0
   64.4970   33.0230   49.0220 C   0  0  0  0  0  0  0  0  0  0  0  0
   64.9050   32.9320   50.3580 C   0  0  0  0  0  0  0  0  0  0  0  0
   64.1520   33.5420   51.3670 C   0  0  0  0  0  0  0  0  0  0  0  0
   62.9890   34.2450   51.0430 C   0  0  0  0  0  0  0  0  0  0  0  0
   62.5770   34.3380   49.7090 C   0  0  0  0  0  0  0  0  0  0  0  0
   60.3280   34.1600   47.1130 N   0  0  0  0  0  0  0  0  0  0  0  0
   59.3590   33.9970   48.2080 C   0  0  0  0  0  0  0  0  0  0  0  0
   58.2760   32.9680   47.8400 C   0  0  0  0  0  0  0  0  0  0  0  0
   57.6450   33.2560   46.4650 C   0  0  0  0  0  0  0  0  0  0  0  0
   58.5860   33.1220   45.3170 N   0  0  0  0  0  0  0  0  0  0  0  0
   57.9260   32.4680   44.1640 C   0  0  0  0  0  0  0  0  0  0  0  0
   57.3330   31.1380   44.5610 C   0  0  0  0  0  0  0  0  0  0  0  0
   58.0440   30.2550   45.3920 C   0  0  0  0  0  0  0  0  0  0  0  0
   57.4940   29.0140   45.7360 C   0  0  0  0  0  0  0  0  0  0  0  0
   56.2330   28.6450   45.2550 C   0  0  0  0  0  0  0  0  0  0  0  0
   55.6960   27.4050   45.6020 O   0  0  0  0  0  0  0  0  0  0  0  0
   55.5190   29.5230   44.4250 C   0  0  0  0  0  0  0  0  0  0  0  0
   56.0660   30.7630   44.0780 C   0  0  0  0  0  0  0  0  0  0  0  0
   59.2850   34.3680   44.8960 C   0  0  0  0  0  0  0  0  0  0  0  0
   59.9970   35.1060   46.0390 C   0  0  0  0  0  0  0  0  0  0  0  0
   63.5905   33.2801   46.6177 H   0  0  0  0  0  0  0  0  0  0  0  0
   62.8854   34.9108   46.9868 H   0  0  0  0  0  0  0  0  0  0  0  0
   65.0965   32.5484   48.2312 H   0  0  0  0  0  0  0  0  0  0  0  0
   65.8205   32.3791   50.6153 H   0  0  0  0  0  0  0  0  0  0  0  0
   64.4757   33.4681   52.4157 H   0  0  0  0  0  0  0  0  0  0  0  0
   62.3974   34.7252   51.8363 H   0  0  0  0  0  0  0  0  0  0  0  0
   61.6646   34.8978   49.4557 H   0  0  0  0  0  0  0  0  0  0  0  0
   59.8891   33.6542   49.1089 H   0  0  0  0  0  0  0  0  0  0  0  0
   58.8724   34.9663   48.3913 H   0  0  0  0  0  0  0  0  0  0  0  0
   58.7310   31.9668   47.8185 H   0  0  0  0  0  0  0  0  0  0  0  0
   57.4802   33.0292   48.5969 H   0  0  0  0  0  0  0  0  0  0  0  0
   56.8141   32.5514   46.3131 H   0  0  0  0  0  0  0  0  0  0  0  0
   57.3180   34.3061   46.4827 H   0  0  0  0  0  0  0  0  0  0  0  0
   57.1242   33.1219   43.7905 H   0  0  0  0  0  0  0  0  0  0  0  0
   58.6795   32.2953   43.3815 H   0  0  0  0  0  0  0  0  0  0  0  0
   59.0357   30.5398   45.7733 H   0  0  0  0  0  0  0  0  0  0  0  0
   58.0552   28.3270   46.3865 H   0  0  0  0  0  0  0  0  0  0  0  0
   54.7780   27.3290   46.0210 H   0  0  0  0  0  0  0  0  0  0  0  0
   54.5270   29.2355   44.0464 H   0  0  0  0  0  0  0  0  0  0  0  0
   55.5036   31.4470   43.4254 H   0  0  0  0  0  0  0  0  0  0  0  0
   60.0350   34.1031   44.1361 H   0  0  0  0  0  0  0  0  0  0  0  0
   58.5122   35.0500   44.5117 H   0  0  0  0  0  0  0  0  0  0  0  0
   60.9218   35.5637   45.6578 H   0  0  0  0  0  0  0  0  0  0  0  0
   59.3325   35.8876   46.4359 H   0  0  0  0  0  0  0  0  0  0  0  0
  1  2  2  0
  2  3  1  0
  3  4  1  0
  4  5  2  0
  5  6  1  0
  6  7  2  0
  7  8  1  0
  8  9  2  0
  2 10  1  0
 10 11  1  0
 11 12  1  0
 12 13  1  0
 13 14  1  0
 14 15  1  0
 15 16  1  0
 16 17  2  0
 17 18  1  0
 18 19  2  0
 19 20  1  0
 19 21  1  0
 21 22  2  0
 14 23  1  0
 23 24  1  0
  9  4  1  0
 24 10  1  0
 22 16  1  0
  3 25  1  0
  3 26  1  0
  5 27  1  0
  6 28  1  0
  7 29  1  0
  8 30  1  0
  9 31  1  0
 11 32  1  0
 11 33  1  0
 12 34  1  0
 12 35  1  0
 13 36  1  0
 13 37  1  0
 15 38  1  0
 15 39  1  0
 17 40  1  0
 18 41  1  0
 20 42  1  0
 21 43  1  0
 22 44  1  0
 23 45  1  0
 23 46  1  0
 24 47  1  0
 24 48  1  0
M  END
>  <UniqueID>  (31) 
29

>  <SMILES>  (31) 
O=C(Cc1ccccc1)N1CCCN(Cc2ccc(O)cc2)CC1

>  <Energy>  (31) 
60.10797610901723

>  <Genealogy>  (31) 
O=C(Cc1ccccc1)N1CCCN(Cc2ccc(O)cc2)CC1 (3D coordinates assigned)
O=C(Cc1ccccc1)N1CCCN(Cc2ccc(O)cc2)CC1 (nonaromatic ring conformer: 60.10797610901723 kcal/mol)

>  <smiles>  (31) 
O=C(Cc1ccccc1)N1CCCN(Cc2ccc(O)cc2)CC1

>  <score_type>  (31) 
oracle

>  <origin>  (31) 
adg

>  <m_score__min__energy>  (31) 
-6.5999999999999996

>  <m_primary>  (31) 
energy

$$$$
31:0
     RDKit          3D

 41 42  0  0  0  0  0  0  0  0999 V2000
   55.5330   28.9700   44.9150 N   0  0  0  0  0  0  0  0  0  0  0  0
   56.5910   30.1480   44.2200 S   0  0  0  0  0  0  0  0  0  0  0  0
   56.0520   31.5230   44.4950 O   0  0  0  0  0  0  0  0  0  0  0  0
   56.6670   29.9340   42.7350 O   0  0  0  0  0  0  0  0  0  0  0  0
   58.2190   29.9990   44.9360 C   0  0  0  0  0  0  0  0  0  0  0  0
   58.1800   30.2840   46.4370 C   0  0  0  0  0  0  0  0  0  0  0  0
   59.3850   30.9930   46.8530 N   0  0  0  0  0  0  0  0  0  0  0  0
   60.5850   30.3350   47.2740 C   0  0  0  0  0  0  0  0  0  0  0  0
   61.6870   30.6220   46.7340 O   0  0  0  0  0  0  0  0  0  0  0  0
   60.5270   29.3360   48.3510 C   0  0  0  0  0  0  0  0  0  0  0  0
   60.3700   29.6950   49.9860 S   0  0  0  0  0  0  0  0  0  0  0  0
   60.3630   28.1070   50.5380 C   0  0  0  0  0  0  0  0  0  0  0  0
   60.4880   27.2660   49.4400 C   0  0  0  0  0  0  0  0  0  0  0  0
   60.6100   27.9510   48.2200 C   0  0  0  0  0  0  0  0  0  0  0  0
   60.7310   27.2980   46.9500 N   0  0  0  0  0  0  0  0  0  0  0  0
   59.7490   26.4610   46.3260 C   0  0  0  0  0  0  0  0  0  0  0  0
   59.9980   25.2350   46.1930 O   0  0  0  0  0  0  0  0  0  0  0  0
   58.3770   26.9670   45.9570 C   0  0  0  0  0  0  0  0  0  0  0  0
   57.2770   26.2830   46.7800 C   0  0  0  0  0  0  0  0  0  0  0  0
   56.6180   25.1490   46.0290 C   0  0  0  0  0  0  0  0  0  0  0  0
   57.3590   23.9990   45.7040 C   0  0  0  0  0  0  0  0  0  0  0  0
   56.7610   22.9460   45.0060 C   0  0  0  0  0  0  0  0  0  0  0  0
   55.4150   23.0230   44.6420 C   0  0  0  0  0  0  0  0  0  0  0  0
   54.6660   24.1550   44.9690 C   0  0  0  0  0  0  0  0  0  0  0  0
   55.2600   25.2190   45.6560 C   0  0  0  0  0  0  0  0  0  0  0  0
   54.4970   26.3400   45.9620 O   0  0  0  0  0  0  0  0  0  0  0  0
   54.5760   29.3880   44.9230 H   0  0  0  0  0  0  0  0  0  0  0  0
   58.5927   28.9774   44.7725 H   0  0  0  0  0  0  0  0  0  0  0  0
   58.8840   30.7316   44.4552 H   0  0  0  0  0  0  0  0  0  0  0  0
   57.2991   30.9019   46.6655 H   0  0  0  0  0  0  0  0  0  0  0  0
   58.1236   29.3288   46.9795 H   0  0  0  0  0  0  0  0  0  0  0  0
   60.2747   27.7891   51.5874 H   0  0  0  0  0  0  0  0  0  0  0  0
   60.4912   26.1688   49.5183 H   0  0  0  0  0  0  0  0  0  0  0  0
   58.3363   28.0510   46.1395 H   0  0  0  0  0  0  0  0  0  0  0  0
   58.2022   26.7380   44.8954 H   0  0  0  0  0  0  0  0  0  0  0  0
   57.7227   25.8838   47.7030 H   0  0  0  0  0  0  0  0  0  0  0  0
   56.5044   27.0349   46.9986 H   0  0  0  0  0  0  0  0  0  0  0  0
   58.4158   23.9276   46.0009 H   0  0  0  0  0  0  0  0  0  0  0  0
   57.3512   22.0557   44.7431 H   0  0  0  0  0  0  0  0  0  0  0  0
   54.9445   22.1912   44.0972 H   0  0  0  0  0  0  0  0  0  0  0  0
   53.6047   24.2104   44.6853 H   0  0  0  0  0  0  0  0  0  0  0  0
  1  2  1  0
  2  3  2  0
  2  4  2  0
  2  5  1  0
  5  6  1  0
  6  7  1  0
  7  8  1  0
  8  9  2  0
  8 10  1  0
 10 11  1  0
 11 12  1  0
 12 13  2  0
 13 14  1  0
 14 15  1  0
 15 16  1  0
 16 17  2  0
 16 18  1  0
 18 19  1  0
 19 20  1  0
 20 21  2  0
 21 22  1  0
 22 23  2  0
 23 24  1  0
 24 25  2  0
 25 26  1  0
 14 10  2  0
 25 20  1  0
  1 27  1  0
  5 28  1  0
  5 29  1  0
  6 30  1  0
  6 31  1  0
 12 32  1  0
 13 33  1  0
 18 34  1  0
 18 35  1  0
 19 36  1  0
 19 37  1  0
 21 38  1  0
 22 39  1  0
 23 40  1  0
 24 41  1  0
M  CHG  4   1  -1   7  -1  15  -1  26  -1
M  END
>  <UniqueID>  (32) 
30

>  <SMILES>  (32) 
[NH-]S(=O)(=O)CC[N-]C(=O)c1sccc1[N-]C(=O)CCc1ccccc1[O-]

>  <Energy>  (32) 
56.02143683100238

>  <Genealogy>  (32) 
[NH-]S(=O)(=O)CC[N-]C(=O)c1sccc1[N-]C(=O)CCc1ccccc1[O-] (protonated)
[NH-]S(=O)(=O)CC[N-]C(=O)c1sccc1[N-]C(=O)CCc1ccccc1[O-] (3D coordinates assigned)
[NH-]S(=O)(=O)CC[N-]C(=O)c1sccc1[N-]C(=O)CCc1ccccc1[O-] (optimized conformer: 56.02143683100238 kcal/mol)

>  <smiles>  (32) 
NS(=O)(=O)CCNC(=O)c1sccc1NC(=O)CCc1ccccc1O

>  <score_type>  (32) 
oracle

>  <origin>  (32) 
adg

>  <m_score__min__energy>  (32) 
-17.41

>  <m_primary>  (32) 
energy

$$$$
32:0
     RDKit          3D

 39 40  0  0  0  0  0  0  0  0999 V2000
   55.1050   23.0360   45.0930 C   0  0  0  0  0  0  0  0  0  0  0  0
   55.2210   24.0430   46.1370 N   0  0  0  0  0  0  0  0  0  0  0  0
   55.7580   25.3420   45.8870 C   0  0  0  0  0  0  0  0  0  0  0  0
   54.9980   26.3440   45.9610 O   0  0  0  0  0  0  0  0  0  0  0  0
   57.1270   25.4930   45.6190 O   0  0  0  0  0  0  0  0  0  0  0  0
   57.9790   26.4120   46.2480 C   0  0  0  0  0  0  0  0  0  0  0  0
   57.5010   27.5880   46.8560 C   0  0  0  0  0  0  0  0  0  0  0  0
   58.3910   28.4820   47.4600 C   0  0  0  0  0  0  0  0  0  0  0  0
   59.7690   28.2170   47.4610 C   0  0  0  0  0  0  0  0  0  0  0  0
   60.7350   29.1860   48.0880 C   0  0  0  0  0  0  0  0  0  0  0  0
   61.1850   30.1620   47.1020 N   0  0  0  0  0  0  0  0  0  0  0  0
   60.6880   31.5040   47.0280 C   0  0  0  0  0  0  0  0  0  0  0  0
   61.2910   32.4300   47.6390 O   0  0  0  0  0  0  0  0  0  0  0  0
   59.4720   31.8060   46.2370 C   0  0  0  0  0  0  0  0  0  0  0  0
   58.9800   33.1210   46.1550 C   0  0  0  0  0  0  0  0  0  0  0  0
   57.8310   33.4030   45.4100 C   0  0  0  0  0  0  0  0  0  0  0  0
   57.1640   32.3780   44.7360 C   0  0  0  0  0  0  0  0  0  0  0  0
   57.6440   31.0650   44.7990 C   0  0  0  0  0  0  0  0  0  0  0  0
   56.7940   29.7760   43.9510 S   0  0  0  0  0  0  0  0  0  0  0  0
   55.4590   29.2280   44.9020 N   0  0  0  0  0  0  0  0  0  0  0  0
   57.7370   28.6340   43.7050 O   0  0  0  0  0  0  0  0  0  0  0  0
   56.2720   30.2840   42.6350 O   0  0  0  0  0  0  0  0  0  0  0  0
   58.7910   30.7800   45.5540 C   0  0  0  0  0  0  0  0  0  0  0  0
   60.2470   27.0570   46.8340 C   0  0  0  0  0  0  0  0  0  0  0  0
   59.3560   26.1650   46.2280 C   0  0  0  0  0  0  0  0  0  0  0  0
   54.9906   22.0431   45.5524 H   0  0  0  0  0  0  0  0  0  0  0  0
   54.2261   23.2546   44.4687 H   0  0  0  0  0  0  0  0  0  0  0  0
   56.0106   23.0491   44.4687 H   0  0  0  0  0  0  0  0  0  0  0  0
   56.4226   27.8049   46.8561 H   0  0  0  0  0  0  0  0  0  0  0  0
   58.0090   29.3970   47.9364 H   0  0  0  0  0  0  0  0  0  0  0  0
   60.2364   29.7106   48.9164 H   0  0  0  0  0  0  0  0  0  0  0  0
   61.6063   28.6297   48.4641 H   0  0  0  0  0  0  0  0  0  0  0  0
   59.5029   33.9335   46.6808 H   0  0  0  0  0  0  0  0  0  0  0  0
   57.4518   34.4341   45.3547 H   0  0  0  0  0  0  0  0  0  0  0  0
   56.2584   32.6033   44.1537 H   0  0  0  0  0  0  0  0  0  0  0  0
   55.5510   28.1910   44.9870 H   0  0  0  0  0  0  0  0  0  0  0  0
   59.1619   29.7461   45.6132 H   0  0  0  0  0  0  0  0  0  0  0  0
   61.3268   26.8478   46.8187 H   0  0  0  0  0  0  0  0  0  0  0  0
   59.7411   25.2620   45.7317 H   0  0  0  0  0  0  0  0  0  0  0  0
  1  2  1  0
  2  3  1  0
  3  4  2  0
  3  5  1  0
  5  6  1  0
  6  7  2  0
  7  8  1  0
  8  9  2  0
  9 10  1  0
 10 11  1  0
 11 12  1  0
 12 13  2  0
 12 14  1  0
 14 15  2  0
 15 16  1  0
 16 17  2  0
 17 18  1  0
 18 19  1  0
 19 20  1  0
 19 21  2  0
 19 22  2  0
 18 23  2  0
  9 24  1  0
 24 25  2  0
 25  6  1  0
 23 14  1  0
  1 26  1  0
  1 27  1  0
  1 28  1  0
  7 29  1  0
  8 30  1  0
 10 31  1  0
 10 32  1  0
 15 33  1  0
 16 34  1  0
 17 35  1  0
 20 36  1  0
 23 37  1  0
 24 38  1  0
 25 39  1  0
M  CHG  3   2  -1  11  -1  20  -1
M  END
>  <UniqueID>  (33) 
31

>  <SMILES>  (33) 
C[N-]C(=O)Oc1ccc(C[N-]C(=O)c2cccc(S([NH-])(=O)=O)c2)cc1

>  <Energy>  (33) 
38.76286540806611

>  <Genealogy>  (33) 
C[N-]C(=O)Oc1ccc(C[N-]C(=O)c2cccc(S([NH-])(=O)=O)c2)cc1 (protonated)
C[N-]C(=O)Oc1ccc(C[N-]C(=O)c2cccc(S([NH-])(=O)=O)c2)cc1 (3D coordinates assigned)
C[N-]C(=O)Oc1ccc(C[N-]C(=O)c2cccc(S([NH-])(=O)=O)c2)cc1 (optimized conformer: 38.76286540806611 kcal/mol)

>  <smiles>  (33) 
CNC(=O)Oc1ccc(CNC(=O)c2cccc(S(N)(=O)=O)c2)cc1

>  <score_type>  (33) 
oracle

>  <origin>  (33) 
adg

>  <m_score__min__energy>  (33) 
-12.99

>  <m_primary>  (33) 
energy

$$$$
33:0
     RDKit          3D

 43 45  0  0  0  0  0  0  0  0999 V2000
   58.5170   30.9000   47.9900 O   0  0  0  0  0  0  0  0  0  0  0  0
   59.1540   31.2580   46.9620 C   0  0  0  0  0  0  0  0  0  0  0  0
   59.2370   30.3310   45.7870 C   0  0  0  0  0  0  0  0  0  0  0  0
   58.6130   28.9990   46.1070 C   0  0  0  0  0  0  0  0  0  0  0  0
   59.3570   27.9910   46.7190 C   0  0  0  0  0  0  0  0  0  0  0  0
   58.3890   26.6340   46.9020 S   0  0  0  0  0  0  0  0  0  0  0  0
   57.0040   27.3090   46.2290 C   0  0  0  0  0  0  0  0  0  0  0  0
   55.7830   26.6040   45.9650 N   0  0  0  0  0  0  0  0  0  0  0  0
   55.5960   25.1830   45.9790 C   0  0  0  0  0  0  0  0  0  0  0  0
   55.5330   24.5950   47.0910 O   0  0  0  0  0  0  0  0  0  0  0  0
   55.4810   24.3850   44.7070 C   0  0  0  0  0  0  0  0  0  0  0  0
   56.6860   23.5000   44.5000 C   0  0  0  0  0  0  0  0  0  0  0  0
   57.8300   23.6880   45.2950 C   0  0  0  0  0  0  0  0  0  0  0  0
   58.9440   22.8580   45.1370 C   0  0  0  0  0  0  0  0  0  0  0  0
   58.9240   21.8300   44.1920 C   0  0  0  0  0  0  0  0  0  0  0  0
   57.7880   21.6250   43.4070 C   0  0  0  0  0  0  0  0  0  0  0  0
   56.6670   22.4500   43.5590 C   0  0  0  0  0  0  0  0  0  0  0  0
   55.5410   22.2190   42.7750 O   0  0  0  0  0  0  0  0  0  0  0  0
   57.2810   28.6100   45.8020 C   0  0  0  0  0  0  0  0  0  0  0  0
   56.2770   29.4580   45.1100 C   0  0  0  0  0  0  0  0  0  0  0  0
   55.1440   28.9910   44.8200 O   0  0  0  0  0  0  0  0  0  0  0  0
   56.5650   30.7680   44.7540 O   0  0  0  0  0  0  0  0  0  0  0  0
   59.8430   32.5190   46.9150 N   0  0  0  0  0  0  0  0  0  0  0  0
   61.1160   32.7270   47.0890 C   0  0  0  0  0  0  0  0  0  0  0  0
   61.7980   33.6120   46.3050 N   0  0  0  0  0  0  0  0  0  0  0  0
   63.1270   33.8470   46.4660 C   0  0  0  0  0  0  0  0  0  0  0  0
   63.8400   33.1720   47.4560 C   0  0  0  0  0  0  0  0  0  0  0  0
   63.1740   32.2600   48.2750 C   0  0  0  0  0  0  0  0  0  0  0  0
   61.8070   32.0280   48.0980 C   0  0  0  0  0  0  0  0  0  0  0  0
   61.1620   31.1060   48.9270 O   0  0  0  0  0  0  0  0  0  0  0  0
   58.7068   30.7815   44.9350 H   0  0  0  0  0  0  0  0  0  0  0  0
   60.2970   30.1717   45.5399 H   0  0  0  0  0  0  0  0  0  0  0  0
   60.4086   28.0727   47.0312 H   0  0  0  0  0  0  0  0  0  0  0  0
   54.5801   23.7561   44.7595 H   0  0  0  0  0  0  0  0  0  0  0  0
   55.4187   25.0873   43.8627 H   0  0  0  0  0  0  0  0  0  0  0  0
   57.8489   24.4922   46.0452 H   0  0  0  0  0  0  0  0  0  0  0  0
   59.8380   23.0151   45.7583 H   0  0  0  0  0  0  0  0  0  0  0  0
   59.8036   21.1816   44.0662 H   0  0  0  0  0  0  0  0  0  0  0  0
   57.7735   20.8121   42.6661 H   0  0  0  0  0  0  0  0  0  0  0  0
   63.6403   34.5700   45.8150 H   0  0  0  0  0  0  0  0  0  0  0  0
   64.9161   33.3566   47.5898 H   0  0  0  0  0  0  0  0  0  0  0  0
   63.7252   31.7229   49.0609 H   0  0  0  0  0  0  0  0  0  0  0  0
   60.1590   30.9720   48.9090 H   0  0  0  0  0  0  0  0  0  0  0  0
  1  2  2  0
  2  3  1  0
  3  4  1  0
  4  5  2  0
  5  6  1  0
  6  7  1  0
  7  8  1  0
  8  9  1  0
  9 10  2  0
  9 11  1  0
 11 12  1  0
 12 13  2  0
 13 14  1  0
 14 15  2  0
 15 16  1  0
 16 17  2  0
 17 18  1  0
  7 19  2  0
 19 20  1  0
 20 21  2  0
 20 22  1  0
  2 23  1  0
 23 24  2  3
 24 25  1  0
 25 26  1  0
 26 27  2  0
 27 28  1  0
 28 29  2  0
 29 30  1  0
 19  4  1  0
 29 24  1  0
 17 12  1  0
  3 31  1  0
  3 32  1  0
  5 33  1  0
 11 34  1  0
 11 35  1  0
 13 36  1  0
 14 37  1  0
 15 38  1  0
 16 39  1  0
 26 40  1  0
 27 41  1  0
 28 42  1  0
 30 43  1  0
M  CHG  4   8  -1  18  -1  22  -1  25  -1
M  END
>  <UniqueID>  (34) 
32

>  <SMILES>  (34) 
O=C(Cc1csc([N-]C(=O)Cc2ccccc2[O-])c1C(=O)[O-])N=c1[n-]cccc1O

>  <Energy>  (34) 
80.56500381157403

>  <Genealogy>  (34) 
O=C(Cc1csc([N-]C(=O)Cc2ccccc2[O-])c1C(=O)[O-])N=c1[n-]cccc1O (protonated)
O=C(Cc1csc([N-]C(=O)Cc2ccccc2[O-])c1C(=O)[O-])N=c1[n-]cccc1O (3D coordinates assigned)
O=C(Cc1csc([N-]C(=O)Cc2ccccc2[O-])c1C(=O)[O-])N=c1[n-]cccc1O (optimized conformer: 80.56500381157403 kcal/mol)

>  <smiles>  (34) 
O=C(Cc1csc(NC(=O)Cc2ccccc2O)c1C(=O)O)N=c1[nH]cccc1O

>  <score_type>  (34) 
oracle

>  <origin>  (34) 
adg

>  <m_score__min__energy>  (34) 
-15.67

>  <m_primary>  (34) 
energy

$$$$
34:0
     RDKit          3D

 36 38  0  0  0  0  0  0  0  0999 V2000
   55.1590   29.3870   44.7300 O   0  0  0  0  0  0  0  0  0  0  0  0
   56.4000   29.5090   44.5680 C   0  0  0  0  0  0  0  0  0  0  0  0
   57.2130   28.3290   44.4940 N   0  0  0  0  0  0  0  0  0  0  0  0
   58.2850   28.0720   45.1900 C   0  0  0  0  0  0  0  0  0  0  0  0
   58.1610   27.2990   46.3520 C   0  0  0  0  0  0  0  0  0  0  0  0
   59.2910   27.0130   47.1210 C   0  0  0  0  0  0  0  0  0  0  0  0
   60.5100   27.4920   46.7530 N   0  0  0  0  0  0  0  0  0  0  0  0
   60.6610   28.2590   45.6400 C   0  0  0  0  0  0  0  0  0  0  0  0
   59.5570   28.5690   44.8420 C   0  0  0  0  0  0  0  0  0  0  0  0
   56.9710   30.8530   44.3730 C   0  0  0  0  0  0  0  0  0  0  0  0
   57.7020   31.2850   43.2800 C   0  0  0  0  0  0  0  0  0  0  0  0
   58.0110   32.6050   43.5330 C   0  0  0  0  0  0  0  0  0  0  0  0
   57.4420   32.8930   44.7590 C   0  0  0  0  0  0  0  0  0  0  0  0
   57.5000   34.2140   45.4590 C   0  0  0  0  0  0  0  0  0  0  0  0
   58.2250   34.1020   46.6840 O   0  0  0  0  0  0  0  0  0  0  0  0
   59.4900   33.5080   46.8260 C   0  0  0  0  0  0  0  0  0  0  0  0
   60.6900   34.2150   46.6110 C   0  0  0  0  0  0  0  0  0  0  0  0
   61.9230   33.5730   46.7630 C   0  0  0  0  0  0  0  0  0  0  0  0
   61.9720   32.2260   47.1310 C   0  0  0  0  0  0  0  0  0  0  0  0
   63.1700   31.6070   47.2780 F   0  0  0  0  0  0  0  0  0  0  0  0
   60.7870   31.5190   47.3500 C   0  0  0  0  0  0  0  0  0  0  0  0
   59.5510   32.1580   47.2000 C   0  0  0  0  0  0  0  0  0  0  0  0
   58.4080   31.4590   47.4130 F   0  0  0  0  0  0  0  0  0  0  0  0
   56.8310   31.8340   45.2360 O   0  0  0  0  0  0  0  0  0  0  0  0
   57.1754   26.9181   46.6579 H   0  0  0  0  0  0  0  0  0  0  0  0
   59.1951   26.3980   48.0279 H   0  0  0  0  0  0  0  0  0  0  0  0
   61.3450   27.2700   47.3390 H   0  0  0  0  0  0  0  0  0  0  0  0
   61.6572   28.6371   45.3668 H   0  0  0  0  0  0  0  0  0  0  0  0
   59.6798   29.1972   43.9474 H   0  0  0  0  0  0  0  0  0  0  0  0
   57.9793   30.6969   42.3927 H   0  0  0  0  0  0  0  0  0  0  0  0
   58.5898   33.2866   42.8924 H   0  0  0  0  0  0  0  0  0  0  0  0
   58.0004   34.9463   44.8084 H   0  0  0  0  0  0  0  0  0  0  0  0
   56.4742   34.5423   45.6826 H   0  0  0  0  0  0  0  0  0  0  0  0
   60.6566   35.2760   46.3225 H   0  0  0  0  0  0  0  0  0  0  0  0
   62.8563   34.1297   46.5925 H   0  0  0  0  0  0  0  0  0  0  0  0
   60.8256   30.4588   47.6407 H   0  0  0  0  0  0  0  0  0  0  0  0
  1  2  2  0
  2  3  1  0
  3  4  2  3
  4  5  1  0
  5  6  2  0
  6  7  1  0
  7  8  1  0
  8  9  2  0
  2 10  1  0
 10 11  2  0
 11 12  1  0
 12 13  2  0
 13 14  1  0
 14 15  1  0
 15 16  1  0
 16 17  2  0
 17 18  1  0
 18 19  2  0
 19 20  1  0
 19 21  1  0
 21 22  2  0
 22 23  1  0
 13 24  1  0
  9  4  1  0
 24 10  1  0
 22 16  1  0
  5 25  1  0
  6 26  1  0
  7 27  1  0
  8 28  1  0
  9 29  1  0
 11 30  1  0
 12 31  1  0
 14 32  1  0
 14 33  1  0
 17 34  1  0
 18 35  1  0
 21 36  1  0
M  END
>  <UniqueID>  (35) 
33

>  <SMILES>  (35) 
O=C(N=c1cc[nH]cc1)c1ccc(COc2ccc(F)cc2F)o1

>  <Energy>  (35) 
72.5878497407941

>  <Genealogy>  (35) 
O=C(N=c1cc[nH]cc1)c1ccc(COc2ccc(F)cc2F)o1 (3D coordinates assigned)
O=C(N=c1cc[nH]cc1)c1ccc(COc2ccc(F)cc2F)o1 (optimized conformer: 72.5878497407941 kcal/mol)

>  <smiles>  (35) 
O=C(N=c1cc[nH]cc1)c1ccc(COc2ccc(F)cc2F)o1

>  <score_type>  (35) 
oracle

>  <origin>  (35) 
adg

>  <m_score__min__energy>  (35) 
-8.2100000000000009

>  <m_primary>  (35) 
energy

$$$$
35:0
     RDKit          3D

 50 52  0  0  1  0  0  0  0  0999 V2000
   56.9540   24.1540   43.4420 C   0  0  0  0  0  0  0  0  0  0  0  0
   56.9650   24.5010   44.7180 C   0  0  0  0  0  0  0  0  0  0  0  0
   57.9070   25.4690   45.2560 C   0  0  0  0  0  0  0  0  0  0  0  0
   58.9020   25.1060   45.9700 O   0  0  0  0  0  0  0  0  0  0  0  0
   57.7970   26.8690   45.0340 N   0  0  0  0  0  0  0  0  0  0  0  0
   58.7290   27.8080   45.5690 C   0  0  0  0  0  0  0  0  0  0  0  0
   59.5800   28.4220   44.6800 C   0  0  0  0  0  0  0  0  0  0  0  0
   60.4800   29.3270   45.1930 C   0  0  0  0  0  0  0  0  0  0  0  0
   60.5100   29.5930   46.5430 C   0  0  0  0  0  0  0  0  0  0  0  0
   59.6710   28.9960   47.4690 C   0  0  0  0  0  0  0  0  0  0  0  0
   59.7110   29.2810   48.9280 C   0  0  0  0  0  0  0  0  0  0  0  0
   57.7720   33.7910   46.4770 N   0  0  0  0  0  0  0  0  0  0  0  0
   58.4580   33.3330   47.4920 C   0  0  0  0  0  0  0  0  0  0  0  0
   58.3660   32.0510   47.8870 N   0  0  0  0  0  0  0  0  0  0  0  0
   59.0890   31.6390   48.9280 C   0  0  0  0  0  0  0  0  0  0  0  0
   59.0300   30.4470   49.3280 N   0  0  0  0  0  0  0  0  0  0  0  0
   57.8270   33.1510   45.2070 C   0  0  0  0  0  0  0  0  0  0  0  0
   58.5110   33.6720   44.1270 C   0  0  0  0  0  0  0  0  0  0  0  0
   58.4770   32.9420   42.9590 C   0  0  0  0  0  0  0  0  0  0  0  0
   57.7970   31.7400   42.8490 C   0  0  0  0  0  0  0  0  0  0  0  0
   57.1150   31.2230   43.9330 C   0  0  0  0  0  0  0  0  0  0  0  0
   56.2340   29.7110   43.8640 S   0  0  0  0  0  0  0  0  0  0  0  0
   57.0230   28.6300   42.7940 N   0  0  0  0  0  0  0  0  0  0  0  0
   54.8320   29.9700   43.4120 O   0  0  0  0  0  0  0  0  0  0  0  0
   56.2410   29.1150   45.2400 O   0  0  0  0  0  0  0  0  0  0  0  0
   57.1350   31.9380   45.1140 C   0  0  0  0  0  0  0  0  0  0  0  0
   59.2550   34.2370   48.1030 N   0  0  0  0  0  0  0  0  0  0  0  0
   59.9760   33.8060   49.1500 C   0  0  0  0  0  0  0  0  0  0  0  0
   59.9190   32.5100   49.5940 C   0  0  0  0  0  0  0  0  0  0  0  0
   60.8700   32.0280   50.9390 Cl  0  0  0  0  0  0  0  0  0  0  0  0
   58.7680   28.0860   46.9440 C   0  0  0  0  0  0  0  0  0  0  0  0
   56.2227   23.4169   43.0788 H   0  0  0  0  0  0  0  0  0  0  0  0
   57.6761   24.6024   42.7438 H   0  0  0  0  0  0  0  0  0  0  0  0
   56.2338   24.0398   45.3981 H   0  0  0  0  0  0  0  0  0  0  0  0
   57.0120   27.2500   44.4620 H   0  0  0  0  0  0  0  0  0  0  0  0
   59.5425   28.1987   43.6036 H   0  0  0  0  0  0  0  0  0  0  0  0
   61.1808   29.8418   44.5193 H   0  0  0  0  0  0  0  0  0  0  0  0
   61.2454   30.3246   46.9089 H   0  0  0  0  0  0  0  0  0  0  0  0
   59.2614   28.4263   49.4546 H   0  0  0  0  0  0  0  0  0  0  0  0
   60.7695   29.4431   49.1795 H   0  0  0  0  0  0  0  0  0  0  0  0
   57.7210   31.4420   47.3440 H   0  0  0  0  0  0  0  0  0  0  0  0
   59.0571   34.6244   44.1957 H   0  0  0  0  0  0  0  0  0  0  0  0
   59.0111   33.3290   42.0787 H   0  0  0  0  0  0  0  0  0  0  0  0
   57.8003   31.1947   41.8937 H   0  0  0  0  0  0  0  0  0  0  0  0
   56.8860   27.6370   43.0860 H   0  0  0  0  0  0  0  0  0  0  0  0
   58.0720   28.7710   42.8520 H   0  0  0  0  0  0  0  0  0  0  0  0
   56.6002   31.5493   45.9931 H   0  0  0  0  0  0  0  0  0  0  0  0
   59.3030   35.2240   47.7730 H   0  0  0  0  0  0  0  0  0  0  0  0
   60.6352   34.5169   49.6696 H   0  0  0  0  0  0  0  0  0  0  0  0
   58.0677   27.5712   47.6182 H   0  0  0  0  0  0  0  0  0  0  0  0
  1  2  2  0
  2  3  1  0
  3  4  2  0
  3  5  1  0
  5  6  1  0
  6  7  2  0
  7  8  1  0
  8  9  2  0
  9 10  1  0
 10 11  1  0
 11 12  1  0
 12 13  2  0
 13 14  1  0
 14 15  1  0
 15 16  2  0
 16 17  1  0
 17 18  2  0
 18 19  1  0
 19 20  2  0
 20 21  1  0
 21 22  1  0
 22 23  1  0
 22 24  2  0
 22 25  2  0
 21 26  2  0
 15 27  1  0
 27 28  1  0
 28 29  2  0
 29 30  1  0
 10 31  2  0
 31  6  1  0
 29 13  1  0
 26 17  1  0
  1 32  1  0
  1 33  1  0
  2 34  1  0
  5 35  1  0
  7 36  1  0
  8 37  1  0
  9 38  1  0
 11 39  1  0
 11 40  1  0
 14 41  1  0
 18 42  1  0
 19 43  1  0
 20 44  1  0
 23 45  1  0
 23 46  1  0
 26 47  1  0
 27 48  1  0
 28 49  1  0
 31 50  1  0
M  END
>  <smiles>  (36) 
C=CC(=O)Nc1cccc(CN=c2[nH]c(=Nc3cccc(S(N)(=O)=O)c3)[nH]cc2Cl)c1

>  <score_type>  (36) 
oracle

>  <origin>  (36) 
adg

>  <m_score__min__energy>  (36) 
-9.9100000000000001

>  <m_primary>  (36) 
energy

$$$$
36:0
     RDKit          3D

 33 35  0  0  0  0  0  0  0  0999 V2000
   63.1920   33.5700   47.8040 C   0  0  0  0  0  0  0  0  0  0  0  0
   61.8440   33.5570   48.4740 C   0  0  0  0  0  0  0  0  0  0  0  0
   61.7990   33.5210   49.8790 C   0  0  0  0  0  0  0  0  0  0  0  0
   60.5780   33.4710   50.5520 C   0  0  0  0  0  0  0  0  0  0  0  0
   59.3870   33.4510   49.8330 C   0  0  0  0  0  0  0  0  0  0  0  0
   59.4090   33.5040   48.4390 C   0  0  0  0  0  0  0  0  0  0  0  0
   60.6270   33.5980   47.7370 C   0  0  0  0  0  0  0  0  0  0  0  0
   60.5840   33.6580   46.2180 C   0  0  0  0  0  0  0  0  0  0  0  0
   59.2760   33.1660   45.6350 C   0  0  0  0  0  0  0  0  0  0  0  0
   58.3930   34.0320   45.0970 N   0  0  0  0  0  0  0  0  0  0  0  0
   57.3220   33.3080   44.7610 C   0  0  0  0  0  0  0  0  0  0  0  0
   57.5690   31.9980   45.0870 C   0  0  0  0  0  0  0  0  0  0  0  0
   56.6450   31.0330   44.8920 N   0  0  0  0  0  0  0  0  0  0  0  0
   56.6460   29.7100   45.1530 C   0  0  0  0  0  0  0  0  0  0  0  0
   55.6010   29.0620   44.8770 O   0  0  0  0  0  0  0  0  0  0  0  0
   57.7080   29.0040   45.7000 C   0  0  0  0  0  0  0  0  0  0  0  0
   58.9710   29.4620   46.0480 C   0  0  0  0  0  0  0  0  0  0  0  0
   59.4990   30.7530   46.0010 C   0  0  0  0  0  0  0  0  0  0  0  0
   60.7100   30.8520   46.3280 O   0  0  0  0  0  0  0  0  0  0  0  0
   58.8110   31.8740   45.6230 N   0  0  0  0  0  0  0  0  0  0  0  0
   63.9819   33.5776   48.5695 H   0  0  0  0  0  0  0  0  0  0  0  0
   63.2982   32.6728   47.1765 H   0  0  0  0  0  0  0  0  0  0  0  0
   63.2809   34.4690   47.1765 H   0  0  0  0  0  0  0  0  0  0  0  0
   62.7368   33.5324   50.4537 H   0  0  0  0  0  0  0  0  0  0  0  0
   60.5569   33.4474   51.6515 H   0  0  0  0  0  0  0  0  0  0  0  0
   58.4259   33.3933   50.3648 H   0  0  0  0  0  0  0  0  0  0  0  0
   58.4621   33.4720   47.8801 H   0  0  0  0  0  0  0  0  0  0  0  0
   60.7346   34.7019   45.9056 H   0  0  0  0  0  0  0  0  0  0  0  0
   61.3772   32.9942   45.8436 H   0  0  0  0  0  0  0  0  0  0  0  0
   58.5020   35.0640   44.9840 H   0  0  0  0  0  0  0  0  0  0  0  0
   56.4004   33.6952   44.3019 H   0  0  0  0  0  0  0  0  0  0  0  0
   57.5236   27.9351   45.8828 H   0  0  0  0  0  0  0  0  0  0  0  0
   59.6614   28.6894   46.4173 H   0  0  0  0  0  0  0  0  0  0  0  0
  1  2  1  0
  2  3  2  0
  3  4  1  0
  4  5  2  0
  5  6  1  0
  6  7  2  0
  7  8  1  0
  8  9  1  0
  9 10  2  0
 10 11  1  0
 11 12  2  0
 12 13  1  0
 13 14  1  0
 14 15  2  0
 14 16  1  0
 16 17  2  0
 17 18  1  0
 18 19  2  0
 18 20  1  0
  7  2  1  0
 20  9  1  0
 20 12  1  0
  1 21  1  0
  1 22  1  0
  1 23  1  0
  3 24  1  0
  4 25  1  0
  5 26  1  0
  6 27  1  0
  8 28  1  0
  8 29  1  0
 10 30  1  0
 11 31  1  0
 16 32  1  0
 17 33  1  0
M  CHG  2  10   1  13  -1
M  END
>  <UniqueID>  (37) 
34

>  <SMILES>  (37) 
Cc1ccccc1Cc1[nH+]cc2[n-]c(=O)ccc(=O)n12

>  <Energy>  (37) 
90.472673487976

>  <Genealogy>  (37) 
Cc1ccccc1Cc1[nH+]cc2[n-]c(=O)ccc(=O)n12 (protonated)
Cc1ccccc1Cc1[nH+]cc2[n-]c(=O)ccc(=O)n12 (3D coordinates assigned)
Cc1ccccc1Cc1[nH+]cc2[n-]c(=O)ccc(=O)n12 (optimized conformer: 90.472673487976 kcal/mol)

>  <smiles>  (37) 
Cc1ccccc1Cc1ncc2[nH]c(=O)ccc(=O)n12

>  <score_type>  (37) 
oracle

>  <origin>  (37) 
adg

>  <m_score__min__energy>  (37) 
-7.4800000000000004

>  <m_primary>  (37) 
energy

$$$$
37:0
     RDKit          3D

 31 32  0  0  0  0  0  0  0  0999 V2000
   63.3700   33.0450   49.1440 C   0  0  0  0  0  0  0  0  0  0  0  0
   61.9580   33.4330   48.7880 C   0  0  0  0  0  0  0  0  0  0  0  0
   60.9830   33.4320   49.8000 C   0  0  0  0  0  0  0  0  0  0  0  0
   59.6630   33.7710   49.5140 C   0  0  0  0  0  0  0  0  0  0  0  0
   59.2930   34.1070   48.2150 C   0  0  0  0  0  0  0  0  0  0  0  0
   60.2420   34.1220   47.1870 C   0  0  0  0  0  0  0  0  0  0  0  0
   59.6700   34.5230   45.5270 S   0  0  0  0  0  0  0  0  0  0  0  0
   58.7450   32.9980   45.3760 C   0  0  0  0  0  0  0  0  0  0  0  0
   57.7350   32.8770   44.4180 C   0  0  0  0  0  0  0  0  0  0  0  0
   57.0220   31.6820   44.3240 C   0  0  0  0  0  0  0  0  0  0  0  0
   57.3200   30.6090   45.1830 C   0  0  0  0  0  0  0  0  0  0  0  0
   56.5700   29.3350   45.0940 C   0  0  0  0  0  0  0  0  0  0  0  0
   55.1630   29.3380   44.8590 N   0  0  0  0  0  0  0  0  0  0  0  0
   57.1690   28.2340   45.2240 O   0  0  0  0  0  0  0  0  0  0  0  0
   58.3490   30.7780   46.1270 C   0  0  0  0  0  0  0  0  0  0  0  0
   59.0280   31.9540   46.1980 N   0  0  0  0  0  0  0  0  0  0  0  0
   61.5990   33.8220   47.4700 C   0  0  0  0  0  0  0  0  0  0  0  0
   62.6350   33.8400   46.3670 C   0  0  0  0  0  0  0  0  0  0  0  0
   63.4773   33.0155   50.2384 H   0  0  0  0  0  0  0  0  0  0  0  0
   63.5937   32.0521   48.7268 H   0  0  0  0  0  0  0  0  0  0  0  0
   64.0697   33.7842   48.7268 H   0  0  0  0  0  0  0  0  0  0  0  0
   61.2652   33.1608   50.8280 H   0  0  0  0  0  0  0  0  0  0  0  0
   58.9109   33.7732   50.3167 H   0  0  0  0  0  0  0  0  0  0  0  0
   58.2461   34.3628   47.9948 H   0  0  0  0  0  0  0  0  0  0  0  0
   57.5046   33.7158   43.7447 H   0  0  0  0  0  0  0  0  0  0  0  0
   56.2232   31.5783   43.5749 H   0  0  0  0  0  0  0  0  0  0  0  0
   54.4860   29.3630   45.6530 H   0  0  0  0  0  0  0  0  0  0  0  0
   58.6055   29.9554   46.8107 H   0  0  0  0  0  0  0  0  0  0  0  0
   63.6418   33.8575   46.8098 H   0  0  0  0  0  0  0  0  0  0  0  0
   62.5237   32.9398   45.7447 H   0  0  0  0  0  0  0  0  0  0  0  0
   62.4925   34.7358   45.7447 H   0  0  0  0  0  0  0  0  0  0  0  0
  1  2  1  0
  2  3  2  0
  3  4  1  0
  4  5  2  0
  5  6  1  0
  6  7  1  0
  7  8  1  0
  8  9  2  0
  9 10  1  0
 10 11  2  0
 11 12  1  0
 12 13  1  0
 12 14  2  0
 11 15  1  0
 15 16  2  0
  6 17  2  0
 17 18  1  0
 17  2  1  0
 16  8  1  0
  1 19  1  0
  1 20  1  0
  1 21  1  0
  3 22  1  0
  4 23  1  0
  5 24  1  0
  9 25  1  0
 10 26  1  0
 13 27  1  0
 15 28  1  0
 18 29  1  0
 18 30  1  0
 18 31  1  0
M  CHG  1  13  -1
M  END
>  <UniqueID>  (38) 
35

>  <SMILES>  (38) 
Cc1cccc(Sc2ccc(C([NH-])=O)cn2)c1C

>  <Energy>  (38) 
30.173365315828157

>  <Genealogy>  (38) 
Cc1cccc(Sc2ccc(C([NH-])=O)cn2)c1C (protonated)
Cc1cccc(Sc2ccc(C([NH-])=O)cn2)c1C (3D coordinates assigned)
Cc1cccc(Sc2ccc(C([NH-])=O)cn2)c1C (optimized conformer: 30.173365315828157 kcal/mol)

>  <smiles>  (38) 
Cc1cccc(Sc2ccc(C(N)=O)cn2)c1C

>  <score_type>  (38) 
oracle

>  <origin>  (38) 
adg

>  <m_score__min__energy>  (38) 
-10.199999999999999

>  <m_primary>  (38) 
energy

$$$$
38:0
     RDKit          3D

 44 46  0  0  0  0  0  0  0  0999 V2000
   57.4230   24.3570   45.7960 C   0  0  0  0  0  0  0  0  0  0  0  0
   57.9650   25.4320   46.5560 O   0  0  0  0  0  0  0  0  0  0  0  0
   58.2680   26.7010   46.0380 C   0  0  0  0  0  0  0  0  0  0  0  0
   59.5960   27.1300   45.8510 C   0  0  0  0  0  0  0  0  0  0  0  0
   59.8630   28.3970   45.3360 C   0  0  0  0  0  0  0  0  0  0  0  0
   58.8130   29.2510   44.9930 C   0  0  0  0  0  0  0  0  0  0  0  0
   57.4810   28.8420   45.1600 C   0  0  0  0  0  0  0  0  0  0  0  0
   56.3820   29.7580   44.7740 C   0  0  0  0  0  0  0  0  0  0  0  0
   55.1880   29.3650   44.8670 O   0  0  0  0  0  0  0  0  0  0  0  0
   56.6310   31.1070   44.3540 N   0  0  0  0  0  0  0  0  0  0  0  0
   57.4370   32.0810   45.0380 C   0  0  0  0  0  0  0  0  0  0  0  0
   57.8770   33.2070   44.3320 C   0  0  0  0  0  0  0  0  0  0  0  0
   58.6940   34.1560   44.9540 C   0  0  0  0  0  0  0  0  0  0  0  0
   59.0820   33.9820   46.2840 C   0  0  0  0  0  0  0  0  0  0  0  0
   58.6530   32.8580   47.0010 C   0  0  0  0  0  0  0  0  0  0  0  0
   59.1130   32.6700   48.6930 S   0  0  0  0  0  0  0  0  0  0  0  0
   57.8910   32.3130   49.4910 O   0  0  0  0  0  0  0  0  0  0  0  0
   59.6740   33.9590   49.2260 O   0  0  0  0  0  0  0  0  0  0  0  0
   60.3030   31.4160   48.8820 N   0  0  0  0  0  0  0  0  0  0  0  0
   61.0490   31.2030   47.6400 C   0  0  0  0  0  0  0  0  0  0  0  0
   62.1130   32.2460   47.5000 C   0  0  0  0  0  0  0  0  0  0  0  0
   63.1740   32.4410   48.3590 C   0  0  0  0  0  0  0  0  0  0  0  0
   63.8830   33.5010   47.8380 C   0  0  0  0  0  0  0  0  0  0  0  0
   63.2160   33.8810   46.6920 C   0  0  0  0  0  0  0  0  0  0  0  0
   62.1660   33.1130   46.5150 O   0  0  0  0  0  0  0  0  0  0  0  0
   57.8480   31.9000   46.3710 C   0  0  0  0  0  0  0  0  0  0  0  0
   57.2090   27.5640   45.6920 C   0  0  0  0  0  0  0  0  0  0  0  0
   55.8840   27.1530   45.8530 O   0  0  0  0  0  0  0  0  0  0  0  0
   57.0342   23.5858   46.4772 H   0  0  0  0  0  0  0  0  0  0  0  0
   56.6061   24.7317   45.1618 H   0  0  0  0  0  0  0  0  0  0  0  0
   58.2100   23.9230   45.1618 H   0  0  0  0  0  0  0  0  0  0  0  0
   60.4284   26.4604   46.1132 H   0  0  0  0  0  0  0  0  0  0  0  0
   60.9039   28.7253   45.1993 H   0  0  0  0  0  0  0  0  0  0  0  0
   59.0312   30.2507   44.5893 H   0  0  0  0  0  0  0  0  0  0  0  0
   57.5784   33.3459   43.2824 H   0  0  0  0  0  0  0  0  0  0  0  0
   59.0316   35.0410   44.3947 H   0  0  0  0  0  0  0  0  0  0  0  0
   59.7262   34.7296   46.7698 H   0  0  0  0  0  0  0  0  0  0  0  0
   61.5151   30.2069   47.6607 H   0  0  0  0  0  0  0  0  0  0  0  0
   60.3588   31.2727   46.7863 H   0  0  0  0  0  0  0  0  0  0  0  0
   63.4058   31.8695   49.2699 H   0  0  0  0  0  0  0  0  0  0  0  0
   64.7964   33.9530   48.2521 H   0  0  0  0  0  0  0  0  0  0  0  0
   63.5182   34.7033   46.0268 H   0  0  0  0  0  0  0  0  0  0  0  0
   57.5354   31.0008   46.9221 H   0  0  0  0  0  0  0  0  0  0  0  0
   55.1330   27.4960   45.2660 H   0  0  0  0  0  0  0  0  0  0  0  0
  1  2  1  0
  2  3  1  0
  3  4  2  0
  4  5  1  0
  5  6  2  0
  6  7  1  0
  7  8  1  0
  8  9  2  0
  8 10  1  0
 10 11  1  0
 11 12  2  0
 12 13  1  0
 13 14  2  0
 14 15  1  0
 15 16  1  0
 16 17  2  0
 16 18  2  0
 16 19  1  0
 19 20  1  0
 20 21  1  0
 21 22  2  0
 22 23  1  0
 23 24  2  0
 24 25  1  0
 15 26  2  0
  7 27  2  0
 27 28  1  0
 27  3  1  0
 26 11  1  0
 25 21  1  0
  1 29  1  0
  1 30  1  0
  1 31  1  0
  4 32  1  0
  5 33  1  0
  6 34  1  0
 12 35  1  0
 13 36  1  0
 14 37  1  0
 20 38  1  0
 20 39  1  0
 22 40  1  0
 23 41  1  0
 24 42  1  0
 26 43  1  0
 28 44  1  0
M  CHG  2  10  -1  19  -1
M  END
>  <UniqueID>  (39) 
36

>  <SMILES>  (39) 
COc1cccc(C(=O)[N-]c2cccc(S(=O)(=O)[N-]Cc3ccco3)c2)c1O

>  <Energy>  (39) 
74.52272222705483

>  <Genealogy>  (39) 
COc1cccc(C(=O)[N-]c2cccc(S(=O)(=O)[N-]Cc3ccco3)c2)c1O (protonated)
COc1cccc(C(=O)[N-]c2cccc(S(=O)(=O)[N-]Cc3ccco3)c2)c1O (3D coordinates assigned)
COc1cccc(C(=O)[N-]c2cccc(S(=O)(=O)[N-]Cc3ccco3)c2)c1O (optimized conformer: 74.52272222705483 kcal/mol)

>  <smiles>  (39) 
COc1cccc(C(=O)Nc2cccc(S(=O)(=O)NCc3ccco3)c2)c1O

>  <score_type>  (39) 
oracle

>  <origin>  (39) 
adg

>  <m_score__min__energy>  (39) 
-11.59

>  <m_primary>  (39) 
energy

$$$$
39:0
     RDKit          3D

 60 62  0  0  0  0  0  0  0  0999 V2000
   57.0350   21.8370   45.0480 C   0  0  0  0  0  0  0  0  0  0  0  0
   57.5300   22.9560   44.1190 C   0  0  0  0  0  0  0  0  0  0  0  0
   56.4060   23.3670   43.1600 C   0  0  0  0  0  0  0  0  0  0  0  0
   58.0270   24.1870   44.9090 C   0  0  0  0  0  0  0  0  0  0  0  0
   56.9160   25.2040   45.1970 C   0  0  0  0  0  0  0  0  0  0  0  0
   57.3600   26.1430   46.2360 N   0  0  0  0  0  0  0  0  0  0  0  0
   58.7900   25.9910   46.5450 C   0  0  0  0  0  0  0  0  0  0  0  0
   59.4700   27.3220   46.7640 C   0  0  0  0  0  0  0  0  0  0  0  0
   60.0000   28.0330   45.6760 C   0  0  0  0  0  0  0  0  0  0  0  0
   60.6280   29.2660   45.8770 C   0  0  0  0  0  0  0  0  0  0  0  0
   60.7330   29.8030   47.1690 C   0  0  0  0  0  0  0  0  0  0  0  0
   61.3640   31.1230   47.3780 C   0  0  0  0  0  0  0  0  0  0  0  0
   62.7380   31.2560   47.1180 C   0  0  0  0  0  0  0  0  0  0  0  0
   63.3840   32.4760   47.3290 C   0  0  0  0  0  0  0  0  0  0  0  0
   62.6660   33.5750   47.7980 C   0  0  0  0  0  0  0  0  0  0  0  0
   61.2970   33.4630   48.0490 C   0  0  0  0  0  0  0  0  0  0  0  0
   60.6280   32.2480   47.8320 C   0  0  0  0  0  0  0  0  0  0  0  0
   58.8790   32.1800   48.1120 S   0  0  0  0  0  0  0  0  0  0  0  0
   58.5950   31.4770   49.4100 O   0  0  0  0  0  0  0  0  0  0  0  0
   58.3360   33.5800   48.1920 O   0  0  0  0  0  0  0  0  0  0  0  0
   58.1350   31.3080   46.8100 N   0  0  0  0  0  0  0  0  0  0  0  0
   58.0770   31.7270   45.4380 C   0  0  0  0  0  0  0  0  0  0  0  0
   58.5340   32.9990   45.0410 C   0  0  0  0  0  0  0  0  0  0  0  0
   58.4870   33.3810   43.6990 C   0  0  0  0  0  0  0  0  0  0  0  0
   57.9750   32.5090   42.7420 C   0  0  0  0  0  0  0  0  0  0  0  0
   57.4970   31.2530   43.1240 C   0  0  0  0  0  0  0  0  0  0  0  0
   57.5430   30.8530   44.4690 C   0  0  0  0  0  0  0  0  0  0  0  0
   56.8620   29.2840   44.9230 S   0  0  0  0  0  0  0  0  0  0  0  0
   55.1440   29.3320   44.7290 N   0  0  0  0  0  0  0  0  0  0  0  0
   57.1990   28.9610   46.3530 O   0  0  0  0  0  0  0  0  0  0  0  0
   57.4280   28.2020   44.0430 O   0  0  0  0  0  0  0  0  0  0  0  0
   60.2370   29.0750   48.2600 C   0  0  0  0  0  0  0  0  0  0  0  0
   59.6040   27.8460   48.0590 C   0  0  0  0  0  0  0  0  0  0  0  0
   57.1706   22.1435   46.0957 H   0  0  0  0  0  0  0  0  0  0  0  0
   55.9686   21.6465   44.8567 H   0  0  0  0  0  0  0  0  0  0  0  0
   57.6114   20.9198   44.8567 H   0  0  0  0  0  0  0  0  0  0  0  0
   58.3842   22.5641   43.5474 H   0  0  0  0  0  0  0  0  0  0  0  0
   55.5282   23.6880   43.7400 H   0  0  0  0  0  0  0  0  0  0  0  0
   56.7502   24.1974   42.5261 H   0  0  0  0  0  0  0  0  0  0  0  0
   56.1334   22.5104   42.5261 H   0  0  0  0  0  0  0  0  0  0  0  0
   58.4443   23.8434   45.8670 H   0  0  0  0  0  0  0  0  0  0  0  0
   58.7823   24.6922   44.2891 H   0  0  0  0  0  0  0  0  0  0  0  0
   56.6824   25.7604   44.2773 H   0  0  0  0  0  0  0  0  0  0  0  0
   56.0182   24.6729   45.5462 H   0  0  0  0  0  0  0  0  0  0  0  0
   57.1810   27.1230   45.9080 H   0  0  0  0  0  0  0  0  0  0  0  0
   58.8930   25.3859   47.4578 H   0  0  0  0  0  0  0  0  0  0  0  0
   59.2717   25.5026   45.6851 H   0  0  0  0  0  0  0  0  0  0  0  0
   59.9209   27.6182   44.6603 H   0  0  0  0  0  0  0  0  0  0  0  0
   61.0412   29.8169   45.0192 H   0  0  0  0  0  0  0  0  0  0  0  0
   63.3093   30.3929   46.7455 H   0  0  0  0  0  0  0  0  0  0  0  0
   64.4608   32.5699   47.1248 H   0  0  0  0  0  0  0  0  0  0  0  0
   63.1791   34.5326   47.9707 H   0  0  0  0  0  0  0  0  0  0  0  0
   60.7377   34.3345   48.4201 H   0  0  0  0  0  0  0  0  0  0  0  0
   58.9307   33.6962   45.7937 H   0  0  0  0  0  0  0  0  0  0  0  0
   58.8551   34.3727   43.3972 H   0  0  0  0  0  0  0  0  0  0  0  0
   57.9468   32.8092   41.6841 H   0  0  0  0  0  0  0  0  0  0  0  0
   57.0818   30.5728   42.3658 H   0  0  0  0  0  0  0  0  0  0  0  0
   54.7280   29.3980   45.6870 H   0  0  0  0  0  0  0  0  0  0  0  0
   60.3469   29.4737   49.2793 H   0  0  0  0  0  0  0  0  0  0  0  0
   59.2088   27.2864   48.9197 H   0  0  0  0  0  0  0  0  0  0  0  0
  1  2  1  0
  2  3  1  0
  2  4  1  0
  4  5  1  0
  5  6  1  0
  6  7  1  0
  7  8  1  0
  8  9  2  0
  9 10  1  0
 10 11  2  0
 11 12  1  0
 12 13  2  0
 13 14  1  0
 14 15  2  0
 15 16  1  0
 16 17  2  0
 17 18  1  0
 18 19  2  0
 18 20  2  0
 18 21  1  0
 21 22  1  0
 22 23  2  0
 23 24  1  0
 24 25  2  0
 25 26  1  0
 26 27  2  0
 27 28  1  0
 28 29  1  0
 28 30  2  0
 28 31  2  0
 11 32  1  0
 32 33  2  0
 33  8  1  0
 17 12  1  0
 27 22  1  0
  1 34  1  0
  1 35  1  0
  1 36  1  0
  2 37  1  0
  3 38  1  0
  3 39  1  0
  3 40  1  0
  4 41  1  0
  4 42  1  0
  5 43  1  0
  5 44  1  0
  6 45  1  0
  7 46  1  0
  7 47  1  0
  9 48  1  0
 10 49  1  0
 13 50  1  0
 14 51  1  0
 15 52  1  0
 16 53  1  0
 23 54  1  0
 24 55  1  0
 25 56  1  0
 26 57  1  0
 29 58  1  0
 32 59  1  0
 33 60  1  0
M  CHG  2  21  -1  29  -1
M  END
>  <UniqueID>  (40) 
37

>  <SMILES>  (40) 
CC(C)CCNCc1ccc(-c2ccccc2S(=O)(=O)[N-]c2ccccc2S([NH-])(=O)=O)cc1

>  <Energy>  (40) 
66.70020488292964

>  <Genealogy>  (40) 
CC(C)CCNCc1ccc(-c2ccccc2S(=O)(=O)[N-]c2ccccc2S([NH-])(=O)=O)cc1 (protonated)
CC(C)CCNCc1ccc(-c2ccccc2S(=O)(=O)[N-]c2ccccc2S([NH-])(=O)=O)cc1 (3D coordinates assigned)
CC(C)CCNCc1ccc(-c2ccccc2S(=O)(=O)[N-]c2ccccc2S([NH-])(=O)=O)cc1 (optimized conformer: 66.70020488292964 kcal/mol)

>  <smiles>  (40) 
CC(C)CCNCc1ccc(-c2ccccc2S(=O)(=O)Nc2ccccc2S(N)(=O)=O)cc1

>  <score_type>  (40) 
oracle

>  <origin>  (40) 
adg

>  <m_score__min__energy>  (40) 
-14.09

>  <m_primary>  (40) 
energy

$$$$
40:0
     RDKit          3D

 30 32  0  0  0  0  0  0  0  0999 V2000
   50.6430   32.7380   51.6260 O   0  0  0  0  0  0  0  0  0  0  0  0
   51.5470   31.7710   52.0500 C   0  0  0  0  0  0  0  0  0  0  0  0
   52.5900   31.3750   51.2070 C   0  0  0  0  0  0  0  0  0  0  0  0
   53.5010   30.4020   51.6290 C   0  0  0  0  0  0  0  0  0  0  0  0
   53.3730   29.8110   52.8960 C   0  0  0  0  0  0  0  0  0  0  0  0
   54.3390   28.7830   53.3420 C   0  0  0  0  0  0  0  0  0  0  0  0
   55.7190   28.8900   53.4740 C   0  0  0  0  0  0  0  0  0  0  0  0
   56.5640   30.0980   53.3520 C   0  0  0  0  0  0  0  0  0  0  0  0
   56.7000   30.7590   52.1180 C   0  0  0  0  0  0  0  0  0  0  0  0
   57.4970   31.9040   52.0140 C   0  0  0  0  0  0  0  0  0  0  0  0
   58.1550   32.4050   53.1400 C   0  0  0  0  0  0  0  0  0  0  0  0
   59.2430   33.9680   52.9950 Br  0  0  0  0  0  0  0  0  0  0  0  0
   58.0130   31.7640   54.3740 C   0  0  0  0  0  0  0  0  0  0  0  0
   57.2170   30.6190   54.4820 C   0  0  0  0  0  0  0  0  0  0  0  0
   56.1680   27.6250   53.8200 C   0  0  0  0  0  0  0  0  0  0  0  0
   55.1510   26.7980   53.9010 O   0  0  0  0  0  0  0  0  0  0  0  0
   54.0540   27.4600   53.6220 C   0  0  0  0  0  0  0  0  0  0  0  0
   52.7900   26.8800   53.5860 O   0  0  0  0  0  0  0  0  0  0  0  0
   52.3270   30.2230   53.7420 C   0  0  0  0  0  0  0  0  0  0  0  0
   51.4170   31.1950   53.3180 C   0  0  0  0  0  0  0  0  0  0  0  0
   50.4110   31.5810   54.1410 F   0  0  0  0  0  0  0  0  0  0  0  0
   52.6939   31.8295   50.2107 H   0  0  0  0  0  0  0  0  0  0  0  0
   54.3230   30.0977   50.9643 H   0  0  0  0  0  0  0  0  0  0  0  0
   56.1771   30.3737   51.2302 H   0  0  0  0  0  0  0  0  0  0  0  0
   57.6058   32.4108   51.0438 H   0  0  0  0  0  0  0  0  0  0  0  0
   58.5280   32.1606   55.2614 H   0  0  0  0  0  0  0  0  0  0  0  0
   57.1015   30.1234   55.4572 H   0  0  0  0  0  0  0  0  0  0  0  0
   57.2189   27.3543   53.9998 H   0  0  0  0  0  0  0  0  0  0  0  0
   52.5100   26.2180   54.2990 H   0  0  0  0  0  0  0  0  0  0  0  0
   52.2250   29.7776   54.7426 H   0  0  0  0  0  0  0  0  0  0  0  0
  1  2  1  0
  2  3  2  0
  3  4  1  0
  4  5  2  0
  5  6  1  0
  6  7  1  0
  7  8  1  0
  8  9  2  0
  9 10  1  0
 10 11  2  0
 11 12  1  0
 11 13  1  0
 13 14  2  0
  7 15  2  0
 15 16  1  0
 16 17  1  0
 17 18  1  0
  5 19  1  0
 19 20  2  0
 20 21  1  0
 20  2  1  0
 17  6  2  0
 14  8  1  0
  3 22  1  0
  4 23  1  0
  9 24  1  0
 10 25  1  0
 13 26  1  0
 14 27  1  0
 15 28  1  0
 18 29  1  0
 19 30  1  0
M  CHG  1   1  -1
M  END
>  <UniqueID>  (41) 
38

>  <SMILES>  (41) 
[O-]c1ccc(-c2c(-c3ccc(Br)cc3)coc2O)cc1F

>  <Energy>  (41) 
68.33526080040983

>  <Genealogy>  (41) 
[O-]c1ccc(-c2c(-c3ccc(Br)cc3)coc2O)cc1F (protonated)
[O-]c1ccc(-c2c(-c3ccc(Br)cc3)coc2O)cc1F (3D coordinates assigned)
[O-]c1ccc(-c2c(-c3ccc(Br)cc3)coc2O)cc1F (optimized conformer: 68.33526080040983 kcal/mol)

>  <smiles>  (41) 
Oc1ccc(-c2c(-c3ccc(Br)cc3)coc2O)cc1F

>  <score_type>  (41) 
oracle

>  <origin>  (41) 
adg

>  <m_score__min__energy>  (41) 
-10.25

>  <m_primary>  (41) 
energy

$$$$
41:0
     RDKit          3D

 54 57  0  0  0  0  0  0  0  0999 V2000
   57.4130   21.5010   43.5980 C   0  0  0  0  0  0  0  0  0  0  0  0
   57.5510   22.8850   44.1470 C   0  0  0  0  0  0  0  0  0  0  0  0
   57.0300   23.9850   43.4580 C   0  0  0  0  0  0  0  0  0  0  0  0
   57.1820   25.2320   43.9740 N   0  0  0  0  0  0  0  0  0  0  0  0
   57.8340   25.4440   45.1500 C   0  0  0  0  0  0  0  0  0  0  0  0
   57.9810   26.8170   45.6790 C   0  0  0  0  0  0  0  0  0  0  0  0
   57.8250   27.0300   46.9130 O   0  0  0  0  0  0  0  0  0  0  0  0
   58.2800   27.9110   44.7960 N   0  0  0  0  0  0  0  0  0  0  0  0
   58.6250   29.2250   45.2670 C   0  0  0  0  0  0  0  0  0  0  0  0
   59.6120   29.3740   46.2550 C   0  0  0  0  0  0  0  0  0  0  0  0
   60.0040   30.6510   46.6620 C   0  0  0  0  0  0  0  0  0  0  0  0
   61.0000   30.8050   47.6790 N   0  0  0  0  0  0  0  0  0  0  0  0
   62.0060   31.6550   47.5680 N   0  0  0  0  0  0  0  0  0  0  0  0
   62.7320   31.5150   48.6920 C   0  0  0  0  0  0  0  0  0  0  0  0
   63.9660   32.3250   48.9660 C   0  0  0  0  0  0  0  0  0  0  0  0
   63.7670   33.7480   49.4760 C   0  0  0  0  0  0  0  0  0  0  0  0
   64.1420   33.5070   48.0210 C   0  0  0  0  0  0  0  0  0  0  0  0
   62.2070   30.6020   49.5390 N   0  0  0  0  0  0  0  0  0  0  0  0
   61.1140   30.1760   48.8740 C   0  0  0  0  0  0  0  0  0  0  0  0
   60.1700   29.1550   49.4710 C   0  0  0  0  0  0  0  0  0  0  0  0
   60.3740   27.7730   48.8430 C   0  0  0  0  0  0  0  0  0  0  0  0
   58.6990   29.5920   49.4370 C   0  0  0  0  0  0  0  0  0  0  0  0
   59.4080   31.7440   46.1160 N   0  0  0  0  0  0  0  0  0  0  0  0
   58.4510   31.6370   45.1590 C   0  0  0  0  0  0  0  0  0  0  0  0
   58.0330   30.3780   44.7090 C   0  0  0  0  0  0  0  0  0  0  0  0
   56.7770   30.2860   43.4690 S   0  0  0  0  0  0  0  0  0  0  0  0
   57.0350   31.5760   42.2700 C   0  0  0  0  0  0  0  0  0  0  0  0
   56.8060   28.9430   42.7890 O   0  0  0  0  0  0  0  0  0  0  0  0
   55.4240   30.4660   44.1040 O   0  0  0  0  0  0  0  0  0  0  0  0
   58.3610   24.3370   45.8380 C   0  0  0  0  0  0  0  0  0  0  0  0
   58.2080   23.0900   45.3200 N   0  0  0  0  0  0  0  0  0  0  0  0
   57.3414   20.7827   44.4280 H   0  0  0  0  0  0  0  0  0  0  0  0
   56.5043   21.4402   42.9810 H   0  0  0  0  0  0  0  0  0  0  0  0
   58.2918   21.2620   42.9810 H   0  0  0  0  0  0  0  0  0  0  0  0
   56.5007   23.8411   42.5045 H   0  0  0  0  0  0  0  0  0  0  0  0
   58.2360   27.7560   43.7640 H   0  0  0  0  0  0  0  0  0  0  0  0
   60.0759   28.4854   46.7079 H   0  0  0  0  0  0  0  0  0  0  0  0
   64.5747   31.4744   49.3066 H   0  0  0  0  0  0  0  0  0  0  0  0
   62.7584   34.1044   49.7322 H   0  0  0  0  0  0  0  0  0  0  0  0
   64.1870   34.3452   50.2988 H   0  0  0  0  0  0  0  0  0  0  0  0
   63.4044   33.6896   47.2257 H   0  0  0  0  0  0  0  0  0  0  0  0
   64.9455   33.8583   47.3569 H   0  0  0  0  0  0  0  0  0  0  0  0
   60.4297   29.0813   50.5374 H   0  0  0  0  0  0  0  0  0  0  0  0
   60.4849   27.0215   49.6386 H   0  0  0  0  0  0  0  0  0  0  0  0
   59.5033   27.5213   48.2197 H   0  0  0  0  0  0  0  0  0  0  0  0
   61.2803   27.7836   48.2197 H   0  0  0  0  0  0  0  0  0  0  0  0
   58.3256   29.7029   50.4657 H   0  0  0  0  0  0  0  0  0  0  0  0
   58.6144   30.5541   48.9105 H   0  0  0  0  0  0  0  0  0  0  0  0
   58.1028   28.8322   48.9105 H   0  0  0  0  0  0  0  0  0  0  0  0
   58.0004   32.5459   44.7337 H   0  0  0  0  0  0  0  0  0  0  0  0
   57.2252   32.5268   42.7895 H   0  0  0  0  0  0  0  0  0  0  0  0
   57.9003   31.3231   41.6398 H   0  0  0  0  0  0  0  0  0  0  0  0
   56.1389   31.6754   41.6398 H   0  0  0  0  0  0  0  0  0  0  0  0
   58.8939   24.4794   46.7897 H   0  0  0  0  0  0  0  0  0  0  0  0
  1  2  1  0
  2  3  2  0
  3  4  1  0
  4  5  2  0
  5  6  1  0
  6  7  2  0
  6  8  1  0
  8  9  1  0
  9 10  2  0
 10 11  1  0
 11 12  1  0
 12 13  1  0
 13 14  2  0
 14 15  1  0
 15 16  1  0
 16 17  1  0
 14 18  1  0
 18 19  2  0
 19 20  1  0
 20 21  1  0
 20 22  1  0
 11 23  2  0
 23 24  1  0
 24 25  2  0
 25 26  1  0
 26 27  1  0
 26 28  2  0
 26 29  2  0
  5 30  1  0
 30 31  2  0
 31  2  1  0
 25  9  1  0
 19 12  1  0
 17 15  1  0
  1 32  1  0
  1 33  1  0
  1 34  1  0
  3 35  1  0
  8 36  1  0
 10 37  1  0
 15 38  1  0
 16 39  1  0
 16 40  1  0
 17 41  1  0
 17 42  1  0
 20 43  1  0
 21 44  1  0
 21 45  1  0
 21 46  1  0
 22 47  1  0
 22 48  1  0
 22 49  1  0
 24 50  1  0
 27 51  1  0
 27 52  1  0
 27 53  1  0
 30 54  1  0
M  END
>  <UniqueID>  (42) 
39

>  <SMILES>  (42) 
Cc1cnc(C(=O)Nc2cc(-n3nc(C4CC4)nc3C(C)C)ncc2S(C)(=O)=O)cn1

>  <Energy>  (42) 
361.15895937254226

>  <Genealogy>  (42) 
Cc1cnc(C(=O)Nc2cc(-n3nc(C4CC4)nc3C(C)C)ncc2S(C)(=O)=O)cn1 (3D coordinates assigned)
Cc1cnc(C(=O)Nc2cc(-n3nc(C4CC4)nc3C(C)C)ncc2S(C)(=O)=O)cn1 (nonaromatic ring conformer: 361.15895937254226 kcal/mol)

>  <smiles>  (42) 
Cc1cnc(C(=O)Nc2cc(-n3nc(C4CC4)nc3C(C)C)ncc2S(C)(=O)=O)cn1

>  <score_type>  (42) 
oracle

>  <origin>  (42) 
adg

>  <m_score__min__energy>  (42) 
-7.9800000000000004

>  <m_primary>  (42) 
energy

$$$$
42:0
     RDKit          3D

 40 43  0  0  0  0  0  0  0  0999 V2000
   59.2190   29.3530   50.3400 C   0  0  0  0  0  0  0  0  0  0  0  0
   59.4410   30.0060   49.0540 N   0  0  0  0  0  0  0  0  0  0  0  0
   58.5390   30.1320   48.0540 C   0  0  0  0  0  0  0  0  0  0  0  0
   59.0860   30.8630   47.0020 C   0  0  0  0  0  0  0  0  0  0  0  0
   58.4120   31.2340   45.7370 C   0  0  0  0  0  0  0  0  0  0  0  0
   57.8360   30.2960   44.9390 C   0  0  0  0  0  0  0  0  0  0  0  0
   57.6970   28.8860   45.3810 C   0  0  0  0  0  0  0  0  0  0  0  0
   58.8260   28.1170   45.6900 C   0  0  0  0  0  0  0  0  0  0  0  0
   58.6380   26.7980   46.1110 C   0  0  0  0  0  0  0  0  0  0  0  0
   59.6310   26.0800   46.4010 O   0  0  0  0  0  0  0  0  0  0  0  0
   57.3830   26.2900   46.2120 N   0  0  0  0  0  0  0  0  0  0  0  0
   56.2990   27.0480   45.9080 C   0  0  0  0  0  0  0  0  0  0  0  0
   55.1420   26.5610   46.0090 O   0  0  0  0  0  0  0  0  0  0  0  0
   56.4590   28.3320   45.4960 N   0  0  0  0  0  0  0  0  0  0  0  0
   57.1450   30.6940   43.6490 C   0  0  0  0  0  0  0  0  0  0  0  0
   57.7620   31.9500   43.0270 C   0  0  0  0  0  0  0  0  0  0  0  0
   57.7750   33.0920   44.0400 C   0  0  0  0  0  0  0  0  0  0  0  0
   58.4510   32.6560   45.3060 C   0  0  0  0  0  0  0  0  0  0  0  0
   59.0410   33.5170   46.0120 O   0  0  0  0  0  0  0  0  0  0  0  0
   60.3690   31.1930   47.4010 C   0  0  0  0  0  0  0  0  0  0  0  0
   61.3580   31.9560   46.7770 C   0  0  0  0  0  0  0  0  0  0  0  0
   62.5690   32.1510   47.4630 C   0  0  0  0  0  0  0  0  0  0  0  0
   62.7610   31.5970   48.7480 C   0  0  0  0  0  0  0  0  0  0  0  0
   61.7420   30.8440   49.3600 C   0  0  0  0  0  0  0  0  0  0  0  0
   60.5500   30.6610   48.6540 C   0  0  0  0  0  0  0  0  0  0  0  0
   59.4574   30.0542   51.1533 H   0  0  0  0  0  0  0  0  0  0  0  0
   58.1658   29.0454   50.4180 H   0  0  0  0  0  0  0  0  0  0  0  0
   59.8665   28.4672   50.4180 H   0  0  0  0  0  0  0  0  0  0  0  0
   57.5204   29.7170   48.0693 H   0  0  0  0  0  0  0  0  0  0  0  0
   59.8371   28.5415   45.6033 H   0  0  0  0  0  0  0  0  0  0  0  0
   57.2297   29.8648   42.9312 H   0  0  0  0  0  0  0  0  0  0  0  0
   56.0930   30.9145   43.8830 H   0  0  0  0  0  0  0  0  0  0  0  0
   58.7936   31.7307   42.7143 H   0  0  0  0  0  0  0  0  0  0  0  0
   57.1600   32.2507   42.1568 H   0  0  0  0  0  0  0  0  0  0  0  0
   58.3186   33.9485   43.6146 H   0  0  0  0  0  0  0  0  0  0  0  0
   56.7382   33.3800   44.2684 H   0  0  0  0  0  0  0  0  0  0  0  0
   61.1944   32.3908   45.7799 H   0  0  0  0  0  0  0  0  0  0  0  0
   63.3728   32.7391   46.9960 H   0  0  0  0  0  0  0  0  0  0  0  0
   63.7140   31.7553   49.2741 H   0  0  0  0  0  0  0  0  0  0  0  0
   61.8794   30.4129   50.3627 H   0  0  0  0  0  0  0  0  0  0  0  0
  1  2  1  0
  2  3  1  0
  3  4  2  0
  4  5  1  0
  5  6  2  0
  6  7  1  0
  7  8  2  0
  8  9  1  0
  9 10  2  0
  9 11  1  0
 11 12  1  0
 12 13  2  0
 12 14  1  0
  6 15  1  0
 15 16  1  0
 16 17  1  0
 17 18  1  0
 18 19  2  0
  4 20  1  0
 20 21  2  0
 21 22  1  0
 22 23  2  0
 23 24  1  0
 24 25  2  0
 25  2  1  0
 18  5  1  0
 25 20  1  0
 14  7  1  0
  1 26  1  0
  1 27  1  0
  1 28  1  0
  3 29  1  0
  8 30  1  0
 15 31  1  0
 15 32  1  0
 16 33  1  0
 16 34  1  0
 17 35  1  0
 17 36  1  0
 21 37  1  0
 22 38  1  0
 23 39  1  0
 24 40  1  0
M  CHG  2  11  -1  14  -1
M  END
>  <UniqueID>  (43) 
40

>  <SMILES>  (43) 
Cn1cc(C2=C(c3cc(=O)[n-]c(=O)[n-]3)CCCC2=O)c2ccccc21

>  <Energy>  (43) 
88.56294442250379

>  <Genealogy>  (43) 
Cn1cc(C2=C(c3cc(=O)[n-]c(=O)[n-]3)CCCC2=O)c2ccccc21 (protonated)
Cn1cc(C2=C(c3cc(=O)[n-]c(=O)[n-]3)CCCC2=O)c2ccccc21 (3D coordinates assigned)
Cn1cc(C2=C(c3cc(=O)[n-]c(=O)[n-]3)CCCC2=O)c2ccccc21 (nonaromatic ring conformer: 88.56294442250379 kcal/mol)

>  <smiles>  (43) 
Cn1cc(C2=C(c3cc(=O)[nH]c(=O)[nH]3)CCCC2=O)c2ccccc21

>  <score_type>  (43) 
oracle

>  <origin>  (43) 
adg

>  <m_score__min__energy>  (43) 
-11.42

>  <m_primary>  (43) 
energy

$$$$
43:0
     RDKit          3D

 41 43  0  0  0  0  0  0  0  0999 V2000
   61.6320   33.2100   49.6020 C   0  0  0  0  0  0  0  0  0  0  0  0
   61.9760   33.7470   48.2730 N   0  0  0  0  0  0  0  0  0  0  0  0
   60.7630   34.1020   47.4890 C   0  0  0  0  0  0  0  0  0  0  0  0
   60.4290   33.1000   46.3680 C   0  0  0  0  0  0  0  0  0  0  0  0
   60.8400   31.7470   46.7530 N   0  0  0  0  0  0  0  0  0  0  0  0
   59.9060   30.6510   46.7550 C   0  0  0  0  0  0  0  0  0  0  0  0
   59.9780   29.6540   47.7430 C   0  0  0  0  0  0  0  0  0  0  0  0
   59.0810   28.5830   47.7350 C   0  0  0  0  0  0  0  0  0  0  0  0
   58.1080   28.4770   46.7320 C   0  0  0  0  0  0  0  0  0  0  0  0
   57.1810   27.3770   46.7600 N   0  0  0  0  0  0  0  0  0  0  0  0
   57.5500   26.0110   46.5090 C   0  0  0  0  0  0  0  0  0  0  0  0
   58.7560   25.6560   46.6160 O   0  0  0  0  0  0  0  0  0  0  0  0
   56.5150   24.9990   46.1800 C   0  0  0  0  0  0  0  0  0  0  0  0
   55.1800   25.3780   45.9440 C   0  0  0  0  0  0  0  0  0  0  0  0
   54.7970   26.7140   45.9930 O   0  0  0  0  0  0  0  0  0  0  0  0
   54.2470   24.4360   45.6470 N   0  0  0  0  0  0  0  0  0  0  0  0
   54.5740   23.1220   45.5740 C   0  0  0  0  0  0  0  0  0  0  0  0
   53.6910   22.2700   45.2940 O   0  0  0  0  0  0  0  0  0  0  0  0
   55.8510   22.7260   45.8040 N   0  0  0  0  0  0  0  0  0  0  0  0
   56.8230   23.6250   46.1070 C   0  0  0  0  0  0  0  0  0  0  0  0
   57.9880   23.2080   46.3420 O   0  0  0  0  0  0  0  0  0  0  0  0
   58.0260   29.4790   45.7500 C   0  0  0  0  0  0  0  0  0  0  0  0
   58.9230   30.5510   45.7560 C   0  0  0  0  0  0  0  0  0  0  0  0
   62.2350   31.5280   47.1520 C   0  0  0  0  0  0  0  0  0  0  0  0
   62.9060   32.8560   47.5450 C   0  0  0  0  0  0  0  0  0  0  0  0
   62.0508   33.8637   50.3813 H   0  0  0  0  0  0  0  0  0  0  0  0
   60.5380   33.1672   49.7082 H   0  0  0  0  0  0  0  0  0  0  0  0
   62.0505   32.1983   49.7082 H   0  0  0  0  0  0  0  0  0  0  0  0
   59.9068   34.1490   48.1780 H   0  0  0  0  0  0  0  0  0  0  0  0
   60.9679   35.0676   47.0035 H   0  0  0  0  0  0  0  0  0  0  0  0
   59.3446   33.1107   46.1835 H   0  0  0  0  0  0  0  0  0  0  0  0
   60.9705   33.3914   45.4559 H   0  0  0  0  0  0  0  0  0  0  0  0
   60.7460   29.7174   48.5280 H   0  0  0  0  0  0  0  0  0  0  0  0
   59.1389   27.8169   48.5222 H   0  0  0  0  0  0  0  0  0  0  0  0
   56.2050   27.5670   47.0820 H   0  0  0  0  0  0  0  0  0  0  0  0
   57.2510   29.4193   44.9717 H   0  0  0  0  0  0  0  0  0  0  0  0
   58.8589   31.3214   44.9735 H   0  0  0  0  0  0  0  0  0  0  0  0
   62.2608   30.8426   48.0120 H   0  0  0  0  0  0  0  0  0  0  0  0
   62.7813   31.0953   46.3010 H   0  0  0  0  0  0  0  0  0  0  0  0
   63.7709   32.6408   48.1897 H   0  0  0  0  0  0  0  0  0  0  0  0
   63.2180   33.3676   46.6226 H   0  0  0  0  0  0  0  0  0  0  0  0
  1  2  1  0
  2  3  1  0
  3  4  1  0
  4  5  1  0
  5  6  1  0
  6  7  2  0
  7  8  1  0
  8  9  2  0
  9 10  1  0
 10 11  1  0
 11 12  2  0
 11 13  1  0
 13 14  2  0
 14 15  1  0
 14 16  1  0
 16 17  1  0
 17 18  2  0
 17 19  1  0
 19 20  1  0
 20 21  2  0
  9 22  1  0
 22 23  2  0
  5 24  1  0
 24 25  1  0
 25  2  1  0
 23  6  1  0
 20 13  1  0
  1 26  1  0
  1 27  1  0
  1 28  1  0
  3 29  1  0
  3 30  1  0
  4 31  1  0
  4 32  1  0
  7 33  1  0
  8 34  1  0
 10 35  1  0
 22 36  1  0
 23 37  1  0
 24 38  1  0
 24 39  1  0
 25 40  1  0
 25 41  1  0
M  CHG  3  15  -1  16  -1  19  -1
M  END
>  <UniqueID>  (44) 
41

>  <SMILES>  (44) 
CN1CCN(c2ccc(NC(=O)c3c([O-])[n-]c(=O)[n-]c3=O)cc2)CC1

>  <Energy>  (44) 
63.923195554524455

>  <Genealogy>  (44) 
CN1CCN(c2ccc(NC(=O)c3c([O-])[n-]c(=O)[n-]c3=O)cc2)CC1 (protonated)
CN1CCN(c2ccc(NC(=O)c3c([O-])[n-]c(=O)[n-]c3=O)cc2)CC1 (3D coordinates assigned)
CN1CCN(c2ccc(NC(=O)c3c([O-])[n-]c(=O)[n-]c3=O)cc2)CC1 (nonaromatic ring conformer: 63.923195554524455 kcal/mol)

>  <smiles>  (44) 
CN1CCN(c2ccc(NC(=O)c3c(O)[nH]c(=O)[nH]c3=O)cc2)CC1

>  <score_type>  (44) 
oracle

>  <origin>  (44) 
adg

>  <m_score__min__energy>  (44) 
-13.99

>  <m_primary>  (44) 
energy

$$$$
44:0
     RDKit          3D

 35 37  0  0  0  0  0  0  0  0999 V2000
   57.0460   21.9320   46.3620 C   0  0  0  0  0  0  0  0  0  0  0  0
   57.4780   23.2840   45.9630 N   0  0  0  0  0  0  0  0  0  0  0  0
   58.7890   23.5150   45.6330 C   0  0  0  0  0  0  0  0  0  0  0  0
   59.6320   22.5780   45.6440 O   0  0  0  0  0  0  0  0  0  0  0  0
   59.2000   24.7590   45.2900 N   0  0  0  0  0  0  0  0  0  0  0  0
   58.3480   25.8130   45.2750 C   0  0  0  0  0  0  0  0  0  0  0  0
   58.8210   27.0760   44.9110 C   0  0  0  0  0  0  0  0  0  0  0  0
   57.9570   28.1840   44.8920 C   0  0  0  0  0  0  0  0  0  0  0  0
   58.3960   29.4680   44.5240 O   0  0  0  0  0  0  0  0  0  0  0  0
   57.5710   30.5060   43.9940 C   0  0  0  0  0  0  0  0  0  0  0  0
   57.7810   31.7930   44.7460 C   0  0  0  0  0  0  0  0  0  0  0  0
   58.0550   31.7680   46.1250 C   0  0  0  0  0  0  0  0  0  0  0  0
   58.2580   32.9600   46.8250 C   0  0  0  0  0  0  0  0  0  0  0  0
   58.1990   34.1850   46.1550 C   0  0  0  0  0  0  0  0  0  0  0  0
   57.9390   34.2190   44.7820 C   0  0  0  0  0  0  0  0  0  0  0  0
   57.7360   33.0290   44.0770 C   0  0  0  0  0  0  0  0  0  0  0  0
   56.6100   28.0110   45.2560 C   0  0  0  0  0  0  0  0  0  0  0  0
   55.7270   29.0920   45.2530 O   0  0  0  0  0  0  0  0  0  0  0  0
   56.1310   26.7460   45.6250 C   0  0  0  0  0  0  0  0  0  0  0  0
   54.7890   26.6170   45.9760 O   0  0  0  0  0  0  0  0  0  0  0  0
   56.9990   25.6300   45.6350 C   0  0  0  0  0  0  0  0  0  0  0  0
   56.5850   24.3280   45.9940 C   0  0  0  0  0  0  0  0  0  0  0  0
   55.3910   24.1210   46.3490 O   0  0  0  0  0  0  0  0  0  0  0  0
   57.0240   21.8631   47.4596 H   0  0  0  0  0  0  0  0  0  0  0  0
   56.0403   21.7355   45.9620 H   0  0  0  0  0  0  0  0  0  0  0  0
   57.7514   21.1887   45.9620 H   0  0  0  0  0  0  0  0  0  0  0  0
   59.8786   27.2042   44.6370 H   0  0  0  0  0  0  0  0  0  0  0  0
   57.8237   30.6620   42.9348 H   0  0  0  0  0  0  0  0  0  0  0  0
   56.5177   30.2059   44.0965 H   0  0  0  0  0  0  0  0  0  0  0  0
   58.1098   30.8057   46.6550 H   0  0  0  0  0  0  0  0  0  0  0  0
   58.4646   32.9342   47.9051 H   0  0  0  0  0  0  0  0  0  0  0  0
   58.3572   35.1226   46.7082 H   0  0  0  0  0  0  0  0  0  0  0  0
   57.8940   35.1837   44.2554 H   0  0  0  0  0  0  0  0  0  0  0  0
   57.5404   33.0596   42.9950 H   0  0  0  0  0  0  0  0  0  0  0  0
   54.7300   28.9780   45.3990 H   0  0  0  0  0  0  0  0  0  0  0  0
  1  2  1  0
  2  3  1  0
  3  4  2  0
  3  5  1  0
  5  6  1  0
  6  7  2  0
  7  8  1  0
  8  9  1  0
  9 10  1  0
 10 11  1  0
 11 12  2  0
 12 13  1  0
 13 14  2  0
 14 15  1  0
 15 16  2  0
  8 17  2  0
 17 18  1  0
 17 19  1  0
 19 20  1  0
 19 21  2  0
 21 22  1  0
 22 23  2  0
 22  2  1  0
 21  6  1  0
 16 11  1  0
  1 24  1  0
  1 25  1  0
  1 26  1  0
  7 27  1  0
 10 28  1  0
 10 29  1  0
 12 30  1  0
 13 31  1  0
 14 32  1  0
 15 33  1  0
 16 34  1  0
 18 35  1  0
M  CHG  2   5  -1  20  -1
M  END
>  <UniqueID>  (45) 
42

>  <SMILES>  (45) 
Cn1c(=O)[n-]c2cc(OCc3ccccc3)c(O)c([O-])c2c1=O

>  <Energy>  (45) 
47.768794492583055

>  <Genealogy>  (45) 
Cn1c(=O)[n-]c2cc(OCc3ccccc3)c(O)c([O-])c2c1=O (protonated)
Cn1c(=O)[n-]c2cc(OCc3ccccc3)c(O)c([O-])c2c1=O (3D coordinates assigned)
Cn1c(=O)[n-]c2cc(OCc3ccccc3)c(O)c([O-])c2c1=O (optimized conformer: 47.768794492583055 kcal/mol)

>  <smiles>  (45) 
Cn1c(=O)[nH]c2cc(OCc3ccccc3)c(O)c(O)c2c1=O

>  <score_type>  (45) 
oracle

>  <origin>  (45) 
adg

>  <m_score__min__energy>  (45) 
-13.31

>  <m_primary>  (45) 
energy

$$$$
45:0
     RDKit          3D

 45 48  0  0  0  0  0  0  0  0999 V2000
   56.9870   21.0360   42.9910 C   0  0  0  0  0  0  0  0  0  0  0  0
   55.9380   21.9900   43.1140 O   0  0  0  0  0  0  0  0  0  0  0  0
   55.9950   23.1330   43.9260 C   0  0  0  0  0  0  0  0  0  0  0  0
   56.9900   24.1190   43.7670 C   0  0  0  0  0  0  0  0  0  0  0  0
   57.0150   25.2480   44.6010 C   0  0  0  0  0  0  0  0  0  0  0  0
   58.0900   26.2900   44.4280 C   0  0  0  0  0  0  0  0  0  0  0  0
   58.1960   27.1330   45.6390 N   0  0  0  0  0  0  0  0  0  0  0  0
   59.5730   27.6090   45.8290 C   0  0  0  0  0  0  0  0  0  0  0  0
   59.7010   28.9350   45.1070 C   0  0  0  0  0  0  0  0  0  0  0  0
   58.2950   29.5290   45.1380 C   0  0  2  0  0  0  0  0  0  0  0  0
   57.3760   28.3540   45.5280 C   0  0  0  0  0  0  0  0  0  0  0  0
   57.9310   30.0400   43.8060 N   0  0  0  0  0  0  0  0  0  0  0  0
   58.0730   31.4180   43.4540 C   0  0  0  0  0  0  0  0  0  0  0  0
   57.9540   31.7700   42.2490 O   0  0  0  0  0  0  0  0  0  0  0  0
   58.3360   32.4130   44.5040 C   0  0  0  0  0  0  0  0  0  0  0  0
   58.5050   33.7760   44.2030 C   0  0  0  0  0  0  0  0  0  0  0  0
   58.7300   34.6990   45.2280 C   0  0  0  0  0  0  0  0  0  0  0  0
   58.7820   34.2690   46.5560 C   0  0  0  0  0  0  0  0  0  0  0  0
   58.6130   32.9160   46.8630 C   0  0  0  0  0  0  0  0  0  0  0  0
   58.3950   31.9820   45.8380 C   0  0  0  0  0  0  0  0  0  0  0  0
   58.2240   30.5920   46.1560 N   0  0  0  0  0  0  0  0  0  0  0  0
   56.0370   25.3910   45.5980 C   0  0  0  0  0  0  0  0  0  0  0  0
   55.0490   24.4170   45.7590 C   0  0  0  0  0  0  0  0  0  0  0  0
   55.0270   23.2940   44.9270 C   0  0  0  0  0  0  0  0  0  0  0  0
   54.0380   22.3320   45.0990 O   0  0  0  0  0  0  0  0  0  0  0  0
   57.3236   20.7299   43.9925 H   0  0  0  0  0  0  0  0  0  0  0  0
   56.6198   20.1559   42.4427 H   0  0  0  0  0  0  0  0  0  0  0  0
   57.8284   21.4848   42.4427 H   0  0  0  0  0  0  0  0  0  0  0  0
   57.7529   24.0028   42.9831 H   0  0  0  0  0  0  0  0  0  0  0  0
   59.0534   25.7898   44.2500 H   0  0  0  0  0  0  0  0  0  0  0  0
   57.8301   26.9296   43.5716 H   0  0  0  0  0  0  0  0  0  0  0  0
   59.7791   27.7438   46.9011 H   0  0  0  0  0  0  0  0  0  0  0  0
   60.2933   26.8797   45.4298 H   0  0  0  0  0  0  0  0  0  0  0  0
   60.4120   29.5933   45.6276 H   0  0  0  0  0  0  0  0  0  0  0  0
   60.0806   28.8161   44.0814 H   0  0  0  0  0  0  0  0  0  0  0  0
   56.8934   28.5655   46.4936 H   0  0  0  0  0  0  0  0  0  0  0  0
   56.5972   28.2158   44.7635 H   0  0  0  0  0  0  0  0  0  0  0  0
   57.7440   29.3560   43.0380 H   0  0  0  0  0  0  0  0  0  0  0  0
   58.4600   34.1167   43.1581 H   0  0  0  0  0  0  0  0  0  0  0  0
   58.8661   35.7641   44.9890 H   0  0  0  0  0  0  0  0  0  0  0  0
   58.9564   34.9969   47.3620 H   0  0  0  0  0  0  0  0  0  0  0  0
   58.6509   32.5822   47.9104 H   0  0  0  0  0  0  0  0  0  0  0  0
   58.2690   30.3110   47.1630 H   0  0  0  0  0  0  0  0  0  0  0  0
   56.0489   26.2733   46.2548 H   0  0  0  0  0  0  0  0  0  0  0  0
   54.2861   24.5340   46.5427 H   0  0  0  0  0  0  0  0  0  0  0  0
  1  2  1  0
  2  3  1  0
  3  4  2  0
  4  5  1  0
  5  6  1  0
  6  7  1  0
  7  8  1  0
  8  9  1  0
  9 10  1  0
 10 11  1  0
 10 12  1  6
 12 13  1  0
 13 14  2  0
 13 15  1  0
 15 16  2  0
 16 17  1  0
 17 18  2  0
 18 19  1  0
 19 20  2  0
 20 21  1  0
  5 22  2  0
 22 23  1  0
 23 24  2  0
 24 25  1  0
 24  3  1  0
 11  7  1  0
 20 15  1  0
 21 10  1  0
  1 26  1  0
  1 27  1  0
  1 28  1  0
  4 29  1  0
  6 30  1  0
  6 31  1  0
  8 32  1  0
  8 33  1  0
  9 34  1  0
  9 35  1  0
 11 36  1  0
 11 37  1  0
 12 38  1  0
 16 39  1  0
 17 40  1  0
 18 41  1  0
 19 42  1  0
 21 43  1  0
 22 44  1  0
 23 45  1  0
M  CHG  1  25  -1
M  END
>  <UniqueID>  (46) 
43

>  <SMILES>  (46) 
COc1cc(CN2CC[C@]3(C2)NC(=O)c2ccccc2N3)ccc1[O-]

>  <Energy>  (46) 
53.55376153795688

>  <Genealogy>  (46) 
COc1cc(CN2CCC3(C2)NC(=O)c2ccccc2N3)ccc1[O-] (protonated)
COc1cc(CN2CC[C@]3(C2)NC(=O)c2ccccc2N3)ccc1[O-] (chirality)
COc1cc(CN2CC[C@]3(C2)NC(=O)c2ccccc2N3)ccc1[O-] (3D coordinates assigned)
COc1cc(CN2CC[C@]3(C2)NC(=O)c2ccccc2N3)ccc1[O-] (nonaromatic ring conformer: 53.55376153795688 kcal/mol)

>  <smiles>  (46) 
COc1cc(CN2CCC3(C2)NC(=O)c2ccccc2N3)ccc1O

>  <score_type>  (46) 
oracle

>  <origin>  (46) 
adg

>  <m_score__min__energy>  (46) 
-10.44

>  <m_primary>  (46) 
energy

$$$$
46:0
     RDKit          3D

 42 43  0  0  0  0  0  0  0  0999 V2000
   56.0530   26.0510   45.9900 C   0  0  0  0  0  0  0  0  0  0  0  0
   55.7870   27.4010   45.6200 O   0  0  0  0  0  0  0  0  0  0  0  0
   56.7720   28.3380   45.2770 C   0  0  0  0  0  0  0  0  0  0  0  0
   58.0150   28.2590   45.9160 C   0  0  0  0  0  0  0  0  0  0  0  0
   59.0300   29.1660   45.6040 C   0  0  0  0  0  0  0  0  0  0  0  0
   58.8120   30.1650   44.6530 C   0  0  0  0  0  0  0  0  0  0  0  0
   57.5690   30.2670   44.0100 C   0  0  0  0  0  0  0  0  0  0  0  0
   57.3490   31.3100   42.9520 C   0  0  0  0  0  0  0  0  0  0  0  0
   57.9480   32.5740   43.3720 N   0  0  0  0  0  0  0  0  0  0  0  0
   57.5290   33.2830   44.5480 C   0  0  0  0  0  0  0  0  0  0  0  0
   56.5600   32.8620   45.2350 O   0  0  0  0  0  0  0  0  0  0  0  0
   58.2300   34.5460   44.9560 C   0  0  0  0  0  0  0  0  0  0  0  0
   59.6660   34.2970   45.4360 C   0  0  0  0  0  0  0  0  0  0  0  0
   59.7640   33.8620   47.1730 S   0  0  0  0  0  0  0  0  0  0  0  0
   58.9820   32.5970   47.3940 O   0  0  0  0  0  0  0  0  0  0  0  0
   59.1460   34.9600   47.9910 O   0  0  0  0  0  0  0  0  0  0  0  0
   61.4330   33.6360   47.6940 C   0  0  0  0  0  0  0  0  0  0  0  0
   61.7650   33.7500   49.0510 C   0  0  0  0  0  0  0  0  0  0  0  0
   63.0890   33.5790   49.4670 C   0  0  0  0  0  0  0  0  0  0  0  0
   64.0840   33.2810   48.5320 C   0  0  0  0  0  0  0  0  0  0  0  0
   63.7560   33.1510   47.1800 C   0  0  0  0  0  0  0  0  0  0  0  0
   62.4340   33.3260   46.7600 C   0  0  0  0  0  0  0  0  0  0  0  0
   56.5540   29.3440   44.3150 C   0  0  0  0  0  0  0  0  0  0  0  0
   56.0694   25.9678   47.0867 H   0  0  0  0  0  0  0  0  0  0  0  0
   55.2663   25.3978   45.5845 H   0  0  0  0  0  0  0  0  0  0  0  0
   57.0287   25.7451   45.5845 H   0  0  0  0  0  0  0  0  0  0  0  0
   58.1934   27.4772   46.6690 H   0  0  0  0  0  0  0  0  0  0  0  0
   60.0045   29.0932   46.1091 H   0  0  0  0  0  0  0  0  0  0  0  0
   59.6166   30.8737   44.4073 H   0  0  0  0  0  0  0  0  0  0  0  0
   57.8142   30.9800   42.0114 H   0  0  0  0  0  0  0  0  0  0  0  0
   56.2687   31.4522   42.8009 H   0  0  0  0  0  0  0  0  0  0  0  0
   58.7790   32.9190   42.8410 H   0  0  0  0  0  0  0  0  0  0  0  0
   58.2606   35.2264   44.0922 H   0  0  0  0  0  0  0  0  0  0  0  0
   57.6692   34.9809   45.7964 H   0  0  0  0  0  0  0  0  0  0  0  0
   60.0947   33.4744   44.8447 H   0  0  0  0  0  0  0  0  0  0  0  0
   60.2232   35.2359   45.3019 H   0  0  0  0  0  0  0  0  0  0  0  0
   60.9822   33.9745   49.7904 H   0  0  0  0  0  0  0  0  0  0  0  0
   63.3477   33.6792   50.5315 H   0  0  0  0  0  0  0  0  0  0  0  0
   65.1255   33.1488   48.8604 H   0  0  0  0  0  0  0  0  0  0  0  0
   64.5387   32.9107   46.4454 H   0  0  0  0  0  0  0  0  0  0  0  0
   62.1778   33.2205   45.6955 H   0  0  0  0  0  0  0  0  0  0  0  0
   55.5841   29.4074   43.7999 H   0  0  0  0  0  0  0  0  0  0  0  0
  1  2  1  0
  2  3  1  0
  3  4  2  0
  4  5  1  0
  5  6  2  0
  6  7  1  0
  7  8  1  0
  8  9  1  0
  9 10  1  0
 10 11  2  0
 10 12  1  0
 12 13  1  0
 13 14  1  0
 14 15  2  0
 14 16  2  0
 14 17  1  0
 17 18  2  0
 18 19  1  0
 19 20  2  0
 20 21  1  0
 21 22  2  0
  7 23  2  0
 23  3  1  0
 22 17  1  0
  1 24  1  0
  1 25  1  0
  1 26  1  0
  4 27  1  0
  5 28  1  0
  6 29  1  0
  8 30  1  0
  8 31  1  0
  9 32  1  0
 12 33  1  0
 12 34  1  0
 13 35  1  0
 13 36  1  0
 18 37  1  0
 19 38  1  0
 20 39  1  0
 21 40  1  0
 22 41  1  0
 23 42  1  0
M  END
>  <UniqueID>  (47) 
44

>  <SMILES>  (47) 
COc1cccc(CNC(=O)CCS(=O)(=O)c2ccccc2)c1

>  <Energy>  (47) 
29.644021112955983

>  <Genealogy>  (47) 
COc1cccc(CNC(=O)CCS(=O)(=O)c2ccccc2)c1 (3D coordinates assigned)
COc1cccc(CNC(=O)CCS(=O)(=O)c2ccccc2)c1 (optimized conformer: 29.644021112955983 kcal/mol)

>  <smiles>  (47) 
COc1cccc(CNC(=O)CCS(=O)(=O)c2ccccc2)c1

>  <score_type>  (47) 
oracle

>  <origin>  (47) 
adg

>  <m_score__min__energy>  (47) 
-8.2899999999999991

>  <m_primary>  (47) 
energy

$$$$
47:0
     RDKit          3D

 56 59  0  0  0  0  0  0  0  0999 V2000
   56.5590   23.7530   43.3290 C   0  0  0  0  0  0  0  0  0  0  0  0
   56.7710   24.2510   44.6470 O   0  0  0  0  0  0  0  0  0  0  0  0
   57.1670   25.5640   44.9440 C   0  0  0  0  0  0  0  0  0  0  0  0
   57.7680   26.3220   43.9330 C   0  0  0  0  0  0  0  0  0  0  0  0
   58.1800   27.6350   44.1800 C   0  0  0  0  0  0  0  0  0  0  0  0
   57.9960   28.2070   45.4470 C   0  0  0  0  0  0  0  0  0  0  0  0
   58.4210   29.5630   45.7030 N   0  0  0  0  0  0  0  0  0  0  0  0
   57.6560   30.6050   45.2640 C   0  0  0  0  0  0  0  0  0  0  0  0
   56.5680   30.3800   44.6610 O   0  0  0  0  0  0  0  0  0  0  0  0
   58.0690   31.9240   45.4880 C   0  0  0  0  0  0  0  0  0  0  0  0
   57.3040   33.0120   45.0230 C   0  0  0  0  0  0  0  0  0  0  0  0
   57.7310   34.3200   45.2410 C   0  0  0  0  0  0  0  0  0  0  0  0
   58.9220   34.5580   45.9170 C   0  0  0  0  0  0  0  0  0  0  0  0
   59.6940   33.4920   46.3820 C   0  0  0  0  0  0  0  0  0  0  0  0
   59.2790   32.1500   46.1880 C   0  0  0  0  0  0  0  0  0  0  0  0
   60.0120   31.0750   46.6520 N   0  0  0  0  0  0  0  0  0  0  0  0
   61.2790   31.2620   47.4010 C   0  0  0  0  0  0  0  0  0  0  0  0
   61.0790   30.9420   48.8540 C   0  0  0  0  0  0  0  0  0  0  0  0
   61.8860   31.4080   49.7040 O   0  0  0  0  0  0  0  0  0  0  0  0
   59.9820   30.1210   49.2750 N   0  0  0  0  0  0  0  0  0  0  0  0
   59.6820   29.9140   50.6910 C   0  0  0  0  0  0  0  0  0  0  0  0
   58.9780   31.1200   51.2600 C   0  0  0  0  0  0  0  0  0  0  0  0
   59.6440   32.3560   51.3170 C   0  0  0  0  0  0  0  0  0  0  0  0
   59.0130   33.4730   51.8640 C   0  0  0  0  0  0  0  0  0  0  0  0
   57.7150   33.3680   52.3670 C   0  0  0  0  0  0  0  0  0  0  0  0
   57.0460   32.1420   52.3290 C   0  0  0  0  0  0  0  0  0  0  0  0
   57.6730   31.0040   51.7820 C   0  0  0  0  0  0  0  0  0  0  0  0
   57.0330   29.7530   51.7440 O   0  0  0  0  0  0  0  0  0  0  0  0
   56.2480   29.2130   52.8020 C   0  0  0  0  0  0  0  0  0  0  0  0
   59.5910   29.7930   46.3780 C   0  0  0  0  0  0  0  0  0  0  0  0
   60.2960   28.8070   46.7400 O   0  0  0  0  0  0  0  0  0  0  0  0
   57.3940   27.4510   46.4640 C   0  0  0  0  0  0  0  0  0  0  0  0
   56.9810   26.1380   46.2160 C   0  0  0  0  0  0  0  0  0  0  0  0
   56.1287   22.7422   43.3838 H   0  0  0  0  0  0  0  0  0  0  0  0
   55.8659   24.4180   42.7928 H   0  0  0  0  0  0  0  0  0  0  0  0
   57.5187   23.7144   42.7928 H   0  0  0  0  0  0  0  0  0  0  0  0
   57.9175   25.8815   42.9362 H   0  0  0  0  0  0  0  0  0  0  0  0
   58.6504   28.2217   43.3772 H   0  0  0  0  0  0  0  0  0  0  0  0
   56.3630   32.8273   44.4841 H   0  0  0  0  0  0  0  0  0  0  0  0
   57.1259   35.1640   44.8784 H   0  0  0  0  0  0  0  0  0  0  0  0
   59.2579   35.5917   46.0864 H   0  0  0  0  0  0  0  0  0  0  0  0
   60.6388   33.6961   46.9070 H   0  0  0  0  0  0  0  0  0  0  0  0
   62.0480   30.5944   46.9852 H   0  0  0  0  0  0  0  0  0  0  0  0
   61.5983   32.3104   47.3068 H   0  0  0  0  0  0  0  0  0  0  0  0
   59.3910   29.6560   48.5500 H   0  0  0  0  0  0  0  0  0  0  0  0
   59.0343   29.0315   50.7992 H   0  0  0  0  0  0  0  0  0  0  0  0
   60.6244   29.7599   51.2370 H   0  0  0  0  0  0  0  0  0  0  0  0
   60.6692   32.4431   50.9279 H   0  0  0  0  0  0  0  0  0  0  0  0
   59.5390   34.4384   51.8991 H   0  0  0  0  0  0  0  0  0  0  0  0
   57.2182   34.2517   52.7939 H   0  0  0  0  0  0  0  0  0  0  0  0
   56.0240   32.0643   52.7283 H   0  0  0  0  0  0  0  0  0  0  0  0
   56.6808   29.5107   53.7685 H   0  0  0  0  0  0  0  0  0  0  0  0
   55.2194   29.5955   52.7275 H   0  0  0  0  0  0  0  0  0  0  0  0
   56.2374   28.1156   52.7275 H   0  0  0  0  0  0  0  0  0  0  0  0
   57.2462   27.8927   47.4605 H   0  0  0  0  0  0  0  0  0  0  0  0
   56.5090   25.5515   47.0180 H   0  0  0  0  0  0  0  0  0  0  0  0
  1  2  1  0
  2  3  1  0
  3  4  2  0
  4  5  1  0
  5  6  2  0
  6  7  1  0
  7  8  1  0
  8  9  2  0
  8 10  1  0
 10 11  2  0
 11 12  1  0
 12 13  2  0
 13 14  1  0
 14 15  2  0
 15 16  1  0
 16 17  1  0
 17 18  1  0
 18 19  2  0
 18 20  1  0
 20 21  1  0
 21 22  1  0
 22 23  2  0
 23 24  1  0
 24 25  2  0
 25 26  1  0
 26 27  2  0
 27 28  1  0
 28 29  1  0
 16 30  1  0
 30 31  2  0
  6 32  1  0
 32 33  2  0
 33  3  1  0
 30  7  1  0
 15 10  1  0
 27 22  1  0
  1 34  1  0
  1 35  1  0
  1 36  1  0
  4 37  1  0
  5 38  1  0
 11 39  1  0
 12 40  1  0
 13 41  1  0
 14 42  1  0
 17 43  1  0
 17 44  1  0
 20 45  1  0
 21 46  1  0
 21 47  1  0
 23 48  1  0
 24 49  1  0
 25 50  1  0
 26 51  1  0
 29 52  1  0
 29 53  1  0
 29 54  1  0
 32 55  1  0
 33 56  1  0
M  END
>  <UniqueID>  (48) 
45

>  <SMILES>  (48) 
COc1ccc(-n2c(=O)c3ccccc3n(CC(=O)NCc3ccccc3OC)c2=O)cc1

>  <Energy>  (48) 
76.96337851823237

>  <Genealogy>  (48) 
COc1ccc(-n2c(=O)c3ccccc3n(CC(=O)NCc3ccccc3OC)c2=O)cc1 (3D coordinates assigned)
COc1ccc(-n2c(=O)c3ccccc3n(CC(=O)NCc3ccccc3OC)c2=O)cc1 (optimized conformer: 76.96337851823237 kcal/mol)

>  <smiles>  (48) 
COc1ccc(-n2c(=O)c3ccccc3n(CC(=O)NCc3ccccc3OC)c2=O)cc1

>  <score_type>  (48) 
oracle

>  <origin>  (48) 
adg

>  <m_score__min__energy>  (48) 
-8.3599999999999994

>  <m_primary>  (48) 
energy

$$$$
48:0
     RDKit          3D

 47 49  0  0  1  0  0  0  0  0999 V2000
   58.9120   32.0610   49.1860 C   0  0  0  0  0  0  0  0  0  0  0  0
   59.3470   33.5050   48.9600 C   0  0  0  0  0  0  0  0  0  0  0  0
   59.1330   33.8560   47.5290 C   0  0  0  0  0  0  0  0  0  0  0  0
   59.8310   34.9580   47.0430 C   0  0  0  0  0  0  0  0  0  0  0  0
   59.6330   35.2850   45.7130 C   0  0  0  0  0  0  0  0  0  0  0  0
   56.8250   23.5360   44.3820 C   0  0  0  0  0  0  0  0  0  0  0  0
   55.7080   22.8290   43.9440 C   0  0  0  0  0  0  0  0  0  0  0  0
   55.8980   21.9730   43.0150 N   0  0  0  0  0  0  0  0  0  0  0  0
   57.2890   31.4170   44.7640 C   0  0  0  0  0  0  0  0  0  0  0  0
   56.2140   30.8000   44.5600 O   0  0  0  0  0  0  0  0  0  0  0  0
   58.4330   30.6310   45.1240 N   0  0  0  0  0  0  0  0  0  0  0  0
   58.2510   29.2210   45.2180 C   0  0  0  0  0  0  0  0  0  0  0  0
   58.0630   28.4230   44.1040 C   0  0  0  0  0  0  0  0  0  0  0  0
   57.8920   27.0480   44.2910 C   0  0  0  0  0  0  0  0  0  0  0  0
   57.9140   26.5180   45.5670 C   0  0  0  0  0  0  0  0  0  0  0  0
   57.7500   25.1620   45.8170 O   0  0  0  0  0  0  0  0  0  0  0  0
   56.6250   24.4750   45.4000 C   0  0  0  0  0  0  0  0  0  0  0  0
   58.7840   34.5640   44.8860 C   0  0  0  0  0  0  0  0  0  0  0  0
   58.1200   33.4760   45.4350 C   0  0  0  0  0  0  0  0  0  0  0  0
   57.3390   32.8270   44.6380 N   0  0  0  0  0  0  0  0  0  0  0  0
   57.0680   21.1460   43.0240 C   0  0  0  0  0  0  0  0  0  0  0  0
   54.5200   23.0580   44.4870 N   0  0  0  0  0  0  0  0  0  0  0  0
   54.3260   23.9710   45.4770 C   0  0  0  0  0  0  0  0  0  0  0  0
   55.3990   24.6730   45.9220 N   0  0  0  0  0  0  0  0  0  0  0  0
   58.1030   27.3260   46.6920 C   0  0  0  0  0  0  0  0  0  0  0  0
   58.1200   26.7720   47.9480 F   0  0  0  0  0  0  0  0  0  0  0  0
   58.2710   28.6850   46.4960 C   0  0  0  0  0  0  0  0  0  0  0  0
   58.3030   33.1460   46.7260 N   0  0  0  0  0  0  0  0  0  0  0  0
   58.8517   31.8610   50.2660 H   0  0  0  0  0  0  0  0  0  0  0  0
   57.9253   31.8993   48.7275 H   0  0  0  0  0  0  0  0  0  0  0  0
   59.6452   31.3811   48.7275 H   0  0  0  0  0  0  0  0  0  0  0  0
   58.7504   34.1742   49.5973 H   0  0  0  0  0  0  0  0  0  0  0  0
   60.4109   33.6176   49.2158 H   0  0  0  0  0  0  0  0  0  0  0  0
   60.5075   35.5409   47.6853 H   0  0  0  0  0  0  0  0  0  0  0  0
   60.1694   36.1498   45.2955 H   0  0  0  0  0  0  0  0  0  0  0  0
   57.8205   23.3639   43.9469 H   0  0  0  0  0  0  0  0  0  0  0  0
   59.3530   31.1050   45.3040 H   0  0  0  0  0  0  0  0  0  0  0  0
   58.0484   28.8599   43.0946 H   0  0  0  0  0  0  0  0  0  0  0  0
   57.7401   26.3889   43.4235 H   0  0  0  0  0  0  0  0  0  0  0  0
   58.6421   34.8448   43.8320 H   0  0  0  0  0  0  0  0  0  0  0  0
   57.3621   20.9381   44.0634 H   0  0  0  0  0  0  0  0  0  0  0  0
   56.8517   20.1991   42.5078 H   0  0  0  0  0  0  0  0  0  0  0  0
   57.8885   21.6659   42.5078 H   0  0  0  0  0  0  0  0  0  0  0  0
   53.3263   24.1358   45.9053 H   0  0  0  0  0  0  0  0  0  0  0  0
   55.2690   25.3810   46.6830 H   0  0  0  0  0  0  0  0  0  0  0  0
   58.4218   29.3461   47.3621 H   0  0  0  0  0  0  0  0  0  0  0  0
   57.8110   32.3440   47.1290 H   0  0  0  0  0  0  0  0  0  0  0  0
  1  2  1  0
  2  3  1  0
  3  4  2  0
  4  5  1  0
  5  6  2  0
  6  7  1  0
  7  8  2  0
  8  9  1  0
  9 10  2  0
  9 11  1  0
 11 12  1  0
 12 13  2  0
 13 14  1  0
 14 15  2  0
 15 16  1  0
 16 17  1  0
 17 18  2  0
 18 19  1  0
 19 20  2  0
 20 21  1  0
 19 22  1  0
 22 23  2  0
 23 24  1  0
 15 25  1  0
 25 26  1  0
 25 27  2  0
  7 28  1  0
 28  3  1  0
 27 12  1  0
 24 17  1  0
  1 29  1  0
  1 30  1  0
  1 31  1  0
  2 32  1  0
  2 33  1  0
  4 34  1  0
  5 35  1  0
  6 36  1  0
 11 37  1  0
 13 38  1  0
 14 39  1  0
 18 40  1  0
 21 41  1  0
 21 42  1  0
 21 43  1  0
 23 44  1  0
 24 45  1  0
 27 46  1  0
 28 47  1  0
M  END
>  <smiles>  (49) 
CCc1cccc(=NC(=O)Nc2ccc(Oc3cc(=NC)nc[nH]3)c(F)c2)[nH]1

>  <score_type>  (49) 
oracle

>  <origin>  (49) 
adg

>  <m_score__min__energy>  (49) 
-8.0500000000000007

>  <m_primary>  (49) 
energy

$$$$
49:0
     RDKit          3D

 24 25  0  0  0  0  0  0  0  0999 V2000
   55.8440   28.7120   45.2450 O   0  0  0  0  0  0  0  0  0  0  0  0
   57.0590   28.4240   45.4210 C   0  0  0  0  0  0  0  0  0  0  0  0
   57.5880   27.1280   44.8970 C   0  0  0  0  0  0  0  0  0  0  0  0
   57.1670   26.0000   45.7880 C   0  0  0  0  0  0  0  0  0  0  0  0
   58.2220   24.8760   46.4690 S   0  0  0  0  0  0  0  0  0  0  0  0
   56.9730   24.0060   47.1780 C   0  0  0  0  0  0  0  0  0  0  0  0
   57.1370   22.9750   47.8810 O   0  0  0  0  0  0  0  0  0  0  0  0
   55.7590   24.5270   46.9090 N   0  0  0  0  0  0  0  0  0  0  0  0
   55.8600   25.6350   46.1290 C   0  0  0  0  0  0  0  0  0  0  0  0
   54.7260   26.3280   45.7150 O   0  0  0  0  0  0  0  0  0  0  0  0
   57.9740   29.3730   45.9920 N   0  0  0  0  0  0  0  0  0  0  0  0
   57.9810   30.6740   45.8970 C   0  0  0  0  0  0  0  0  0  0  0  0
   58.9200   31.4920   46.5650 C   0  0  0  0  0  0  0  0  0  0  0  0
   58.8610   32.8780   46.4010 C   0  0  0  0  0  0  0  0  0  0  0  0
   57.8900   33.4430   45.5760 C   0  0  0  0  0  0  0  0  0  0  0  0
   56.9900   32.6090   44.9150 C   0  0  0  0  0  0  0  0  0  0  0  0
   57.0580   31.2620   45.0870 N   0  0  0  0  0  0  0  0  0  0  0  0
   57.1942   26.9576   43.8842 H   0  0  0  0  0  0  0  0  0  0  0  0
   58.6867   27.1733   44.8697 H   0  0  0  0  0  0  0  0  0  0  0  0
   54.7730   27.0880   45.0470 H   0  0  0  0  0  0  0  0  0  0  0  0
   59.6903   31.0415   47.2082 H   0  0  0  0  0  0  0  0  0  0  0  0
   59.5817   33.5242   46.9235 H   0  0  0  0  0  0  0  0  0  0  0  0
   57.8347   34.5341   45.4481 H   0  0  0  0  0  0  0  0  0  0  0  0
   56.2243   33.0408   44.2538 H   0  0  0  0  0  0  0  0  0  0  0  0
  1  2  2  0
  2  3  1  0
  3  4  1  0
  4  5  1  0
  5  6  1  0
  6  7  2  0
  6  8  1  0
  8  9  1  0
  9 10  1  0
  2 11  1  0
 11 12  2  3
 12 13  1  0
 13 14  2  0
 14 15  1  0
 15 16  2  0
 16 17  1  0
  9  4  2  0
 17 12  1  0
  3 18  1  0
  3 19  1  0
 10 20  1  0
 13 21  1  0
 14 22  1  0
 15 23  1  0
 16 24  1  0
M  CHG  2   8  -1  17  -1
M  END
>  <UniqueID>  (50) 
46

>  <SMILES>  (50) 
O=C(Cc1sc(=O)[n-]c1O)N=c1cccc[n-]1

>  <Energy>  (50) 
61.023115973762465

>  <Genealogy>  (50) 
O=C(Cc1sc(=O)[n-]c1O)N=c1cccc[n-]1 (protonated)
O=C(Cc1sc(=O)[n-]c1O)N=c1cccc[n-]1 (3D coordinates assigned)
O=C(Cc1sc(=O)[n-]c1O)N=c1cccc[n-]1 (optimized conformer: 61.023115973762465 kcal/mol)

>  <smiles>  (50) 
O=C(Cc1sc(=O)[nH]c1O)N=c1cccc[nH]1

>  <score_type>  (50) 
oracle

>  <origin>  (50) 
adg

>  <m_score__min__energy>  (50) 
-11

>  <m_primary>  (50) 
energy

$$$$
50:0
     RDKit          3D

 28 29  0  0  0  0  0  0  0  0999 V2000
   55.1600   29.7040   43.0920 O   0  0  0  0  0  0  0  0  0  0  0  0
   55.9190   30.0400   44.0390 C   0  0  0  0  0  0  0  0  0  0  0  0
   56.8170   31.2340   43.8460 C   0  0  0  0  0  0  0  0  0  0  0  0
   57.4570   31.6120   45.1040 N   0  0  0  0  0  0  0  0  0  0  0  0
   57.6170   32.9820   45.5030 C   0  0  0  0  0  0  0  0  0  0  0  0
   57.0390   33.8960   44.8560 O   0  0  0  0  0  0  0  0  0  0  0  0
   58.4510   33.3430   46.6640 C   0  0  0  0  0  0  0  0  0  0  0  0
   59.2610   34.4670   46.7970 C   0  0  0  0  0  0  0  0  0  0  0  0
   59.9120   34.5370   48.0360 C   0  0  0  0  0  0  0  0  0  0  0  0
   59.6170   33.4780   48.8840 C   0  0  0  0  0  0  0  0  0  0  0  0
   58.5440   32.4560   48.0920 S   0  0  0  0  0  0  0  0  0  0  0  0
   55.9280   29.2250   45.2260 N   0  0  0  0  0  0  0  0  0  0  0  0
   56.8270   28.3670   45.6200 C   0  0  0  0  0  0  0  0  0  0  0  0
   58.1480   28.6960   45.6780 N   0  0  0  0  0  0  0  0  0  0  0  0
   59.0960   27.8160   46.0970 C   0  0  0  0  0  0  0  0  0  0  0  0
   58.7280   26.5300   46.4920 C   0  0  0  0  0  0  0  0  0  0  0  0
   57.3810   26.1650   46.4550 C   0  0  0  0  0  0  0  0  0  0  0  0
   56.4220   27.0840   46.0200 C   0  0  0  0  0  0  0  0  0  0  0  0
   55.0800   26.7190   45.9870 O   0  0  0  0  0  0  0  0  0  0  0  0
   57.5931   30.9856   43.1072 H   0  0  0  0  0  0  0  0  0  0  0  0
   56.2080   32.0792   43.4929 H   0  0  0  0  0  0  0  0  0  0  0  0
   57.7610   30.8480   45.7470 H   0  0  0  0  0  0  0  0  0  0  0  0
   59.3784   35.2247   46.0083 H   0  0  0  0  0  0  0  0  0  0  0  0
   60.5937   35.3553   48.3112 H   0  0  0  0  0  0  0  0  0  0  0  0
   60.0165   33.3331   49.8986 H   0  0  0  0  0  0  0  0  0  0  0  0
   60.1533   28.1183   46.1245 H   0  0  0  0  0  0  0  0  0  0  0  0
   59.4901   25.8118   46.8287 H   0  0  0  0  0  0  0  0  0  0  0  0
   57.0749   25.1558   46.7677 H   0  0  0  0  0  0  0  0  0  0  0  0
  1  2  2  0
  2  3  1  0
  3  4  1  0
  4  5  1  0
  5  6  2  0
  5  7  1  0
  7  8  2  0
  8  9  1  0
  9 10  2  0
 10 11  1  0
  2 12  1  0
 12 13  2  3
 13 14  1  0
 14 15  1  0
 15 16  2  0
 16 17  1  0
 17 18  2  0
 18 19  1  0
 11  7  1  0
 18 13  1  0
  3 20  1  0
  3 21  1  0
  4 22  1  0
  8 23  1  0
  9 24  1  0
 10 25  1  0
 15 26  1  0
 16 27  1  0
 17 28  1  0
M  CHG  2  14  -1  19  -1
M  END
>  <UniqueID>  (51) 
47

>  <SMILES>  (51) 
O=C(CNC(=O)c1cccs1)N=c1[n-]cccc1[O-]

>  <Energy>  (51) 
57.39071452520781

>  <Genealogy>  (51) 
O=C(CNC(=O)c1cccs1)N=c1[n-]cccc1[O-] (protonated)
O=C(CNC(=O)c1cccs1)N=c1[n-]cccc1[O-] (3D coordinates assigned)
O=C(CNC(=O)c1cccs1)N=c1[n-]cccc1[O-] (optimized conformer: 57.39071452520781 kcal/mol)

>  <smiles>  (51) 
O=C(CNC(=O)c1cccs1)N=c1[nH]cccc1O

>  <score_type>  (51) 
oracle

>  <origin>  (51) 
adg

>  <m_score__min__energy>  (51) 
-11.880000000000001

>  <m_primary>  (51) 
energy

$$$$
51:0
     RDKit          3D

 49 52  0  0  1  0  0  0  0  0999 V2000
   50.9100   31.6240   49.6760 N   0  0  0  0  0  0  0  0  0  0  0  0
   51.4250   31.8050   50.9900 C   0  0  0  0  0  0  0  0  0  0  0  0
   51.0250   32.8340   51.6260 O   0  0  0  0  0  0  0  0  0  0  0  0
   52.3640   30.8720   51.6000 C   0  0  0  0  0  0  0  0  0  0  0  0
   51.8580   29.6890   52.0980 C   0  0  0  0  0  0  0  0  0  0  0  0
   52.7760   28.8250   52.6720 C   0  0  0  0  0  0  0  0  0  0  0  0
   54.1280   29.1760   52.7200 C   0  0  0  0  0  0  0  0  0  0  0  0
   54.6110   30.3540   52.2220 C   0  0  0  0  0  0  0  0  0  0  0  0
   55.9560   30.7690   52.2380 N   0  0  0  0  0  0  0  0  0  0  0  0
   56.9150   30.4620   53.2290 C   0  0  0  0  0  0  0  0  0  0  0  0
   56.6690   29.7660   54.2300 O   0  0  0  0  0  0  0  0  0  0  0  0
   58.3170   30.9810   53.1050 C   0  0  0  0  0  0  0  0  0  0  0  0
   58.7180   30.7930   51.6940 C   0  0  0  0  0  0  0  0  0  0  0  0
   59.0710   29.6000   51.1360 C   0  0  0  0  0  0  0  0  0  0  0  0
   59.4380   29.4950   49.7990 C   0  0  0  0  0  0  0  0  0  0  0  0
   59.4350   30.6610   49.0280 C   0  0  0  0  0  0  0  0  0  0  0  0
   59.8020   30.6220   47.6400 N   0  0  0  0  0  0  0  0  0  0  0  0
   58.8970   30.7550   46.7100 C   0  0  0  0  0  0  0  0  0  0  0  0
   58.2370   29.6340   46.3740 N   0  0  0  0  0  0  0  0  0  0  0  0
   57.2790   29.7090   45.4060 C   0  0  0  0  0  0  0  0  0  0  0  0
   57.0260   30.8950   44.8240 N   0  0  0  0  0  0  0  0  0  0  0  0
   57.6650   32.0380   45.1320 C   0  0  0  0  0  0  0  0  0  0  0  0
   57.3740   33.2430   44.5070 C   0  0  0  0  0  0  0  0  0  0  0  0
   58.0840   34.3880   44.8850 C   0  0  0  0  0  0  0  0  0  0  0  0
   59.0670   34.3170   45.8770 C   0  0  0  0  0  0  0  0  0  0  0  0
   59.3550   33.1000   46.5030 C   0  0  0  0  0  0  0  0  0  0  0  0
   58.6440   31.9760   46.1170 C   0  0  0  0  0  0  0  0  0  0  0  0
   59.0850   31.8740   49.5540 C   0  0  0  0  0  0  0  0  0  0  0  0
   58.7310   31.9140   50.8870 C   0  0  0  0  0  0  0  0  0  0  0  0
   53.6820   31.2110   51.6500 C   0  0  0  0  0  0  0  0  0  0  0  0
   50.2730   30.8360   49.4290 H   0  0  0  0  0  0  0  0  0  0  0  0
   51.1500   32.2850   48.8840 H   0  0  0  0  0  0  0  0  0  0  0  0
   50.7867   29.4458   52.0424 H   0  0  0  0  0  0  0  0  0  0  0  0
   52.4414   27.8639   53.0895 H   0  0  0  0  0  0  0  0  0  0  0  0
   54.8366   28.4715   53.1800 H   0  0  0  0  0  0  0  0  0  0  0  0
   56.3140   31.3740   51.4390 H   0  0  0  0  0  0  0  0  0  0  0  0
   58.3507   32.0482   53.3695 H   0  0  0  0  0  0  0  0  0  0  0  0
   58.9977   30.4463   53.7838 H   0  0  0  0  0  0  0  0  0  0  0  0
   59.0653   28.6950   51.7613 H   0  0  0  0  0  0  0  0  0  0  0  0
   59.7214   28.5260   49.3622 H   0  0  0  0  0  0  0  0  0  0  0  0
   58.4280   28.7010   46.8240 H   0  0  0  0  0  0  0  0  0  0  0  0
   56.7202   28.8106   45.1050 H   0  0  0  0  0  0  0  0  0  0  0  0
   56.5989   33.2967   43.7283 H   0  0  0  0  0  0  0  0  0  0  0  0
   57.8674   35.3505   44.3985 H   0  0  0  0  0  0  0  0  0  0  0  0
   59.6173   35.2243   46.1669 H   0  0  0  0  0  0  0  0  0  0  0  0
   60.1278   33.0371   47.2833 H   0  0  0  0  0  0  0  0  0  0  0  0
   59.0857   32.7845   48.9368 H   0  0  0  0  0  0  0  0  0  0  0  0
   58.4465   32.8814   51.3265 H   0  0  0  0  0  0  0  0  0  0  0  0
   54.0132   32.1735   51.2329 H   0  0  0  0  0  0  0  0  0  0  0  0
  1  2  1  0
  2  3  2  0
  2  4  1  0
  4  5  2  0
  5  6  1  0
  6  7  2  0
  7  8  1  0
  8  9  1  0
  9 10  1  0
 10 11  2  0
 10 12  1  0
 12 13  1  0
 13 14  2  0
 14 15  1  0
 15 16  2  0
 16 17  1  0
 17 18  2  0
 18 19  1  0
 19 20  1  0
 20 21  2  0
 21 22  1  0
 22 23  2  0
 23 24  1  0
 24 25  2  0
 25 26  1  0
 26 27  2  0
 16 28  1  0
 28 29  2  0
  8 30  2  0
 30  4  1  0
 29 13  1  0
 27 18  1  0
 27 22  1  0
  1 31  1  0
  1 32  1  0
  5 33  1  0
  6 34  1  0
  7 35  1  0
  9 36  1  0
 12 37  1  0
 12 38  1  0
 14 39  1  0
 15 40  1  0
 19 41  1  0
 20 42  1  0
 23 43  1  0
 24 44  1  0
 25 45  1  0
 26 46  1  0
 28 47  1  0
 29 48  1  0
 30 49  1  0
M  END
>  <smiles>  (52) 
NC(=O)c1cccc(NC(=O)Cc2ccc(N=c3[nH]cnc4ccccc34)cc2)c1

>  <score_type>  (52) 
oracle

>  <origin>  (52) 
adg

>  <m_score__min__energy>  (52) 
-10.49

>  <m_primary>  (52) 
energy

$$$$
52:0
     RDKit          3D

 27 28  0  0  0  0  0  0  0  0999 V2000
   56.9570   30.7030   45.2000 O   0  0  0  0  0  0  0  0  0  0  0  0
   57.8620   30.2450   45.9480 C   0  0  0  0  0  0  0  0  0  0  0  0
   58.3900   28.8680   45.7140 C   0  0  0  0  0  0  0  0  0  0  0  0
   57.2380   27.9130   44.6650 S   0  0  0  0  0  0  0  0  0  0  0  0
   57.1700   26.4740   45.7490 C   0  0  0  0  0  0  0  0  0  0  0  0
   55.9510   26.0400   46.2850 C   0  0  0  0  0  0  0  0  0  0  0  0
   54.7690   26.7090   45.9870 O   0  0  0  0  0  0  0  0  0  0  0  0
   55.9170   24.9560   47.1030 N   0  0  0  0  0  0  0  0  0  0  0  0
   57.0520   24.2830   47.4190 C   0  0  0  0  0  0  0  0  0  0  0  0
   56.9970   23.2790   48.1750 O   0  0  0  0  0  0  0  0  0  0  0  0
   58.2470   24.6940   46.9230 N   0  0  0  0  0  0  0  0  0  0  0  0
   58.3310   25.7730   46.1040 C   0  0  0  0  0  0  0  0  0  0  0  0
   59.4560   26.1420   45.6760 O   0  0  0  0  0  0  0  0  0  0  0  0
   58.4070   31.0430   47.0040 N   0  0  0  0  0  0  0  0  0  0  0  0
   59.3340   32.1210   46.8250 C   0  0  0  0  0  0  0  0  0  0  0  0
   60.6640   31.9260   47.2230 C   0  0  0  0  0  0  0  0  0  0  0  0
   61.6070   32.9470   47.0730 C   0  0  0  0  0  0  0  0  0  0  0  0
   63.2730   32.6810   47.5560 Cl  0  0  0  0  0  0  0  0  0  0  0  0
   61.2230   34.1790   46.5390 C   0  0  0  0  0  0  0  0  0  0  0  0
   59.8930   34.3970   46.1710 C   0  0  0  0  0  0  0  0  0  0  0  0
   58.9400   33.3820   46.3180 C   0  0  0  0  0  0  0  0  0  0  0  0
   57.2620   33.7630   45.9510 Cl  0  0  0  0  0  0  0  0  0  0  0  0
   59.3665   28.9348   45.2120 H   0  0  0  0  0  0  0  0  0  0  0  0
   58.4967   28.3577   46.6826 H   0  0  0  0  0  0  0  0  0  0  0  0
   60.9680   30.9619   47.6568 H   0  0  0  0  0  0  0  0  0  0  0  0
   61.9678   34.9778   46.4081 H   0  0  0  0  0  0  0  0  0  0  0  0
   59.5924   35.3732   45.7628 H   0  0  0  0  0  0  0  0  0  0  0  0
  1  2  2  0
  2  3  1  0
  3  4  1  0
  4  5  1  0
  5  6  2  0
  6  7  1  0
  6  8  1  0
  8  9  1  0
  9 10  2  0
  9 11  1  0
 11 12  1  0
 12 13  2  0
  2 14  1  0
 14 15  1  0
 15 16  2  0
 16 17  1  0
 17 18  1  0
 17 19  2  0
 19 20  1  0
 20 21  2  0
 21 22  1  0
 12  5  1  0
 21 15  1  0
  3 23  1  0
  3 24  1  0
 16 25  1  0
 19 26  1  0
 20 27  1  0
M  CHG  4   7  -1   8  -1  11  -1  14  -1
M  END
>  <UniqueID>  (53) 
48

>  <SMILES>  (53) 
O=C(CSc1c([O-])[n-]c(=O)[n-]c1=O)[N-]c1cc(Cl)ccc1Cl

>  <Energy>  (53) 
32.101567588515614

>  <Genealogy>  (53) 
O=C(CSc1c([O-])[n-]c(=O)[n-]c1=O)[N-]c1cc(Cl)ccc1Cl (protonated)
O=C(CSc1c([O-])[n-]c(=O)[n-]c1=O)[N-]c1cc(Cl)ccc1Cl (3D coordinates assigned)
O=C(CSc1c([O-])[n-]c(=O)[n-]c1=O)[N-]c1cc(Cl)ccc1Cl (optimized conformer: 32.101567588515614 kcal/mol)

>  <smiles>  (53) 
O=C(CSc1c(O)[nH]c(=O)[nH]c1=O)Nc1cc(Cl)ccc1Cl

>  <score_type>  (53) 
oracle

>  <origin>  (53) 
adg

>  <m_score__min__energy>  (53) 
-16.370000000000001

>  <m_primary>  (53) 
energy

$$$$
53:0
     RDKit          3D

 61 64  0  0  0  0  0  0  0  0999 V2000
   66.5980   32.2010   50.3740 C   0  0  0  0  0  0  0  0  0  0  0  0
   65.1610   32.3100   50.7860 C   0  0  0  0  0  0  0  0  0  0  0  0
   64.8330   31.9030   51.9330 O   0  0  0  0  0  0  0  0  0  0  0  0
   64.1550   32.8530   49.9030 N   0  0  0  0  0  0  0  0  0  0  0  0
   62.8600   33.2560   50.4790 C   0  0  0  0  0  0  0  0  0  0  0  0
   62.0250   34.0700   49.4890 C   0  0  0  0  0  0  0  0  0  0  0  0
   61.9900   33.3950   48.1900 N   0  0  0  0  0  0  0  0  0  0  0  0
   60.7520   33.2930   47.4720 C   0  0  0  0  0  0  0  0  0  0  0  0
   60.4720   34.2060   46.4490 C   0  0  0  0  0  0  0  0  0  0  0  0
   59.2680   34.1350   45.7460 C   0  0  0  0  0  0  0  0  0  0  0  0
   58.3200   33.1450   46.0580 C   0  0  0  0  0  0  0  0  0  0  0  0
   57.0450   33.0520   45.3070 C   0  0  0  0  0  0  0  0  0  0  0  0
   56.2920   34.0590   45.2410 O   0  0  0  0  0  0  0  0  0  0  0  0
   56.6120   31.8290   44.6920 N   0  0  0  0  0  0  0  0  0  0  0  0
   57.3100   30.5760   44.7140 C   0  0  0  0  0  0  0  0  0  0  0  0
   58.6970   30.5760   44.5220 C   0  0  0  0  0  0  0  0  0  0  0  0
   59.4130   29.3760   44.5340 C   0  0  0  0  0  0  0  0  0  0  0  0
   58.7490   28.1670   44.7550 C   0  0  0  0  0  0  0  0  0  0  0  0
   57.3690   28.1590   44.9780 C   0  0  0  0  0  0  0  0  0  0  0  0
   56.6470   29.3570   44.9670 C   0  0  0  0  0  0  0  0  0  0  0  0
   55.3200   29.3250   45.2430 F   0  0  0  0  0  0  0  0  0  0  0  0
   58.6110   32.2160   47.0700 C   0  0  0  0  0  0  0  0  0  0  0  0
   59.8150   32.2900   47.7910 C   0  0  0  0  0  0  0  0  0  0  0  0
   60.1320   31.3020   48.7850 N   0  0  0  0  0  0  0  0  0  0  0  0
   60.6050   29.9820   48.4610 C   0  0  0  0  0  0  0  0  0  0  0  0
   60.8280   29.6700   47.2580 O   0  0  0  0  0  0  0  0  0  0  0  0
   60.8280   28.9720   49.5200 C   0  0  0  0  0  0  0  0  0  0  0  0
   60.5600   27.6100   49.2980 C   0  0  0  0  0  0  0  0  0  0  0  0
   60.7740   26.6700   50.3100 C   0  0  0  0  0  0  0  0  0  0  0  0
   61.2510   27.0730   51.5690 C   0  0  0  0  0  0  0  0  0  0  0  0
   61.5200   26.0530   52.6470 C   0  0  0  0  0  0  0  0  0  0  0  0
   62.2030   24.9830   52.1020 F   0  0  0  0  0  0  0  0  0  0  0  0
   60.3350   25.5990   53.1970 F   0  0  0  0  0  0  0  0  0  0  0  0
   62.2830   26.6060   53.6610 F   0  0  0  0  0  0  0  0  0  0  0  0
   61.5620   28.4270   51.7770 C   0  0  0  0  0  0  0  0  0  0  0  0
   61.3490   29.3670   50.7660 C   0  0  0  0  0  0  0  0  0  0  0  0
   63.2080   32.8050   47.6190 C   0  0  0  0  0  0  0  0  0  0  0  0
   64.4390   33.1090   48.4810 C   0  0  0  0  0  0  0  0  0  0  0  0
   67.2338   32.1528   51.2704 H   0  0  0  0  0  0  0  0  0  0  0  0
   66.7395   31.2895   49.7746 H   0  0  0  0  0  0  0  0  0  0  0  0
   66.8753   33.0807   49.7746 H   0  0  0  0  0  0  0  0  0  0  0  0
   62.2987   32.3525   50.7593 H   0  0  0  0  0  0  0  0  0  0  0  0
   63.0589   33.8872   51.3576 H   0  0  0  0  0  0  0  0  0  0  0  0
   60.9998   34.1717   49.8744 H   0  0  0  0  0  0  0  0  0  0  0  0
   62.4780   35.0649   49.3669 H   0  0  0  0  0  0  0  0  0  0  0  0
   61.2061   34.9854   46.1969 H   0  0  0  0  0  0  0  0  0  0  0  0
   59.0599   34.8578   44.9434 H   0  0  0  0  0  0  0  0  0  0  0  0
   59.2264   31.5267   44.3607 H   0  0  0  0  0  0  0  0  0  0  0  0
   60.5006   29.3834   44.3693 H   0  0  0  0  0  0  0  0  0  0  0  0
   59.3117   27.2218   44.7536 H   0  0  0  0  0  0  0  0  0  0  0  0
   56.8491   27.2074   45.1628 H   0  0  0  0  0  0  0  0  0  0  0  0
   57.8875   31.4204   47.3013 H   0  0  0  0  0  0  0  0  0  0  0  0
   59.9300   31.5440   49.7790 H   0  0  0  0  0  0  0  0  0  0  0  0
   60.1788   27.2814   48.3199 H   0  0  0  0  0  0  0  0  0  0  0  0
   60.5674   25.6065   50.1195 H   0  0  0  0  0  0  0  0  0  0  0  0
   61.9765   28.7495   52.7435 H   0  0  0  0  0  0  0  0  0  0  0  0
   61.5906   30.4250   50.9454 H   0  0  0  0  0  0  0  0  0  0  0  0
   63.0792   31.7146   47.5522 H   0  0  0  0  0  0  0  0  0  0  0  0
   63.3685   33.2429   46.6228 H   0  0  0  0  0  0  0  0  0  0  0  0
   65.2729   32.4683   48.1583 H   0  0  0  0  0  0  0  0  0  0  0  0
   64.7031   34.1698   48.3586 H   0  0  0  0  0  0  0  0  0  0  0  0
  1  2  1  0
  2  3  2  0
  2  4  1  0
  4  5  1  0
  5  6  1  0
  6  7  1  0
  7  8  1  0
  8  9  2  0
  9 10  1  0
 10 11  2  0
 11 12  1  0
 12 13  2  0
 12 14  1  0
 14 15  1  0
 15 16  2  0
 16 17  1  0
 17 18  2  0
 18 19  1  0
 19 20  2  0
 20 21  1  0
 11 22  1  0
 22 23  2  0
 23 24  1  0
 24 25  1  0
 25 26  2  0
 25 27  1  0
 27 28  2  0
 28 29  1  0
 29 30  2  0
 30 31  1  0
 31 32  1  0
 31 33  1  0
 31 34  1  0
 30 35  1  0
 35 36  2  0
  7 37  1  0
 37 38  1  0
 38  4  1  0
 23  8  1  0
 36 27  1  0
 20 15  1  0
  1 39  1  0
  1 40  1  0
  1 41  1  0
  5 42  1  0
  5 43  1  0
  6 44  1  0
  6 45  1  0
  9 46  1  0
 10 47  1  0
 16 48  1  0
 17 49  1  0
 18 50  1  0
 19 51  1  0
 22 52  1  0
 24 53  1  0
 28 54  1  0
 29 55  1  0
 35 56  1  0
 36 57  1  0
 37 58  1  0
 37 59  1  0
 38 60  1  0
 38 61  1  0
M  CHG  1  14  -1
M  END
>  <UniqueID>  (54) 
49

>  <SMILES>  (54) 
CC(=O)N1CCN(c2ccc(C(=O)[N-]c3ccccc3F)cc2NC(=O)c2ccc(C(F)(F)F)cc2)CC1

>  <Energy>  (54) 
83.94895491761515

>  <Genealogy>  (54) 
CC(=O)N1CCN(c2ccc(C(=O)[N-]c3ccccc3F)cc2NC(=O)c2ccc(C(F)(F)F)cc2)CC1 (protonated)
CC(=O)N1CCN(c2ccc(C(=O)[N-]c3ccccc3F)cc2NC(=O)c2ccc(C(F)(F)F)cc2)CC1 (3D coordinates assigned)
CC(=O)N1CCN(c2ccc(C(=O)[N-]c3ccccc3F)cc2NC(=O)c2ccc(C(F)(F)F)cc2)CC1 (nonaromatic ring conformer: 83.94895491761515 kcal/mol)

>  <smiles>  (54) 
CC(=O)N1CCN(c2ccc(C(=O)Nc3ccccc3F)cc2NC(=O)c2ccc(C(F)(F)F)cc2)CC1

>  <score_type>  (54) 
oracle

>  <origin>  (54) 
adg

>  <m_score__min__energy>  (54) 
-9.8300000000000001

>  <m_primary>  (54) 
energy

$$$$
54:0
     RDKit          3D

 59 62  0  0  0  0  0  0  0  0999 V2000
   58.0430   23.8710   45.7520 O   0  0  0  0  0  0  0  0  0  0  0  0
   57.2970   24.8150   46.1330 C   0  0  0  0  0  0  0  0  0  0  0  0
   56.1260   24.5350   46.9130 N   0  0  0  0  0  0  0  0  0  0  0  0
   54.8600   24.0810   46.4070 C   0  0  0  0  0  0  0  0  0  0  0  0
   54.4750   22.7310   46.4810 C   0  0  0  0  0  0  0  0  0  0  0  0
   53.2490   22.3170   45.9490 C   0  0  0  0  0  0  0  0  0  0  0  0
   52.4050   23.2430   45.3300 C   0  0  0  0  0  0  0  0  0  0  0  0
   50.8670   22.7210   44.6640 Cl  0  0  0  0  0  0  0  0  0  0  0  0
   52.7910   24.5810   45.2330 C   0  0  0  0  0  0  0  0  0  0  0  0
   54.0180   24.9990   45.7620 C   0  0  0  0  0  0  0  0  0  0  0  0
   54.3930   26.3330   45.6490 O   0  0  0  0  0  0  0  0  0  0  0  0
   57.6530   26.2170   45.8090 C   0  0  0  0  0  0  0  0  0  0  0  0
   57.9310   27.1440   46.8310 C   0  0  0  0  0  0  0  0  0  0  0  0
   58.2470   28.4710   46.5210 C   0  0  0  0  0  0  0  0  0  0  0  0
   58.2780   28.9000   45.1880 C   0  0  0  0  0  0  0  0  0  0  0  0
   58.6220   30.2620   44.8930 N   0  0  0  0  0  0  0  0  0  0  0  0
   59.2930   31.1400   45.8090 C   0  0  0  0  0  0  0  0  0  0  0  0
   59.0010   32.7530   45.6960 S   0  0  0  0  0  0  0  0  0  0  0  0
   60.2220   30.6140   46.7780 N   0  0  0  0  0  0  0  0  0  0  0  0
   60.9470   31.4200   47.7180 C   0  0  0  0  0  0  0  0  0  0  0  0
   62.1860   31.9650   47.3540 C   0  0  0  0  0  0  0  0  0  0  0  0
   62.9060   32.7470   48.2610 C   0  0  0  0  0  0  0  0  0  0  0  0
   62.3810   33.0120   49.5350 C   0  0  0  0  0  0  0  0  0  0  0  0
   63.3080   33.9500   50.7080 S   0  0  0  0  0  0  0  0  0  0  0  0
   63.0350   35.4150   50.5040 O   0  0  0  0  0  0  0  0  0  0  0  0
   62.8640   33.5830   52.0950 O   0  0  0  0  0  0  0  0  0  0  0  0
   65.0230   33.6500   50.5490 N   0  0  0  0  0  0  0  0  0  0  0  0
   65.7550   34.2560   51.6710 C   0  0  0  0  0  0  0  0  0  0  0  0
   67.2720   34.2160   51.4050 C   0  0  0  0  0  0  0  0  0  0  0  0
   67.6740   33.0580   50.4750 C   0  0  0  0  0  0  0  0  0  0  0  0
   66.7690   31.8420   50.6880 C   0  0  0  0  0  0  0  0  0  0  0  0
   65.2830   32.1960   50.4580 C   0  0  0  0  0  0  0  0  0  0  0  0
   61.1210   32.5060   49.8830 C   0  0  0  0  0  0  0  0  0  0  0  0
   60.4050   31.7170   48.9790 C   0  0  0  0  0  0  0  0  0  0  0  0
   58.0350   27.9710   44.1620 C   0  0  0  0  0  0  0  0  0  0  0  0
   57.7150   26.6450   44.4700 C   0  0  0  0  0  0  0  0  0  0  0  0
   55.1404   21.9971   46.9591 H   0  0  0  0  0  0  0  0  0  0  0  0
   52.9490   21.2610   46.0181 H   0  0  0  0  0  0  0  0  0  0  0  0
   52.1296   25.3086   44.7398 H   0  0  0  0  0  0  0  0  0  0  0  0
   57.8995   26.8223   47.8824 H   0  0  0  0  0  0  0  0  0  0  0  0
   58.4726   29.1822   47.3293 H   0  0  0  0  0  0  0  0  0  0  0  0
   58.3700   30.6370   43.9540 H   0  0  0  0  0  0  0  0  0  0  0  0
   60.3290   29.5810   46.8660 H   0  0  0  0  0  0  0  0  0  0  0  0
   62.5934   31.7763   46.3498 H   0  0  0  0  0  0  0  0  0  0  0  0
   63.8865   33.1558   47.9756 H   0  0  0  0  0  0  0  0  0  0  0  0
   65.4351   35.3017   51.7902 H   0  0  0  0  0  0  0  0  0  0  0  0
   65.5378   33.6881   52.5877 H   0  0  0  0  0  0  0  0  0  0  0  0
   67.5740   35.1651   50.9382 H   0  0  0  0  0  0  0  0  0  0  0  0
   67.7778   34.0625   52.3697 H   0  0  0  0  0  0  0  0  0  0  0  0
   67.5894   33.3904   49.4298 H   0  0  0  0  0  0  0  0  0  0  0  0
   68.7098   32.7678   50.7052 H   0  0  0  0  0  0  0  0  0  0  0  0
   67.0614   31.0506   49.9822 H   0  0  0  0  0  0  0  0  0  0  0  0
   66.8862   31.5020   51.7275 H   0  0  0  0  0  0  0  0  0  0  0  0
   64.9888   31.8476   49.4570 H   0  0  0  0  0  0  0  0  0  0  0  0
   64.6973   31.7030   51.2479 H   0  0  0  0  0  0  0  0  0  0  0  0
   60.6942   32.7309   50.8716 H   0  0  0  0  0  0  0  0  0  0  0  0
   59.4142   31.3275   49.2558 H   0  0  0  0  0  0  0  0  0  0  0  0
   58.0968   28.2886   43.1107 H   0  0  0  0  0  0  0  0  0  0  0  0
   57.5101   25.9307   43.6589 H   0  0  0  0  0  0  0  0  0  0  0  0
  1  2  2  0
  2  3  1  0
  3  4  1  0
  4  5  2  0
  5  6  1  0
  6  7  2  0
  7  8  1  0
  7  9  1  0
  9 10  2  0
 10 11  1  0
  2 12  1  0
 12 13  2  0
 13 14  1  0
 14 15  2  0
 15 16  1  0
 16 17  1  0
 17 18  2  0
 17 19  1  0
 19 20  1  0
 20 21  2  0
 21 22  1  0
 22 23  2  0
 23 24  1  0
 24 25  2  0
 24 26  2  0
 24 27  1  0
 27 28  1  0
 28 29  1  0
 29 30  1  0
 30 31  1  0
 31 32  1  0
 23 33  1  0
 33 34  2  0
 15 35  1  0
 35 36  2  0
 10  4  1  0
 36 12  1  0
 34 20  1  0
 32 27  1  0
  5 37  1  0
  6 38  1  0
  9 39  1  0
 13 40  1  0
 14 41  1  0
 16 42  1  0
 19 43  1  0
 21 44  1  0
 22 45  1  0
 28 46  1  0
 28 47  1  0
 29 48  1  0
 29 49  1  0
 30 50  1  0
 30 51  1  0
 31 52  1  0
 31 53  1  0
 32 54  1  0
 32 55  1  0
 33 56  1  0
 34 57  1  0
 35 58  1  0
 36 59  1  0
M  CHG  2   3  -1  11  -1
M  END
>  <UniqueID>  (55) 
50

>  <SMILES>  (55) 
O=C([N-]c1ccc(Cl)cc1[O-])c1ccc(NC(=S)Nc2ccc(S(=O)(=O)N3CCCCC3)cc2)cc1

>  <Energy>  (55) 
80.1065830356657

>  <Genealogy>  (55) 
O=C([N-]c1ccc(Cl)cc1[O-])c1ccc(NC(=S)Nc2ccc(S(=O)(=O)N3CCCCC3)cc2)cc1 (protonated)
O=C([N-]c1ccc(Cl)cc1[O-])c1ccc(NC(=S)Nc2ccc(S(=O)(=O)N3CCCCC3)cc2)cc1 (3D coordinates assigned)
O=C([N-]c1ccc(Cl)cc1[O-])c1ccc(NC(=S)Nc2ccc(S(=O)(=O)N3CCCCC3)cc2)cc1 (nonaromatic ring conformer: 80.1065830356657 kcal/mol)

>  <smiles>  (55) 
O=C(Nc1ccc(Cl)cc1O)c1ccc(NC(=S)Nc2ccc(S(=O)(=O)N3CCCCC3)cc2)cc1

>  <score_type>  (55) 
oracle

>  <origin>  (55) 
adg

>  <m_score__min__energy>  (55) 
-14.84

>  <m_primary>  (55) 
energy

$$$$
55:0
     RDKit          3D

 50 53  0  0  0  0  0  0  0  0999 V2000
   59.5290   31.3750   45.3700 O   0  0  0  0  0  0  0  0  0  0  0  0
   58.3230   31.6690   45.1470 C   0  0  0  0  0  0  0  0  0  0  0  0
   57.8700   33.0970   45.2610 C   0  0  0  0  0  0  0  0  0  0  0  0
   57.6830   33.5180   46.7250 C   0  0  0  0  0  0  0  0  0  0  0  0
   58.9820   33.5460   47.4730 C   0  0  0  0  0  0  0  0  0  0  0  0
   58.9930   33.5090   48.8340 N   0  0  0  0  0  0  0  0  0  0  0  0
   60.1580   33.4660   49.5320 C   0  0  0  0  0  0  0  0  0  0  0  0
   60.1240   33.4260   50.7920 O   0  0  0  0  0  0  0  0  0  0  0  0
   61.3840   33.4600   48.8400 C   0  0  0  0  0  0  0  0  0  0  0  0
   62.6240   33.4340   49.5000 C   0  0  0  0  0  0  0  0  0  0  0  0
   63.8110   33.4340   48.7610 C   0  0  0  0  0  0  0  0  0  0  0  0
   63.7700   33.4570   47.3610 C   0  0  0  0  0  0  0  0  0  0  0  0
   62.5430   33.4800   46.6940 C   0  0  0  0  0  0  0  0  0  0  0  0
   61.3510   33.4880   47.4260 C   0  0  0  0  0  0  0  0  0  0  0  0
   60.1550   33.5280   46.7830 N   0  0  0  0  0  0  0  0  0  0  0  0
   57.3680   30.6460   44.8240 N   0  0  0  0  0  0  0  0  0  0  0  0
   57.5160   29.2590   45.1810 C   0  0  0  0  0  0  0  0  0  0  0  0
   58.7700   28.7360   45.5400 C   0  0  0  0  0  0  0  0  0  0  0  0
   58.9000   27.3930   45.8950 C   0  0  0  0  0  0  0  0  0  0  0  0
   57.7780   26.5650   45.9210 C   0  0  0  0  0  0  0  0  0  0  0  0
   56.5080   27.0720   45.6270 C   0  0  0  0  0  0  0  0  0  0  0  0
   55.4270   26.1820   45.7450 O   0  0  0  0  0  0  0  0  0  0  0  0
   55.5040   24.5720   46.3310 S   0  0  0  0  0  0  0  0  0  0  0  0
   56.3130   24.5380   47.6030 O   0  0  0  0  0  0  0  0  0  0  0  0
   54.1060   24.0990   46.6320 O   0  0  0  0  0  0  0  0  0  0  0  0
   56.2140   23.5060   45.1200 C   0  0  0  0  0  0  0  0  0  0  0  0
   55.6340   23.3970   43.8510 C   0  0  0  0  0  0  0  0  0  0  0  0
   56.2040   22.5600   42.8860 C   0  0  0  0  0  0  0  0  0  0  0  0
   57.3570   21.8340   43.1820 C   0  0  0  0  0  0  0  0  0  0  0  0
   57.9470   21.9470   44.4480 C   0  0  0  0  0  0  0  0  0  0  0  0
   57.3790   22.7840   45.4120 C   0  0  0  0  0  0  0  0  0  0  0  0
   56.3800   28.4280   45.2380 C   0  0  0  0  0  0  0  0  0  0  0  0
   55.1460   28.9550   44.8770 O   0  0  0  0  0  0  0  0  0  0  0  0
   58.6247   33.7486   44.7963 H   0  0  0  0  0  0  0  0  0  0  0  0
   56.9001   33.1909   44.7506 H   0  0  0  0  0  0  0  0  0  0  0  0
   57.2368   34.5231   46.7510 H   0  0  0  0  0  0  0  0  0  0  0  0
   57.0284   32.7786   47.2096 H   0  0  0  0  0  0  0  0  0  0  0  0
   62.6611   33.4136   50.5992 H   0  0  0  0  0  0  0  0  0  0  0  0
   64.7803   33.4159   49.2808 H   0  0  0  0  0  0  0  0  0  0  0  0
   64.7072   33.4570   46.7850 H   0  0  0  0  0  0  0  0  0  0  0  0
   62.5141   33.4918   45.5944 H   0  0  0  0  0  0  0  0  0  0  0  0
   56.5020   30.9360   44.3140 H   0  0  0  0  0  0  0  0  0  0  0  0
   59.6547   29.3897   45.5411 H   0  0  0  0  0  0  0  0  0  0  0  0
   59.8887   26.9867   46.1547 H   0  0  0  0  0  0  0  0  0  0  0  0
   57.8932   25.5011   46.1756 H   0  0  0  0  0  0  0  0  0  0  0  0
   54.7269   23.9714   43.6117 H   0  0  0  0  0  0  0  0  0  0  0  0
   55.7416   22.4744   41.8916 H   0  0  0  0  0  0  0  0  0  0  0  0
   57.8026   21.1739   42.4233 H   0  0  0  0  0  0  0  0  0  0  0  0
   58.8577   21.3765   44.6830 H   0  0  0  0  0  0  0  0  0  0  0  0
   57.8477   22.8764   46.4029 H   0  0  0  0  0  0  0  0  0  0  0  0
  1  2  2  0
  2  3  1  0
  3  4  1  0
  4  5  1  0
  5  6  2  0
  6  7  1  0
  7  8  2  0
  7  9  1  0
  9 10  2  0
 10 11  1  0
 11 12  2  0
 12 13  1  0
 13 14  2  0
 14 15  1  0
  2 16  1  0
 16 17  1  0
 17 18  2  0
 18 19  1  0
 19 20  2  0
 20 21  1  0
 21 22  1  0
 22 23  1  0
 23 24  2  0
 23 25  2  0
 23 26  1  0
 26 27  2  0
 27 28  1  0
 28 29  2  0
 29 30  1  0
 30 31  2  0
 21 32  2  0
 32 33  1  0
 15  5  1  0
 32 17  1  0
 14  9  1  0
 31 26  1  0
  3 34  1  0
  3 35  1  0
  4 36  1  0
  4 37  1  0
 10 38  1  0
 11 39  1  0
 12 40  1  0
 13 41  1  0
 16 42  1  0
 18 43  1  0
 19 44  1  0
 20 45  1  0
 27 46  1  0
 28 47  1  0
 29 48  1  0
 30 49  1  0
 31 50  1  0
M  CHG  2  15  -1  33  -1
M  END
>  <UniqueID>  (56) 
51

>  <SMILES>  (56) 
O=C(CCc1nc(=O)c2ccccc2[n-]1)Nc1cccc(OS(=O)(=O)c2ccccc2)c1[O-]

>  <Energy>  (56) 
59.742292009467775

>  <Genealogy>  (56) 
O=C(CCc1nc(=O)c2ccccc2[n-]1)Nc1cccc(OS(=O)(=O)c2ccccc2)c1[O-] (protonated)
O=C(CCc1nc(=O)c2ccccc2[n-]1)Nc1cccc(OS(=O)(=O)c2ccccc2)c1[O-] (3D coordinates assigned)
O=C(CCc1nc(=O)c2ccccc2[n-]1)Nc1cccc(OS(=O)(=O)c2ccccc2)c1[O-] (optimized conformer: 59.742292009467775 kcal/mol)

>  <smiles>  (56) 
O=C(CCc1nc(=O)c2ccccc2[nH]1)Nc1cccc(OS(=O)(=O)c2ccccc2)c1O

>  <score_type>  (56) 
oracle

>  <origin>  (56) 
adg

>  <m_score__min__energy>  (56) 
-15.119999999999999

>  <m_primary>  (56) 
energy

$$$$
56:0
     RDKit          3D

 43 45  0  0  0  0  0  0  0  0999 V2000
   61.5400   31.2630   46.7780 O   0  0  0  0  0  0  0  0  0  0  0  0
   60.3110   31.0470   46.9620 C   0  0  0  0  0  0  0  0  0  0  0  0
   59.4670   32.1040   47.4340 N   0  0  0  0  0  0  0  0  0  0  0  0
   58.2060   32.4780   46.8040 C   0  0  0  0  0  0  0  0  0  0  0  0
   58.4310   32.8630   45.3400 C   0  0  0  0  0  0  0  0  0  0  0  0
   57.7560   31.8770   44.4240 C   0  0  0  0  0  0  0  0  0  0  0  0
   57.1520   30.7210   44.9480 C   0  0  0  0  0  0  0  0  0  0  0  0
   56.4970   29.8230   44.1000 C   0  0  0  0  0  0  0  0  0  0  0  0
   56.4310   30.0770   42.7260 C   0  0  0  0  0  0  0  0  0  0  0  0
   57.0160   31.2320   42.2000 C   0  0  0  0  0  0  0  0  0  0  0  0
   57.6740   32.1310   43.0450 C   0  0  0  0  0  0  0  0  0  0  0  0
   59.7470   29.7020   46.7020 C   0  0  0  0  0  0  0  0  0  0  0  0
   59.0480   29.0100   47.7070 C   0  0  0  0  0  0  0  0  0  0  0  0
   58.5170   27.7410   47.4580 C   0  0  0  0  0  0  0  0  0  0  0  0
   58.6880   27.1310   46.2110 C   0  0  0  0  0  0  0  0  0  0  0  0
   58.1130   25.8350   45.9940 N   0  0  0  0  0  0  0  0  0  0  0  0
   57.3620   25.4150   44.8470 C   0  0  0  0  0  0  0  0  0  0  0  0
   57.8050   25.6160   43.6850 O   0  0  0  0  0  0  0  0  0  0  0  0
   56.0590   24.7360   45.0250 C   0  0  0  0  0  0  0  0  0  0  0  0
   54.9360   25.3920   45.5800 C   0  0  0  0  0  0  0  0  0  0  0  0
   55.0080   26.6880   46.0920 O   0  0  0  0  0  0  0  0  0  0  0  0
   53.7480   24.7400   45.6540 N   0  0  0  0  0  0  0  0  0  0  0  0
   53.6150   23.4580   45.2320 C   0  0  0  0  0  0  0  0  0  0  0  0
   52.5020   22.8790   45.3180 O   0  0  0  0  0  0  0  0  0  0  0  0
   54.6830   22.7970   44.7230 N   0  0  0  0  0  0  0  0  0  0  0  0
   55.8940   23.4000   44.6100 C   0  0  0  0  0  0  0  0  0  0  0  0
   56.8570   22.7540   44.1140 O   0  0  0  0  0  0  0  0  0  0  0  0
   59.3650   27.8270   45.1950 C   0  0  0  0  0  0  0  0  0  0  0  0
   59.8940   29.0970   45.4400 C   0  0  0  0  0  0  0  0  0  0  0  0
   57.5112   31.6266   46.8516 H   0  0  0  0  0  0  0  0  0  0  0  0
   57.7844   33.3423   47.3381 H   0  0  0  0  0  0  0  0  0  0  0  0
   58.0152   33.8656   45.1617 H   0  0  0  0  0  0  0  0  0  0  0  0
   59.5114   32.8574   45.1334 H   0  0  0  0  0  0  0  0  0  0  0  0
   57.1948   30.5222   46.0290 H   0  0  0  0  0  0  0  0  0  0  0  0
   56.0330   28.9156   44.5138 H   0  0  0  0  0  0  0  0  0  0  0  0
   55.9186   29.3676   42.0595 H   0  0  0  0  0  0  0  0  0  0  0  0
   56.9588   31.4341   41.1202 H   0  0  0  0  0  0  0  0  0  0  0  0
   58.1295   33.0413   42.6279 H   0  0  0  0  0  0  0  0  0  0  0  0
   58.9180   29.4710   48.6972 H   0  0  0  0  0  0  0  0  0  0  0  0
   57.9601   27.2179   48.2493 H   0  0  0  0  0  0  0  0  0  0  0  0
   55.1450   27.5070   45.5140 H   0  0  0  0  0  0  0  0  0  0  0  0
   59.4791   27.3695   44.2012 H   0  0  0  0  0  0  0  0  0  0  0  0
   60.4298   29.6283   44.6396 H   0  0  0  0  0  0  0  0  0  0  0  0
  1  2  2  0
  2  3  1  0
  3  4  1  0
  4  5  1  0
  5  6  1  0
  6  7  2  0
  7  8  1  0
  8  9  2  0
  9 10  1  0
 10 11  2  0
  2 12  1  0
 12 13  2  0
 13 14  1  0
 14 15  2  0
 15 16  1  0
 16 17  1  0
 17 18  2  0
 17 19  1  0
 19 20  2  0
 20 21  1  0
 20 22  1  0
 22 23  1  0
 23 24  2  0
 23 25  1  0
 25 26  1  0
 26 27  2  0
 15 28  1  0
 28 29  2  0
 11  6  1  0
 29 12  1  0
 26 19  1  0
  4 30  1  0
  4 31  1  0
  5 32  1  0
  5 33  1  0
  7 34  1  0
  8 35  1  0
  9 36  1  0
 10 37  1  0
 11 38  1  0
 13 39  1  0
 14 40  1  0
 21 41  1  0
 28 42  1  0
 29 43  1  0
M  CHG  4   3  -1  16  -1  22  -1  25  -1
M  END
>  <UniqueID>  (57) 
52

>  <SMILES>  (57) 
O=C([N-]CCc1ccccc1)c1ccc([N-]C(=O)c2c(O)[n-]c(=O)[n-]c2=O)cc1

>  <Energy>  (57) 
54.180613651592395

>  <Genealogy>  (57) 
O=C([N-]CCc1ccccc1)c1ccc([N-]C(=O)c2c(O)[n-]c(=O)[n-]c2=O)cc1 (protonated)
O=C([N-]CCc1ccccc1)c1ccc([N-]C(=O)c2c(O)[n-]c(=O)[n-]c2=O)cc1 (3D coordinates assigned)
O=C([N-]CCc1ccccc1)c1ccc([N-]C(=O)c2c(O)[n-]c(=O)[n-]c2=O)cc1 (optimized conformer: 54.180613651592395 kcal/mol)

>  <smiles>  (57) 
O=C(NCCc1ccccc1)c1ccc(NC(=O)c2c(O)[nH]c(=O)[nH]c2=O)cc1

>  <score_type>  (57) 
oracle

>  <origin>  (57) 
adg

>  <m_score__min__energy>  (57) 
-15.41

>  <m_primary>  (57) 
energy

$$$$
57:0
     RDKit          3D

 31 32  0  0  0  0  0  0  0  0999 V2000
   55.9108   31.7020   43.5011 H   0  0  0  0  0  0  0  0  0  0  0  0
   56.7110   31.0380   43.8600 C   0  0  0  0  0  0  0  0  0  0  0  0
   56.3640   29.6570   44.2550 C   0  0  0  0  0  0  0  0  0  0  0  0
   55.1510   29.3600   44.4080 O   0  0  0  0  0  0  0  0  0  0  0  0
   57.3530   28.6280   44.4140 N   0  0  0  0  0  0  0  0  0  0  0  0
   57.2570   27.5920   45.1950 C   0  0  0  0  0  0  0  0  0  0  0  0
   58.5740   26.6680   45.6730 S   0  0  0  0  0  0  0  0  0  0  0  0
   57.6320   25.6100   46.5860 C   0  0  0  0  0  0  0  0  0  0  0  0
   58.0031   24.7526   47.1666 H   0  0  0  0  0  0  0  0  0  0  0  0
   56.3040   26.0090   46.4780 C   0  0  0  0  0  0  0  0  0  0  0  0
   55.4834   25.4785   46.9831 H   0  0  0  0  0  0  0  0  0  0  0  0
   56.0980   27.1040   45.7010 N   0  0  0  0  0  0  0  0  0  0  0  0
   55.1480   27.4880   45.5100 H   0  0  0  0  0  0  0  0  0  0  0  0
   57.9630   31.5130   43.9220 C   0  0  0  0  0  0  0  0  0  0  0  0
   58.7010   31.1394   43.1969 H   0  0  0  0  0  0  0  0  0  0  0  0
   58.4010   32.5170   44.9200 C   0  0  0  0  0  0  0  0  0  0  0  0
   58.5110   33.8800   44.5830 C   0  0  0  0  0  0  0  0  0  0  0  0
   58.2562   34.2133   43.5662 H   0  0  0  0  0  0  0  0  0  0  0  0
   58.9410   34.8110   45.5300 C   0  0  0  0  0  0  0  0  0  0  0  0
   59.0196   35.8741   45.2585 H   0  0  0  0  0  0  0  0  0  0  0  0
   59.2710   34.3960   46.8190 C   0  0  0  0  0  0  0  0  0  0  0  0
   59.6071   35.1329   47.5634 H   0  0  0  0  0  0  0  0  0  0  0  0
   59.1760   33.0470   47.1680 C   0  0  0  0  0  0  0  0  0  0  0  0
   59.4415   32.7260   48.1861 H   0  0  0  0  0  0  0  0  0  0  0  0
   58.7420   32.0940   46.2240 C   0  0  0  0  0  0  0  0  0  0  0  0
   58.6200   30.7290   46.5450 O   0  0  0  0  0  0  0  0  0  0  0  0
   59.7040   29.8240   46.7530 C   0  0  0  0  0  0  0  0  0  0  0  0
   60.6416   30.3936   46.8333 H   0  0  0  0  0  0  0  0  0  0  0  0
   59.7566   29.1282   45.9027 H   0  0  0  0  0  0  0  0  0  0  0  0
   59.4980   29.0550   47.9860 C   0  0  0  0  0  0  0  0  0  0  0  0
   59.3350   28.4490   48.9580 N   0  0  0  0  0  0  0  0  0  0  0  0
  1  2  1  0
  2  3  1  0
  3  4  2  0
  3  5  1  0
  5  6  2  3
  6  7  1  0
  7  8  1  0
  8  9  1  0
  8 10  2  0
 10 11  1  0
 10 12  1  0
 12 13  1  0
  2 14  2  0
 14 15  1  0
 14 16  1  0
 16 17  2  0
 17 18  1  0
 17 19  1  0
 19 20  1  0
 19 21  2  0
 21 22  1  0
 21 23  1  0
 23 24  1  0
 23 25  2  0
 25 26  1  0
 26 27  1  0
 27 28  1  0
 27 29  1  0
 27 30  1  0
 30 31  3  0
 12  6  1  0
 25 16  1  0
M  END
>  <UniqueID>  (58) 
53

>  <SMILES>  (58) 
N#CCOc1ccccc1/C=C/C(=O)N=c1[nH]ccs1

>  <Energy>  (58) 
70.03827229673016

>  <Genealogy>  (58) 
N#CCOc1ccccc1/C=C/C(=O)N=c1[nH]ccs1 (cis-trans isomerization)
N#CCOc1ccccc1/C=C/C(=O)N=c1[nH]ccs1 (3D coordinates assigned)
N#CCOc1ccccc1/C=C/C(=O)N=c1[nH]ccs1 (optimized conformer: 70.03827229673016 kcal/mol)

>  <smiles>  (58) 
N#CCOc1ccccc1C=CC(=O)N=c1[nH]ccs1

>  <score_type>  (58) 
oracle

>  <origin>  (58) 
adg

>  <m_score__min__energy>  (58) 
-6.5999999999999996

>  <m_primary>  (58) 
energy

$$$$
58:0
     RDKit          3D

 38 39  0  0  0  0  0  0  0  0999 V2000
   61.1766   34.8742   46.0749 H   0  0  0  0  0  0  0  0  0  0  0  0
   60.3030   34.2650   46.3500 C   0  0  0  0  0  0  0  0  0  0  0  0
   59.4840   33.7400   45.3470 C   0  0  0  0  0  0  0  0  0  0  0  0
   59.7207   33.9363   44.2908 H   0  0  0  0  0  0  0  0  0  0  0  0
   58.3600   32.9630   45.6770 C   0  0  0  0  0  0  0  0  0  0  0  0
   57.4900   32.4060   44.6140 C   0  0  0  0  0  0  0  0  0  0  0  0
   57.3940   33.0050   43.5070 O   0  0  0  0  0  0  0  0  0  0  0  0
   56.8360   31.1420   44.8150 N   0  0  0  0  0  0  0  0  0  0  0  0
   57.3710   29.9680   45.0140 C   0  0  0  0  0  0  0  0  0  0  0  0
   56.5240   28.8480   45.0690 C   0  0  0  0  0  0  0  0  0  0  0  0
   55.1480   28.9900   44.9250 O   0  0  0  0  0  0  0  0  0  0  0  0
   57.0680   27.5790   45.2780 C   0  0  0  0  0  0  0  0  0  0  0  0
   56.4104   26.6987   45.3296 H   0  0  0  0  0  0  0  0  0  0  0  0
   58.4460   27.4310   45.4210 C   0  0  0  0  0  0  0  0  0  0  0  0
   58.8829   26.4369   45.5967 H   0  0  0  0  0  0  0  0  0  0  0  0
   59.2660   28.5570   45.3390 C   0  0  0  0  0  0  0  0  0  0  0  0
   60.3558   28.4479   45.4414 H   0  0  0  0  0  0  0  0  0  0  0  0
   58.7260   29.7900   45.1330 N   0  0  0  0  0  0  0  0  0  0  0  0
   59.3960   30.5800   45.0280 H   0  0  0  0  0  0  0  0  0  0  0  0
   58.0740   32.7290   47.0330 C   0  0  0  0  0  0  0  0  0  0  0  0
   57.1962   32.1260   47.3083 H   0  0  0  0  0  0  0  0  0  0  0  0
   58.8940   33.2550   48.0350 C   0  0  0  0  0  0  0  0  0  0  0  0
   58.6547   33.0665   49.0920 H   0  0  0  0  0  0  0  0  0  0  0  0
   60.0250   34.0250   47.7000 C   0  0  0  0  0  0  0  0  0  0  0  0
   60.8910   34.5810   48.6560 O   0  0  0  0  0  0  0  0  0  0  0  0
   62.2040   34.1210   48.9880 C   0  0  0  0  0  0  0  0  0  0  0  0
   62.1713   33.6373   49.9754 H   0  0  0  0  0  0  0  0  0  0  0  0
   62.8770   34.9911   48.9920 H   0  0  0  0  0  0  0  0  0  0  0  0
   62.7420   33.1090   47.9560 C   0  0  0  0  0  0  0  0  0  0  0  0
   61.8708   32.5552   47.5761 H   0  0  0  0  0  0  0  0  0  0  0  0
   63.7070   32.1110   48.6070 C   0  0  0  0  0  0  0  0  0  0  0  0
   63.6317   32.1889   49.7016 H   0  0  0  0  0  0  0  0  0  0  0  0
   63.4451   31.0898   48.2932 H   0  0  0  0  0  0  0  0  0  0  0  0
   64.7365   32.3384   48.2932 H   0  0  0  0  0  0  0  0  0  0  0  0
   63.4040   33.7950   46.7560 C   0  0  0  0  0  0  0  0  0  0  0  0
   64.1263   34.5434   47.1140 H   0  0  0  0  0  0  0  0  0  0  0  0
   63.9267   33.0433   46.1463 H   0  0  0  0  0  0  0  0  0  0  0  0
   62.6342   34.2906   46.1463 H   0  0  0  0  0  0  0  0  0  0  0  0
  1  2  1  0
  2  3  2  0
  3  4  1  0
  3  5  1  0
  5  6  1  0
  6  7  2  0
  6  8  1  0
  8  9  2  0
  9 10  1  0
 10 11  1  0
 10 12  2  0
 12 13  1  0
 12 14  1  0
 14 15  1  0
 14 16  2  0
 16 17  1  0
 16 18  1  0
 18 19  1  0
  5 20  2  0
 20 21  1  0
 20 22  1  0
 22 23  1  0
 22 24  2  0
 24 25  1  0
 25 26  1  0
 26 27  1  0
 26 28  1  0
 26 29  1  0
 29 30  1  0
 29 31  1  0
 31 32  1  0
 31 33  1  0
 31 34  1  0
 29 35  1  0
 35 36  1  0
 35 37  1  0
 35 38  1  0
 24  2  1  0
 18  9  1  0
M  CHG  1  11  -1
M  END
>  <UniqueID>  (59) 
54

>  <SMILES>  (59) 
CC(C)COc1ccc(C(=O)/N=c2\[nH]cccc2[O-])cc1

>  <Energy>  (59) 
43.71779486408016

>  <Genealogy>  (59) 
CC(C)COc1ccc(C(=O)N=c2[nH]cccc2[O-])cc1 (protonated)
CC(C)COc1ccc(C(=O)/N=c2\[nH]cccc2[O-])cc1 (cis-trans isomerization)
CC(C)COc1ccc(C(=O)/N=c2\[nH]cccc2[O-])cc1 (3D coordinates assigned)
CC(C)COc1ccc(C(=O)/N=c2\[nH]cccc2[O-])cc1 (optimized conformer: 43.71779486408016 kcal/mol)

>  <smiles>  (59) 
CC(C)COc1ccc(C(=O)N=c2[nH]cccc2O)cc1

>  <score_type>  (59) 
oracle

>  <origin>  (59) 
adg

>  <m_score__min__energy>  (59) 
-10.82

>  <m_primary>  (59) 
energy

$$$$
59:0
     RDKit          3D

 58 61  0  0  0  0  0  0  0  0999 V2000
   60.0550   28.8530   49.6270 C   0  0  0  0  0  0  0  0  0  0  0  0
   60.1850   28.8950   48.1310 C   0  0  0  0  0  0  0  0  0  0  0  0
   60.9850   29.8730   47.5190 C   0  0  0  0  0  0  0  0  0  0  0  0
   61.1460   29.8820   46.1280 C   0  0  0  0  0  0  0  0  0  0  0  0
   60.5190   28.9090   45.3430 C   0  0  0  0  0  0  0  0  0  0  0  0
   59.7150   27.9290   45.9400 C   0  0  0  0  0  0  0  0  0  0  0  0
   59.1090   26.9690   45.1180 O   0  0  0  0  0  0  0  0  0  0  0  0
   57.9320   26.2710   45.4250 C   0  0  0  0  0  0  0  0  0  0  0  0
   57.9330   24.9080   45.4860 N   0  0  0  0  0  0  0  0  0  0  0  0
   56.8100   24.1950   45.7660 C   0  0  0  0  0  0  0  0  0  0  0  0
   55.6040   24.8560   45.9960 C   0  0  0  0  0  0  0  0  0  0  0  0
   55.5710   26.2500   45.9510 C   0  0  0  0  0  0  0  0  0  0  0  0
   56.7410   26.9780   45.6930 C   0  0  0  0  0  0  0  0  0  0  0  0
   56.6800   28.4140   45.6520 N   0  0  0  0  0  0  0  0  0  0  0  0
   56.8850   29.1940   44.4670 C   0  0  0  0  0  0  0  0  0  0  0  0
   57.3530   28.6620   43.4240 O   0  0  0  0  0  0  0  0  0  0  0  0
   56.6290   30.6030   44.5040 N   0  0  0  0  0  0  0  0  0  0  0  0
   57.4130   31.5750   45.2120 C   0  0  0  0  0  0  0  0  0  0  0  0
   57.4970   32.8750   44.7040 C   0  0  0  0  0  0  0  0  0  0  0  0
   58.2660   33.8430   45.3560 C   0  0  0  0  0  0  0  0  0  0  0  0
   58.9760   33.5220   46.5230 C   0  0  0  0  0  0  0  0  0  0  0  0
   59.8280   34.5780   47.1900 C   0  0  0  0  0  0  0  0  0  0  0  0
   60.2010   34.2240   48.6090 C   0  0  0  0  0  0  0  0  0  0  0  0
   59.3900   34.5180   49.5340 O   0  0  0  0  0  0  0  0  0  0  0  0
   61.4570   33.5800   48.9270 N   0  0  0  0  0  0  0  0  0  0  0  0
   62.0200   33.7050   50.2810 C   0  0  0  0  0  0  0  0  0  0  0  0
   63.4600   34.2120   50.1980 C   0  0  0  0  0  0  0  0  0  0  0  0
   64.5860   33.0860   49.2830 S   0  0  0  0  0  0  0  0  0  0  0  0
   63.3430   32.0070   48.4790 C   0  0  0  0  0  0  0  0  0  0  0  0
   62.1760   32.8090   47.8970 C   0  0  0  0  0  0  0  0  0  0  0  0
   58.9390   32.1970   46.9990 C   0  0  0  0  0  0  0  0  0  0  0  0
   58.1540   31.2340   46.3560 C   0  0  0  0  0  0  0  0  0  0  0  0
   59.5670   27.9110   47.3400 C   0  0  0  0  0  0  0  0  0  0  0  0
   61.0060   29.1603   50.0865 H   0  0  0  0  0  0  0  0  0  0  0  0
   59.2558   29.5386   49.9450 H   0  0  0  0  0  0  0  0  0  0  0  0
   59.8080   27.8293   49.9450 H   0  0  0  0  0  0  0  0  0  0  0  0
   61.4869   30.6345   48.1340 H   0  0  0  0  0  0  0  0  0  0  0  0
   61.7666   30.6555   45.6520 H   0  0  0  0  0  0  0  0  0  0  0  0
   60.6577   28.9131   44.2518 H   0  0  0  0  0  0  0  0  0  0  0  0
   56.8527   23.0968   45.8111 H   0  0  0  0  0  0  0  0  0  0  0  0
   54.6888   24.2847   46.2105 H   0  0  0  0  0  0  0  0  0  0  0  0
   54.6222   26.7806   46.1188 H   0  0  0  0  0  0  0  0  0  0  0  0
   56.5980   28.9300   46.5570 H   0  0  0  0  0  0  0  0  0  0  0  0
   56.9538   33.1378   43.7843 H   0  0  0  0  0  0  0  0  0  0  0  0
   58.3150   34.8646   44.9511 H   0  0  0  0  0  0  0  0  0  0  0  0
   60.7514   34.7041   46.6057 H   0  0  0  0  0  0  0  0  0  0  0  0
   59.2359   35.5043   47.2264 H   0  0  0  0  0  0  0  0  0  0  0  0
   61.4156   34.4157   50.8637 H   0  0  0  0  0  0  0  0  0  0  0  0
   62.0092   32.7204   50.7713 H   0  0  0  0  0  0  0  0  0  0  0  0
   63.4562   35.1877   49.6901 H   0  0  0  0  0  0  0  0  0  0  0  0
   63.8382   34.2777   51.2289 H   0  0  0  0  0  0  0  0  0  0  0  0
   63.8304   31.4488   47.6660 H   0  0  0  0  0  0  0  0  0  0  0  0
   62.9392   31.3268   49.2434 H   0  0  0  0  0  0  0  0  0  0  0  0
   62.5681   33.5068   47.1424 H   0  0  0  0  0  0  0  0  0  0  0  0
   61.4655   32.0954   47.4543 H   0  0  0  0  0  0  0  0  0  0  0  0
   59.5315   31.9174   47.8826 H   0  0  0  0  0  0  0  0  0  0  0  0
   58.1168   30.2066   46.7473 H   0  0  0  0  0  0  0  0  0  0  0  0
   58.9651   27.1234   47.8169 H   0  0  0  0  0  0  0  0  0  0  0  0
  1  2  1  0
  2  3  2  0
  3  4  1  0
  4  5  2  0
  5  6  1  0
  6  7  1  0
  7  8  1  0
  8  9  2  0
  9 10  1  0
 10 11  2  0
 11 12  1  0
 12 13  2  0
 13 14  1  0
 14 15  1  0
 15 16  2  0
 15 17  1  0
 17 18  1  0
 18 19  2  0
 19 20  1  0
 20 21  2  0
 21 22  1  0
 22 23  1  0
 23 24  2  0
 23 25  1  0
 25 26  1  0
 26 27  1  0
 27 28  1  0
 28 29  1  0
 29 30  1  0
 21 31  1  0
 31 32  2  0
  6 33  2  0
 33  2  1  0
 13  8  1  0
 32 18  1  0
 30 25  1  0
  1 34  1  0
  1 35  1  0
  1 36  1  0
  3 37  1  0
  4 38  1  0
  5 39  1  0
 10 40  1  0
 11 41  1  0
 12 42  1  0
 14 43  1  0
 19 44  1  0
 20 45  1  0
 22 46  1  0
 22 47  1  0
 26 48  1  0
 26 49  1  0
 27 50  1  0
 27 51  1  0
 29 52  1  0
 29 53  1  0
 30 54  1  0
 30 55  1  0
 31 56  1  0
 32 57  1  0
 33 58  1  0
M  CHG  1  17  -1
M  END
>  <UniqueID>  (60) 
55

>  <SMILES>  (60) 
Cc1cccc(Oc2ncccc2NC(=O)[N-]c2ccc(CC(=O)N3CCSCC3)cc2)c1

>  <Energy>  (60) 
74.05957606917929

>  <Genealogy>  (60) 
Cc1cccc(Oc2ncccc2NC(=O)[N-]c2ccc(CC(=O)N3CCSCC3)cc2)c1 (protonated)
Cc1cccc(Oc2ncccc2NC(=O)[N-]c2ccc(CC(=O)N3CCSCC3)cc2)c1 (3D coordinates assigned)
Cc1cccc(Oc2ncccc2NC(=O)[N-]c2ccc(CC(=O)N3CCSCC3)cc2)c1 (nonaromatic ring conformer: 74.05957606917929 kcal/mol)

>  <smiles>  (60) 
Cc1cccc(Oc2ncccc2NC(=O)Nc2ccc(CC(=O)N3CCSCC3)cc2)c1

>  <score_type>  (60) 
oracle

>  <origin>  (60) 
adg

>  <m_score__min__energy>  (60) 
-11.08

>  <m_primary>  (60) 
energy

$$$$
60:0
     RDKit          3D

 25 26  0  0  0  0  0  0  0  0999 V2000
   58.0126   31.6258   42.1885 H   0  0  0  0  0  0  0  0  0  0  0  0
   57.7080   31.7230   43.2410 C   0  0  0  0  0  0  0  0  0  0  0  0
   57.8140   32.8960   43.8020 N   0  0  0  0  0  0  0  0  0  0  0  0
   58.3570   33.1980   45.0970 C   0  0  0  0  0  0  0  0  0  0  0  0
   57.7080   32.7020   46.2360 C   0  0  0  0  0  0  0  0  0  0  0  0
   56.8119   32.0738   46.1247 H   0  0  0  0  0  0  0  0  0  0  0  0
   58.1930   33.0010   47.5130 C   0  0  0  0  0  0  0  0  0  0  0  0
   57.6889   32.5930   48.4015 H   0  0  0  0  0  0  0  0  0  0  0  0
   59.3180   33.8180   47.6620 C   0  0  0  0  0  0  0  0  0  0  0  0
   59.9250   34.1930   49.2650 Cl  0  0  0  0  0  0  0  0  0  0  0  0
   59.9500   34.3460   46.5330 C   0  0  0  0  0  0  0  0  0  0  0  0
   60.8292   34.9966   46.6500 H   0  0  0  0  0  0  0  0  0  0  0  0
   59.4670   34.0490   45.2550 C   0  0  0  0  0  0  0  0  0  0  0  0
   59.9561   34.4819   44.3699 H   0  0  0  0  0  0  0  0  0  0  0  0
   57.2040   30.5150   43.9310 C   0  0  0  0  0  0  0  0  0  0  0  0
   55.8280   30.2470   43.9120 C   0  0  0  0  0  0  0  0  0  0  0  0
   55.1456   30.9292   43.3838 H   0  0  0  0  0  0  0  0  0  0  0  0
   55.3310   29.1480   44.5430 N   0  0  0  0  0  0  0  0  0  0  0  0
   54.3040   28.9610   44.5030 H   0  0  0  0  0  0  0  0  0  0  0  0
   56.1410   28.2890   45.2200 C   0  0  0  0  0  0  0  0  0  0  0  0
   55.6000   27.1740   45.8490 O   0  0  0  0  0  0  0  0  0  0  0  0
   57.5140   28.5310   45.2920 C   0  0  0  0  0  0  0  0  0  0  0  0
   58.1695   27.8415   45.8441 H   0  0  0  0  0  0  0  0  0  0  0  0
   58.0500   29.6550   44.6580 C   0  0  0  0  0  0  0  0  0  0  0  0
   59.2830   29.8960   44.7620 O   0  0  0  0  0  0  0  0  0  0  0  0
  1  2  1  0
  2  3  2  0
  3  4  1  0
  4  5  2  0
  5  6  1  0
  5  7  1  0
  7  8  1  0
  7  9  2  0
  9 10  1  0
  9 11  1  0
 11 12  1  0
 11 13  2  0
 13 14  1  0
  2 15  1  0
 15 16  2  0
 16 17  1  0
 16 18  1  0
 18 19  1  0
 18 20  1  0
 20 21  1  0
 20 22  2  0
 22 23  1  0
 22 24  1  0
 24 25  2  0
 13  4  1  0
 24 15  1  0
M  CHG  1  21  -1
M  END
>  <UniqueID>  (61) 
56

>  <SMILES>  (61) 
O=c1cc([O-])[nH]cc1/C=N\c1ccc(Cl)cc1

>  <Energy>  (61) 
38.86286087372609

>  <Genealogy>  (61) 
O=c1cc([O-])[nH]cc1C=Nc1ccc(Cl)cc1 (protonated)
O=c1cc([O-])[nH]cc1/C=N\c1ccc(Cl)cc1 (cis-trans isomerization)
O=c1cc([O-])[nH]cc1/C=N\c1ccc(Cl)cc1 (3D coordinates assigned)
O=c1cc([O-])[nH]cc1/C=N\c1ccc(Cl)cc1 (optimized conformer: 38.86286087372609 kcal/mol)

>  <smiles>  (61) 
O=c1cc(O)[nH]cc1C=Nc1ccc(Cl)cc1

>  <score_type>  (61) 
oracle

>  <origin>  (61) 
adg

>  <m_score__min__energy>  (61) 
-10.24

>  <m_primary>  (61) 
energy

$$$$
61:0
     RDKit          3D

 28 29  0  0  0  0  0  0  0  0999 V2000
   54.7750   26.3520   45.9950 N   0  0  0  0  0  0  0  0  0  0  0  0
   56.4650   25.9950   46.0100 S   0  0  0  0  0  0  0  0  0  0  0  0
   56.7410   24.8170   45.1200 O   0  0  0  0  0  0  0  0  0  0  0  0
   56.8870   25.6500   47.4110 O   0  0  0  0  0  0  0  0  0  0  0  0
   57.3660   27.3940   45.4350 C   0  0  0  0  0  0  0  0  0  0  0  0
   58.6700   27.2490   44.9430 C   0  0  0  0  0  0  0  0  0  0  0  0
   59.3740   28.3640   44.4840 C   0  0  0  0  0  0  0  0  0  0  0  0
   58.7870   29.6310   44.5260 C   0  0  0  0  0  0  0  0  0  0  0  0
   57.4960   29.7970   45.0420 C   0  0  0  0  0  0  0  0  0  0  0  0
   56.9440   31.0860   45.0650 O   0  0  0  0  0  0  0  0  0  0  0  0
   57.6340   32.2540   45.4130 C   0  0  0  0  0  0  0  0  0  0  0  0
   58.1490   32.3820   46.7060 C   0  0  0  0  0  0  0  0  0  0  0  0
   58.8210   33.5520   47.0660 C   0  0  0  0  0  0  0  0  0  0  0  0
   58.9670   34.5890   46.1360 C   0  0  0  0  0  0  0  0  0  0  0  0
   59.6510   35.7920   46.4910 N   0  0  0  0  0  0  0  0  0  0  0  0
   58.4270   34.4280   44.8540 C   0  0  0  0  0  0  0  0  0  0  0  0
   57.7780   33.2800   44.5270 N   0  0  0  0  0  0  0  0  0  0  0  0
   56.7800   28.6670   45.4830 C   0  0  0  0  0  0  0  0  0  0  0  0
   54.6120   27.0900   46.7170 H   0  0  0  0  0  0  0  0  0  0  0  0
   59.1400   26.2548   44.9183 H   0  0  0  0  0  0  0  0  0  0  0  0
   60.3934   28.2445   44.0883 H   0  0  0  0  0  0  0  0  0  0  0  0
   59.3424   30.5035   44.1514 H   0  0  0  0  0  0  0  0  0  0  0  0
   58.0259   31.5672   47.4346 H   0  0  0  0  0  0  0  0  0  0  0  0
   59.2354   33.6591   48.0793 H   0  0  0  0  0  0  0  0  0  0  0  0
   60.5880   36.0140   46.0850 H   0  0  0  0  0  0  0  0  0  0  0  0
   59.2270   36.4710   47.1620 H   0  0  0  0  0  0  0  0  0  0  0  0
   58.5284   35.2323   44.1105 H   0  0  0  0  0  0  0  0  0  0  0  0
   55.7558   28.7838   45.8670 H   0  0  0  0  0  0  0  0  0  0  0  0
  1  2  1  0
  2  3  2  0
  2  4  2  0
  2  5  1  0
  5  6  2  0
  6  7  1  0
  7  8  2  0
  8  9  1  0
  9 10  1  0
 10 11  1  0
 11 12  2  0
 12 13  1  0
 13 14  2  0
 14 15  1  0
 14 16  1  0
 16 17  2  0
  9 18  2  0
 18  5  1  0
 17 11  1  0
  1 19  1  0
  6 20  1  0
  7 21  1  0
  8 22  1  0
 12 23  1  0
 13 24  1  0
 15 25  1  0
 15 26  1  0
 16 27  1  0
 18 28  1  0
M  CHG  1   1  -1
M  END
>  <UniqueID>  (62) 
57

>  <SMILES>  (62) 
[NH-]S(=O)(=O)c1cccc(Oc2ccc(N)cn2)c1

>  <Energy>  (62) 
32.765462087668105

>  <Genealogy>  (62) 
[NH-]S(=O)(=O)c1cccc(Oc2ccc(N)cn2)c1 (protonated)
[NH-]S(=O)(=O)c1cccc(Oc2ccc(N)cn2)c1 (3D coordinates assigned)
[NH-]S(=O)(=O)c1cccc(Oc2ccc(N)cn2)c1 (optimized conformer: 32.765462087668105 kcal/mol)

>  <smiles>  (62) 
Nc1ccc(Oc2cccc(S(N)(=O)=O)c2)nc1

>  <score_type>  (62) 
oracle

>  <origin>  (62) 
adg

>  <m_score__min__energy>  (62) 
-10.050000000000001

>  <m_primary>  (62) 
energy

$$$$
62:0
     RDKit          3D

 25 25  0  0  0  0  0  0  0  0999 V2000
   56.5110   30.4190   42.2940 N   0  0  0  0  0  0  0  0  0  0  0  0
   57.1210   31.6290   41.8540 C   0  0  0  0  0  0  0  0  0  0  0  0
   56.9860   31.9980   40.6550 O   0  0  0  0  0  0  0  0  0  0  0  0
   57.8640   32.3930   42.7570 O   0  0  0  0  0  0  0  0  0  0  0  0
   58.1340   31.9650   44.0880 C   0  0  0  0  0  0  0  0  0  0  0  0
   56.8460   31.5070   44.7670 C   0  0  0  0  0  0  0  0  0  0  0  0
   57.0500   30.2410   45.4650 N   0  0  0  0  0  0  0  0  0  0  0  0
   56.3420   29.0320   45.1590 C   0  0  0  0  0  0  0  0  0  0  0  0
   55.2040   29.0980   44.6210 O   0  0  0  0  0  0  0  0  0  0  0  0
   56.9450   27.7140   45.4870 C   0  0  0  0  0  0  0  0  0  0  0  0
   58.3380   27.5350   45.3910 C   0  0  0  0  0  0  0  0  0  0  0  0
   58.9160   26.3030   45.6950 C   0  0  0  0  0  0  0  0  0  0  0  0
   58.1000   25.2440   46.0940 C   0  0  0  0  0  0  0  0  0  0  0  0
   58.6040   24.1260   46.3720 O   0  0  0  0  0  0  0  0  0  0  0  0
   56.7570   25.4210   46.1840 N   0  0  0  0  0  0  0  0  0  0  0  0
   56.1620   26.6100   45.8950 C   0  0  0  0  0  0  0  0  0  0  0  0
   54.7800   26.7090   46.0090 O   0  0  0  0  0  0  0  0  0  0  0  0
   55.9520   29.8360   41.6320 H   0  0  0  0  0  0  0  0  0  0  0  0
   56.6220   30.1060   43.2830 H   0  0  0  0  0  0  0  0  0  0  0  0
   58.8484   31.1289   44.0628 H   0  0  0  0  0  0  0  0  0  0  0  0
   58.5591   32.8058   44.6557 H   0  0  0  0  0  0  0  0  0  0  0  0
   56.5288   32.2714   45.4917 H   0  0  0  0  0  0  0  0  0  0  0  0
   56.0729   31.3649   43.9975 H   0  0  0  0  0  0  0  0  0  0  0  0
   58.9754   28.3735   45.0737 H   0  0  0  0  0  0  0  0  0  0  0  0
   60.0051   26.1673   45.6209 H   0  0  0  0  0  0  0  0  0  0  0  0
  1  2  1  0
  2  3  2  0
  2  4  1  0
  4  5  1  0
  5  6  1  0
  6  7  1  0
  7  8  1  0
  8  9  2  0
  8 10  1  0
 10 11  1  0
 11 12  2  0
 12 13  1  0
 13 14  2  0
 13 15  1  0
 15 16  1  0
 16 17  1  0
 16 10  2  0
  1 18  1  0
  1 19  1  0
  5 20  1  0
  5 21  1  0
  6 22  1  0
  6 23  1  0
 11 24  1  0
 12 25  1  0
M  CHG  3   7  -1  15  -1  17  -1
M  END
>  <UniqueID>  (63) 
58

>  <SMILES>  (63) 
NC(=O)OCC[N-]C(=O)c1ccc(=O)[n-]c1[O-]

>  <Energy>  (63) 
19.33167077593523

>  <Genealogy>  (63) 
NC(=O)OCC[N-]C(=O)c1ccc(=O)[n-]c1[O-] (protonated)
NC(=O)OCC[N-]C(=O)c1ccc(=O)[n-]c1[O-] (3D coordinates assigned)
NC(=O)OCC[N-]C(=O)c1ccc(=O)[n-]c1[O-] (optimized conformer: 19.33167077593523 kcal/mol)

>  <smiles>  (63) 
NC(=O)OCCNC(=O)c1ccc(=O)[nH]c1O

>  <score_type>  (63) 
oracle

>  <origin>  (63) 
adg

>  <m_score__min__energy>  (63) 
-12.52

>  <m_primary>  (63) 
energy

$$$$
63:0
     RDKit          3D

 71 74  0  0  0  0  0  0  0  0999 V2000
   62.2486   31.0595   47.1373 H   0  0  0  0  0  0  0  0  0  0  0  0
   62.5540   31.6360   48.0230 C   0  0  0  0  0  0  0  0  0  0  0  0
   61.8500   31.5120   49.1110 N   0  0  0  0  0  0  0  0  0  0  0  0
   60.5360   30.9490   49.1840 C   0  0  0  0  0  0  0  0  0  0  0  0
   60.3910   29.7080   49.0110 O   0  0  0  0  0  0  0  0  0  0  0  0
   59.3240   31.8490   49.2980 C   0  0  2  0  0  0  0  0  0  0  0  0
   58.7093   31.6257   48.4135 H   0  0  0  0  0  0  0  0  0  0  0  0
   59.7320   33.2480   49.3750 N   0  0  0  0  0  0  0  0  0  0  0  0
   60.1300   34.0260   48.2290 C   0  0  0  0  0  0  0  0  0  0  0  0
   61.3370   34.3800   48.1090 O   0  0  0  0  0  0  0  0  0  0  0  0
   59.1120   34.5040   47.2200 C   0  0  0  0  0  0  0  0  0  0  0  0
   58.2750   34.9771   47.7544 H   0  0  0  0  0  0  0  0  0  0  0  0
   59.6052   35.2214   46.5477 H   0  0  0  0  0  0  0  0  0  0  0  0
   58.5800   33.3680   46.3870 C   0  0  0  0  0  0  0  0  0  0  0  0
   57.3510   33.4990   45.7210 C   0  0  0  0  0  0  0  0  0  0  0  0
   56.7989   34.4490   45.7728 H   0  0  0  0  0  0  0  0  0  0  0  0
   56.8260   32.4290   44.9930 C   0  0  0  0  0  0  0  0  0  0  0  0
   55.8747   32.5469   44.4534 H   0  0  0  0  0  0  0  0  0  0  0  0
   57.5100   31.2020   44.9480 C   0  0  0  0  0  0  0  0  0  0  0  0
   56.9670   30.0690   44.2620 N   0  0  0  0  0  0  0  0  0  0  0  0
   55.9860   29.1640   44.7850 C   0  0  0  0  0  0  0  0  0  0  0  0
   54.7760   29.3410   44.4890 O   0  0  0  0  0  0  0  0  0  0  0  0
   56.3440   28.0510   45.6150 N   0  0  0  0  0  0  0  0  0  0  0  0
   57.6710   27.7090   46.0410 C   0  0  0  0  0  0  0  0  0  0  0  0
   57.9150   27.6080   47.4180 C   0  0  0  0  0  0  0  0  0  0  0  0
   57.0844   27.7293   48.1289 H   0  0  0  0  0  0  0  0  0  0  0  0
   59.2020   27.3550   47.8950 C   0  0  0  0  0  0  0  0  0  0  0  0
   59.3843   27.2928   48.9780 H   0  0  0  0  0  0  0  0  0  0  0  0
   60.2570   27.1810   47.0000 C   0  0  0  0  0  0  0  0  0  0  0  0
   61.2746   27.0034   47.3781 H   0  0  0  0  0  0  0  0  0  0  0  0
   60.0230   27.2320   45.6240 C   0  0  0  0  0  0  0  0  0  0  0  0
   60.8590   27.0893   44.9235 H   0  0  0  0  0  0  0  0  0  0  0  0
   58.7290   27.4640   45.1260 C   0  0  0  0  0  0  0  0  0  0  0  0
   58.5140   27.4410   43.6380 C   0  0  0  0  0  0  0  0  0  0  0  0
   57.4411   27.3262   43.4243 H   0  0  0  0  0  0  0  0  0  0  0  0
   58.8763   28.3830   43.2006 H   0  0  0  0  0  0  0  0  0  0  0  0
   59.0674   26.5969   43.2006 H   0  0  0  0  0  0  0  0  0  0  0  0
   58.7510   31.0830   45.5800 C   0  0  0  0  0  0  0  0  0  0  0  0
   59.3152   30.1418   45.5035 H   0  0  0  0  0  0  0  0  0  0  0  0
   59.2800   32.1530   46.3090 C   0  0  0  0  0  0  0  0  0  0  0  0
   60.2465   32.0426   46.8224 H   0  0  0  0  0  0  0  0  0  0  0  0
   59.5620   33.8050   50.7080 C   0  0  0  0  0  0  0  0  0  0  0  0
   58.8159   34.6132   50.6939 H   0  0  0  0  0  0  0  0  0  0  0  0
   60.4984   34.2375   51.0903 H   0  0  0  0  0  0  0  0  0  0  0  0
   59.0790   32.6510   51.5770 C   0  0  0  0  0  0  0  0  0  0  0  0
   58.2807   32.9867   52.2552 H   0  0  0  0  0  0  0  0  0  0  0  0
   59.8836   32.2477   52.2095 H   0  0  0  0  0  0  0  0  0  0  0  0
   58.5470   31.6100   50.5990 C   0  0  0  0  0  0  0  0  0  0  0  0
   57.4682   31.7496   50.4356 H   0  0  0  0  0  0  0  0  0  0  0  0
   58.6799   30.5851   50.9757 H   0  0  0  0  0  0  0  0  0  0  0  0
   63.7640   32.5260   47.9110 C   0  0  0  0  0  0  0  0  0  0  0  0
   63.5213   33.3672   47.2450 H   0  0  0  0  0  0  0  0  0  0  0  0
   64.5886   31.9161   47.5134 H   0  0  0  0  0  0  0  0  0  0  0  0
   64.2080   33.0780   49.2430 C   0  0  0  0  0  0  0  0  0  0  0  0
   65.4690   32.7390   49.7560 C   0  0  0  0  0  0  0  0  0  0  0  0
   66.1376   32.0862   49.1756 H   0  0  0  0  0  0  0  0  0  0  0  0
   65.8810   33.2250   50.9990 C   0  0  0  0  0  0  0  0  0  0  0  0
   66.8765   32.9594   51.3843 H   0  0  0  0  0  0  0  0  0  0  0  0
   65.0360   34.0510   51.7640 C   0  0  0  0  0  0  0  0  0  0  0  0
   65.5060   34.5750   53.0720 C   0  0  0  0  0  0  0  0  0  0  0  0
   65.5070   35.8230   53.2690 O   0  0  0  0  0  0  0  0  0  0  0  0
   65.9690   33.6970   54.1100 N   0  0  0  0  0  0  0  0  0  0  0  0
   66.1410   32.6840   53.9120 H   0  0  0  0  0  0  0  0  0  0  0  0
   66.2590   34.1880   55.4520 C   0  0  0  0  0  0  0  0  0  0  0  0
   65.8465   33.4896   56.1950 H   0  0  0  0  0  0  0  0  0  0  0  0
   67.3480   34.2656   55.5867 H   0  0  0  0  0  0  0  0  0  0  0  0
   65.8013   35.1791   55.5867 H   0  0  0  0  0  0  0  0  0  0  0  0
   63.7670   34.3790   51.2520 C   0  0  0  0  0  0  0  0  0  0  0  0
   63.0956   35.0289   51.8323 H   0  0  0  0  0  0  0  0  0  0  0  0
   63.3530   33.8850   50.0110 C   0  0  0  0  0  0  0  0  0  0  0  0
   62.3495   34.1305   49.6333 H   0  0  0  0  0  0  0  0  0  0  0  0
  1  2  1  0
  2  3  2  0
  3  4  1  0
  4  5  2  0
  4  6  1  0
  6  7  1  6
  6  8  1  0
  8  9  1  0
  9 10  2  0
  9 11  1  0
 11 12  1  0
 11 13  1  0
 11 14  1  0
 14 15  2  0
 15 16  1  0
 15 17  1  0
 17 18  1  0
 17 19  2  0
 19 20  1  0
 20 21  1  0
 21 22  2  0
 21 23  1  0
 23 24  1  0
 24 25  2  0
 25 26  1  0
 25 27  1  0
 27 28  1  0
 27 29  2  0
 29 30  1  0
 29 31  1  0
 31 32  1  0
 31 33  2  0
 33 34  1  0
 34 35  1  0
 34 36  1  0
 34 37  1  0
 19 38  1  0
 38 39  1  0
 38 40  2  0
 40 41  1  0
  8 42  1  0
 42 43  1  0
 42 44  1  0
 42 45  1  0
 45 46  1  0
 45 47  1  0
 45 48  1  0
 48 49  1  0
 48 50  1  0
  2 51  1  0
 51 52  1  0
 51 53  1  0
 51 54  1  0
 54 55  2  0
 55 56  1  0
 55 57  1  0
 57 58  1  0
 57 59  2  0
 59 60  1  0
 60 61  2  0
 60 62  1  0
 62 63  1  0
 62 64  1  0
 64 65  1  0
 64 66  1  0
 64 67  1  0
 59 68  1  0
 68 69  1  0
 68 70  2  0
 70 71  1  0
 48  6  1  0
 70 54  1  0
 40 14  1  0
 33 24  1  0
M  CHG  2  20  -1  23  -1
M  END
>  <UniqueID>  (64) 
59

>  <SMILES>  (64) 
CNC(=O)c1ccc(C/C=N\C(=O)[C@H]2CCCN2C(=O)Cc2ccc([N-]C(=O)[N-]c3ccccc3C)cc2)cc1

>  <Energy>  (64) 
88.89287493052396

>  <Genealogy>  (64) 
CNC(=O)c1ccc(CC=NC(=O)C2CCCN2C(=O)Cc2ccc([N-]C(=O)[N-]c3ccccc3C)cc2)cc1 (protonated)
CNC(=O)c1ccc(CC=NC(=O)[C@H]2CCCN2C(=O)Cc2ccc([N-]C(=O)[N-]c3ccccc3C)cc2)cc1 (chirality)
CNC(=O)c1ccc(C/C=N\C(=O)[C@H]2CCCN2C(=O)Cc2ccc([N-]C(=O)[N-]c3ccccc3C)cc2)cc1 (cis-trans isomerization)
CNC(=O)c1ccc(C/C=N\C(=O)[C@H]2CCCN2C(=O)Cc2ccc([N-]C(=O)[N-]c3ccccc3C)cc2)cc1 (3D coordinates assigned)
CNC(=O)c1ccc(C/C=N\C(=O)[C@H]2CCCN2C(=O)Cc2ccc([N-]C(=O)[N-]c3ccccc3C)cc2)cc1 (nonaromatic ring conformer: 88.89287493052396 kcal/mol)

>  <smiles>  (64) 
CNC(=O)c1ccc(CC=NC(=O)C2CCCN2C(=O)Cc2ccc(NC(=O)Nc3ccccc3C)cc2)cc1

>  <score_type>  (64) 
oracle

>  <origin>  (64) 
adg

>  <m_score__min__energy>  (64) 
-13.34

>  <m_primary>  (64) 
energy

$$$$
64:0
     RDKit          3D

 70 73  0  0  0  0  0  0  0  0999 V2000
   58.2040   34.2180   52.6770 C   0  0  0  0  0  0  0  0  0  0  0  0
   58.3920   32.9530   51.8940 C   0  0  0  0  0  0  0  0  0  0  0  0
   57.4180   31.9470   51.9130 C   0  0  0  0  0  0  0  0  0  0  0  0
   57.5880   30.7860   51.1590 C   0  0  0  0  0  0  0  0  0  0  0  0
   58.7380   30.6050   50.3710 C   0  0  0  0  0  0  0  0  0  0  0  0
   58.8800   29.3430   49.5590 C   0  0  0  0  0  0  0  0  0  0  0  0
   59.7320   31.6150   50.3530 C   0  0  0  0  0  0  0  0  0  0  0  0
   61.0140   31.4490   49.5660 C   0  0  0  0  0  0  0  0  0  0  0  0
   60.7280   31.0990   48.2110 O   0  0  0  0  0  0  0  0  0  0  0  0
   59.9970   31.8850   47.3050 C   0  0  0  0  0  0  0  0  0  0  0  0
   58.8650   31.3880   46.6300 C   0  0  0  0  0  0  0  0  0  0  0  0
   58.1150   32.2200   45.7840 C   0  0  0  0  0  0  0  0  0  0  0  0
   56.8840   31.7830   45.1990 N   0  0  0  0  0  0  0  0  0  0  0  0
   56.6640   30.5560   44.4920 C   0  0  0  0  0  0  0  0  0  0  0  0
   55.7380   30.4680   43.6420 O   0  0  0  0  0  0  0  0  0  0  0  0
   57.5070   29.3870   44.8020 C   0  0  0  0  0  0  0  0  0  0  0  0
   58.7930   29.2510   44.2580 C   0  0  0  0  0  0  0  0  0  0  0  0
   59.5450   28.1030   44.5220 C   0  0  0  0  0  0  0  0  0  0  0  0
   59.0240   27.0890   45.3320 C   0  0  0  0  0  0  0  0  0  0  0  0
   57.7560   27.2270   45.9120 C   0  0  0  0  0  0  0  0  0  0  0  0
   57.2540   26.1680   46.7400 N   0  0  0  0  0  0  0  0  0  0  0  0
   55.9410   25.1010   46.3470 S   0  0  0  0  0  0  0  0  0  0  0  0
   55.5260   24.3680   47.5920 O   0  0  0  0  0  0  0  0  0  0  0  0
   54.7780   25.9230   45.8700 O   0  0  0  0  0  0  0  0  0  0  0  0
   56.3910   23.9110   45.1270 C   0  0  0  0  0  0  0  0  0  0  0  0
   55.6670   23.8270   43.9310 C   0  0  0  0  0  0  0  0  0  0  0  0
   55.9700   22.8330   42.9950 C   0  0  0  0  0  0  0  0  0  0  0  0
   56.9990   21.9210   43.2480 C   0  0  0  0  0  0  0  0  0  0  0  0
   57.2900   20.9590   42.3420 F   0  0  0  0  0  0  0  0  0  0  0  0
   57.7270   22.0020   44.4380 C   0  0  0  0  0  0  0  0  0  0  0  0
   57.4280   22.9950   45.3750 C   0  0  0  0  0  0  0  0  0  0  0  0
   57.0070   28.3820   45.6460 C   0  0  0  0  0  0  0  0  0  0  0  0
   58.5100   33.5470   45.5990 C   0  0  0  0  0  0  0  0  0  0  0  0
   59.6440   34.0410   46.2430 C   0  0  0  0  0  0  0  0  0  0  0  0
   60.3930   33.2190   47.0930 C   0  0  0  0  0  0  0  0  0  0  0  0
   61.5080   33.7670   47.8070 N   0  0  0  0  0  0  0  0  0  0  0  0
   61.2870   34.5700   49.0070 C   0  0  0  0  0  0  0  0  0  0  0  0
   63.1250   33.3830   47.3030 S   0  0  0  0  0  0  0  0  0  0  0  0
   63.3040   31.6200   47.1310 C   0  0  0  0  0  0  0  0  0  0  0  0
   63.4150   34.0440   45.9850 O   0  0  0  0  0  0  0  0  0  0  0  0
   64.1030   33.8910   48.3240 O   0  0  0  0  0  0  0  0  0  0  0  0
   59.5360   32.7880   51.1020 C   0  0  0  0  0  0  0  0  0  0  0  0
   58.2376   33.9917   53.7529 H   0  0  0  0  0  0  0  0  0  0  0  0
   59.0066   34.9272   52.4262 H   0  0  0  0  0  0  0  0  0  0  0  0
   57.2298   34.6631   52.4262 H   0  0  0  0  0  0  0  0  0  0  0  0
   56.5135   32.0732   52.5262 H   0  0  0  0  0  0  0  0  0  0  0  0
   56.8145   30.0042   51.1812 H   0  0  0  0  0  0  0  0  0  0  0  0
   58.9770   28.4809   50.2352 H   0  0  0  0  0  0  0  0  0  0  0  0
   57.9908   29.2132   48.9246 H   0  0  0  0  0  0  0  0  0  0  0  0
   59.7758   29.4140   48.9246 H   0  0  0  0  0  0  0  0  0  0  0  0
   61.5752   32.3949   49.5847 H   0  0  0  0  0  0  0  0  0  0  0  0
   61.6100   30.6451   50.0227 H   0  0  0  0  0  0  0  0  0  0  0  0
   58.5660   30.3383   46.7671 H   0  0  0  0  0  0  0  0  0  0  0  0
   59.2093   30.0477   43.6239 H   0  0  0  0  0  0  0  0  0  0  0  0
   60.5513   27.9965   44.0907 H   0  0  0  0  0  0  0  0  0  0  0  0
   59.6129   26.1781   45.5148 H   0  0  0  0  0  0  0  0  0  0  0  0
   54.8583   24.5444   43.7274 H   0  0  0  0  0  0  0  0  0  0  0  0
   55.3976   22.7686   42.0579 H   0  0  0  0  0  0  0  0  0  0  0  0
   58.5359   21.2838   44.6374 H   0  0  0  0  0  0  0  0  0  0  0  0
   58.0056   23.0599   46.3089 H   0  0  0  0  0  0  0  0  0  0  0  0
   56.0144   28.5026   46.1045 H   0  0  0  0  0  0  0  0  0  0  0  0
   57.9234   34.2058   44.9418 H   0  0  0  0  0  0  0  0  0  0  0  0
   59.9522   35.0846   46.0818 H   0  0  0  0  0  0  0  0  0  0  0  0
   61.4576   33.9501   49.8995 H   0  0  0  0  0  0  0  0  0  0  0  0
   61.9844   35.4206   49.0126 H   0  0  0  0  0  0  0  0  0  0  0  0
   60.2525   34.9440   49.0126 H   0  0  0  0  0  0  0  0  0  0  0  0
   63.3510   31.1572   48.1278 H   0  0  0  0  0  0  0  0  0  0  0  0
   62.4423   31.2160   46.5795 H   0  0  0  0  0  0  0  0  0  0  0  0
   64.2294   31.3975   46.5795 H   0  0  0  0  0  0  0  0  0  0  0  0
   60.2909   33.5873   51.0660 H   0  0  0  0  0  0  0  0  0  0  0  0
  1  2  1  0
  2  3  2  0
  3  4  1  0
  4  5  2  0
  5  6  1  0
  5  7  1  0
  7  8  1  0
  8  9  1  0
  9 10  1  0
 10 11  2  0
 11 12  1  0
 12 13  1  0
 13 14  1  0
 14 15  2  0
 14 16  1  0
 16 17  2  0
 17 18  1  0
 18 19  2  0
 19 20  1  0
 20 21  1  0
 21 22  1  0
 22 23  2  0
 22 24  2  0
 22 25  1  0
 25 26  2  0
 26 27  1  0
 27 28  2  0
 28 29  1  0
 28 30  1  0
 30 31  2  0
 20 32  2  0
 12 33  2  0
 33 34  1  0
 34 35  2  0
 35 36  1  0
 36 37  1  0
 36 38  1  0
 38 39  1  0
 38 40  2  0
 38 41  2  0
  7 42  2  0
 42  2  1  0
 35 10  1  0
 32 16  1  0
 31 25  1  0
  1 43  1  0
  1 44  1  0
  1 45  1  0
  3 46  1  0
  4 47  1  0
  6 48  1  0
  6 49  1  0
  6 50  1  0
  8 51  1  0
  8 52  1  0
 11 53  1  0
 17 54  1  0
 18 55  1  0
 19 56  1  0
 26 57  1  0
 27 58  1  0
 30 59  1  0
 31 60  1  0
 32 61  1  0
 33 62  1  0
 34 63  1  0
 37 64  1  0
 37 65  1  0
 37 66  1  0
 39 67  1  0
 39 68  1  0
 39 69  1  0
 42 70  1  0
M  CHG  2  13  -1  21  -1
M  END
>  <UniqueID>  (65) 
60

>  <SMILES>  (65) 
Cc1ccc(C)c(COc2cc([N-]C(=O)c3cccc([N-]S(=O)(=O)c4ccc(F)cc4)c3)ccc2N(C)S(C)(=O)=O)c1

>  <Energy>  (65) 
79.68497177211458

>  <Genealogy>  (65) 
Cc1ccc(C)c(COc2cc([N-]C(=O)c3cccc([N-]S(=O)(=O)c4ccc(F)cc4)c3)ccc2N(C)S(C)(=O)=O)c1 (protonated)
Cc1ccc(C)c(COc2cc([N-]C(=O)c3cccc([N-]S(=O)(=O)c4ccc(F)cc4)c3)ccc2N(C)S(C)(=O)=O)c1 (3D coordinates assigned)
Cc1ccc(C)c(COc2cc([N-]C(=O)c3cccc([N-]S(=O)(=O)c4ccc(F)cc4)c3)ccc2N(C)S(C)(=O)=O)c1 (optimized conformer: 79.68497177211458 kcal/mol)

>  <smiles>  (65) 
Cc1ccc(C)c(COc2cc(NC(=O)c3cccc(NS(=O)(=O)c4ccc(F)cc4)c3)ccc2N(C)S(C)(=O)=O)c1

>  <score_type>  (65) 
oracle

>  <origin>  (65) 
adg

>  <m_score__min__energy>  (65) 
-14.23

>  <m_primary>  (65) 
energy

$$$$
65:0
     RDKit          3D

 49 51  0  0  0  0  0  0  0  0999 V2000
   55.1540   29.1280   44.4030 O   0  0  0  0  0  0  0  0  0  0  0  0
   56.1800   29.6920   44.8660 C   0  0  0  0  0  0  0  0  0  0  0  0
   56.4720   31.0260   44.4200 N   0  0  0  0  0  0  0  0  0  0  0  0
   57.7310   31.5440   43.8930 C   0  0  0  0  0  0  0  0  0  0  0  0
   58.1940   32.8150   44.6320 C   0  0  0  0  0  0  0  0  0  0  0  0
   58.5650   32.6110   46.0510 N   0  0  0  0  0  0  0  0  0  0  0  0
   59.9710   32.2280   46.3020 C   0  0  0  0  0  0  0  0  0  0  0  0
   60.7200   33.2760   47.1340 C   0  0  0  0  0  0  0  0  0  0  0  0
   60.2440   34.5660   46.8300 O   0  0  0  0  0  0  0  0  0  0  0  0
   58.9450   34.7300   47.3650 C   0  0  0  0  0  0  0  0  0  0  0  0
   57.9840   33.5700   47.0140 C   0  0  0  0  0  0  0  0  0  0  0  0
   57.0180   28.9520   45.8400 C   0  0  0  0  0  0  0  0  0  0  0  0
   56.9140   27.7020   45.9510 O   0  0  0  0  0  0  0  0  0  0  0  0
   57.9460   29.6700   46.6720 N   0  0  0  0  0  0  0  0  0  0  0  0
   58.8870   29.0340   47.5560 C   0  0  0  0  0  0  0  0  0  0  0  0
   59.2850   27.7010   47.3480 C   0  0  0  0  0  0  0  0  0  0  0  0
   60.2150   27.1000   48.2000 C   0  0  0  0  0  0  0  0  0  0  0  0
   60.7620   27.8230   49.2600 C   0  0  0  0  0  0  0  0  0  0  0  0
   60.3910   29.1530   49.4650 C   0  0  0  0  0  0  0  0  0  0  0  0
   59.4660   29.7740   48.6060 C   0  0  0  0  0  0  0  0  0  0  0  0
   59.0590   31.1010   48.8100 O   0  0  0  0  0  0  0  0  0  0  0  0
   58.7440   31.6760   50.0490 C   0  0  0  0  0  0  0  0  0  0  0  0
   57.8410   31.0100   50.8870 C   0  0  0  0  0  0  0  0  0  0  0  0
   57.4830   31.5600   52.1210 C   0  0  0  0  0  0  0  0  0  0  0  0
   58.0190   32.7870   52.5220 C   0  0  0  0  0  0  0  0  0  0  0  0
   58.9060   33.4690   51.6860 C   0  0  0  0  0  0  0  0  0  0  0  0
   59.2650   32.9210   50.4500 C   0  0  0  0  0  0  0  0  0  0  0  0
   58.5051   30.7700   44.0009 H   0  0  0  0  0  0  0  0  0  0  0  0
   57.5716   31.8072   42.8369 H   0  0  0  0  0  0  0  0  0  0  0  0
   59.0712   33.2169   44.1039 H   0  0  0  0  0  0  0  0  0  0  0  0
   57.3344   33.5014   44.6335 H   0  0  0  0  0  0  0  0  0  0  0  0
   59.9856   31.2704   46.8431 H   0  0  0  0  0  0  0  0  0  0  0  0
   60.4767   32.1471   45.3285 H   0  0  0  0  0  0  0  0  0  0  0  0
   60.5617   33.0725   48.2034 H   0  0  0  0  0  0  0  0  0  0  0  0
   61.7930   33.2234   46.8977 H   0  0  0  0  0  0  0  0  0  0  0  0
   59.0250   34.7970   48.4600 H   0  0  0  0  0  0  0  0  0  0  0  0
   58.5248   35.6447   46.9215 H   0  0  0  0  0  0  0  0  0  0  0  0
   57.7337   33.0299   47.9390 H   0  0  0  0  0  0  0  0  0  0  0  0
   57.0934   34.0113   46.5428 H   0  0  0  0  0  0  0  0  0  0  0  0
   57.8590   30.7090   46.7200 H   0  0  0  0  0  0  0  0  0  0  0  0
   58.8616   27.1284   46.5096 H   0  0  0  0  0  0  0  0  0  0  0  0
   60.5163   26.0551   48.0346 H   0  0  0  0  0  0  0  0  0  0  0  0
   61.4866   27.3445   49.9352 H   0  0  0  0  0  0  0  0  0  0  0  0
   60.8244   29.7187   50.3030 H   0  0  0  0  0  0  0  0  0  0  0  0
   57.4107   30.0479   50.5720 H   0  0  0  0  0  0  0  0  0  0  0  0
   56.7790   31.0269   52.7770 H   0  0  0  0  0  0  0  0  0  0  0  0
   57.7421   33.2157   53.4964 H   0  0  0  0  0  0  0  0  0  0  0  0
   59.3225   34.4376   51.9997 H   0  0  0  0  0  0  0  0  0  0  0  0
   59.9565   33.4645   49.7893 H   0  0  0  0  0  0  0  0  0  0  0  0
  1  2  2  0
  2  3  1  0
  3  4  1  0
  4  5  1  0
  5  6  1  0
  6  7  1  0
  7  8  1  0
  8  9  1  0
  9 10  1  0
 10 11  1  0
  2 12  1  0
 12 13  2  0
 12 14  1  0
 14 15  1  0
 15 16  2  0
 16 17  1  0
 17 18  2  0
 18 19  1  0
 19 20  2  0
 20 21  1  0
 21 22  1  0
 22 23  2  0
 23 24  1  0
 24 25  2  0
 25 26  1  0
 26 27  2  0
 11  6  1  0
 20 15  1  0
 27 22  1  0
  4 28  1  0
  4 29  1  0
  5 30  1  0
  5 31  1  0
  7 32  1  0
  7 33  1  0
  8 34  1  0
  8 35  1  0
 10 36  1  0
 10 37  1  0
 11 38  1  0
 11 39  1  0
 14 40  1  0
 16 41  1  0
 17 42  1  0
 18 43  1  0
 19 44  1  0
 23 45  1  0
 24 46  1  0
 25 47  1  0
 26 48  1  0
 27 49  1  0
M  CHG  1   3  -1
M  END
>  <UniqueID>  (66) 
61

>  <SMILES>  (66) 
O=C([N-]CCN1CCOCC1)C(=O)Nc1ccccc1Oc1ccccc1

>  <Energy>  (66) 
77.13191465475522

>  <Genealogy>  (66) 
O=C([N-]CCN1CCOCC1)C(=O)Nc1ccccc1Oc1ccccc1 (protonated)
O=C([N-]CCN1CCOCC1)C(=O)Nc1ccccc1Oc1ccccc1 (3D coordinates assigned)
O=C([N-]CCN1CCOCC1)C(=O)Nc1ccccc1Oc1ccccc1 (nonaromatic ring conformer: 77.13191465475522 kcal/mol)

>  <smiles>  (66) 
O=C(NCCN1CCOCC1)C(=O)Nc1ccccc1Oc1ccccc1

>  <score_type>  (66) 
oracle

>  <origin>  (66) 
adg

>  <m_score__min__energy>  (66) 
-11.16

>  <m_primary>  (66) 
energy

$$$$
66:0
     RDKit          3D

 46 50  0  0  0  0  0  0  0  0999 V2000
   55.0870   26.1290   46.0870 N   0  0  0  0  0  0  0  0  0  0  0  0
   56.7670   26.2000   45.6890 S   0  0  0  0  0  0  0  0  0  0  0  0
   57.5980   26.0610   46.9340 O   0  0  0  0  0  0  0  0  0  0  0  0
   57.0970   25.0740   44.7510 O   0  0  0  0  0  0  0  0  0  0  0  0
   57.1230   27.7100   44.9120 N   0  0  0  0  0  0  0  0  0  0  0  0
   58.1100   28.6450   45.3820 C   0  0  0  0  0  0  0  0  0  0  0  0
   59.3620   28.1540   45.8290 C   0  0  0  0  0  0  0  0  0  0  0  0
   60.3600   29.0270   46.2960 C   0  0  0  0  0  0  0  0  0  0  0  0
   60.0870   30.3960   46.3090 C   0  0  0  0  0  0  0  0  0  0  0  0
   58.8700   30.8770   45.8780 C   0  0  0  0  0  0  0  0  0  0  0  0
   57.8610   30.0390   45.4100 C   0  0  0  0  0  0  0  0  0  0  0  0
   58.9250   32.2450   46.0120 C   0  0  0  0  0  0  0  0  0  0  0  0
   57.9890   33.2370   45.7200 C   0  0  0  0  0  0  0  0  0  0  0  0
   58.3540   34.5720   45.9600 C   0  0  0  0  0  0  0  0  0  0  0  0
   59.6300   34.8840   46.4760 C   0  0  0  0  0  0  0  0  0  0  0  0
   60.5570   33.8640   46.7610 C   0  0  0  0  0  0  0  0  0  0  0  0
   60.1760   32.5380   46.5190 C   0  0  0  0  0  0  0  0  0  0  0  0
   60.9020   31.4050   46.7100 N   0  0  0  0  0  0  0  0  0  0  0  0
   62.2840   31.2840   47.1920 C   0  0  0  0  0  0  0  0  0  0  0  0
   62.4490   32.0000   48.5210 C   0  0  0  0  0  0  0  0  0  0  0  0
   63.6850   32.6290   48.7560 C   0  0  0  0  0  0  0  0  0  0  0  0
   63.9270   33.2840   49.9610 C   0  0  0  0  0  0  0  0  0  0  0  0
   65.0400   33.8360   50.1670 O   0  0  0  0  0  0  0  0  0  0  0  0
   62.9680   33.3290   50.9150 N   0  0  0  0  0  0  0  0  0  0  0  0
   61.7500   32.7550   50.7390 C   0  0  0  0  0  0  0  0  0  0  0  0
   60.8020   32.8470   51.7640 C   0  0  0  0  0  0  0  0  0  0  0  0
   59.5390   32.2790   51.6070 C   0  0  0  0  0  0  0  0  0  0  0  0
   59.2140   31.6200   50.4230 C   0  0  0  0  0  0  0  0  0  0  0  0
   60.1500   31.5190   49.3890 C   0  0  0  0  0  0  0  0  0  0  0  0
   61.4430   32.0760   49.5290 C   0  0  0  0  0  0  0  0  0  0  0  0
   54.8010   27.0900   46.3790 H   0  0  0  0  0  0  0  0  0  0  0  0
   56.5710   27.9430   44.0560 H   0  0  0  0  0  0  0  0  0  0  0  0
   59.5562   27.0714   45.8102 H   0  0  0  0  0  0  0  0  0  0  0  0
   61.3304   28.6416   46.6420 H   0  0  0  0  0  0  0  0  0  0  0  0
   56.8977   30.4482   45.0716 H   0  0  0  0  0  0  0  0  0  0  0  0
   56.9983   32.9824   45.3154 H   0  0  0  0  0  0  0  0  0  0  0  0
   57.6399   35.3804   45.7441 H   0  0  0  0  0  0  0  0  0  0  0  0
   59.9026   35.9342   46.6571 H   0  0  0  0  0  0  0  0  0  0  0  0
   61.5531   34.1016   47.1627 H   0  0  0  0  0  0  0  0  0  0  0  0
   62.5303   30.2198   47.3213 H   0  0  0  0  0  0  0  0  0  0  0  0
   62.9591   31.7429   46.4547 H   0  0  0  0  0  0  0  0  0  0  0  0
   64.4664   32.6034   47.9822 H   0  0  0  0  0  0  0  0  0  0  0  0
   61.0547   33.3701   52.6981 H   0  0  0  0  0  0  0  0  0  0  0  0
   58.7989   32.3509   52.4176 H   0  0  0  0  0  0  0  0  0  0  0  0
   58.2148   31.1764   50.3010 H   0  0  0  0  0  0  0  0  0  0  0  0
   59.8782   31.0012   48.4573 H   0  0  0  0  0  0  0  0  0  0  0  0
  1  2  1  0
  2  3  2  0
  2  4  2  0
  2  5  1  0
  5  6  1  0
  6  7  2  0
  7  8  1  0
  8  9  2  0
  9 10  1  0
 10 11  2  0
 10 12  1  0
 12 13  2  0
 13 14  1  0
 14 15  2  0
 15 16  1  0
 16 17  2  0
 17 18  1  0
 18 19  1  0
 19 20  1  0
 20 21  2  0
 21 22  1  0
 22 23  2  0
 22 24  1  0
 24 25  1  0
 25 26  2  0
 26 27  1  0
 27 28  2  0
 28 29  1  0
 29 30  2  0
 11  6  1  0
 17 12  1  0
 30 20  1  0
 18  9  1  0
 30 25  1  0
  1 31  1  0
  5 32  1  0
  7 33  1  0
  8 34  1  0
 11 35  1  0
 13 36  1  0
 14 37  1  0
 15 38  1  0
 16 39  1  0
 19 40  1  0
 19 41  1  0
 21 42  1  0
 26 43  1  0
 27 44  1  0
 28 45  1  0
 29 46  1  0
M  CHG  2   1  -1  24  -1
M  END
>  <UniqueID>  (67) 
62

>  <SMILES>  (67) 
[NH-]S(=O)(=O)Nc1ccc2c(c1)c1ccccc1n2Cc1cc(=O)[n-]c2ccccc12

>  <Energy>  (67) 
102.36660830486163

>  <Genealogy>  (67) 
[NH-]S(=O)(=O)Nc1ccc2c(c1)c1ccccc1n2Cc1cc(=O)[n-]c2ccccc12 (protonated)
[NH-]S(=O)(=O)Nc1ccc2c(c1)c1ccccc1n2Cc1cc(=O)[n-]c2ccccc12 (3D coordinates assigned)
[NH-]S(=O)(=O)Nc1ccc2c(c1)c1ccccc1n2Cc1cc(=O)[n-]c2ccccc12 (optimized conformer: 102.36660830486163 kcal/mol)

>  <smiles>  (67) 
NS(=O)(=O)Nc1ccc2c(c1)c1ccccc1n2Cc1cc(=O)[nH]c2ccccc12

>  <score_type>  (67) 
oracle

>  <origin>  (67) 
adg

>  <m_score__min__energy>  (67) 
-13.26

>  <m_primary>  (67) 
energy

$$$$
67:0
     RDKit          3D

 75 80  0  0  1  0  0  0  0  0999 V2000
   56.7330   29.7250   43.3530 C   0  0  0  0  0  0  0  0  0  0  0  0
   57.6060   29.3570   44.4820 C   0  0  0  0  0  0  0  0  0  0  0  0
   58.2660   28.1310   44.4560 C   0  0  0  0  0  0  0  0  0  0  0  0
   59.1020   27.7470   45.5120 C   0  0  0  0  0  0  0  0  0  0  0  0
   59.2580   28.6220   46.5930 C   0  0  0  0  0  0  0  0  0  0  0  0
   60.1180   28.2870   47.7300 C   0  0  0  0  0  0  0  0  0  0  0  0
   60.7790   27.1990   47.7120 O   0  0  0  0  0  0  0  0  0  0  0  0
   60.2670   29.1000   48.8610 N   0  0  0  0  0  0  0  0  0  0  0  0
   61.0900   28.8030   49.9790 C   0  0  0  0  0  0  0  0  0  0  0  0
   61.0560   27.5350   50.5430 C   0  0  0  0  0  0  0  0  0  0  0  0
   61.8290   27.2110   51.6040 N   0  0  0  0  0  0  0  0  0  0  0  0
   62.6430   28.1410   52.1140 C   0  0  0  0  0  0  0  0  0  0  0  0
   62.7130   29.4200   51.5880 C   0  0  0  0  0  0  0  0  0  0  0  0
   61.9290   29.7600   50.5080 C   0  0  0  0  0  0  0  0  0  0  0  0
   62.0410   31.0790   50.0070 N   0  0  0  0  0  0  0  0  0  0  0  0
   62.0010   32.2720   50.7910 C   0  0  0  0  0  0  0  0  0  0  0  0
   63.0360   33.3070   50.4190 C   0  0  1  0  0  0  0  0  0  0  0  0
   64.3030   33.1100   51.2330 C   0  0  0  0  0  0  0  0  0  0  0  0
   63.3240   33.3470   48.9420 C   0  0  0  0  0  0  0  0  0  0  0  0
   63.5080   31.9690   48.3520 C   0  0  2  0  0  0  0  0  0  0  0  0
   63.6730   32.1350   46.9150 N   0  0  0  0  0  0  0  0  0  0  0  0
   62.2110   31.2180   48.5610 C   0  0  0  0  0  0  0  0  0  0  0  0
   58.5870   29.8470   46.6000 C   0  0  0  0  0  0  0  0  0  0  0  0
   57.7630   30.2350   45.5620 C   0  0  0  0  0  0  0  0  0  0  0  0
   57.2320   31.5130   45.5540 N   0  0  0  0  0  0  0  0  0  0  0  0
   57.8120   32.5820   45.7460 C   0  0  0  0  0  0  0  0  0  0  0  0
   57.8540   33.4990   44.7480 N   0  0  0  0  0  0  0  0  0  0  0  0
   58.4650   34.6830   44.8630 C   0  0  0  0  0  0  0  0  0  0  0  0
   59.0670   34.9850   46.0210 N   0  0  0  0  0  0  0  0  0  0  0  0
   59.0410   34.0930   47.0280 C   0  0  0  0  0  0  0  0  0  0  0  0
   59.6770   34.4720   48.1930 C   0  0  0  0  0  0  0  0  0  0  0  0
   59.6420   33.5800   49.1930 N   0  0  0  0  0  0  0  0  0  0  0  0
   59.0270   32.3770   49.0930 C   0  0  0  0  0  0  0  0  0  0  0  0
   59.1040   31.6600   50.1810 N   0  0  0  0  0  0  0  0  0  0  0  0
   58.2450   31.9460   51.3050 C   0  0  2  0  0  0  0  0  0  0  0  0
   58.8430   31.4420   52.6060 C   0  0  0  0  0  0  0  0  0  0  0  0
   58.2190   30.0650   52.6660 C   0  0  0  0  0  0  0  0  0  0  0  0
   57.0320   30.0830   51.9890 O   0  0  0  0  0  0  0  0  0  0  0  0
   56.9330   31.2240   51.2210 C   0  0  0  0  0  0  0  0  0  0  0  0
   58.3970   31.9710   47.9760 N   0  0  0  0  0  0  0  0  0  0  0  0
   58.4180   32.8630   46.9420 C   0  0  0  0  0  0  0  0  0  0  0  0
   55.7838   30.1251   43.7388 H   0  0  0  0  0  0  0  0  0  0  0  0
   57.2307   30.4899   42.7388 H   0  0  0  0  0  0  0  0  0  0  0  0
   56.5330   28.8346   42.7388 H   0  0  0  0  0  0  0  0  0  0  0  0
   58.1293   27.4573   43.5973 H   0  0  0  0  0  0  0  0  0  0  0  0
   59.6244   26.7792   45.4922 H   0  0  0  0  0  0  0  0  0  0  0  0
   59.7380   30.0210   48.9260 H   0  0  0  0  0  0  0  0  0  0  0  0
   60.3841   26.7756   50.1165 H   0  0  0  0  0  0  0  0  0  0  0  0
   63.2753   27.8827   52.9762 H   0  0  0  0  0  0  0  0  0  0  0  0
   63.3929   30.1623   52.0315 H   0  0  0  0  0  0  0  0  0  0  0  0
   61.0057   32.7255   50.6742 H   0  0  0  0  0  0  0  0  0  0  0  0
   62.2209   31.9710   51.8259 H   0  0  0  0  0  0  0  0  0  0  0  0
   62.6114   34.2909   50.6672 H   0  0  0  0  0  0  0  0  0  0  0  0
   64.0596   33.1478   52.3051 H   0  0  0  0  0  0  0  0  0  0  0  0
   64.7455   32.1323   50.9917 H   0  0  0  0  0  0  0  0  0  0  0  0
   65.0215   33.9072   50.9917 H   0  0  0  0  0  0  0  0  0  0  0  0
   62.4834   33.8400   48.4317 H   0  0  0  0  0  0  0  0  0  0  0  0
   64.2639   33.9004   48.7992 H   0  0  0  0  0  0  0  0  0  0  0  0
   64.3630   31.4454   48.8046 H   0  0  0  0  0  0  0  0  0  0  0  0
   63.3510   33.0570   46.5620 H   0  0  0  0  0  0  0  0  0  0  0  0
   64.6850   31.9490   46.7040 H   0  0  0  0  0  0  0  0  0  0  0  0
   61.3708   31.7837   48.1321 H   0  0  0  0  0  0  0  0  0  0  0  0
   62.2357   30.2356   48.0667 H   0  0  0  0  0  0  0  0  0  0  0  0
   58.7189   30.5228   47.4579 H   0  0  0  0  0  0  0  0  0  0  0  0
   57.3860   33.2850   43.8230 H   0  0  0  0  0  0  0  0  0  0  0  0
   58.4731   35.3943   44.0240 H   0  0  0  0  0  0  0  0  0  0  0  0
   60.1807   35.4446   48.2944 H   0  0  0  0  0  0  0  0  0  0  0  0
   60.1130   33.8440   50.0730 H   0  0  0  0  0  0  0  0  0  0  0  0
   58.1214   33.0388   51.2809 H   0  0  0  0  0  0  0  0  0  0  0  0
   59.9408   31.3910   52.5579 H   0  0  0  0  0  0  0  0  0  0  0  0
   58.6480   32.0776   53.4824 H   0  0  0  0  0  0  0  0  0  0  0  0
   58.8966   29.3329   52.2025 H   0  0  0  0  0  0  0  0  0  0  0  0
   58.0438   29.7825   53.7146 H   0  0  0  0  0  0  0  0  0  0  0  0
   56.7199   30.9548   50.1760 H   0  0  0  0  0  0  0  0  0  0  0  0
   56.1169   31.8646   51.5865 H   0  0  0  0  0  0  0  0  0  0  0  0
  1  2  1  0
  2  3  2  0
  3  4  1  0
  4  5  2  0
  5  6  1  0
  6  7  2  0
  6  8  1  0
  8  9  1  0
  9 10  2  0
 10 11  1  0
 11 12  2  0
 12 13  1  0
 13 14  2  0
 14 15  1  0
 15 16  1  0
 16 17  1  0
 17 18  1  0
 17 19  1  0
 19 20  1  0
 20 21  1  0
 20 22  1  0
  5 23  1  0
 23 24  2  0
 24 25  1  0
 25 26  2  0
 26 27  1  0
 27 28  1  0
 28 29  2  0
 29 30  1  0
 30 31  2  0
 31 32  1  0
 32 33  1  0
 33 34  2  0
 34 35  1  0
 35 36  1  0
 36 37  1  0
 37 38  1  0
 38 39  1  0
 33 40  1  0
 40 41  2  0
 24  2  1  0
 41 26  1  0
 14  9  1  0
 22 15  1  0
 41 30  1  0
 39 35  1  0
  1 42  1  0
  1 43  1  0
  1 44  1  0
  3 45  1  0
  4 46  1  0
  8 47  1  0
 10 48  1  0
 12 49  1  0
 13 50  1  0
 16 51  1  0
 16 52  1  0
 17 53  1  1
 18 54  1  0
 18 55  1  0
 18 56  1  0
 19 57  1  0
 19 58  1  0
 20 59  1  1
 21 60  1  0
 21 61  1  0
 22 62  1  0
 22 63  1  0
 23 64  1  0
 27 65  1  0
 28 66  1  0
 31 67  1  0
 32 68  1  0
 35 69  1  1
 36 70  1  0
 36 71  1  0
 37 72  1  0
 37 73  1  0
 39 74  1  0
 39 75  1  0
M  END
>  <smiles>  (68) 
Cc1ccc(C(=O)Nc2cnccc2N2CC(C)CC(N)C2)cc1N=c1[nH]cnc2c[nH]c(=NC3CCOC3)nc12

>  <score_type>  (68) 
oracle

>  <origin>  (68) 
adg

>  <m_score__min__energy>  (68) 
-10.529999999999999

>  <m_primary>  (68) 
energy

$$$$
68:0
     RDKit          3D

 49 52  0  0  0  0  0  0  0  0999 V2000
   68.4440   33.4610   50.5350 C   0  0  0  0  0  0  0  0  0  0  0  0
   67.5640   34.3960   51.1500 O   0  0  0  0  0  0  0  0  0  0  0  0
   66.1740   34.2280   51.2530 C   0  0  0  0  0  0  0  0  0  0  0  0
   65.3840   35.0010   52.1260 C   0  0  0  0  0  0  0  0  0  0  0  0
   64.0020   34.7980   52.1950 C   0  0  0  0  0  0  0  0  0  0  0  0
   63.3930   33.8260   51.3960 C   0  0  0  0  0  0  0  0  0  0  0  0
   62.0780   33.6400   51.4640 O   0  0  0  0  0  0  0  0  0  0  0  0
   61.4410   32.7290   50.7320 C   0  0  0  0  0  0  0  0  0  0  0  0
   60.1900   32.6310   50.8370 O   0  0  0  0  0  0  0  0  0  0  0  0
   62.1550   31.9030   49.8360 C   0  0  0  0  0  0  0  0  0  0  0  0
   61.4780   30.8710   49.0120 C   0  0  0  0  0  0  0  0  0  0  0  0
   60.9070   29.7360   49.6120 C   0  0  0  0  0  0  0  0  0  0  0  0
   60.2800   28.7610   48.8310 C   0  0  0  0  0  0  0  0  0  0  0  0
   60.2030   28.9060   47.4380 C   0  0  0  0  0  0  0  0  0  0  0  0
   59.5720   27.8770   46.6550 N   0  0  0  0  0  0  0  0  0  0  0  0
   60.0610   26.5290   46.5660 C   0  0  0  0  0  0  0  0  0  0  0  0
   61.2720   26.2850   46.8220 O   0  0  0  0  0  0  0  0  0  0  0  0
   59.1720   25.4260   46.1260 C   0  0  0  0  0  0  0  0  0  0  0  0
   59.7210   24.2290   45.6300 C   0  0  0  0  0  0  0  0  0  0  0  0
   58.8900   23.1820   45.2240 C   0  0  0  0  0  0  0  0  0  0  0  0
   57.5020   23.3150   45.3100 C   0  0  0  0  0  0  0  0  0  0  0  0
   56.9380   24.4970   45.8030 C   0  0  0  0  0  0  0  0  0  0  0  0
   55.1890   24.6530   45.9380 S   0  0  0  0  0  0  0  0  0  0  0  0
   54.7550   26.3240   45.9220 N   0  0  0  0  0  0  0  0  0  0  0  0
   54.5260   23.9520   44.7850 O   0  0  0  0  0  0  0  0  0  0  0  0
   54.7180   24.0220   47.2190 O   0  0  0  0  0  0  0  0  0  0  0  0
   57.7720   25.5450   46.2180 C   0  0  0  0  0  0  0  0  0  0  0  0
   60.7960   30.0280   46.8340 C   0  0  0  0  0  0  0  0  0  0  0  0
   61.4260   31.0020   47.6140 C   0  0  0  0  0  0  0  0  0  0  0  0
   63.5420   32.0830   49.7360 C   0  0  0  0  0  0  0  0  0  0  0  0
   64.1770   33.0490   50.5200 C   0  0  0  0  0  0  0  0  0  0  0  0
   65.5620   33.2530   50.4530 C   0  0  0  0  0  0  0  0  0  0  0  0
   68.9777   32.8940   51.3119 H   0  0  0  0  0  0  0  0  0  0  0  0
   67.8631   32.7678   49.9089 H   0  0  0  0  0  0  0  0  0  0  0  0
   69.1712   33.9989   49.9089 H   0  0  0  0  0  0  0  0  0  0  0  0
   65.8565   35.7684   52.7568 H   0  0  0  0  0  0  0  0  0  0  0  0
   63.3922   35.4052   52.8802 H   0  0  0  0  0  0  0  0  0  0  0  0
   60.9538   29.6139   50.7042 H   0  0  0  0  0  0  0  0  0  0  0  0
   59.8437   27.8734   49.3124 H   0  0  0  0  0  0  0  0  0  0  0  0
   58.7820   28.1550   46.0310 H   0  0  0  0  0  0  0  0  0  0  0  0
   60.8131   24.1168   45.5614 H   0  0  0  0  0  0  0  0  0  0  0  0
   59.3294   22.2512   44.8359 H   0  0  0  0  0  0  0  0  0  0  0  0
   56.8508   22.4885   44.9894 H   0  0  0  0  0  0  0  0  0  0  0  0
   55.1390   26.7460   46.7970 H   0  0  0  0  0  0  0  0  0  0  0  0
   57.3286   26.4684   46.6190 H   0  0  0  0  0  0  0  0  0  0  0  0
   60.7641   30.1404   45.7402 H   0  0  0  0  0  0  0  0  0  0  0  0
   61.8842   31.8771   47.1300 H   0  0  0  0  0  0  0  0  0  0  0  0
   64.1291   31.4644   49.0412 H   0  0  0  0  0  0  0  0  0  0  0  0
   66.1721   32.6448   49.7690 H   0  0  0  0  0  0  0  0  0  0  0  0
  1  2  1  0
  2  3  1  0
  3  4  2  0
  4  5  1  0
  5  6  2  0
  6  7  1  0
  7  8  1  0
  8  9  2  0
  8 10  1  0
 10 11  1  0
 11 12  2  0
 12 13  1  0
 13 14  2  0
 14 15  1  0
 15 16  1  0
 16 17  2  0
 16 18  1  0
 18 19  2  0
 19 20  1  0
 20 21  2  0
 21 22  1  0
 22 23  1  0
 23 24  1  0
 23 25  2  0
 23 26  2  0
 22 27  2  0
 14 28  1  0
 28 29  2  0
 10 30  2  0
 30 31  1  0
 31 32  2  0
 32  3  1  0
 31  6  1  0
 29 11  1  0
 27 18  1  0
  1 33  1  0
  1 34  1  0
  1 35  1  0
  4 36  1  0
  5 37  1  0
 12 38  1  0
 13 39  1  0
 15 40  1  0
 19 41  1  0
 20 42  1  0
 21 43  1  0
 24 44  1  0
 27 45  1  0
 28 46  1  0
 29 47  1  0
 30 48  1  0
 32 49  1  0
M  CHG  1  24  -1
M  END
>  <UniqueID>  (69) 
63

>  <SMILES>  (69) 
COc1ccc2oc(=O)c(-c3ccc(NC(=O)c4cccc(S([NH-])(=O)=O)c4)cc3)cc2c1

>  <Energy>  (69) 
69.26879654559475

>  <Genealogy>  (69) 
COc1ccc2oc(=O)c(-c3ccc(NC(=O)c4cccc(S([NH-])(=O)=O)c4)cc3)cc2c1 (protonated)
COc1ccc2oc(=O)c(-c3ccc(NC(=O)c4cccc(S([NH-])(=O)=O)c4)cc3)cc2c1 (3D coordinates assigned)
COc1ccc2oc(=O)c(-c3ccc(NC(=O)c4cccc(S([NH-])(=O)=O)c4)cc3)cc2c1 (optimized conformer: 69.26879654559475 kcal/mol)

>  <smiles>  (69) 
COc1ccc2oc(=O)c(-c3ccc(NC(=O)c4cccc(S(N)(=O)=O)c4)cc3)cc2c1

>  <score_type>  (69) 
oracle

>  <origin>  (69) 
adg

>  <m_score__min__energy>  (69) 
-10.300000000000001

>  <m_primary>  (69) 
energy

$$$$
69:0
     RDKit          3D

 67 71  0  0  0  0  0  0  0  0999 V2000
   53.6668   24.5412   46.0893 H   0  0  0  0  0  0  0  0  0  0  0  0
   54.7150   24.8580   45.9850 C   0  0  0  0  0  0  0  0  0  0  0  0
   55.0950   26.1520   45.9540 N   0  0  0  0  0  0  0  0  0  0  0  0
   56.4320   26.0860   45.8310 C   0  0  0  0  0  0  0  0  0  0  0  0
   57.3210   27.2840   45.6760 C   0  0  0  0  0  0  0  0  0  0  0  0
   58.2087   27.1557   46.3128 H   0  0  0  0  0  0  0  0  0  0  0  0
   56.7529   28.1776   45.9739 H   0  0  0  0  0  0  0  0  0  0  0  0
   57.7710   27.4610   44.2240 C   0  0  0  0  0  0  0  0  0  0  0  0
   57.1071   26.8802   43.5668 H   0  0  0  0  0  0  0  0  0  0  0  0
   58.8078   27.1058   44.1292 H   0  0  0  0  0  0  0  0  0  0  0  0
   57.7190   28.8700   43.8350 N   0  0  0  0  0  0  0  0  0  0  0  0
   58.5780   29.2960   43.4210 H   0  0  0  0  0  0  0  0  0  0  0  0
   56.6060   29.7220   44.1410 C   0  0  0  0  0  0  0  0  0  0  0  0
   55.5840   29.2590   44.7160 O   0  0  0  0  0  0  0  0  0  0  0  0
   56.6620   31.1820   43.8050 C   0  0  0  0  0  0  0  0  0  0  0  0
   55.7952   31.4418   43.1795 H   0  0  0  0  0  0  0  0  0  0  0  0
   57.5982   31.3841   43.2640 H   0  0  0  0  0  0  0  0  0  0  0  0
   56.6380   31.9760   44.9920 O   0  0  0  0  0  0  0  0  0  0  0  0
   57.7440   32.2300   45.8190 C   0  0  0  0  0  0  0  0  0  0  0  0
   58.7570   31.2790   46.0450 C   0  0  0  0  0  0  0  0  0  0  0  0
   58.7039   30.2955   45.5552 H   0  0  0  0  0  0  0  0  0  0  0  0
   59.8300   31.5790   46.8890 C   0  0  0  0  0  0  0  0  0  0  0  0
   60.6178   30.8308   47.0608 H   0  0  0  0  0  0  0  0  0  0  0  0
   59.9060   32.8310   47.5180 C   0  0  0  0  0  0  0  0  0  0  0  0
   61.0530   33.1500   48.4000 C   0  0  0  0  0  0  0  0  0  0  0  0
   62.2580   33.6510   47.8600 C   0  0  0  0  0  0  0  0  0  0  0  0
   62.4470   33.8450   46.3830 C   0  0  0  0  0  0  0  0  0  0  0  0
   63.2050   34.6230   46.2094 H   0  0  0  0  0  0  0  0  0  0  0  0
   62.7806   32.9003   45.9288 H   0  0  0  0  0  0  0  0  0  0  0  0
   61.4939   34.1538   45.9288 H   0  0  0  0  0  0  0  0  0  0  0  0
   63.2810   33.9870   48.6900 N   0  0  0  0  0  0  0  0  0  0  0  0
   63.2040   33.8870   50.0420 C   0  0  0  0  0  0  0  0  0  0  0  0
   64.2470   34.2380   50.7430 N   0  0  0  0  0  0  0  0  0  0  0  0
   64.8690   33.5580   51.8470 C   0  0  0  0  0  0  0  0  0  0  0  0
   65.0440   34.1530   52.9450 O   0  0  0  0  0  0  0  0  0  0  0  0
   65.3930   32.1840   51.6640 C   0  0  0  0  0  0  0  0  0  0  0  0
   66.6480   31.9680   51.0620 C   0  0  0  0  0  0  0  0  0  0  0  0
   67.2490   32.8270   50.7289 H   0  0  0  0  0  0  0  0  0  0  0  0
   67.1350   30.6700   50.8850 C   0  0  0  0  0  0  0  0  0  0  0  0
   68.1154   30.5115   50.4121 H   0  0  0  0  0  0  0  0  0  0  0  0
   66.3800   29.5740   51.3070 C   0  0  0  0  0  0  0  0  0  0  0  0
   66.7668   28.5536   51.1684 H   0  0  0  0  0  0  0  0  0  0  0  0
   65.1340   29.7730   51.9050 C   0  0  0  0  0  0  0  0  0  0  0  0
   64.5394   28.9087   52.2358 H   0  0  0  0  0  0  0  0  0  0  0  0
   64.6410   31.0690   52.0840 C   0  0  0  0  0  0  0  0  0  0  0  0
   63.6589   31.2192   52.5562 H   0  0  0  0  0  0  0  0  0  0  0  0
   62.0240   33.3820   50.6200 C   0  0  0  0  0  0  0  0  0  0  0  0
   61.9477   33.2784   51.7124 H   0  0  0  0  0  0  0  0  0  0  0  0
   60.9460   33.0110   49.8040 C   0  0  0  0  0  0  0  0  0  0  0  0
   59.7250   32.4630   50.4430 C   0  0  0  0  0  0  0  0  0  0  0  0
   58.9600   33.2650   51.3060 C   0  0  0  0  0  0  0  0  0  0  0  0
   59.2745   34.2980   51.5155 H   0  0  0  0  0  0  0  0  0  0  0  0
   57.8010   32.7570   51.9000 C   0  0  0  0  0  0  0  0  0  0  0  0
   57.2030   33.3923   52.5699 H   0  0  0  0  0  0  0  0  0  0  0  0
   57.4010   31.4410   51.6430 C   0  0  0  0  0  0  0  0  0  0  0  0
   55.9460   30.8050   52.3870 Cl  0  0  0  0  0  0  0  0  0  0  0  0
   58.1640   30.6330   50.7940 C   0  0  0  0  0  0  0  0  0  0  0  0
   57.8505   29.5979   50.5933 H   0  0  0  0  0  0  0  0  0  0  0  0
   59.3240   31.1380   50.2000 C   0  0  0  0  0  0  0  0  0  0  0  0
   59.9255   30.4959   49.5397 H   0  0  0  0  0  0  0  0  0  0  0  0
   58.9030   33.7820   47.2850 C   0  0  0  0  0  0  0  0  0  0  0  0
   58.9595   34.7680   47.7693 H   0  0  0  0  0  0  0  0  0  0  0  0
   57.8320   33.4820   46.4400 C   0  0  0  0  0  0  0  0  0  0  0  0
   57.0510   34.2357   46.2608 H   0  0  0  0  0  0  0  0  0  0  0  0
   56.8280   24.7720   45.7750 C   0  0  0  0  0  0  0  0  0  0  0  0
   57.8642   24.4196   45.6654 H   0  0  0  0  0  0  0  0  0  0  0  0
   55.7420   23.9880   45.8760 N   0  0  0  0  0  0  0  0  0  0  0  0
  1  2  1  0
  2  3  2  0
  3  4  1  0
  4  5  1  0
  5  6  1  0
  5  7  1  0
  5  8  1  0
  8  9  1  0
  8 10  1  0
  8 11  1  0
 11 12  1  0
 11 13  1  0
 13 14  2  0
 13 15  1  0
 15 16  1  0
 15 17  1  0
 15 18  1  0
 18 19  1  0
 19 20  2  0
 20 21  1  0
 20 22  1  0
 22 23  1  0
 22 24  2  0
 24 25  1  0
 25 26  2  0
 26 27  1  0
 27 28  1  0
 27 29  1  0
 27 30  1  0
 26 31  1  0
 31 32  1  0
 32 33  2  0
 33 34  1  0
 34 35  2  0
 34 36  1  0
 36 37  2  0
 37 38  1  0
 37 39  1  0
 39 40  1  0
 39 41  2  0
 41 42  1  0
 41 43  1  0
 43 44  1  0
 43 45  2  0
 45 46  1  0
 32 47  1  0
 47 48  1  0
 47 49  2  0
 49 50  1  0
 50 51  2  0
 51 52  1  0
 51 53  1  0
 53 54  1  0
 53 55  2  0
 55 56  1  0
 55 57  1  0
 57 58  1  0
 57 59  2  0
 59 60  1  0
 24 61  1  0
 61 62  1  0
 61 63  2  0
 63 64  1  0
  4 65  2  0
 65 66  1  0
 65 67  1  0
 67  2  1  0
 63 19  1  0
 49 25  1  0
 59 50  1  0
 45 36  1  0
M  CHG  2  31  -1  67  -1
M  END
>  <UniqueID>  (70) 
64

>  <SMILES>  (70) 
Cc1[n-]/c(=N/C(=O)c2ccccc2)cc(-c2ccc(Cl)cc2)c1-c1ccc(OCC(=O)NCCc2c[n-]cn2)cc1

>  <Energy>  (70) 
116.90752039828317

>  <Genealogy>  (70) 
Cc1[n-]c(=NC(=O)c2ccccc2)cc(-c2ccc(Cl)cc2)c1-c1ccc(OCC(=O)NCCc2c[n-]cn2)cc1 (protonated)
Cc1[n-]/c(=N/C(=O)c2ccccc2)cc(-c2ccc(Cl)cc2)c1-c1ccc(OCC(=O)NCCc2c[n-]cn2)cc1 (cis-trans isomerization)
Cc1[n-]/c(=N/C(=O)c2ccccc2)cc(-c2ccc(Cl)cc2)c1-c1ccc(OCC(=O)NCCc2c[n-]cn2)cc1 (3D coordinates assigned)
Cc1[n-]/c(=N/C(=O)c2ccccc2)cc(-c2ccc(Cl)cc2)c1-c1ccc(OCC(=O)NCCc2c[n-]cn2)cc1 (optimized conformer: 116.90752039828317 kcal/mol)

>  <smiles>  (70) 
Cc1[nH]c(=NC(=O)c2ccccc2)cc(-c2ccc(Cl)cc2)c1-c1ccc(OCC(=O)NCCc2c[nH]cn2)cc1

>  <score_type>  (70) 
oracle

>  <origin>  (70) 
adg

>  <m_score__min__energy>  (70) 
-13.77

>  <m_primary>  (70) 
energy

$$$$
70:0
     RDKit          3D

 50 53  0  0  0  0  0  0  0  0999 V2000
   55.5630   29.1030   44.8770 O   0  0  0  0  0  0  0  0  0  0  0  0
   56.6420   28.8440   45.4740 C   0  0  0  0  0  0  0  0  0  0  0  0
   57.4720   29.9200   45.9350 N   0  0  0  0  0  0  0  0  0  0  0  0
   57.7200   31.1480   45.2350 C   0  0  0  0  0  0  0  0  0  0  0  0
   57.5150   31.1950   43.8510 C   0  0  0  0  0  0  0  0  0  0  0  0
   57.8670   32.3360   43.1230 C   0  0  0  0  0  0  0  0  0  0  0  0
   58.4590   33.4260   43.7680 C   0  0  0  0  0  0  0  0  0  0  0  0
   58.6770   33.3900   45.1520 C   0  0  0  0  0  0  0  0  0  0  0  0
   59.5530   34.6930   45.9590 S   0  0  0  0  0  0  0  0  0  0  0  0
   59.3630   35.9710   45.1930 O   0  0  0  0  0  0  0  0  0  0  0  0
   59.0310   34.8950   47.3540 O   0  0  0  0  0  0  0  0  0  0  0  0
   61.2460   34.3070   45.9940 N   0  0  0  0  0  0  0  0  0  0  0  0
   61.9170   33.7940   47.1500 C   0  0  0  0  0  0  0  0  0  0  0  0
   63.1540   33.1580   46.9930 C   0  0  0  0  0  0  0  0  0  0  0  0
   63.7760   32.5450   48.0850 C   0  0  0  0  0  0  0  0  0  0  0  0
   63.1800   32.5750   49.3520 C   0  0  0  0  0  0  0  0  0  0  0  0
   63.7970   31.8750   50.4020 O   0  0  0  0  0  0  0  0  0  0  0  0
   65.1600   31.9170   50.7240 C   0  0  0  0  0  0  0  0  0  0  0  0
   65.8180   30.8250   51.3180 C   0  0  0  0  0  0  0  0  0  0  0  0
   67.1790   30.9090   51.6290 C   0  0  0  0  0  0  0  0  0  0  0  0
   67.8860   32.0850   51.3680 C   0  0  0  0  0  0  0  0  0  0  0  0
   67.2310   33.1830   50.8020 C   0  0  0  0  0  0  0  0  0  0  0  0
   65.8720   33.1010   50.4860 C   0  0  0  0  0  0  0  0  0  0  0  0
   61.9580   33.2520   49.5190 C   0  0  0  0  0  0  0  0  0  0  0  0
   61.3480   33.8800   48.4300 C   0  0  0  0  0  0  0  0  0  0  0  0
   58.2820   32.2620   45.8830 C   0  0  0  0  0  0  0  0  0  0  0  0
   57.0680   27.4350   45.6770 C   0  0  0  0  0  0  0  0  0  0  0  0
   58.4380   27.1060   45.6260 C   0  0  0  0  0  0  0  0  0  0  0  0
   58.8630   25.7900   45.8240 C   0  0  0  0  0  0  0  0  0  0  0  0
   57.9310   24.7840   46.0770 C   0  0  0  0  0  0  0  0  0  0  0  0
   56.5710   25.0920   46.1420 C   0  0  0  0  0  0  0  0  0  0  0  0
   56.1340   26.4070   45.9480 C   0  0  0  0  0  0  0  0  0  0  0  0
   54.7720   26.6760   46.0380 O   0  0  0  0  0  0  0  0  0  0  0  0
   57.0748   30.3300   43.3334 H   0  0  0  0  0  0  0  0  0  0  0  0
   57.6776   32.3760   42.0402 H   0  0  0  0  0  0  0  0  0  0  0  0
   58.7541   34.3131   43.1884 H   0  0  0  0  0  0  0  0  0  0  0  0
   63.6391   33.1404   46.0059 H   0  0  0  0  0  0  0  0  0  0  0  0
   64.7410   32.0352   47.9478 H   0  0  0  0  0  0  0  0  0  0  0  0
   65.2608   29.9026   51.5385 H   0  0  0  0  0  0  0  0  0  0  0  0
   67.6934   30.0476   52.0799 H   0  0  0  0  0  0  0  0  0  0  0  0
   68.9578   32.1473   51.6077 H   0  0  0  0  0  0  0  0  0  0  0  0
   67.7858   34.1122   50.6052 H   0  0  0  0  0  0  0  0  0  0  0  0
   65.3585   33.9698   50.0484 H   0  0  0  0  0  0  0  0  0  0  0  0
   61.4814   33.2870   50.5098 H   0  0  0  0  0  0  0  0  0  0  0  0
   60.4159   34.4454   48.5769 H   0  0  0  0  0  0  0  0  0  0  0  0
   58.4129   32.2478   46.9751 H   0  0  0  0  0  0  0  0  0  0  0  0
   59.1799   27.8937   45.4283 H   0  0  0  0  0  0  0  0  0  0  0  0
   59.9349   25.5469   45.7803 H   0  0  0  0  0  0  0  0  0  0  0  0
   58.2676   23.7473   46.2254 H   0  0  0  0  0  0  0  0  0  0  0  0
   55.8391   24.2968   46.3468 H   0  0  0  0  0  0  0  0  0  0  0  0
  1  2  2  0
  2  3  1  0
  3  4  1  0
  4  5  2  0
  5  6  1  0
  6  7  2  0
  7  8  1  0
  8  9  1  0
  9 10  2  0
  9 11  2  0
  9 12  1  0
 12 13  1  0
 13 14  2  0
 14 15  1  0
 15 16  2  0
 16 17  1  0
 17 18  1  0
 18 19  2  0
 19 20  1  0
 20 21  2  0
 21 22  1  0
 22 23  2  0
 16 24  1  0
 24 25  2  0
  8 26  2  0
  2 27  1  0
 27 28  2  0
 28 29  1  0
 29 30  2  0
 30 31  1  0
 31 32  2  0
 32 33  1  0
 26  4  1  0
 32 27  1  0
 25 13  1  0
 23 18  1  0
  5 34  1  0
  6 35  1  0
  7 36  1  0
 14 37  1  0
 15 38  1  0
 19 39  1  0
 20 40  1  0
 21 41  1  0
 22 42  1  0
 23 43  1  0
 24 44  1  0
 25 45  1  0
 26 46  1  0
 28 47  1  0
 29 48  1  0
 30 49  1  0
 31 50  1  0
M  CHG  3   3  -1  12  -1  33  -1
M  END
>  <UniqueID>  (71) 
65

>  <SMILES>  (71) 
O=C([N-]c1cccc(S(=O)(=O)[N-]c2ccc(Oc3ccccc3)cc2)c1)c1ccccc1[O-]

>  <Energy>  (71) 
71.02023575032811

>  <Genealogy>  (71) 
O=C([N-]c1cccc(S(=O)(=O)[N-]c2ccc(Oc3ccccc3)cc2)c1)c1ccccc1[O-] (protonated)
O=C([N-]c1cccc(S(=O)(=O)[N-]c2ccc(Oc3ccccc3)cc2)c1)c1ccccc1[O-] (3D coordinates assigned)
O=C([N-]c1cccc(S(=O)(=O)[N-]c2ccc(Oc3ccccc3)cc2)c1)c1ccccc1[O-] (optimized conformer: 71.02023575032811 kcal/mol)

>  <smiles>  (71) 
O=C(Nc1cccc(S(=O)(=O)Nc2ccc(Oc3ccccc3)cc2)c1)c1ccccc1O

>  <score_type>  (71) 
oracle

>  <origin>  (71) 
adg

>  <m_score__min__energy>  (71) 
-16.57

>  <m_primary>  (71) 
energy

$$$$
71:0
     RDKit          3D

 38 40  0  0  1  0  0  0  0  0999 V2000
   57.8810   32.8550   47.9350 C   0  0  0  0  0  0  0  0  0  0  0  0
   57.9660   32.9460   46.4360 C   0  0  0  0  0  0  0  0  0  0  0  0
   58.5630   34.0580   45.8800 C   0  0  0  0  0  0  0  0  0  0  0  0
   58.6380   34.1350   44.5020 C   0  0  0  0  0  0  0  0  0  0  0  0
   58.1180   33.1050   43.7440 C   0  0  0  0  0  0  0  0  0  0  0  0
   57.5290   32.0110   44.3440 C   0  0  0  0  0  0  0  0  0  0  0  0
   57.0430   31.0470   43.6410 N   0  0  0  0  0  0  0  0  0  0  0  0
   56.8320   29.7790   44.2500 C   0  0  0  0  0  0  0  0  0  0  0  0
   55.9730   29.5820   45.1510 O   0  0  0  0  0  0  0  0  0  0  0  0
   57.6880   28.6570   43.7730 C   0  0  0  0  0  0  0  0  0  0  0  0
   58.3950   27.8330   45.1970 S   0  0  0  0  0  0  0  0  0  0  0  0
   59.0000   29.0010   46.4050 C   0  0  0  0  0  0  0  0  0  0  0  0
   58.5560   29.2860   47.6280 N   0  0  0  0  0  0  0  0  0  0  0  0
   59.3480   30.2360   48.1410 N   0  0  0  0  0  0  0  0  0  0  0  0
   60.3010   30.5620   47.2490 C   0  0  0  0  0  0  0  0  0  0  0  0
   61.3820   31.5370   47.3550 C   0  0  0  0  0  0  0  0  0  0  0  0
   62.5240   31.2650   48.1030 C   0  0  0  0  0  0  0  0  0  0  0  0
   63.5540   32.1770   48.2130 C   0  0  0  0  0  0  0  0  0  0  0  0
   63.4340   33.3900   47.5550 C   0  0  0  0  0  0  0  0  0  0  0  0
   62.3130   33.7090   46.7940 C   0  0  0  0  0  0  0  0  0  0  0  0
   61.3080   32.7580   46.7180 C   0  0  0  0  0  0  0  0  0  0  0  0
   60.0770   29.7890   46.1720 N   0  0  0  0  0  0  0  0  0  0  0  0
   57.4590   31.9410   45.7020 N   0  0  0  0  0  0  0  0  0  0  0  0
   58.5658   33.5881   48.3863 H   0  0  0  0  0  0  0  0  0  0  0  0
   56.8512   33.0682   48.2575 H   0  0  0  0  0  0  0  0  0  0  0  0
   58.1639   31.8421   48.2575 H   0  0  0  0  0  0  0  0  0  0  0  0
   58.9676   34.8602   46.5147 H   0  0  0  0  0  0  0  0  0  0  0  0
   59.1053   35.0044   44.0163 H   0  0  0  0  0  0  0  0  0  0  0  0
   58.1740   33.1572   42.6467 H   0  0  0  0  0  0  0  0  0  0  0  0
   57.0787   27.9448   43.1973 H   0  0  0  0  0  0  0  0  0  0  0  0
   58.4893   29.0441   43.1264 H   0  0  0  0  0  0  0  0  0  0  0  0
   59.2780   30.6850   49.0800 H   0  0  0  0  0  0  0  0  0  0  0  0
   62.6077   30.2977   48.6200 H   0  0  0  0  0  0  0  0  0  0  0  0
   64.4491   31.9461   48.8092 H   0  0  0  0  0  0  0  0  0  0  0  0
   64.2496   34.1236   47.6364 H   0  0  0  0  0  0  0  0  0  0  0  0
   62.2285   34.6751   46.2749 H   0  0  0  0  0  0  0  0  0  0  0  0
   60.4115   32.9871   46.1232 H   0  0  0  0  0  0  0  0  0  0  0  0
   57.0100   31.1070   46.1390 H   0  0  0  0  0  0  0  0  0  0  0  0
  1  2  1  0
  2  3  2  0
  3  4  1  0
  4  5  2  0
  5  6  1  0
  6  7  2  0
  7  8  1  0
  8  9  2  0
  8 10  1  0
 10 11  1  0
 11 12  1  0
 12 13  2  0
 13 14  1  0
 14 15  1  0
 15 16  1  0
 16 17  2  0
 17 18  1  0
 18 19  2  0
 19 20  1  0
 20 21  2  0
 15 22  2  0
  6 23  1  0
 23  2  1  0
 22 12  1  0
 21 16  1  0
  1 24  1  0
  1 25  1  0
  1 26  1  0
  3 27  1  0
  4 28  1  0
  5 29  1  0
 10 30  1  0
 10 31  1  0
 14 32  1  0
 17 33  1  0
 18 34  1  0
 19 35  1  0
 20 36  1  0
 21 37  1  0
 23 38  1  0
M  END
>  <smiles>  (72) 
Cc1cccc(=NC(=O)CSc2n[nH]c(-c3ccccc3)n2)[nH]1

>  <score_type>  (72) 
oracle

>  <origin>  (72) 
adg

>  <m_score__min__energy>  (72) 
-8.4199999999999999

>  <m_primary>  (72) 
energy

$$$$
72:0
     RDKit          3D

 27 30  0  0  0  0  0  0  0  0999 V2000
   57.4620   23.2840   47.5240 O   0  0  0  0  0  0  0  0  0  0  0  0
   57.0960   24.3450   46.9550 C   0  0  0  0  0  0  0  0  0  0  0  0
   55.8080   24.7470   46.9280 N   0  0  0  0  0  0  0  0  0  0  0  0
   55.8730   25.8990   46.2410 C   0  0  0  0  0  0  0  0  0  0  0  0
   54.7740   26.7160   46.0040 O   0  0  0  0  0  0  0  0  0  0  0  0
   57.1730   26.1520   45.8580 C   0  0  0  0  0  0  0  0  0  0  0  0
   57.6910   27.3460   45.1720 C   0  0  0  0  0  0  0  0  0  0  0  0
   58.4830   28.2600   45.7450 C   0  0  0  0  0  0  0  0  0  0  0  0
   59.8880   28.0830   46.1480 C   0  0  0  0  0  0  0  0  0  0  0  0
   60.3180   29.1800   46.6980 N   0  0  0  0  0  0  0  0  0  0  0  0
   59.2480   30.0830   46.6950 N   0  0  0  0  0  0  0  0  0  0  0  0
   59.2960   31.4110   46.4850 C   0  0  0  0  0  0  0  0  0  0  0  0
   60.3380   32.2970   46.7440 C   0  0  0  0  0  0  0  0  0  0  0  0
   60.1930   33.6220   46.2900 C   0  0  0  0  0  0  0  0  0  0  0  0
   59.0500   34.0090   45.5480 C   0  0  0  0  0  0  0  0  0  0  0  0
   58.9330   35.3170   45.0920 O   0  0  0  0  0  0  0  0  0  0  0  0
   58.0390   33.0730   45.2510 C   0  0  0  0  0  0  0  0  0  0  0  0
   58.1920   31.7820   45.7480 C   0  0  0  0  0  0  0  0  0  0  0  0
   57.5220   30.5980   45.4850 C   0  0  0  0  0  0  0  0  0  0  0  0
   56.5790   30.4490   44.6630 O   0  0  0  0  0  0  0  0  0  0  0  0
   58.1680   29.5930   46.1250 N   0  0  0  0  0  0  0  0  0  0  0  0
   57.9620   25.1730   46.3330 N   0  0  0  0  0  0  0  0  0  0  0  0
   57.4089   27.4973   44.1196 H   0  0  0  0  0  0  0  0  0  0  0  0
   60.4805   27.1671   46.0062 H   0  0  0  0  0  0  0  0  0  0  0  0
   61.2408   31.9741   47.2831 H   0  0  0  0  0  0  0  0  0  0  0  0
   60.9744   34.3633   46.5135 H   0  0  0  0  0  0  0  0  0  0  0  0
   57.1618   33.3524   44.6489 H   0  0  0  0  0  0  0  0  0  0  0  0
  1  2  2  0
  2  3  1  0
  3  4  1  0
  4  5  1  0
  4  6  2  0
  6  7  1  0
  7  8  2  3
  8  9  1  0
  9 10  2  0
 10 11  1  0
 11 12  1  0
 12 13  2  0
 13 14  1  0
 14 15  2  0
 15 16  1  0
 15 17  1  0
 17 18  2  0
 18 19  1  0
 19 20  2  0
 19 21  1  0
  6 22  1  0
 22  2  1  0
 21  8  1  0
 21 11  1  0
 18 12  1  0
  7 23  1  0
  9 24  1  0
 13 25  1  0
 14 26  1  0
 17 27  1  0
M  CHG  4   3  -1   5  -1  16  -1  22  -1
M  END
>  <UniqueID>  (73) 
66

>  <SMILES>  (73) 
O=c1[n-]c([O-])c(C=C2C=Nn3c4ccc([O-])cc4c(=O)n32)[n-]1

>  <Energy>  (73) 
166.0176714832823

>  <Genealogy>  (73) 
O=c1[n-]c([O-])c(C=C2C=Nn3c4ccc([O-])cc4c(=O)n32)[n-]1 (protonated)
O=c1[n-]c([O-])c(C=C2C=Nn3c4ccc([O-])cc4c(=O)n32)[n-]1 (3D coordinates assigned)
O=c1[n-]c([O-])c(C=C2C=Nn3c4ccc([O-])cc4c(=O)n32)[n-]1 (nonaromatic ring conformer: 166.0176714832823 kcal/mol)

>  <smiles>  (73) 
O=c1[nH]c(O)c(C=C2C=Nn3c4ccc(O)cc4c(=O)n32)[nH]1

>  <score_type>  (73) 
oracle

>  <origin>  (73) 
adg

>  <m_score__min__energy>  (73) 
-16.210000000000001

>  <m_primary>  (73) 
energy

$$$$
73:0
     RDKit          3D

 53 57  0  0  0  0  0  0  0  0999 V2000
   57.1960   26.2660   47.0720 O   0  0  0  0  0  0  0  0  0  0  0  0
   56.4910   26.8380   46.2000 C   0  0  0  0  0  0  0  0  0  0  0  0
   55.1460   26.3800   46.0000 N   0  0  0  0  0  0  0  0  0  0  0  0
   54.7280   25.0440   45.5840 C   0  0  0  0  0  0  0  0  0  0  0  0
   55.8890   24.0820   45.5730 C   0  0  0  0  0  0  0  0  0  0  0  0
   56.6960   23.9500   44.4290 C   0  0  0  0  0  0  0  0  0  0  0  0
   57.7910   23.0810   44.4340 C   0  0  0  0  0  0  0  0  0  0  0  0
   58.1030   22.3480   45.5840 C   0  0  0  0  0  0  0  0  0  0  0  0
   59.2000   21.4890   45.5770 O   0  0  0  0  0  0  0  0  0  0  0  0
   57.3120   22.4860   46.7320 C   0  0  0  0  0  0  0  0  0  0  0  0
   56.2160   23.3540   46.7290 C   0  0  0  0  0  0  0  0  0  0  0  0
   57.0930   27.9330   45.4200 C   0  0  0  0  0  0  0  0  0  0  0  0
   58.2750   27.8740   44.7770 N   0  0  0  0  0  0  0  0  0  0  0  0
   58.4570   29.0570   44.2140 N   0  0  0  0  0  0  0  0  0  0  0  0
   57.3770   29.7920   44.5320 C   0  0  0  0  0  0  0  0  0  0  0  0
   57.1760   31.2100   44.1150 C   0  0  0  0  0  0  0  0  0  0  0  0
   56.9030   32.0920   45.2650 N   0  0  0  0  0  0  0  0  0  0  0  0
   58.0680   32.6650   46.0010 C   0  0  1  0  0  0  0  0  0  0  0  0
   58.4730   33.9970   45.2940 C   0  0  0  0  0  0  0  0  0  0  0  0
   59.6500   34.6760   46.0200 C   0  0  2  0  0  0  0  0  0  0  0  0
   60.8650   33.7250   46.0220 C   0  0  0  0  0  0  0  0  0  0  0  0
   60.4910   32.4170   46.7500 C   0  0  1  0  0  0  0  0  0  0  0  0
   60.0770   32.7400   48.2030 C   0  0  0  0  0  0  0  0  0  0  0  0
   58.8610   33.6930   48.1960 C   0  0  1  0  0  0  0  0  0  0  0  0
   59.2370   34.9990   47.4690 C   0  0  0  0  0  0  0  0  0  0  0  0
   57.6790   33.0120   47.4690 C   0  0  0  0  0  0  0  0  0  0  0  0
   59.3150   31.7290   46.0200 C   0  0  0  0  0  0  0  0  0  0  0  0
   56.5300   29.1080   45.2620 O   0  0  0  0  0  0  0  0  0  0  0  0
   53.9637   24.6743   46.2834 H   0  0  0  0  0  0  0  0  0  0  0  0
   54.3240   25.1102   44.5630 H   0  0  0  0  0  0  0  0  0  0  0  0
   56.4645   24.5334   43.5257 H   0  0  0  0  0  0  0  0  0  0  0  0
   58.4094   22.9732   43.5307 H   0  0  0  0  0  0  0  0  0  0  0  0
   59.2860   20.7460   44.8930 H   0  0  0  0  0  0  0  0  0  0  0  0
   57.5537   21.9103   47.6376 H   0  0  0  0  0  0  0  0  0  0  0  0
   55.6061   23.4675   47.6373 H   0  0  0  0  0  0  0  0  0  0  0  0
   58.0850   31.5623   43.6055 H   0  0  0  0  0  0  0  0  0  0  0  0
   56.3042   31.2463   43.4452 H   0  0  0  0  0  0  0  0  0  0  0  0
   56.3190   32.8760   44.8890 H   0  0  0  0  0  0  0  0  0  0  0  0
   57.6103   34.6794   45.2925 H   0  0  0  0  0  0  0  0  0  0  0  0
   58.7849   33.7650   44.2650 H   0  0  0  0  0  0  0  0  0  0  0  0
   59.9191   35.6086   45.5024 H   0  0  0  0  0  0  0  0  0  0  0  0
   61.7068   34.2062   46.5414 H   0  0  0  0  0  0  0  0  0  0  0  0
   61.1559   33.4984   44.9856 H   0  0  0  0  0  0  0  0  0  0  0  0
   61.3593   31.7416   46.7540 H   0  0  0  0  0  0  0  0  0  0  0  0
   60.9170   33.2223   48.7243 H   0  0  0  0  0  0  0  0  0  0  0  0
   59.8077   31.8081   48.7217 H   0  0  0  0  0  0  0  0  0  0  0  0
   58.5671   33.9248   49.2304 H   0  0  0  0  0  0  0  0  0  0  0  0
   60.0764   35.4814   47.9912 H   0  0  0  0  0  0  0  0  0  0  0  0
   58.3720   35.6785   47.4623 H   0  0  0  0  0  0  0  0  0  0  0  0
   56.8162   33.6943   47.4632 H   0  0  0  0  0  0  0  0  0  0  0  0
   57.4239   32.0822   47.9986 H   0  0  0  0  0  0  0  0  0  0  0  0
   59.6133   31.5009   44.9861 H   0  0  0  0  0  0  0  0  0  0  0  0
   59.0577   30.8009   46.5514 H   0  0  0  0  0  0  0  0  0  0  0  0
  1  2  2  0
  2  3  1  0
  3  4  1  0
  4  5  1  0
  5  6  2  0
  6  7  1  0
  7  8  2  0
  8  9  1  0
  8 10  1  0
 10 11  2  0
  2 12  1  0
 12 13  2  0
 13 14  1  0
 14 15  2  0
 15 16  1  0
 16 17  1  0
 18 17  1  6
 18 19  1  0
 19 20  1  0
 20 21  1  0
 21 22  1  0
 22 23  1  0
 23 24  1  0
 24 25  1  0
 24 26  1  0
 22 27  1  0
 15 28  1  0
 11  5  1  0
 28 12  1  0
 26 18  1  0
 27 18  1  0
 25 20  1  0
  4 29  1  0
  4 30  1  0
  6 31  1  0
  7 32  1  0
  9 33  1  0
 10 34  1  0
 11 35  1  0
 16 36  1  0
 16 37  1  0
 17 38  1  0
 19 39  1  0
 19 40  1  0
 20 41  1  6
 21 42  1  0
 21 43  1  0
 22 44  1  1
 23 45  1  0
 23 46  1  0
 24 47  1  1
 25 48  1  0
 25 49  1  0
 26 50  1  0
 26 51  1  0
 27 52  1  0
 27 53  1  0
M  CHG  1   3  -1
M  END
>  <UniqueID>  (74) 
67

>  <SMILES>  (74) 
O=C([N-]Cc1ccc(O)cc1)c1nnc(CNC23CC4CC(CC(C4)C2)C3)o1

>  <Energy>  (74) 
90.88251325962679

>  <Genealogy>  (74) 
O=C([N-]Cc1ccc(O)cc1)c1nnc(CNC23CC4CC(CC(C4)C2)C3)o1 (protonated)
O=C([N-]Cc1ccc(O)cc1)c1nnc(CNC23CC4CC(CC(C4)C2)C3)o1 (3D coordinates assigned)
O=C([N-]Cc1ccc(O)cc1)c1nnc(CNC23CC4CC(CC(C4)C2)C3)o1 (nonaromatic ring conformer: 90.88251325962679 kcal/mol)

>  <smiles>  (74) 
O=C(NCc1ccc(O)cc1)c1nnc(CNC23CC4CC(CC(C4)C2)C3)o1

>  <score_type>  (74) 
oracle

>  <origin>  (74) 
adg

>  <m_score__min__energy>  (74) 
-11.890000000000001

>  <m_primary>  (74) 
energy

$$$$
74:0
     RDKit          3D

 34 36  0  0  0  0  0  0  0  0999 V2000
   58.4090   28.2480   53.0340 O   0  0  0  0  0  0  0  0  0  0  0  0
   58.0490   29.3420   52.5240 C   0  0  0  0  0  0  0  0  0  0  0  0
   59.0350   30.1470   51.8610 N   0  0  0  0  0  0  0  0  0  0  0  0
   58.9880   30.5880   50.4960 C   0  0  0  0  0  0  0  0  0  0  0  0
   59.0260   29.6240   49.4800 C   0  0  0  0  0  0  0  0  0  0  0  0
   58.9920   30.0110   48.1360 C   0  0  0  0  0  0  0  0  0  0  0  0
   58.9040   31.3630   47.8000 C   0  0  0  0  0  0  0  0  0  0  0  0
   58.8330   32.3310   48.8050 C   0  0  0  0  0  0  0  0  0  0  0  0
   58.8590   31.9510   50.1520 C   0  0  0  0  0  0  0  0  0  0  0  0
   58.7290   32.9290   51.1320 O   0  0  0  0  0  0  0  0  0  0  0  0
   56.6400   29.7790   52.6620 C   0  0  0  0  0  0  0  0  0  0  0  0
   56.1390   30.8510   51.9030 C   0  0  0  0  0  0  0  0  0  0  0  0
   54.8040   31.2450   52.0280 C   0  0  0  0  0  0  0  0  0  0  0  0
   53.9530   30.5860   52.9280 C   0  0  0  0  0  0  0  0  0  0  0  0
   52.5030   30.9750   53.0200 C   0  0  0  0  0  0  0  0  0  0  0  0
   51.9350   31.1570   51.6480 C   0  0  0  0  0  0  0  0  0  0  0  0
   52.1050   30.2850   50.6380 N   0  0  0  0  0  0  0  0  0  0  0  0
   51.3610   30.8090   49.6390 C   0  0  0  0  0  0  0  0  0  0  0  0
   51.2360   30.1080   48.1700 S   0  0  0  0  0  0  0  0  0  0  0  0
   50.7180   31.9530   49.9600 N   0  0  0  0  0  0  0  0  0  0  0  0
   51.0860   32.1550   51.2350 C   0  0  0  0  0  0  0  0  0  0  0  0
   50.6490   33.2240   52.0060 O   0  0  0  0  0  0  0  0  0  0  0  0
   54.4520   29.5230   53.6950 C   0  0  0  0  0  0  0  0  0  0  0  0
   55.7870   29.1280   53.5700 C   0  0  0  0  0  0  0  0  0  0  0  0
   59.0829   28.5568   49.7405 H   0  0  0  0  0  0  0  0  0  0  0  0
   59.0346   29.2494   47.3435 H   0  0  0  0  0  0  0  0  0  0  0  0
   58.8905   31.6666   46.7428 H   0  0  0  0  0  0  0  0  0  0  0  0
   58.7564   33.3951   48.5369 H   0  0  0  0  0  0  0  0  0  0  0  0
   56.8025   31.3835   51.2057 H   0  0  0  0  0  0  0  0  0  0  0  0
   54.4187   32.0754   51.4181 H   0  0  0  0  0  0  0  0  0  0  0  0
   51.9459   30.1838   53.5431 H   0  0  0  0  0  0  0  0  0  0  0  0
   52.4170   31.9207   53.5752 H   0  0  0  0  0  0  0  0  0  0  0  0
   53.7894   28.9975   54.3985 H   0  0  0  0  0  0  0  0  0  0  0  0
   56.1726   28.3024   54.1862 H   0  0  0  0  0  0  0  0  0  0  0  0
  1  2  2  0
  2  3  1  0
  3  4  1  0
  4  5  2  0
  5  6  1  0
  6  7  2  0
  7  8  1  0
  8  9  2  0
  9 10  1  0
  2 11  1  0
 11 12  2  0
 12 13  1  0
 13 14  2  0
 14 15  1  0
 15 16  1  0
 16 17  1  0
 17 18  1  0
 18 19  2  0
 18 20  1  0
 20 21  1  0
 21 22  1  0
 14 23  1  0
 23 24  2  0
  9  4  1  0
 24 11  1  0
 21 16  2  0
  5 25  1  0
  6 26  1  0
  7 27  1  0
  8 28  1  0
 12 29  1  0
 13 30  1  0
 15 31  1  0
 15 32  1  0
 23 33  1  0
 24 34  1  0
M  CHG  5   3  -1  10  -1  17  -1  20  -1  22  -1
M  END
>  <UniqueID>  (75) 
68

>  <SMILES>  (75) 
O=C([N-]c1ccccc1[O-])c1ccc(Cc2[n-]c(=S)[n-]c2[O-])cc1

>  <Energy>  (75) 
72.43797977021258

>  <Genealogy>  (75) 
O=C([N-]c1ccccc1[O-])c1ccc(Cc2[n-]c(=S)[n-]c2[O-])cc1 (protonated)
O=C([N-]c1ccccc1[O-])c1ccc(Cc2[n-]c(=S)[n-]c2[O-])cc1 (3D coordinates assigned)
O=C([N-]c1ccccc1[O-])c1ccc(Cc2[n-]c(=S)[n-]c2[O-])cc1 (optimized conformer: 72.43797977021258 kcal/mol)

>  <smiles>  (75) 
O=C(Nc1ccccc1O)c1ccc(Cc2[nH]c(=S)[nH]c2O)cc1

>  <score_type>  (75) 
oracle

>  <origin>  (75) 
adg

>  <m_score__min__energy>  (75) 
-17.77

>  <m_primary>  (75) 
energy

$$$$
75:0
     RDKit          3D

 47 51  0  0  0  0  0  0  0  0999 V2000
   55.1460   27.8950   46.0180 H   0  0  0  0  0  0  0  0  0  0  0  0
   55.6170   27.1030   45.6050 O   0  0  0  0  0  0  0  0  0  0  0  0
   56.2030   26.1100   46.3910 C   0  0  0  0  0  0  0  0  0  0  0  0
   55.6050   24.9400   46.6760 N   0  0  0  0  0  0  0  0  0  0  0  0
   56.5020   24.3370   47.4820 C   0  0  0  0  0  0  0  0  0  0  0  0
   56.3040   23.2020   47.9850 O   0  0  0  0  0  0  0  0  0  0  0  0
   57.6230   25.0500   47.7130 N   0  0  0  0  0  0  0  0  0  0  0  0
   57.4210   26.1890   47.0260 C   0  0  0  0  0  0  0  0  0  0  0  0
   58.4020   27.2840   46.8990 C   0  0  0  0  0  0  0  0  0  0  0  0
   58.3988   27.8647   45.9648 H   0  0  0  0  0  0  0  0  0  0  0  0
   59.2980   27.6240   47.8390 C   0  0  0  0  0  0  0  0  0  0  0  0
   60.1320   26.7450   48.5270 C   0  0  0  0  0  0  0  0  0  0  0  0
   60.1416   25.6526   48.3987 H   0  0  0  0  0  0  0  0  0  0  0  0
   60.9290   27.4350   49.3770 N   0  0  0  0  0  0  0  0  0  0  0  0
   60.6300   28.7180   49.2410 N   0  0  0  0  0  0  0  0  0  0  0  0
   61.1850   29.8000   49.8590 C   0  0  0  0  0  0  0  0  0  0  0  0
   62.1320   29.7060   50.7510 N   0  0  0  0  0  0  0  0  0  0  0  0
   61.9840   29.3070   52.1480 C   0  0  0  0  0  0  0  0  0  0  0  0
   62.6381   30.0708   52.5938 H   0  0  0  0  0  0  0  0  0  0  0  0
   60.6050   28.7450   52.4370 C   0  0  0  0  0  0  0  0  0  0  0  0
   60.1248   28.9374   53.4078 H   0  0  0  0  0  0  0  0  0  0  0  0
   59.6241   28.7968   51.9418 H   0  0  0  0  0  0  0  0  0  0  0  0
   61.8050   27.8140   52.3530 C   0  0  0  0  0  0  0  0  0  0  0  0
   62.1931   27.3330   53.2630 H   0  0  0  0  0  0  0  0  0  0  0  0
   62.0523   26.9133   51.7720 H   0  0  0  0  0  0  0  0  0  0  0  0
   60.7250   31.0340   49.5170 N   0  0  0  0  0  0  0  0  0  0  0  0
   59.7550   31.1850   48.5670 C   0  0  0  0  0  0  0  0  0  0  0  0
   59.2970   32.4680   48.2540 O   0  0  0  0  0  0  0  0  0  0  0  0
   58.7900   32.8530   47.0060 C   0  0  0  0  0  0  0  0  0  0  0  0
   59.1650   34.0580   46.3860 C   0  0  0  0  0  0  0  0  0  0  0  0
   59.9046   34.7154   46.8663 H   0  0  0  0  0  0  0  0  0  0  0  0
   58.6000   34.4220   45.1610 C   0  0  0  0  0  0  0  0  0  0  0  0
   58.9034   35.3604   44.6738 H   0  0  0  0  0  0  0  0  0  0  0  0
   57.6510   33.5970   44.5540 C   0  0  0  0  0  0  0  0  0  0  0  0
   57.1948   33.8984   43.5995 H   0  0  0  0  0  0  0  0  0  0  0  0
   57.2770   32.3890   45.1530 C   0  0  0  0  0  0  0  0  0  0  0  0
   56.3340   31.5460   44.4750 N   0  0  0  0  0  0  0  0  0  0  0  0
   56.3390   30.1160   44.5470 C   0  0  0  0  0  0  0  0  0  0  0  0
   55.2800   29.5100   44.8700 O   0  0  0  0  0  0  0  0  0  0  0  0
   57.5750   29.3370   44.2290 C   0  0  0  0  0  0  0  0  0  0  0  0
   58.0647   29.0284   45.1644 H   0  0  0  0  0  0  0  0  0  0  0  0
   57.3059   28.4449   43.6443 H   0  0  0  0  0  0  0  0  0  0  0  0
   58.2637   29.9646   43.6443 H   0  0  0  0  0  0  0  0  0  0  0  0
   57.8550   32.0180   46.3800 C   0  0  0  0  0  0  0  0  0  0  0  0
   57.5712   31.0657   46.8517 H   0  0  0  0  0  0  0  0  0  0  0  0
   59.2200   30.0880   47.9600 N   0  0  0  0  0  0  0  0  0  0  0  0
   59.6630   28.8640   48.3280 C   0  0  0  0  0  0  0  0  0  0  0  0
  1  2  1  0
  2  3  1  0
  3  4  1  0
  4  5  1  0
  5  6  2  0
  5  7  1  0
  7  8  1  0
  8  9  1  0
  9 10  1  0
  9 11  2  0
 11 12  1  0
 12 13  1  0
 12 14  2  0
 14 15  1  0
 15 16  1  0
 16 17  2  3
 17 18  1  0
 18 19  1  0
 18 20  1  0
 20 21  1  0
 20 22  1  0
 20 23  1  0
 23 24  1  0
 23 25  1  0
 16 26  1  0
 26 27  2  0
 27 28  1  0
 28 29  1  0
 29 30  2  0
 30 31  1  0
 30 32  1  0
 32 33  1  0
 32 34  2  0
 34 35  1  0
 34 36  1  0
 36 37  1  0
 37 38  1  0
 38 39  2  0
 38 40  1  0
 40 41  1  0
 40 42  1  0
 40 43  1  0
 36 44  2  0
 44 45  1  0
 27 46  1  0
 46 47  2  0
  8  3  2  0
 47 11  1  0
 47 15  1  0
 23 18  1  0
 44 29  1  0
M  CHG  3   4  -1   7  -1  37  -1
M  END
>  <UniqueID>  (76) 
69

>  <SMILES>  (76) 
CC(=O)[N-]c1cccc(Oc2nc(=NC3CC3)n3nc/c(=C/c4[n-]c(=O)[n-]c4O)c3n2)c1

>  <Energy>  (76) 
402.76615444019814

>  <Genealogy>  (76) 
CC(=O)[N-]c1cccc(Oc2nc(=NC3CC3)n3ncc(=Cc4[n-]c(=O)[n-]c4O)c3n2)c1 (protonated)
CC(=O)[N-]c1cccc(Oc2nc(=NC3CC3)n3nc/c(=C/c4[n-]c(=O)[n-]c4O)c3n2)c1 (cis-trans isomerization)
CC(=O)[N-]c1cccc(Oc2nc(=NC3CC3)n3nc/c(=C/c4[n-]c(=O)[n-]c4O)c3n2)c1 (3D coordinates assigned)
CC(=O)[N-]c1cccc(Oc2nc(=NC3CC3)n3nc/c(=C/c4[n-]c(=O)[n-]c4O)c3n2)c1 (nonaromatic ring conformer: 402.76615444019814 kcal/mol)

>  <smiles>  (76) 
CC(=O)Nc1cccc(Oc2nc(=NC3CC3)n3ncc(=Cc4[nH]c(=O)[nH]c4O)c3n2)c1

>  <score_type>  (76) 
oracle

>  <origin>  (76) 
adg

>  <m_score__min__energy>  (76) 
-14.609999999999999

>  <m_primary>  (76) 
energy

$$$$
76:0
     RDKit          3D

 41 43  0  0  0  0  0  0  0  0999 V2000
   60.4946   35.0298   48.6868 H   0  0  0  0  0  0  0  0  0  0  0  0
   59.8600   34.5960   47.9000 C   0  0  0  0  0  0  0  0  0  0  0  0
   59.9710   35.0520   46.5830 C   0  0  0  0  0  0  0  0  0  0  0  0
   60.6933   35.8436   46.3348 H   0  0  0  0  0  0  0  0  0  0  0  0
   59.1650   34.5030   45.5810 C   0  0  0  0  0  0  0  0  0  0  0  0
   59.2619   34.8568   44.5440 H   0  0  0  0  0  0  0  0  0  0  0  0
   58.2310   33.5000   45.8950 C   0  0  0  0  0  0  0  0  0  0  0  0
   57.4040   32.8660   44.8100 C   0  0  0  0  0  0  0  0  0  0  0  0
   57.2644   33.5858   43.9900 H   0  0  0  0  0  0  0  0  0  0  0  0
   56.4257   32.5775   45.2220 H   0  0  0  0  0  0  0  0  0  0  0  0
   58.0810   31.6760   44.3000 N   0  0  0  0  0  0  0  0  0  0  0  0
   58.7400   31.8230   43.5010 H   0  0  0  0  0  0  0  0  0  0  0  0
   58.3410   30.5520   45.1510 C   0  0  0  0  0  0  0  0  0  0  0  0
   59.4530   30.5720   45.9310 N   0  0  0  0  0  0  0  0  0  0  0  0
   59.7260   29.5790   46.8130 C   0  0  0  0  0  0  0  0  0  0  0  0
   60.7890   29.6680   47.5580 N   0  0  0  0  0  0  0  0  0  0  0  0
   61.4180   30.8740   48.0260 C   0  0  0  0  0  0  0  0  0  0  0  0
   61.4780   31.2020   49.3930 C   0  0  0  0  0  0  0  0  0  0  0  0
   61.0166   30.5363   50.1374 H   0  0  0  0  0  0  0  0  0  0  0  0
   62.1220   32.3710   49.8080 C   0  0  0  0  0  0  0  0  0  0  0  0
   62.1459   32.6346   50.8757 H   0  0  0  0  0  0  0  0  0  0  0  0
   62.7350   33.2050   48.8710 C   0  0  0  0  0  0  0  0  0  0  0  0
   63.2249   34.1331   49.2005 H   0  0  0  0  0  0  0  0  0  0  0  0
   62.7280   32.8630   47.5110 C   0  0  0  0  0  0  0  0  0  0  0  0
   63.3690   33.7740   46.5050 C   0  0  0  0  0  0  0  0  0  0  0  0
   63.9256   34.5650   47.0289 H   0  0  0  0  0  0  0  0  0  0  0  0
   64.0601   33.1955   45.8744 H   0  0  0  0  0  0  0  0  0  0  0  0
   62.5911   34.2291   45.8744 H   0  0  0  0  0  0  0  0  0  0  0  0
   62.0620   31.6990   47.0960 C   0  0  0  0  0  0  0  0  0  0  0  0
   62.0459   31.4323   46.0289 H   0  0  0  0  0  0  0  0  0  0  0  0
   58.8560   28.5410   46.9400 N   0  0  0  0  0  0  0  0  0  0  0  0
   57.7370   28.4560   46.1770 C   0  0  0  0  0  0  0  0  0  0  0  0
   56.9800   27.4580   46.3080 O   0  0  0  0  0  0  0  0  0  0  0  0
   57.4470   29.4630   45.2380 C   0  0  0  0  0  0  0  0  0  0  0  0
   56.3090   29.3510   44.3630 N   0  0  0  0  0  0  0  0  0  0  0  0
   55.1520   29.3480   44.8320 O   0  0  0  0  0  0  0  0  0  0  0  0
   56.4740   29.3470   42.9970 O   0  0  0  0  0  0  0  0  0  0  0  0
   58.1350   33.0380   47.2190 C   0  0  0  0  0  0  0  0  0  0  0  0
   57.4213   32.2396   47.4705 H   0  0  0  0  0  0  0  0  0  0  0  0
   58.9440   33.5900   48.2180 C   0  0  0  0  0  0  0  0  0  0  0  0
   58.8589   33.2318   49.2545 H   0  0  0  0  0  0  0  0  0  0  0  0
  1  2  1  0
  2  3  2  0
  3  4  1  0
  3  5  1  0
  5  6  1  0
  5  7  2  0
  7  8  1  0
  8  9  1  0
  8 10  1  0
  8 11  1  0
 11 12  1  0
 11 13  1  0
 13 14  1  0
 14 15  1  0
 15 16  2  0
 16 17  1  0
 17 18  2  0
 18 19  1  0
 18 20  1  0
 20 21  1  0
 20 22  2  0
 22 23  1  0
 22 24  1  0
 24 25  1  0
 25 26  1  0
 25 27  1  0
 25 28  1  0
 24 29  2  0
 29 30  1  0
 15 31  1  0
 31 32  1  0
 32 33  2  0
 32 34  1  0
 34 35  1  0
 35 36  2  0
 35 37  1  0
  7 38  1  0
 38 39  1  0
 38 40  2  0
 40 41  1  0
 40  2  1  0
 34 13  2  0
 29 17  1  0
M  CHG  4  14  -1  31  -1  35   1  37  -1
M  END
>  <UniqueID>  (77) 
70

>  <SMILES>  (77) 
Cc1cccc(/N=c2/[n-]c(NCc3ccccc3)c([N+](=O)[O-])c(=O)[n-]2)c1

>  <Energy>  (77) 
57.92019113692144

>  <Genealogy>  (77) 
Cc1cccc(N=c2[n-]c(NCc3ccccc3)c([N+](=O)[O-])c(=O)[n-]2)c1 (protonated)
Cc1cccc(/N=c2/[n-]c(NCc3ccccc3)c([N+](=O)[O-])c(=O)[n-]2)c1 (cis-trans isomerization)
Cc1cccc(/N=c2/[n-]c(NCc3ccccc3)c([N+](=O)[O-])c(=O)[n-]2)c1 (3D coordinates assigned)
Cc1cccc(/N=c2/[n-]c(NCc3ccccc3)c([N+](=O)[O-])c(=O)[n-]2)c1 (optimized conformer: 57.92019113692144 kcal/mol)

>  <smiles>  (77) 
Cc1cccc(N=c2[nH]c(NCc3ccccc3)c([N+](=O)[O-])c(=O)[nH]2)c1

>  <score_type>  (77) 
oracle

>  <origin>  (77) 
adg

>  <m_score__min__energy>  (77) 
-11.109999999999999

>  <m_primary>  (77) 
energy

$$$$
77:0
     RDKit          3D

 41 43  0  0  0  0  0  0  0  0999 V2000
   58.1190   26.9410   42.8170 C   0  0  0  0  0  0  0  0  0  0  0  0
   58.3360   27.4840   44.1990 C   0  0  0  0  0  0  0  0  0  0  0  0
   59.4440   28.3020   44.4700 C   0  0  0  0  0  0  0  0  0  0  0  0
   59.6680   28.7770   45.7660 C   0  0  0  0  0  0  0  0  0  0  0  0
   58.7960   28.4250   46.8030 C   0  0  0  0  0  0  0  0  0  0  0  0
   59.0840   29.0350   48.4650 S   0  0  0  0  0  0  0  0  0  0  0  0
   60.7760   29.5980   48.0950 C   0  0  0  0  0  0  0  0  0  0  0  0
   60.7380   31.0230   47.6390 C   0  0  0  0  0  0  0  0  0  0  0  0
   61.9220   31.7560   47.4800 C   0  0  0  0  0  0  0  0  0  0  0  0
   61.8510   33.0910   47.0810 C   0  0  0  0  0  0  0  0  0  0  0  0
   60.6100   33.6870   46.8580 C   0  0  0  0  0  0  0  0  0  0  0  0
   59.4420   32.9310   47.0410 C   0  0  0  0  0  0  0  0  0  0  0  0
   58.0900   33.5280   46.7820 C   0  0  0  0  0  0  0  0  0  0  0  0
   58.0060   34.2320   45.1000 S   0  0  0  0  0  0  0  0  0  0  0  0
   57.5460   32.6880   44.3100 C   0  0  0  0  0  0  0  0  0  0  0  0
   57.7710   32.4990   42.9430 C   0  0  0  0  0  0  0  0  0  0  0  0
   57.4160   31.2840   42.3550 C   0  0  0  0  0  0  0  0  0  0  0  0
   56.8380   30.2770   43.1340 C   0  0  0  0  0  0  0  0  0  0  0  0
   56.6230   30.5070   44.4950 C   0  0  0  0  0  0  0  0  0  0  0  0
   56.9770   31.6970   45.0490 N   0  0  0  0  0  0  0  0  0  0  0  0
   59.5370   31.6290   47.4250 N   0  0  0  0  0  0  0  0  0  0  0  0
   57.6980   27.5980   46.5400 C   0  0  0  0  0  0  0  0  0  0  0  0
   57.4730   27.1220   45.2450 C   0  0  0  0  0  0  0  0  0  0  0  0
   57.7115   25.9214   42.8835 H   0  0  0  0  0  0  0  0  0  0  0  0
   57.4092   27.5851   42.2773 H   0  0  0  0  0  0  0  0  0  0  0  0
   59.0772   26.9185   42.2773 H   0  0  0  0  0  0  0  0  0  0  0  0
   60.1384   28.5703   43.6602 H   0  0  0  0  0  0  0  0  0  0  0  0
   60.5306   29.4281   45.9709 H   0  0  0  0  0  0  0  0  0  0  0  0
   61.3952   29.5190   49.0007 H   0  0  0  0  0  0  0  0  0  0  0  0
   61.2066   28.9699   47.3012 H   0  0  0  0  0  0  0  0  0  0  0  0
   62.8974   31.2835   47.6679 H   0  0  0  0  0  0  0  0  0  0  0  0
   62.7738   33.6734   46.9423 H   0  0  0  0  0  0  0  0  0  0  0  0
   60.5474   34.7388   46.5420 H   0  0  0  0  0  0  0  0  0  0  0  0
   57.3241   32.7451   46.8843 H   0  0  0  0  0  0  0  0  0  0  0  0
   57.9135   34.3326   47.5110 H   0  0  0  0  0  0  0  0  0  0  0  0
   58.2227   33.2988   42.3378 H   0  0  0  0  0  0  0  0  0  0  0  0
   57.5905   31.1191   41.2815 H   0  0  0  0  0  0  0  0  0  0  0  0
   56.5560   29.3153   42.6806 H   0  0  0  0  0  0  0  0  0  0  0  0
   56.1668   29.7245   45.1191 H   0  0  0  0  0  0  0  0  0  0  0  0
   57.0110   27.3221   47.3536 H   0  0  0  0  0  0  0  0  0  0  0  0
   56.6165   26.4614   45.0451 H   0  0  0  0  0  0  0  0  0  0  0  0
  1  2  1  0
  2  3  2  0
  3  4  1  0
  4  5  2  0
  5  6  1  0
  6  7  1  0
  7  8  1  0
  8  9  2  0
  9 10  1  0
 10 11  2  0
 11 12  1  0
 12 13  1  0
 13 14  1  0
 14 15  1  0
 15 16  2  0
 16 17  1  0
 17 18  2  0
 18 19  1  0
 19 20  2  0
 12 21  2  0
  5 22  1  0
 22 23  2  0
 23  2  1  0
 21  8  1  0
 20 15  1  0
  1 24  1  0
  1 25  1  0
  1 26  1  0
  3 27  1  0
  4 28  1  0
  7 29  1  0
  7 30  1  0
  9 31  1  0
 10 32  1  0
 11 33  1  0
 13 34  1  0
 13 35  1  0
 16 36  1  0
 17 37  1  0
 18 38  1  0
 19 39  1  0
 22 40  1  0
 23 41  1  0
M  END
>  <UniqueID>  (78) 
71

>  <SMILES>  (78) 
Cc1ccc(SCc2cccc(CSc3ccccn3)n2)cc1

>  <Energy>  (78) 
33.62546781170954

>  <Genealogy>  (78) 
Cc1ccc(SCc2cccc(CSc3ccccn3)n2)cc1 (3D coordinates assigned)
Cc1ccc(SCc2cccc(CSc3ccccn3)n2)cc1 (optimized conformer: 33.62546781170954 kcal/mol)

>  <smiles>  (78) 
Cc1ccc(SCc2cccc(CSc3ccccn3)n2)cc1

>  <score_type>  (78) 
oracle

>  <origin>  (78) 
adg

>  <m_score__min__energy>  (78) 
-8.2300000000000004

>  <m_primary>  (78) 
energy

$$$$
78:0
     RDKit          3D

 38 40  0  0  0  0  0  0  0  0999 V2000
   55.4319   24.1563   46.7040 H   0  0  0  0  0  0  0  0  0  0  0  0
   55.9890   25.0390   46.3570 C   0  0  0  0  0  0  0  0  0  0  0  0
   55.3730   26.2040   46.0190 N   0  0  0  0  0  0  0  0  0  0  0  0
   56.2600   27.1400   45.6260 C   0  0  0  0  0  0  0  0  0  0  0  0
   55.8920   28.3280   45.2550 N   0  0  0  0  0  0  0  0  0  0  0  0
   56.9710   29.5300   44.6170 S   0  0  0  0  0  0  0  0  0  0  0  0
   57.4690   29.0800   43.2720 O   0  0  0  0  0  0  0  0  0  0  0  0
   56.2240   30.8240   44.4530 O   0  0  0  0  0  0  0  0  0  0  0  0
   58.3470   29.7370   45.6950 C   0  0  0  0  0  0  0  0  0  0  0  0
   58.1360   29.9440   47.0640 C   0  0  0  0  0  0  0  0  0  0  0  0
   57.1113   29.9682   47.4633 H   0  0  0  0  0  0  0  0  0  0  0  0
   59.2240   30.1200   47.9250 C   0  0  0  0  0  0  0  0  0  0  0  0
   59.0506   30.3018   48.9959 H   0  0  0  0  0  0  0  0  0  0  0  0
   60.5320   30.0660   47.4310 C   0  0  0  0  0  0  0  0  0  0  0  0
   61.6270   30.2830   48.3300 N   0  0  0  0  0  0  0  0  0  0  0  0
   62.4420   31.4610   48.4060 C   0  0  0  0  0  0  0  0  0  0  0  0
   62.7720   31.8910   49.5430 O   0  0  0  0  0  0  0  0  0  0  0  0
   63.0640   32.0730   47.1780 C   0  0  0  0  0  0  0  0  0  0  0  0
   62.5748   31.6547   46.2860 H   0  0  0  0  0  0  0  0  0  0  0  0
   64.1388   31.8389   47.1886 H   0  0  0  0  0  0  0  0  0  0  0  0
   62.8820   33.8920   47.1530 S   0  0  0  0  0  0  0  0  0  0  0  0
   61.1040   33.8690   46.9150 C   0  0  0  0  0  0  0  0  0  0  0  0
   60.5130   33.7540   45.7110 N   0  0  0  0  0  0  0  0  0  0  0  0
   59.2050   33.7370   45.9280 N   0  0  0  0  0  0  0  0  0  0  0  0
   59.0190   33.8380   47.2580 C   0  0  0  0  0  0  0  0  0  0  0  0
   58.0355   33.8429   47.7507 H   0  0  0  0  0  0  0  0  0  0  0  0
   60.1930   33.9320   47.9030 N   0  0  0  0  0  0  0  0  0  0  0  0
   60.4180   33.9870   49.3420 C   0  0  0  0  0  0  0  0  0  0  0  0
   59.4800   33.7577   49.8688 H   0  0  0  0  0  0  0  0  0  0  0  0
   61.1852   33.2499   49.6216 H   0  0  0  0  0  0  0  0  0  0  0  0
   60.7586   34.9949   49.6216 H   0  0  0  0  0  0  0  0  0  0  0  0
   60.7410   29.8880   46.0550 C   0  0  0  0  0  0  0  0  0  0  0  0
   61.7647   29.8877   45.6526 H   0  0  0  0  0  0  0  0  0  0  0  0
   59.6550   29.7110   45.1930 C   0  0  0  0  0  0  0  0  0  0  0  0
   59.8275   29.5510   44.1185 H   0  0  0  0  0  0  0  0  0  0  0  0
   57.8440   26.5640   45.6810 S   0  0  0  0  0  0  0  0  0  0  0  0
   57.3750   25.0450   46.2320 C   0  0  0  0  0  0  0  0  0  0  0  0
   58.0470   24.2031   46.4547 H   0  0  0  0  0  0  0  0  0  0  0  0
  1  2  1  0
  2  3  1  0
  3  4  1  0
  4  5  2  0
  5  6  1  0
  6  7  2  0
  6  8  2  0
  6  9  1  0
  9 10  2  0
 10 11  1  0
 10 12  1  0
 12 13  1  0
 12 14  2  0
 14 15  1  0
 15 16  1  0
 16 17  2  0
 16 18  1  0
 18 19  1  0
 18 20  1  0
 18 21  1  0
 21 22  1  0
 22 23  2  0
 23 24  1  0
 24 25  2  0
 25 26  1  0
 25 27  1  0
 27 28  1  0
 28 29  1  0
 28 30  1  0
 28 31  1  0
 14 32  1  0
 32 33  1  0
 32 34  2  0
 34 35  1  0
  4 36  1  0
 36 37  1  0
 37 38  1  0
 37  2  2  0
 34  9  1  0
 27 22  1  0
M  CHG  2   3  -1  15  -1
M  END
>  <UniqueID>  (79) 
72

>  <SMILES>  (79) 
Cn1cnnc1SCC(=O)[N-]c1ccc(S(=O)(=O)/N=c2/[n-]ccs2)cc1

>  <Energy>  (79) 
108.13046370468611

>  <Genealogy>  (79) 
Cn1cnnc1SCC(=O)[N-]c1ccc(S(=O)(=O)N=c2[n-]ccs2)cc1 (protonated)
Cn1cnnc1SCC(=O)[N-]c1ccc(S(=O)(=O)/N=c2/[n-]ccs2)cc1 (cis-trans isomerization)
Cn1cnnc1SCC(=O)[N-]c1ccc(S(=O)(=O)/N=c2/[n-]ccs2)cc1 (3D coordinates assigned)
Cn1cnnc1SCC(=O)[N-]c1ccc(S(=O)(=O)/N=c2/[n-]ccs2)cc1 (optimized conformer: 108.13046370468611 kcal/mol)

>  <smiles>  (79) 
Cn1cnnc1SCC(=O)Nc1ccc(S(=O)(=O)N=c2[nH]ccs2)cc1

>  <score_type>  (79) 
oracle

>  <origin>  (79) 
adg

>  <m_score__min__energy>  (79) 
-11.199999999999999

>  <m_primary>  (79) 
energy

$$$$
79:0
     RDKit          3D

 48 50  0  0  0  0  0  0  0  0999 V2000
   61.4620   33.9940   49.0420 C   0  0  0  0  0  0  0  0  0  0  0  0
   60.4070   32.9810   49.0490 N   0  0  0  0  0  0  0  0  0  0  0  0
   59.4770   32.9190   50.1440 C   0  0  0  0  0  0  0  0  0  0  0  0
   58.4220   31.9900   50.1320 C   0  0  0  0  0  0  0  0  0  0  0  0
   57.5190   31.9330   51.1980 C   0  0  0  0  0  0  0  0  0  0  0  0
   57.6610   32.7990   52.2840 C   0  0  0  0  0  0  0  0  0  0  0  0
   58.7100   33.7230   52.3070 C   0  0  0  0  0  0  0  0  0  0  0  0
   59.6150   33.7840   51.2430 C   0  0  0  0  0  0  0  0  0  0  0  0
   60.2850   31.8650   47.7200 S   0  0  0  0  0  0  0  0  0  0  0  0
   61.6430   31.6770   47.1030 O   0  0  0  0  0  0  0  0  0  0  0  0
   59.8060   30.5260   48.2100 O   0  0  0  0  0  0  0  0  0  0  0  0
   59.1630   32.4890   46.5130 C   0  0  0  0  0  0  0  0  0  0  0  0
   59.2620   33.8160   46.0720 C   0  0  0  0  0  0  0  0  0  0  0  0
   58.3860   34.2970   45.0950 C   0  0  0  0  0  0  0  0  0  0  0  0
   57.3980   33.4630   44.5640 C   0  0  0  0  0  0  0  0  0  0  0  0
   57.2700   32.1410   45.0250 C   0  0  0  0  0  0  0  0  0  0  0  0
   56.2750   31.2530   44.4940 N   0  0  0  0  0  0  0  0  0  0  0  0
   56.4040   29.8320   44.3720 C   0  0  0  0  0  0  0  0  0  0  0  0
   55.5240   29.0940   44.8910 O   0  0  0  0  0  0  0  0  0  0  0  0
   57.4770   29.2510   43.6180 N   0  0  0  0  0  0  0  0  0  0  0  0
   57.7950   27.8250   43.6800 C   0  0  0  0  0  0  0  0  0  0  0  0
   58.4910   27.5060   44.9740 C   0  0  0  0  0  0  0  0  0  0  0  0
   57.9410   26.5770   45.8730 C   0  0  0  0  0  0  0  0  0  0  0  0
   58.5810   26.3070   47.0870 C   0  0  0  0  0  0  0  0  0  0  0  0
   59.7670   26.9690   47.4160 C   0  0  0  0  0  0  0  0  0  0  0  0
   60.3170   27.9000   46.5290 C   0  0  0  0  0  0  0  0  0  0  0  0
   59.6820   28.1690   45.3120 C   0  0  0  0  0  0  0  0  0  0  0  0
   58.1720   31.6540   45.9780 C   0  0  0  0  0  0  0  0  0  0  0  0
   61.7301   34.2514   50.0773 H   0  0  0  0  0  0  0  0  0  0  0  0
   62.3468   33.5984   48.5217 H   0  0  0  0  0  0  0  0  0  0  0  0
   61.1026   34.8941   48.5217 H   0  0  0  0  0  0  0  0  0  0  0  0
   58.3063   31.3044   49.2796 H   0  0  0  0  0  0  0  0  0  0  0  0
   56.6951   31.2044   51.1810 H   0  0  0  0  0  0  0  0  0  0  0  0
   56.9482   32.7543   53.1207 H   0  0  0  0  0  0  0  0  0  0  0  0
   58.8235   34.4033   53.1639 H   0  0  0  0  0  0  0  0  0  0  0  0
   60.4389   34.5125   51.2662 H   0  0  0  0  0  0  0  0  0  0  0  0
   60.0303   34.4796   46.4955 H   0  0  0  0  0  0  0  0  0  0  0  0
   58.4744   35.3353   44.7428 H   0  0  0  0  0  0  0  0  0  0  0  0
   56.7200   33.8413   43.7848 H   0  0  0  0  0  0  0  0  0  0  0  0
   58.0550   29.8610   42.9960 H   0  0  0  0  0  0  0  0  0  0  0  0
   56.8647   27.2417   43.6140 H   0  0  0  0  0  0  0  0  0  0  0  0
   58.4588   27.5676   42.8415 H   0  0  0  0  0  0  0  0  0  0  0  0
   57.0033   26.0599   45.6211 H   0  0  0  0  0  0  0  0  0  0  0  0
   58.1503   25.5727   47.7836 H   0  0  0  0  0  0  0  0  0  0  0  0
   60.2678   26.7579   48.3724 H   0  0  0  0  0  0  0  0  0  0  0  0
   61.2501   28.4214   46.7887 H   0  0  0  0  0  0  0  0  0  0  0  0
   60.1171   28.9025   44.6172 H   0  0  0  0  0  0  0  0  0  0  0  0
   58.1028   30.6076   46.3099 H   0  0  0  0  0  0  0  0  0  0  0  0
  1  2  1  0
  2  3  1  0
  3  4  2  0
  4  5  1  0
  5  6  2  0
  6  7  1  0
  7  8  2  0
  2  9  1  0
  9 10  2  0
  9 11  2  0
  9 12  1  0
 12 13  2  0
 13 14  1  0
 14 15  2  0
 15 16  1  0
 16 17  1  0
 17 18  1  0
 18 19  2  0
 18 20  1  0
 20 21  1  0
 21 22  1  0
 22 23  2  0
 23 24  1  0
 24 25  2  0
 25 26  1  0
 26 27  2  0
 16 28  2  0
  8  3  1  0
 28 12  1  0
 27 22  1  0
  1 29  1  0
  1 30  1  0
  1 31  1  0
  4 32  1  0
  5 33  1  0
  6 34  1  0
  7 35  1  0
  8 36  1  0
 13 37  1  0
 14 38  1  0
 15 39  1  0
 20 40  1  0
 21 41  1  0
 21 42  1  0
 23 43  1  0
 24 44  1  0
 25 45  1  0
 26 46  1  0
 27 47  1  0
 28 48  1  0
M  CHG  1  17  -1
M  END
>  <UniqueID>  (80) 
73

>  <SMILES>  (80) 
CN(c1ccccc1)S(=O)(=O)c1cccc([N-]C(=O)NCc2ccccc2)c1

>  <Energy>  (80) 
56.08550744121338

>  <Genealogy>  (80) 
CN(c1ccccc1)S(=O)(=O)c1cccc([N-]C(=O)NCc2ccccc2)c1 (protonated)
CN(c1ccccc1)S(=O)(=O)c1cccc([N-]C(=O)NCc2ccccc2)c1 (3D coordinates assigned)
CN(c1ccccc1)S(=O)(=O)c1cccc([N-]C(=O)NCc2ccccc2)c1 (optimized conformer: 56.08550744121338 kcal/mol)

>  <smiles>  (80) 
CN(c1ccccc1)S(=O)(=O)c1cccc(NC(=O)NCc2ccccc2)c1

>  <score_type>  (80) 
oracle

>  <origin>  (80) 
adg

>  <m_score__min__energy>  (80) 
-11.6

>  <m_primary>  (80) 
energy

$$$$
80:0
     RDKit          3D

 38 40  0  0  0  0  0  0  0  0999 V2000
   59.0500   34.3750   45.0100 C   0  0  0  0  0  0  0  0  0  0  0  0
   58.4660   32.9930   45.0040 C   0  0  0  0  0  0  0  0  0  0  0  0
   58.6780   32.1310   46.0900 C   0  0  0  0  0  0  0  0  0  0  0  0
   58.1660   30.8300   46.0690 C   0  0  0  0  0  0  0  0  0  0  0  0
   57.4390   30.3640   44.9590 C   0  0  0  0  0  0  0  0  0  0  0  0
   56.9060   28.9770   44.9520 C   0  0  0  0  0  0  0  0  0  0  0  0
   55.6640   28.7960   45.0850 O   0  0  0  0  0  0  0  0  0  0  0  0
   57.8200   27.7810   44.8570 C   0  0  0  0  0  0  0  0  0  0  0  0
   57.5990   26.8130   45.9890 C   0  0  0  0  0  0  0  0  0  0  0  0
   58.0300   27.0980   47.1390 O   0  0  0  0  0  0  0  0  0  0  0  0
   56.8790   25.5360   45.7740 C   0  0  0  0  0  0  0  0  0  0  0  0
   55.4740   25.5260   45.8200 C   0  0  0  0  0  0  0  0  0  0  0  0
   54.7680   26.7000   46.0670 O   0  0  0  0  0  0  0  0  0  0  0  0
   54.7850   24.3670   45.6430 N   0  0  0  0  0  0  0  0  0  0  0  0
   55.4110   23.1790   45.4290 C   0  0  0  0  0  0  0  0  0  0  0  0
   54.7190   22.1360   45.2760 O   0  0  0  0  0  0  0  0  0  0  0  0
   56.8170   23.1230   45.3780 C   0  0  0  0  0  0  0  0  0  0  0  0
   57.4870   21.9030   45.1530 C   0  0  0  0  0  0  0  0  0  0  0  0
   58.8790   21.8660   45.0890 C   0  0  0  0  0  0  0  0  0  0  0  0
   59.6190   23.0360   45.2440 C   0  0  0  0  0  0  0  0  0  0  0  0
   58.9730   24.2530   45.4700 C   0  0  0  0  0  0  0  0  0  0  0  0
   57.5650   24.3160   45.5500 C   0  0  0  0  0  0  0  0  0  0  0  0
   57.2520   31.2260   43.8610 C   0  0  0  0  0  0  0  0  0  0  0  0
   57.7660   32.5270   43.8830 C   0  0  0  0  0  0  0  0  0  0  0  0
   59.1911   34.7089   46.0485 H   0  0  0  0  0  0  0  0  0  0  0  0
   60.0208   34.3651   44.4929 H   0  0  0  0  0  0  0  0  0  0  0  0
   58.3662   35.0643   44.4929 H   0  0  0  0  0  0  0  0  0  0  0  0
   59.2498   32.4801   46.9624 H   0  0  0  0  0  0  0  0  0  0  0  0
   58.3334   30.1647   46.9289 H   0  0  0  0  0  0  0  0  0  0  0  0
   57.6307   27.2637   43.9049 H   0  0  0  0  0  0  0  0  0  0  0  0
   58.8581   28.1404   44.9140 H   0  0  0  0  0  0  0  0  0  0  0  0
   53.7410   24.3930   45.6830 H   0  0  0  0  0  0  0  0  0  0  0  0
   56.9085   20.9759   45.0274 H   0  0  0  0  0  0  0  0  0  0  0  0
   59.3947   20.9100   44.9156 H   0  0  0  0  0  0  0  0  0  0  0  0
   60.7170   23.0009   45.1881 H   0  0  0  0  0  0  0  0  0  0  0  0
   59.5669   25.1715   45.5868 H   0  0  0  0  0  0  0  0  0  0  0  0
   56.6973   30.8734   42.9790 H   0  0  0  0  0  0  0  0  0  0  0  0
   57.6199   33.1877   43.0157 H   0  0  0  0  0  0  0  0  0  0  0  0
  1  2  1  0
  2  3  2  0
  3  4  1  0
  4  5  2  0
  5  6  1  0
  6  7  2  0
  6  8  1  0
  8  9  1  0
  9 10  2  0
  9 11  1  0
 11 12  2  0
 12 13  1  0
 12 14  1  0
 14 15  1  0
 15 16  2  0
 15 17  1  0
 17 18  2  0
 18 19  1  0
 19 20  2  0
 20 21  1  0
 21 22  2  0
  5 23  1  0
 23 24  2  0
 24  2  1  0
 22 11  1  0
 22 17  1  0
  1 25  1  0
  1 26  1  0
  1 27  1  0
  3 28  1  0
  4 29  1  0
  8 30  1  0
  8 31  1  0
 14 32  1  0
 18 33  1  0
 19 34  1  0
 20 35  1  0
 21 36  1  0
 23 37  1  0
 24 38  1  0
M  CHG  1  13  -1
M  END
>  <UniqueID>  (81) 
74

>  <SMILES>  (81) 
Cc1ccc(C(=O)CC(=O)c2c([O-])[nH]c(=O)c3ccccc23)cc1

>  <Energy>  (81) 
55.24971801273017

>  <Genealogy>  (81) 
Cc1ccc(C(=O)CC(=O)c2c([O-])[nH]c(=O)c3ccccc23)cc1 (protonated)
Cc1ccc(C(=O)CC(=O)c2c([O-])[nH]c(=O)c3ccccc23)cc1 (3D coordinates assigned)
Cc1ccc(C(=O)CC(=O)c2c([O-])[nH]c(=O)c3ccccc23)cc1 (optimized conformer: 55.24971801273017 kcal/mol)

>  <smiles>  (81) 
Cc1ccc(C(=O)CC(=O)c2c(O)[nH]c(=O)c3ccccc23)cc1

>  <score_type>  (81) 
oracle

>  <origin>  (81) 
adg

>  <m_score__min__energy>  (81) 
-12.1

>  <m_primary>  (81) 
energy

$$$$
81:0
     RDKit          3D

 29 30  0  0  0  0  0  0  0  0999 V2000
   55.1440   27.5330   45.5350 H   0  0  0  0  0  0  0  0  0  0  0  0
   55.2460   26.6420   46.0050 O   0  0  0  0  0  0  0  0  0  0  0  0
   56.4420   25.9200   45.9860 C   0  0  0  0  0  0  0  0  0  0  0  0
   56.5220   24.7240   46.7060 C   0  0  0  0  0  0  0  0  0  0  0  0
   55.6509   24.3652   47.2738 H   0  0  0  0  0  0  0  0  0  0  0  0
   57.7060   23.9850   46.7050 C   0  0  0  0  0  0  0  0  0  0  0  0
   57.7741   23.0423   47.2677 H   0  0  0  0  0  0  0  0  0  0  0  0
   58.8020   24.4560   45.9820 C   0  0  0  0  0  0  0  0  0  0  0  0
   59.7417   23.8842   45.9729 H   0  0  0  0  0  0  0  0  0  0  0  0
   58.7090   25.6210   45.2890 N   0  0  0  0  0  0  0  0  0  0  0  0
   57.5660   26.3630   45.2610 C   0  0  0  0  0  0  0  0  0  0  0  0
   57.5030   27.4830   44.5980 N   0  0  0  0  0  0  0  0  0  0  0  0
   57.0960   28.7850   45.0600 C   0  0  0  0  0  0  0  0  0  0  0  0
   55.8650   29.0100   45.2000 O   0  0  0  0  0  0  0  0  0  0  0  0
   58.0660   29.9030   45.3390 C   0  0  0  0  0  0  0  0  0  0  0  0
   58.5457   29.7281   46.3133 H   0  0  0  0  0  0  0  0  0  0  0  0
   58.8182   29.9223   44.5366 H   0  0  0  0  0  0  0  0  0  0  0  0
   57.3990   31.1650   45.3670 O   0  0  0  0  0  0  0  0  0  0  0  0
   58.0030   32.3970   45.6640 C   0  0  0  0  0  0  0  0  0  0  0  0
   58.0610   33.3650   44.6530 C   0  0  0  0  0  0  0  0  0  0  0  0
   57.6417   33.1434   43.6605 H   0  0  0  0  0  0  0  0  0  0  0  0
   58.6480   34.6110   44.8960 C   0  0  0  0  0  0  0  0  0  0  0  0
   58.6878   35.3650   44.0961 H   0  0  0  0  0  0  0  0  0  0  0  0
   59.1840   34.8990   46.1540 C   0  0  0  0  0  0  0  0  0  0  0  0
   59.7520   36.1070   46.3890 F   0  0  0  0  0  0  0  0  0  0  0  0
   59.1340   33.9390   47.1690 C   0  0  0  0  0  0  0  0  0  0  0  0
   59.5569   34.1648   48.1590 H   0  0  0  0  0  0  0  0  0  0  0  0
   58.5480   32.6930   46.9290 C   0  0  0  0  0  0  0  0  0  0  0  0
   58.5122   31.9407   47.7307 H   0  0  0  0  0  0  0  0  0  0  0  0
  1  2  1  0
  2  3  1  0
  3  4  2  0
  4  5  1  0
  4  6  1  0
  6  7  1  0
  6  8  2  0
  8  9  1  0
  8 10  1  0
 10 11  1  0
 11 12  2  0
 12 13  1  0
 13 14  2  0
 13 15  1  0
 15 16  1  0
 15 17  1  0
 15 18  1  0
 18 19  1  0
 19 20  2  0
 20 21  1  0
 20 22  1  0
 22 23  1  0
 22 24  2  0
 24 25  1  0
 24 26  1  0
 26 27  1  0
 26 28  2  0
 28 29  1  0
 11  3  1  0
 28 19  1  0
M  CHG  1  10  -1
M  END
>  <UniqueID>  (82) 
75

>  <SMILES>  (82) 
O=C(COc1ccc(F)cc1)/N=c1\[n-]cccc1O

>  <Energy>  (82) 
34.991633729056986

>  <Genealogy>  (82) 
O=C(COc1ccc(F)cc1)N=c1[n-]cccc1O (protonated)
O=C(COc1ccc(F)cc1)/N=c1\[n-]cccc1O (cis-trans isomerization)
O=C(COc1ccc(F)cc1)/N=c1\[n-]cccc1O (3D coordinates assigned)
O=C(COc1ccc(F)cc1)/N=c1\[n-]cccc1O (optimized conformer: 34.991633729056986 kcal/mol)

>  <smiles>  (82) 
O=C(COc1ccc(F)cc1)N=c1[nH]cccc1O

>  <score_type>  (82) 
oracle

>  <origin>  (82) 
adg

>  <m_score__min__energy>  (82) 
-9.3300000000000001

>  <m_primary>  (82) 
energy

$$$$
82:0
     RDKit          3D

 47 50  0  0  0  0  0  0  0  0999 V2000
   59.6990   27.5390   46.9670 H   0  0  0  0  0  0  0  0  0  0  0  0
   59.4660   28.0780   47.7930 O   0  0  0  0  0  0  0  0  0  0  0  0
   60.1990   29.2050   48.1570 C   0  0  0  0  0  0  0  0  0  0  0  0
   60.2870   29.5980   49.4990 C   0  0  0  0  0  0  0  0  0  0  0  0
   59.7741   29.0128   50.2765 H   0  0  0  0  0  0  0  0  0  0  0  0
   61.0250   30.7320   49.8530 C   0  0  0  0  0  0  0  0  0  0  0  0
   61.1030   31.0281   50.9095 H   0  0  0  0  0  0  0  0  0  0  0  0
   61.6680   31.4950   48.8610 C   0  0  0  0  0  0  0  0  0  0  0  0
   62.4550   32.6500   49.1890 N   0  0  0  0  0  0  0  0  0  0  0  0
   62.3590   33.9270   48.5510 C   0  0  0  0  0  0  0  0  0  0  0  0
   63.4030   34.4680   48.1040 O   0  0  0  0  0  0  0  0  0  0  0  0
   61.0780   34.5340   48.3380 N   0  0  0  0  0  0  0  0  0  0  0  0
   59.9930   33.9750   47.5860 C   0  0  0  0  0  0  0  0  0  0  0  0
   60.0450   34.0250   46.1860 C   0  0  0  0  0  0  0  0  0  0  0  0
   60.8838   34.5335   45.6881 H   0  0  0  0  0  0  0  0  0  0  0  0
   59.0380   33.4330   45.4190 C   0  0  0  0  0  0  0  0  0  0  0  0
   59.0726   33.5035   44.3218 H   0  0  0  0  0  0  0  0  0  0  0  0
   57.9860   32.7510   46.0400 C   0  0  0  0  0  0  0  0  0  0  0  0
   57.0100   32.1300   45.2470 O   0  0  0  0  0  0  0  0  0  0  0  0
   57.1680   30.8740   44.6410 C   0  0  0  0  0  0  0  0  0  0  0  0
   56.4310   30.5720   43.4950 C   0  0  0  0  0  0  0  0  0  0  0  0
   55.7343   31.3117   43.0738 H   0  0  0  0  0  0  0  0  0  0  0  0
   56.5840   29.3250   42.8870 C   0  0  0  0  0  0  0  0  0  0  0  0
   56.0055   29.0796   41.9841 H   0  0  0  0  0  0  0  0  0  0  0  0
   57.4470   28.4130   43.4090 N   0  0  0  0  0  0  0  0  0  0  0  0
   58.1900   28.6680   44.5200 C   0  0  0  0  0  0  0  0  0  0  0  0
   59.0080   27.7470   44.9500 N   0  0  0  0  0  0  0  0  0  0  0  0
   58.6520   26.4680   45.4970 C   0  0  0  0  0  0  0  0  0  0  0  0
   59.5690   25.6850   45.8650 O   0  0  0  0  0  0  0  0  0  0  0  0
   57.2470   26.0240   45.5750 C   0  0  0  0  0  0  0  0  0  0  0  0
   56.1800   26.7250   46.1020 C   0  0  0  0  0  0  0  0  0  0  0  0
   56.2337   27.7328   46.5396 H   0  0  0  0  0  0  0  0  0  0  0  0
   55.0910   25.9980   45.9980 O   0  0  0  0  0  0  0  0  0  0  0  0
   55.3930   24.8530   45.4260 C   0  0  0  0  0  0  0  0  0  0  0  0
   54.6789   24.0436   45.2140 H   0  0  0  0  0  0  0  0  0  0  0  0
   56.7400   24.8200   45.1320 C   0  0  0  0  0  0  0  0  0  0  0  0
   57.2944   24.0038   44.6457 H   0  0  0  0  0  0  0  0  0  0  0  0
   58.0780   29.9290   45.1410 C   0  0  0  0  0  0  0  0  0  0  0  0
   58.7015   30.1715   46.0142 H   0  0  0  0  0  0  0  0  0  0  0  0
   57.9210   32.7160   47.4430 C   0  0  0  0  0  0  0  0  0  0  0  0
   57.0765   32.2153   47.9390 H   0  0  0  0  0  0  0  0  0  0  0  0
   58.9220   33.3130   48.2110 C   0  0  0  0  0  0  0  0  0  0  0  0
   58.8726   33.2653   49.3089 H   0  0  0  0  0  0  0  0  0  0  0  0
   61.5970   31.0820   47.5240 C   0  0  0  0  0  0  0  0  0  0  0  0
   62.1256   31.6531   46.7466 H   0  0  0  0  0  0  0  0  0  0  0  0
   60.8580   29.9480   47.1720 C   0  0  0  0  0  0  0  0  0  0  0  0
   60.7949   29.6396   46.1180 H   0  0  0  0  0  0  0  0  0  0  0  0
  1  2  1  0
  2  3  1  0
  3  4  2  0
  4  5  1  0
  4  6  1  0
  6  7  1  0
  6  8  2  0
  8  9  1  0
  9 10  1  0
 10 11  2  0
 10 12  1  0
 12 13  1  0
 13 14  2  0
 14 15  1  0
 14 16  1  0
 16 17  1  0
 16 18  2  0
 18 19  1  0
 19 20  1  0
 20 21  1  0
 21 22  1  0
 21 23  2  0
 23 24  1  0
 23 25  1  0
 25 26  1  0
 26 27  2  0
 27 28  1  0
 28 29  2  0
 28 30  1  0
 30 31  2  0
 31 32  1  0
 31 33  1  0
 33 34  1  0
 34 35  1  0
 34 36  2  0
 36 37  1  0
 26 38  1  0
 38 39  1  0
 18 40  1  0
 40 41  1  0
 40 42  2  0
 42 43  1  0
  8 44  1  0
 44 45  1  0
 44 46  2  0
 46 47  1  0
 46  3  1  0
 42 13  1  0
 38 20  2  0
 36 30  1  0
M  CHG  3   9  -1  12  -1  25  -1
M  END
>  <UniqueID>  (83) 
76

>  <SMILES>  (83) 
O=C([N-]c1ccc(O)cc1)[N-]c1ccc(Oc2cc[n-]/c(=N/C(=O)c3ccoc3)c2)cc1

>  <Energy>  (83) 
98.22390615349467

>  <Genealogy>  (83) 
O=C([N-]c1ccc(O)cc1)[N-]c1ccc(Oc2cc[n-]c(=NC(=O)c3ccoc3)c2)cc1 (protonated)
O=C([N-]c1ccc(O)cc1)[N-]c1ccc(Oc2cc[n-]/c(=N/C(=O)c3ccoc3)c2)cc1 (cis-trans isomerization)
O=C([N-]c1ccc(O)cc1)[N-]c1ccc(Oc2cc[n-]/c(=N/C(=O)c3ccoc3)c2)cc1 (3D coordinates assigned)
O=C([N-]c1ccc(O)cc1)[N-]c1ccc(Oc2cc[n-]/c(=N/C(=O)c3ccoc3)c2)cc1 (optimized conformer: 98.22390615349467 kcal/mol)

>  <smiles>  (83) 
O=C(Nc1ccc(O)cc1)Nc1ccc(Oc2cc[nH]c(=NC(=O)c3ccoc3)c2)cc1

>  <score_type>  (83) 
oracle

>  <origin>  (83) 
adg

>  <m_score__min__energy>  (83) 
-13.5

>  <m_primary>  (83) 
energy

$$$$
83:0
     RDKit          3D

 40 41  0  0  0  0  0  0  0  0999 V2000
   59.5350   34.8640   45.9650 C   0  0  0  0  0  0  0  0  0  0  0  0
   58.9630   33.6870   45.1840 C   0  0  0  0  0  0  0  0  0  0  0  0
   58.0550   32.5890   46.2560 S   0  0  0  0  0  0  0  0  0  0  0  0
   57.4010   31.5150   45.4330 O   0  0  0  0  0  0  0  0  0  0  0  0
   57.0070   33.3800   46.9870 O   0  0  0  0  0  0  0  0  0  0  0  0
   59.1470   31.8720   47.3970 N   0  0  0  0  0  0  0  0  0  0  0  0
   58.7930   31.4260   48.7120 C   0  0  0  0  0  0  0  0  0  0  0  0
   58.9760   30.0940   49.1250 C   0  0  0  0  0  0  0  0  0  0  0  0
   58.6180   29.7030   50.4180 C   0  0  0  0  0  0  0  0  0  0  0  0
   58.0930   30.6330   51.3230 C   0  0  0  0  0  0  0  0  0  0  0  0
   57.7310   30.1890   52.6380 N   0  0  0  0  0  0  0  0  0  0  0  0
   56.4300   29.7510   53.0470 C   0  0  0  0  0  0  0  0  0  0  0  0
   56.2360   29.4470   54.2540 O   0  0  0  0  0  0  0  0  0  0  0  0
   55.3470   29.7160   52.1140 N   0  0  0  0  0  0  0  0  0  0  0  0
   53.9470   29.7810   52.5130 C   0  0  0  0  0  0  0  0  0  0  0  0
   53.3840   31.1720   52.2290 C   0  0  0  0  0  0  0  0  0  0  0  0
   52.4560   31.1570   51.0490 C   0  0  0  0  0  0  0  0  0  0  0  0
   52.4390   30.2270   50.0330 C   0  0  0  0  0  0  0  0  0  0  0  0
   51.3700   30.5820   49.2310 C   0  0  0  0  0  0  0  0  0  0  0  0
   50.9850   29.9090   48.0760 O   0  0  0  0  0  0  0  0  0  0  0  0
   50.7200   31.6670   49.6980 N   0  0  0  0  0  0  0  0  0  0  0  0
   51.3920   32.0060   50.8150 C   0  0  0  0  0  0  0  0  0  0  0  0
   51.0340   33.0790   51.6210 O   0  0  0  0  0  0  0  0  0  0  0  0
   57.8820   31.9560   50.9010 C   0  0  0  0  0  0  0  0  0  0  0  0
   58.2390   32.3480   49.6060 C   0  0  0  0  0  0  0  0  0  0  0  0
   59.4403   34.6692   47.0435 H   0  0  0  0  0  0  0  0  0  0  0  0
   60.5966   34.9936   45.7076 H   0  0  0  0  0  0  0  0  0  0  0  0
   58.9810   35.7788   45.7076 H   0  0  0  0  0  0  0  0  0  0  0  0
   58.2877   34.0674   44.4035 H   0  0  0  0  0  0  0  0  0  0  0  0
   59.7961   33.1273   44.7338 H   0  0  0  0  0  0  0  0  0  0  0  0
   59.4023   29.3576   48.4279 H   0  0  0  0  0  0  0  0  0  0  0  0
   58.7499   28.6556   50.7272 H   0  0  0  0  0  0  0  0  0  0  0  0
   53.3723   29.0334   51.9467 H   0  0  0  0  0  0  0  0  0  0  0  0
   53.8700   29.5748   53.5907 H   0  0  0  0  0  0  0  0  0  0  0  0
   52.8322   31.5222   53.1138 H   0  0  0  0  0  0  0  0  0  0  0  0
   54.2234   31.8452   52.0007 H   0  0  0  0  0  0  0  0  0  0  0  0
   53.1287   29.3821   49.8901 H   0  0  0  0  0  0  0  0  0  0  0  0
   50.0060   29.7750   47.8550 H   0  0  0  0  0  0  0  0  0  0  0  0
   57.4345   32.6866   51.5910 H   0  0  0  0  0  0  0  0  0  0  0  0
   58.0827   33.3895   49.2886 H   0  0  0  0  0  0  0  0  0  0  0  0
  1  2  1  0
  2  3  1  0
  3  4  2  0
  3  5  2  0
  3  6  1  0
  6  7  1  0
  7  8  2  0
  8  9  1  0
  9 10  2  0
 10 11  1  0
 11 12  1  0
 12 13  2  0
 12 14  1  0
 14 15  1  0
 15 16  1  0
 16 17  1  0
 17 18  1  0
 18 19  2  0
 19 20  1  0
 19 21  1  0
 21 22  1  0
 22 23  1  0
 10 24  1  0
 24 25  2  0
 25  7  1  0
 22 17  2  0
  1 26  1  0
  1 27  1  0
  1 28  1  0
  2 29  1  0
  2 30  1  0
  8 31  1  0
  9 32  1  0
 15 33  1  0
 15 34  1  0
 16 35  1  0
 16 36  1  0
 18 37  1  0
 20 38  1  0
 24 39  1  0
 25 40  1  0
M  CHG  5   6  -1  11  -1  14  -1  21  -1  23  -1
M  END
>  <UniqueID>  (84) 
77

>  <SMILES>  (84) 
CCS(=O)(=O)[N-]c1ccc([N-]C(=O)[N-]CCc2cc(O)[n-]c2[O-])cc1

>  <Energy>  (84) 
58.932318024758

>  <Genealogy>  (84) 
CCS(=O)(=O)[N-]c1ccc([N-]C(=O)[N-]CCc2cc(O)[n-]c2[O-])cc1 (protonated)
CCS(=O)(=O)[N-]c1ccc([N-]C(=O)[N-]CCc2cc(O)[n-]c2[O-])cc1 (3D coordinates assigned)
CCS(=O)(=O)[N-]c1ccc([N-]C(=O)[N-]CCc2cc(O)[n-]c2[O-])cc1 (optimized conformer: 58.932318024758 kcal/mol)

>  <smiles>  (84) 
CCS(=O)(=O)Nc1ccc(NC(=O)NCCc2cc(O)[nH]c2O)cc1

>  <score_type>  (84) 
oracle

>  <origin>  (84) 
adg

>  <m_score__min__energy>  (84) 
-17.440000000000001

>  <m_primary>  (84) 
energy

$$$$
84:0
     RDKit          3D

 47 50  0  0  0  0  0  0  0  0999 V2000
   66.7720   31.6220   51.9180 C   0  0  0  0  0  0  0  0  0  0  0  0
   65.6020   31.9070   51.0240 C   0  0  0  0  0  0  0  0  0  0  0  0
   64.3020   31.5800   51.4220 C   0  0  0  0  0  0  0  0  0  0  0  0
   63.2280   31.8170   50.5650 C   0  0  0  0  0  0  0  0  0  0  0  0
   63.4580   32.3740   49.2930 C   0  0  0  0  0  0  0  0  0  0  0  0
   62.3570   32.6230   48.3900 N   0  0  0  0  0  0  0  0  0  0  0  0
   62.0120   33.9460   47.8490 C   0  0  0  0  0  0  0  0  0  0  0  0
   60.8250   33.6690   47.0050 C   0  0  0  0  0  0  0  0  0  0  0  0
   60.0590   34.5590   46.2590 C   0  0  0  0  0  0  0  0  0  0  0  0
   58.9590   34.0540   45.5510 C   0  0  0  0  0  0  0  0  0  0  0  0
   58.6590   32.6730   45.6160 C   0  0  0  0  0  0  0  0  0  0  0  0
   57.4810   32.1080   44.8700 C   0  0  0  0  0  0  0  0  0  0  0  0
   57.8260   30.8210   44.2250 N   0  0  0  0  0  0  0  0  0  0  0  0
   57.9590   29.7110   45.2040 C   0  0  0  0  0  0  0  0  0  0  0  0
   56.7960   28.6970   45.1500 C   0  0  0  0  0  0  0  0  0  0  0  0
   55.5200   29.3650   44.8790 N   0  0  0  0  0  0  0  0  0  0  0  0
   55.5200   30.0590   43.5780 C   0  0  0  0  0  0  0  0  0  0  0  0
   56.9280   30.4760   43.1010 C   0  0  0  0  0  0  0  0  0  0  0  0
   59.4370   31.8420   46.3700 N   0  0  0  0  0  0  0  0  0  0  0  0
   60.5030   32.3390   47.0470 C   0  0  0  0  0  0  0  0  0  0  0  0
   61.4380   31.5840   47.9090 C   0  0  0  0  0  0  0  0  0  0  0  0
   64.7410   32.6720   48.9220 N   0  0  0  0  0  0  0  0  0  0  0  0
   65.8000   32.4450   49.7480 C   0  0  0  0  0  0  0  0  0  0  0  0
   66.4574   31.6986   52.9693 H   0  0  0  0  0  0  0  0  0  0  0  0
   67.1458   30.6065   51.7202 H   0  0  0  0  0  0  0  0  0  0  0  0
   67.5709   32.3518   51.7202 H   0  0  0  0  0  0  0  0  0  0  0  0
   64.1264   31.1352   52.4126 H   0  0  0  0  0  0  0  0  0  0  0  0
   62.2042   31.5694   50.8820 H   0  0  0  0  0  0  0  0  0  0  0  0
   61.7655   34.6504   48.6571 H   0  0  0  0  0  0  0  0  0  0  0  0
   62.8377   34.4124   47.2916 H   0  0  0  0  0  0  0  0  0  0  0  0
   60.3094   35.6296   46.2255 H   0  0  0  0  0  0  0  0  0  0  0  0
   58.3327   34.7281   44.9482 H   0  0  0  0  0  0  0  0  0  0  0  0
   56.6531   31.9455   45.5758 H   0  0  0  0  0  0  0  0  0  0  0  0
   57.1873   32.8232   44.0876 H   0  0  0  0  0  0  0  0  0  0  0  0
   58.8973   29.1754   44.9972 H   0  0  0  0  0  0  0  0  0  0  0  0
   57.9474   30.1623   46.2071 H   0  0  0  0  0  0  0  0  0  0  0  0
   56.9945   27.9661   44.3523 H   0  0  0  0  0  0  0  0  0  0  0  0
   56.7256   28.1967   46.1271 H   0  0  0  0  0  0  0  0  0  0  0  0
   55.3400   30.0580   45.6440 H   0  0  0  0  0  0  0  0  0  0  0  0
   55.0825   29.3869   42.8251 H   0  0  0  0  0  0  0  0  0  0  0  0
   54.9352   30.9821   43.7043 H   0  0  0  0  0  0  0  0  0  0  0  0
   57.3716   29.6416   42.5380 H   0  0  0  0  0  0  0  0  0  0  0  0
   56.8172   31.3726   42.4734 H   0  0  0  0  0  0  0  0  0  0  0  0
   60.9068   31.1078   48.7463 H   0  0  0  0  0  0  0  0  0  0  0  0
   61.9483   30.7648   47.3812 H   0  0  0  0  0  0  0  0  0  0  0  0
   64.9400   33.0850   47.9840 H   0  0  0  0  0  0  0  0  0  0  0  0
   66.8183   32.6865   49.4092 H   0  0  0  0  0  0  0  0  0  0  0  0
  1  2  1  0
  2  3  2  0
  3  4  1  0
  4  5  2  0
  5  6  1  0
  6  7  1  0
  7  8  1  0
  8  9  2  0
  9 10  1  0
 10 11  2  0
 11 12  1  0
 12 13  1  0
 13 14  1  0
 14 15  1  0
 15 16  1  0
 16 17  1  0
 17 18  1  0
 11 19  1  0
 19 20  2  0
 20 21  1  0
  5 22  1  0
 22 23  2  0
 23  2  1  0
 21  6  1  0
 20  8  1  0
 18 13  1  0
  1 24  1  0
  1 25  1  0
  1 26  1  0
  3 27  1  0
  4 28  1  0
  7 29  1  0
  7 30  1  0
  9 31  1  0
 10 32  1  0
 12 33  1  0
 12 34  1  0
 14 35  1  0
 14 36  1  0
 15 37  1  0
 15 38  1  0
 16 39  1  0
 17 40  1  0
 17 41  1  0
 18 42  1  0
 18 43  1  0
 21 44  1  0
 21 45  1  0
 22 46  1  0
 23 47  1  0
M  CHG  1  22   1
M  END
>  <UniqueID>  (85) 
78

>  <SMILES>  (85) 
Cc1ccc(N2Cc3ccc(CN4CCNCC4)nc3C2)[nH+]c1

>  <Energy>  (85) 
72.79077379546138

>  <Genealogy>  (85) 
Cc1ccc(N2Cc3ccc(CN4CCNCC4)nc3C2)[nH+]c1 (protonated)
Cc1ccc(N2Cc3ccc(CN4CCNCC4)nc3C2)[nH+]c1 (3D coordinates assigned)
Cc1ccc(N2Cc3ccc(CN4CCNCC4)nc3C2)[nH+]c1 (nonaromatic ring conformer: 72.79077379546138 kcal/mol)

>  <smiles>  (85) 
Cc1ccc(N2Cc3ccc(CN4CCNCC4)nc3C2)nc1

>  <score_type>  (85) 
oracle

>  <origin>  (85) 
adg

>  <m_score__min__energy>  (85) 
-7.1200000000000001

>  <m_primary>  (85) 
energy

$$$$
85:0
     RDKit          3D

 11 10  0  0  0  0  0  0  0  0999 V2000
   57.7760   28.7980   44.9820 C   0  0  0  0  0  0  0  0  0  0  0  0
   56.4740   29.8480   44.3760 S   0  0  0  0  0  0  0  0  0  0  0  0
   56.4830   29.8420   42.5980 C   0  0  0  0  0  0  0  0  0  0  0  0
   56.6890   31.2490   44.8730 O   0  0  0  0  0  0  0  0  0  0  0  0
   55.1490   29.3400   44.8720 O   0  0  0  0  0  0  0  0  0  0  0  0
   57.7694   28.8034   46.0820 H   0  0  0  0  0  0  0  0  0  0  0  0
   57.6180   27.7716   44.6194 H   0  0  0  0  0  0  0  0  0  0  0  0
   58.7457   29.1698   44.6194 H   0  0  0  0  0  0  0  0  0  0  0  0
   57.3478   29.2656   42.2377 H   0  0  0  0  0  0  0  0  0  0  0  0
   55.5553   29.3810   42.2282 H   0  0  0  0  0  0  0  0  0  0  0  0
   56.5515   30.8757   42.2282 H   0  0  0  0  0  0  0  0  0  0  0  0
  1  2  1  0
  2  3  1  0
  2  4  2  0
  2  5  2  0
  1  6  1  0
  1  7  1  0
  1  8  1  0
  3  9  1  0
  3 10  1  0
  3 11  1  0
M  END
>  <UniqueID>  (86) 
79

>  <SMILES>  (86) 
CS(C)(=O)=O

>  <Energy>  (86) 
-0.8800634052124952

>  <Genealogy>  (86) 
CS(C)(=O)=O (3D coordinates assigned)
CS(C)(=O)=O (optimized conformer: -0.8800634052124952 kcal/mol)

>  <smiles>  (86) 
CS(C)(=O)=O

>  <score_type>  (86) 
oracle

>  <origin>  (86) 
adg

>  <m_score__min__energy>  (86) 
-3.8599999999999999

>  <m_primary>  (86) 
energy

$$$$
86:0
     RDKit          3D

 43 45  0  0  0  0  0  0  0  0999 V2000
   55.5160   26.6390   46.0940 O   0  0  0  0  0  0  0  0  0  0  0  0
   56.7580   26.8200   45.9750 C   0  0  0  0  0  0  0  0  0  0  0  0
   57.6280   25.6310   45.9650 C   0  0  0  0  0  0  0  0  0  0  0  0
   57.2030   24.4150   45.5950 C   0  0  0  0  0  0  0  0  0  0  0  0
   56.0080   23.7440   46.1580 C   0  0  0  0  0  0  0  0  0  0  0  0
   55.8420   23.6390   47.5520 C   0  0  0  0  0  0  0  0  0  0  0  0
   54.7010   23.0340   48.0860 C   0  0  0  0  0  0  0  0  0  0  0  0
   53.7080   22.5400   47.2380 C   0  0  0  0  0  0  0  0  0  0  0  0
   52.2780   21.7800   47.9120 Cl  0  0  0  0  0  0  0  0  0  0  0  0
   53.8500   22.6590   45.8530 C   0  0  0  0  0  0  0  0  0  0  0  0
   54.9890   23.2660   45.3080 C   0  0  0  0  0  0  0  0  0  0  0  0
   55.1240   23.3800   43.5560 Cl  0  0  0  0  0  0  0  0  0  0  0  0
   57.2980   28.2020   45.7960 C   0  0  0  0  0  0  0  0  0  0  0  0
   56.4870   29.2120   45.2500 C   0  0  0  0  0  0  0  0  0  0  0  0
   55.1620   28.9650   44.9050 O   0  0  0  0  0  0  0  0  0  0  0  0
   56.9960   30.4440   45.0280 N   0  0  0  0  0  0  0  0  0  0  0  0
   58.2860   30.7460   45.3070 C   0  0  0  0  0  0  0  0  0  0  0  0
   58.7040   31.9080   45.0550 O   0  0  0  0  0  0  0  0  0  0  0  0
   59.1190   29.7980   45.8440 N   0  0  0  0  0  0  0  0  0  0  0  0
   60.5470   30.1040   46.0810 C   0  0  0  0  0  0  0  0  0  0  0  0
   60.7620   30.7570   47.4560 C   0  0  0  0  0  0  0  0  0  0  0  0
   60.3910   32.2180   47.4480 C   0  0  0  0  0  0  0  0  0  0  0  0
   61.1020   33.1240   46.6410 C   0  0  0  0  0  0  0  0  0  0  0  0
   60.7190   34.4670   46.5850 C   0  0  0  0  0  0  0  0  0  0  0  0
   59.6270   34.9150   47.3320 C   0  0  0  0  0  0  0  0  0  0  0  0
   58.9130   34.0200   48.1340 C   0  0  0  0  0  0  0  0  0  0  0  0
   59.2900   32.6740   48.1900 C   0  0  0  0  0  0  0  0  0  0  0  0
   58.6360   28.5370   46.1070 C   0  0  0  0  0  0  0  0  0  0  0  0
   59.3930   27.6790   46.6350 O   0  0  0  0  0  0  0  0  0  0  0  0
   58.6767   25.7469   46.2761 H   0  0  0  0  0  0  0  0  0  0  0  0
   57.7781   23.8811   44.8242 H   0  0  0  0  0  0  0  0  0  0  0  0
   56.6158   24.0359   48.2256 H   0  0  0  0  0  0  0  0  0  0  0  0
   54.5851   22.9469   49.1764 H   0  0  0  0  0  0  0  0  0  0  0  0
   53.0635   22.2741   45.1872 H   0  0  0  0  0  0  0  0  0  0  0  0
   61.1254   29.1695   46.0346 H   0  0  0  0  0  0  0  0  0  0  0  0
   60.8819   30.8103   45.3071 H   0  0  0  0  0  0  0  0  0  0  0  0
   60.1396   30.2360   48.1985 H   0  0  0  0  0  0  0  0  0  0  0  0
   61.8298   30.6776   47.7082 H   0  0  0  0  0  0  0  0  0  0  0  0
   61.9626   32.7745   46.0518 H   0  0  0  0  0  0  0  0  0  0  0  0
   61.2781   35.1719   45.9521 H   0  0  0  0  0  0  0  0  0  0  0  0
   59.3287   35.9729   47.2891 H   0  0  0  0  0  0  0  0  0  0  0  0
   58.0535   34.3746   48.7219 H   0  0  0  0  0  0  0  0  0  0  0  0
   58.7222   31.9710   48.8172 H   0  0  0  0  0  0  0  0  0  0  0  0
  1  2  2  0
  2  3  1  0
  3  4  2  3
  4  5  1  0
  5  6  2  0
  6  7  1  0
  7  8  2  0
  8  9  1  0
  8 10  1  0
 10 11  2  0
 11 12  1  0
  2 13  1  0
 13 14  2  0
 14 15  1  0
 14 16  1  0
 16 17  1  0
 17 18  2  0
 17 19  1  0
 19 20  1  0
 20 21  1  0
 21 22  1  0
 22 23  2  0
 23 24  1  0
 24 25  2  0
 25 26  1  0
 26 27  2  0
 19 28  1  0
 28 29  2  0
 11  5  1  0
 28 13  1  0
 27 22  1  0
  3 30  1  0
  4 31  1  0
  6 32  1  0
  7 33  1  0
 10 34  1  0
 20 35  1  0
 20 36  1  0
 21 37  1  0
 21 38  1  0
 23 39  1  0
 24 40  1  0
 25 41  1  0
 26 42  1  0
 27 43  1  0
M  CHG  2  15  -1  16  -1
M  END
>  <UniqueID>  (87) 
80

>  <SMILES>  (87) 
O=C(C=Cc1ccc(Cl)cc1Cl)c1c([O-])[n-]c(=O)n(CCc2ccccc2)c1=O

>  <Energy>  (87) 
64.39143031597048

>  <Genealogy>  (87) 
O=C(C=Cc1ccc(Cl)cc1Cl)c1c([O-])[n-]c(=O)n(CCc2ccccc2)c1=O (protonated)
O=C(C=Cc1ccc(Cl)cc1Cl)c1c([O-])[n-]c(=O)n(CCc2ccccc2)c1=O (3D coordinates assigned)
O=C(C=Cc1ccc(Cl)cc1Cl)c1c([O-])[n-]c(=O)n(CCc2ccccc2)c1=O (optimized conformer: 64.39143031597048 kcal/mol)

>  <smiles>  (87) 
O=C(C=Cc1ccc(Cl)cc1Cl)c1c(O)[nH]c(=O)n(CCc2ccccc2)c1=O

>  <score_type>  (87) 
oracle

>  <origin>  (87) 
adg

>  <m_score__min__energy>  (87) 
-13.52

>  <m_primary>  (87) 
energy

$$$$
87:0
     RDKit          3D

 37 39  0  0  0  0  0  0  0  0999 V2000
   57.0771   34.6658   46.8355 H   0  0  0  0  0  0  0  0  0  0  0  0
   57.4060   34.0370   45.9950 C   0  0  0  0  0  0  0  0  0  0  0  0
   56.7590   32.8740   45.7230 N   0  0  0  0  0  0  0  0  0  0  0  0
   57.1330   32.0600   44.6940 C   0  0  0  0  0  0  0  0  0  0  0  0
   56.4940   30.9540   44.4370 N   0  0  0  0  0  0  0  0  0  0  0  0
   56.7280   29.6650   45.0280 C   0  0  0  0  0  0  0  0  0  0  0  0
   55.7640   28.8610   45.1310 O   0  0  0  0  0  0  0  0  0  0  0  0
   58.0680   29.2360   45.4900 C   0  0  0  0  0  0  0  0  0  0  0  0
   58.7970   28.2660   44.7870 C   0  0  0  0  0  0  0  0  0  0  0  0
   58.1460   27.4490   43.3690 Cl  0  0  0  0  0  0  0  0  0  0  0  0
   60.0670   27.9180   45.2370 C   0  0  0  0  0  0  0  0  0  0  0  0
   60.6525   27.1586   44.6980 H   0  0  0  0  0  0  0  0  0  0  0  0
   60.5830   28.5150   46.3400 N   0  0  0  0  0  0  0  0  0  0  0  0
   61.5460   28.2390   46.6380 H   0  0  0  0  0  0  0  0  0  0  0  0
   59.8970   29.4320   47.0360 N   0  0  0  0  0  0  0  0  0  0  0  0
   60.5460   30.0830   48.1850 C   0  0  0  0  0  0  0  0  0  0  0  0
   59.7785   30.3914   48.9101 H   0  0  0  0  0  0  0  0  0  0  0  0
   61.2414   29.3729   48.6565 H   0  0  0  0  0  0  0  0  0  0  0  0
   61.3130   31.2940   47.7260 C   0  0  0  0  0  0  0  0  0  0  0  0
   60.6350   32.4590   47.3290 C   0  0  0  0  0  0  0  0  0  0  0  0
   59.5375   32.5019   47.3889 H   0  0  0  0  0  0  0  0  0  0  0  0
   61.3510   33.5640   46.8580 C   0  0  0  0  0  0  0  0  0  0  0  0
   60.8158   34.4753   46.5530 H   0  0  0  0  0  0  0  0  0  0  0  0
   62.7450   33.5130   46.7740 C   0  0  0  0  0  0  0  0  0  0  0  0
   63.4380   34.5840   46.3150 F   0  0  0  0  0  0  0  0  0  0  0  0
   63.4260   32.3540   47.1600 C   0  0  0  0  0  0  0  0  0  0  0  0
   64.5231   32.3129   47.0924 H   0  0  0  0  0  0  0  0  0  0  0  0
   62.7130   31.2470   47.6320 C   0  0  0  0  0  0  0  0  0  0  0  0
   63.2516   30.3356   47.9308 H   0  0  0  0  0  0  0  0  0  0  0  0
   58.6400   29.8100   46.6370 C   0  0  0  0  0  0  0  0  0  0  0  0
   58.0010   30.6870   47.2830 O   0  0  0  0  0  0  0  0  0  0  0  0
   58.2090   32.4340   43.8780 C   0  0  0  0  0  0  0  0  0  0  0  0
   58.5162   31.7948   43.0372 H   0  0  0  0  0  0  0  0  0  0  0  0
   58.8880   33.6260   44.1420 C   0  0  0  0  0  0  0  0  0  0  0  0
   59.7368   33.9276   43.5107 H   0  0  0  0  0  0  0  0  0  0  0  0
   58.4880   34.4340   45.2080 C   0  0  0  0  0  0  0  0  0  0  0  0
   59.0194   35.3724   45.4250 H   0  0  0  0  0  0  0  0  0  0  0  0
  1  2  1  0
  2  3  1  0
  3  4  1  0
  4  5  2  0
  5  6  1  0
  6  7  2  0
  6  8  1  0
  8  9  2  0
  9 10  1  0
  9 11  1  0
 11 12  1  0
 11 13  2  0
 13 14  1  0
 13 15  1  0
 15 16  1  0
 16 17  1  0
 16 18  1  0
 16 19  1  0
 19 20  2  0
 20 21  1  0
 20 22  1  0
 22 23  1  0
 22 24  2  0
 24 25  1  0
 24 26  1  0
 26 27  1  0
 26 28  2  0
 28 29  1  0
 15 30  1  0
 30 31  2  0
  4 32  1  0
 32 33  1  0
 32 34  2  0
 34 35  1  0
 34 36  1  0
 36 37  1  0
 36  2  2  0
 30  8  1  0
 28 19  1  0
M  CHG  2   3  -1  13   1
M  END
>  <UniqueID>  (88) 
81

>  <SMILES>  (88) 
O=C(/N=c1/cccc[n-]1)c1c(Cl)c[nH+]n(Cc2ccc(F)cc2)c1=O

>  <Energy>  (88) 
52.31644100504976

>  <Genealogy>  (88) 
O=C(N=c1cccc[n-]1)c1c(Cl)c[nH+]n(Cc2ccc(F)cc2)c1=O (protonated)
O=C(/N=c1/cccc[n-]1)c1c(Cl)c[nH+]n(Cc2ccc(F)cc2)c1=O (cis-trans isomerization)
O=C(/N=c1/cccc[n-]1)c1c(Cl)c[nH+]n(Cc2ccc(F)cc2)c1=O (3D coordinates assigned)
O=C(/N=c1/cccc[n-]1)c1c(Cl)c[nH+]n(Cc2ccc(F)cc2)c1=O (optimized conformer: 52.31644100504976 kcal/mol)

>  <smiles>  (88) 
O=C(N=c1cccc[nH]1)c1c(Cl)cnn(Cc2ccc(F)cc2)c1=O

>  <score_type>  (88) 
oracle

>  <origin>  (88) 
adg

>  <m_score__min__energy>  (88) 
-8.7799999999999994

>  <m_primary>  (88) 
energy

$$$$
88:0
     RDKit          3D

 38 39  0  0  0  0  0  0  0  0999 V2000
   57.9580   33.8150   44.5240 C   0  0  0  0  0  0  0  0  0  0  0  0
   57.7090   32.7440   45.5540 C   0  0  0  0  0  0  0  0  0  0  0  0
   57.7990   33.0830   47.0240 C   0  0  0  0  0  0  0  0  0  0  0  0
   57.4090   31.4960   45.1340 C   0  0  0  0  0  0  0  0  0  0  0  0
   58.4590   30.4640   44.8020 C   0  0  0  0  0  0  0  0  0  0  0  0
   58.3530   29.2780   45.7280 C   0  0  0  0  0  0  0  0  0  0  0  0
   57.7440   28.0950   45.2780 C   0  0  0  0  0  0  0  0  0  0  0  0
   57.6670   26.9650   46.1100 C   0  0  0  0  0  0  0  0  0  0  0  0
   57.0070   25.7270   45.6300 C   0  0  0  0  0  0  0  0  0  0  0  0
   57.7890   24.6550   45.1720 C   0  0  0  0  0  0  0  0  0  0  0  0
   57.1970   23.4670   44.6990 C   0  0  0  0  0  0  0  0  0  0  0  0
   58.0690   22.3790   44.1940 C   0  0  0  0  0  0  0  0  0  0  0  0
   57.6420   21.5490   43.3480 O   0  0  0  0  0  0  0  0  0  0  0  0
   55.7830   23.3590   44.7040 C   0  0  0  0  0  0  0  0  0  0  0  0
   55.1070   22.2130   44.2800 O   0  0  0  0  0  0  0  0  0  0  0  0
   55.0090   24.4300   45.1600 C   0  0  0  0  0  0  0  0  0  0  0  0
   55.6060   25.6030   45.6270 C   0  0  0  0  0  0  0  0  0  0  0  0
   54.7980   26.6290   46.1060 O   0  0  0  0  0  0  0  0  0  0  0  0
   58.2060   27.0320   47.4060 C   0  0  0  0  0  0  0  0  0  0  0  0
   58.8270   28.2000   47.8530 C   0  0  0  0  0  0  0  0  0  0  0  0
   58.9090   29.3180   47.0200 C   0  0  0  0  0  0  0  0  0  0  0  0
   59.5480   30.4650   47.4820 O   0  0  0  0  0  0  0  0  0  0  0  0
   58.1792   34.7662   45.0302 H   0  0  0  0  0  0  0  0  0  0  0  0
   58.8131   33.5270   43.8949 H   0  0  0  0  0  0  0  0  0  0  0  0
   57.0635   33.9337   43.8949 H   0  0  0  0  0  0  0  0  0  0  0  0
   57.5620   32.1903   47.6213 H   0  0  0  0  0  0  0  0  0  0  0  0
   58.8183   33.4223   47.2603 H   0  0  0  0  0  0  0  0  0  0  0  0
   57.0822   33.8832   47.2603 H   0  0  0  0  0  0  0  0  0  0  0  0
   56.3497   31.2187   45.0290 H   0  0  0  0  0  0  0  0  0  0  0  0
   58.3177   30.1260   43.7648 H   0  0  0  0  0  0  0  0  0  0  0  0
   59.4530   30.9194   44.9232 H   0  0  0  0  0  0  0  0  0  0  0  0
   57.3225   28.0525   44.2628 H   0  0  0  0  0  0  0  0  0  0  0  0
   58.8853   24.7441   45.1826 H   0  0  0  0  0  0  0  0  0  0  0  0
   59.1019   22.2956   44.5629 H   0  0  0  0  0  0  0  0  0  0  0  0
   55.5280   21.4690   43.7430 H   0  0  0  0  0  0  0  0  0  0  0  0
   53.9121   24.3476   45.1509 H   0  0  0  0  0  0  0  0  0  0  0  0
   58.1383   26.1593   48.0722 H   0  0  0  0  0  0  0  0  0  0  0  0
   59.2537   28.2398   48.8661 H   0  0  0  0  0  0  0  0  0  0  0  0
  1  2  1  0
  2  3  1  0
  2  4  2  3
  4  5  1  0
  5  6  1  0
  6  7  2  0
  7  8  1  0
  8  9  1  0
  9 10  2  0
 10 11  1  0
 11 12  1  0
 12 13  2  0
 11 14  2  0
 14 15  1  0
 14 16  1  0
 16 17  2  0
 17 18  1  0
  8 19  2  0
 19 20  1  0
 20 21  2  0
 21 22  1  0
 21  6  1  0
 17  9  1  0
  1 23  1  0
  1 24  1  0
  1 25  1  0
  3 26  1  0
  3 27  1  0
  3 28  1  0
  4 29  1  0
  5 30  1  0
  5 31  1  0
  7 32  1  0
 10 33  1  0
 12 34  1  0
 15 35  1  0
 16 36  1  0
 19 37  1  0
 20 38  1  0
M  CHG  2  18  -1  22  -1
M  END
>  <UniqueID>  (89) 
82

>  <SMILES>  (89) 
CC(C)=CCc1cc(-c2cc(C=O)c(O)cc2[O-])ccc1[O-]

>  <Energy>  (89) 
43.357143665394496

>  <Genealogy>  (89) 
CC(C)=CCc1cc(-c2cc(C=O)c(O)cc2[O-])ccc1[O-] (protonated)
CC(C)=CCc1cc(-c2cc(C=O)c(O)cc2[O-])ccc1[O-] (3D coordinates assigned)
CC(C)=CCc1cc(-c2cc(C=O)c(O)cc2[O-])ccc1[O-] (optimized conformer: 43.357143665394496 kcal/mol)

>  <smiles>  (89) 
CC(C)=CCc1cc(-c2cc(C=O)c(O)cc2O)ccc1O

>  <score_type>  (89) 
oracle

>  <origin>  (89) 
adg

>  <m_score__min__energy>  (89) 
-11.41

>  <m_primary>  (89) 
energy

$$$$
89:0
     RDKit          3D

 39 40  0  0  0  0  0  0  0  0999 V2000
   59.2280   35.1200   44.8770 C   0  0  0  0  0  0  0  0  0  0  0  0
   58.1280   34.2440   45.0960 O   0  0  0  0  0  0  0  0  0  0  0  0
   58.2310   32.8530   45.2520 C   0  0  0  0  0  0  0  0  0  0  0  0
   57.2670   31.9770   44.7150 C   0  0  0  0  0  0  0  0  0  0  0  0
   57.3980   30.5920   44.8700 C   0  0  0  0  0  0  0  0  0  0  0  0
   56.3340   29.6960   44.3940 C   0  0  0  0  0  0  0  0  0  0  0  0
   55.8720   29.8540   43.2330 O   0  0  0  0  0  0  0  0  0  0  0  0
   55.7870   28.6630   45.2230 N   0  0  0  0  0  0  0  0  0  0  0  0
   56.6260   27.2250   45.7140 S   0  0  0  0  0  0  0  0  0  0  0  0
   57.7760   26.6900   44.4590 C   0  0  0  0  0  0  0  0  0  0  0  0
   55.6410   26.1280   46.0070 O   0  0  0  0  0  0  0  0  0  0  0  0
   57.4040   27.5290   46.9630 O   0  0  0  0  0  0  0  0  0  0  0  0
   58.5370   30.0700   45.4920 C   0  0  0  0  0  0  0  0  0  0  0  0
   59.5000   30.9260   46.0280 C   0  0  0  0  0  0  0  0  0  0  0  0
   60.8830   30.2400   46.8670 Cl  0  0  0  0  0  0  0  0  0  0  0  0
   59.3310   32.3170   45.9550 C   0  0  0  0  0  0  0  0  0  0  0  0
   60.2610   33.1340   46.6190 O   0  0  0  0  0  0  0  0  0  0  0  0
   60.2870   33.3360   48.0330 C   0  0  0  0  0  0  0  0  0  0  0  0
   61.7060   33.3220   48.5430 C   0  0  0  0  0  0  0  0  0  0  0  0
   62.7750   33.0350   47.6780 C   0  0  0  0  0  0  0  0  0  0  0  0
   64.0920   33.1010   48.1420 C   0  0  0  0  0  0  0  0  0  0  0  0
   64.3510   33.4570   49.4680 C   0  0  0  0  0  0  0  0  0  0  0  0
   63.2930   33.7450   50.3330 C   0  0  0  0  0  0  0  0  0  0  0  0
   61.9740   33.6800   49.8750 C   0  0  0  0  0  0  0  0  0  0  0  0
   59.6363   35.4451   45.8453 H   0  0  0  0  0  0  0  0  0  0  0  0
   60.0085   34.5934   44.3082 H   0  0  0  0  0  0  0  0  0  0  0  0
   58.8895   35.9986   44.3082 H   0  0  0  0  0  0  0  0  0  0  0  0
   56.4037   32.3851   44.1690 H   0  0  0  0  0  0  0  0  0  0  0  0
   58.6737   26.2724   44.9383 H   0  0  0  0  0  0  0  0  0  0  0  0
   57.3028   25.9196   43.8325 H   0  0  0  0  0  0  0  0  0  0  0  0
   58.0605   27.5482   43.8325 H   0  0  0  0  0  0  0  0  0  0  0  0
   58.6741   28.9806   45.5589 H   0  0  0  0  0  0  0  0  0  0  0  0
   59.8274   34.3073   48.2683 H   0  0  0  0  0  0  0  0  0  0  0  0
   59.7266   32.5235   48.5186 H   0  0  0  0  0  0  0  0  0  0  0  0
   62.5752   32.7575   46.6325 H   0  0  0  0  0  0  0  0  0  0  0  0
   64.9258   32.8723   47.4620 H   0  0  0  0  0  0  0  0  0  0  0  0
   65.3881   33.5104   49.8306 H   0  0  0  0  0  0  0  0  0  0  0  0
   63.4982   34.0236   51.3772 H   0  0  0  0  0  0  0  0  0  0  0  0
   61.1437   33.9097   50.5591 H   0  0  0  0  0  0  0  0  0  0  0  0
  1  2  1  0
  2  3  1  0
  3  4  2  0
  4  5  1  0
  5  6  1  0
  6  7  2  0
  6  8  1  0
  8  9  1  0
  9 10  1  0
  9 11  2  0
  9 12  2  0
  5 13  2  0
 13 14  1  0
 14 15  1  0
 14 16  2  0
 16 17  1  0
 17 18  1  0
 18 19  1  0
 19 20  2  0
 20 21  1  0
 21 22  2  0
 22 23  1  0
 23 24  2  0
 16  3  1  0
 24 19  1  0
  1 25  1  0
  1 26  1  0
  1 27  1  0
  4 28  1  0
 10 29  1  0
 10 30  1  0
 10 31  1  0
 13 32  1  0
 18 33  1  0
 18 34  1  0
 20 35  1  0
 21 36  1  0
 22 37  1  0
 23 38  1  0
 24 39  1  0
M  CHG  1   8  -1
M  END
>  <UniqueID>  (90) 
83

>  <SMILES>  (90) 
COc1cc(C(=O)[N-]S(C)(=O)=O)cc(Cl)c1OCc1ccccc1

>  <Energy>  (90) 
44.22176361076951

>  <Genealogy>  (90) 
COc1cc(C(=O)[N-]S(C)(=O)=O)cc(Cl)c1OCc1ccccc1 (protonated)
COc1cc(C(=O)[N-]S(C)(=O)=O)cc(Cl)c1OCc1ccccc1 (3D coordinates assigned)
COc1cc(C(=O)[N-]S(C)(=O)=O)cc(Cl)c1OCc1ccccc1 (optimized conformer: 44.22176361076951 kcal/mol)

>  <smiles>  (90) 
COc1cc(C(=O)NS(C)(=O)=O)cc(Cl)c1OCc1ccccc1

>  <score_type>  (90) 
oracle

>  <origin>  (90) 
adg

>  <m_score__min__energy>  (90) 
-9.5199999999999996

>  <m_primary>  (90) 
energy

$$$$
90:0
     RDKit          3D

 50 53  0  0  0  0  0  0  0  0999 V2000
   59.6460   35.4350   45.7000 C   0  0  0  0  0  0  0  0  0  0  0  0
   59.3840   33.9750   45.8590 C   0  0  0  0  0  0  0  0  0  0  0  0
   60.1980   33.0790   46.5420 C   0  0  0  0  0  0  0  0  0  0  0  0
   59.5640   31.8690   46.3450 C   0  0  0  0  0  0  0  0  0  0  0  0
   59.9220   30.6330   46.7950 N   0  0  0  0  0  0  0  0  0  0  0  0
   61.1230   30.4480   47.6160 C   0  0  0  0  0  0  0  0  0  0  0  0
   59.1270   29.5660   46.4640 C   0  0  0  0  0  0  0  0  0  0  0  0
   57.9630   29.7320   45.6690 C   0  0  0  0  0  0  0  0  0  0  0  0
   57.1250   28.5510   45.3290 C   0  0  0  0  0  0  0  0  0  0  0  0
   55.8750   28.6830   45.2240 O   0  0  0  0  0  0  0  0  0  0  0  0
   57.7190   27.2540   45.1740 N   0  0  0  0  0  0  0  0  0  0  0  0
   57.2770   26.0320   45.7800 C   0  0  0  0  0  0  0  0  0  0  0  0
   57.4830   25.7590   47.1450 C   0  0  0  0  0  0  0  0  0  0  0  0
   57.0190   24.5620   47.6990 C   0  0  0  0  0  0  0  0  0  0  0  0
   56.3400   23.6360   46.9040 C   0  0  0  0  0  0  0  0  0  0  0  0
   56.1120   23.9070   45.5480 C   0  0  0  0  0  0  0  0  0  0  0  0
   55.2600   22.7350   44.5420 S   0  0  0  0  0  0  0  0  0  0  0  0
   54.0320   22.2710   45.2760 O   0  0  0  0  0  0  0  0  0  0  0  0
   54.8090   23.4090   43.2750 O   0  0  0  0  0  0  0  0  0  0  0  0
   56.2480   21.3460   44.1400 N   0  0  0  0  0  0  0  0  0  0  0  0
   57.5250   21.7230   43.5050 C   0  0  0  0  0  0  0  0  0  0  0  0
   58.6150   22.1240   44.5270 C   0  0  0  0  0  0  0  0  0  0  0  0
   58.2530   21.8550   45.8670 O   0  0  0  0  0  0  0  0  0  0  0  0
   57.7690   20.5370   45.9720 C   0  0  0  0  0  0  0  0  0  0  0  0
   56.4050   20.4080   45.2730 C   0  0  0  0  0  0  0  0  0  0  0  0
   56.5670   25.1130   44.9970 C   0  0  0  0  0  0  0  0  0  0  0  0
   57.6480   31.0410   45.2310 C   0  0  0  0  0  0  0  0  0  0  0  0
   56.6340   31.2780   44.5220 O   0  0  0  0  0  0  0  0  0  0  0  0
   58.4730   32.0540   45.5940 N   0  0  0  0  0  0  0  0  0  0  0  0
   58.3440   33.3310   45.2790 N   0  0  0  0  0  0  0  0  0  0  0  0
   59.7299   35.9026   46.6921 H   0  0  0  0  0  0  0  0  0  0  0  0
   60.5847   35.5808   45.1453 H   0  0  0  0  0  0  0  0  0  0  0  0
   58.8166   35.8981   45.1453 H   0  0  0  0  0  0  0  0  0  0  0  0
   61.1219   33.2842   47.1026 H   0  0  0  0  0  0  0  0  0  0  0  0
   60.8494   30.4901   48.6806 H   0  0  0  0  0  0  0  0  0  0  0  0
   61.5735   29.4699   47.3916 H   0  0  0  0  0  0  0  0  0  0  0  0
   61.8469   31.2452   47.3916 H   0  0  0  0  0  0  0  0  0  0  0  0
   59.3967   28.5614   46.8217 H   0  0  0  0  0  0  0  0  0  0  0  0
   58.0100   26.4886   47.7773 H   0  0  0  0  0  0  0  0  0  0  0  0
   57.1893   24.3489   48.7646 H   0  0  0  0  0  0  0  0  0  0  0  0
   55.9836   22.6924   47.3429 H   0  0  0  0  0  0  0  0  0  0  0  0
   57.8915   20.8666   42.9200 H   0  0  0  0  0  0  0  0  0  0  0  0
   57.3301   22.6009   42.8715 H   0  0  0  0  0  0  0  0  0  0  0  0
   59.5335   21.5651   44.2948 H   0  0  0  0  0  0  0  0  0  0  0  0
   58.7576   23.2113   44.4406 H   0  0  0  0  0  0  0  0  0  0  0  0
   58.4852   19.8494   45.4984 H   0  0  0  0  0  0  0  0  0  0  0  0
   57.6492   20.2852   47.0361 H   0  0  0  0  0  0  0  0  0  0  0  0
   56.3001   19.3803   44.8950 H   0  0  0  0  0  0  0  0  0  0  0  0
   55.6298   20.6527   46.0141 H   0  0  0  0  0  0  0  0  0  0  0  0
   56.3645   25.3397   43.9398 H   0  0  0  0  0  0  0  0  0  0  0  0
  1  2  1  0
  2  3  1  0
  3  4  2  0
  4  5  1  0
  5  6  1  0
  5  7  1  0
  7  8  2  0
  8  9  1  0
  9 10  2  0
  9 11  1  0
 11 12  1  0
 12 13  2  0
 13 14  1  0
 14 15  2  0
 15 16  1  0
 16 17  1  0
 17 18  2  0
 17 19  2  0
 17 20  1  0
 20 21  1  0
 21 22  1  0
 22 23  1  0
 23 24  1  0
 24 25  1  0
 16 26  2  0
  8 27  1  0
 27 28  2  0
 27 29  1  0
 29 30  1  0
 30  2  2  0
 29  4  1  0
 26 12  1  0
 25 20  1  0
  1 31  1  0
  1 32  1  0
  1 33  1  0
  3 34  1  0
  6 35  1  0
  6 36  1  0
  6 37  1  0
  7 38  1  0
 13 39  1  0
 14 40  1  0
 15 41  1  0
 21 42  1  0
 21 43  1  0
 22 44  1  0
 22 45  1  0
 24 46  1  0
 24 47  1  0
 25 48  1  0
 25 49  1  0
 26 50  1  0
M  CHG  1  11  -1
M  END
>  <UniqueID>  (91) 
84

>  <SMILES>  (91) 
Cc1cc2n(C)cc(C(=O)[N-]c3cccc(S(=O)(=O)N4CCOCC4)c3)c(=O)n2n1

>  <Energy>  (91) 
105.644252243072

>  <Genealogy>  (91) 
Cc1cc2n(C)cc(C(=O)[N-]c3cccc(S(=O)(=O)N4CCOCC4)c3)c(=O)n2n1 (protonated)
Cc1cc2n(C)cc(C(=O)[N-]c3cccc(S(=O)(=O)N4CCOCC4)c3)c(=O)n2n1 (3D coordinates assigned)
Cc1cc2n(C)cc(C(=O)[N-]c3cccc(S(=O)(=O)N4CCOCC4)c3)c(=O)n2n1 (nonaromatic ring conformer: 105.644252243072 kcal/mol)

>  <smiles>  (91) 
Cc1cc2n(C)cc(C(=O)Nc3cccc(S(=O)(=O)N4CCOCC4)c3)c(=O)n2n1

>  <score_type>  (91) 
oracle

>  <origin>  (91) 
adg

>  <m_score__min__energy>  (91) 
-10.949999999999999

>  <m_primary>  (91) 
energy

$$$$
91:0
     RDKit          3D

 36 38  0  0  0  0  0  0  0  0999 V2000
   53.8370   24.3940   46.1350 O   0  0  0  0  0  0  0  0  0  0  0  0
   54.8880   24.8640   45.6250 C   0  0  0  0  0  0  0  0  0  0  0  0
   55.2690   26.2080   45.9440 N   0  0  0  0  0  0  0  0  0  0  0  0
   56.5840   26.6460   46.3150 C   0  0  0  0  0  0  0  0  0  0  0  0
   57.4670   25.8110   47.0180 C   0  0  0  0  0  0  0  0  0  0  0  0
   58.7410   26.2680   47.3630 C   0  0  0  0  0  0  0  0  0  0  0  0
   59.1520   27.5490   46.9880 C   0  0  0  0  0  0  0  0  0  0  0  0
   58.3000   28.3790   46.2450 C   0  0  0  0  0  0  0  0  0  0  0  0
   58.7410   29.6990   45.8820 N   0  0  0  0  0  0  0  0  0  0  0  0
   57.8490   30.7860   45.5840 C   0  0  0  0  0  0  0  0  0  0  0  0
   56.6660   30.5430   45.2200 O   0  0  0  0  0  0  0  0  0  0  0  0
   58.3210   32.1890   45.6330 C   0  0  0  0  0  0  0  0  0  0  0  0
   58.6970   32.7570   46.8650 C   0  0  0  0  0  0  0  0  0  0  0  0
   59.1410   34.0800   46.9320 C   0  0  0  0  0  0  0  0  0  0  0  0
   59.2250   34.8500   45.7700 C   0  0  0  0  0  0  0  0  0  0  0  0
   58.8700   34.2960   44.5390 C   0  0  0  0  0  0  0  0  0  0  0  0
   58.4230   32.9730   44.4630 C   0  0  0  0  0  0  0  0  0  0  0  0
   58.1350   32.4520   43.2430 F   0  0  0  0  0  0  0  0  0  0  0  0
   57.0100   27.9210   45.9190 C   0  0  0  0  0  0  0  0  0  0  0  0
   55.7190   23.9970   44.7700 C   0  0  0  0  0  0  0  0  0  0  0  0
   57.0000   23.5300   45.0530 C   0  0  0  0  0  0  0  0  0  0  0  0
   57.5160   22.6910   44.0570 C   0  0  0  0  0  0  0  0  0  0  0  0
   56.6460   22.4850   42.9960 C   0  0  0  0  0  0  0  0  0  0  0  0
   55.2330   23.3430   43.2980 S   0  0  0  0  0  0  0  0  0  0  0  0
   57.1546   24.7941   47.2979 H   0  0  0  0  0  0  0  0  0  0  0  0
   59.4221   25.6175   47.9313 H   0  0  0  0  0  0  0  0  0  0  0  0
   60.1503   27.9092   47.2772 H   0  0  0  0  0  0  0  0  0  0  0  0
   59.7620   29.8470   45.7160 H   0  0  0  0  0  0  0  0  0  0  0  0
   58.6407   32.1538   47.7831 H   0  0  0  0  0  0  0  0  0  0  0  0
   59.4248   34.5157   47.9013 H   0  0  0  0  0  0  0  0  0  0  0  0
   59.5708   35.8928   45.8248 H   0  0  0  0  0  0  0  0  0  0  0  0
   58.9422   34.9028   43.6244 H   0  0  0  0  0  0  0  0  0  0  0  0
   56.3296   28.5698   45.3480 H   0  0  0  0  0  0  0  0  0  0  0  0
   57.5516   23.7936   45.9674 H   0  0  0  0  0  0  0  0  0  0  0  0
   58.5169   22.2380   44.1110 H   0  0  0  0  0  0  0  0  0  0  0  0
   56.8468   21.8661   42.1091 H   0  0  0  0  0  0  0  0  0  0  0  0
  1  2  2  0
  2  3  1  0
  3  4  1  0
  4  5  2  0
  5  6  1  0
  6  7  2  0
  7  8  1  0
  8  9  1  0
  9 10  1  0
 10 11  2  0
 10 12  1  0
 12 13  2  0
 13 14  1  0
 14 15  2  0
 15 16  1  0
 16 17  2  0
 17 18  1  0
  8 19  2  0
  2 20  1  0
 20 21  2  0
 21 22  1  0
 22 23  2  0
 23 24  1  0
 19  4  1  0
 24 20  1  0
 17 12  1  0
  5 25  1  0
  6 26  1  0
  7 27  1  0
  9 28  1  0
 13 29  1  0
 14 30  1  0
 15 31  1  0
 16 32  1  0
 19 33  1  0
 21 34  1  0
 22 35  1  0
 23 36  1  0
M  CHG  1   3  -1
M  END
>  <UniqueID>  (92) 
85

>  <SMILES>  (92) 
O=C([N-]c1cccc(NC(=O)c2ccccc2F)c1)c1cccs1

>  <Energy>  (92) 
76.85342662011229

>  <Genealogy>  (92) 
O=C([N-]c1cccc(NC(=O)c2ccccc2F)c1)c1cccs1 (protonated)
O=C([N-]c1cccc(NC(=O)c2ccccc2F)c1)c1cccs1 (3D coordinates assigned)
O=C([N-]c1cccc(NC(=O)c2ccccc2F)c1)c1cccs1 (optimized conformer: 76.85342662011229 kcal/mol)

>  <smiles>  (92) 
O=C(Nc1cccc(NC(=O)c2ccccc2F)c1)c1cccs1

>  <score_type>  (92) 
oracle

>  <origin>  (92) 
adg

>  <m_score__min__energy>  (92) 
-10.42

>  <m_primary>  (92) 
energy

$$$$
92:0
     RDKit          3D

 51 54  0  0  1  0  0  0  0  0999 V2000
   59.1800   30.8310   49.8870 C   0  0  0  0  0  0  0  0  0  0  0  0
   60.1570   30.7100   48.7930 C   0  0  0  0  0  0  0  0  0  0  0  0
   59.9030   29.9570   47.6510 C   0  0  0  0  0  0  0  0  0  0  0  0
   60.7640   29.8070   46.6130 C   0  0  0  0  0  0  0  0  0  0  0  0
   60.6540   28.9700   45.4520 C   0  0  0  0  0  0  0  0  0  0  0  0
   59.6170   28.6040   44.7930 C   0  0  0  0  0  0  0  0  0  0  0  0
   58.3530   29.2630   44.6200 C   0  0  0  0  0  0  0  0  0  0  0  0
   57.0980   28.7360   44.7450 C   0  0  0  0  0  0  0  0  0  0  0  0
   55.9340   29.4900   44.6750 C   0  0  0  0  0  0  0  0  0  0  0  0
   56.0910   30.8040   44.4730 N   0  0  0  0  0  0  0  0  0  0  0  0
   57.2520   31.4090   44.3380 C   0  0  0  0  0  0  0  0  0  0  0  0
   57.4220   32.8490   44.1230 C   0  0  0  0  0  0  0  0  0  0  0  0
   57.3250   33.7370   45.2930 C   0  0  0  0  0  0  0  0  0  0  0  0
   58.4830   33.8900   46.1560 C   0  0  0  0  0  0  0  0  0  0  0  0
   58.4830   34.0490   47.5180 C   0  0  0  0  0  0  0  0  0  0  0  0
   59.6440   34.2090   48.2650 C   0  0  0  0  0  0  0  0  0  0  0  0
   60.8780   34.2140   47.6490 C   0  0  0  0  0  0  0  0  0  0  0  0
   60.9020   34.0540   46.2840 C   0  0  0  0  0  0  0  0  0  0  0  0
   59.7480   33.8960   45.5470 C   0  0  0  0  0  0  0  0  0  0  0  0
   58.4080   30.6430   44.4100 C   0  0  0  0  0  0  0  0  0  0  0  0
   61.9610   30.4680   46.7410 N   0  0  0  0  0  0  0  0  0  0  0  0
   62.2330   31.2000   47.8280 C   0  0  0  0  0  0  0  0  0  0  0  0
   63.4270   31.8160   47.8820 N   0  0  0  0  0  0  0  0  0  0  0  0
   63.7840   32.5680   48.9330 C   0  0  0  0  0  0  0  0  0  0  0  0
   64.9180   33.1570   48.9910 N   0  0  0  0  0  0  0  0  0  0  0  0
   62.9270   32.7100   49.9590 N   0  0  0  0  0  0  0  0  0  0  0  0
   61.7310   32.1200   49.9530 C   0  0  0  0  0  0  0  0  0  0  0  0
   60.9270   32.2580   50.9250 N   0  0  0  0  0  0  0  0  0  0  0  0
   61.3670   31.3550   48.8870 C   0  0  0  0  0  0  0  0  0  0  0  0
   59.7017   30.7664   50.8533 H   0  0  0  0  0  0  0  0  0  0  0  0
   58.6644   31.7999   49.8127 H   0  0  0  0  0  0  0  0  0  0  0  0
   58.4437   30.0172   49.8127 H   0  0  0  0  0  0  0  0  0  0  0  0
   58.9317   29.4450   47.5846 H   0  0  0  0  0  0  0  0  0  0  0  0
   61.6088   28.5819   45.0676 H   0  0  0  0  0  0  0  0  0  0  0  0
   59.7099   27.6350   44.2807 H   0  0  0  0  0  0  0  0  0  0  0  0
   57.0048   27.6525   44.9105 H   0  0  0  0  0  0  0  0  0  0  0  0
   54.9388   29.0332   44.7797 H   0  0  0  0  0  0  0  0  0  0  0  0
   58.4177   32.9986   43.6800 H   0  0  0  0  0  0  0  0  0  0  0  0
   56.5703   33.1353   43.4885 H   0  0  0  0  0  0  0  0  0  0  0  0
   57.0675   34.7384   44.9177 H   0  0  0  0  0  0  0  0  0  0  0  0
   56.5785   33.2476   45.9358 H   0  0  0  0  0  0  0  0  0  0  0  0
   57.5174   34.0500   48.0448 H   0  0  0  0  0  0  0  0  0  0  0  0
   59.5782   34.3326   49.3561 H   0  0  0  0  0  0  0  0  0  0  0  0
   61.8055   34.3409   48.2267 H   0  0  0  0  0  0  0  0  0  0  0  0
   61.8714   34.0520   45.7641 H   0  0  0  0  0  0  0  0  0  0  0  0
   59.8198   33.7717   44.4564 H   0  0  0  0  0  0  0  0  0  0  0  0
   59.3868   31.1327   44.2994 H   0  0  0  0  0  0  0  0  0  0  0  0
   64.1280   31.7360   47.1090 H   0  0  0  0  0  0  0  0  0  0  0  0
   65.7170   33.0030   48.3670 H   0  0  0  0  0  0  0  0  0  0  0  0
   63.1760   33.2860   50.7850 H   0  0  0  0  0  0  0  0  0  0  0  0
   60.9210   31.7390   51.8080 H   0  0  0  0  0  0  0  0  0  0  0  0
  1  2  1  0
  2  3  2  0
  3  4  1  0
  4  5  1  0
  5  6  2  0
  6  7  1  0
  7  8  2  0
  8  9  1  0
  9 10  2  0
 10 11  1  0
 11 12  1  0
 12 13  1  0
 13 14  1  0
 14 15  2  0
 15 16  1  0
 16 17  2  0
 17 18  1  0
 18 19  2  0
 11 20  2  0
  4 21  2  0
 21 22  1  0
 22 23  1  0
 23 24  1  0
 24 25  2  3
 24 26  1  0
 26 27  1  0
 27 28  2  3
 27 29  1  0
 29  2  1  0
 20  7  1  0
 29 22  2  0
 19 14  1  0
  1 30  1  0
  1 31  1  0
  1 32  1  0
  3 33  1  0
  5 34  1  0
  6 35  1  0
  8 36  1  0
  9 37  1  0
 12 38  1  0
 12 39  1  0
 13 40  1  0
 13 41  1  0
 15 42  1  0
 16 43  1  0
 17 44  1  0
 18 45  1  0
 19 46  1  0
 20 47  1  0
 23 48  1  0
 25 49  1  0
 26 50  1  0
 28 51  1  0
M  END
>  <smiles>  (93) 
Cc1cc(C=Cc2ccnc(CCc3ccccc3)c2)nc2[nH]c(=N)[nH]c(=N)c12

>  <score_type>  (93) 
oracle

>  <origin>  (93) 
adg

>  <m_score__min__energy>  (93) 
-9.9299999999999997

>  <m_primary>  (93) 
energy

$$$$
93:0
     RDKit          3D

 50 52  0  0  1  0  0  0  0  0999 V2000
   56.0820   24.1410   44.5040 C   0  0  0  0  0  0  0  0  0  0  0  0
   55.7590   24.9150   46.0700 S   0  0  0  0  0  0  0  0  0  0  0  0
   55.1260   23.9050   46.9840 O   0  0  0  0  0  0  0  0  0  0  0  0
   54.7660   26.0330   45.9120 O   0  0  0  0  0  0  0  0  0  0  0  0
   57.1510   25.5380   46.8250 N   0  0  0  0  0  0  0  0  0  0  0  0
   57.9200   26.6270   46.3160 C   0  0  0  0  0  0  0  0  0  0  0  0
   59.2560   26.8040   46.5890 C   0  0  0  0  0  0  0  0  0  0  0  0
   59.9320   27.9020   46.0460 C   0  0  0  0  0  0  0  0  0  0  0  0
   59.2850   28.8110   45.2440 C   0  0  0  0  0  0  0  0  0  0  0  0
   57.9630   28.6470   44.9680 C   0  0  0  0  0  0  0  0  0  0  0  0
   57.1920   29.5240   44.1520 N   0  0  0  0  0  0  0  0  0  0  0  0
   57.4910   30.7940   44.1910 C   0  0  0  0  0  0  0  0  0  0  0  0
   57.8990   31.4670   43.0930 N   0  0  0  0  0  0  0  0  0  0  0  0
   58.2050   32.7940   43.1580 C   0  0  0  0  0  0  0  0  0  0  0  0
   58.0810   33.4110   44.3770 C   0  0  0  0  0  0  0  0  0  0  0  0
   58.3660   34.7100   44.5040 F   0  0  0  0  0  0  0  0  0  0  0  0
   57.6580   32.6930   45.4890 C   0  0  0  0  0  0  0  0  0  0  0  0
   57.5520   33.2910   46.6130 N   0  0  0  0  0  0  0  0  0  0  0  0
   58.4950   33.1960   47.6770 C   0  0  0  0  0  0  0  0  0  0  0  0
   58.1470   32.5230   48.8330 C   0  0  0  0  0  0  0  0  0  0  0  0
   59.0020   32.3850   49.9080 C   0  0  0  0  0  0  0  0  0  0  0  0
   60.2590   32.9590   49.7930 C   0  0  0  0  0  0  0  0  0  0  0  0
   60.6480   33.6470   48.6430 C   0  0  0  0  0  0  0  0  0  0  0  0
   61.9580   34.1910   48.6350 N   0  0  0  0  0  0  0  0  0  0  0  0
   63.3180   33.4040   47.9290 S   0  0  0  0  0  0  0  0  0  0  0  0
   64.6550   33.1700   49.0380 C   0  0  0  0  0  0  0  0  0  0  0  0
   62.8410   32.0420   47.4490 O   0  0  0  0  0  0  0  0  0  0  0  0
   63.7560   34.1740   46.7080 O   0  0  0  0  0  0  0  0  0  0  0  0
   59.7570   33.7530   47.6020 C   0  0  0  0  0  0  0  0  0  0  0  0
   57.3650   31.3860   45.3910 N   0  0  0  0  0  0  0  0  0  0  0  0
   57.3010   27.5560   45.5090 C   0  0  0  0  0  0  0  0  0  0  0  0
   56.5008   23.1375   44.6704 H   0  0  0  0  0  0  0  0  0  0  0  0
   55.1438   24.0572   43.9360 H   0  0  0  0  0  0  0  0  0  0  0  0
   56.8015   24.7490   43.9360 H   0  0  0  0  0  0  0  0  0  0  0  0
   57.5200   25.1290   47.7360 H   0  0  0  0  0  0  0  0  0  0  0  0
   59.7898   26.0870   47.2301 H   0  0  0  0  0  0  0  0  0  0  0  0
   61.0011   28.0401   46.2651 H   0  0  0  0  0  0  0  0  0  0  0  0
   59.8339   29.6681   44.8267 H   0  0  0  0  0  0  0  0  0  0  0  0
   57.9630   30.9180   42.2150 H   0  0  0  0  0  0  0  0  0  0  0  0
   58.5382   33.3481   42.2681 H   0  0  0  0  0  0  0  0  0  0  0  0
   57.1435   32.0773   48.8994 H   0  0  0  0  0  0  0  0  0  0  0  0
   58.6993   31.8433   50.8163 H   0  0  0  0  0  0  0  0  0  0  0  0
   60.9676   32.8697   50.6296 H   0  0  0  0  0  0  0  0  0  0  0  0
   62.0460   35.1440   49.1060 H   0  0  0  0  0  0  0  0  0  0  0  0
   64.2883   33.2342   50.0731 H   0  0  0  0  0  0  0  0  0  0  0  0
   65.1030   32.1798   48.8684 H   0  0  0  0  0  0  0  0  0  0  0  0
   65.4127   33.9492   48.8684 H   0  0  0  0  0  0  0  0  0  0  0  0
   60.0547   34.2923   46.6906 H   0  0  0  0  0  0  0  0  0  0  0  0
   57.0460   30.8620   46.2460 H   0  0  0  0  0  0  0  0  0  0  0  0
   56.2322   27.4261   45.2835 H   0  0  0  0  0  0  0  0  0  0  0  0
  1  2  1  0
  2  3  2  0
  2  4  2  0
  2  5  1  0
  5  6  1  0
  6  7  2  0
  7  8  1  0
  8  9  2  0
  9 10  1  0
 10 11  1  0
 11 12  2  0
 12 13  1  0
 13 14  1  0
 14 15  2  0
 15 16  1  0
 15 17  1  0
 17 18  2  0
 18 19  1  0
 19 20  2  0
 20 21  1  0
 21 22  2  0
 22 23  1  0
 23 24  1  0
 24 25  1  0
 25 26  1  0
 25 27  2  0
 25 28  2  0
 23 29  2  0
 17 30  1  0
 10 31  2  0
 31  6  1  0
 30 12  1  0
 29 19  1  0
  1 32  1  0
  1 33  1  0
  1 34  1  0
  5 35  1  0
  7 36  1  0
  8 37  1  0
  9 38  1  0
 13 39  1  0
 14 40  1  0
 20 41  1  0
 21 42  1  0
 22 43  1  0
 24 44  1  0
 26 45  1  0
 26 46  1  0
 26 47  1  0
 29 48  1  0
 30 49  1  0
 31 50  1  0
M  END
>  <smiles>  (94) 
CS(=O)(=O)Nc1cccc(N=c2[nH]cc(F)c(=Nc3cccc(NS(C)(=O)=O)c3)[nH]2)c1

>  <score_type>  (94) 
oracle

>  <origin>  (94) 
adg

>  <m_score__min__energy>  (94) 
-9.9199999999999999

>  <m_primary>  (94) 
energy

$$$$
94:0
     RDKit          3D

 55 58  0  0  0  0  0  0  0  0999 V2000
   64.3130   32.8980   48.9250 C   0  0  0  0  0  0  0  0  0  0  0  0
   63.2230   33.5800   49.7460 C   0  0  0  0  0  0  0  0  0  0  0  0
   61.9190   33.4170   49.0940 N   0  0  0  0  0  0  0  0  0  0  0  0
   61.5440   34.3330   48.1940 N   0  0  0  0  0  0  0  0  0  0  0  0
   60.3700   34.2390   47.5170 C   0  0  0  0  0  0  0  0  0  0  0  0
   59.5090   33.1740   47.7800 C   0  0  0  0  0  0  0  0  0  0  0  0
   59.8880   32.2110   48.7120 C   0  0  0  0  0  0  0  0  0  0  0  0
   61.1160   32.3390   49.3650 C   0  0  0  0  0  0  0  0  0  0  0  0
   61.4700   31.4610   50.1980 O   0  0  0  0  0  0  0  0  0  0  0  0
   58.2010   33.1190   47.0480 C   0  0  0  0  0  0  0  0  0  0  0  0
   58.4180   33.5080   45.6440 N   0  0  0  0  0  0  0  0  0  0  0  0
   57.9130   32.6870   44.5700 C   0  0  0  0  0  0  0  0  0  0  0  0
   58.3610   32.8870   43.2520 C   0  0  0  0  0  0  0  0  0  0  0  0
   57.9160   32.0570   42.2190 C   0  0  0  0  0  0  0  0  0  0  0  0
   57.0190   31.0210   42.4870 C   0  0  0  0  0  0  0  0  0  0  0  0
   56.5460   30.8160   43.7930 C   0  0  0  0  0  0  0  0  0  0  0  0
   55.5790   29.7310   44.0680 C   0  0  0  0  0  0  0  0  0  0  0  0
   54.6720   29.4860   43.2290 O   0  0  0  0  0  0  0  0  0  0  0  0
   55.6670   28.9160   45.2460 N   0  0  0  0  0  0  0  0  0  0  0  0
   56.6650   27.9200   45.5250 C   0  0  0  0  0  0  0  0  0  0  0  0
   58.0410   28.1840   45.3780 C   0  0  0  0  0  0  0  0  0  0  0  0
   58.9830   27.2110   45.7120 C   0  0  0  0  0  0  0  0  0  0  0  0
   58.5710   25.9800   46.2260 C   0  0  0  0  0  0  0  0  0  0  0  0
   57.2050   25.7070   46.3970 C   0  0  0  0  0  0  0  0  0  0  0  0
   56.7870   24.4240   46.9960 C   0  0  0  0  0  0  0  0  0  0  0  0
   57.6730   23.6180   47.3870 O   0  0  0  0  0  0  0  0  0  0  0  0
   55.4110   24.0350   47.0880 N   0  0  0  0  0  0  0  0  0  0  0  0
   54.5500   23.7840   45.9400 C   0  0  0  0  0  0  0  0  0  0  0  0
   56.2570   26.6840   46.0480 C   0  0  0  0  0  0  0  0  0  0  0  0
   57.0070   31.6410   44.8320 C   0  0  0  0  0  0  0  0  0  0  0  0
   59.2520   34.6850   45.3130 C   0  0  0  0  0  0  0  0  0  0  0  0
   59.9450   35.3020   46.5470 C   0  0  0  0  0  0  0  0  0  0  0  0
   65.0481   32.4380   49.6018 H   0  0  0  0  0  0  0  0  0  0  0  0
   63.8620   32.1207   48.2906 H   0  0  0  0  0  0  0  0  0  0  0  0
   64.8148   33.6435   48.2906 H   0  0  0  0  0  0  0  0  0  0  0  0
   63.1869   33.1280   50.7482 H   0  0  0  0  0  0  0  0  0  0  0  0
   63.4524   34.6529   49.8252 H   0  0  0  0  0  0  0  0  0  0  0  0
   59.2276   31.3591   48.9314 H   0  0  0  0  0  0  0  0  0  0  0  0
   57.7987   32.0960   47.0889 H   0  0  0  0  0  0  0  0  0  0  0  0
   57.4843   33.8090   47.5173 H   0  0  0  0  0  0  0  0  0  0  0  0
   59.0663   33.7021   43.0325 H   0  0  0  0  0  0  0  0  0  0  0  0
   58.2736   32.2205   41.1917 H   0  0  0  0  0  0  0  0  0  0  0  0
   56.6818   30.3633   41.6723 H   0  0  0  0  0  0  0  0  0  0  0  0
   58.3738   29.1613   44.9983 H   0  0  0  0  0  0  0  0  0  0  0  0
   60.0547   27.4143   45.5699 H   0  0  0  0  0  0  0  0  0  0  0  0
   59.3197   25.2214   46.4979 H   0  0  0  0  0  0  0  0  0  0  0  0
   53.5487   23.4921   46.2895 H   0  0  0  0  0  0  0  0  0  0  0  0
   54.4742   24.6974   45.3318 H   0  0  0  0  0  0  0  0  0  0  0  0
   54.9770   22.9729   45.3318 H   0  0  0  0  0  0  0  0  0  0  0  0
   55.1854   26.4776   46.1862 H   0  0  0  0  0  0  0  0  0  0  0  0
   56.6570   31.4685   45.8605 H   0  0  0  0  0  0  0  0  0  0  0  0
   60.0258   34.3751   44.5952 H   0  0  0  0  0  0  0  0  0  0  0  0
   58.5849   35.4524   44.8934 H   0  0  0  0  0  0  0  0  0  0  0  0
   60.8321   35.8629   46.2176 H   0  0  0  0  0  0  0  0  0  0  0  0
   59.2304   35.9690   47.0514 H   0  0  0  0  0  0  0  0  0  0  0  0
  1  2  1  0
  2  3  1  0
  3  4  1  0
  4  5  2  0
  5  6  1  0
  6  7  2  0
  7  8  1  0
  8  9  2  0
  6 10  1  0
 10 11  1  0
 11 12  1  0
 12 13  2  0
 13 14  1  0
 14 15  2  0
 15 16  1  0
 16 17  1  0
 17 18  2  0
 17 19  1  0
 19 20  1  0
 20 21  2  0
 21 22  1  0
 22 23  2  0
 23 24  1  0
 24 25  1  0
 25 26  2  0
 25 27  1  0
 27 28  1  0
 24 29  2  0
 16 30  2  0
 11 31  1  0
 31 32  1  0
  8  3  1  0
 30 12  1  0
 32  5  1  0
 29 20  1  0
  1 33  1  0
  1 34  1  0
  1 35  1  0
  2 36  1  0
  2 37  1  0
  7 38  1  0
 10 39  1  0
 10 40  1  0
 13 41  1  0
 14 42  1  0
 15 43  1  0
 21 44  1  0
 22 45  1  0
 23 46  1  0
 28 47  1  0
 28 48  1  0
 28 49  1  0
 29 50  1  0
 30 51  1  0
 31 52  1  0
 31 53  1  0
 32 54  1  0
 32 55  1  0
M  CHG  2  19  -1  27  -1
M  END
>  <UniqueID>  (95) 
86

>  <SMILES>  (95) 
CCn1nc2c(cc1=O)CN(c1cccc(C(=O)[N-]c3cccc(C(=O)[N-]C)c3)c1)CC2

>  <Energy>  (95) 
74.16178162358834

>  <Genealogy>  (95) 
CCn1nc2c(cc1=O)CN(c1cccc(C(=O)[N-]c3cccc(C(=O)[N-]C)c3)c1)CC2 (protonated)
CCn1nc2c(cc1=O)CN(c1cccc(C(=O)[N-]c3cccc(C(=O)[N-]C)c3)c1)CC2 (3D coordinates assigned)
CCn1nc2c(cc1=O)CN(c1cccc(C(=O)[N-]c3cccc(C(=O)[N-]C)c3)c1)CC2 (nonaromatic ring conformer: 74.16178162358834 kcal/mol)

>  <smiles>  (95) 
CCn1nc2c(cc1=O)CN(c1cccc(C(=O)Nc3cccc(C(=O)NC)c3)c1)CC2

>  <score_type>  (95) 
oracle

>  <origin>  (95) 
adg

>  <m_score__min__energy>  (95) 
-14.460000000000001

>  <m_primary>  (95) 
energy

$$$$
95:0
     RDKit          3D

 50 53  0  0  0  0  0  0  0  0999 V2000
   61.4930   31.3610   50.4350 O   0  0  0  0  0  0  0  0  0  0  0  0
   61.2030   30.4850   49.5720 C   0  0  0  0  0  0  0  0  0  0  0  0
   60.7840   29.2700   49.9970 N   0  0  0  0  0  0  0  0  0  0  0  0
   60.4750   28.2750   49.1310 C   0  0  0  0  0  0  0  0  0  0  0  0
   60.0560   27.0560   49.6640 O   0  0  0  0  0  0  0  0  0  0  0  0
   60.5990   28.4840   47.7430 C   0  0  0  0  0  0  0  0  0  0  0  0
   60.3690   27.3350   46.7560 C   0  0  0  0  0  0  0  0  0  0  0  0
   58.8830   27.0920   46.4840 C   0  0  0  0  0  0  0  0  0  0  0  0
   58.3270   25.8200   46.7410 C   0  0  0  0  0  0  0  0  0  0  0  0
   56.9590   25.5870   46.5510 C   0  0  0  0  0  0  0  0  0  0  0  0
   56.1290   26.6150   46.0890 C   0  0  0  0  0  0  0  0  0  0  0  0
   54.7680   26.3830   45.9060 O   0  0  0  0  0  0  0  0  0  0  0  0
   56.6680   27.8650   45.7870 C   0  0  0  0  0  0  0  0  0  0  0  0
   58.0480   28.1200   45.9680 C   0  0  0  0  0  0  0  0  0  0  0  0
   58.5920   29.3640   45.4910 N   0  0  0  0  0  0  0  0  0  0  0  0
   57.9820   30.0620   44.3940 C   0  0  0  0  0  0  0  0  0  0  0  0
   57.1410   29.3920   43.4820 C   0  0  0  0  0  0  0  0  0  0  0  0
   56.6270   30.0690   42.3680 C   0  0  0  0  0  0  0  0  0  0  0  0
   56.9590   31.4100   42.1430 C   0  0  0  0  0  0  0  0  0  0  0  0
   57.7920   32.0830   43.0450 C   0  0  0  0  0  0  0  0  0  0  0  0
   58.2860   31.4180   44.1690 C   0  0  0  0  0  0  0  0  0  0  0  0
   61.0160   29.7710   47.3140 C   0  0  0  0  0  0  0  0  0  0  0  0
   61.1110   30.0140   46.0790 O   0  0  0  0  0  0  0  0  0  0  0  0
   61.3170   30.7550   48.2300 N   0  0  0  0  0  0  0  0  0  0  0  0
   61.7330   32.0950   47.7710 C   0  0  0  0  0  0  0  0  0  0  0  0
   60.5470   32.8550   47.2330 C   0  0  0  0  0  0  0  0  0  0  0  0
   60.7340   33.9410   46.3530 C   0  0  0  0  0  0  0  0  0  0  0  0
   59.6310   34.6230   45.8320 C   0  0  0  0  0  0  0  0  0  0  0  0
   58.3330   34.2280   46.1820 C   0  0  0  0  0  0  0  0  0  0  0  0
   58.1380   33.1500   47.0540 C   0  0  0  0  0  0  0  0  0  0  0  0
   59.2390   32.4650   47.5770 C   0  0  0  0  0  0  0  0  0  0  0  0
   60.0660   26.8710   50.6540 H   0  0  0  0  0  0  0  0  0  0  0  0
   60.8671   27.5794   45.8062 H   0  0  0  0  0  0  0  0  0  0  0  0
   60.7835   26.4193   47.2029 H   0  0  0  0  0  0  0  0  0  0  0  0
   58.9745   25.0038   47.0939 H   0  0  0  0  0  0  0  0  0  0  0  0
   56.5362   24.5944   46.7652 H   0  0  0  0  0  0  0  0  0  0  0  0
   56.0133   28.6616   45.4039 H   0  0  0  0  0  0  0  0  0  0  0  0
   59.5930   29.5790   45.7280 H   0  0  0  0  0  0  0  0  0  0  0  0
   56.8875   28.3342   43.6455 H   0  0  0  0  0  0  0  0  0  0  0  0
   55.9601   29.5446   41.6678 H   0  0  0  0  0  0  0  0  0  0  0  0
   56.5662   31.9341   41.2592 H   0  0  0  0  0  0  0  0  0  0  0  0
   58.0573   33.1358   42.8681 H   0  0  0  0  0  0  0  0  0  0  0  0
   58.9197   31.9597   44.8866 H   0  0  0  0  0  0  0  0  0  0  0  0
   62.1666   32.6498   48.6162 H   0  0  0  0  0  0  0  0  0  0  0  0
   62.4796   31.9835   46.9709 H   0  0  0  0  0  0  0  0  0  0  0  0
   61.7519   34.2525   46.0756 H   0  0  0  0  0  0  0  0  0  0  0  0
   59.7819   35.4702   45.1469 H   0  0  0  0  0  0  0  0  0  0  0  0
   57.4658   34.7657   45.7710 H   0  0  0  0  0  0  0  0  0  0  0  0
   57.1181   32.8419   47.3277 H   0  0  0  0  0  0  0  0  0  0  0  0
   59.0823   31.6174   48.2604 H   0  0  0  0  0  0  0  0  0  0  0  0
  1  2  2  0
  2  3  1  0
  3  4  1  0
  4  5  1  0
  4  6  2  0
  6  7  1  0
  7  8  1  0
  8  9  2  0
  9 10  1  0
 10 11  2  0
 11 12  1  0
 11 13  1  0
 13 14  2  0
 14 15  1  0
 15 16  1  0
 16 17  2  0
 17 18  1  0
 18 19  2  0
 19 20  1  0
 20 21  2  0
  6 22  1  0
 22 23  2  0
 22 24  1  0
 24 25  1  0
 25 26  1  0
 26 27  2  0
 27 28  1  0
 28 29  2  0
 29 30  1  0
 30 31  2  0
 24  2  1  0
 31 26  1  0
 14  8  1  0
 21 16  1  0
  5 32  1  0
  7 33  1  0
  7 34  1  0
  9 35  1  0
 10 36  1  0
 13 37  1  0
 15 38  1  0
 17 39  1  0
 18 40  1  0
 19 41  1  0
 20 42  1  0
 21 43  1  0
 25 44  1  0
 25 45  1  0
 27 46  1  0
 28 47  1  0
 29 48  1  0
 30 49  1  0
 31 50  1  0
M  CHG  2   3  -1  12  -1
M  END
>  <UniqueID>  (96) 
87

>  <SMILES>  (96) 
O=c1[n-]c(O)c(Cc2ccc([O-])cc2Nc2ccccc2)c(=O)n1Cc1ccccc1

>  <Energy>  (96) 
74.76455055491249

>  <Genealogy>  (96) 
O=c1[n-]c(O)c(Cc2ccc([O-])cc2Nc2ccccc2)c(=O)n1Cc1ccccc1 (protonated)
O=c1[n-]c(O)c(Cc2ccc([O-])cc2Nc2ccccc2)c(=O)n1Cc1ccccc1 (3D coordinates assigned)
O=c1[n-]c(O)c(Cc2ccc([O-])cc2Nc2ccccc2)c(=O)n1Cc1ccccc1 (optimized conformer: 74.76455055491249 kcal/mol)

>  <smiles>  (96) 
O=c1[nH]c(O)c(Cc2ccc(O)cc2Nc2ccccc2)c(=O)n1Cc1ccccc1

>  <score_type>  (96) 
oracle

>  <origin>  (96) 
adg

>  <m_score__min__energy>  (96) 
-12.630000000000001

>  <m_primary>  (96) 
energy

$$$$
