0:0
     RDKit          3D

 25 26  0  0  0  0  0  0  0  0999 V2000
   59.2280   27.6650   45.3520 C   0  0  0  0  0  0  0  0  0  0  0  0
   57.8890   27.1030   45.7160 C   0  0  0  0  0  0  0  0  0  0  0  0
   57.6600   25.8910   46.3320 C   0  0  0  0  0  0  0  0  0  0  0  0
   56.2900   25.7920   46.4670 C   0  0  0  0  0  0  0  0  0  0  0  0
   55.7130   26.8640   45.9720 O   0  0  0  0  0  0  0  0  0  0  0  0
   56.6420   27.6740   45.5140 C   0  0  0  0  0  0  0  0  0  0  0  0
   56.3400   28.9710   44.8890 C   0  0  0  0  0  0  0  0  0  0  0  0
   55.1620   29.4210   44.8870 O   0  0  0  0  0  0  0  0  0  0  0  0
   57.3920   29.7020   44.2520 N   0  0  0  0  0  0  0  0  0  0  0  0
   57.8790   30.9750   44.6970 C   0  0  0  0  0  0  0  0  0  0  0  0
   58.1500   31.1480   46.0610 C   0  0  0  0  0  0  0  0  0  0  0  0
   58.6260   32.3710   46.5380 C   0  0  0  0  0  0  0  0  0  0  0  0
   58.8180   33.4400   45.6590 C   0  0  0  0  0  0  0  0  0  0  0  0
   59.4120   34.9760   46.2600 Cl  0  0  0  0  0  0  0  0  0  0  0  0
   58.5190   33.2870   44.3010 C   0  0  0  0  0  0  0  0  0  0  0  0
   58.0420   32.0640   43.8140 C   0  0  0  0  0  0  0  0  0  0  0  0
   57.5700   31.9680   42.1210 Cl  0  0  0  0  0  0  0  0  0  0  0  0
   59.7885   27.9002   46.2688 H   0  0  0  0  0  0  0  0  0  0  0  0
   59.7873   26.9257   44.7599 H   0  0  0  0  0  0  0  0  0  0  0  0
   59.0921   28.5820   44.7599 H   0  0  0  0  0  0  0  0  0  0  0  0
   58.4133   25.1552   46.6501 H   0  0  0  0  0  0  0  0  0  0  0  0
   55.7598   24.9421   46.9214 H   0  0  0  0  0  0  0  0  0  0  0  0
   57.9867   30.3149   46.7605 H   0  0  0  0  0  0  0  0  0  0  0  0
   58.8503   32.4931   47.6079 H   0  0  0  0  0  0  0  0  0  0  0  0
   58.6595   34.1326   43.6116 H   0  0  0  0  0  0  0  0  0  0  0  0
  1  2  1  0
  2  3  1  0
  3  4  2  0
  4  5  1  0
  5  6  1  0
  6  7  1  0
  7  8  2  0
  7  9  1  0
  9 10  1  0
 10 11  2  0
 11 12  1  0
 12 13  2  0
 13 14  1  0
 13 15  1  0
 15 16  2  0
 16 17  1  0
  6  2  2  0
 16 10  1  0
  1 18  1  0
  1 19  1  0
  1 20  1  0
  3 21  1  0
  4 22  1  0
 11 23  1  0
 12 24  1  0
 15 25  1  0
M  CHG  1   9  -1
M  END
>  <UniqueID>  (1) 
1

>  <SMILES>  (1) 
Cc1ccoc1C(=O)[N-]c1ccc(Cl)cc1Cl

>  <Energy>  (1) 
57.36594870340993

>  <Genealogy>  (1) 
Cc1ccoc1C(=O)[N-]c1ccc(Cl)cc1Cl (protonated)
Cc1ccoc1C(=O)[N-]c1ccc(Cl)cc1Cl (3D coordinates assigned)
Cc1ccoc1C(=O)[N-]c1ccc(Cl)cc1Cl (optimized conformer: 57.36594870340993 kcal/mol)

>  <smiles>  (1) 
Cc1ccoc1C(=O)Nc1ccc(Cl)cc1Cl

>  <score_type>  (1) 
oracle

>  <origin>  (1) 
adg

>  <m_score__min__energy>  (1) 
-8.6300000000000008

>  <m_primary>  (1) 
energy

$$$$
1:0
     RDKit          3D

 31 33  0  0  0  0  0  0  0  0999 V2000
   54.7590   29.7400   43.3300 O   0  0  0  0  0  0  0  0  0  0  0  0
   55.6730   29.8450   44.1920 C   0  0  0  0  0  0  0  0  0  0  0  0
   55.7340   28.8710   45.2420 N   0  0  0  0  0  0  0  0  0  0  0  0
   56.9190   28.1090   45.6130 C   0  0  0  0  0  0  0  0  0  0  0  0
   56.5590   26.6660   45.7370 C   0  0  0  0  0  0  0  0  0  0  0  0
   57.4250   25.6030   45.5870 C   0  0  0  0  0  0  0  0  0  0  0  0
   56.6560   24.4720   45.7570 C   0  0  0  0  0  0  0  0  0  0  0  0
   55.3700   24.9160   45.9940 C   0  0  0  0  0  0  0  0  0  0  0  0
   55.3440   26.2290   45.9730 O   0  0  0  0  0  0  0  0  0  0  0  0
   56.6410   30.9700   44.1000 C   0  0  0  0  0  0  0  0  0  0  0  0
   57.0190   31.5060   45.2810 N   0  0  0  0  0  0  0  0  0  0  0  0
   57.8350   32.5100   45.6640 C   0  0  0  0  0  0  0  0  0  0  0  0
   57.9450   32.7160   47.0510 C   0  0  0  0  0  0  0  0  0  0  0  0
   58.7550   33.7250   47.5700 C   0  0  0  0  0  0  0  0  0  0  0  0
   59.4670   34.5500   46.7090 C   0  0  0  0  0  0  0  0  0  0  0  0
   59.3700   34.3620   45.3300 C   0  0  0  0  0  0  0  0  0  0  0  0
   58.5600   33.3490   44.7880 C   0  0  0  0  0  0  0  0  0  0  0  0
   58.5460   33.2630   43.4400 N   0  0  0  0  0  0  0  0  0  0  0  0
   57.9370   32.4610   42.5400 C   0  0  0  0  0  0  0  0  0  0  0  0
   58.1840   32.6960   41.3270 O   0  0  0  0  0  0  0  0  0  0  0  0
   57.0690   31.3990   42.8280 C   0  0  0  0  0  0  0  0  0  0  0  0
   56.6350   30.7560   41.8300 O   0  0  0  0  0  0  0  0  0  0  0  0
   57.6909   28.2299   44.8386 H   0  0  0  0  0  0  0  0  0  0  0  0
   57.3067   28.4759   46.5748 H   0  0  0  0  0  0  0  0  0  0  0  0
   58.5036   25.6484   45.3759 H   0  0  0  0  0  0  0  0  0  0  0  0
   56.9974   23.4273   45.7128 H   0  0  0  0  0  0  0  0  0  0  0  0
   54.4993   24.2681   46.1732 H   0  0  0  0  0  0  0  0  0  0  0  0
   57.3814   32.0689   47.7391 H   0  0  0  0  0  0  0  0  0  0  0  0
   58.8300   33.8673   48.6582 H   0  0  0  0  0  0  0  0  0  0  0  0
   60.1055   35.3493   47.1132 H   0  0  0  0  0  0  0  0  0  0  0  0
   59.9378   35.0186   44.6544 H   0  0  0  0  0  0  0  0  0  0  0  0
  1  2  2  0
  2  3  1  0
  3  4  1  0
  4  5  1  0
  5  6  2  0
  6  7  1  0
  7  8  2  0
  8  9  1  0
  2 10  1  0
 10 11  2  0
 11 12  1  0
 12 13  2  0
 13 14  1  0
 14 15  2  0
 15 16  1  0
 16 17  2  0
 17 18  1  0
 18 19  1  0
 19 20  2  0
 19 21  1  0
 21 22  2  0
  9  5  1  0
 21 10  1  0
 17 12  1  0
  4 23  1  0
  4 24  1  0
  6 25  1  0
  7 26  1  0
  8 27  1  0
 13 28  1  0
 14 29  1  0
 15 30  1  0
 16 31  1  0
M  CHG  2   3  -1  18  -1
M  END
>  <UniqueID>  (2) 
2

>  <SMILES>  (2) 
O=C([N-]Cc1ccco1)c1nc2ccccc2[n-]c(=O)c1=O

>  <Energy>  (2) 
89.45309401766738

>  <Genealogy>  (2) 
O=C([N-]Cc1ccco1)c1nc2ccccc2[n-]c(=O)c1=O (protonated)
O=C([N-]Cc1ccco1)c1nc2ccccc2[n-]c(=O)c1=O (3D coordinates assigned)
O=C([N-]Cc1ccco1)c1nc2ccccc2[n-]c(=O)c1=O (optimized conformer: 89.45309401766738 kcal/mol)

>  <smiles>  (2) 
O=C(NCc1ccco1)c1nc2ccccc2[nH]c(=O)c1=O

>  <score_type>  (2) 
oracle

>  <origin>  (2) 
adg

>  <m_score__min__energy>  (2) 
-11.449999999999999

>  <m_primary>  (2) 
energy

$$$$
2:0
     RDKit          3D

 36 38  0  0  0  0  0  0  0  0999 V2000
   60.0340   26.6660   48.0780 C   0  0  0  0  0  0  0  0  0  0  0  0
   59.5670   25.9480   46.8160 C   0  0  0  0  0  0  0  0  0  0  0  0
   58.1060   25.8380   46.8070 N   0  0  0  0  0  0  0  0  0  0  0  0
   57.2270   26.6090   46.1390 C   0  0  0  0  0  0  0  0  0  0  0  0
   57.5850   27.6280   45.1340 C   0  0  0  0  0  0  0  0  0  0  0  0
   57.4710   28.9650   45.3050 C   0  0  0  0  0  0  0  0  0  0  0  0
   56.3540   29.7710   44.7440 C   0  0  0  0  0  0  0  0  0  0  0  0
   55.3450   29.2270   44.2240 O   0  0  0  0  0  0  0  0  0  0  0  0
   56.3860   31.1920   44.8440 N   0  0  0  0  0  0  0  0  0  0  0  0
   57.4100   31.8730   45.5660 C   0  0  0  0  0  0  0  0  0  0  0  0
   57.3790   33.1300   45.6340 O   0  0  0  0  0  0  0  0  0  0  0  0
   58.4420   31.1260   46.2370 N   0  0  0  0  0  0  0  0  0  0  0  0
   59.4360   31.8160   47.0180 C   0  0  0  0  0  0  0  0  0  0  0  0
   59.0480   32.7100   48.0280 C   0  0  0  0  0  0  0  0  0  0  0  0
   60.0140   33.3790   48.7870 C   0  0  0  0  0  0  0  0  0  0  0  0
   61.3710   33.1590   48.5430 C   0  0  0  0  0  0  0  0  0  0  0  0
   61.7660   32.2690   47.5390 C   0  0  0  0  0  0  0  0  0  0  0  0
   60.8030   31.5990   46.7780 C   0  0  0  0  0  0  0  0  0  0  0  0
   58.4820   29.6890   46.1210 C   0  0  0  0  0  0  0  0  0  0  0  0
   59.4080   29.0450   46.6910 O   0  0  0  0  0  0  0  0  0  0  0  0
   55.9570   26.1870   46.4780 C   0  0  0  0  0  0  0  0  0  0  0  0
   54.7710   26.6900   45.9610 O   0  0  0  0  0  0  0  0  0  0  0  0
   56.0150   25.1890   47.3820 N   0  0  0  0  0  0  0  0  0  0  0  0
   57.3430   25.0160   47.5610 C   0  0  0  0  0  0  0  0  0  0  0  0
   57.8170   24.1650   48.3590 O   0  0  0  0  0  0  0  0  0  0  0  0
   59.6784   26.1193   48.9638 H   0  0  0  0  0  0  0  0  0  0  0  0
   61.1331   26.7086   48.0902 H   0  0  0  0  0  0  0  0  0  0  0  0
   59.6273   27.6880   48.0902 H   0  0  0  0  0  0  0  0  0  0  0  0
   59.8939   26.5163   45.9327 H   0  0  0  0  0  0  0  0  0  0  0  0
   60.0028   24.9382   46.7957 H   0  0  0  0  0  0  0  0  0  0  0  0
   57.9756   27.2724   44.1691 H   0  0  0  0  0  0  0  0  0  0  0  0
   57.9798   32.8853   48.2236 H   0  0  0  0  0  0  0  0  0  0  0  0
   59.7042   34.0791   49.5769 H   0  0  0  0  0  0  0  0  0  0  0  0
   62.1296   33.6858   49.1405 H   0  0  0  0  0  0  0  0  0  0  0  0
   62.8353   32.0959   47.3478 H   0  0  0  0  0  0  0  0  0  0  0  0
   61.1169   30.8998   45.9889 H   0  0  0  0  0  0  0  0  0  0  0  0
  1  2  1  0
  2  3  1  0
  3  4  1  0
  4  5  1  0
  5  6  2  3
  6  7  1  0
  7  8  2  0
  7  9  1  0
  9 10  1  0
 10 11  2  0
 10 12  1  0
 12 13  1  0
 13 14  2  0
 14 15  1  0
 15 16  2  0
 16 17  1  0
 17 18  2  0
 12 19  1  0
 19 20  2  0
  4 21  2  0
 21 22  1  0
 21 23  1  0
 23 24  1  0
 24 25  2  0
 24  3  1  0
 19  6  1  0
 18 13  1  0
  1 26  1  0
  1 27  1  0
  1 28  1  0
  2 29  1  0
  2 30  1  0
  5 31  1  0
 14 32  1  0
 15 33  1  0
 16 34  1  0
 17 35  1  0
 18 36  1  0
M  CHG  3   9  -1  22  -1  23  -1
M  END
>  <UniqueID>  (3) 
3

>  <SMILES>  (3) 
CCn1c(C=C2C(=O)[N-]C(=O)N(c3ccccc3)C2=O)c([O-])[n-]c1=O

>  <Energy>  (3) 
83.04711274521156

>  <Genealogy>  (3) 
CCn1c(C=C2C(=O)[N-]C(=O)N(c3ccccc3)C2=O)c([O-])[n-]c1=O (protonated)
CCn1c(C=C2C(=O)[N-]C(=O)N(c3ccccc3)C2=O)c([O-])[n-]c1=O (3D coordinates assigned)
CCn1c(C=C2C(=O)[N-]C(=O)N(c3ccccc3)C2=O)c([O-])[n-]c1=O (nonaromatic ring conformer: 83.04711274521156 kcal/mol)

>  <smiles>  (3) 
CCn1c(C=C2C(=O)NC(=O)N(c3ccccc3)C2=O)c(O)[nH]c1=O

>  <score_type>  (3) 
oracle

>  <origin>  (3) 
adg

>  <m_score__min__energy>  (3) 
-15.050000000000001

>  <m_primary>  (3) 
energy

$$$$
3:0
     RDKit          3D

 61 63  0  0  0  0  0  0  0  0999 V2000
   58.0950   31.8560   43.0380 O   0  0  0  0  0  0  0  0  0  0  0  0
   57.3930   32.1550   44.0420 C   0  0  0  0  0  0  0  0  0  0  0  0
   57.4370   33.5460   44.6030 C   0  0  0  0  0  0  0  0  0  0  0  0
   58.3310   33.6170   45.8190 C   0  0  0  0  0  0  0  0  0  0  0  0
   59.5510   34.3060   45.7550 C   0  0  0  0  0  0  0  0  0  0  0  0
   60.3770   34.3920   46.8770 C   0  0  0  0  0  0  0  0  0  0  0  0
   59.9940   33.7870   48.0900 C   0  0  0  0  0  0  0  0  0  0  0  0
   60.7950   33.8950   49.2810 N   0  0  0  0  0  0  0  0  0  0  0  0
   62.5360   33.9110   49.2660 S   0  0  0  0  0  0  0  0  0  0  0  0
   63.0320   34.1530   47.8660 O   0  0  0  0  0  0  0  0  0  0  0  0
   63.0220   35.0120   50.1700 O   0  0  0  0  0  0  0  0  0  0  0  0
   63.1680   32.4010   49.8430 N   0  0  0  0  0  0  0  0  0  0  0  0
   61.8760   31.3100   50.2660 S   0  0  0  0  0  0  0  0  0  0  0  0
   60.8500   32.0650   51.0620 O   0  0  0  0  0  0  0  0  0  0  0  0
   62.3850   30.1590   51.0930 O   0  0  0  0  0  0  0  0  0  0  0  0
   61.1250   30.7040   48.8040 C   0  0  0  0  0  0  0  0  0  0  0  0
   59.9600   29.9540   48.7550 C   0  0  0  0  0  0  0  0  0  0  0  0
   59.5760   29.6320   47.4480 C   0  0  0  0  0  0  0  0  0  0  0  0
   60.4360   30.1290   46.4750 C   0  0  0  0  0  0  0  0  0  0  0  0
   61.6810   30.9740   47.2380 S   0  0  0  0  0  0  0  0  0  0  0  0
   58.7790   33.0830   48.1430 C   0  0  0  0  0  0  0  0  0  0  0  0
   57.9610   32.9870   47.0130 C   0  0  0  0  0  0  0  0  0  0  0  0
   56.4720   31.2020   44.5980 N   0  0  0  0  0  0  0  0  0  0  0  0
   56.6320   29.7510   44.5060 C   0  0  0  0  0  0  0  0  0  0  0  0
   58.1100   29.3670   44.3530 C   0  0  0  0  0  0  0  0  0  0  0  0
   58.3020   27.8990   43.9480 C   0  0  0  0  0  0  0  0  0  0  0  0
   57.6080   27.0150   44.8920 N   0  0  0  0  0  0  0  0  0  0  0  0
   58.2720   26.4760   46.0360 C   0  0  0  0  0  0  0  0  0  0  0  0
   59.4970   26.7210   46.2420 O   0  0  0  0  0  0  0  0  0  0  0  0
   57.5340   25.6660   46.9500 N   0  0  0  0  0  0  0  0  0  0  0  0
   56.0890   24.8310   46.4930 S   0  0  0  0  0  0  0  0  0  0  0  0
   55.0800   25.8260   45.9940 O   0  0  0  0  0  0  0  0  0  0  0  0
   55.5290   24.1260   47.6970 O   0  0  0  0  0  0  0  0  0  0  0  0
   56.4470   23.6800   45.2100 C   0  0  0  0  0  0  0  0  0  0  0  0
   55.7170   23.7200   44.0130 C   0  0  0  0  0  0  0  0  0  0  0  0
   56.0050   22.8170   42.9830 C   0  0  0  0  0  0  0  0  0  0  0  0
   57.0170   21.8660   43.1480 C   0  0  0  0  0  0  0  0  0  0  0  0
   57.7420   21.8160   44.3430 C   0  0  0  0  0  0  0  0  0  0  0  0
   57.4580   22.7200   45.3730 C   0  0  0  0  0  0  0  0  0  0  0  0
   57.8227   34.2311   43.8337 H   0  0  0  0  0  0  0  0  0  0  0  0
   56.4182   33.8330   44.9026 H   0  0  0  0  0  0  0  0  0  0  0  0
   59.8595   34.7826   44.8128 H   0  0  0  0  0  0  0  0  0  0  0  0
   61.3316   34.9349   46.8136 H   0  0  0  0  0  0  0  0  0  0  0  0
   60.3150   33.9880   50.2070 H   0  0  0  0  0  0  0  0  0  0  0  0
   59.3973   29.6449   49.6482 H   0  0  0  0  0  0  0  0  0  0  0  0
   58.6783   29.0413   47.2128 H   0  0  0  0  0  0  0  0  0  0  0  0
   60.3234   29.9938   45.3892 H   0  0  0  0  0  0  0  0  0  0  0  0
   58.4684   32.6027   49.0826 H   0  0  0  0  0  0  0  0  0  0  0  0
   57.0232   32.4142   47.0625 H   0  0  0  0  0  0  0  0  0  0  0  0
   56.2329   29.2868   45.4199 H   0  0  0  0  0  0  0  0  0  0  0  0
   56.0848   29.3945   43.6208 H   0  0  0  0  0  0  0  0  0  0  0  0
   58.5617   30.0070   43.5808 H   0  0  0  0  0  0  0  0  0  0  0  0
   58.5927   29.5075   45.3314 H   0  0  0  0  0  0  0  0  0  0  0  0
   57.8930   27.7446   42.9386 H   0  0  0  0  0  0  0  0  0  0  0  0
   59.3761   27.6622   43.9597 H   0  0  0  0  0  0  0  0  0  0  0  0
   56.5950   26.7800   44.7530 H   0  0  0  0  0  0  0  0  0  0  0  0
   54.9162   24.4629   43.8834 H   0  0  0  0  0  0  0  0  0  0  0  0
   55.4349   22.8554   42.0431 H   0  0  0  0  0  0  0  0  0  0  0  0
   57.2428   21.1571   42.3377 H   0  0  0  0  0  0  0  0  0  0  0  0
   58.5358   21.0658   44.4734 H   0  0  0  0  0  0  0  0  0  0  0  0
   58.0285   22.6781   46.3126 H   0  0  0  0  0  0  0  0  0  0  0  0
  1  2  2  0
  2  3  1  0
  3  4  1  0
  4  5  2  0
  5  6  1  0
  6  7  2  0
  7  8  1  0
  8  9  1  0
  9 10  2  0
  9 11  2  0
  9 12  1  0
 12 13  1  0
 13 14  2  0
 13 15  2  0
 13 16  1  0
 16 17  2  0
 17 18  1  0
 18 19  2  0
 19 20  1  0
  7 21  1  0
 21 22  2  0
  2 23  1  0
 23 24  1  0
 24 25  1  0
 25 26  1  0
 26 27  1  0
 27 28  1  0
 28 29  2  0
 28 30  1  0
 30 31  1  0
 31 32  2  0
 31 33  2  0
 31 34  1  0
 34 35  2  0
 35 36  1  0
 36 37  2  0
 37 38  1  0
 38 39  2  0
 22  4  1  0
 39 34  1  0
 20 16  1  0
  3 40  1  0
  3 41  1  0
  5 42  1  0
  6 43  1  0
  8 44  1  0
 17 45  1  0
 18 46  1  0
 19 47  1  0
 21 48  1  0
 22 49  1  0
 24 50  1  0
 24 51  1  0
 25 52  1  0
 25 53  1  0
 26 54  1  0
 26 55  1  0
 27 56  1  0
 35 57  1  0
 36 58  1  0
 37 59  1  0
 38 60  1  0
 39 61  1  0
M  CHG  3  12  -1  23  -1  30  -1
M  END
>  <UniqueID>  (4) 
4

>  <SMILES>  (4) 
O=C(Cc1ccc(NS(=O)(=O)[N-]S(=O)(=O)c2cccs2)cc1)[N-]CCCNC(=O)[N-]S(=O)(=O)c1ccccc1

>  <Energy>  (4) 
82.57063042905862

>  <Genealogy>  (4) 
O=C(Cc1ccc(NS(=O)(=O)[N-]S(=O)(=O)c2cccs2)cc1)[N-]CCCNC(=O)[N-]S(=O)(=O)c1ccccc1 (protonated)
O=C(Cc1ccc(NS(=O)(=O)[N-]S(=O)(=O)c2cccs2)cc1)[N-]CCCNC(=O)[N-]S(=O)(=O)c1ccccc1 (3D coordinates assigned)
O=C(Cc1ccc(NS(=O)(=O)[N-]S(=O)(=O)c2cccs2)cc1)[N-]CCCNC(=O)[N-]S(=O)(=O)c1ccccc1 (optimized conformer: 82.57063042905862 kcal/mol)

>  <smiles>  (4) 
O=C(Cc1ccc(NS(=O)(=O)NS(=O)(=O)c2cccs2)cc1)NCCCNC(=O)NS(=O)(=O)c1ccccc1

>  <score_type>  (4) 
oracle

>  <origin>  (4) 
adg

>  <m_score__min__energy>  (4) 
-13.34

>  <m_primary>  (4) 
energy

$$$$
4:0
     RDKit          3D

 67 71  0  0  0  0  0  0  0  0999 V2000
   58.1330   32.6880   41.9850 O   0  0  0  0  0  0  0  0  0  0  0  0
   58.1410   32.5850   43.2430 C   0  0  0  0  0  0  0  0  0  0  0  0
   58.8850   33.5050   43.9870 C   0  0  0  0  0  0  0  0  0  0  0  0
   58.9080   33.4130   45.3810 C   0  0  0  0  0  0  0  0  0  0  0  0
   59.6430   34.3260   46.1520 C   0  0  0  0  0  0  0  0  0  0  0  0
   59.6530   34.2210   47.5450 C   0  0  0  0  0  0  0  0  0  0  0  0
   58.9300   33.2030   48.1810 C   0  0  0  0  0  0  0  0  0  0  0  0
   58.9410   33.1010   49.6160 C   0  0  0  0  0  0  0  0  0  0  0  0
   58.9490   33.0150   50.8180 C   0  0  0  0  0  0  0  0  0  0  0  0
   58.9600   32.9140   52.2550 C   0  0  0  0  0  0  0  0  0  0  0  0
   59.7880   33.7540   53.0120 C   0  0  0  0  0  0  0  0  0  0  0  0
   59.7970   33.6540   54.4060 C   0  0  0  0  0  0  0  0  0  0  0  0
   58.9800   32.7170   55.0480 C   0  0  0  0  0  0  0  0  0  0  0  0
   58.1530   31.8780   54.2930 C   0  0  0  0  0  0  0  0  0  0  0  0
   57.3600   30.9710   54.9160 F   0  0  0  0  0  0  0  0  0  0  0  0
   58.1420   31.9750   52.8980 C   0  0  0  0  0  0  0  0  0  0  0  0
   58.1940   32.2870   47.4180 C   0  0  0  0  0  0  0  0  0  0  0  0
   58.1790   32.3880   46.0180 C   0  0  0  0  0  0  0  0  0  0  0  0
   57.4480   31.4850   45.2370 C   0  0  0  0  0  0  0  0  0  0  0  0
   57.4300   31.5900   43.8720 N   0  0  0  0  0  0  0  0  0  0  0  0
   56.6160   30.6290   43.1050 C   0  0  0  0  0  0  0  0  0  0  0  0
   57.1160   29.1830   43.2850 C   0  0  0  0  0  0  0  0  0  0  0  0
   56.9860   28.6360   44.7240 C   0  0  0  0  0  0  0  0  0  0  0  0
   57.4720   27.2360   44.8640 N   0  0  0  0  0  0  0  0  0  0  0  0
   57.2370   26.7220   46.2360 C   0  0  0  0  0  0  0  0  0  0  0  0
   58.0520   27.5020   47.2830 C   0  0  0  0  0  0  0  0  0  0  0  0
   59.3770   27.8430   46.7550 N   0  0  0  0  0  0  0  0  0  0  0  0
   60.1270   28.9330   47.3250 C   0  0  0  0  0  0  0  0  0  0  0  0
   60.6790   29.9250   46.4990 C   0  0  0  0  0  0  0  0  0  0  0  0
   61.3770   30.9990   47.0540 C   0  0  0  0  0  0  0  0  0  0  0  0
   61.5350   31.0950   48.4380 C   0  0  0  0  0  0  0  0  0  0  0  0
   61.0060   30.1050   49.2830 C   0  0  0  0  0  0  0  0  0  0  0  0
   61.1270   30.2330   50.7810 C   0  0  0  0  0  0  0  0  0  0  0  0
   62.0310   29.3100   51.2770 F   0  0  0  0  0  0  0  0  0  0  0  0
   61.5650   31.4980   51.1320 F   0  0  0  0  0  0  0  0  0  0  0  0
   59.8910   30.0080   51.3590 F   0  0  0  0  0  0  0  0  0  0  0  0
   60.2800   29.0400   48.7190 C   0  0  0  0  0  0  0  0  0  0  0  0
   59.8970   27.0670   45.6270 C   0  0  0  0  0  0  0  0  0  0  0  0
   58.9010   27.0940   44.4500 C   0  0  0  0  0  0  0  0  0  0  0  0
   59.4505   34.2987   43.4769 H   0  0  0  0  0  0  0  0  0  0  0  0
   60.2130   35.1268   45.6583 H   0  0  0  0  0  0  0  0  0  0  0  0
   60.2304   34.9400   48.1447 H   0  0  0  0  0  0  0  0  0  0  0  0
   60.4306   34.4917   52.5092 H   0  0  0  0  0  0  0  0  0  0  0  0
   60.4476   34.3132   54.9995 H   0  0  0  0  0  0  0  0  0  0  0  0
   58.9878   32.6400   56.1453 H   0  0  0  0  0  0  0  0  0  0  0  0
   57.4916   31.3146   52.3056 H   0  0  0  0  0  0  0  0  0  0  0  0
   57.6269   31.4873   47.9169 H   0  0  0  0  0  0  0  0  0  0  0  0
   56.8803   30.6801   45.7267 H   0  0  0  0  0  0  0  0  0  0  0  0
   55.5733   30.6906   43.4500 H   0  0  0  0  0  0  0  0  0  0  0  0
   56.6960   30.8879   42.0389 H   0  0  0  0  0  0  0  0  0  0  0  0
   56.5340   28.5322   42.6159 H   0  0  0  0  0  0  0  0  0  0  0  0
   58.1903   29.1911   43.0487 H   0  0  0  0  0  0  0  0  0  0  0  0
   57.5724   29.2788   45.3969 H   0  0  0  0  0  0  0  0  0  0  0  0
   55.9161   28.6383   44.9798 H   0  0  0  0  0  0  0  0  0  0  0  0
   56.9030   26.6250   44.2340 H   0  0  0  0  0  0  0  0  0  0  0  0
   56.1672   26.8168   46.4739 H   0  0  0  0  0  0  0  0  0  0  0  0
   57.5558   25.6697   46.2674 H   0  0  0  0  0  0  0  0  0  0  0  0
   57.5167   28.4274   47.5419 H   0  0  0  0  0  0  0  0  0  0  0  0
   58.1771   26.8726   48.1764 H   0  0  0  0  0  0  0  0  0  0  0  0
   60.5607   29.8555   45.4076 H   0  0  0  0  0  0  0  0  0  0  0  0
   61.8041   31.7724   46.3987 H   0  0  0  0  0  0  0  0  0  0  0  0
   62.0764   31.9501   48.8689 H   0  0  0  0  0  0  0  0  0  0  0  0
   59.8270   28.2826   49.3756 H   0  0  0  0  0  0  0  0  0  0  0  0
   60.8547   27.4988   45.3011 H   0  0  0  0  0  0  0  0  0  0  0  0
   60.0414   26.0248   45.9478 H   0  0  0  0  0  0  0  0  0  0  0  0
   59.1582   27.9426   43.7991 H   0  0  0  0  0  0  0  0  0  0  0  0
   58.9884   26.1244   43.9378 H   0  0  0  0  0  0  0  0  0  0  0  0
  1  2  2  0
  2  3  1  0
  3  4  2  0
  4  5  1  0
  5  6  2  0
  6  7  1  0
  7  8  1  0
  8  9  3  0
  9 10  1  0
 10 11  2  0
 11 12  1  0
 12 13  2  0
 13 14  1  0
 14 15  1  0
 14 16  2  0
  7 17  2  0
 17 18  1  0
 18 19  2  0
 19 20  1  0
 20 21  1  0
 21 22  1  0
 22 23  1  0
 23 24  1  0
 24 25  1  0
 25 26  1  0
 26 27  1  0
 27 28  1  0
 28 29  2  0
 29 30  1  0
 30 31  2  0
 31 32  1  0
 32 33  1  0
 33 34  1  0
 33 35  1  0
 33 36  1  0
 32 37  2  0
 27 38  1  0
 38 39  1  0
 20  2  1  0
 39 24  1  0
 18  4  1  0
 37 28  1  0
 16 10  1  0
  3 40  1  0
  5 41  1  0
  6 42  1  0
 11 43  1  0
 12 44  1  0
 13 45  1  0
 16 46  1  0
 17 47  1  0
 19 48  1  0
 21 49  1  0
 21 50  1  0
 22 51  1  0
 22 52  1  0
 23 53  1  0
 23 54  1  0
 24 55  1  0
 25 56  1  0
 25 57  1  0
 26 58  1  0
 26 59  1  0
 29 60  1  0
 30 61  1  0
 31 62  1  0
 37 63  1  0
 38 64  1  0
 38 65  1  0
 39 66  1  0
 39 67  1  0
M  CHG  1  24   1
M  END
>  <UniqueID>  (5) 
5

>  <SMILES>  (5) 
O=c1cc2ccc(C#Cc3cccc(F)c3)cc2cn1CCC[NH+]1CCN(c2cccc(C(F)(F)F)c2)CC1

>  <Energy>  (5) 
85.50631204714773

>  <Genealogy>  (5) 
O=c1cc2ccc(C#Cc3cccc(F)c3)cc2cn1CCC[NH+]1CCN(c2cccc(C(F)(F)F)c2)CC1 (protonated)
O=c1cc2ccc(C#Cc3cccc(F)c3)cc2cn1CCC[NH+]1CCN(c2cccc(C(F)(F)F)c2)CC1 (3D coordinates assigned)
O=c1cc2ccc(C#Cc3cccc(F)c3)cc2cn1CCC[NH+]1CCN(c2cccc(C(F)(F)F)c2)CC1 (nonaromatic ring conformer: 85.50631204714773 kcal/mol)

>  <smiles>  (5) 
O=c1cc2ccc(C#Cc3cccc(F)c3)cc2cn1CCCN1CCN(c2cccc(C(F)(F)F)c2)CC1

>  <score_type>  (5) 
oracle

>  <origin>  (5) 
adg

>  <m_score__min__energy>  (5) 
-8.1400000000000006

>  <m_primary>  (5) 
energy

$$$$
5:0
     RDKit          3D

 37 40  0  0  0  0  0  0  0  0999 V2000
   55.1420   24.8250   47.9170 H   0  0  0  0  0  0  0  0  0  0  0  0
   56.1370   24.6460   47.8490 O   0  0  0  0  0  0  0  0  0  0  0  0
   56.9090   25.3130   46.9050 C   0  0  0  0  0  0  0  0  0  0  0  0
   58.2020   25.1470   46.7530 O   0  0  0  0  0  0  0  0  0  0  0  0
   58.6130   25.9400   45.7850 C   0  0  0  0  0  0  0  0  0  0  0  0
   59.6531   26.0271   45.4377 H   0  0  0  0  0  0  0  0  0  0  0  0
   57.5380   26.6490   45.2690 C   0  0  0  0  0  0  0  0  0  0  0  0
   57.6000   27.6750   44.2120 C   0  0  0  0  0  0  0  0  0  0  0  0
   57.8250   27.3130   43.0260 O   0  0  0  0  0  0  0  0  0  0  0  0
   57.3950   29.1070   44.4900 C   0  0  0  0  0  0  0  0  0  0  0  0
   58.6240   30.2560   44.5700 S   0  0  0  0  0  0  0  0  0  0  0  0
   57.5470   31.5330   44.8160 C   0  0  0  0  0  0  0  0  0  0  0  0
   57.8600   32.7800   45.0150 N   0  0  0  0  0  0  0  0  0  0  0  0
   58.5700   33.3220   46.1380 C   0  0  0  0  0  0  0  0  0  0  0  0
   58.5300   34.5660   46.3350 O   0  0  0  0  0  0  0  0  0  0  0  0
   59.4470   32.4860   46.9910 C   0  0  0  0  0  0  0  0  0  0  0  0
   58.8520   31.4580   47.7410 C   0  0  0  0  0  0  0  0  0  0  0  0
   57.7614   31.3191   47.7046 H   0  0  0  0  0  0  0  0  0  0  0  0
   59.6290   30.6120   48.5310 C   0  0  0  0  0  0  0  0  0  0  0  0
   59.1472   29.8131   49.1138 H   0  0  0  0  0  0  0  0  0  0  0  0
   61.0120   30.7720   48.5870 C   0  0  0  0  0  0  0  0  0  0  0  0
   61.6177   30.0939   49.2062 H   0  0  0  0  0  0  0  0  0  0  0  0
   61.6340   31.7940   47.8570 C   0  0  0  0  0  0  0  0  0  0  0  0
   63.0260   31.9610   47.9310 C   0  0  0  0  0  0  0  0  0  0  0  0
   63.6276   31.2761   48.5467 H   0  0  0  0  0  0  0  0  0  0  0  0
   63.6500   32.9920   47.2270 C   0  0  0  0  0  0  0  0  0  0  0  0
   64.7419   33.1130   47.2836 H   0  0  0  0  0  0  0  0  0  0  0  0
   62.8920   33.8690   46.4520 C   0  0  0  0  0  0  0  0  0  0  0  0
   63.3879   34.6847   45.9055 H   0  0  0  0  0  0  0  0  0  0  0  0
   61.5060   33.7170   46.3660 C   0  0  0  0  0  0  0  0  0  0  0  0
   60.9174   34.4198   45.7580 H   0  0  0  0  0  0  0  0  0  0  0  0
   60.8540   32.6700   47.0520 C   0  0  0  0  0  0  0  0  0  0  0  0
   56.2660   31.1060   44.8390 N   0  0  0  0  0  0  0  0  0  0  0  0
   56.1750   29.7630   44.6460 C   0  0  0  0  0  0  0  0  0  0  0  0
   55.2110   29.2340   44.6153 H   0  0  0  0  0  0  0  0  0  0  0  0
   56.4460   26.2480   46.0120 C   0  0  0  0  0  0  0  0  0  0  0  0
   55.1440   26.7230   45.9220 O   0  0  0  0  0  0  0  0  0  0  0  0
  1  2  1  0
  2  3  1  0
  3  4  1  0
  4  5  1  0
  5  6  1  0
  5  7  2  0
  7  8  1  0
  8  9  2  0
  8 10  1  0
 10 11  1  0
 11 12  1  0
 12 13  2  0
 13 14  1  0
 14 15  2  0
 14 16  1  0
 16 17  2  0
 17 18  1  0
 17 19  1  0
 19 20  1  0
 19 21  2  0
 21 22  1  0
 21 23  1  0
 23 24  2  0
 24 25  1  0
 24 26  1  0
 26 27  1  0
 26 28  2  0
 28 29  1  0
 28 30  1  0
 30 31  1  0
 30 32  2  0
 12 33  1  0
 33 34  1  0
 34 35  1  0
  7 36  1  0
 36 37  1  0
 36  3  2  0
 34 10  2  0
 32 16  1  0
 32 23  1  0
M  CHG  2  33  -1  37  -1
M  END
>  <UniqueID>  (6) 
6

>  <SMILES>  (6) 
O=C(c1c[n-]/c(=N/C(=O)c2cccc3ccccc23)s1)c1coc(O)c1[O-]

>  <Energy>  (6) 
119.97276147302908

>  <Genealogy>  (6) 
O=C(c1c[n-]c(=NC(=O)c2cccc3ccccc23)s1)c1coc(O)c1[O-] (protonated)
O=C(c1c[n-]/c(=N/C(=O)c2cccc3ccccc23)s1)c1coc(O)c1[O-] (cis-trans isomerization)
O=C(c1c[n-]/c(=N/C(=O)c2cccc3ccccc23)s1)c1coc(O)c1[O-] (3D coordinates assigned)
O=C(c1c[n-]/c(=N/C(=O)c2cccc3ccccc23)s1)c1coc(O)c1[O-] (optimized conformer: 119.97276147302908 kcal/mol)

>  <smiles>  (6) 
O=C(c1c[nH]c(=NC(=O)c2cccc3ccccc23)s1)c1coc(O)c1O

>  <score_type>  (6) 
oracle

>  <origin>  (6) 
adg

>  <m_score__min__energy>  (6) 
-13.92

>  <m_primary>  (6) 
energy

$$$$
6:0
     RDKit          3D

 65 69  0  0  0  0  0  0  0  0999 V2000
   56.6500   33.7680   45.9330 O   0  0  0  0  0  0  0  0  0  0  0  0
   57.6480   33.8720   45.1690 C   0  0  0  0  0  0  0  0  0  0  0  0
   57.7650   33.0080   43.9470 C   0  0  0  0  0  0  0  0  0  0  0  0
   57.6840   31.5350   44.2690 C   0  0  0  0  0  0  0  0  0  0  0  0
   58.2990   31.0260   45.4250 C   0  0  0  0  0  0  0  0  0  0  0  0
   58.2400   29.6610   45.7160 C   0  0  0  0  0  0  0  0  0  0  0  0
   57.5600   28.7770   44.8580 C   0  0  0  0  0  0  0  0  0  0  0  0
   57.4920   27.3270   45.1720 C   0  0  0  0  0  0  0  0  0  0  0  0
   57.7800   26.3670   44.1820 C   0  0  0  0  0  0  0  0  0  0  0  0
   57.7190   25.0030   44.4820 C   0  0  0  0  0  0  0  0  0  0  0  0
   57.3680   24.5820   45.7660 C   0  0  0  0  0  0  0  0  0  0  0  0
   57.0790   25.5240   46.7560 C   0  0  0  0  0  0  0  0  0  0  0  0
   57.1400   26.8900   46.4620 C   0  0  0  0  0  0  0  0  0  0  0  0
   56.9450   29.2890   43.6990 C   0  0  0  0  0  0  0  0  0  0  0  0
   57.0130   30.6540   43.4050 C   0  0  0  0  0  0  0  0  0  0  0  0
   58.7430   34.7250   45.5190 N   0  0  0  0  0  0  0  0  0  0  0  0
   59.7950   34.4000   46.4380 C   0  0  0  0  0  0  0  0  0  0  0  0
   59.5630   34.5480   47.8080 C   0  0  0  0  0  0  0  0  0  0  0  0
   60.5620   34.2360   48.7340 C   0  0  0  0  0  0  0  0  0  0  0  0
   61.8050   33.7370   48.3020 C   0  0  0  0  0  0  0  0  0  0  0  0
   62.8310   33.3980   49.2600 N   0  0  0  0  0  0  0  0  0  0  0  0
   62.7820   33.9300   50.6280 C   0  0  0  0  0  0  0  0  0  0  0  0
   63.2640   32.8790   51.6470 C   0  0  0  0  0  0  0  0  0  0  0  0
   64.3620   31.9990   51.1580 N   0  0  0  0  0  0  0  0  0  0  0  0
   63.9050   30.5990   51.0000 C   0  0  0  0  0  0  0  0  0  0  0  0
   62.4190   30.5200   50.7510 C   0  0  0  0  0  0  0  0  0  0  0  0
   61.9130   30.5610   49.4390 C   0  0  0  0  0  0  0  0  0  0  0  0
   60.5340   30.4920   49.2150 C   0  0  0  0  0  0  0  0  0  0  0  0
   59.6530   30.3790   50.2950 C   0  0  0  0  0  0  0  0  0  0  0  0
   60.1490   30.3400   51.6020 C   0  0  0  0  0  0  0  0  0  0  0  0
   61.5270   30.4140   51.8310 C   0  0  0  0  0  0  0  0  0  0  0  0
   65.0440   32.5340   49.9570 C   0  0  0  0  0  0  0  0  0  0  0  0
   64.0640   32.7470   48.7970 C   0  0  0  0  0  0  0  0  0  0  0  0
   62.0230   33.5580   46.9230 C   0  0  0  0  0  0  0  0  0  0  0  0
   61.0270   33.8890   45.9990 C   0  0  0  0  0  0  0  0  0  0  0  0
   56.9486   33.2631   43.2554 H   0  0  0  0  0  0  0  0  0  0  0  0
   58.7508   33.1976   43.4974 H   0  0  0  0  0  0  0  0  0  0  0  0
   58.8307   31.7071   46.1057 H   0  0  0  0  0  0  0  0  0  0  0  0
   58.7287   29.2744   46.6225 H   0  0  0  0  0  0  0  0  0  0  0  0
   58.0543   26.6924   43.1677 H   0  0  0  0  0  0  0  0  0  0  0  0
   57.9482   24.2595   43.7044 H   0  0  0  0  0  0  0  0  0  0  0  0
   57.3190   23.5079   45.9981 H   0  0  0  0  0  0  0  0  0  0  0  0
   56.8032   25.1913   47.7676 H   0  0  0  0  0  0  0  0  0  0  0  0
   56.9111   27.6279   47.2450 H   0  0  0  0  0  0  0  0  0  0  0  0
   56.4075   28.6102   43.0205 H   0  0  0  0  0  0  0  0  0  0  0  0
   56.5380   31.0406   42.4912 H   0  0  0  0  0  0  0  0  0  0  0  0
   58.5868   34.9128   48.1601 H   0  0  0  0  0  0  0  0  0  0  0  0
   60.3755   34.3815   49.8083 H   0  0  0  0  0  0  0  0  0  0  0  0
   63.4295   34.8169   50.6924 H   0  0  0  0  0  0  0  0  0  0  0  0
   61.7408   34.1950   50.8638 H   0  0  0  0  0  0  0  0  0  0  0  0
   63.6215   33.4082   52.5426 H   0  0  0  0  0  0  0  0  0  0  0  0
   62.4045   32.2226   51.8480 H   0  0  0  0  0  0  0  0  0  0  0  0
   64.4334   30.1458   50.1483 H   0  0  0  0  0  0  0  0  0  0  0  0
   64.1247   30.0600   51.9334 H   0  0  0  0  0  0  0  0  0  0  0  0
   62.6035   30.6475   48.5871 H   0  0  0  0  0  0  0  0  0  0  0  0
   60.1420   30.5267   48.1878 H   0  0  0  0  0  0  0  0  0  0  0  0
   58.5692   30.3207   50.1164 H   0  0  0  0  0  0  0  0  0  0  0  0
   59.4549   30.2511   52.4507 H   0  0  0  0  0  0  0  0  0  0  0  0
   61.9135   30.3891   52.8606 H   0  0  0  0  0  0  0  0  0  0  0  0
   65.5105   33.4972   50.2112 H   0  0  0  0  0  0  0  0  0  0  0  0
   65.8005   31.8022   49.6373 H   0  0  0  0  0  0  0  0  0  0  0  0
   64.5411   33.3812   48.0353 H   0  0  0  0  0  0  0  0  0  0  0  0
   63.8037   31.7654   48.3744 H   0  0  0  0  0  0  0  0  0  0  0  0
   62.9836   33.1549   46.5697 H   0  0  0  0  0  0  0  0  0  0  0  0
   61.2095   33.7484   44.9234 H   0  0  0  0  0  0  0  0  0  0  0  0
  1  2  2  0
  2  3  1  0
  3  4  1  0
  4  5  2  0
  5  6  1  0
  6  7  2  0
  7  8  1  0
  8  9  2  0
  9 10  1  0
 10 11  2  0
 11 12  1  0
 12 13  2  0
  7 14  1  0
 14 15  2  0
  2 16  1  0
 16 17  1  0
 17 18  2  0
 18 19  1  0
 19 20  2  0
 20 21  1  0
 21 22  1  0
 22 23  1  0
 23 24  1  0
 24 25  1  0
 25 26  1  0
 26 27  2  0
 27 28  1  0
 28 29  2  0
 29 30  1  0
 30 31  2  0
 24 32  1  0
 32 33  1  0
 20 34  1  0
 34 35  2  0
 15  4  1  0
 35 17  1  0
 13  8  1  0
 33 21  1  0
 31 26  1  0
  3 36  1  0
  3 37  1  0
  5 38  1  0
  6 39  1  0
  9 40  1  0
 10 41  1  0
 11 42  1  0
 12 43  1  0
 13 44  1  0
 14 45  1  0
 15 46  1  0
 18 47  1  0
 19 48  1  0
 22 49  1  0
 22 50  1  0
 23 51  1  0
 23 52  1  0
 25 53  1  0
 25 54  1  0
 27 55  1  0
 28 56  1  0
 29 57  1  0
 30 58  1  0
 31 59  1  0
 32 60  1  0
 32 61  1  0
 33 62  1  0
 33 63  1  0
 34 64  1  0
 35 65  1  0
M  CHG  1  16  -1
M  END
>  <UniqueID>  (7) 
7

>  <SMILES>  (7) 
O=C(Cc1ccc(-c2ccccc2)cc1)[N-]c1ccc(N2CCN(Cc3ccccc3)CC2)cc1

>  <Energy>  (7) 
92.07629248292407

>  <Genealogy>  (7) 
O=C(Cc1ccc(-c2ccccc2)cc1)[N-]c1ccc(N2CCN(Cc3ccccc3)CC2)cc1 (protonated)
O=C(Cc1ccc(-c2ccccc2)cc1)[N-]c1ccc(N2CCN(Cc3ccccc3)CC2)cc1 (3D coordinates assigned)
O=C(Cc1ccc(-c2ccccc2)cc1)[N-]c1ccc(N2CCN(Cc3ccccc3)CC2)cc1 (nonaromatic ring conformer: 92.07629248292407 kcal/mol)

>  <smiles>  (7) 
O=C(Cc1ccc(-c2ccccc2)cc1)Nc1ccc(N2CCN(Cc3ccccc3)CC2)cc1

>  <score_type>  (7) 
oracle

>  <origin>  (7) 
adg

>  <m_score__min__energy>  (7) 
-11.92

>  <m_primary>  (7) 
energy

$$$$
7:0
     RDKit          3D

 31 32  0  0  0  0  0  0  0  0999 V2000
   59.6180   28.4430   44.4920 C   0  0  0  0  0  0  0  0  0  0  0  0
   58.6030   27.6280   43.6970 C   0  0  0  0  0  0  0  0  0  0  0  0
   57.7670   26.7660   44.6150 C   0  0  0  0  0  0  0  0  0  0  0  0
   57.8470   25.3670   44.4970 C   0  0  0  0  0  0  0  0  0  0  0  0
   57.0310   24.5410   45.2740 C   0  0  0  0  0  0  0  0  0  0  0  0
   56.1130   25.1010   46.1620 C   0  0  0  0  0  0  0  0  0  0  0  0
   56.0110   26.4890   46.2810 C   0  0  0  0  0  0  0  0  0  0  0  0
   56.8390   27.3280   45.5240 C   0  0  0  0  0  0  0  0  0  0  0  0
   56.6900   28.7440   45.6610 N   0  0  0  0  0  0  0  0  0  0  0  0
   56.0180   29.5590   44.6930 C   0  0  0  0  0  0  0  0  0  0  0  0
   54.8040   29.3390   44.4270 O   0  0  0  0  0  0  0  0  0  0  0  0
   56.7450   30.6470   44.0010 C   0  0  0  0  0  0  0  0  0  0  0  0
   56.7160   30.7490   42.5970 C   0  0  0  0  0  0  0  0  0  0  0  0
   57.4070   31.7770   41.9470 C   0  0  0  0  0  0  0  0  0  0  0  0
   58.1330   32.7120   42.6890 C   0  0  0  0  0  0  0  0  0  0  0  0
   58.1700   32.6210   44.0810 C   0  0  0  0  0  0  0  0  0  0  0  0
   57.4820   31.5960   44.7360 C   0  0  0  0  0  0  0  0  0  0  0  0
   59.4405   28.3005   45.5682 H   0  0  0  0  0  0  0  0  0  0  0  0
   60.6351   28.1078   44.2406 H   0  0  0  0  0  0  0  0  0  0  0  0
   59.5104   29.5085   44.2406 H   0  0  0  0  0  0  0  0  0  0  0  0
   57.9425   28.3137   43.1461 H   0  0  0  0  0  0  0  0  0  0  0  0
   59.1461   26.9744   42.9986 H   0  0  0  0  0  0  0  0  0  0  0  0
   58.5580   24.9193   43.7870 H   0  0  0  0  0  0  0  0  0  0  0  0
   57.1127   23.4476   45.1852 H   0  0  0  0  0  0  0  0  0  0  0  0
   55.4684   24.4488   46.7695 H   0  0  0  0  0  0  0  0  0  0  0  0
   55.2762   26.9259   46.9732 H   0  0  0  0  0  0  0  0  0  0  0  0
   56.1463   30.0156   42.0075 H   0  0  0  0  0  0  0  0  0  0  0  0
   57.3787   31.8493   40.8497 H   0  0  0  0  0  0  0  0  0  0  0  0
   58.6754   33.5198   42.1760 H   0  0  0  0  0  0  0  0  0  0  0  0
   58.7420   33.3578   44.6641 H   0  0  0  0  0  0  0  0  0  0  0  0
   57.5163   31.5298   45.8335 H   0  0  0  0  0  0  0  0  0  0  0  0
  1  2  1  0
  2  3  1  0
  3  4  2  0
  4  5  1  0
  5  6  2  0
  6  7  1  0
  7  8  2  0
  8  9  1  0
  9 10  1  0
 10 11  2  0
 10 12  1  0
 12 13  2  0
 13 14  1  0
 14 15  2  0
 15 16  1  0
 16 17  2  0
  8  3  1  0
 17 12  1  0
  1 18  1  0
  1 19  1  0
  1 20  1  0
  2 21  1  0
  2 22  1  0
  4 23  1  0
  5 24  1  0
  6 25  1  0
  7 26  1  0
 13 27  1  0
 14 28  1  0
 15 29  1  0
 16 30  1  0
 17 31  1  0
M  CHG  1   9  -1
M  END
>  <UniqueID>  (8) 
8

>  <SMILES>  (8) 
CCc1ccccc1[N-]C(=O)c1ccccc1

>  <Energy>  (8) 
37.1593539859841

>  <Genealogy>  (8) 
CCc1ccccc1[N-]C(=O)c1ccccc1 (protonated)
CCc1ccccc1[N-]C(=O)c1ccccc1 (3D coordinates assigned)
CCc1ccccc1[N-]C(=O)c1ccccc1 (optimized conformer: 37.1593539859841 kcal/mol)

>  <smiles>  (8) 
CCc1ccccc1NC(=O)c1ccccc1

>  <score_type>  (8) 
oracle

>  <origin>  (8) 
adg

>  <m_score__min__energy>  (8) 
-8.1899999999999995

>  <m_primary>  (8) 
energy

$$$$
8:0
     RDKit          3D

 45 47  0  0  0  0  0  0  0  0999 V2000
   56.1500   29.8320   42.6600 O   0  0  0  0  0  0  0  0  0  0  0  0
   56.1600   30.0260   43.9050 C   0  0  0  0  0  0  0  0  0  0  0  0
   56.4980   31.3820   44.4430 C   0  0  0  0  0  0  0  0  0  0  0  0
   57.9690   32.0620   43.6050 S   0  0  0  0  0  0  0  0  0  0  0  0
   58.4890   33.0750   44.9900 C   0  0  0  0  0  0  0  0  0  0  0  0
   58.1240   32.7230   46.2920 C   0  0  0  0  0  0  0  0  0  0  0  0
   58.5160   33.5260   47.3700 C   0  0  0  0  0  0  0  0  0  0  0  0
   59.2760   34.6750   47.1470 C   0  0  0  0  0  0  0  0  0  0  0  0
   59.6200   35.0390   45.8410 C   0  0  0  0  0  0  0  0  0  0  0  0
   59.2240   34.2420   44.7660 C   0  0  0  0  0  0  0  0  0  0  0  0
   55.8100   28.9740   44.8110 N   0  0  0  0  0  0  0  0  0  0  0  0
   56.6960   28.0100   45.3900 C   0  0  0  0  0  0  0  0  0  0  0  0
   58.0860   28.2040   45.4140 C   0  0  0  0  0  0  0  0  0  0  0  0
   58.9180   27.2550   46.0130 C   0  0  0  0  0  0  0  0  0  0  0  0
   58.3780   26.1030   46.5820 C   0  0  0  0  0  0  0  0  0  0  0  0
   56.9890   25.8940   46.5640 C   0  0  0  0  0  0  0  0  0  0  0  0
   56.3910   24.7340   47.1600 N   0  0  0  0  0  0  0  0  0  0  0  0
   56.5980   23.3750   46.7660 C   0  0  0  0  0  0  0  0  0  0  0  0
   57.2870   22.5930   47.4800 O   0  0  0  0  0  0  0  0  0  0  0  0
   56.0150   22.8870   45.4740 C   0  0  0  0  0  0  0  0  0  0  0  0
   54.5190   23.0380   45.4900 C   0  0  0  0  0  0  0  0  0  0  0  0
   53.8730   23.7980   44.4970 C   0  0  0  0  0  0  0  0  0  0  0  0
   52.4840   23.9630   44.5270 C   0  0  0  0  0  0  0  0  0  0  0  0
   51.7280   23.3660   45.5430 C   0  0  0  0  0  0  0  0  0  0  0  0
   52.3640   22.6210   46.5400 C   0  0  0  0  0  0  0  0  0  0  0  0
   53.7560   22.4620   46.5190 C   0  0  0  0  0  0  0  0  0  0  0  0
   56.1490   26.8660   45.9920 C   0  0  0  0  0  0  0  0  0  0  0  0
   54.7710   26.6910   46.0160 O   0  0  0  0  0  0  0  0  0  0  0  0
   55.6454   32.0576   44.2801 H   0  0  0  0  0  0  0  0  0  0  0  0
   56.7143   31.2915   45.5177 H   0  0  0  0  0  0  0  0  0  0  0  0
   57.5288   31.8152   46.4701 H   0  0  0  0  0  0  0  0  0  0  0  0
   58.2244   33.2507   48.3943 H   0  0  0  0  0  0  0  0  0  0  0  0
   59.6037   35.2928   47.9961 H   0  0  0  0  0  0  0  0  0  0  0  0
   60.2031   35.9542   45.6611 H   0  0  0  0  0  0  0  0  0  0  0  0
   59.4912   34.5333   43.7395 H   0  0  0  0  0  0  0  0  0  0  0  0
   58.5216   29.1062   44.9597 H   0  0  0  0  0  0  0  0  0  0  0  0
   60.0056   27.4179   46.0357 H   0  0  0  0  0  0  0  0  0  0  0  0
   59.0400   25.3568   47.0456 H   0  0  0  0  0  0  0  0  0  0  0  0
   56.4308   23.4751   44.6426 H   0  0  0  0  0  0  0  0  0  0  0  0
   56.2673   21.8241   45.3449 H   0  0  0  0  0  0  0  0  0  0  0  0
   54.4627   24.2642   43.6939 H   0  0  0  0  0  0  0  0  0  0  0  0
   51.9852   24.5626   43.7513 H   0  0  0  0  0  0  0  0  0  0  0  0
   50.6343   23.4832   45.5566 H   0  0  0  0  0  0  0  0  0  0  0  0
   51.7707   22.1586   47.3426 H   0  0  0  0  0  0  0  0  0  0  0  0
   54.2533   21.8837   47.3117 H   0  0  0  0  0  0  0  0  0  0  0  0
  1  2  2  0
  2  3  1  0
  3  4  1  0
  4  5  1  0
  5  6  2  0
  6  7  1  0
  7  8  2  0
  8  9  1  0
  9 10  2  0
  2 11  1  0
 11 12  1  0
 12 13  2  0
 13 14  1  0
 14 15  2  0
 15 16  1  0
 16 17  1  0
 17 18  1  0
 18 19  2  0
 18 20  1  0
 20 21  1  0
 21 22  2  0
 22 23  1  0
 23 24  2  0
 24 25  1  0
 25 26  2  0
 16 27  2  0
 27 28  1  0
 10  5  1  0
 27 12  1  0
 26 21  1  0
  3 29  1  0
  3 30  1  0
  6 31  1  0
  7 32  1  0
  8 33  1  0
  9 34  1  0
 10 35  1  0
 13 36  1  0
 14 37  1  0
 15 38  1  0
 20 39  1  0
 20 40  1  0
 22 41  1  0
 23 42  1  0
 24 43  1  0
 25 44  1  0
 26 45  1  0
M  CHG  3  11  -1  17  -1  28  -1
M  END
>  <UniqueID>  (9) 
9

>  <SMILES>  (9) 
O=C(CSc1ccccc1)[N-]c1cccc([N-]C(=O)Cc2ccccc2)c1[O-]

>  <Energy>  (9) 
48.65502861207091

>  <Genealogy>  (9) 
O=C(CSc1ccccc1)[N-]c1cccc([N-]C(=O)Cc2ccccc2)c1[O-] (protonated)
O=C(CSc1ccccc1)[N-]c1cccc([N-]C(=O)Cc2ccccc2)c1[O-] (3D coordinates assigned)
O=C(CSc1ccccc1)[N-]c1cccc([N-]C(=O)Cc2ccccc2)c1[O-] (optimized conformer: 48.65502861207091 kcal/mol)

>  <smiles>  (9) 
O=C(CSc1ccccc1)Nc1cccc(NC(=O)Cc2ccccc2)c1O

>  <score_type>  (9) 
oracle

>  <origin>  (9) 
adg

>  <m_score__min__energy>  (9) 
-16.210000000000001

>  <m_primary>  (9) 
energy

$$$$
9:0
     RDKit          3D

 34 35  0  0  0  0  0  0  0  0999 V2000
   64.0830   32.7860   46.9230 N   0  0  0  0  0  0  0  0  0  0  0  0
   62.6930   32.9700   47.9330 S   0  0  0  0  0  0  0  0  0  0  0  0
   62.7230   34.3240   48.5850 O   0  0  0  0  0  0  0  0  0  0  0  0
   62.7040   31.9170   49.0060 O   0  0  0  0  0  0  0  0  0  0  0  0
   61.2350   32.8090   46.9580 C   0  0  0  0  0  0  0  0  0  0  0  0
   60.7960   33.8790   46.1690 C   0  0  0  0  0  0  0  0  0  0  0  0
   59.6340   33.7580   45.4020 C   0  0  0  0  0  0  0  0  0  0  0  0
   58.8970   32.5630   45.4170 C   0  0  0  0  0  0  0  0  0  0  0  0
   57.6540   32.4200   44.5790 C   0  0  0  0  0  0  0  0  0  0  0  0
   56.6580   31.5780   45.2450 N   0  0  0  0  0  0  0  0  0  0  0  0
   56.5580   30.0000   44.5140 S   0  0  0  0  0  0  0  0  0  0  0  0
   56.6730   30.1470   43.0220 O   0  0  0  0  0  0  0  0  0  0  0  0
   55.2230   29.3860   44.8280 O   0  0  0  0  0  0  0  0  0  0  0  0
   57.8600   28.9550   45.0790 C   0  0  0  0  0  0  0  0  0  0  0  0
   59.1150   29.0110   44.4550 C   0  0  0  0  0  0  0  0  0  0  0  0
   60.1600   28.1990   44.9060 C   0  0  0  0  0  0  0  0  0  0  0  0
   59.9570   27.3290   45.9800 C   0  0  0  0  0  0  0  0  0  0  0  0
   58.7080   27.2700   46.6060 C   0  0  0  0  0  0  0  0  0  0  0  0
   57.6610   28.0800   46.1570 C   0  0  0  0  0  0  0  0  0  0  0  0
   59.3320   31.4960   46.2200 C   0  0  0  0  0  0  0  0  0  0  0  0
   60.4940   31.6190   46.9870 C   0  0  0  0  0  0  0  0  0  0  0  0
   64.9040   33.1370   47.4650 H   0  0  0  0  0  0  0  0  0  0  0  0
   64.2280   31.7600   46.7860 H   0  0  0  0  0  0  0  0  0  0  0  0
   61.3679   34.8185   46.1527 H   0  0  0  0  0  0  0  0  0  0  0  0
   59.2954   34.6026   44.7839 H   0  0  0  0  0  0  0  0  0  0  0  0
   57.2222   33.4167   44.4052 H   0  0  0  0  0  0  0  0  0  0  0  0
   57.9300   31.9443   43.6263 H   0  0  0  0  0  0  0  0  0  0  0  0
   59.2773   29.6952   43.6091 H   0  0  0  0  0  0  0  0  0  0  0  0
   61.1431   28.2452   44.4146 H   0  0  0  0  0  0  0  0  0  0  0  0
   60.7799   26.6902   46.3333 H   0  0  0  0  0  0  0  0  0  0  0  0
   58.5493   26.5856   47.4524 H   0  0  0  0  0  0  0  0  0  0  0  0
   56.6789   28.0311   46.6501 H   0  0  0  0  0  0  0  0  0  0  0  0
   58.7557   30.5594   46.2454 H   0  0  0  0  0  0  0  0  0  0  0  0
   60.8281   30.7800   47.6151 H   0  0  0  0  0  0  0  0  0  0  0  0
  1  2  1  0
  2  3  2  0
  2  4  2  0
  2  5  1  0
  5  6  2  0
  6  7  1  0
  7  8  2  0
  8  9  1  0
  9 10  1  0
 10 11  1  0
 11 12  2  0
 11 13  2  0
 11 14  1  0
 14 15  2  0
 15 16  1  0
 16 17  2  0
 17 18  1  0
 18 19  2  0
  8 20  1  0
 20 21  2  0
 21  5  1  0
 19 14  1  0
  1 22  1  0
  1 23  1  0
  6 24  1  0
  7 25  1  0
  9 26  1  0
  9 27  1  0
 15 28  1  0
 16 29  1  0
 17 30  1  0
 18 31  1  0
 19 32  1  0
 20 33  1  0
 21 34  1  0
M  CHG  1  10  -1
M  END
>  <UniqueID>  (10) 
10

>  <SMILES>  (10) 
NS(=O)(=O)c1ccc(C[N-]S(=O)(=O)c2ccccc2)cc1

>  <Energy>  (10) 
31.509622250834976

>  <Genealogy>  (10) 
NS(=O)(=O)c1ccc(C[N-]S(=O)(=O)c2ccccc2)cc1 (protonated)
NS(=O)(=O)c1ccc(C[N-]S(=O)(=O)c2ccccc2)cc1 (3D coordinates assigned)
NS(=O)(=O)c1ccc(C[N-]S(=O)(=O)c2ccccc2)cc1 (optimized conformer: 31.509622250834976 kcal/mol)

>  <smiles>  (10) 
NS(=O)(=O)c1ccc(CNS(=O)(=O)c2ccccc2)cc1

>  <score_type>  (10) 
oracle

>  <origin>  (10) 
adg

>  <m_score__min__energy>  (10) 
-9.7400000000000002

>  <m_primary>  (10) 
energy

$$$$
10:0
     RDKit          3D

 34 36  0  0  0  0  0  0  0  0999 V2000
   59.5560   29.9010   46.8410 C   0  0  0  0  0  0  0  0  0  0  0  0
   58.9910   30.7480   45.9650 C   0  0  0  0  0  0  0  0  0  0  0  0
   58.2250   30.4250   44.8310 C   0  0  0  0  0  0  0  0  0  0  0  0
   57.9460   29.2390   44.2550 C   0  0  0  0  0  0  0  0  0  0  0  0
   57.3860   28.0600   44.9430 C   0  0  0  0  0  0  0  0  0  0  0  0
   56.0180   27.9800   45.2520 C   0  0  0  0  0  0  0  0  0  0  0  0
   55.1440   28.9950   44.8790 O   0  0  0  0  0  0  0  0  0  0  0  0
   55.5370   26.9020   45.9250 N   0  0  0  0  0  0  0  0  0  0  0  0
   56.3630   25.9010   46.3240 C   0  0  0  0  0  0  0  0  0  0  0  0
   55.8960   24.9110   46.9430 O   0  0  0  0  0  0  0  0  0  0  0  0
   57.6930   25.9690   46.0610 N   0  0  0  0  0  0  0  0  0  0  0  0
   58.2230   27.0260   45.3900 C   0  0  0  0  0  0  0  0  0  0  0  0
   59.4620   27.0610   45.1690 O   0  0  0  0  0  0  0  0  0  0  0  0
   57.7630   31.6290   44.3220 C   0  0  0  0  0  0  0  0  0  0  0  0
   58.2770   32.6280   45.1200 C   0  0  0  0  0  0  0  0  0  0  0  0
   58.0490   34.0930   44.9080 C   0  0  0  0  0  0  0  0  0  0  0  0
   59.0320   32.0970   46.1060 N   0  0  0  0  0  0  0  0  0  0  0  0
   59.6890   32.8460   47.1430 C   0  0  0  0  0  0  0  0  0  0  0  0
   61.0040   33.2930   46.9690 C   0  0  0  0  0  0  0  0  0  0  0  0
   61.6360   34.0080   47.9870 C   0  0  0  0  0  0  0  0  0  0  0  0
   60.9450   34.2670   49.1720 C   0  0  0  0  0  0  0  0  0  0  0  0
   59.6670   33.8250   49.3270 N   0  0  0  0  0  0  0  0  0  0  0  0
   59.0300   33.1250   48.3490 C   0  0  0  0  0  0  0  0  0  0  0  0
   57.7520   32.7170   48.5440 F   0  0  0  0  0  0  0  0  0  0  0  0
   60.1338   30.2932   47.6909 H   0  0  0  0  0  0  0  0  0  0  0  0
   59.4410   28.8151   46.7085 H   0  0  0  0  0  0  0  0  0  0  0  0
   58.1537   29.1415   43.1792 H   0  0  0  0  0  0  0  0  0  0  0  0
   57.1099   31.7617   43.4469 H   0  0  0  0  0  0  0  0  0  0  0  0
   57.9706   34.5967   45.8828 H   0  0  0  0  0  0  0  0  0  0  0  0
   58.8919   34.5172   44.3428 H   0  0  0  0  0  0  0  0  0  0  0  0
   57.1170   34.2410   44.3428 H   0  0  0  0  0  0  0  0  0  0  0  0
   61.5383   33.0809   46.0312 H   0  0  0  0  0  0  0  0  0  0  0  0
   62.6686   34.3641   47.8571 H   0  0  0  0  0  0  0  0  0  0  0  0
   61.4339   34.8289   49.9814 H   0  0  0  0  0  0  0  0  0  0  0  0
  1  2  2  0
  2  3  1  0
  3  4  2  3
  4  5  1  0
  5  6  2  0
  6  7  1  0
  6  8  1  0
  8  9  1  0
  9 10  2  0
  9 11  1  0
 11 12  1  0
 12 13  2  0
  3 14  1  0
 14 15  2  0
 15 16  1  0
 15 17  1  0
 17 18  1  0
 18 19  2  0
 19 20  1  0
 20 21  2  0
 21 22  1  0
 22 23  2  0
 23 24  1  0
 17  2  1  0
 23 18  1  0
 12  5  1  0
  1 25  1  0
  1 26  1  0
  4 27  1  0
 14 28  1  0
 16 29  1  0
 16 30  1  0
 16 31  1  0
 19 32  1  0
 20 33  1  0
 21 34  1  0
M  CHG  3   7  -1   8  -1  11  -1
M  END
>  <UniqueID>  (11) 
11

>  <SMILES>  (11) 
C=c1c(=Cc2c([O-])[n-]c(=O)[n-]c2=O)cc(C)n1-c1cccnc1F

>  <Energy>  (11) 
87.4332693448512

>  <Genealogy>  (11) 
C=c1c(=Cc2c([O-])[n-]c(=O)[n-]c2=O)cc(C)n1-c1cccnc1F (protonated)
C=c1c(=Cc2c([O-])[n-]c(=O)[n-]c2=O)cc(C)n1-c1cccnc1F (3D coordinates assigned)
C=c1c(=Cc2c([O-])[n-]c(=O)[n-]c2=O)cc(C)n1-c1cccnc1F (optimized conformer: 87.4332693448512 kcal/mol)

>  <smiles>  (11) 
C=c1c(=Cc2c(O)[nH]c(=O)[nH]c2=O)cc(C)n1-c1cccnc1F

>  <score_type>  (11) 
oracle

>  <origin>  (11) 
adg

>  <m_score__min__energy>  (11) 
-15.08

>  <m_primary>  (11) 
energy

$$$$
11:0
     RDKit          3D

 56 59  0  0  0  0  0  0  0  0999 V2000
   61.0450   26.8800   50.2240 O   0  0  0  0  0  0  0  0  0  0  0  0
   60.6410   28.0720   50.1370 C   0  0  0  0  0  0  0  0  0  0  0  0
   60.8610   29.0060   51.2870 C   0  0  0  0  0  0  0  0  0  0  0  0
   60.1130   30.2840   51.0760 C   0  0  0  0  0  0  0  0  0  0  0  0
   59.1190   30.6380   51.9310 N   0  0  0  0  0  0  0  0  0  0  0  0
   58.4420   31.8010   51.7700 C   0  0  0  0  0  0  0  0  0  0  0  0
   57.5240   32.1070   52.5730 O   0  0  0  0  0  0  0  0  0  0  0  0
   58.7680   32.6580   50.7170 C   0  0  0  0  0  0  0  0  0  0  0  0
   59.7970   32.2850   49.8360 C   0  0  0  0  0  0  0  0  0  0  0  0
   60.1890   33.1260   48.7280 N   0  0  0  0  0  0  0  0  0  0  0  0
   59.6240   34.4710   48.5600 C   0  0  0  0  0  0  0  0  0  0  0  0
   59.6290   34.8600   47.0800 C   0  0  0  0  0  0  0  0  0  0  0  0
   60.9170   34.6910   46.5210 O   0  0  0  0  0  0  0  0  0  0  0  0
   61.2550   33.3170   46.5180 C   0  0  0  0  0  0  0  0  0  0  0  0
   61.3820   32.7820   47.9470 C   0  0  0  0  0  0  0  0  0  0  0  0
   60.4430   31.1050   50.0440 N   0  0  0  0  0  0  0  0  0  0  0  0
   60.0100   28.5450   48.9330 N   0  0  0  0  0  0  0  0  0  0  0  0
   59.4770   27.6870   47.9080 C   0  0  0  0  0  0  0  0  0  0  0  0
   60.3030   26.7080   47.3370 C   0  0  0  0  0  0  0  0  0  0  0  0
   59.8200   25.8830   46.3190 C   0  0  0  0  0  0  0  0  0  0  0  0
   58.5110   26.0340   45.8520 C   0  0  0  0  0  0  0  0  0  0  0  0
   57.6690   27.0220   46.3950 C   0  0  0  0  0  0  0  0  0  0  0  0
   56.2820   27.1930   45.8960 C   0  0  0  0  0  0  0  0  0  0  0  0
   55.4390   26.2660   46.0490 O   0  0  0  0  0  0  0  0  0  0  0  0
   55.8970   28.4040   45.2350 N   0  0  0  0  0  0  0  0  0  0  0  0
   56.6100   28.9680   44.0970 C   0  0  0  0  0  0  0  0  0  0  0  0
   57.2030   30.3020   44.4580 C   0  0  0  0  0  0  0  0  0  0  0  0
   57.7550   30.5190   45.7310 C   0  0  0  0  0  0  0  0  0  0  0  0
   58.3090   31.7610   46.0590 C   0  0  0  0  0  0  0  0  0  0  0  0
   58.3130   32.7950   45.1210 C   0  0  0  0  0  0  0  0  0  0  0  0
   57.7710   32.5870   43.8500 C   0  0  0  0  0  0  0  0  0  0  0  0
   57.2200   31.3440   43.5160 C   0  0  0  0  0  0  0  0  0  0  0  0
   58.1670   27.8540   47.4170 C   0  0  0  0  0  0  0  0  0  0  0  0
   60.5080   28.5289   52.2132 H   0  0  0  0  0  0  0  0  0  0  0  0
   61.9351   29.2312   51.3613 H   0  0  0  0  0  0  0  0  0  0  0  0
   58.2294   33.6073   50.5797 H   0  0  0  0  0  0  0  0  0  0  0  0
   58.5902   34.4813   48.9358 H   0  0  0  0  0  0  0  0  0  0  0  0
   60.2336   35.1917   49.1247 H   0  0  0  0  0  0  0  0  0  0  0  0
   58.9141   34.2240   46.5375 H   0  0  0  0  0  0  0  0  0  0  0  0
   59.3426   35.9185   46.9925 H   0  0  0  0  0  0  0  0  0  0  0  0
   60.4702   32.7543   45.9913 H   0  0  0  0  0  0  0  0  0  0  0  0
   62.2228   33.1945   46.0097 H   0  0  0  0  0  0  0  0  0  0  0  0
   61.4924   31.6880   47.9163 H   0  0  0  0  0  0  0  0  0  0  0  0
   62.2637   33.2369   48.4220 H   0  0  0  0  0  0  0  0  0  0  0  0
   60.0060   29.5780   48.7600 H   0  0  0  0  0  0  0  0  0  0  0  0
   61.3370   26.5893   47.6929 H   0  0  0  0  0  0  0  0  0  0  0  0
   60.4718   25.1116   45.8831 H   0  0  0  0  0  0  0  0  0  0  0  0
   58.1365   25.3757   45.0543 H   0  0  0  0  0  0  0  0  0  0  0  0
   57.4163   28.2819   43.7984 H   0  0  0  0  0  0  0  0  0  0  0  0
   55.9029   29.1053   43.2656 H   0  0  0  0  0  0  0  0  0  0  0  0
   57.7517   29.7080   46.4742 H   0  0  0  0  0  0  0  0  0  0  0  0
   58.7420   31.9231   47.0571 H   0  0  0  0  0  0  0  0  0  0  0  0
   58.7427   33.7732   45.3824 H   0  0  0  0  0  0  0  0  0  0  0  0
   57.7772   33.4013   43.1105 H   0  0  0  0  0  0  0  0  0  0  0  0
   56.7990   31.1828   42.5126 H   0  0  0  0  0  0  0  0  0  0  0  0
   57.5257   28.6431   47.8365 H   0  0  0  0  0  0  0  0  0  0  0  0
  1  2  2  0
  2  3  1  0
  3  4  1  0
  4  5  2  0
  5  6  1  0
  6  7  2  0
  6  8  1  0
  8  9  2  0
  9 10  1  0
 10 11  1  0
 11 12  1  0
 12 13  1  0
 13 14  1  0
 14 15  1  0
  9 16  1  0
  2 17  1  0
 17 18  1  0
 18 19  2  0
 19 20  1  0
 20 21  2  0
 21 22  1  0
 22 23  1  0
 23 24  2  0
 23 25  1  0
 25 26  1  0
 26 27  1  0
 27 28  2  0
 28 29  1  0
 29 30  2  0
 30 31  1  0
 31 32  2  0
 22 33  2  0
 16  4  1  0
 33 18  1  0
 15 10  1  0
 32 27  1  0
  3 34  1  0
  3 35  1  0
  8 36  1  0
 11 37  1  0
 11 38  1  0
 12 39  1  0
 12 40  1  0
 14 41  1  0
 14 42  1  0
 15 43  1  0
 15 44  1  0
 17 45  1  0
 19 46  1  0
 20 47  1  0
 21 48  1  0
 26 49  1  0
 26 50  1  0
 28 51  1  0
 29 52  1  0
 30 53  1  0
 31 54  1  0
 32 55  1  0
 33 56  1  0
M  CHG  2  16  -1  25  -1
M  END
>  <UniqueID>  (12) 
12

>  <SMILES>  (12) 
O=C(Cc1nc(=O)cc(N2CCOCC2)[n-]1)Nc1cccc(C(=O)[N-]Cc2ccccc2)c1

>  <Energy>  (12) 
64.3099174946467

>  <Genealogy>  (12) 
O=C(Cc1nc(=O)cc(N2CCOCC2)[n-]1)Nc1cccc(C(=O)[N-]Cc2ccccc2)c1 (protonated)
O=C(Cc1nc(=O)cc(N2CCOCC2)[n-]1)Nc1cccc(C(=O)[N-]Cc2ccccc2)c1 (3D coordinates assigned)
O=C(Cc1nc(=O)cc(N2CCOCC2)[n-]1)Nc1cccc(C(=O)[N-]Cc2ccccc2)c1 (nonaromatic ring conformer: 64.3099174946467 kcal/mol)

>  <smiles>  (12) 
O=C(Cc1nc(=O)cc(N2CCOCC2)[nH]1)Nc1cccc(C(=O)NCc2ccccc2)c1

>  <score_type>  (12) 
oracle

>  <origin>  (12) 
adg

>  <m_score__min__energy>  (12) 
-12.52

>  <m_primary>  (12) 
energy

$$$$
12:0
     RDKit          3D

 49 51  0  0  0  0  0  0  0  0999 V2000
   56.2210   24.6290   45.1180 C   0  0  0  0  0  0  0  0  0  0  0  0
   56.6430   26.0120   45.3190 N   0  0  0  0  0  0  0  0  0  0  0  0
   57.2910   26.4350   46.5230 C   0  0  0  0  0  0  0  0  0  0  0  0
   57.4730   25.6170   47.4680 O   0  0  0  0  0  0  0  0  0  0  0  0
   57.7190   27.7630   46.6390 O   0  0  0  0  0  0  0  0  0  0  0  0
   59.0150   28.2080   46.2370 C   0  0  0  0  0  0  0  0  0  0  0  0
   59.6430   29.0470   47.3100 C   0  0  0  0  0  0  0  0  0  0  0  0
   59.0300   29.2920   48.5390 C   0  0  0  0  0  0  0  0  0  0  0  0
   60.0780   30.2290   49.4630 S   0  0  0  0  0  0  0  0  0  0  0  0
   61.2660   30.2690   48.2620 C   0  0  0  0  0  0  0  0  0  0  0  0
   62.4080   30.8900   48.3310 N   0  0  0  0  0  0  0  0  0  0  0  0
   62.5990   32.3030   48.1500 C   0  0  0  0  0  0  0  0  0  0  0  0
   63.7680   32.7680   48.2160 O   0  0  0  0  0  0  0  0  0  0  0  0
   61.4550   33.2290   47.9530 C   0  0  0  0  0  0  0  0  0  0  0  0
   60.7100   33.6800   49.0540 C   0  0  0  0  0  0  0  0  0  0  0  0
   59.6410   34.5630   48.8710 C   0  0  0  0  0  0  0  0  0  0  0  0
   59.3010   34.9980   47.5880 C   0  0  0  0  0  0  0  0  0  0  0  0
   60.0210   34.5430   46.4740 C   0  0  0  0  0  0  0  0  0  0  0  0
   59.6450   34.9700   45.0820 C   0  0  0  0  0  0  0  0  0  0  0  0
   58.3180   34.5400   44.7760 O   0  0  0  0  0  0  0  0  0  0  0  0
   57.9150   33.2080   44.5840 C   0  0  0  0  0  0  0  0  0  0  0  0
   57.6350   32.6770   43.3090 C   0  0  0  0  0  0  0  0  0  0  0  0
   57.2300   31.3450   43.1650 C   0  0  0  0  0  0  0  0  0  0  0  0
   56.9730   30.8810   41.9160 F   0  0  0  0  0  0  0  0  0  0  0  0
   57.1010   30.5120   44.2980 C   0  0  0  0  0  0  0  0  0  0  0  0
   56.6840   29.0920   44.1650 C   0  0  0  0  0  0  0  0  0  0  0  0
   55.5520   28.6010   44.8800 N   0  0  0  0  0  0  0  0  0  0  0  0
   57.3280   28.3010   43.4220 O   0  0  0  0  0  0  0  0  0  0  0  0
   57.3920   31.0470   45.5700 C   0  0  0  0  0  0  0  0  0  0  0  0
   57.8010   32.3780   45.7060 C   0  0  0  0  0  0  0  0  0  0  0  0
   58.0750   32.8680   46.9450 F   0  0  0  0  0  0  0  0  0  0  0  0
   61.0900   33.6510   46.6610 C   0  0  0  0  0  0  0  0  0  0  0  0
   60.8810   29.5930   47.1580 N   0  0  0  0  0  0  0  0  0  0  0  0
   56.0733   24.1451   46.0947 H   0  0  0  0  0  0  0  0  0  0  0  0
   55.2768   24.6120   44.5539 H   0  0  0  0  0  0  0  0  0  0  0  0
   56.9949   24.0878   44.5539 H   0  0  0  0  0  0  0  0  0  0  0  0
   56.4560   26.7190   44.5710 H   0  0  0  0  0  0  0  0  0  0  0  0
   59.6531   27.3333   46.0425 H   0  0  0  0  0  0  0  0  0  0  0  0
   58.9137   28.8161   45.3260 H   0  0  0  0  0  0  0  0  0  0  0  0
   58.0367   28.9354   48.8491 H   0  0  0  0  0  0  0  0  0  0  0  0
   60.9685   33.3369   50.0666 H   0  0  0  0  0  0  0  0  0  0  0  0
   59.0663   34.9159   49.7400 H   0  0  0  0  0  0  0  0  0  0  0  0
   58.4654   35.7001   47.4509 H   0  0  0  0  0  0  0  0  0  0  0  0
   59.6970   36.0665   45.0118 H   0  0  0  0  0  0  0  0  0  0  0  0
   60.3443   34.5143   44.3655 H   0  0  0  0  0  0  0  0  0  0  0  0
   57.7357   33.3152   42.4188 H   0  0  0  0  0  0  0  0  0  0  0  0
   55.6770   28.0620   45.7680 H   0  0  0  0  0  0  0  0  0  0  0  0
   57.2965   30.4121   46.4632 H   0  0  0  0  0  0  0  0  0  0  0  0
   61.6474   33.2786   45.7888 H   0  0  0  0  0  0  0  0  0  0  0  0
  1  2  1  0
  2  3  1  0
  3  4  2  0
  3  5  1  0
  5  6  1  0
  6  7  1  0
  7  8  2  0
  8  9  1  0
  9 10  1  0
 10 11  2  3
 11 12  1  0
 12 13  2  0
 12 14  1  0
 14 15  2  0
 15 16  1  0
 16 17  2  0
 17 18  1  0
 18 19  1  0
 19 20  1  0
 20 21  1  0
 21 22  2  0
 22 23  1  0
 23 24  1  0
 23 25  2  0
 25 26  1  0
 26 27  1  0
 26 28  2  0
 25 29  1  0
 29 30  2  0
 30 31  1  0
 18 32  2  0
 10 33  1  0
 33  7  1  0
 32 14  1  0
 30 21  1  0
  1 34  1  0
  1 35  1  0
  1 36  1  0
  2 37  1  0
  6 38  1  0
  6 39  1  0
  8 40  1  0
 15 41  1  0
 16 42  1  0
 17 43  1  0
 19 44  1  0
 19 45  1  0
 22 46  1  0
 27 47  1  0
 29 48  1  0
 32 49  1  0
M  CHG  2  27  -1  33  -1
M  END
>  <UniqueID>  (13) 
13

>  <SMILES>  (13) 
CNC(=O)OCc1csc(=NC(=O)c2cccc(COc3cc(F)c(C([NH-])=O)cc3F)c2)[n-]1

>  <Energy>  (13) 
85.8155833852669

>  <Genealogy>  (13) 
CNC(=O)OCc1csc(=NC(=O)c2cccc(COc3cc(F)c(C([NH-])=O)cc3F)c2)[n-]1 (protonated)
CNC(=O)OCc1csc(=NC(=O)c2cccc(COc3cc(F)c(C([NH-])=O)cc3F)c2)[n-]1 (3D coordinates assigned)
CNC(=O)OCc1csc(=NC(=O)c2cccc(COc3cc(F)c(C([NH-])=O)cc3F)c2)[n-]1 (optimized conformer: 85.8155833852669 kcal/mol)

>  <smiles>  (13) 
CNC(=O)OCc1csc(=NC(=O)c2cccc(COc3cc(F)c(C(N)=O)cc3F)c2)[nH]1

>  <score_type>  (13) 
oracle

>  <origin>  (13) 
adg

>  <m_score__min__energy>  (13) 
-12.300000000000001

>  <m_primary>  (13) 
energy

$$$$
13:0
     RDKit          3D

 43 45  0  0  0  0  0  0  0  0999 V2000
   61.2260   33.8760   46.5490 C   0  0  0  0  0  0  0  0  0  0  0  0
   59.8630   34.4130   46.4090 C   0  0  0  0  0  0  0  0  0  0  0  0
   59.6110   35.3310   45.2400 C   0  0  0  0  0  0  0  0  0  0  0  0
   58.8480   34.1590   47.2150 C   0  0  0  0  0  0  0  0  0  0  0  0
   57.5310   33.6260   46.7840 C   0  0  0  0  0  0  0  0  0  0  0  0
   57.6850   32.4460   45.9160 C   0  0  0  0  0  0  0  0  0  0  0  0
   57.2490   32.5480   44.6110 C   0  0  0  0  0  0  0  0  0  0  0  0
   57.3500   31.4900   43.7250 C   0  0  0  0  0  0  0  0  0  0  0  0
   57.8910   30.2830   44.1080 C   0  0  0  0  0  0  0  0  0  0  0  0
   58.3280   30.1760   45.4090 C   0  0  0  0  0  0  0  0  0  0  0  0
   58.9080   29.1020   46.0670 C   0  0  0  0  0  0  0  0  0  0  0  0
   59.2090   27.7550   45.5110 C   0  0  0  0  0  0  0  0  0  0  0  0
   57.9520   27.1910   44.9050 C   0  0  0  0  0  0  0  0  0  0  0  0
   57.5000   25.9710   45.6490 C   0  0  0  0  0  0  0  0  0  0  0  0
   58.2370   24.8950   45.9600 N   0  0  0  0  0  0  0  0  0  0  0  0
   57.4260   24.0570   46.6220 C   0  0  0  0  0  0  0  0  0  0  0  0
   56.1800   24.6000   46.7300 N   0  0  0  0  0  0  0  0  0  0  0  0
   56.2080   25.8140   46.1190 C   0  0  0  0  0  0  0  0  0  0  0  0
   55.1550   26.7180   45.9910 O   0  0  0  0  0  0  0  0  0  0  0  0
   59.1420   29.5550   47.3500 C   0  0  0  0  0  0  0  0  0  0  0  0
   58.7310   30.8300   47.4720 N   0  0  0  0  0  0  0  0  0  0  0  0
   58.2260   31.2450   46.3040 C   0  0  0  0  0  0  0  0  0  0  0  0
   61.4738   33.7784   47.6163 H   0  0  0  0  0  0  0  0  0  0  0  0
   61.2823   32.8885   46.0677 H   0  0  0  0  0  0  0  0  0  0  0  0
   61.9407   34.5598   46.0677 H   0  0  0  0  0  0  0  0  0  0  0  0
   59.3368   36.3298   45.6106 H   0  0  0  0  0  0  0  0  0  0  0  0
   60.5223   35.4043   44.6282 H   0  0  0  0  0  0  0  0  0  0  0  0
   58.7900   34.9288   44.6282 H   0  0  0  0  0  0  0  0  0  0  0  0
   58.9892   34.3575   48.2877 H   0  0  0  0  0  0  0  0  0  0  0  0
   56.9515   33.3416   47.6747 H   0  0  0  0  0  0  0  0  0  0  0  0
   57.0113   34.4095   46.2130 H   0  0  0  0  0  0  0  0  0  0  0  0
   56.8095   33.4954   44.2658 H   0  0  0  0  0  0  0  0  0  0  0  0
   56.9906   31.6157   42.6930 H   0  0  0  0  0  0  0  0  0  0  0  0
   57.9705   29.4408   43.4048 H   0  0  0  0  0  0  0  0  0  0  0  0
   59.9871   27.8391   44.7380 H   0  0  0  0  0  0  0  0  0  0  0  0
   59.5698   27.0915   46.3108 H   0  0  0  0  0  0  0  0  0  0  0  0
   57.1592   27.9524   44.9465 H   0  0  0  0  0  0  0  0  0  0  0  0
   58.1603   26.9095   43.8622 H   0  0  0  0  0  0  0  0  0  0  0  0
   57.7226   23.0752   47.0197 H   0  0  0  0  0  0  0  0  0  0  0  0
   55.3350   24.1730   47.2000 H   0  0  0  0  0  0  0  0  0  0  0  0
   55.1580   27.4870   45.3360 H   0  0  0  0  0  0  0  0  0  0  0  0
   59.5980   28.9601   48.1550 H   0  0  0  0  0  0  0  0  0  0  0  0
   58.7940   31.4000   48.3300 H   0  0  0  0  0  0  0  0  0  0  0  0
  1  2  1  0
  2  3  1  0
  2  4  2  3
  4  5  1  0
  5  6  1  0
  6  7  2  0
  7  8  1  0
  8  9  2  0
  9 10  1  0
 10 11  1  0
 11 12  1  0
 12 13  1  0
 13 14  1  0
 14 15  1  0
 15 16  2  0
 16 17  1  0
 17 18  1  0
 18 19  1  0
 11 20  2  0
 20 21  1  0
 21 22  1  0
 22  6  1  0
 22 10  2  0
 18 14  2  0
  1 23  1  0
  1 24  1  0
  1 25  1  0
  3 26  1  0
  3 27  1  0
  3 28  1  0
  4 29  1  0
  5 30  1  0
  5 31  1  0
  7 32  1  0
  8 33  1  0
  9 34  1  0
 12 35  1  0
 12 36  1  0
 13 37  1  0
 13 38  1  0
 16 39  1  0
 17 40  1  0
 19 41  1  0
 20 42  1  0
 21 43  1  0
M  END
>  <smiles>  (14) 
CC(C)=CCc1cccc2c(CCc3nc[nH]c3O)c[nH]c12

>  <score_type>  (14) 
oracle

>  <origin>  (14) 
adg

>  <m_score__min__energy>  (14) 
-8.3499999999999996

>  <m_primary>  (14) 
energy

$$$$
14:0
     RDKit          3D

 37 38  0  0  0  0  0  0  0  0999 V2000
   56.7740   19.7850   46.3420 C   0  0  0  0  0  0  0  0  0  0  0  0
   55.9350   20.5630   45.3870 C   0  0  0  0  0  0  0  0  0  0  0  0
   56.4480   20.6610   44.0820 O   0  0  0  0  0  0  0  0  0  0  0  0
   56.6390   21.8830   43.4620 C   0  0  0  0  0  0  0  0  0  0  0  0
   56.2480   21.9530   42.2460 O   0  0  0  0  0  0  0  0  0  0  0  0
   57.2380   23.0210   44.1270 C   0  0  0  0  0  0  0  0  0  0  0  0
   56.6490   24.2590   43.9830 C   0  0  0  0  0  0  0  0  0  0  0  0
   57.1340   25.3730   44.5620 N   0  0  0  0  0  0  0  0  0  0  0  0
   58.2520   25.2520   45.3160 C   0  0  0  0  0  0  0  0  0  0  0  0
   58.9210   26.7110   46.0980 S   0  0  0  0  0  0  0  0  0  0  0  0
   58.8930   28.0670   44.9190 C   0  0  0  0  0  0  0  0  0  0  0  0
   57.6610   28.8760   45.0040 C   0  0  0  0  0  0  0  0  0  0  0  0
   56.5120   28.3690   45.1700 O   0  0  0  0  0  0  0  0  0  0  0  0
   57.8040   30.3280   44.8860 C   0  0  0  0  0  0  0  0  0  0  0  0
   58.1020   31.1390   45.9610 C   0  0  0  0  0  0  0  0  0  0  0  0
   58.2420   32.5040   45.8720 C   0  0  0  0  0  0  0  0  0  0  0  0
   58.0780   33.1210   44.6500 C   0  0  0  0  0  0  0  0  0  0  0  0
   58.2170   34.4650   44.5740 F   0  0  0  0  0  0  0  0  0  0  0  0
   57.7740   32.3420   43.5280 C   0  0  0  0  0  0  0  0  0  0  0  0
   57.6410   30.9630   43.6630 C   0  0  0  0  0  0  0  0  0  0  0  0
   58.8590   24.0600   45.4820 N   0  0  0  0  0  0  0  0  0  0  0  0
   58.3820   22.9330   44.9050 C   0  0  0  0  0  0  0  0  0  0  0  0
   58.9510   21.7880   45.0540 N   0  0  0  0  0  0  0  0  0  0  0  0
   56.4931   20.0455   47.3732 H   0  0  0  0  0  0  0  0  0  0  0  0
   56.6134   18.7091   46.1788 H   0  0  0  0  0  0  0  0  0  0  0  0
   57.8347   20.0262   46.1788 H   0  0  0  0  0  0  0  0  0  0  0  0
   54.9483   20.0801   45.3294 H   0  0  0  0  0  0  0  0  0  0  0  0
   55.8993   21.5902   45.7789 H   0  0  0  0  0  0  0  0  0  0  0  0
   55.7414   24.3401   43.3669 H   0  0  0  0  0  0  0  0  0  0  0  0
   56.6680   26.3130   44.4410 H   0  0  0  0  0  0  0  0  0  0  0  0
   59.7562   28.7202   45.1146 H   0  0  0  0  0  0  0  0  0  0  0  0
   58.9317   27.6290   43.9107 H   0  0  0  0  0  0  0  0  0  0  0  0
   58.2353   30.6670   46.9456 H   0  0  0  0  0  0  0  0  0  0  0  0
   58.4823   33.0975   46.7664 H   0  0  0  0  0  0  0  0  0  0  0  0
   57.6409   32.8168   42.5447 H   0  0  0  0  0  0  0  0  0  0  0  0
   57.3999   30.3597   42.7753 H   0  0  0  0  0  0  0  0  0  0  0  0
   58.5410   20.8750   44.7570 H   0  0  0  0  0  0  0  0  0  0  0  0
  1  2  1  0
  2  3  1  0
  3  4  1  0
  4  5  2  0
  4  6  1  0
  6  7  2  0
  7  8  1  0
  8  9  1  0
  9 10  1  0
 10 11  1  0
 11 12  1  0
 12 13  2  0
 12 14  1  0
 14 15  2  0
 15 16  1  0
 16 17  2  0
 17 18  1  0
 17 19  1  0
 19 20  2  0
  9 21  2  0
 21 22  1  0
 22 23  2  3
 22  6  1  0
 20 14  1  0
  1 24  1  0
  1 25  1  0
  1 26  1  0
  2 27  1  0
  2 28  1  0
  7 29  1  0
  8 30  1  0
 11 31  1  0
 11 32  1  0
 15 33  1  0
 16 34  1  0
 19 35  1  0
 20 36  1  0
 23 37  1  0
M  END
>  <smiles>  (15) 
CCOC(=O)c1c[nH]c(SCC(=O)c2ccc(F)cc2)nc1=N

>  <score_type>  (15) 
oracle

>  <origin>  (15) 
adg

>  <m_score__min__energy>  (15) 
-7.5099999999999998

>  <m_primary>  (15) 
energy

$$$$
15:0
     RDKit          3D

 64 68  0  0  1  0  0  0  0  0999 V2000
   60.6980   30.2560   49.9580 C   0  0  0  0  0  0  0  0  0  0  0  0
   61.3050   31.2200   49.0110 C   0  0  0  0  0  0  0  0  0  0  0  0
   62.3040   32.1000   49.3610 C   0  0  0  0  0  0  0  0  0  0  0  0
   62.8400   32.9780   48.4510 C   0  0  0  0  0  0  0  0  0  0  0  0
   62.3520   32.9640   47.1550 C   0  0  0  0  0  0  0  0  0  0  0  0
   61.3640   32.1020   46.7860 C   0  0  0  0  0  0  0  0  0  0  0  0
   60.8350   31.2240   47.7120 C   0  0  0  0  0  0  0  0  0  0  0  0
   59.7750   30.3010   47.3080 C   0  0  0  0  0  0  0  0  0  0  0  0
   58.6050   30.5770   47.6840 O   0  0  0  0  0  0  0  0  0  0  0  0
   60.0350   29.1430   46.5260 N   0  0  0  0  0  0  0  0  0  0  0  0
   59.0760   28.4210   46.0720 C   0  0  0  0  0  0  0  0  0  0  0  0
   57.9290   28.9710   45.6990 N   0  0  0  0  0  0  0  0  0  0  0  0
   56.9280   28.2260   45.2290 C   0  0  0  0  0  0  0  0  0  0  0  0
   55.8400   28.7510   44.8730 N   0  0  0  0  0  0  0  0  0  0  0  0
   55.6160   29.6860   43.8380 C   0  0  0  0  0  0  0  0  0  0  0  0
   56.6210   30.8180   43.8870 C   0  0  0  0  0  0  0  0  0  0  0  0
   56.9550   31.5920   44.9140 N   0  0  0  0  0  0  0  0  0  0  0  0
   57.8870   32.4930   44.5780 C   0  0  0  0  0  0  0  0  0  0  0  0
   58.4960   33.5080   45.4490 C   0  0  0  0  0  0  0  0  0  0  0  0
   59.1670   34.5540   44.8860 C   0  0  0  0  0  0  0  0  0  0  0  0
   59.7330   35.4990   45.7230 C   0  0  0  0  0  0  0  0  0  0  0  0
   59.6040   35.3560   47.0890 C   0  0  0  0  0  0  0  0  0  0  0  0
   58.9350   34.3120   47.6650 C   0  0  0  0  0  0  0  0  0  0  0  0
   58.3730   33.3730   46.8150 C   0  0  0  0  0  0  0  0  0  0  0  0
   58.1570   32.2690   43.2480 C   0  0  0  0  0  0  0  0  0  0  0  0
   57.3740   31.2350   42.8250 N   0  0  0  0  0  0  0  0  0  0  0  0
   57.0910   26.8720   45.1310 N   0  0  0  0  0  0  0  0  0  0  0  0
   58.2110   26.2470   45.4850 C   0  0  0  0  0  0  0  0  0  0  0  0
   58.4380   24.8550   45.3870 N   0  0  0  0  0  0  0  0  0  0  0  0
   57.6100   23.8320   45.8710 C   0  0  0  0  0  0  0  0  0  0  0  0
   57.5440   22.5510   45.3970 C   0  0  0  0  0  0  0  0  0  0  0  0
   56.6810   21.5890   45.9100 C   0  0  0  0  0  0  0  0  0  0  0  0
   55.8370   21.9100   46.9480 C   0  0  0  0  0  0  0  0  0  0  0  0
   55.8800   23.1970   47.4510 C   0  0  0  0  0  0  0  0  0  0  0  0
   56.7440   24.1390   46.9290 C   0  0  0  0  0  0  0  0  0  0  0  0
   59.2380   27.0570   45.9730 C   0  0  0  0  0  0  0  0  0  0  0  0
   60.5360   26.4320   46.3950 C   0  0  0  0  0  0  0  0  0  0  0  0
   60.9010   30.5784   50.9899 H   0  0  0  0  0  0  0  0  0  0  0  0
   59.6111   30.2155   49.7936 H   0  0  0  0  0  0  0  0  0  0  0  0
   61.1312   29.2583   49.7936 H   0  0  0  0  0  0  0  0  0  0  0  0
   62.6820   32.1000   50.3940 H   0  0  0  0  0  0  0  0  0  0  0  0
   63.6380   33.6758   48.7446 H   0  0  0  0  0  0  0  0  0  0  0  0
   62.7688   33.6599   46.4120 H   0  0  0  0  0  0  0  0  0  0  0  0
   60.9880   32.1050   45.7523 H   0  0  0  0  0  0  0  0  0  0  0  0
   57.7920   29.9900   45.7670 H   0  0  0  0  0  0  0  0  0  0  0  0
   55.7015   29.1736   42.8684 H   0  0  0  0  0  0  0  0  0  0  0  0
   54.6099   30.1112   43.9682 H   0  0  0  0  0  0  0  0  0  0  0  0
   59.2558   34.6438   43.7933 H   0  0  0  0  0  0  0  0  0  0  0  0
   60.2805   36.3559   45.3034 H   0  0  0  0  0  0  0  0  0  0  0  0
   60.0589   36.1146   47.7429 H   0  0  0  0  0  0  0  0  0  0  0  0
   58.8466   34.2212   48.7577 H   0  0  0  0  0  0  0  0  0  0  0  0
   57.8257   32.5152   47.2328 H   0  0  0  0  0  0  0  0  0  0  0  0
   58.8785   32.8265   42.6327 H   0  0  0  0  0  0  0  0  0  0  0  0
   57.3580   30.8390   41.8580 H   0  0  0  0  0  0  0  0  0  0  0  0
   56.2850   26.3360   44.7750 H   0  0  0  0  0  0  0  0  0  0  0  0
   59.3300   24.5350   44.8990 H   0  0  0  0  0  0  0  0  0  0  0  0
   58.2078   22.2670   44.5671 H   0  0  0  0  0  0  0  0  0  0  0  0
   56.6731   20.5737   45.4869 H   0  0  0  0  0  0  0  0  0  0  0  0
   55.1466   21.1628   47.3664 H   0  0  0  0  0  0  0  0  0  0  0  0
   55.2144   23.4753   48.2814 H   0  0  0  0  0  0  0  0  0  0  0  0
   56.7527   25.1538   47.3534 H   0  0  0  0  0  0  0  0  0  0  0  0
   60.5904   26.4058   47.4933 H   0  0  0  0  0  0  0  0  0  0  0  0
   60.5947   25.4069   46.0004 H   0  0  0  0  0  0  0  0  0  0  0  0
   61.3740   27.0253   46.0004 H   0  0  0  0  0  0  0  0  0  0  0  0
  1  2  1  0
  2  3  2  0
  3  4  1  0
  4  5  2  0
  5  6  1  0
  6  7  2  0
  7  8  1  0
  8  9  2  0
  8 10  1  0
 10 11  2  0
 11 12  1  0
 12 13  1  0
 13 14  2  0
 14 15  1  0
 15 16  1  0
 16 17  2  0
 17 18  1  0
 18 19  1  0
 19 20  2  0
 20 21  1  0
 21 22  2  0
 22 23  1  0
 23 24  2  0
 18 25  2  0
 25 26  1  0
 13 27  1  0
 27 28  1  0
 28 29  1  0
 29 30  1  0
 30 31  2  0
 31 32  1  0
 32 33  2  0
 33 34  1  0
 34 35  2  0
 28 36  2  0
 36 37  1  0
  7  2  1  0
 36 11  1  0
 26 16  1  0
 35 30  1  0
 24 19  1  0
  1 38  1  0
  1 39  1  0
  1 40  1  0
  3 41  1  0
  4 42  1  0
  5 43  1  0
  6 44  1  0
 12 45  1  0
 15 46  1  0
 15 47  1  0
 20 48  1  0
 21 49  1  0
 22 50  1  0
 23 51  1  0
 24 52  1  0
 25 53  1  0
 26 54  1  0
 27 55  1  0
 29 56  1  0
 31 57  1  0
 32 58  1  0
 33 59  1  0
 34 60  1  0
 35 61  1  0
 37 62  1  0
 37 63  1  0
 37 64  1  0
M  END
>  <smiles>  (16) 
Cc1ccccc1C(=O)N=c1[nH]c(=NCc2nc(-c3ccccc3)c[nH]2)[nH]c(Nc2ccccc2)c1C

>  <score_type>  (16) 
oracle

>  <origin>  (16) 
adg

>  <m_score__min__energy>  (16) 
-10.66

>  <m_primary>  (16) 
energy

$$$$
16:0
     RDKit          3D

 48 49  0  0  0  0  0  0  0  0999 V2000
   57.3780   24.8510   47.0940 C   0  0  0  0  0  0  0  0  0  0  0  0
   58.1110   24.7090   45.8130 N   0  0  0  0  0  0  0  0  0  0  0  0
   58.1340   23.2730   45.4410 C   0  0  0  0  0  0  0  0  0  0  0  0
   59.4990   25.1930   46.0100 C   0  0  0  0  0  0  0  0  0  0  0  0
   57.4040   25.5170   44.7750 C   0  0  0  0  0  0  0  0  0  0  0  0
   57.0240   26.9040   45.2360 C   0  0  0  0  0  0  0  0  0  0  0  0
   55.8460   27.1230   45.6290 O   0  0  0  0  0  0  0  0  0  0  0  0
   57.9990   27.9590   45.2270 N   0  0  0  0  0  0  0  0  0  0  0  0
   57.6820   29.3440   45.4360 C   0  0  0  0  0  0  0  0  0  0  0  0
   56.4830   29.7130   45.5680 O   0  0  0  0  0  0  0  0  0  0  0  0
   58.7440   30.3050   45.5170 N   0  0  0  0  0  0  0  0  0  0  0  0
   58.5440   31.7280   45.4710 C   0  0  0  0  0  0  0  0  0  0  0  0
   57.6490   32.3080   44.5550 C   0  0  0  0  0  0  0  0  0  0  0  0
   57.4930   33.6960   44.5050 C   0  0  0  0  0  0  0  0  0  0  0  0
   58.2290   34.5160   45.3610 C   0  0  0  0  0  0  0  0  0  0  0  0
   59.1300   33.9540   46.2820 C   0  0  0  0  0  0  0  0  0  0  0  0
   59.9060   34.8020   47.1520 N   0  0  0  0  0  0  0  0  0  0  0  0
   61.0990   34.1080   47.5690 C   0  0  0  0  0  0  0  0  0  0  0  0
   61.2580   33.7070   48.9090 C   0  0  0  0  0  0  0  0  0  0  0  0
   62.4260   33.0540   49.3180 C   0  0  0  0  0  0  0  0  0  0  0  0
   63.4460   32.8010   48.3980 C   0  0  0  0  0  0  0  0  0  0  0  0
   63.3030   33.2040   47.0670 C   0  0  0  0  0  0  0  0  0  0  0  0
   62.1380   33.8570   46.6540 C   0  0  0  0  0  0  0  0  0  0  0  0
   59.2940   32.5590   46.3160 C   0  0  0  0  0  0  0  0  0  0  0  0
   58.0764   24.7157   47.9330 H   0  0  0  0  0  0  0  0  0  0  0  0
   56.9277   25.8531   47.1497 H   0  0  0  0  0  0  0  0  0  0  0  0
   56.5861   24.0896   47.1497 H   0  0  0  0  0  0  0  0  0  0  0  0
   58.1438   22.6581   46.3530 H   0  0  0  0  0  0  0  0  0  0  0  0
   57.2396   23.0337   44.8471 H   0  0  0  0  0  0  0  0  0  0  0  0
   59.0356   23.0625   44.8471 H   0  0  0  0  0  0  0  0  0  0  0  0
   59.7121   25.2673   47.0866 H   0  0  0  0  0  0  0  0  0  0  0  0
   60.2029   24.4873   45.5448 H   0  0  0  0  0  0  0  0  0  0  0  0
   59.6115   26.1834   45.5448 H   0  0  0  0  0  0  0  0  0  0  0  0
   58.0639   25.6111   43.9000 H   0  0  0  0  0  0  0  0  0  0  0  0
   56.4675   24.9894   44.5415 H   0  0  0  0  0  0  0  0  0  0  0  0
   58.9920   27.7130   45.0170 H   0  0  0  0  0  0  0  0  0  0  0  0
   59.7080   29.9490   45.7090 H   0  0  0  0  0  0  0  0  0  0  0  0
   57.0691   31.6668   43.8749 H   0  0  0  0  0  0  0  0  0  0  0  0
   56.7880   34.1432   43.7888 H   0  0  0  0  0  0  0  0  0  0  0  0
   58.1035   35.6078   45.3149 H   0  0  0  0  0  0  0  0  0  0  0  0
   59.3350   35.0740   47.9870 H   0  0  0  0  0  0  0  0  0  0  0  0
   60.1630   35.6910   46.6610 H   0  0  0  0  0  0  0  0  0  0  0  0
   60.4597   33.9081   49.6385 H   0  0  0  0  0  0  0  0  0  0  0  0
   62.5411   32.7394   50.3658 H   0  0  0  0  0  0  0  0  0  0  0  0
   64.3620   32.2845   48.7208 H   0  0  0  0  0  0  0  0  0  0  0  0
   64.1081   33.0070   46.3439 H   0  0  0  0  0  0  0  0  0  0  0  0
   62.0329   34.1767   45.6068 H   0  0  0  0  0  0  0  0  0  0  0  0
   60.0188   32.1135   47.0133 H   0  0  0  0  0  0  0  0  0  0  0  0
  1  2  1  0
  2  3  1  0
  2  4  1  0
  2  5  1  0
  5  6  1  0
  6  7  2  0
  6  8  1  0
  8  9  1  0
  9 10  2  0
  9 11  1  0
 11 12  1  0
 12 13  2  0
 13 14  1  0
 14 15  2  0
 15 16  1  0
 16 17  1  0
 17 18  1  0
 18 19  2  0
 19 20  1  0
 20 21  2  0
 21 22  1  0
 22 23  2  0
 16 24  2  0
 24 12  1  0
 23 18  1  0
  1 25  1  0
  1 26  1  0
  1 27  1  0
  3 28  1  0
  3 29  1  0
  3 30  1  0
  4 31  1  0
  4 32  1  0
  4 33  1  0
  5 34  1  0
  5 35  1  0
  8 36  1  0
 11 37  1  0
 13 38  1  0
 14 39  1  0
 15 40  1  0
 17 41  1  0
 17 42  1  0
 19 43  1  0
 20 44  1  0
 21 45  1  0
 22 46  1  0
 23 47  1  0
 24 48  1  0
M  CHG  2   2   1  17   1
M  END
>  <UniqueID>  (17) 
14

>  <SMILES>  (17) 
C[N+](C)(C)CC(=O)NC(=O)Nc1cccc([NH2+]c2ccccc2)c1

>  <Energy>  (17) 
57.09072087767081

>  <Genealogy>  (17) 
C[N+](C)(C)CC(=O)NC(=O)Nc1cccc([NH2+]c2ccccc2)c1 (protonated)
C[N+](C)(C)CC(=O)NC(=O)Nc1cccc([NH2+]c2ccccc2)c1 (3D coordinates assigned)
C[N+](C)(C)CC(=O)NC(=O)Nc1cccc([NH2+]c2ccccc2)c1 (optimized conformer: 57.09072087767081 kcal/mol)

>  <smiles>  (17) 
C[N+](C)(C)CC(=O)NC(=O)Nc1cccc(Nc2ccccc2)c1

>  <score_type>  (17) 
oracle

>  <origin>  (17) 
adg

>  <m_score__min__energy>  (17) 
-4.79

>  <m_primary>  (17) 
energy

$$$$
17:0
     RDKit          3D

 30 31  0  0  0  0  0  0  0  0999 V2000
   55.4450   29.2650   44.8630 O   0  0  0  0  0  0  0  0  0  0  0  0
   56.6050   29.7440   44.9510 C   0  0  0  0  0  0  0  0  0  0  0  0
   57.4490   29.3160   46.0260 N   0  0  0  0  0  0  0  0  0  0  0  0
   58.4780   28.2810   45.9350 C   0  0  0  0  0  0  0  0  0  0  0  0
   57.8420   26.8870   45.9150 C   0  0  0  0  0  0  0  0  0  0  0  0
   56.3900   26.9510   46.1090 N   0  0  0  0  0  0  0  0  0  0  0  0
   55.5560   25.7860   46.0360 C   0  0  0  0  0  0  0  0  0  0  0  0
   54.3530   25.9150   45.6800 O   0  0  0  0  0  0  0  0  0  0  0  0
   56.0640   24.4380   46.3740 C   0  0  0  0  0  0  0  0  0  0  0  0
   56.8020   24.2290   47.5470 C   0  0  0  0  0  0  0  0  0  0  0  0
   57.2390   22.9840   47.8650 N   0  0  0  0  0  0  0  0  0  0  0  0
   56.9650   21.9220   47.0670 C   0  0  0  0  0  0  0  0  0  0  0  0
   57.3810   20.7760   47.3790 O   0  0  0  0  0  0  0  0  0  0  0  0
   56.2380   22.0930   45.9330 N   0  0  0  0  0  0  0  0  0  0  0  0
   55.7780   23.3190   45.5730 C   0  0  0  0  0  0  0  0  0  0  0  0
   55.1080   23.4400   44.5120 O   0  0  0  0  0  0  0  0  0  0  0  0
   57.0410   30.7460   43.9630 C   0  0  0  0  0  0  0  0  0  0  0  0
   56.7850   30.7300   42.5970 C   0  0  0  0  0  0  0  0  0  0  0  0
   57.3890   31.7900   41.9100 C   0  0  0  0  0  0  0  0  0  0  0  0
   58.1330   32.6330   42.7250 C   0  0  0  0  0  0  0  0  0  0  0  0
   58.0440   32.0540   44.3010 S   0  0  0  0  0  0  0  0  0  0  0  0
   59.0569   28.4273   45.0112 H   0  0  0  0  0  0  0  0  0  0  0  0
   59.1360   28.3575   46.8132 H   0  0  0  0  0  0  0  0  0  0  0  0
   58.0515   26.4134   44.9446 H   0  0  0  0  0  0  0  0  0  0  0  0
   58.2729   26.3014   46.7404 H   0  0  0  0  0  0  0  0  0  0  0  0
   55.9120   27.8800   46.0900 H   0  0  0  0  0  0  0  0  0  0  0  0
   57.0276   25.0761   48.2115 H   0  0  0  0  0  0  0  0  0  0  0  0
   56.1699   29.9620   42.1052 H   0  0  0  0  0  0  0  0  0  0  0  0
   57.2839   31.9410   40.8255 H   0  0  0  0  0  0  0  0  0  0  0  0
   58.6853   33.5256   42.3962 H   0  0  0  0  0  0  0  0  0  0  0  0
  1  2  2  0
  2  3  1  0
  3  4  1  0
  4  5  1  0
  5  6  1  0
  6  7  1  0
  7  8  2  0
  7  9  1  0
  9 10  2  0
 10 11  1  0
 11 12  1  0
 12 13  2  0
 12 14  1  0
 14 15  1  0
 15 16  2  0
  2 17  1  0
 17 18  2  0
 18 19  1  0
 19 20  2  0
 20 21  1  0
 15  9  1  0
 21 17  1  0
  4 22  1  0
  4 23  1  0
  5 24  1  0
  5 25  1  0
  6 26  1  0
 10 27  1  0
 18 28  1  0
 19 29  1  0
 20 30  1  0
M  CHG  3   3  -1  11  -1  14  -1
M  END
>  <UniqueID>  (18) 
15

>  <SMILES>  (18) 
O=C([N-]CCNC(=O)c1c[n-]c(=O)[n-]c1=O)c1cccs1

>  <Energy>  (18) 
64.46264397269096

>  <Genealogy>  (18) 
O=C([N-]CCNC(=O)c1c[n-]c(=O)[n-]c1=O)c1cccs1 (protonated)
O=C([N-]CCNC(=O)c1c[n-]c(=O)[n-]c1=O)c1cccs1 (3D coordinates assigned)
O=C([N-]CCNC(=O)c1c[n-]c(=O)[n-]c1=O)c1cccs1 (optimized conformer: 64.46264397269096 kcal/mol)

>  <smiles>  (18) 
O=C(NCCNC(=O)c1c[nH]c(=O)[nH]c1=O)c1cccs1

>  <score_type>  (18) 
oracle

>  <origin>  (18) 
adg

>  <m_score__min__energy>  (18) 
-12.65

>  <m_primary>  (18) 
energy

$$$$
18:0
     RDKit          3D

 54 56  0  0  0  0  0  0  0  0999 V2000
   58.7740   29.3090   47.9640 C   0  0  0  0  0  0  0  0  0  0  0  0
   58.5190   30.7700   47.6710 C   0  0  0  0  0  0  0  0  0  0  0  0
   58.2070   31.1670   46.3530 C   0  0  0  0  0  0  0  0  0  0  0  0
   58.0710   30.1640   45.3330 N   0  0  0  0  0  0  0  0  0  0  0  0
   56.5880   29.7130   44.5590 S   0  0  0  0  0  0  0  0  0  0  0  0
   56.9330   29.2810   42.8700 C   0  0  0  0  0  0  0  0  0  0  0  0
   55.9910   28.5220   45.2530 O   0  0  0  0  0  0  0  0  0  0  0  0
   55.6220   30.8650   44.5920 O   0  0  0  0  0  0  0  0  0  0  0  0
   58.0210   32.5290   46.0620 C   0  0  0  0  0  0  0  0  0  0  0  0
   58.1480   33.4900   47.0650 C   0  0  0  0  0  0  0  0  0  0  0  0
   58.4490   33.1060   48.3690 C   0  0  0  0  0  0  0  0  0  0  0  0
   58.6260   31.7530   48.6870 C   0  0  0  0  0  0  0  0  0  0  0  0
   58.8810   31.3910   50.0530 N   0  0  0  0  0  0  0  0  0  0  0  0
   60.1620   31.7700   50.6630 C   0  0  0  0  0  0  0  0  0  0  0  0
   61.1480   32.1820   49.6050 C   0  0  0  0  0  0  0  0  0  0  0  0
   61.5110   33.5310   49.4610 C   0  0  0  0  0  0  0  0  0  0  0  0
   62.4680   33.9050   48.5140 C   0  0  0  0  0  0  0  0  0  0  0  0
   63.0750   32.9360   47.7090 C   0  0  0  0  0  0  0  0  0  0  0  0
   62.7240   31.5910   47.8520 C   0  0  0  0  0  0  0  0  0  0  0  0
   61.7680   31.2130   48.7990 C   0  0  0  0  0  0  0  0  0  0  0  0
   57.8820   30.6920   50.8230 C   0  0  0  0  0  0  0  0  0  0  0  0
   58.0580   29.4780   51.1150 O   0  0  0  0  0  0  0  0  0  0  0  0
   56.6650   31.3960   51.3700 C   0  0  0  0  0  0  0  0  0  0  0  0
   55.6020   30.4590   51.7310 N   0  0  0  0  0  0  0  0  0  0  0  0
   54.2640   30.8360   52.1070 C   0  0  0  0  0  0  0  0  0  0  0  0
   53.7820   30.4690   53.3750 C   0  0  0  0  0  0  0  0  0  0  0  0
   52.5060   30.8570   53.7900 C   0  0  0  0  0  0  0  0  0  0  0  0
   51.6920   31.6070   52.9390 C   0  0  0  0  0  0  0  0  0  0  0  0
   52.1530   31.9680   51.6690 C   0  0  0  0  0  0  0  0  0  0  0  0
   51.3410   32.7110   50.8220 O   0  0  0  0  0  0  0  0  0  0  0  0
   53.4310   31.5830   51.2510 C   0  0  0  0  0  0  0  0  0  0  0  0
   58.8013   29.1527   49.0525 H   0  0  0  0  0  0  0  0  0  0  0  0
   57.9684   28.7012   47.5264 H   0  0  0  0  0  0  0  0  0  0  0  0
   59.7379   29.0101   47.5264 H   0  0  0  0  0  0  0  0  0  0  0  0
   57.6192   28.4217   42.8442 H   0  0  0  0  0  0  0  0  0  0  0  0
   55.9948   29.0165   42.3602 H   0  0  0  0  0  0  0  0  0  0  0  0
   57.3985   30.1374   42.3602 H   0  0  0  0  0  0  0  0  0  0  0  0
   57.7735   32.8395   45.0362 H   0  0  0  0  0  0  0  0  0  0  0  0
   58.0099   34.5546   46.8250 H   0  0  0  0  0  0  0  0  0  0  0  0
   58.5485   33.8696   49.1545 H   0  0  0  0  0  0  0  0  0  0  0  0
   59.9994   32.6108   51.3534 H   0  0  0  0  0  0  0  0  0  0  0  0
   60.5663   30.9043   51.2081 H   0  0  0  0  0  0  0  0  0  0  0  0
   61.0403   34.2960   50.0960 H   0  0  0  0  0  0  0  0  0  0  0  0
   62.7444   34.9637   48.4015 H   0  0  0  0  0  0  0  0  0  0  0  0
   63.8281   33.2322   46.9639 H   0  0  0  0  0  0  0  0  0  0  0  0
   63.2007   30.8286   47.2184 H   0  0  0  0  0  0  0  0  0  0  0  0
   61.5001   30.1523   48.9136 H   0  0  0  0  0  0  0  0  0  0  0  0
   56.9566   31.9636   52.2660 H   0  0  0  0  0  0  0  0  0  0  0  0
   56.2772   32.0610   50.5843 H   0  0  0  0  0  0  0  0  0  0  0  0
   55.8460   29.4420   51.7280 H   0  0  0  0  0  0  0  0  0  0  0  0
   54.4153   29.8708   54.0467 H   0  0  0  0  0  0  0  0  0  0  0  0
   52.1422   30.5715   54.7880 H   0  0  0  0  0  0  0  0  0  0  0  0
   50.6881   31.9140   53.2675 H   0  0  0  0  0  0  0  0  0  0  0  0
   53.7873   31.8648   50.2492 H   0  0  0  0  0  0  0  0  0  0  0  0
  1  2  1  0
  2  3  2  0
  3  4  1  0
  4  5  1  0
  5  6  1  0
  5  7  2  0
  5  8  2  0
  3  9  1  0
  9 10  2  0
 10 11  1  0
 11 12  2  0
 12 13  1  0
 13 14  1  0
 14 15  1  0
 15 16  2  0
 16 17  1  0
 17 18  2  0
 18 19  1  0
 19 20  2  0
 13 21  1  0
 21 22  2  0
 21 23  1  0
 23 24  1  0
 24 25  1  0
 25 26  2  0
 26 27  1  0
 27 28  2  0
 28 29  1  0
 29 30  1  0
 29 31  2  0
 12  2  1  0
 20 15  1  0
 31 25  1  0
  1 32  1  0
  1 33  1  0
  1 34  1  0
  6 35  1  0
  6 36  1  0
  6 37  1  0
  9 38  1  0
 10 39  1  0
 11 40  1  0
 14 41  1  0
 14 42  1  0
 16 43  1  0
 17 44  1  0
 18 45  1  0
 19 46  1  0
 20 47  1  0
 23 48  1  0
 23 49  1  0
 24 50  1  0
 26 51  1  0
 27 52  1  0
 28 53  1  0
 31 54  1  0
M  CHG  2   4  -1  30  -1
M  END
>  <UniqueID>  (19) 
16

>  <SMILES>  (19) 
Cc1c([N-]S(C)(=O)=O)cccc1N(Cc1ccccc1)C(=O)CNc1cccc([O-])c1

>  <Energy>  (19) 
57.226650614631104

>  <Genealogy>  (19) 
Cc1c([N-]S(C)(=O)=O)cccc1N(Cc1ccccc1)C(=O)CNc1cccc([O-])c1 (protonated)
Cc1c([N-]S(C)(=O)=O)cccc1N(Cc1ccccc1)C(=O)CNc1cccc([O-])c1 (3D coordinates assigned)
Cc1c([N-]S(C)(=O)=O)cccc1N(Cc1ccccc1)C(=O)CNc1cccc([O-])c1 (optimized conformer: 57.226650614631104 kcal/mol)

>  <smiles>  (19) 
Cc1c(NS(C)(=O)=O)cccc1N(Cc1ccccc1)C(=O)CNc1cccc(O)c1

>  <score_type>  (19) 
oracle

>  <origin>  (19) 
adg

>  <m_score__min__energy>  (19) 
-13.94

>  <m_primary>  (19) 
energy

$$$$
19:0
     RDKit          3D

 43 45  0  0  0  0  0  0  0  0999 V2000
   59.1810   31.4950   47.5690 C   0  0  0  0  0  0  0  0  0  0  0  0
   59.0470   32.7220   46.7030 C   0  0  0  0  0  0  0  0  0  0  0  0
   58.0050   32.8260   45.7500 C   0  0  0  0  0  0  0  0  0  0  0  0
   57.0260   31.8340   45.6150 O   0  0  0  0  0  0  0  0  0  0  0  0
   57.1330   30.7640   44.7200 C   0  0  0  0  0  0  0  0  0  0  0  0
   56.1890   30.4950   43.9290 O   0  0  0  0  0  0  0  0  0  0  0  0
   58.3040   29.9420   44.7080 N   0  0  0  0  0  0  0  0  0  0  0  0
   58.4390   28.6600   45.3360 C   0  0  0  0  0  0  0  0  0  0  0  0
   59.6960   28.1060   45.6330 C   0  0  0  0  0  0  0  0  0  0  0  0
   59.7860   26.8470   46.2270 C   0  0  0  0  0  0  0  0  0  0  0  0
   58.6280   26.1210   46.5180 C   0  0  0  0  0  0  0  0  0  0  0  0
   57.3620   26.6470   46.2060 C   0  0  0  0  0  0  0  0  0  0  0  0
   56.1310   25.8750   46.5010 C   0  0  0  0  0  0  0  0  0  0  0  0
   54.8500   26.3890   46.1400 N   0  0  0  0  0  0  0  0  0  0  0  0
   56.2040   24.7550   47.0750 O   0  0  0  0  0  0  0  0  0  0  0  0
   57.2810   27.9170   45.6060 C   0  0  0  0  0  0  0  0  0  0  0  0
   57.9490   33.9310   44.8940 C   0  0  0  0  0  0  0  0  0  0  0  0
   58.8810   34.9610   45.0070 C   0  0  0  0  0  0  0  0  0  0  0  0
   59.8810   34.8960   45.9760 C   0  0  0  0  0  0  0  0  0  0  0  0
   59.9700   33.7890   46.8320 C   0  0  0  0  0  0  0  0  0  0  0  0
   61.0100   33.7550   47.8270 N   0  0  0  0  0  0  0  0  0  0  0  0
   62.3160   33.6220   47.4310 C   0  0  0  0  0  0  0  0  0  0  0  0
   62.6310   33.5110   46.0750 O   0  0  0  0  0  0  0  0  0  0  0  0
   63.3390   33.5900   48.3860 C   0  0  0  0  0  0  0  0  0  0  0  0
   63.0230   33.6940   49.7380 C   0  0  0  0  0  0  0  0  0  0  0  0
   61.6940   33.8320   50.1290 C   0  0  0  0  0  0  0  0  0  0  0  0
   60.6890   33.8650   49.1570 C   0  0  0  0  0  0  0  0  0  0  0  0
   59.4880   34.0010   49.5200 O   0  0  0  0  0  0  0  0  0  0  0  0
   59.1489   31.7888   48.6286 H   0  0  0  0  0  0  0  0  0  0  0  0
   58.3531   30.8030   47.3551 H   0  0  0  0  0  0  0  0  0  0  0  0
   60.1388   30.9981   47.3551 H   0  0  0  0  0  0  0  0  0  0  0  0
   60.6120   28.6671   45.3963 H   0  0  0  0  0  0  0  0  0  0  0  0
   60.7726   26.4240   46.4673 H   0  0  0  0  0  0  0  0  0  0  0  0
   58.7074   25.1324   46.9938 H   0  0  0  0  0  0  0  0  0  0  0  0
   54.3490   27.0660   46.7590 H   0  0  0  0  0  0  0  0  0  0  0  0
   56.2964   28.3324   45.3453 H   0  0  0  0  0  0  0  0  0  0  0  0
   57.1635   33.9874   44.1260 H   0  0  0  0  0  0  0  0  0  0  0  0
   58.8274   35.8267   44.3304 H   0  0  0  0  0  0  0  0  0  0  0  0
   60.6052   35.7187   46.0698 H   0  0  0  0  0  0  0  0  0  0  0  0
   63.5490   33.2150   45.7650 H   0  0  0  0  0  0  0  0  0  0  0  0
   64.3872   33.4832   48.0699 H   0  0  0  0  0  0  0  0  0  0  0  0
   63.8209   33.6672   50.4948 H   0  0  0  0  0  0  0  0  0  0  0  0
   61.4362   33.9145   51.1952 H   0  0  0  0  0  0  0  0  0  0  0  0
  1  2  1  0
  2  3  2  0
  3  4  1  0
  4  5  1  0
  5  6  2  0
  5  7  1  0
  7  8  1  0
  8  9  2  0
  9 10  1  0
 10 11  2  0
 11 12  1  0
 12 13  1  0
 13 14  1  0
 13 15  2  0
 12 16  2  0
  3 17  1  0
 17 18  2  0
 18 19  1  0
 19 20  2  0
 20 21  1  0
 21 22  1  0
 22 23  1  0
 22 24  2  0
 24 25  1  0
 25 26  2  0
 26 27  1  0
 27 28  2  0
 20  2  1  0
 27 21  1  0
 16  8  1  0
  1 29  1  0
  1 30  1  0
  1 31  1  0
  9 32  1  0
 10 33  1  0
 11 34  1  0
 14 35  1  0
 16 36  1  0
 17 37  1  0
 18 38  1  0
 19 39  1  0
 23 40  1  0
 24 41  1  0
 25 42  1  0
 26 43  1  0
M  CHG  2   7  -1  14  -1
M  END
>  <UniqueID>  (20) 
17

>  <SMILES>  (20) 
Cc1c(OC(=O)[N-]c2cccc(C([NH-])=O)c2)cccc1-n1c(O)cccc1=O

>  <Energy>  (20) 
66.37635175572159

>  <Genealogy>  (20) 
Cc1c(OC(=O)[N-]c2cccc(C([NH-])=O)c2)cccc1-n1c(O)cccc1=O (protonated)
Cc1c(OC(=O)[N-]c2cccc(C([NH-])=O)c2)cccc1-n1c(O)cccc1=O (3D coordinates assigned)
Cc1c(OC(=O)[N-]c2cccc(C([NH-])=O)c2)cccc1-n1c(O)cccc1=O (optimized conformer: 66.37635175572159 kcal/mol)

>  <smiles>  (20) 
Cc1c(OC(=O)Nc2cccc(C(N)=O)c2)cccc1-n1c(O)cccc1=O

>  <score_type>  (20) 
oracle

>  <origin>  (20) 
adg

>  <m_score__min__energy>  (20) 
-13.34

>  <m_primary>  (20) 
energy

$$$$
20:0
     RDKit          3D

 29 30  0  0  0  0  0  0  0  0999 V2000
   57.5430   21.3580   43.3640 C   0  0  0  0  0  0  0  0  0  0  0  0
   56.2570   21.9630   43.4540 O   0  0  0  0  0  0  0  0  0  0  0  0
   55.9870   23.1490   44.1540 C   0  0  0  0  0  0  0  0  0  0  0  0
   54.7140   23.3180   44.7070 C   0  0  0  0  0  0  0  0  0  0  0  0
   54.4000   24.4740   45.4230 C   0  0  0  0  0  0  0  0  0  0  0  0
   55.3520   25.4840   45.5950 C   0  0  0  0  0  0  0  0  0  0  0  0
   55.0120   26.5910   46.3720 O   0  0  0  0  0  0  0  0  0  0  0  0
   56.6280   25.3460   45.0020 C   0  0  0  0  0  0  0  0  0  0  0  0
   57.6180   26.3780   45.0830 N   0  0  0  0  0  0  0  0  0  0  0  0
   57.4670   27.6370   45.7560 C   0  0  0  0  0  0  0  0  0  0  0  0
   57.4650   27.6460   47.0150 O   0  0  0  0  0  0  0  0  0  0  0  0
   57.3520   28.9160   45.0150 C   0  0  0  0  0  0  0  0  0  0  0  0
   57.0040   28.9300   43.6540 C   0  0  0  0  0  0  0  0  0  0  0  0
   56.8970   30.1510   42.9850 C   0  0  0  0  0  0  0  0  0  0  0  0
   57.1330   31.3440   43.6690 C   0  0  0  0  0  0  0  0  0  0  0  0
   57.4680   31.2960   45.0250 C   0  0  0  0  0  0  0  0  0  0  0  0
   57.8020   32.9030   45.9960 Br  0  0  0  0  0  0  0  0  0  0  0  0
   57.5640   30.0980   45.6580 N   0  0  0  0  0  0  0  0  0  0  0  0
   56.9450   24.1680   44.3130 C   0  0  0  0  0  0  0  0  0  0  0  0
   57.9334   21.1743   44.3758 H   0  0  0  0  0  0  0  0  0  0  0  0
   57.4621   20.4035   42.8233 H   0  0  0  0  0  0  0  0  0  0  0  0
   58.2268   22.0289   42.8233 H   0  0  0  0  0  0  0  0  0  0  0  0
   53.9540   22.5336   44.5767 H   0  0  0  0  0  0  0  0  0  0  0  0
   53.3955   24.5918   45.8556 H   0  0  0  0  0  0  0  0  0  0  0  0
   55.6670   27.0470   46.9930 H   0  0  0  0  0  0  0  0  0  0  0  0
   56.8173   27.9868   43.1197 H   0  0  0  0  0  0  0  0  0  0  0  0
   56.6267   30.1723   41.9189 H   0  0  0  0  0  0  0  0  0  0  0  0
   57.0564   32.3097   43.1478 H   0  0  0  0  0  0  0  0  0  0  0  0
   57.9529   24.0381   43.8920 H   0  0  0  0  0  0  0  0  0  0  0  0
  1  2  1  0
  2  3  1  0
  3  4  2  0
  4  5  1  0
  5  6  2  0
  6  7  1  0
  6  8  1  0
  8  9  1  0
  9 10  1  0
 10 11  2  0
 10 12  1  0
 12 13  2  0
 13 14  1  0
 14 15  2  0
 15 16  1  0
 16 17  1  0
 16 18  2  0
  8 19  2  0
 19  3  1  0
 18 12  1  0
  1 20  1  0
  1 21  1  0
  1 22  1  0
  4 23  1  0
  5 24  1  0
  7 25  1  0
 13 26  1  0
 14 27  1  0
 15 28  1  0
 19 29  1  0
M  CHG  1   9  -1
M  END
>  <UniqueID>  (21) 
18

>  <SMILES>  (21) 
COc1ccc(O)c([N-]C(=O)c2cccc(Br)n2)c1

>  <Energy>  (21) 
37.44699679458471

>  <Genealogy>  (21) 
COc1ccc(O)c([N-]C(=O)c2cccc(Br)n2)c1 (protonated)
COc1ccc(O)c([N-]C(=O)c2cccc(Br)n2)c1 (3D coordinates assigned)
COc1ccc(O)c([N-]C(=O)c2cccc(Br)n2)c1 (optimized conformer: 37.44699679458471 kcal/mol)

>  <smiles>  (21) 
COc1ccc(O)c(NC(=O)c2cccc(Br)n2)c1

>  <score_type>  (21) 
oracle

>  <origin>  (21) 
adg

>  <m_score__min__energy>  (21) 
-10.84

>  <m_primary>  (21) 
energy

$$$$
21:0
     RDKit          3D

 61 64  0  0  0  0  0  0  0  0999 V2000
   59.0710   23.6500   45.6130 C   0  0  0  0  0  0  0  0  0  0  0  0
   57.5730   23.8080   45.6010 C   0  0  0  0  0  0  0  0  0  0  0  0
   56.7890   22.6990   45.5260 N   0  0  0  0  0  0  0  0  0  0  0  0
   55.4320   22.7820   45.5360 C   0  0  0  0  0  0  0  0  0  0  0  0
   54.7540   21.7190   45.4940 O   0  0  0  0  0  0  0  0  0  0  0  0
   54.8120   24.0040   45.5920 N   0  0  0  0  0  0  0  0  0  0  0  0
   53.3420   24.0880   45.6260 C   0  0  0  0  0  0  0  0  0  0  0  0
   55.5630   25.1460   45.6830 C   0  0  0  0  0  0  0  0  0  0  0  0
   54.9980   26.2730   45.7670 O   0  0  0  0  0  0  0  0  0  0  0  0
   56.9680   25.0780   45.6740 C   0  0  0  0  0  0  0  0  0  0  0  0
   57.7750   26.3200   45.7440 C   0  0  0  0  0  0  0  0  0  0  0  0
   58.4080   26.8180   44.5970 C   0  0  0  0  0  0  0  0  0  0  0  0
   59.1940   27.9710   44.6690 C   0  0  0  0  0  0  0  0  0  0  0  0
   59.3530   28.6470   45.8900 C   0  0  0  0  0  0  0  0  0  0  0  0
   60.1840   29.9020   45.9630 C   0  0  0  0  0  0  0  0  0  0  0  0
   59.5330   30.9260   46.7950 N   0  0  0  0  0  0  0  0  0  0  0  0
   60.1510   31.3180   48.0740 C   0  0  0  0  0  0  0  0  0  0  0  0
   61.4380   32.0750   47.8570 C   0  0  0  0  0  0  0  0  0  0  0  0
   62.5630   31.7960   48.6520 C   0  0  0  0  0  0  0  0  0  0  0  0
   63.7500   32.5130   48.4730 C   0  0  0  0  0  0  0  0  0  0  0  0
   63.8210   33.5230   47.5120 C   0  0  0  0  0  0  0  0  0  0  0  0
   62.7030   33.8190   46.7270 C   0  0  0  0  0  0  0  0  0  0  0  0
   61.5140   33.1040   46.9020 C   0  0  0  0  0  0  0  0  0  0  0  0
   58.3240   31.5650   46.3270 C   0  0  0  0  0  0  0  0  0  0  0  0
   57.7610   32.4390   47.0400 O   0  0  0  0  0  0  0  0  0  0  0  0
   57.7130   31.2100   45.0290 C   0  0  0  0  0  0  0  0  0  0  0  0
   56.9000   30.0670   44.9700 C   0  0  0  0  0  0  0  0  0  0  0  0
   56.3480   29.6520   43.7590 C   0  0  0  0  0  0  0  0  0  0  0  0
   56.6000   30.3700   42.5930 C   0  0  0  0  0  0  0  0  0  0  0  0
   57.3870   31.5260   42.6290 C   0  0  0  0  0  0  0  0  0  0  0  0
   57.6830   32.3690   41.1100 Cl  0  0  0  0  0  0  0  0  0  0  0  0
   57.9260   31.9830   43.8550 C   0  0  0  0  0  0  0  0  0  0  0  0
   58.7380   33.2570   43.8910 C   0  0  0  0  0  0  0  0  0  0  0  0
   58.7180   28.1470   47.0380 C   0  0  0  0  0  0  0  0  0  0  0  0
   57.9390   26.9890   46.9670 C   0  0  0  0  0  0  0  0  0  0  0  0
   59.4274   23.6124   46.6530 H   0  0  0  0  0  0  0  0  0  0  0  0
   59.3455   22.7179   45.0974 H   0  0  0  0  0  0  0  0  0  0  0  0
   59.5339   24.5043   45.0974 H   0  0  0  0  0  0  0  0  0  0  0  0
   57.2320   21.7530   45.4730 H   0  0  0  0  0  0  0  0  0  0  0  0
   52.9999   24.1075   46.6713 H   0  0  0  0  0  0  0  0  0  0  0  0
   53.0153   25.0063   45.1161 H   0  0  0  0  0  0  0  0  0  0  0  0
   52.9128   23.2129   45.1161 H   0  0  0  0  0  0  0  0  0  0  0  0
   58.2854   26.2985   43.6352 H   0  0  0  0  0  0  0  0  0  0  0  0
   59.6910   28.3514   43.7644 H   0  0  0  0  0  0  0  0  0  0  0  0
   61.1647   29.6577   46.3972 H   0  0  0  0  0  0  0  0  0  0  0  0
   60.2983   30.3027   44.9450 H   0  0  0  0  0  0  0  0  0  0  0  0
   59.4491   31.9579   48.6289 H   0  0  0  0  0  0  0  0  0  0  0  0
   60.3797   30.4038   48.6414 H   0  0  0  0  0  0  0  0  0  0  0  0
   62.5094   31.0094   49.4191 H   0  0  0  0  0  0  0  0  0  0  0  0
   64.6299   32.2806   49.0909 H   0  0  0  0  0  0  0  0  0  0  0  0
   64.7560   34.0855   47.3726 H   0  0  0  0  0  0  0  0  0  0  0  0
   62.7585   34.6156   45.9704 H   0  0  0  0  0  0  0  0  0  0  0  0
   60.6336   33.3479   46.2893 H   0  0  0  0  0  0  0  0  0  0  0  0
   56.6969   29.4942   45.8868 H   0  0  0  0  0  0  0  0  0  0  0  0
   55.7119   28.7552   43.7246 H   0  0  0  0  0  0  0  0  0  0  0  0
   56.1775   30.0261   41.6374 H   0  0  0  0  0  0  0  0  0  0  0  0
   58.9217   33.5453   44.9365 H   0  0  0  0  0  0  0  0  0  0  0  0
   59.6990   33.0938   43.3813 H   0  0  0  0  0  0  0  0  0  0  0  0
   58.1843   34.0593   43.3813 H   0  0  0  0  0  0  0  0  0  0  0  0
   58.8343   28.6698   47.9988 H   0  0  0  0  0  0  0  0  0  0  0  0
   57.4522   26.6001   47.8735 H   0  0  0  0  0  0  0  0  0  0  0  0
  1  2  1  0
  2  3  1  0
  3  4  1  0
  4  5  2  0
  4  6  1  0
  6  7  1  0
  6  8  1  0
  8  9  2  0
  8 10  1  0
 10 11  1  0
 11 12  2  0
 12 13  1  0
 13 14  2  0
 14 15  1  0
 15 16  1  0
 16 17  1  0
 17 18  1  0
 18 19  2  0
 19 20  1  0
 20 21  2  0
 21 22  1  0
 22 23  2  0
 16 24  1  0
 24 25  2  0
 24 26  1  0
 26 27  2  0
 27 28  1  0
 28 29  2  0
 29 30  1  0
 30 31  1  0
 30 32  2  0
 32 33  1  0
 14 34  1  0
 34 35  2  0
 10  2  2  0
 35 11  1  0
 23 18  1  0
 32 26  1  0
  1 36  1  0
  1 37  1  0
  1 38  1  0
  3 39  1  0
  7 40  1  0
  7 41  1  0
  7 42  1  0
 12 43  1  0
 13 44  1  0
 15 45  1  0
 15 46  1  0
 17 47  1  0
 17 48  1  0
 19 49  1  0
 20 50  1  0
 21 51  1  0
 22 52  1  0
 23 53  1  0
 27 54  1  0
 28 55  1  0
 29 56  1  0
 33 57  1  0
 33 58  1  0
 33 59  1  0
 34 60  1  0
 35 61  1  0
M  END
>  <UniqueID>  (22) 
19

>  <SMILES>  (22) 
Cc1[nH]c(=O)n(C)c(=O)c1-c1ccc(CN(Cc2ccccc2)C(=O)c2cccc(Cl)c2C)cc1

>  <Energy>  (22) 
81.49757300382092

>  <Genealogy>  (22) 
Cc1[nH]c(=O)n(C)c(=O)c1-c1ccc(CN(Cc2ccccc2)C(=O)c2cccc(Cl)c2C)cc1 (3D coordinates assigned)
Cc1[nH]c(=O)n(C)c(=O)c1-c1ccc(CN(Cc2ccccc2)C(=O)c2cccc(Cl)c2C)cc1 (optimized conformer: 81.49757300382092 kcal/mol)

>  <smiles>  (22) 
Cc1[nH]c(=O)n(C)c(=O)c1-c1ccc(CN(Cc2ccccc2)C(=O)c2cccc(Cl)c2C)cc1

>  <score_type>  (22) 
oracle

>  <origin>  (22) 
adg

>  <m_score__min__energy>  (22) 
-10.640000000000001

>  <m_primary>  (22) 
energy

$$$$
22:0
     RDKit          3D

 29 30  0  0  0  0  0  0  0  0999 V2000
   57.5380   33.6150   45.2420 C   0  0  0  0  0  0  0  0  0  0  0  0
   58.0960   32.3270   46.3990 S   0  0  0  0  0  0  0  0  0  0  0  0
   57.7490   30.9800   45.2600 C   0  0  0  0  0  0  0  0  0  0  0  0
   56.5200   30.8110   44.8710 N   0  0  0  0  0  0  0  0  0  0  0  0
   56.1190   29.8120   43.9290 C   0  0  0  0  0  0  0  0  0  0  0  0
   54.9020   29.6990   43.6270 O   0  0  0  0  0  0  0  0  0  0  0  0
   57.1370   28.9400   43.2570 C   0  0  0  0  0  0  0  0  0  0  0  0
   58.4010   28.7800   44.1210 C   0  0  2  0  0  0  0  0  0  0  0  0
   58.2260   27.6860   45.1760 C   0  0  0  0  0  0  0  0  0  0  0  0
   59.3230   26.9790   45.7110 C   0  0  0  0  0  0  0  0  0  0  0  0
   59.1250   25.9910   46.6810 C   0  0  0  0  0  0  0  0  0  0  0  0
   57.8380   25.6980   47.1340 C   0  0  0  0  0  0  0  0  0  0  0  0
   57.6520   24.7410   48.0750 F   0  0  0  0  0  0  0  0  0  0  0  0
   56.7440   26.3970   46.6200 C   0  0  0  0  0  0  0  0  0  0  0  0
   56.9350   27.3840   45.6500 C   0  0  0  0  0  0  0  0  0  0  0  0
   58.8790   30.1520   44.6760 C   0  0  2  0  0  0  0  0  0  0  0  0
   59.9820   29.9780   45.6390 C   0  0  0  0  0  0  0  0  0  0  0  0
   60.8470   29.8410   46.3960 N   0  0  0  0  0  0  0  0  0  0  0  0
   57.1633   34.4799   45.8091 H   0  0  0  0  0  0  0  0  0  0  0  0
   58.3808   33.9290   44.6086 H   0  0  0  0  0  0  0  0  0  0  0  0
   56.7325   33.2150   44.6086 H   0  0  0  0  0  0  0  0  0  0  0  0
   56.6968   27.9475   43.0803 H   0  0  0  0  0  0  0  0  0  0  0  0
   57.4256   29.4149   42.3077 H   0  0  0  0  0  0  0  0  0  0  0  0
   59.2248   28.4246   43.4846 H   0  0  0  0  0  0  0  0  0  0  0  0
   60.3414   27.2063   45.3629 H   0  0  0  0  0  0  0  0  0  0  0  0
   59.9872   25.4427   47.0884 H   0  0  0  0  0  0  0  0  0  0  0  0
   55.7295   26.1700   46.9796 H   0  0  0  0  0  0  0  0  0  0  0  0
   56.0675   27.9311   45.2523 H   0  0  0  0  0  0  0  0  0  0  0  0
   59.2617   30.7246   43.8183 H   0  0  0  0  0  0  0  0  0  0  0  0
  1  2  1  0
  2  3  1  0
  3  4  2  0
  4  5  1  0
  5  6  2  0
  5  7  1  0
  7  8  1  0
  8  9  1  0
  9 10  2  0
 10 11  1  0
 11 12  2  0
 12 13  1  0
 12 14  1  0
 14 15  2  0
  8 16  1  0
 16 17  1  0
 17 18  3  0
 16  3  1  0
 15  9  1  0
  1 19  1  0
  1 20  1  0
  1 21  1  0
  7 22  1  0
  7 23  1  0
  8 24  1  6
 10 25  1  0
 11 26  1  0
 14 27  1  0
 15 28  1  0
 16 29  1  6
M  END
>  <UniqueID>  (23) 
20

>  <SMILES>  (23) 
CSC1=NC(=O)C[C@H](c2ccc(F)cc2)[C@@H]1C#N

>  <Energy>  (23) 
28.71234063356114

>  <Genealogy>  (23) 
CSC1=NC(=O)C[C@H](c2ccc(F)cc2)[C@@H]1C#N (chirality)
CSC1=NC(=O)C[C@H](c2ccc(F)cc2)[C@@H]1C#N (3D coordinates assigned)
CSC1=NC(=O)C[C@H](c2ccc(F)cc2)[C@@H]1C#N (nonaromatic ring conformer: 28.71234063356114 kcal/mol)

>  <smiles>  (23) 
CSC1=NC(=O)CC(c2ccc(F)cc2)C1C#N

>  <score_type>  (23) 
oracle

>  <origin>  (23) 
adg

>  <m_score__min__energy>  (23) 
-6.4500000000000002

>  <m_primary>  (23) 
energy

$$$$
23:0
     RDKit          3D

 33 34  0  0  0  0  0  0  0  0999 V2000
   54.8110   25.9220   45.6620 N   0  0  0  0  0  0  0  0  0  0  0  0
   55.9080   25.9660   46.0290 C   0  0  0  0  0  0  0  0  0  0  0  0
   57.2680   26.0190   46.4830 C   0  0  0  0  0  0  0  0  0  0  0  0
   58.2510   25.2420   45.9790 N   0  0  0  0  0  0  0  0  0  0  0  0
   59.3250   25.6600   46.6760 C   0  0  0  0  0  0  0  0  0  0  0  0
   58.9920   26.6250   47.5510 N   0  0  0  0  0  0  0  0  0  0  0  0
   59.9060   27.4040   48.3790 C   0  0  0  0  0  0  0  0  0  0  0  0
   60.1540   28.7280   47.7280 C   0  0  0  0  0  0  0  0  0  0  0  0
   61.1200   29.4410   48.1130 O   0  0  0  0  0  0  0  0  0  0  0  0
   59.3510   29.1370   46.6140 N   0  0  0  0  0  0  0  0  0  0  0  0
   59.8270   30.1130   45.6340 C   0  0  0  0  0  0  0  0  0  0  0  0
   58.8260   31.2430   45.4900 C   0  0  0  0  0  0  0  0  0  0  0  0
   59.2170   32.5270   45.9180 C   0  0  0  0  0  0  0  0  0  0  0  0
   58.3350   33.6040   45.8460 C   0  0  0  0  0  0  0  0  0  0  0  0
   57.0550   33.4240   45.3280 C   0  0  0  0  0  0  0  0  0  0  0  0
   56.6570   32.1680   44.8710 C   0  0  0  0  0  0  0  0  0  0  0  0
   57.5300   31.0670   44.9340 C   0  0  0  0  0  0  0  0  0  0  0  0
   56.9730   29.5130   44.2910 S   0  0  0  0  0  0  0  0  0  0  0  0
   55.5750   28.9860   45.1610 N   0  0  0  0  0  0  0  0  0  0  0  0
   58.0460   28.4700   44.4390 O   0  0  0  0  0  0  0  0  0  0  0  0
   56.6410   29.6560   42.8330 O   0  0  0  0  0  0  0  0  0  0  0  0
   57.7010   26.8730   47.4280 N   0  0  0  0  0  0  0  0  0  0  0  0
   60.3427   25.2633   46.5462 H   0  0  0  0  0  0  0  0  0  0  0  0
   59.4598   27.5604   49.3722 H   0  0  0  0  0  0  0  0  0  0  0  0
   60.8572   26.8626   48.4886 H   0  0  0  0  0  0  0  0  0  0  0  0
   58.4610   28.6270   46.4160 H   0  0  0  0  0  0  0  0  0  0  0  0
   60.7915   30.5227   45.9684 H   0  0  0  0  0  0  0  0  0  0  0  0
   59.9473   29.6145   44.6609 H   0  0  0  0  0  0  0  0  0  0  0  0
   60.2315   32.6817   46.3141 H   0  0  0  0  0  0  0  0  0  0  0  0
   58.6504   34.5970   46.1987 H   0  0  0  0  0  0  0  0  0  0  0  0
   56.3574   34.2731   45.2793 H   0  0  0  0  0  0  0  0  0  0  0  0
   55.6469   32.0366   44.4557 H   0  0  0  0  0  0  0  0  0  0  0  0
   55.5200   27.9500   45.0490 H   0  0  0  0  0  0  0  0  0  0  0  0
  1  2  3  0
  2  3  1  0
  3  4  1  0
  4  5  2  0
  5  6  1  0
  6  7  1  0
  7  8  1  0
  8  9  2  0
  8 10  1  0
 10 11  1  0
 11 12  1  0
 12 13  2  0
 13 14  1  0
 14 15  2  0
 15 16  1  0
 16 17  2  0
 17 18  1  0
 18 19  1  0
 18 20  2  0
 18 21  2  0
  6 22  1  0
 22  3  2  0
 17 12  1  0
  5 23  1  0
  7 24  1  0
  7 25  1  0
 10 26  1  0
 11 27  1  0
 11 28  1  0
 13 29  1  0
 14 30  1  0
 15 31  1  0
 16 32  1  0
 19 33  1  0
M  CHG  1  19  -1
M  END
>  <UniqueID>  (24) 
21

>  <SMILES>  (24) 
N#Cc1ncn(CC(=O)NCc2ccccc2S([NH-])(=O)=O)n1

>  <Energy>  (24) 
61.89302122609487

>  <Genealogy>  (24) 
N#Cc1ncn(CC(=O)NCc2ccccc2S([NH-])(=O)=O)n1 (protonated)
N#Cc1ncn(CC(=O)NCc2ccccc2S([NH-])(=O)=O)n1 (3D coordinates assigned)
N#Cc1ncn(CC(=O)NCc2ccccc2S([NH-])(=O)=O)n1 (optimized conformer: 61.89302122609487 kcal/mol)

>  <smiles>  (24) 
N#Cc1ncn(CC(=O)NCc2ccccc2S(N)(=O)=O)n1

>  <score_type>  (24) 
oracle

>  <origin>  (24) 
adg

>  <m_score__min__energy>  (24) 
-11.039999999999999

>  <m_primary>  (24) 
energy

$$$$
24:0
     RDKit          3D

 30 31  0  0  0  0  0  0  0  0999 V2000
   58.0630   30.8460   43.4990 O   0  0  0  0  0  0  0  0  0  0  0  0
   57.2130   31.3340   44.2890 C   0  0  0  0  0  0  0  0  0  0  0  0
   56.2280   30.4730   44.8680 N   0  0  0  0  0  0  0  0  0  0  0  0
   56.0510   29.0740   44.4940 C   0  0  0  0  0  0  0  0  0  0  0  0
   56.9590   28.1850   45.3090 C   0  0  0  0  0  0  0  0  0  0  0  0
   58.3320   28.4790   45.3760 C   0  0  0  0  0  0  0  0  0  0  0  0
   59.1940   27.6710   46.1220 C   0  0  0  0  0  0  0  0  0  0  0  0
   58.6950   26.5580   46.8030 C   0  0  0  0  0  0  0  0  0  0  0  0
   57.3350   26.2500   46.7370 C   0  0  0  0  0  0  0  0  0  0  0  0
   56.4650   27.0550   45.9920 C   0  0  0  0  0  0  0  0  0  0  0  0
   55.1140   26.7230   45.9420 O   0  0  0  0  0  0  0  0  0  0  0  0
   57.2620   32.7220   44.6440 N   0  0  0  0  0  0  0  0  0  0  0  0
   58.2280   33.3390   45.5080 C   0  0  0  0  0  0  0  0  0  0  0  0
   58.7240   34.6290   45.2430 C   0  0  0  0  0  0  0  0  0  0  0  0
   59.6390   35.2280   46.1140 C   0  0  0  0  0  0  0  0  0  0  0  0
   60.0560   34.5540   47.2630 C   0  0  0  0  0  0  0  0  0  0  0  0
   59.5550   33.2810   47.5460 C   0  0  0  0  0  0  0  0  0  0  0  0
   58.6420   32.6710   46.6790 C   0  0  0  0  0  0  0  0  0  0  0  0
   58.1660   31.3980   46.9960 O   0  0  0  0  0  0  0  0  0  0  0  0
   55.0054   28.7822   44.6717 H   0  0  0  0  0  0  0  0  0  0  0  0
   56.3040   28.9576   43.4299 H   0  0  0  0  0  0  0  0  0  0  0  0
   58.7306   29.3513   44.8373 H   0  0  0  0  0  0  0  0  0  0  0  0
   60.2662   27.9115   46.1731 H   0  0  0  0  0  0  0  0  0  0  0  0
   59.3742   25.9238   47.3917 H   0  0  0  0  0  0  0  0  0  0  0  0
   56.9455   25.3715   47.2723 H   0  0  0  0  0  0  0  0  0  0  0  0
   58.3898   35.1694   44.3451 H   0  0  0  0  0  0  0  0  0  0  0  0
   60.0309   36.2319   45.8935 H   0  0  0  0  0  0  0  0  0  0  0  0
   60.7788   35.0250   47.9454 H   0  0  0  0  0  0  0  0  0  0  0  0
   59.8802   32.7552   48.4558 H   0  0  0  0  0  0  0  0  0  0  0  0
   57.5900   30.8610   46.3600 H   0  0  0  0  0  0  0  0  0  0  0  0
  1  2  2  0
  2  3  1  0
  3  4  1  0
  4  5  1  0
  5  6  2  0
  6  7  1  0
  7  8  2  0
  8  9  1  0
  9 10  2  0
 10 11  1  0
  2 12  1  0
 12 13  1  0
 13 14  2  0
 14 15  1  0
 15 16  2  0
 16 17  1  0
 17 18  2  0
 18 19  1  0
 10  5  1  0
 18 13  1  0
  4 20  1  0
  4 21  1  0
  6 22  1  0
  7 23  1  0
  8 24  1  0
  9 25  1  0
 14 26  1  0
 15 27  1  0
 16 28  1  0
 17 29  1  0
 19 30  1  0
M  CHG  3   3  -1  11  -1  12  -1
M  END
>  <UniqueID>  (25) 
22

>  <SMILES>  (25) 
O=C([N-]Cc1ccccc1[O-])[N-]c1ccccc1O

>  <Energy>  (25) 
32.253233561232754

>  <Genealogy>  (25) 
O=C([N-]Cc1ccccc1[O-])[N-]c1ccccc1O (protonated)
O=C([N-]Cc1ccccc1[O-])[N-]c1ccccc1O (3D coordinates assigned)
O=C([N-]Cc1ccccc1[O-])[N-]c1ccccc1O (optimized conformer: 32.253233561232754 kcal/mol)

>  <smiles>  (25) 
O=C(NCc1ccccc1O)Nc1ccccc1O

>  <score_type>  (25) 
oracle

>  <origin>  (25) 
adg

>  <m_score__min__energy>  (25) 
-12.630000000000001

>  <m_primary>  (25) 
energy

$$$$
25:0
     RDKit          3D

 45 48  0  0  0  0  0  0  0  0999 V2000
   55.1440   27.8550   45.0740 H   0  0  0  0  0  0  0  0  0  0  0  0
   55.5840   28.7630   44.9890 O   0  0  0  0  0  0  0  0  0  0  0  0
   56.9400   28.9620   45.2490 C   0  0  0  0  0  0  0  0  0  0  0  0
   57.5800   30.0680   44.6810 C   0  0  0  0  0  0  0  0  0  0  0  0
   57.0116   30.7586   44.0407 H   0  0  0  0  0  0  0  0  0  0  0  0
   58.9360   30.3020   44.9210 C   0  0  0  0  0  0  0  0  0  0  0  0
   59.4291   31.1756   44.4697 H   0  0  0  0  0  0  0  0  0  0  0  0
   59.6710   29.4290   45.7340 C   0  0  0  0  0  0  0  0  0  0  0  0
   61.1430   29.6600   45.9630 C   0  0  0  0  0  0  0  0  0  0  0  0
   61.6287   28.6967   46.1778 H   0  0  0  0  0  0  0  0  0  0  0  0
   61.5703   30.1150   45.0572 H   0  0  0  0  0  0  0  0  0  0  0  0
   61.3650   30.5690   47.0890 N   0  0  0  0  0  0  0  0  0  0  0  0
   60.5940   31.5470   47.4870 C   0  0  0  0  0  0  0  0  0  0  0  0
   60.5720   32.7920   46.8280 C   0  0  0  0  0  0  0  0  0  0  0  0
   61.2108   32.9596   45.9483 H   0  0  0  0  0  0  0  0  0  0  0  0
   59.7410   33.8120   47.2900 C   0  0  0  0  0  0  0  0  0  0  0  0
   59.7245   34.7818   46.7712 H   0  0  0  0  0  0  0  0  0  0  0  0
   58.9530   33.6140   48.3760 N   0  0  0  0  0  0  0  0  0  0  0  0
   58.9390   32.4320   49.0450 C   0  0  0  0  0  0  0  0  0  0  0  0
   58.1040   32.2770   50.1580 C   0  0  0  0  0  0  0  0  0  0  0  0
   57.4790   33.1165   50.4966 H   0  0  0  0  0  0  0  0  0  0  0  0
   58.0630   31.0570   50.8400 C   0  0  0  0  0  0  0  0  0  0  0  0
   57.0010   30.8620   52.2220 Cl  0  0  0  0  0  0  0  0  0  0  0  0
   58.8630   29.9920   50.4180 C   0  0  0  0  0  0  0  0  0  0  0  0
   58.8286   29.0341   50.9577 H   0  0  0  0  0  0  0  0  0  0  0  0
   59.7070   30.1380   49.3130 C   0  0  0  0  0  0  0  0  0  0  0  0
   60.3344   29.2948   48.9884 H   0  0  0  0  0  0  0  0  0  0  0  0
   59.7580   31.3600   48.6130 C   0  0  0  0  0  0  0  0  0  0  0  0
   59.0360   28.3060   46.2880 C   0  0  0  0  0  0  0  0  0  0  0  0
   59.6168   27.5950   46.8940 H   0  0  0  0  0  0  0  0  0  0  0  0
   57.6640   28.0820   46.0750 C   0  0  0  0  0  0  0  0  0  0  0  0
   57.0070   26.9430   46.6520 N   0  0  0  0  0  0  0  0  0  0  0  0
   56.1400   26.0360   45.9580 C   0  0  0  0  0  0  0  0  0  0  0  0
   54.9070   26.2920   45.9220 O   0  0  0  0  0  0  0  0  0  0  0  0
   56.6420   24.7860   45.3370 C   0  0  0  0  0  0  0  0  0  0  0  0
   57.9020   24.2750   45.6980 C   0  0  0  0  0  0  0  0  0  0  0  0
   58.4999   24.7871   46.4663 H   0  0  0  0  0  0  0  0  0  0  0  0
   58.3990   23.1200   45.0860 C   0  0  0  0  0  0  0  0  0  0  0  0
   59.3815   22.7223   45.3801 H   0  0  0  0  0  0  0  0  0  0  0  0
   57.6510   22.4710   44.1030 C   0  0  0  0  0  0  0  0  0  0  0  0
   58.0503   21.5704   43.6137 H   0  0  0  0  0  0  0  0  0  0  0  0
   56.3960   22.9640   43.7400 C   0  0  0  0  0  0  0  0  0  0  0  0
   55.8014   22.4428   42.9753 H   0  0  0  0  0  0  0  0  0  0  0  0
   55.8940   24.1190   44.3470 C   0  0  0  0  0  0  0  0  0  0  0  0
   54.9094   24.5092   44.0499 H   0  0  0  0  0  0  0  0  0  0  0  0
  1  2  1  0
  2  3  1  0
  3  4  2  0
  4  5  1  0
  4  6  1  0
  6  7  1  0
  6  8  2  0
  8  9  1  0
  9 10  1  0
  9 11  1  0
  9 12  1  0
 12 13  2  0
 13 14  1  0
 14 15  1  0
 14 16  2  0
 16 17  1  0
 16 18  1  0
 18 19  1  0
 19 20  2  0
 20 21  1  0
 20 22  1  0
 22 23  1  0
 22 24  2  0
 24 25  1  0
 24 26  1  0
 26 27  1  0
 26 28  2  0
  8 29  1  0
 29 30  1  0
 29 31  2  0
 31 32  1  0
 32 33  1  0
 33 34  2  0
 33 35  1  0
 35 36  2  0
 36 37  1  0
 36 38  1  0
 38 39  1  0
 38 40  2  0
 40 41  1  0
 40 42  1  0
 42 43  1  0
 42 44  2  0
 44 45  1  0
 31  3  1  0
 44 35  1  0
 28 13  1  0
 28 19  1  0
M  CHG  2  18  -1  32  -1
M  END
>  <UniqueID>  (26) 
23

>  <SMILES>  (26) 
O=C([N-]c1cc(C/N=c2\cc[n-]c3cc(Cl)ccc23)ccc1O)c1ccccc1

>  <Energy>  (26) 
58.12912082247566

>  <Genealogy>  (26) 
O=C([N-]c1cc(CN=c2cc[n-]c3cc(Cl)ccc23)ccc1O)c1ccccc1 (protonated)
O=C([N-]c1cc(C/N=c2\cc[n-]c3cc(Cl)ccc23)ccc1O)c1ccccc1 (cis-trans isomerization)
O=C([N-]c1cc(C/N=c2\cc[n-]c3cc(Cl)ccc23)ccc1O)c1ccccc1 (3D coordinates assigned)
O=C([N-]c1cc(C/N=c2\cc[n-]c3cc(Cl)ccc23)ccc1O)c1ccccc1 (optimized conformer: 58.12912082247566 kcal/mol)

>  <smiles>  (26) 
O=C(Nc1cc(CN=c2cc[nH]c3cc(Cl)ccc23)ccc1O)c1ccccc1

>  <score_type>  (26) 
oracle

>  <origin>  (26) 
adg

>  <m_score__min__energy>  (26) 
-12.970000000000001

>  <m_primary>  (26) 
energy

$$$$
26:0
     RDKit          3D

 54 56  0  0  1  0  0  0  0  0999 V2000
   56.3750   21.8290   49.7480 C   0  0  0  0  0  0  0  0  0  0  0  0
   57.3600   21.9100   48.7470 O   0  0  0  0  0  0  0  0  0  0  0  0
   57.1820   22.3610   47.4800 N   0  0  0  0  0  0  0  0  0  0  0  0
   56.4590   21.8160   46.5740 C   0  0  0  0  0  0  0  0  0  0  0  0
   56.3820   22.1960   45.1840 C   0  0  0  0  0  0  0  0  0  0  0  0
   56.4000   23.5590   44.8560 C   0  0  0  0  0  0  0  0  0  0  0  0
   56.4920   24.5160   45.8650 O   0  0  0  0  0  0  0  0  0  0  0  0
   57.4550   25.5050   45.9070 C   0  0  0  0  0  0  0  0  0  0  0  0
   58.8110   25.2170   46.0890 C   0  0  0  0  0  0  0  0  0  0  0  0
   59.7590   26.2410   46.1280 C   0  0  0  0  0  0  0  0  0  0  0  0
   59.3200   27.5430   45.9810 C   0  0  0  0  0  0  0  0  0  0  0  0
   60.1940   28.6650   46.0040 N   0  0  0  0  0  0  0  0  0  0  0  0
   59.8960   29.8630   46.7210 C   0  0  0  0  0  0  0  0  0  0  0  0
   58.8240   30.0000   47.3880 O   0  0  0  0  0  0  0  0  0  0  0  0
   60.8630   30.9020   46.6540 N   0  0  0  0  0  0  0  0  0  0  0  0
   60.7110   32.1540   47.3140 C   0  0  0  0  0  0  0  0  0  0  0  0
   59.4860   32.7580   47.2630 C   0  0  0  0  0  0  0  0  0  0  0  0
   59.2610   33.9770   47.8800 C   0  0  0  0  0  0  0  0  0  0  0  0
   60.3110   34.5690   48.5550 C   0  0  0  0  0  0  0  0  0  0  0  0
   61.5660   34.0030   48.6380 C   0  0  0  0  0  0  0  0  0  0  0  0
   62.6390   34.6160   49.3310 N   0  0  0  0  0  0  0  0  0  0  0  0
   63.5030   33.6660   50.4960 S   0  0  0  0  0  0  0  0  0  0  0  0
   65.0180   33.0460   49.8090 C   0  0  0  0  0  0  0  0  0  0  0  0
   62.6450   32.5430   51.0090 O   0  0  0  0  0  0  0  0  0  0  0  0
   63.8060   34.5580   51.6510 O   0  0  0  0  0  0  0  0  0  0  0  0
   61.7270   32.7800   47.9970 C   0  0  0  0  0  0  0  0  0  0  0  0
   62.9370   32.1750   48.0440 F   0  0  0  0  0  0  0  0  0  0  0  0
   57.9660   27.8090   45.8010 C   0  0  0  0  0  0  0  0  0  0  0  0
   57.0370   26.8070   45.7640 C   0  0  0  0  0  0  0  0  0  0  0  0
   56.3340   24.0040   43.6010 N   0  0  0  0  0  0  0  0  0  0  0  0
   56.2460   23.0930   42.6200 C   0  0  0  0  0  0  0  0  0  0  0  0
   56.2220   21.7840   42.8480 N   0  0  0  0  0  0  0  0  0  0  0  0
   56.2900   21.3280   44.1290 C   0  0  0  0  0  0  0  0  0  0  0  0
   56.2620   20.0630   44.2700 N   0  0  0  0  0  0  0  0  0  0  0  0
   56.8538   21.8684   50.7376 H   0  0  0  0  0  0  0  0  0  0  0  0
   55.6769   22.6728   49.6446 H   0  0  0  0  0  0  0  0  0  0  0  0
   55.8241   20.8825   49.6446 H   0  0  0  0  0  0  0  0  0  0  0  0
   55.8309   20.9695   46.8885 H   0  0  0  0  0  0  0  0  0  0  0  0
   59.1345   24.1718   46.2027 H   0  0  0  0  0  0  0  0  0  0  0  0
   60.8264   26.0175   46.2718 H   0  0  0  0  0  0  0  0  0  0  0  0
   61.0890   28.5540   45.4480 H   0  0  0  0  0  0  0  0  0  0  0  0
   61.7550   30.7880   46.0990 H   0  0  0  0  0  0  0  0  0  0  0  0
   58.6639   32.2668   46.7219 H   0  0  0  0  0  0  0  0  0  0  0  0
   58.2740   34.4604   47.8340 H   0  0  0  0  0  0  0  0  0  0  0  0
   60.1381   35.5365   49.0491 H   0  0  0  0  0  0  0  0  0  0  0  0
   62.8770   35.5910   49.1300 H   0  0  0  0  0  0  0  0  0  0  0  0
   65.7023   32.7659   50.6234 H   0  0  0  0  0  0  0  0  0  0  0  0
   64.8050   32.1627   49.1890 H   0  0  0  0  0  0  0  0  0  0  0  0
   65.4854   33.8252   49.1890 H   0  0  0  0  0  0  0  0  0  0  0  0
   57.6350   28.8517   45.6856 H   0  0  0  0  0  0  0  0  0  0  0  0
   55.9711   27.0388   45.6220 H   0  0  0  0  0  0  0  0  0  0  0  0
   56.3500   25.0290   43.3910 H   0  0  0  0  0  0  0  0  0  0  0  0
   56.1912   23.4457   41.5795 H   0  0  0  0  0  0  0  0  0  0  0  0
   56.9660   19.3680   44.1120 H   0  0  0  0  0  0  0  0  0  0  0  0
  1  2  1  0
  2  3  1  0
  3  4  2  0
  4  5  1  0
  5  6  2  0
  6  7  1  0
  7  8  1  0
  8  9  2  0
  9 10  1  0
 10 11  2  0
 11 12  1  0
 12 13  1  0
 13 14  2  0
 13 15  1  0
 15 16  1  0
 16 17  2  0
 17 18  1  0
 18 19  2  0
 19 20  1  0
 20 21  1  0
 21 22  1  0
 22 23  1  0
 22 24  2  0
 22 25  2  0
 20 26  2  0
 26 27  1  0
 11 28  1  0
 28 29  2  0
  6 30  1  0
 30 31  1  0
 31 32  2  0
 32 33  1  0
 33 34  2  3
 33  5  1  0
 29  8  1  0
 26 16  1  0
  1 35  1  0
  1 36  1  0
  1 37  1  0
  4 38  1  0
  9 39  1  0
 10 40  1  0
 12 41  1  0
 15 42  1  0
 17 43  1  0
 18 44  1  0
 19 45  1  0
 21 46  1  0
 23 47  1  0
 23 48  1  0
 23 49  1  0
 28 50  1  0
 29 51  1  0
 30 52  1  0
 31 53  1  0
 34 54  1  0
M  END
>  <smiles>  (27) 
CON=Cc1c(Oc2ccc(NC(=O)Nc3cccc(NS(C)(=O)=O)c3F)cc2)[nH]cnc1=N

>  <score_type>  (27) 
oracle

>  <origin>  (27) 
adg

>  <m_score__min__energy>  (27) 
-8.4700000000000006

>  <m_primary>  (27) 
energy

$$$$
27:0
     RDKit          3D

 32 34  0  0  0  0  0  0  0  0999 V2000
   55.7680   26.5440   46.2570 N   0  0  0  0  0  0  0  0  0  0  0  0
   56.9190   27.5750   45.4810 S   0  0  0  0  0  0  0  0  0  0  0  0
   57.3890   26.9190   44.2140 O   0  0  0  0  0  0  0  0  0  0  0  0
   56.2500   28.8810   45.1550 O   0  0  0  0  0  0  0  0  0  0  0  0
   58.3060   27.8670   46.5420 C   0  0  0  0  0  0  0  0  0  0  0  0
   58.6060   26.9390   47.5520 C   0  0  0  0  0  0  0  0  0  0  0  0
   59.6890   27.1480   48.4090 C   0  0  0  0  0  0  0  0  0  0  0  0
   60.4880   28.2820   48.2630 C   0  0  0  0  0  0  0  0  0  0  0  0
   60.2070   29.2100   47.2600 C   0  0  0  0  0  0  0  0  0  0  0  0
   59.1090   29.0240   46.4020 C   0  0  0  0  0  0  0  0  0  0  0  0
   58.8680   29.9940   45.3150 C   0  0  0  0  0  0  0  0  0  0  0  0
   58.4800   31.2600   45.5240 C   0  0  0  0  0  0  0  0  0  0  0  0
   57.2270   31.9320   45.1390 C   0  0  0  0  0  0  0  0  0  0  0  0
   56.2730   31.4100   44.5030 O   0  0  0  0  0  0  0  0  0  0  0  0
   57.2480   33.3030   45.5250 N   0  0  0  0  0  0  0  0  0  0  0  0
   58.5230   33.4910   46.1280 C   0  0  0  0  0  0  0  0  0  0  0  0
   59.0220   34.6820   46.6510 C   0  0  0  0  0  0  0  0  0  0  0  0
   60.3130   34.6770   47.2030 C   0  0  0  0  0  0  0  0  0  0  0  0
   61.0780   33.4920   47.2230 C   0  0  0  0  0  0  0  0  0  0  0  0
   62.6890   33.5050   47.9160 Cl  0  0  0  0  0  0  0  0  0  0  0  0
   60.5570   32.3010   46.6880 C   0  0  0  0  0  0  0  0  0  0  0  0
   59.2700   32.3270   46.1430 C   0  0  0  0  0  0  0  0  0  0  0  0
   54.8900   27.0980   46.3700 H   0  0  0  0  0  0  0  0  0  0  0  0
   57.9831   26.0400   47.6693 H   0  0  0  0  0  0  0  0  0  0  0  0
   59.9121   26.4172   49.2003 H   0  0  0  0  0  0  0  0  0  0  0  0
   61.3402   28.4447   48.9392 H   0  0  0  0  0  0  0  0  0  0  0  0
   60.8498   30.0945   47.1395 H   0  0  0  0  0  0  0  0  0  0  0  0
   59.0148   29.6596   44.2774 H   0  0  0  0  0  0  0  0  0  0  0  0
   56.5090   34.0210   45.3590 H   0  0  0  0  0  0  0  0  0  0  0  0
   58.4201   35.6025   46.6320 H   0  0  0  0  0  0  0  0  0  0  0  0
   60.7309   35.6038   47.6229 H   0  0  0  0  0  0  0  0  0  0  0  0
   61.1468   31.3726   46.6980 H   0  0  0  0  0  0  0  0  0  0  0  0
  1  2  1  0
  2  3  2  0
  2  4  2  0
  2  5  1  0
  5  6  2  0
  6  7  1  0
  7  8  2  0
  8  9  1  0
  9 10  2  0
 10 11  1  0
 11 12  2  3
 12 13  1  0
 13 14  2  0
 13 15  1  0
 15 16  1  0
 16 17  2  0
 17 18  1  0
 18 19  2  0
 19 20  1  0
 19 21  1  0
 21 22  2  0
 10  5  1  0
 22 12  1  0
 22 16  1  0
  1 23  1  0
  6 24  1  0
  7 25  1  0
  8 26  1  0
  9 27  1  0
 11 28  1  0
 15 29  1  0
 17 30  1  0
 18 31  1  0
 21 32  1  0
M  CHG  1   1  -1
M  END
>  <UniqueID>  (28) 
24

>  <SMILES>  (28) 
[NH-]S(=O)(=O)c1ccccc1C=C1C(=O)Nc2ccc(Cl)cc21

>  <Energy>  (28) 
72.48404250137636

>  <Genealogy>  (28) 
[NH-]S(=O)(=O)c1ccccc1C=C1C(=O)Nc2ccc(Cl)cc21 (protonated)
[NH-]S(=O)(=O)c1ccccc1C=C1C(=O)Nc2ccc(Cl)cc21 (3D coordinates assigned)
[NH-]S(=O)(=O)c1ccccc1C=C1C(=O)Nc2ccc(Cl)cc21 (nonaromatic ring conformer: 72.48404250137636 kcal/mol)

>  <smiles>  (28) 
NS(=O)(=O)c1ccccc1C=C1C(=O)Nc2ccc(Cl)cc21

>  <score_type>  (28) 
oracle

>  <origin>  (28) 
adg

>  <m_score__min__energy>  (28) 
-11.51

>  <m_primary>  (28) 
energy

$$$$
28:0
     RDKit          3D

 51 53  0  0  0  0  0  0  0  0999 V2000
   60.6540   27.8410   49.1530 C   0  0  0  0  0  0  0  0  0  0  0  0
   60.7010   28.8830   48.0370 C   0  0  0  0  0  0  0  0  0  0  0  0
   60.4870   28.2620   46.6460 C   0  0  0  0  0  0  0  0  0  0  0  0
   59.0840   28.4160   46.1840 N   0  0  0  0  0  0  0  0  0  0  0  0
   58.7060   29.6140   45.6150 C   0  0  0  0  0  0  0  0  0  0  0  0
   59.5490   30.5480   45.4920 O   0  0  0  0  0  0  0  0  0  0  0  0
   57.3920   29.8210   45.1510 C   0  0  0  0  0  0  0  0  0  0  0  0
   56.9960   31.1180   44.5380 C   0  0  0  0  0  0  0  0  0  0  0  0
   56.6710   31.1710   43.3200 O   0  0  0  0  0  0  0  0  0  0  0  0
   56.9730   32.3090   45.3300 N   0  0  0  0  0  0  0  0  0  0  0  0
   57.2780   33.6280   44.7930 C   0  0  0  0  0  0  0  0  0  0  0  0
   58.6950   34.0350   45.1990 C   0  0  0  0  0  0  0  0  0  0  0  0
   59.2900   33.0440   46.0380 O   0  0  0  0  0  0  0  0  0  0  0  0
   59.3690   33.1020   47.4400 C   0  0  0  0  0  0  0  0  0  0  0  0
   59.9070   34.2060   48.1290 C   0  0  0  0  0  0  0  0  0  0  0  0
   59.9650   34.2030   49.5250 C   0  0  0  0  0  0  0  0  0  0  0  0
   59.4860   33.1070   50.2470 C   0  0  0  0  0  0  0  0  0  0  0  0
   58.9390   32.0070   49.5730 C   0  0  0  0  0  0  0  0  0  0  0  0
   58.3490   30.6270   50.4940 S   0  0  0  0  0  0  0  0  0  0  0  0
   56.8510   31.0390   51.2500 N   0  0  0  0  0  0  0  0  0  0  0  0
   58.1440   29.4590   49.5690 O   0  0  0  0  0  0  0  0  0  0  0  0
   59.3490   30.2410   51.5480 O   0  0  0  0  0  0  0  0  0  0  0  0
   58.8840   32.0100   48.1720 C   0  0  0  0  0  0  0  0  0  0  0  0
   56.4570   28.7860   45.2780 C   0  0  0  0  0  0  0  0  0  0  0  0
   55.1430   28.9740   44.8510 O   0  0  0  0  0  0  0  0  0  0  0  0
   56.8320   27.5670   45.8550 C   0  0  0  0  0  0  0  0  0  0  0  0
   55.8940   26.5230   45.9820 C   0  0  0  0  0  0  0  0  0  0  0  0
   56.2550   25.3130   46.5670 C   0  0  0  0  0  0  0  0  0  0  0  0
   57.5520   25.1270   47.0350 C   0  0  0  0  0  0  0  0  0  0  0  0
   58.4960   26.1460   46.9180 C   0  0  0  0  0  0  0  0  0  0  0  0
   58.1630   27.3910   46.3210 C   0  0  0  0  0  0  0  0  0  0  0  0
   60.6769   28.3478   50.1290 H   0  0  0  0  0  0  0  0  0  0  0  0
   59.7284   27.2529   49.0668 H   0  0  0  0  0  0  0  0  0  0  0  0
   61.5229   27.1720   49.0668 H   0  0  0  0  0  0  0  0  0  0  0  0
   59.9123   29.6285   48.2162 H   0  0  0  0  0  0  0  0  0  0  0  0
   61.7002   29.3428   48.0491 H   0  0  0  0  0  0  0  0  0  0  0  0
   61.1552   28.7590   45.9274 H   0  0  0  0  0  0  0  0  0  0  0  0
   60.7091   27.1868   46.7134 H   0  0  0  0  0  0  0  0  0  0  0  0
   57.2054   33.6017   43.6957 H   0  0  0  0  0  0  0  0  0  0  0  0
   56.5603   34.3591   45.1934 H   0  0  0  0  0  0  0  0  0  0  0  0
   59.3082   34.1557   44.2938 H   0  0  0  0  0  0  0  0  0  0  0  0
   58.6422   34.9816   45.7568 H   0  0  0  0  0  0  0  0  0  0  0  0
   60.2827   35.0734   47.5665 H   0  0  0  0  0  0  0  0  0  0  0  0
   60.3894   35.0668   50.0576 H   0  0  0  0  0  0  0  0  0  0  0  0
   59.5383   33.1076   51.3458 H   0  0  0  0  0  0  0  0  0  0  0  0
   56.4020   31.7700   50.6550 H   0  0  0  0  0  0  0  0  0  0  0  0
   58.4558   31.1464   47.6421 H   0  0  0  0  0  0  0  0  0  0  0  0
   54.8668   26.6659   45.6153 H   0  0  0  0  0  0  0  0  0  0  0  0
   55.5153   24.5041   46.6594 H   0  0  0  0  0  0  0  0  0  0  0  0
   57.8340   24.1707   47.4998 H   0  0  0  0  0  0  0  0  0  0  0  0
   59.5166   25.9830   47.2946 H   0  0  0  0  0  0  0  0  0  0  0  0
  1  2  1  0
  2  3  1  0
  3  4  1  0
  4  5  1  0
  5  6  2  0
  5  7  1  0
  7  8  1  0
  8  9  2  0
  8 10  1  0
 10 11  1  0
 11 12  1  0
 12 13  1  0
 13 14  1  0
 14 15  2  0
 15 16  1  0
 16 17  2  0
 17 18  1  0
 18 19  1  0
 19 20  1  0
 19 21  2  0
 19 22  2  0
 18 23  2  0
  7 24  2  0
 24 25  1  0
 24 26  1  0
 26 27  2  0
 27 28  1  0
 28 29  2  0
 29 30  1  0
 30 31  2  0
 31  4  1  0
 23 14  1  0
 31 26  1  0
  1 32  1  0
  1 33  1  0
  1 34  1  0
  2 35  1  0
  2 36  1  0
  3 37  1  0
  3 38  1  0
 11 39  1  0
 11 40  1  0
 12 41  1  0
 12 42  1  0
 15 43  1  0
 16 44  1  0
 17 45  1  0
 20 46  1  0
 23 47  1  0
 27 48  1  0
 28 49  1  0
 29 50  1  0
 30 51  1  0
M  CHG  3  10  -1  20  -1  25  -1
M  END
>  <UniqueID>  (29) 
25

>  <SMILES>  (29) 
CCCn1c(=O)c(C(=O)[N-]CCOc2cccc(S([NH-])(=O)=O)c2)c([O-])c2ccccc21

>  <Energy>  (29) 
61.9537508615169

>  <Genealogy>  (29) 
CCCn1c(=O)c(C(=O)[N-]CCOc2cccc(S([NH-])(=O)=O)c2)c([O-])c2ccccc21 (protonated)
CCCn1c(=O)c(C(=O)[N-]CCOc2cccc(S([NH-])(=O)=O)c2)c([O-])c2ccccc21 (3D coordinates assigned)
CCCn1c(=O)c(C(=O)[N-]CCOc2cccc(S([NH-])(=O)=O)c2)c([O-])c2ccccc21 (optimized conformer: 61.9537508615169 kcal/mol)

>  <smiles>  (29) 
CCCn1c(=O)c(C(=O)NCCOc2cccc(S(N)(=O)=O)c2)c(O)c2ccccc21

>  <score_type>  (29) 
oracle

>  <origin>  (29) 
adg

>  <m_score__min__energy>  (29) 
-13.66

>  <m_primary>  (29) 
energy

$$$$
29:0
     RDKit          3D

 32 34  0  0  0  0  0  0  0  0999 V2000
   54.8897   30.5952   43.6922 H   0  0  0  0  0  0  0  0  0  0  0  0
   55.7070   30.0840   44.2220 C   0  0  0  0  0  0  0  0  0  0  0  0
   55.5370   28.8980   44.8650 N   0  0  0  0  0  0  0  0  0  0  0  0
   56.9080   24.0120   44.6960 C   0  0  0  0  0  0  0  0  0  0  0  0
   57.0490   24.9640   45.5740 N   0  0  0  0  0  0  0  0  0  0  0  0
   56.1990   26.1020   45.7770 C   0  0  0  0  0  0  0  0  0  0  0  0
   54.9460   26.0040   45.6780 O   0  0  0  0  0  0  0  0  0  0  0  0
   56.8100   27.3610   46.0990 N   0  0  0  0  0  0  0  0  0  0  0  0
   56.6890   28.4680   45.4280 C   0  0  0  0  0  0  0  0  0  0  0  0
   57.9650   29.5260   45.1540 S   0  0  0  0  0  0  0  0  0  0  0  0
   57.0110   22.0600   43.2010 C   0  0  0  0  0  0  0  0  0  0  0  0
   57.2323   21.1433   42.6347 H   0  0  0  0  0  0  0  0  0  0  0  0
   55.9120   22.8920   43.0120 C   0  0  0  0  0  0  0  0  0  0  0  0
   55.1429   22.6948   42.2507 H   0  0  0  0  0  0  0  0  0  0  0  0
   55.8630   23.9680   43.8420 N   0  0  0  0  0  0  0  0  0  0  0  0
   55.0990   24.6790   43.8170 H   0  0  0  0  0  0  0  0  0  0  0  0
   57.9440   22.7020   44.4490 S   0  0  0  0  0  0  0  0  0  0  0  0
   56.9980   30.5990   44.2880 C   0  0  0  0  0  0  0  0  0  0  0  0
   57.4810   31.8420   43.6100 C   0  0  0  0  0  0  0  0  0  0  0  0
   58.3156   31.5896   42.9393 H   0  0  0  0  0  0  0  0  0  0  0  0
   56.6547   32.2804   43.0312 H   0  0  0  0  0  0  0  0  0  0  0  0
   57.9490   32.8400   44.6320 C   0  0  0  0  0  0  0  0  0  0  0  0
   57.4920   32.7630   45.9590 C   0  0  0  0  0  0  0  0  0  0  0  0
   56.7662   31.9874   46.2447 H   0  0  0  0  0  0  0  0  0  0  0  0
   57.9570   33.6690   46.9170 C   0  0  0  0  0  0  0  0  0  0  0  0
   57.5904   33.6097   47.9524 H   0  0  0  0  0  0  0  0  0  0  0  0
   58.8870   34.6500   46.5610 C   0  0  0  0  0  0  0  0  0  0  0  0
   59.2498   35.3637   47.3154 H   0  0  0  0  0  0  0  0  0  0  0  0
   59.3560   34.7240   45.2460 C   0  0  0  0  0  0  0  0  0  0  0  0
   60.0901   35.4943   44.9671 H   0  0  0  0  0  0  0  0  0  0  0  0
   58.8930   33.8200   44.2850 C   0  0  0  0  0  0  0  0  0  0  0  0
   59.2697   33.8767   43.2531 H   0  0  0  0  0  0  0  0  0  0  0  0
  1  2  1  0
  2  3  1  0
  3  4  1  0
  4  5  2  0
  5  6  1  0
  6  7  2  0
  6  8  1  0
  8  9  2  0
  9 10  1  0
 10 11  1  0
 11 12  1  0
 11 13  2  0
 13 14  1  0
 13 15  1  0
 15 16  1  0
  4 17  1  0
 17 18  1  0
 18 19  1  0
 19 20  1  0
 19 21  1  0
 19 22  1  0
 22 23  2  0
 23 24  1  0
 23 25  1  0
 25 26  1  0
 25 27  2  0
 27 28  1  0
 27 29  1  0
 29 30  1  0
 29 31  2  0
 31 32  1  0
 18  2  2  0
 31 22  1  0
 15  9  1  0
M  CHG  1   3  -1
M  END
>  <UniqueID>  (30) 
26

>  <SMILES>  (30) 
O=C(/N=c1/[nH]ccs1)/N=c1\[n-]cc(Cc2ccccc2)s1

>  <Energy>  (30) 
97.64987650281222

>  <Genealogy>  (30) 
O=C(N=c1[n-]cc(Cc2ccccc2)s1)N=c1[nH]ccs1 (protonated)
O=C(/N=c1/[nH]ccs1)/N=c1\[n-]cc(Cc2ccccc2)s1 (cis-trans isomerization)
O=C(/N=c1/[nH]ccs1)/N=c1\[n-]cc(Cc2ccccc2)s1 (3D coordinates assigned)
O=C(/N=c1/[nH]ccs1)/N=c1\[n-]cc(Cc2ccccc2)s1 (optimized conformer: 97.64987650281222 kcal/mol)

>  <smiles>  (30) 
O=C(N=c1[nH]ccs1)N=c1[nH]cc(Cc2ccccc2)s1

>  <score_type>  (30) 
oracle

>  <origin>  (30) 
adg

>  <m_score__min__energy>  (30) 
-10.09

>  <m_primary>  (30) 
energy

$$$$
30:0
     RDKit          3D

 46 48  0  0  0  0  0  0  0  0999 V2000
   63.3680   33.6810   46.6780 C   0  0  0  0  0  0  0  0  0  0  0  0
   62.8560   33.7690   48.0920 C   0  0  0  0  0  0  0  0  0  0  0  0
   63.7900   33.7840   49.1430 C   0  0  0  0  0  0  0  0  0  0  0  0
   63.3670   33.8360   50.4720 C   0  0  0  0  0  0  0  0  0  0  0  0
   62.0060   33.8770   50.7700 C   0  0  0  0  0  0  0  0  0  0  0  0
   61.0640   33.8760   49.7410 C   0  0  0  0  0  0  0  0  0  0  0  0
   61.4670   33.8320   48.3920 C   0  0  0  0  0  0  0  0  0  0  0  0
   60.4240   33.8640   47.3320 C   0  0  0  0  0  0  0  0  0  0  0  0
   59.7370   34.9760   46.8910 C   0  0  0  0  0  0  0  0  0  0  0  0
   58.8990   34.6130   45.9060 N   0  0  0  0  0  0  0  0  0  0  0  0
   59.1030   33.2850   45.7680 C   0  0  0  0  0  0  0  0  0  0  0  0
   58.3830   32.4480   44.7840 C   0  0  0  0  0  0  0  0  0  0  0  0
   58.1920   32.9010   43.4680 C   0  0  0  0  0  0  0  0  0  0  0  0
   57.5080   32.1120   42.5420 C   0  0  0  0  0  0  0  0  0  0  0  0
   57.0090   30.8620   42.9150 C   0  0  0  0  0  0  0  0  0  0  0  0
   57.2010   30.3840   44.2210 C   0  0  0  0  0  0  0  0  0  0  0  0
   56.6600   29.0660   44.6270 C   0  0  0  0  0  0  0  0  0  0  0  0
   55.4970   29.0020   45.1110 O   0  0  0  0  0  0  0  0  0  0  0  0
   57.4220   27.8550   44.4620 N   0  0  0  0  0  0  0  0  0  0  0  0
   57.8840   27.4880   43.1210 C   0  0  0  0  0  0  0  0  0  0  0  0
   57.5930   26.9120   45.5770 C   0  0  0  0  0  0  0  0  0  0  0  0
   56.3940   25.9580   45.6910 C   0  0  0  0  0  0  0  0  0  0  0  0
   55.1540   26.6670   46.0040 N   0  0  0  0  0  0  0  0  0  0  0  0
   57.8770   31.1880   45.1540 C   0  0  0  0  0  0  0  0  0  0  0  0
   60.0290   32.7940   46.6190 N   0  0  0  0  0  0  0  0  0  0  0  0
   64.4520   33.4947   46.6915 H   0  0  0  0  0  0  0  0  0  0  0  0
   62.8608   32.8569   46.1550 H   0  0  0  0  0  0  0  0  0  0  0  0
   63.1651   34.6272   46.1550 H   0  0  0  0  0  0  0  0  0  0  0  0
   64.8658   33.7544   48.9153 H   0  0  0  0  0  0  0  0  0  0  0  0
   64.1081   33.8446   51.2848 H   0  0  0  0  0  0  0  0  0  0  0  0
   61.6741   33.9102   51.8182 H   0  0  0  0  0  0  0  0  0  0  0  0
   59.9923   33.9100   49.9864 H   0  0  0  0  0  0  0  0  0  0  0  0
   59.8564   35.9967   47.2833 H   0  0  0  0  0  0  0  0  0  0  0  0
   58.5839   33.8833   43.1656 H   0  0  0  0  0  0  0  0  0  0  0  0
   57.3613   32.4761   41.5144 H   0  0  0  0  0  0  0  0  0  0  0  0
   56.4632   30.2494   42.1823 H   0  0  0  0  0  0  0  0  0  0  0  0
   58.7429   26.8057   43.2031 H   0  0  0  0  0  0  0  0  0  0  0  0
   57.0693   26.9881   42.5765 H   0  0  0  0  0  0  0  0  0  0  0  0
   58.1866   28.3946   42.5765 H   0  0  0  0  0  0  0  0  0  0  0  0
   58.5059   26.3215   45.4100 H   0  0  0  0  0  0  0  0  0  0  0  0
   57.6675   27.4887   46.5108 H   0  0  0  0  0  0  0  0  0  0  0  0
   56.2687   25.4300   44.7342 H   0  0  0  0  0  0  0  0  0  0  0  0
   56.5980   25.2545   46.5116 H   0  0  0  0  0  0  0  0  0  0  0  0
   55.3620   27.4430   46.6730 H   0  0  0  0  0  0  0  0  0  0  0  0
   54.7730   27.0900   45.1280 H   0  0  0  0  0  0  0  0  0  0  0  0
   58.0122   30.8287   46.1848 H   0  0  0  0  0  0  0  0  0  0  0  0
  1  2  1  0
  2  3  2  0
  3  4  1  0
  4  5  2  0
  5  6  1  0
  6  7  2  0
  7  8  1  0
  8  9  2  0
  9 10  1  0
 10 11  1  0
 11 12  1  0
 12 13  2  0
 13 14  1  0
 14 15  2  0
 15 16  1  0
 16 17  1  0
 17 18  2  0
 17 19  1  0
 19 20  1  0
 19 21  1  0
 21 22  1  0
 22 23  1  0
 16 24  2  0
 11 25  2  0
  7  2  1  0
 25  8  1  0
 24 12  1  0
  1 26  1  0
  1 27  1  0
  1 28  1  0
  3 29  1  0
  4 30  1  0
  5 31  1  0
  6 32  1  0
  9 33  1  0
 13 34  1  0
 14 35  1  0
 15 36  1  0
 20 37  1  0
 20 38  1  0
 20 39  1  0
 21 40  1  0
 21 41  1  0
 22 42  1  0
 22 43  1  0
 23 44  1  0
 23 45  1  0
 24 46  1  0
M  CHG  1  10  -1
M  END
>  <UniqueID>  (31) 
27

>  <SMILES>  (31) 
Cc1ccccc1-c1c[n-]c(-c2cccc(C(=O)N(C)CCN)c2)n1

>  <Energy>  (31) 
81.29630915527667

>  <Genealogy>  (31) 
Cc1ccccc1-c1c[n-]c(-c2cccc(C(=O)N(C)CCN)c2)n1 (protonated)
Cc1ccccc1-c1c[n-]c(-c2cccc(C(=O)N(C)CCN)c2)n1 (3D coordinates assigned)
Cc1ccccc1-c1c[n-]c(-c2cccc(C(=O)N(C)CCN)c2)n1 (optimized conformer: 81.29630915527667 kcal/mol)

>  <smiles>  (31) 
Cc1ccccc1-c1c[nH]c(-c2cccc(C(=O)N(C)CCN)c2)n1

>  <score_type>  (31) 
oracle

>  <origin>  (31) 
adg

>  <m_score__min__energy>  (31) 
-10.23

>  <m_primary>  (31) 
energy

$$$$
31:0
     RDKit          3D

 46 49  0  0  0  0  0  0  0  0999 V2000
   63.6080   33.8080   46.6050 C   0  0  0  0  0  0  0  0  0  0  0  0
   63.5250   33.1340   47.9110 N   0  0  0  0  0  0  0  0  0  0  0  0
   62.5620   32.0060   47.8570 C   0  0  0  0  0  0  0  0  0  0  0  0
   61.9310   31.7070   49.2190 C   0  0  0  0  0  0  0  0  0  0  0  0
   61.2540   32.9090   49.7070 N   0  0  0  0  0  0  0  0  0  0  0  0
   60.1290   32.7920   50.5940 C   0  0  0  0  0  0  0  0  0  0  0  0
   60.2880   33.0990   51.9540 C   0  0  0  0  0  0  0  0  0  0  0  0
   59.2000   33.0330   52.8260 C   0  0  0  0  0  0  0  0  0  0  0  0
   57.9450   32.6530   52.3490 C   0  0  0  0  0  0  0  0  0  0  0  0
   57.7760   32.3310   51.0010 C   0  0  0  0  0  0  0  0  0  0  0  0
   58.8620   32.4010   50.1090 C   0  0  0  0  0  0  0  0  0  0  0  0
   58.7040   31.9870   48.7420 N   0  0  0  0  0  0  0  0  0  0  0  0
   58.7770   32.8970   47.6310 C   0  0  0  0  0  0  0  0  0  0  0  0
   59.2640   34.0480   47.7990 O   0  0  0  0  0  0  0  0  0  0  0  0
   58.3310   32.4850   46.2780 C   0  0  0  0  0  0  0  0  0  0  0  0
   58.4140   33.3980   45.1970 C   0  0  0  0  0  0  0  0  0  0  0  0
   57.9950   33.0300   43.9080 C   0  0  0  0  0  0  0  0  0  0  0  0
   57.4850   31.7480   43.7060 C   0  0  0  0  0  0  0  0  0  0  0  0
   57.0210   31.2240   42.4950 C   0  0  0  0  0  0  0  0  0  0  0  0
   56.5650   29.9130   42.6160 C   0  0  0  0  0  0  0  0  0  0  0  0
   56.7380   29.4140   44.2240 S   0  0  0  0  0  0  0  0  0  0  0  0
   57.3950   30.8600   44.7640 C   0  0  0  0  0  0  0  0  0  0  0  0
   57.8020   31.1950   46.0520 C   0  0  0  0  0  0  0  0  0  0  0  0
   61.8090   34.2320   49.3950 C   0  0  0  0  0  0  0  0  0  0  0  0
   63.2900   34.1080   49.0080 C   0  0  0  0  0  0  0  0  0  0  0  0
   63.7411   34.8891   46.7581 H   0  0  0  0  0  0  0  0  0  0  0  0
   64.4639   33.4095   46.0405 H   0  0  0  0  0  0  0  0  0  0  0  0
   62.6810   33.6290   46.0405 H   0  0  0  0  0  0  0  0  0  0  0  0
   61.7620   32.2591   47.1457 H   0  0  0  0  0  0  0  0  0  0  0  0
   63.1156   31.1093   47.5415 H   0  0  0  0  0  0  0  0  0  0  0  0
   61.2020   30.8898   49.1158 H   0  0  0  0  0  0  0  0  0  0  0  0
   62.7130   31.4067   49.9319 H   0  0  0  0  0  0  0  0  0  0  0  0
   61.2767   33.3937   52.3355 H   0  0  0  0  0  0  0  0  0  0  0  0
   59.3320   33.2807   53.8896 H   0  0  0  0  0  0  0  0  0  0  0  0
   57.0873   32.6070   53.0362 H   0  0  0  0  0  0  0  0  0  0  0  0
   56.7868   32.0204   50.6336 H   0  0  0  0  0  0  0  0  0  0  0  0
   58.6410   30.9630   48.5450 H   0  0  0  0  0  0  0  0  0  0  0  0
   58.8121   34.4087   45.3700 H   0  0  0  0  0  0  0  0  0  0  0  0
   58.0679   33.7411   43.0719 H   0  0  0  0  0  0  0  0  0  0  0  0
   57.0166   31.7861   41.5495 H   0  0  0  0  0  0  0  0  0  0  0  0
   56.1579   29.3007   41.7979 H   0  0  0  0  0  0  0  0  0  0  0  0
   57.7137   30.4713   46.8757 H   0  0  0  0  0  0  0  0  0  0  0  0
   61.2498   34.6720   48.5561 H   0  0  0  0  0  0  0  0  0  0  0  0
   61.7227   34.8759   50.2827 H   0  0  0  0  0  0  0  0  0  0  0  0
   63.6511   35.0950   48.6834 H   0  0  0  0  0  0  0  0  0  0  0  0
   63.8314   33.7427   49.8932 H   0  0  0  0  0  0  0  0  0  0  0  0
  1  2  1  0
  2  3  1  0
  3  4  1  0
  4  5  1  0
  5  6  1  0
  6  7  2  0
  7  8  1  0
  8  9  2  0
  9 10  1  0
 10 11  2  0
 11 12  1  0
 12 13  1  0
 13 14  2  0
 13 15  1  0
 15 16  2  0
 16 17  1  0
 17 18  2  0
 18 19  1  0
 19 20  2  0
 20 21  1  0
 21 22  1  0
 22 23  2  0
  5 24  1  0
 24 25  1  0
 25  2  1  0
 11  6  1  0
 23 15  1  0
 22 18  1  0
  1 26  1  0
  1 27  1  0
  1 28  1  0
  3 29  1  0
  3 30  1  0
  4 31  1  0
  4 32  1  0
  7 33  1  0
  8 34  1  0
  9 35  1  0
 10 36  1  0
 12 37  1  0
 16 38  1  0
 17 39  1  0
 19 40  1  0
 20 41  1  0
 23 42  1  0
 24 43  1  0
 24 44  1  0
 25 45  1  0
 25 46  1  0
M  END
>  <UniqueID>  (32) 
28

>  <SMILES>  (32) 
CN1CCN(c2ccccc2NC(=O)c2ccc3ccsc3c2)CC1

>  <Energy>  (32) 
96.80067760760726

>  <Genealogy>  (32) 
CN1CCN(c2ccccc2NC(=O)c2ccc3ccsc3c2)CC1 (3D coordinates assigned)
CN1CCN(c2ccccc2NC(=O)c2ccc3ccsc3c2)CC1 (nonaromatic ring conformer: 96.80067760760726 kcal/mol)

>  <smiles>  (32) 
CN1CCN(c2ccccc2NC(=O)c2ccc3ccsc3c2)CC1

>  <score_type>  (32) 
oracle

>  <origin>  (32) 
adg

>  <m_score__min__energy>  (32) 
-7.7999999999999998

>  <m_primary>  (32) 
energy

$$$$
32:0
     RDKit          3D

 53 58  0  0  0  0  0  0  0  0999 V2000
   57.9540   31.2580   41.3870 H   0  0  0  0  0  0  0  0  0  0  0  0
   57.0860   31.4120   41.8810 O   0  0  0  0  0  0  0  0  0  0  0  0
   56.8640   30.8120   43.1170 C   0  0  0  0  0  0  0  0  0  0  0  0
   56.0270   29.7770   43.3080 N   0  0  0  0  0  0  0  0  0  0  0  0
   56.1530   29.5370   44.6300 C   0  0  0  0  0  0  0  0  0  0  0  0
   55.5250   28.6180   45.2150 O   0  0  0  0  0  0  0  0  0  0  0  0
   57.0170   30.3530   45.2760 N   0  0  0  0  0  0  0  0  0  0  0  0
   57.4540   31.1760   44.3050 C   0  0  0  0  0  0  0  0  0  0  0  0
   58.4770   32.2180   44.4770 C   0  0  0  0  0  0  0  0  0  0  0  0
   59.1496   32.4266   43.6320 H   0  0  0  0  0  0  0  0  0  0  0  0
   58.6390   32.9280   45.6000 C   0  0  0  0  0  0  0  0  0  0  0  0
   57.6500   33.8040   46.2360 C   0  0  0  0  0  0  0  0  0  0  0  0
   56.6079   33.9346   45.9091 H   0  0  0  0  0  0  0  0  0  0  0  0
   58.2050   34.4020   47.2500 N   0  0  0  0  0  0  0  0  0  0  0  0
   59.5340   33.9600   47.3160 N   0  0  0  0  0  0  0  0  0  0  0  0
   60.2110   33.6090   48.4280 C   0  0  0  0  0  0  0  0  0  0  0  0
   60.1470   34.2250   49.5710 N   0  0  0  0  0  0  0  0  0  0  0  0
   60.1100   33.5480   50.8630 C   0  0  0  0  0  0  0  0  0  0  0  0
   61.1936   33.5305   51.0513 H   0  0  0  0  0  0  0  0  0  0  0  0
   58.9840   32.5370   50.9900 C   0  0  0  0  0  0  0  0  0  0  0  0
   58.3495   32.3079   50.1211 H   0  0  0  0  0  0  0  0  0  0  0  0
   58.9116   31.4897   51.3185 H   0  0  0  0  0  0  0  0  0  0  0  0
   58.8750   33.8920   51.6770 C   0  0  0  0  0  0  0  0  0  0  0  0
   58.1618   34.6420   51.3045 H   0  0  0  0  0  0  0  0  0  0  0  0
   58.6912   34.2296   52.7076 H   0  0  0  0  0  0  0  0  0  0  0  0
   60.9270   32.4760   48.2450 N   0  0  0  0  0  0  0  0  0  0  0  0
   60.6200   32.1580   46.9600 C   0  0  0  0  0  0  0  0  0  0  0  0
   60.8850   31.0080   46.4120 N   0  0  0  0  0  0  0  0  0  0  0  0
   60.0440   29.8450   46.3890 C   0  0  0  0  0  0  0  0  0  0  0  0
   60.0850   29.0180   45.2610 C   0  0  0  0  0  0  0  0  0  0  0  0
   60.7261   29.2882   44.4089 H   0  0  0  0  0  0  0  0  0  0  0  0
   59.3180   27.8520   45.2090 C   0  0  0  0  0  0  0  0  0  0  0  0
   59.3542   27.2143   44.3134 H   0  0  0  0  0  0  0  0  0  0  0  0
   58.5020   27.4880   46.2900 C   0  0  0  0  0  0  0  0  0  0  0  0
   57.7350   26.2700   46.2430 N   0  0  0  0  0  0  0  0  0  0  0  0
   57.0740   25.9090   44.9780 C   0  0  0  0  0  0  0  0  0  0  0  0
   56.4528   26.7533   44.6443 H   0  0  0  0  0  0  0  0  0  0  0  0
   57.8502   25.6796   44.2331 H   0  0  0  0  0  0  0  0  0  0  0  0
   56.1900   24.6780   45.1480 C   0  0  0  0  0  0  0  0  0  0  0  0
   55.4651   24.6299   44.3220 H   0  0  0  0  0  0  0  0  0  0  0  0
   56.8152   23.7730   45.1395 H   0  0  0  0  0  0  0  0  0  0  0  0
   55.5000   24.7620   46.3750 O   0  0  0  0  0  0  0  0  0  0  0  0
   56.3990   24.4860   47.4300 C   0  0  0  0  0  0  0  0  0  0  0  0
   55.8547   24.5585   48.3832 H   0  0  0  0  0  0  0  0  0  0  0  0
   56.8020   23.4758   47.2650 H   0  0  0  0  0  0  0  0  0  0  0  0
   57.5990   25.4650   47.4700 C   0  0  0  0  0  0  0  0  0  0  0  0
   57.4648   26.1473   48.3223 H   0  0  0  0  0  0  0  0  0  0  0  0
   58.5117   24.8584   47.5648 H   0  0  0  0  0  0  0  0  0  0  0  0
   58.4920   28.2930   47.4410 C   0  0  0  0  0  0  0  0  0  0  0  0
   57.8713   28.0063   48.3027 H   0  0  0  0  0  0  0  0  0  0  0  0
   59.2660   29.4570   47.4990 C   0  0  0  0  0  0  0  0  0  0  0  0
   59.2676   30.0705   48.4121 H   0  0  0  0  0  0  0  0  0  0  0  0
   59.8140   33.0800   46.3890 N   0  0  0  0  0  0  0  0  0  0  0  0
  1  2  1  0
  2  3  1  0
  3  4  1  0
  4  5  1  0
  5  6  2  0
  5  7  1  0
  7  8  1  0
  8  9  1  0
  9 10  1  0
  9 11  2  0
 11 12  1  0
 12 13  1  0
 12 14  2  0
 14 15  1  0
 15 16  1  0
 16 17  2  3
 17 18  1  0
 18 19  1  0
 18 20  1  0
 20 21  1  0
 20 22  1  0
 20 23  1  0
 23 24  1  0
 23 25  1  0
 16 26  1  0
 26 27  1  0
 27 28  2  3
 28 29  1  0
 29 30  2  0
 30 31  1  0
 30 32  1  0
 32 33  1  0
 32 34  2  0
 34 35  1  0
 35 36  1  0
 36 37  1  0
 36 38  1  0
 36 39  1  0
 39 40  1  0
 39 41  1  0
 39 42  1  0
 42 43  1  0
 43 44  1  0
 43 45  1  0
 43 46  1  0
 46 47  1  0
 46 48  1  0
 34 49  1  0
 49 50  1  0
 49 51  2  0
 51 52  1  0
 27 53  1  0
  8  3  2  0
 53 11  1  0
 53 15  1  0
 23 18  1  0
 51 29  1  0
 46 35  1  0
M  CHG  3   4  -1   7  -1  26  -1
M  END
>  <UniqueID>  (33) 
29

>  <SMILES>  (33) 
O=c1[n-]c(O)c(/C=C2/C=Nn3c(=NC4CC4)[n-]c(=Nc4ccc(N5CCOCC5)cc4)n32)[n-]1

>  <Energy>  (33) 
465.79151473947894

>  <Genealogy>  (33) 
O=c1[n-]c(O)c(C=C2C=Nn3c(=NC4CC4)[n-]c(=Nc4ccc(N5CCOCC5)cc4)n32)[n-]1 (protonated)
O=c1[n-]c(O)c(/C=C2/C=Nn3c(=NC4CC4)[n-]c(=Nc4ccc(N5CCOCC5)cc4)n32)[n-]1 (cis-trans isomerization)
O=c1[n-]c(O)c(/C=C2/C=Nn3c(=NC4CC4)[n-]c(=Nc4ccc(N5CCOCC5)cc4)n32)[n-]1 (3D coordinates assigned)
O=c1[n-]c(O)c(/C=C2/C=Nn3c(=NC4CC4)[n-]c(=Nc4ccc(N5CCOCC5)cc4)n32)[n-]1 (nonaromatic ring conformer: 465.79151473947894 kcal/mol)

>  <smiles>  (33) 
O=c1[nH]c(O)c(C=C2C=Nn3c(=NC4CC4)[nH]c(=Nc4ccc(N5CCOCC5)cc4)n32)[nH]1

>  <score_type>  (33) 
oracle

>  <origin>  (33) 
adg

>  <m_score__min__energy>  (33) 
-14.48

>  <m_primary>  (33) 
energy

$$$$
33:0
     RDKit          3D

 48 51  0  0  0  0  0  0  0  0999 V2000
   56.9890   32.8640   45.1940 C   0  0  0  0  0  0  0  0  0  0  0  0
   57.7790   31.6390   45.3390 N   0  0  0  0  0  0  0  0  0  0  0  0
   57.4130   30.3780   44.9770 C   0  0  0  0  0  0  0  0  0  0  0  0
   56.1190   30.0350   44.3430 C   0  0  0  0  0  0  0  0  0  0  0  0
   55.8830   30.3630   43.1520 O   0  0  0  0  0  0  0  0  0  0  0  0
   55.1430   29.3510   45.0560 O   0  0  0  0  0  0  0  0  0  0  0  0
   58.4370   29.4720   45.2830 C   0  0  0  0  0  0  0  0  0  0  0  0
   58.4570   27.9820   45.0830 C   0  0  0  0  0  0  0  0  0  0  0  0
   57.6690   27.3130   46.1620 C   0  0  0  0  0  0  0  0  0  0  0  0
   56.4500   27.0490   45.9770 O   0  0  0  0  0  0  0  0  0  0  0  0
   58.3140   26.9710   47.3950 N   0  0  0  0  0  0  0  0  0  0  0  0
   59.0860   27.8530   48.2220 C   0  0  0  0  0  0  0  0  0  0  0  0
   58.5310   29.0840   48.5930 C   0  0  0  0  0  0  0  0  0  0  0  0
   59.2430   29.9610   49.4160 C   0  0  0  0  0  0  0  0  0  0  0  0
   60.5030   29.6070   49.9090 C   0  0  0  0  0  0  0  0  0  0  0  0
   61.1910   30.5210   50.7200 O   0  0  0  0  0  0  0  0  0  0  0  0
   61.8970   31.6420   50.2620 C   0  0  0  0  0  0  0  0  0  0  0  0
   61.3180   32.9270   50.2360 C   0  0  0  0  0  0  0  0  0  0  0  0
   62.0500   34.0170   49.7560 C   0  0  0  0  0  0  0  0  0  0  0  0
   63.3550   33.8350   49.2880 C   0  0  0  0  0  0  0  0  0  0  0  0
   63.9270   32.5590   49.2930 C   0  0  0  0  0  0  0  0  0  0  0  0
   63.1970   31.4660   49.7710 C   0  0  0  0  0  0  0  0  0  0  0  0
   61.0600   28.3690   49.5440 C   0  0  0  0  0  0  0  0  0  0  0  0
   60.3510   27.4920   48.7160 C   0  0  0  0  0  0  0  0  0  0  0  0
   59.4470   30.2300   45.8470 C   0  0  0  0  0  0  0  0  0  0  0  0
   60.6960   29.8540   46.3460 C   0  0  0  0  0  0  0  0  0  0  0  0
   61.5300   30.8600   46.8590 C   0  0  0  0  0  0  0  0  0  0  0  0
   61.1090   32.2060   46.8600 C   0  0  0  0  0  0  0  0  0  0  0  0
   59.8460   32.5570   46.3530 C   0  0  0  0  0  0  0  0  0  0  0  0
   59.0260   31.5360   45.8560 C   0  0  0  0  0  0  0  0  0  0  0  0
   56.7356   33.2569   46.1897 H   0  0  0  0  0  0  0  0  0  0  0  0
   57.5739   33.6143   44.6417 H   0  0  0  0  0  0  0  0  0  0  0  0
   56.0643   32.6407   44.6417 H   0  0  0  0  0  0  0  0  0  0  0  0
   58.0155   27.7394   44.1051 H   0  0  0  0  0  0  0  0  0  0  0  0
   59.4970   27.6257   45.1204 H   0  0  0  0  0  0  0  0  0  0  0  0
   57.5289   29.3623   48.2346 H   0  0  0  0  0  0  0  0  0  0  0  0
   58.8090   30.9372   49.6780 H   0  0  0  0  0  0  0  0  0  0  0  0
   60.2881   33.0723   50.5941 H   0  0  0  0  0  0  0  0  0  0  0  0
   61.5984   35.0200   49.7465 H   0  0  0  0  0  0  0  0  0  0  0  0
   63.9313   34.6950   48.9161 H   0  0  0  0  0  0  0  0  0  0  0  0
   64.9520   32.4148   48.9207 H   0  0  0  0  0  0  0  0  0  0  0  0
   63.6465   30.4621   49.7613 H   0  0  0  0  0  0  0  0  0  0  0  0
   62.0582   28.0884   49.9112 H   0  0  0  0  0  0  0  0  0  0  0  0
   60.7852   26.5167   48.4508 H   0  0  0  0  0  0  0  0  0  0  0  0
   61.0165   28.8018   46.3373 H   0  0  0  0  0  0  0  0  0  0  0  0
   62.5187   30.5966   47.2630 H   0  0  0  0  0  0  0  0  0  0  0  0
   61.7733   32.9861   47.2601 H   0  0  0  0  0  0  0  0  0  0  0  0
   59.5108   33.6046   46.3467 H   0  0  0  0  0  0  0  0  0  0  0  0
  1  2  1  0
  2  3  1  0
  3  4  1  0
  4  5  2  0
  4  6  1  0
  3  7  2  0
  7  8  1  0
  8  9  1  0
  9 10  2  0
  9 11  1  0
 11 12  1  0
 12 13  2  0
 13 14  1  0
 14 15  2  0
 15 16  1  0
 16 17  1  0
 17 18  2  0
 18 19  1  0
 19 20  2  0
 20 21  1  0
 21 22  2  0
 15 23  1  0
 23 24  2  0
  7 25  1  0
 25 26  2  0
 26 27  1  0
 27 28  2  0
 28 29  1  0
 29 30  2  0
 30  2  1  0
 24 12  1  0
 30 25  1  0
 22 17  1  0
  1 31  1  0
  1 32  1  0
  1 33  1  0
  8 34  1  0
  8 35  1  0
 13 36  1  0
 14 37  1  0
 18 38  1  0
 19 39  1  0
 20 40  1  0
 21 41  1  0
 22 42  1  0
 23 43  1  0
 24 44  1  0
 26 45  1  0
 27 46  1  0
 28 47  1  0
 29 48  1  0
M  CHG  2   6  -1  11  -1
M  END
>  <UniqueID>  (34) 
30

>  <SMILES>  (34) 
Cn1c(C(=O)[O-])c(CC(=O)[N-]c2ccc(Oc3ccccc3)cc2)c2ccccc21

>  <Energy>  (34) 
97.66459839411004

>  <Genealogy>  (34) 
Cn1c(C(=O)[O-])c(CC(=O)[N-]c2ccc(Oc3ccccc3)cc2)c2ccccc21 (protonated)
Cn1c(C(=O)[O-])c(CC(=O)[N-]c2ccc(Oc3ccccc3)cc2)c2ccccc21 (3D coordinates assigned)
Cn1c(C(=O)[O-])c(CC(=O)[N-]c2ccc(Oc3ccccc3)cc2)c2ccccc21 (optimized conformer: 97.66459839411004 kcal/mol)

>  <smiles>  (34) 
Cn1c(C(=O)O)c(CC(=O)Nc2ccc(Oc3ccccc3)cc2)c2ccccc21

>  <score_type>  (34) 
oracle

>  <origin>  (34) 
adg

>  <m_score__min__energy>  (34) 
-13.119999999999999

>  <m_primary>  (34) 
energy

$$$$
34:0
     RDKit          3D

 67 70  0  0  0  0  0  0  0  0999 V2000
   55.5270   28.9750   44.9000 O   0  0  0  0  0  0  0  0  0  0  0  0
   56.2880   29.6990   44.2020 C   0  0  0  0  0  0  0  0  0  0  0  0
   56.1590   31.1230   44.2250 N   0  0  0  0  0  0  0  0  0  0  0  0
   57.0530   32.0400   44.8750 C   0  0  0  0  0  0  0  0  0  0  0  0
   58.3280   31.5890   45.2450 C   0  0  0  0  0  0  0  0  0  0  0  0
   59.1980   32.4260   45.9530 C   0  0  0  0  0  0  0  0  0  0  0  0
   58.7970   33.7200   46.3080 C   0  0  0  0  0  0  0  0  0  0  0  0
   59.7110   34.6060   47.0410 C   0  0  0  0  0  0  0  0  0  0  0  0
   60.0060   35.7270   46.5440 O   0  0  0  0  0  0  0  0  0  0  0  0
   60.2680   34.2360   48.3110 N   0  0  0  0  0  0  0  0  0  0  0  0
   59.6270   33.3750   49.3030 C   0  0  0  0  0  0  0  0  0  0  0  0
   59.6870   31.9030   48.8830 C   0  0  0  0  0  0  0  0  0  0  0  0
   60.1790   31.0810   50.0130 N   0  0  0  0  0  0  0  0  0  0  0  0
   61.5770   30.6420   49.8020 C   0  0  0  0  0  0  0  0  0  0  0  0
   62.3400   31.7180   49.0790 C   0  0  0  0  0  0  0  0  0  0  0  0
   62.5580   31.6400   47.6940 C   0  0  0  0  0  0  0  0  0  0  0  0
   63.2340   32.6690   47.0300 C   0  0  0  0  0  0  0  0  0  0  0  0
   63.6890   33.7880   47.7390 C   0  0  0  0  0  0  0  0  0  0  0  0
   63.4770   33.8710   49.1180 C   0  0  0  0  0  0  0  0  0  0  0  0
   62.8030   32.8400   49.7860 C   0  0  0  0  0  0  0  0  0  0  0  0
   59.2860   29.9290   50.2690 C   0  0  0  0  0  0  0  0  0  0  0  0
   58.2190   30.3210   51.2560 C   0  0  0  0  0  0  0  0  0  0  0  0
   57.6600   31.6110   51.2090 C   0  0  0  0  0  0  0  0  0  0  0  0
   56.6810   31.9880   52.1310 C   0  0  0  0  0  0  0  0  0  0  0  0
   56.2550   31.0830   53.1080 C   0  0  0  0  0  0  0  0  0  0  0  0
   56.8100   29.8010   53.1660 C   0  0  0  0  0  0  0  0  0  0  0  0
   57.7900   29.4190   52.2460 C   0  0  0  0  0  0  0  0  0  0  0  0
   57.5300   34.1800   45.9280 C   0  0  0  0  0  0  0  0  0  0  0  0
   56.6520   33.3410   45.2400 C   0  0  0  0  0  0  0  0  0  0  0  0
   57.2800   29.1020   43.3610 N   0  0  0  0  0  0  0  0  0  0  0  0
   57.9480   27.8620   43.7470 C   0  0  0  0  0  0  0  0  0  0  0  0
   58.7590   28.0980   44.9930 C   0  0  0  0  0  0  0  0  0  0  0  0
   58.2740   27.6870   46.2470 C   0  0  0  0  0  0  0  0  0  0  0  0
   58.9980   27.9750   47.4090 C   0  0  0  0  0  0  0  0  0  0  0  0
   60.2070   28.6700   47.3280 C   0  0  0  0  0  0  0  0  0  0  0  0
   60.6950   29.0770   46.0850 C   0  0  0  0  0  0  0  0  0  0  0  0
   59.9710   28.8010   44.9210 C   0  0  0  0  0  0  0  0  0  0  0  0
   58.6465   30.5708   44.9771 H   0  0  0  0  0  0  0  0  0  0  0  0
   60.1996   32.0664   46.2314 H   0  0  0  0  0  0  0  0  0  0  0  0
   60.1425   33.4939   50.2675 H   0  0  0  0  0  0  0  0  0  0  0  0
   58.5705   33.6694   49.3880 H   0  0  0  0  0  0  0  0  0  0  0  0
   58.6811   31.5637   48.5948 H   0  0  0  0  0  0  0  0  0  0  0  0
   60.3719   31.7955   48.0290 H   0  0  0  0  0  0  0  0  0  0  0  0
   62.0509   30.4484   50.7756 H   0  0  0  0  0  0  0  0  0  0  0  0
   61.5840   29.7216   49.1997 H   0  0  0  0  0  0  0  0  0  0  0  0
   62.1963   30.7677   47.1299 H   0  0  0  0  0  0  0  0  0  0  0  0
   63.4090   32.5991   45.9463 H   0  0  0  0  0  0  0  0  0  0  0  0
   64.2119   34.5995   47.2118 H   0  0  0  0  0  0  0  0  0  0  0  0
   63.8391   34.7453   49.6787 H   0  0  0  0  0  0  0  0  0  0  0  0
   62.6354   32.9097   50.8709 H   0  0  0  0  0  0  0  0  0  0  0  0
   58.8141   29.6160   49.3260 H   0  0  0  0  0  0  0  0  0  0  0  0
   59.8753   29.0971   50.6822 H   0  0  0  0  0  0  0  0  0  0  0  0
   57.9953   32.3257   50.4430 H   0  0  0  0  0  0  0  0  0  0  0  0
   56.2450   32.9970   52.0885 H   0  0  0  0  0  0  0  0  0  0  0  0
   55.4821   31.3801   53.8321 H   0  0  0  0  0  0  0  0  0  0  0  0
   56.4746   29.0919   53.9372 H   0  0  0  0  0  0  0  0  0  0  0  0
   58.2268   28.4107   52.2963 H   0  0  0  0  0  0  0  0  0  0  0  0
   57.2251   35.2081   46.1731 H   0  0  0  0  0  0  0  0  0  0  0  0
   55.6435   33.6964   44.9817 H   0  0  0  0  0  0  0  0  0  0  0  0
   57.7610   29.7090   42.6620 H   0  0  0  0  0  0  0  0  0  0  0  0
   57.1946   27.0844   43.9413 H   0  0  0  0  0  0  0  0  0  0  0  0
   58.6115   27.5334   42.9335 H   0  0  0  0  0  0  0  0  0  0  0  0
   57.3233   27.1378   46.3147 H   0  0  0  0  0  0  0  0  0  0  0  0
   58.6144   27.6535   48.3885 H   0  0  0  0  0  0  0  0  0  0  0  0
   60.7741   28.8964   48.2430 H   0  0  0  0  0  0  0  0  0  0  0  0
   61.6516   29.6163   46.0211 H   0  0  0  0  0  0  0  0  0  0  0  0
   60.3530   29.1362   43.9455 H   0  0  0  0  0  0  0  0  0  0  0  0
  1  2  2  0
  2  3  1  0
  3  4  1  0
  4  5  2  0
  5  6  1  0
  6  7  2  0
  7  8  1  0
  8  9  2  0
  8 10  1  0
 10 11  1  0
 11 12  1  0
 12 13  1  0
 13 14  1  0
 14 15  1  0
 15 16  2  0
 16 17  1  0
 17 18  2  0
 18 19  1  0
 19 20  2  0
 13 21  1  0
 21 22  1  0
 22 23  2  0
 23 24  1  0
 24 25  2  0
 25 26  1  0
 26 27  2  0
  7 28  1  0
 28 29  2  0
  2 30  1  0
 30 31  1  0
 31 32  1  0
 32 33  2  0
 33 34  1  0
 34 35  2  0
 35 36  1  0
 36 37  2  0
 29  4  1  0
 37 32  1  0
 20 15  1  0
 27 22  1  0
  5 38  1  0
  6 39  1  0
 11 40  1  0
 11 41  1  0
 12 42  1  0
 12 43  1  0
 14 44  1  0
 14 45  1  0
 16 46  1  0
 17 47  1  0
 18 48  1  0
 19 49  1  0
 20 50  1  0
 21 51  1  0
 21 52  1  0
 23 53  1  0
 24 54  1  0
 25 55  1  0
 26 56  1  0
 27 57  1  0
 28 58  1  0
 29 59  1  0
 30 60  1  0
 31 61  1  0
 31 62  1  0
 33 63  1  0
 34 64  1  0
 35 65  1  0
 36 66  1  0
 37 67  1  0
M  CHG  2   3  -1  10  -1
M  END
>  <UniqueID>  (35) 
31

>  <SMILES>  (35) 
O=C([N-]c1ccc(C(=O)[N-]CCN(Cc2ccccc2)Cc2ccccc2)cc1)NCc1ccccc1

>  <Energy>  (35) 
73.20444902616988

>  <Genealogy>  (35) 
O=C([N-]c1ccc(C(=O)[N-]CCN(Cc2ccccc2)Cc2ccccc2)cc1)NCc1ccccc1 (protonated)
O=C([N-]c1ccc(C(=O)[N-]CCN(Cc2ccccc2)Cc2ccccc2)cc1)NCc1ccccc1 (3D coordinates assigned)
O=C([N-]c1ccc(C(=O)[N-]CCN(Cc2ccccc2)Cc2ccccc2)cc1)NCc1ccccc1 (optimized conformer: 73.20444902616988 kcal/mol)

>  <smiles>  (35) 
O=C(NCc1ccccc1)Nc1ccc(C(=O)NCCN(Cc2ccccc2)Cc2ccccc2)cc1

>  <score_type>  (35) 
oracle

>  <origin>  (35) 
adg

>  <m_score__min__energy>  (35) 
-12.220000000000001

>  <m_primary>  (35) 
energy

$$$$
35:0
     RDKit          3D

 49 51  0  0  0  0  0  0  0  0999 V2000
   60.9340   33.8880   50.3030 C   0  0  0  0  0  0  0  0  0  0  0  0
   61.7320   33.2810   49.1800 C   0  0  0  0  0  0  0  0  0  0  0  0
   62.9890   33.8200   48.8660 C   0  0  0  0  0  0  0  0  0  0  0  0
   63.7620   33.2630   47.8470 C   0  0  0  0  0  0  0  0  0  0  0  0
   63.2930   32.1610   47.1320 C   0  0  0  0  0  0  0  0  0  0  0  0
   62.0360   31.6100   47.4240 C   0  0  0  0  0  0  0  0  0  0  0  0
   61.5210   30.4480   46.6220 C   0  0  0  0  0  0  0  0  0  0  0  0
   61.2350   32.1920   48.4270 C   0  0  0  0  0  0  0  0  0  0  0  0
   59.9630   31.6600   48.6750 O   0  0  0  0  0  0  0  0  0  0  0  0
   58.7800   32.2490   48.2120 C   0  0  0  0  0  0  0  0  0  0  0  0
   57.9350   32.6980   49.0350 O   0  0  0  0  0  0  0  0  0  0  0  0
   58.5340   32.3600   46.7590 C   0  0  0  0  0  0  0  0  0  0  0  0
   59.0930   33.4210   46.0250 C   0  0  0  0  0  0  0  0  0  0  0  0
   58.8740   33.5200   44.6480 C   0  0  0  0  0  0  0  0  0  0  0  0
   58.0980   32.5640   43.9890 C   0  0  0  0  0  0  0  0  0  0  0  0
   57.5320   31.5030   44.7070 C   0  0  0  0  0  0  0  0  0  0  0  0
   56.5830   30.2650   43.8860 S   0  0  0  0  0  0  0  0  0  0  0  0
   55.2740   30.0980   44.6040 O   0  0  0  0  0  0  0  0  0  0  0  0
   56.3020   30.6770   42.4670 O   0  0  0  0  0  0  0  0  0  0  0  0
   57.4360   28.7510   43.8880 N   0  0  0  0  0  0  0  0  0  0  0  0
   58.1560   28.5900   45.1530 C   0  0  0  0  0  0  0  0  0  0  0  0
   57.9510   27.1950   45.6830 C   0  0  0  0  0  0  0  0  0  0  0  0
   59.0630   26.3730   45.9320 C   0  0  0  0  0  0  0  0  0  0  0  0
   58.8850   25.0650   46.3910 C   0  0  0  0  0  0  0  0  0  0  0  0
   57.5980   24.5620   46.5940 C   0  0  0  0  0  0  0  0  0  0  0  0
   56.4850   25.3650   46.3330 C   0  0  0  0  0  0  0  0  0  0  0  0
   56.6540   26.6770   45.8720 C   0  0  0  0  0  0  0  0  0  0  0  0
   55.5320   27.4530   45.6050 O   0  0  0  0  0  0  0  0  0  0  0  0
   57.7500   31.4030   46.0880 C   0  0  0  0  0  0  0  0  0  0  0  0
   61.3554   33.5675   51.2672 H   0  0  0  0  0  0  0  0  0  0  0  0
   60.9755   34.9849   50.2312 H   0  0  0  0  0  0  0  0  0  0  0  0
   59.8880   33.5552   50.2312 H   0  0  0  0  0  0  0  0  0  0  0  0
   63.3673   34.6873   49.4270 H   0  0  0  0  0  0  0  0  0  0  0  0
   64.7449   33.6944   47.6065 H   0  0  0  0  0  0  0  0  0  0  0  0
   63.9115   31.7218   46.3354 H   0  0  0  0  0  0  0  0  0  0  0  0
   61.1711   29.6585   47.3034 H   0  0  0  0  0  0  0  0  0  0  0  0
   60.6864   30.7814   45.9878 H   0  0  0  0  0  0  0  0  0  0  0  0
   62.3286   30.0536   45.9878 H   0  0  0  0  0  0  0  0  0  0  0  0
   59.7060   34.1773   46.5372 H   0  0  0  0  0  0  0  0  0  0  0  0
   59.3144   34.3538   44.0815 H   0  0  0  0  0  0  0  0  0  0  0  0
   57.9311   32.6444   42.9047 H   0  0  0  0  0  0  0  0  0  0  0  0
   56.7130   27.9960   43.8230 H   0  0  0  0  0  0  0  0  0  0  0  0
   59.2295   28.7634   44.9868 H   0  0  0  0  0  0  0  0  0  0  0  0
   57.7720   29.3164   45.8844 H   0  0  0  0  0  0  0  0  0  0  0  0
   60.0787   26.7609   45.7648 H   0  0  0  0  0  0  0  0  0  0  0  0
   59.7605   24.4303   46.5928 H   0  0  0  0  0  0  0  0  0  0  0  0
   57.4607   23.5336   46.9594 H   0  0  0  0  0  0  0  0  0  0  0  0
   55.4722   24.9656   46.4901 H   0  0  0  0  0  0  0  0  0  0  0  0
   57.3048   30.5700   46.6518 H   0  0  0  0  0  0  0  0  0  0  0  0
  1  2  1  0
  2  3  2  0
  3  4  1  0
  4  5  2  0
  5  6  1  0
  6  7  1  0
  6  8  2  0
  8  9  1  0
  9 10  1  0
 10 11  2  0
 10 12  1  0
 12 13  2  0
 13 14  1  0
 14 15  2  0
 15 16  1  0
 16 17  1  0
 17 18  2  0
 17 19  2  0
 17 20  1  0
 20 21  1  0
 21 22  1  0
 22 23  2  0
 23 24  1  0
 24 25  2  0
 25 26  1  0
 26 27  2  0
 27 28  1  0
 16 29  2  0
  8  2  1  0
 29 12  1  0
 27 22  1  0
  1 30  1  0
  1 31  1  0
  1 32  1  0
  3 33  1  0
  4 34  1  0
  5 35  1  0
  7 36  1  0
  7 37  1  0
  7 38  1  0
 13 39  1  0
 14 40  1  0
 15 41  1  0
 20 42  1  0
 21 43  1  0
 21 44  1  0
 23 45  1  0
 24 46  1  0
 25 47  1  0
 26 48  1  0
 29 49  1  0
M  CHG  1  28  -1
M  END
>  <UniqueID>  (36) 
32

>  <SMILES>  (36) 
Cc1cccc(C)c1OC(=O)c1cccc(S(=O)(=O)NCc2ccccc2[O-])c1

>  <Energy>  (36) 
55.82203067214786

>  <Genealogy>  (36) 
Cc1cccc(C)c1OC(=O)c1cccc(S(=O)(=O)NCc2ccccc2[O-])c1 (protonated)
Cc1cccc(C)c1OC(=O)c1cccc(S(=O)(=O)NCc2ccccc2[O-])c1 (3D coordinates assigned)
Cc1cccc(C)c1OC(=O)c1cccc(S(=O)(=O)NCc2ccccc2[O-])c1 (optimized conformer: 55.82203067214786 kcal/mol)

>  <smiles>  (36) 
Cc1cccc(C)c1OC(=O)c1cccc(S(=O)(=O)NCc2ccccc2O)c1

>  <score_type>  (36) 
oracle

>  <origin>  (36) 
adg

>  <m_score__min__energy>  (36) 
-14.31

>  <m_primary>  (36) 
energy

$$$$
36:0
     RDKit          3D

 35 37  0  0  0  0  0  0  0  0999 V2000
   55.7740   29.4780   43.2610 O   0  0  0  0  0  0  0  0  0  0  0  0
   56.4790   29.8490   44.2380 C   0  0  0  0  0  0  0  0  0  0  0  0
   56.2970   31.1570   44.8000 N   0  0  0  0  0  0  0  0  0  0  0  0
   57.3160   32.1380   45.0380 C   0  0  0  0  0  0  0  0  0  0  0  0
   57.8200   32.3960   46.3270 C   0  0  0  0  0  0  0  0  0  0  0  0
   58.8280   33.3490   46.5100 C   0  0  0  0  0  0  0  0  0  0  0  0
   59.3500   34.0370   45.4120 C   0  0  0  0  0  0  0  0  0  0  0  0
   58.8730   33.7670   44.1270 C   0  0  0  0  0  0  0  0  0  0  0  0
   57.8660   32.8150   43.9410 C   0  0  0  0  0  0  0  0  0  0  0  0
   57.5370   28.9570   44.7680 C   0  0  0  0  0  0  0  0  0  0  0  0
   58.8950   29.2700   44.5790 C   0  0  0  0  0  0  0  0  0  0  0  0
   59.8930   28.4310   45.0800 C   0  0  0  0  0  0  0  0  0  0  0  0
   61.1990   28.7430   44.8890 F   0  0  0  0  0  0  0  0  0  0  0  0
   59.5500   27.2700   45.7750 C   0  0  0  0  0  0  0  0  0  0  0  0
   58.2020   26.9400   45.9780 C   0  0  0  0  0  0  0  0  0  0  0  0
   57.8380   25.6670   46.6950 C   0  0  0  0  0  0  0  0  0  0  0  0
   56.8520   24.8800   45.8860 C   0  0  0  0  0  0  0  0  0  0  0  0
   57.1540   23.7260   45.2650 N   0  0  0  0  0  0  0  0  0  0  0  0
   56.0150   23.4170   44.6070 C   0  0  0  0  0  0  0  0  0  0  0  0
   55.9010   22.3820   43.9020 O   0  0  0  0  0  0  0  0  0  0  0  0
   55.0130   24.3060   44.7630 N   0  0  0  0  0  0  0  0  0  0  0  0
   55.5560   25.2320   45.5700 C   0  0  0  0  0  0  0  0  0  0  0  0
   54.8730   26.3670   45.9990 O   0  0  0  0  0  0  0  0  0  0  0  0
   57.2000   27.7840   45.4700 C   0  0  0  0  0  0  0  0  0  0  0  0
   57.4203   31.8470   47.1924 H   0  0  0  0  0  0  0  0  0  0  0  0
   59.2101   33.5568   47.5203 H   0  0  0  0  0  0  0  0  0  0  0  0
   60.1368   34.7915   45.5592 H   0  0  0  0  0  0  0  0  0  0  0  0
   59.2896   34.3033   43.2616 H   0  0  0  0  0  0  0  0  0  0  0  0
   57.5027   32.5958   42.9261 H   0  0  0  0  0  0  0  0  0  0  0  0
   59.1735   30.1829   44.0322 H   0  0  0  0  0  0  0  0  0  0  0  0
   60.3400   26.6114   46.1650 H   0  0  0  0  0  0  0  0  0  0  0  0
   58.7453   25.0643   46.8482 H   0  0  0  0  0  0  0  0  0  0  0  0
   57.3856   25.9189   47.6655 H   0  0  0  0  0  0  0  0  0  0  0  0
   54.0170   26.3010   46.5320 H   0  0  0  0  0  0  0  0  0  0  0  0
   56.1417   27.5257   45.6223 H   0  0  0  0  0  0  0  0  0  0  0  0
  1  2  2  0
  2  3  1  0
  3  4  1  0
  4  5  2  0
  5  6  1  0
  6  7  2  0
  7  8  1  0
  8  9  2  0
  2 10  1  0
 10 11  2  0
 11 12  1  0
 12 13  1  0
 12 14  2  0
 14 15  1  0
 15 16  1  0
 16 17  1  0
 17 18  1  0
 18 19  1  0
 19 20  2  0
 19 21  1  0
 21 22  1  0
 22 23  1  0
 15 24  2  0
  9  4  1  0
 24 10  1  0
 22 17  2  0
  5 25  1  0
  6 26  1  0
  7 27  1  0
  8 28  1  0
  9 29  1  0
 11 30  1  0
 14 31  1  0
 16 32  1  0
 16 33  1  0
 23 34  1  0
 24 35  1  0
M  CHG  3   3  -1  18  -1  21  -1
M  END
>  <UniqueID>  (37) 
33

>  <SMILES>  (37) 
O=C([N-]c1ccccc1)c1cc(F)cc(Cc2[n-]c(=O)[n-]c2O)c1

>  <Energy>  (37) 
69.2916838344876

>  <Genealogy>  (37) 
O=C([N-]c1ccccc1)c1cc(F)cc(Cc2[n-]c(=O)[n-]c2O)c1 (protonated)
O=C([N-]c1ccccc1)c1cc(F)cc(Cc2[n-]c(=O)[n-]c2O)c1 (3D coordinates assigned)
O=C([N-]c1ccccc1)c1cc(F)cc(Cc2[n-]c(=O)[n-]c2O)c1 (optimized conformer: 69.2916838344876 kcal/mol)

>  <smiles>  (37) 
O=C(Nc1ccccc1)c1cc(F)cc(Cc2[nH]c(=O)[nH]c2O)c1

>  <score_type>  (37) 
oracle

>  <origin>  (37) 
adg

>  <m_score__min__energy>  (37) 
-13.92

>  <m_primary>  (37) 
energy

$$$$
37:0
     RDKit          3D

 23 24  0  0  0  0  0  0  0  0999 V2000
   51.0550   32.4320   49.7400 O   0  0  0  0  0  0  0  0  0  0  0  0
   51.4080   32.2360   50.9320 C   0  0  0  0  0  0  0  0  0  0  0  0
   52.7310   31.5860   51.2270 C   0  0  0  0  0  0  0  0  0  0  0  0
   52.8010   31.0170   52.5880 N   0  0  0  0  0  0  0  0  0  0  0  0
   53.9300   30.1840   52.9290 C   0  0  0  0  0  0  0  0  0  0  0  0
   55.0970   30.2830   52.2330 N   0  0  0  0  0  0  0  0  0  0  0  0
   56.1700   29.5100   52.5410 C   0  0  0  0  0  0  0  0  0  0  0  0
   57.2360   29.6230   51.8810 O   0  0  0  0  0  0  0  0  0  0  0  0
   56.0870   28.5930   53.5900 C   0  0  0  0  0  0  0  0  0  0  0  0
   54.8900   28.5010   54.2980 C   0  0  0  0  0  0  0  0  0  0  0  0
   54.7710   27.5980   55.3490 O   0  0  0  0  0  0  0  0  0  0  0  0
   53.8390   29.2930   53.9560 N   0  0  0  0  0  0  0  0  0  0  0  0
   51.7060   31.1860   53.5620 C   0  0  0  0  0  0  0  0  0  0  0  0
   51.0060   32.5300   53.3730 C   0  0  0  0  0  0  0  0  0  0  0  0
   50.5600   32.6570   51.9970 N   0  0  0  0  0  0  0  0  0  0  0  0
   52.8946   30.7772   50.4996 H   0  0  0  0  0  0  0  0  0  0  0  0
   53.5047   32.3645   51.1545 H   0  0  0  0  0  0  0  0  0  0  0  0
   56.9461   27.9579   53.8518 H   0  0  0  0  0  0  0  0  0  0  0  0
   53.8690   27.4040   55.7680 H   0  0  0  0  0  0  0  0  0  0  0  0
   50.9738   30.3768   53.4237 H   0  0  0  0  0  0  0  0  0  0  0  0
   52.1314   31.1527   54.5759 H   0  0  0  0  0  0  0  0  0  0  0  0
   50.1380   32.5887   54.0462 H   0  0  0  0  0  0  0  0  0  0  0  0
   51.7082   33.3439   53.6063 H   0  0  0  0  0  0  0  0  0  0  0  0
  1  2  2  0
  2  3  1  0
  3  4  1  0
  4  5  1  0
  5  6  2  0
  6  7  1  0
  7  8  2  0
  7  9  1  0
  9 10  2  0
 10 11  1  0
 10 12  1  0
  4 13  1  0
 13 14  1  0
 14 15  1  0
 15  2  1  0
 12  5  1  0
  3 16  1  0
  3 17  1  0
  9 18  1  0
 11 19  1  0
 13 20  1  0
 13 21  1  0
 14 22  1  0
 14 23  1  0
M  CHG  2  12  -1  15  -1
M  END
>  <UniqueID>  (38) 
34

>  <SMILES>  (38) 
O=C1CN(c2nc(=O)cc(O)[n-]2)CC[N-]1

>  <Energy>  (38) 
22.99024402760744

>  <Genealogy>  (38) 
O=C1CN(c2nc(=O)cc(O)[n-]2)CC[N-]1 (protonated)
O=C1CN(c2nc(=O)cc(O)[n-]2)CC[N-]1 (3D coordinates assigned)
O=C1CN(c2nc(=O)cc(O)[n-]2)CC[N-]1 (nonaromatic ring conformer: 22.99024402760744 kcal/mol)

>  <smiles>  (38) 
O=C1CN(c2nc(=O)cc(O)[nH]2)CCN1

>  <score_type>  (38) 
oracle

>  <origin>  (38) 
adg

>  <m_score__min__energy>  (38) 
-9.4600000000000009

>  <m_primary>  (38) 
energy

$$$$
38:0
     RDKit          3D

 37 38  0  0  1  0  0  0  0  0999 V2000
   58.9050   30.2470   49.6940 C   0  0  0  0  0  0  0  0  0  0  0  0
   59.4520   29.1390   48.9430 N   0  0  0  0  0  0  0  0  0  0  0  0
   60.4420   28.2990   49.6230 C   0  0  0  0  0  0  0  0  0  0  0  0
   59.1190   28.7910   47.6220 C   0  0  0  0  0  0  0  0  0  0  0  0
   59.3600   27.5420   47.1940 N   0  0  0  0  0  0  0  0  0  0  0  0
   59.0240   27.1300   45.9610 C   0  0  0  0  0  0  0  0  0  0  0  0
   59.2330   25.9690   45.5260 O   0  0  0  0  0  0  0  0  0  0  0  0
   58.4100   28.0700   45.1440 C   0  0  0  0  0  0  0  0  0  0  0  0
   58.0270   27.7180   43.8350 O   0  0  0  0  0  0  0  0  0  0  0  0
   58.1620   29.3700   45.6020 C   0  0  0  0  0  0  0  0  0  0  0  0
   57.4490   30.3270   44.7080 C   0  0  2  0  0  0  0  0  0  0  0  0
   57.0240   31.4740   45.4610 N   0  0  0  0  0  0  0  0  0  0  0  0
   57.7970   32.5280   45.5520 C   0  0  0  0  0  0  0  0  0  0  0  0
   58.3580   33.0900   44.4260 C   0  0  0  0  0  0  0  0  0  0  0  0
   59.1800   34.2150   44.5320 C   0  0  0  0  0  0  0  0  0  0  0  0
   59.4410   34.7680   45.7290 N   0  0  0  0  0  0  0  0  0  0  0  0
   58.9110   34.2450   46.8480 C   0  0  0  0  0  0  0  0  0  0  0  0
   58.0870   33.1220   46.7560 C   0  0  0  0  0  0  0  0  0  0  0  0
   56.3350   29.7140   43.9620 C   0  0  0  0  0  0  0  0  0  0  0  0
   55.2070   29.4510   44.4540 O   0  0  0  0  0  0  0  0  0  0  0  0
   56.5080   29.3830   42.6120 O   0  0  0  0  0  0  0  0  0  0  0  0
   58.5260   29.7280   46.8580 N   0  0  0  0  0  0  0  0  0  0  0  0
   59.0047   30.0450   50.7707 H   0  0  0  0  0  0  0  0  0  0  0  0
   59.4524   31.1670   49.4413 H   0  0  0  0  0  0  0  0  0  0  0  0
   57.8417   30.3719   49.4413 H   0  0  0  0  0  0  0  0  0  0  0  0
   60.3228   28.4002   50.7118 H   0  0  0  0  0  0  0  0  0  0  0  0
   60.2920   27.2484   49.3338 H   0  0  0  0  0  0  0  0  0  0  0  0
   61.4542   28.6180   49.3338 H   0  0  0  0  0  0  0  0  0  0  0  0
   57.0280   27.5630   43.6360 H   0  0  0  0  0  0  0  0  0  0  0  0
   58.1643   30.6502   43.9374 H   0  0  0  0  0  0  0  0  0  0  0  0
   58.1576   32.6505   43.4377 H   0  0  0  0  0  0  0  0  0  0  0  0
   59.6192   34.6538   43.6240 H   0  0  0  0  0  0  0  0  0  0  0  0
   60.0640   35.6200   45.8290 H   0  0  0  0  0  0  0  0  0  0  0  0
   59.1246   34.6978   47.8274 H   0  0  0  0  0  0  0  0  0  0  0  0
   57.6567   32.6998   47.6761 H   0  0  0  0  0  0  0  0  0  0  0  0
   57.3760   29.0300   42.2470 H   0  0  0  0  0  0  0  0  0  0  0  0
   58.3660   30.6790   47.2270 H   0  0  0  0  0  0  0  0  0  0  0  0
  1  2  1  0
  2  3  1  0
  2  4  1  0
  4  5  2  0
  5  6  1  0
  6  7  2  0
  6  8  1  0
  8  9  1  0
  8 10  2  0
 10 11  1  0
 11 12  1  0
 12 13  2  3
 13 14  1  0
 14 15  2  0
 15 16  1  0
 16 17  1  0
 17 18  2  0
 11 19  1  0
 19 20  2  0
 19 21  1  0
 10 22  1  0
 22  4  1  0
 18 13  1  0
  1 23  1  0
  1 24  1  0
  1 25  1  0
  3 26  1  0
  3 27  1  0
  3 28  1  0
  9 29  1  0
 11 30  1  6
 14 31  1  0
 15 32  1  0
 16 33  1  0
 17 34  1  0
 18 35  1  0
 21 36  1  0
 22 37  1  0
M  END
>  <smiles>  (39) 
CN(C)c1nc(=O)c(O)c(C(N=c2cc[nH]cc2)C(=O)O)[nH]1

>  <score_type>  (39) 
oracle

>  <origin>  (39) 
adg

>  <m_score__min__energy>  (39) 
-7.1200000000000001

>  <m_primary>  (39) 
energy

$$$$
39:0
     RDKit          3D

 48 51  0  0  0  0  0  0  0  0999 V2000
   55.5170   29.2360   44.8770 N   0  0  0  0  0  0  0  0  0  0  0  0
   57.2300   29.3300   45.0960 S   0  0  0  0  0  0  0  0  0  0  0  0
   57.8950   28.4480   44.0800 O   0  0  0  0  0  0  0  0  0  0  0  0
   57.5630   28.8430   46.4780 O   0  0  0  0  0  0  0  0  0  0  0  0
   57.8000   30.9950   44.8960 C   0  0  0  0  0  0  0  0  0  0  0  0
   57.3460   31.7540   43.8050 C   0  0  0  0  0  0  0  0  0  0  0  0
   57.7770   33.0700   43.6270 C   0  0  0  0  0  0  0  0  0  0  0  0
   58.6700   33.6430   44.5340 C   0  0  0  0  0  0  0  0  0  0  0  0
   59.1370   32.9000   45.6210 C   0  0  0  0  0  0  0  0  0  0  0  0
   58.7120   31.5770   45.8090 C   0  0  0  0  0  0  0  0  0  0  0  0
   59.2340   30.8270   46.9640 C   0  0  0  0  0  0  0  0  0  0  0  0
   58.7710   31.1120   48.2550 C   0  0  0  0  0  0  0  0  0  0  0  0
   59.2730   30.4070   49.3530 C   0  0  0  0  0  0  0  0  0  0  0  0
   60.2460   29.4120   49.1700 C   0  0  0  0  0  0  0  0  0  0  0  0
   60.8030   28.6750   50.3580 C   0  0  0  0  0  0  0  0  0  0  0  0
   61.8310   29.4720   51.0180 N   0  0  0  0  0  0  0  0  0  0  0  0
   61.5540   30.6520   51.7820 C   0  0  0  0  0  0  0  0  0  0  0  0
   60.4840   30.7390   52.4450 O   0  0  0  0  0  0  0  0  0  0  0  0
   62.5860   31.7500   51.8430 C   0  0  2  0  0  0  0  0  0  0  0  0
   61.9460   33.1510   51.9350 C   0  0  0  0  0  0  0  0  0  0  0  0
   61.3440   33.5080   50.6860 O   0  0  0  0  0  0  0  0  0  0  0  0
   61.9580   33.1810   49.4730 C   0  0  0  0  0  0  0  0  0  0  0  0
   61.5150   33.7400   48.2710 C   0  0  0  0  0  0  0  0  0  0  0  0
   62.1650   33.4230   47.0730 C   0  0  0  0  0  0  0  0  0  0  0  0
   63.2570   32.5460   47.0770 C   0  0  0  0  0  0  0  0  0  0  0  0
   63.6900   31.9730   48.2770 C   0  0  0  0  0  0  0  0  0  0  0  0
   63.0300   32.2770   49.4730 C   0  0  0  0  0  0  0  0  0  0  0  0
   63.4200   31.6850   50.6800 O   0  0  0  0  0  0  0  0  0  0  0  0
   60.6980   29.1200   47.8720 C   0  0  0  0  0  0  0  0  0  0  0  0
   60.1910   29.8210   46.7750 C   0  0  0  0  0  0  0  0  0  0  0  0
   55.1470   28.6020   45.6210 H   0  0  0  0  0  0  0  0  0  0  0  0
   56.6448   31.3078   43.0845 H   0  0  0  0  0  0  0  0  0  0  0  0
   57.4123   33.6562   42.7706 H   0  0  0  0  0  0  0  0  0  0  0  0
   59.0064   34.6807   44.3927 H   0  0  0  0  0  0  0  0  0  0  0  0
   59.8415   33.3550   46.3328 H   0  0  0  0  0  0  0  0  0  0  0  0
   58.0105   31.8925   48.4053 H   0  0  0  0  0  0  0  0  0  0  0  0
   58.9040   30.6330   50.3643 H   0  0  0  0  0  0  0  0  0  0  0  0
   59.9904   28.4706   51.0707 H   0  0  0  0  0  0  0  0  0  0  0  0
   61.2513   27.7316   50.0130 H   0  0  0  0  0  0  0  0  0  0  0  0
   63.1809   31.5952   52.7552 H   0  0  0  0  0  0  0  0  0  0  0  0
   61.1758   33.1467   52.7204 H   0  0  0  0  0  0  0  0  0  0  0  0
   62.7285   33.8854   52.1767 H   0  0  0  0  0  0  0  0  0  0  0  0
   60.6568   34.4280   48.2667 H   0  0  0  0  0  0  0  0  0  0  0  0
   61.8178   33.8633   46.1267 H   0  0  0  0  0  0  0  0  0  0  0  0
   63.7743   32.3078   46.1359 H   0  0  0  0  0  0  0  0  0  0  0  0
   64.5479   31.2845   48.2808 H   0  0  0  0  0  0  0  0  0  0  0  0
   61.4543   28.3361   47.7189 H   0  0  0  0  0  0  0  0  0  0  0  0
   60.5438   29.5827   45.7607 H   0  0  0  0  0  0  0  0  0  0  0  0
  1  2  1  0
  2  3  2  0
  2  4  2  0
  2  5  1  0
  5  6  2  0
  6  7  1  0
  7  8  2  0
  8  9  1  0
  9 10  2  0
 10 11  1  0
 11 12  2  0
 12 13  1  0
 13 14  2  0
 14 15  1  0
 15 16  1  0
 16 17  1  0
 17 18  2  0
 17 19  1  0
 19 20  1  0
 20 21  1  0
 21 22  1  0
 22 23  2  0
 23 24  1  0
 24 25  2  0
 25 26  1  0
 26 27  2  0
 27 28  1  0
 14 29  1  0
 29 30  2  0
 10  5  1  0
 30 11  1  0
 28 19  1  0
 27 22  1  0
  1 31  1  0
  6 32  1  0
  7 33  1  0
  8 34  1  0
  9 35  1  0
 12 36  1  0
 13 37  1  0
 15 38  1  0
 15 39  1  0
 19 40  1  1
 20 41  1  0
 20 42  1  0
 23 43  1  0
 24 44  1  0
 25 45  1  0
 26 46  1  0
 29 47  1  0
 30 48  1  0
M  CHG  2   1  -1  16  -1
M  END
>  <UniqueID>  (40) 
35

>  <SMILES>  (40) 
[NH-]S(=O)(=O)c1ccccc1-c1ccc(C[N-]C(=O)[C@@H]2COc3ccccc3O2)cc1

>  <Energy>  (40) 
60.394768717585436

>  <Genealogy>  (40) 
[NH-]S(=O)(=O)c1ccccc1-c1ccc(C[N-]C(=O)C2COc3ccccc3O2)cc1 (protonated)
[NH-]S(=O)(=O)c1ccccc1-c1ccc(C[N-]C(=O)[C@@H]2COc3ccccc3O2)cc1 (chirality)
[NH-]S(=O)(=O)c1ccccc1-c1ccc(C[N-]C(=O)[C@@H]2COc3ccccc3O2)cc1 (3D coordinates assigned)
[NH-]S(=O)(=O)c1ccccc1-c1ccc(C[N-]C(=O)[C@@H]2COc3ccccc3O2)cc1 (nonaromatic ring conformer: 60.394768717585436 kcal/mol)

>  <smiles>  (40) 
NS(=O)(=O)c1ccccc1-c1ccc(CNC(=O)C2COc3ccccc3O2)cc1

>  <score_type>  (40) 
oracle

>  <origin>  (40) 
adg

>  <m_score__min__energy>  (40) 
-11.859999999999999

>  <m_primary>  (40) 
energy

$$$$
40:0
     RDKit          3D

 34 36  0  0  0  0  0  0  0  0999 V2000
   57.3900   32.1890   41.3440 C   0  0  0  0  0  0  0  0  0  0  0  0
   57.0830   31.2860   42.5020 C   0  0  0  0  0  0  0  0  0  0  0  0
   56.3230   30.1850   42.4240 N   0  0  0  0  0  0  0  0  0  0  0  0
   56.2380   29.6000   43.6160 N   0  0  0  0  0  0  0  0  0  0  0  0
   56.9730   30.3630   44.4760 C   0  0  0  0  0  0  0  0  0  0  0  0
   57.0800   30.0570   45.6820 O   0  0  0  0  0  0  0  0  0  0  0  0
   57.5210   31.4320   43.8140 C   0  0  0  0  0  0  0  0  0  0  0  0
   58.3420   32.4900   44.2410 N   0  0  0  0  0  0  0  0  0  0  0  0
   58.1130   33.3270   45.3570 C   0  0  0  0  0  0  0  0  0  0  0  0
   57.1190   33.2090   46.1060 O   0  0  0  0  0  0  0  0  0  0  0  0
   59.0780   34.4110   45.6850 C   0  0  0  0  0  0  0  0  0  0  0  0
   59.7390   34.1770   46.9930 C   0  0  0  0  0  0  0  0  0  0  0  0
   59.1200   34.1560   48.2460 C   0  0  0  0  0  0  0  0  0  0  0  0
   60.0800   33.9110   49.1670 N   0  0  0  0  0  0  0  0  0  0  0  0
   61.2620   33.7780   48.5620 C   0  0  0  0  0  0  0  0  0  0  0  0
   62.5100   33.5220   49.1120 C   0  0  0  0  0  0  0  0  0  0  0  0
   63.5770   33.4320   48.2560 C   0  0  0  0  0  0  0  0  0  0  0  0
   63.4050   33.5940   46.8770 C   0  0  0  0  0  0  0  0  0  0  0  0
   62.1580   33.8480   46.3360 C   0  0  0  0  0  0  0  0  0  0  0  0
   61.0980   33.9360   47.2050 C   0  0  0  0  0  0  0  0  0  0  0  0
   57.7227   33.1676   41.7203 H   0  0  0  0  0  0  0  0  0  0  0  0
   58.1865   31.7416   40.7313 H   0  0  0  0  0  0  0  0  0  0  0  0
   56.4859   32.3198   40.7313 H   0  0  0  0  0  0  0  0  0  0  0  0
   55.8620   29.8390   41.5370 H   0  0  0  0  0  0  0  0  0  0  0  0
   55.7100   28.7180   43.8630 H   0  0  0  0  0  0  0  0  0  0  0  0
   59.2210   32.7000   43.6890 H   0  0  0  0  0  0  0  0  0  0  0  0
   59.8467   34.4544   44.8993 H   0  0  0  0  0  0  0  0  0  0  0  0
   58.5232   35.3589   45.7447 H   0  0  0  0  0  0  0  0  0  0  0  0
   58.0494   34.3103   48.4463 H   0  0  0  0  0  0  0  0  0  0  0  0
   59.8590   33.8470   50.2020 H   0  0  0  0  0  0  0  0  0  0  0  0
   62.6387   33.3957   50.1971 H   0  0  0  0  0  0  0  0  0  0  0  0
   64.5807   33.2299   48.6583 H   0  0  0  0  0  0  0  0  0  0  0  0
   64.2773   33.5180   46.2112 H   0  0  0  0  0  0  0  0  0  0  0  0
   62.0203   33.9746   45.2520 H   0  0  0  0  0  0  0  0  0  0  0  0
  1  2  1  0
  2  3  1  0
  3  4  1  0
  4  5  1  0
  5  6  2  0
  5  7  1  0
  7  8  1  0
  8  9  1  0
  9 10  2  0
  9 11  1  0
 11 12  1  0
 12 13  2  0
 13 14  1  0
 14 15  1  0
 15 16  2  0
 16 17  1  0
 17 18  2  0
 18 19  1  0
 19 20  2  0
  7  2  2  0
 20 12  1  0
 20 15  1  0
  1 21  1  0
  1 22  1  0
  1 23  1  0
  3 24  1  0
  4 25  1  0
  8 26  1  0
 11 27  1  0
 11 28  1  0
 13 29  1  0
 14 30  1  0
 16 31  1  0
 17 32  1  0
 18 33  1  0
 19 34  1  0
M  END
>  <smiles>  (41) 
Cc1[nH][nH]c(=O)c1NC(=O)Cc1c[nH]c2ccccc12

>  <score_type>  (41) 
oracle

>  <origin>  (41) 
adg

>  <m_score__min__energy>  (41) 
-8

>  <m_primary>  (41) 
energy

$$$$
41:0
     RDKit          3D

 45 47  0  0  0  0  0  0  0  0999 V2000
   56.8880   24.0320   47.8030 C   0  0  0  0  0  0  0  0  0  0  0  0
   57.5880   25.3020   47.3320 C   0  0  0  0  0  0  0  0  0  0  0  0
   56.7920   25.9770   46.2970 N   0  0  0  0  0  0  0  0  0  0  0  0
   55.7420   25.2240   45.5950 C   0  0  0  0  0  0  0  0  0  0  0  0
   56.3350   24.4450   44.4240 C   0  0  0  0  0  0  0  0  0  0  0  0
   57.0360   27.3630   45.9760 C   0  0  0  0  0  0  0  0  0  0  0  0
   56.1300   28.0690   45.2430 N   0  0  0  0  0  0  0  0  0  0  0  0
   56.3280   29.3740   44.9300 C   0  0  0  0  0  0  0  0  0  0  0  0
   55.4600   29.9830   44.2480 O   0  0  0  0  0  0  0  0  0  0  0  0
   57.4920   30.0270   45.3670 C   0  0  0  0  0  0  0  0  0  0  0  0
   57.7550   31.3780   45.0800 C   0  0  0  0  0  0  0  0  0  0  0  0
   58.9310   31.9900   45.5430 C   0  0  0  0  0  0  0  0  0  0  0  0
   59.1650   33.3780   45.2370 N   0  0  0  0  0  0  0  0  0  0  0  0
   59.5980   34.5710   46.4210 S   0  0  0  0  0  0  0  0  0  0  0  0
   58.4950   34.6870   47.4340 O   0  0  0  0  0  0  0  0  0  0  0  0
   59.7750   35.8990   45.7390 O   0  0  0  0  0  0  0  0  0  0  0  0
   61.0760   34.0890   47.2460 C   0  0  0  0  0  0  0  0  0  0  0  0
   62.2460   33.8240   46.5190 C   0  0  0  0  0  0  0  0  0  0  0  0
   63.4120   33.4300   47.1830 C   0  0  0  0  0  0  0  0  0  0  0  0
   63.4170   33.3020   48.5760 C   0  0  0  0  0  0  0  0  0  0  0  0
   64.8820   32.8120   49.4080 Cl  0  0  0  0  0  0  0  0  0  0  0  0
   62.2540   33.5710   49.3040 C   0  0  0  0  0  0  0  0  0  0  0  0
   61.0860   33.9630   48.6420 C   0  0  0  0  0  0  0  0  0  0  0  0
   59.8520   31.2280   46.2890 C   0  0  0  0  0  0  0  0  0  0  0  0
   59.5940   29.8860   46.5770 C   0  0  0  0  0  0  0  0  0  0  0  0
   58.4190   29.2820   46.1220 C   0  0  0  0  0  0  0  0  0  0  0  0
   58.1710   27.9780   46.4050 N   0  0  0  0  0  0  0  0  0  0  0  0
   56.8743   24.0072   48.9026 H   0  0  0  0  0  0  0  0  0  0  0  0
   55.8558   24.0198   47.4231 H   0  0  0  0  0  0  0  0  0  0  0  0
   57.4289   23.1528   47.4231 H   0  0  0  0  0  0  0  0  0  0  0  0
   57.7194   25.9810   48.1874 H   0  0  0  0  0  0  0  0  0  0  0  0
   58.5661   25.0316   46.9076 H   0  0  0  0  0  0  0  0  0  0  0  0
   55.2709   24.5199   46.2966 H   0  0  0  0  0  0  0  0  0  0  0  0
   54.9940   25.9322   45.2089 H   0  0  0  0  0  0  0  0  0  0  0  0
   56.9594   23.6248   44.8079 H   0  0  0  0  0  0  0  0  0  0  0  0
   55.5218   24.0304   43.8101 H   0  0  0  0  0  0  0  0  0  0  0  0
   56.9511   25.1184   43.8101 H   0  0  0  0  0  0  0  0  0  0  0  0
   57.0337   31.9603   44.4879 H   0  0  0  0  0  0  0  0  0  0  0  0
   58.9880   33.7190   44.2670 H   0  0  0  0  0  0  0  0  0  0  0  0
   62.2463   33.9264   45.4238 H   0  0  0  0  0  0  0  0  0  0  0  0
   64.3267   33.2204   46.6090 H   0  0  0  0  0  0  0  0  0  0  0  0
   62.2577   33.4741   50.3997 H   0  0  0  0  0  0  0  0  0  0  0  0
   60.1729   34.1730   49.2183 H   0  0  0  0  0  0  0  0  0  0  0  0
   60.7818   31.6939   46.6475 H   0  0  0  0  0  0  0  0  0  0  0  0
   60.3184   29.3024   47.1641 H   0  0  0  0  0  0  0  0  0  0  0  0
  1  2  1  0
  2  3  1  0
  3  4  1  0
  4  5  1  0
  3  6  1  0
  6  7  2  0
  7  8  1  0
  8  9  2  0
  8 10  1  0
 10 11  2  0
 11 12  1  0
 12 13  1  0
 13 14  1  0
 14 15  2  0
 14 16  2  0
 14 17  1  0
 17 18  2  0
 18 19  1  0
 19 20  2  0
 20 21  1  0
 20 22  1  0
 22 23  2  0
 12 24  2  0
 24 25  1  0
 25 26  2  0
 26 27  1  0
 27  6  1  0
 26 10  1  0
 23 17  1  0
  1 28  1  0
  1 29  1  0
  1 30  1  0
  2 31  1  0
  2 32  1  0
  4 33  1  0
  4 34  1  0
  5 35  1  0
  5 36  1  0
  5 37  1  0
 11 38  1  0
 13 39  1  0
 18 40  1  0
 19 41  1  0
 22 42  1  0
 23 43  1  0
 24 44  1  0
 25 45  1  0
M  CHG  1  27  -1
M  END
>  <UniqueID>  (42) 
36

>  <SMILES>  (42) 
CCN(CC)c1nc(=O)c2cc(NS(=O)(=O)c3ccc(Cl)cc3)ccc2[n-]1

>  <Energy>  (42) 
47.24230622281718

>  <Genealogy>  (42) 
CCN(CC)c1nc(=O)c2cc(NS(=O)(=O)c3ccc(Cl)cc3)ccc2[n-]1 (protonated)
CCN(CC)c1nc(=O)c2cc(NS(=O)(=O)c3ccc(Cl)cc3)ccc2[n-]1 (3D coordinates assigned)
CCN(CC)c1nc(=O)c2cc(NS(=O)(=O)c3ccc(Cl)cc3)ccc2[n-]1 (optimized conformer: 47.24230622281718 kcal/mol)

>  <smiles>  (42) 
CCN(CC)c1nc(=O)c2cc(NS(=O)(=O)c3ccc(Cl)cc3)ccc2[nH]1

>  <score_type>  (42) 
oracle

>  <origin>  (42) 
adg

>  <m_score__min__energy>  (42) 
-10.52

>  <m_primary>  (42) 
energy

$$$$
42:0
     RDKit          3D

 59 62  0  0  0  0  0  0  0  0999 V2000
   64.1300   32.4550   46.6990 N   0  0  0  0  0  0  0  0  0  0  0  0
   63.2140   32.7270   48.1390 S   0  0  0  0  0  0  0  0  0  0  0  0
   63.0040   31.4310   48.8700 O   0  0  0  0  0  0  0  0  0  0  0  0
   63.9910   33.6460   49.0400 O   0  0  0  0  0  0  0  0  0  0  0  0
   61.6590   33.4690   47.7260 C   0  0  0  0  0  0  0  0  0  0  0  0
   61.4640   33.8700   46.3930 C   0  0  0  0  0  0  0  0  0  0  0  0
   60.2750   34.4780   45.9940 C   0  0  0  0  0  0  0  0  0  0  0  0
   59.2580   34.6930   46.9180 C   0  0  0  0  0  0  0  0  0  0  0  0
   59.4210   34.2890   48.2420 C   0  0  0  0  0  0  0  0  0  0  0  0
   60.6060   33.6570   48.6690 C   0  0  0  0  0  0  0  0  0  0  0  0
   60.7130   33.2670   50.1340 C   0  0  0  0  0  0  0  0  0  0  0  0
   59.5250   32.4790   50.6530 C   0  0  0  0  0  0  0  0  0  0  0  0
   58.6400   33.1090   51.5510 C   0  0  0  0  0  0  0  0  0  0  0  0
   57.5350   32.4270   52.0640 C   0  0  0  0  0  0  0  0  0  0  0  0
   57.2810   31.1150   51.6720 C   0  0  0  0  0  0  0  0  0  0  0  0
   58.1190   30.4860   50.7520 C   0  0  0  0  0  0  0  0  0  0  0  0
   59.2370   31.1550   50.2280 C   0  0  0  0  0  0  0  0  0  0  0  0
   60.0310   30.4720   49.1870 C   0  0  0  0  0  0  0  0  0  0  0  0
   60.9440   29.6820   49.5510 O   0  0  0  0  0  0  0  0  0  0  0  0
   59.7960   30.7140   47.7820 N   0  0  0  0  0  0  0  0  0  0  0  0
   60.7750   30.2950   46.7730 C   0  0  0  0  0  0  0  0  0  0  0  0
   60.0440   29.5530   45.6510 C   0  0  0  0  0  0  0  0  0  0  0  0
   58.9570   30.3570   45.0280 N   0  0  0  0  0  0  0  0  0  0  0  0
   57.8090   29.5130   44.6300 C   0  0  0  0  0  0  0  0  0  0  0  0
   58.2940   28.1600   44.1050 C   0  0  0  0  0  0  0  0  0  0  0  0
   57.9140   27.0670   45.0540 C   0  0  0  0  0  0  0  0  0  0  0  0
   57.7550   25.7270   44.7260 C   0  0  0  0  0  0  0  0  0  0  0  0
   57.4930   24.9170   45.8370 C   0  0  0  0  0  0  0  0  0  0  0  0
   57.4600   25.6120   47.0400 C   0  0  0  0  0  0  0  0  0  0  0  0
   57.7620   27.2350   46.7190 S   0  0  0  0  0  0  0  0  0  0  0  0
   58.5360   31.5460   45.8120 C   0  0  0  0  0  0  0  0  0  0  0  0
   58.5230   31.2890   47.3260 C   0  0  0  0  0  0  0  0  0  0  0  0
   64.9470   33.1050   46.7280 H   0  0  0  0  0  0  0  0  0  0  0  0
   64.5110   31.4840   46.7560 H   0  0  0  0  0  0  0  0  0  0  0  0
   62.2613   33.7015   45.6541 H   0  0  0  0  0  0  0  0  0  0  0  0
   60.1408   34.7881   44.9472 H   0  0  0  0  0  0  0  0  0  0  0  0
   58.3243   35.1823   46.6037 H   0  0  0  0  0  0  0  0  0  0  0  0
   58.6115   34.4664   48.9654 H   0  0  0  0  0  0  0  0  0  0  0  0
   61.6173   32.6541   50.2633 H   0  0  0  0  0  0  0  0  0  0  0  0
   60.7489   34.2035   50.7100 H   0  0  0  0  0  0  0  0  0  0  0  0
   58.8222   34.1513   51.8515 H   0  0  0  0  0  0  0  0  0  0  0  0
   56.8643   32.9265   52.7786 H   0  0  0  0  0  0  0  0  0  0  0  0
   56.4184   30.5743   52.0886 H   0  0  0  0  0  0  0  0  0  0  0  0
   57.9022   29.4557   50.4336 H   0  0  0  0  0  0  0  0  0  0  0  0
   61.2825   31.1798   46.3611 H   0  0  0  0  0  0  0  0  0  0  0  0
   61.5233   29.6323   47.2323 H   0  0  0  0  0  0  0  0  0  0  0  0
   60.7746   29.2896   44.8720 H   0  0  0  0  0  0  0  0  0  0  0  0
   59.5774   28.6625   46.0975 H   0  0  0  0  0  0  0  0  0  0  0  0
   57.1594   29.3507   45.5028 H   0  0  0  0  0  0  0  0  0  0  0  0
   57.2515   30.0248   43.8318 H   0  0  0  0  0  0  0  0  0  0  0  0
   57.8343   27.9654   43.1248 H   0  0  0  0  0  0  0  0  0  0  0  0
   59.3896   28.1856   44.0096 H   0  0  0  0  0  0  0  0  0  0  0  0
   57.8275   25.3416   43.6983 H   0  0  0  0  0  0  0  0  0  0  0  0
   57.3286   23.8318   45.7647 H   0  0  0  0  0  0  0  0  0  0  0  0
   57.2692   25.1756   48.0316 H   0  0  0  0  0  0  0  0  0  0  0  0
   59.2336   32.3701   45.6018 H   0  0  0  0  0  0  0  0  0  0  0  0
   57.5076   31.7934   45.5101 H   0  0  0  0  0  0  0  0  0  0  0  0
   58.3523   32.2413   47.8494 H   0  0  0  0  0  0  0  0  0  0  0  0
   57.7191   30.5721   47.5491 H   0  0  0  0  0  0  0  0  0  0  0  0
  1  2  1  0
  2  3  2  0
  2  4  2  0
  2  5  1  0
  5  6  2  0
  6  7  1  0
  7  8  2  0
  8  9  1  0
  9 10  2  0
 10 11  1  0
 11 12  1  0
 12 13  2  0
 13 14  1  0
 14 15  2  0
 15 16  1  0
 16 17  2  0
 17 18  1  0
 18 19  2  0
 18 20  1  0
 20 21  1  0
 21 22  1  0
 22 23  1  0
 23 24  1  0
 24 25  1  0
 25 26  1  0
 26 27  2  0
 27 28  1  0
 28 29  2  0
 29 30  1  0
 23 31  1  0
 31 32  1  0
 10  5  1  0
 17 12  1  0
 32 20  1  0
 30 26  1  0
  1 33  1  0
  1 34  1  0
  6 35  1  0
  7 36  1  0
  8 37  1  0
  9 38  1  0
 11 39  1  0
 11 40  1  0
 13 41  1  0
 14 42  1  0
 15 43  1  0
 16 44  1  0
 21 45  1  0
 21 46  1  0
 22 47  1  0
 22 48  1  0
 24 49  1  0
 24 50  1  0
 25 51  1  0
 25 52  1  0
 27 53  1  0
 28 54  1  0
 29 55  1  0
 31 56  1  0
 31 57  1  0
 32 58  1  0
 32 59  1  0
M  END
>  <UniqueID>  (43) 
37

>  <SMILES>  (43) 
NS(=O)(=O)c1ccccc1Cc1ccccc1C(=O)N1CCN(CCc2cccs2)CC1

>  <Energy>  (43) 
97.93574534884755

>  <Genealogy>  (43) 
NS(=O)(=O)c1ccccc1Cc1ccccc1C(=O)N1CCN(CCc2cccs2)CC1 (3D coordinates assigned)
NS(=O)(=O)c1ccccc1Cc1ccccc1C(=O)N1CCN(CCc2cccs2)CC1 (nonaromatic ring conformer: 97.93574534884755 kcal/mol)

>  <smiles>  (43) 
NS(=O)(=O)c1ccccc1Cc1ccccc1C(=O)N1CCN(CCc2cccs2)CC1

>  <score_type>  (43) 
oracle

>  <origin>  (43) 
adg

>  <m_score__min__energy>  (43) 
-10.289999999999999

>  <m_primary>  (43) 
energy

$$$$
43:0
     RDKit          3D

 38 40  0  0  0  0  0  0  0  0999 V2000
   54.8354   28.9434   44.7391 H   0  0  0  0  0  0  0  0  0  0  0  0
   55.8630   29.3140   44.8680 C   0  0  0  0  0  0  0  0  0  0  0  0
   56.1750   30.5840   44.4980 N   0  0  0  0  0  0  0  0  0  0  0  0
   57.4260   31.0990   44.6370 C   0  0  0  0  0  0  0  0  0  0  0  0
   57.6410   32.3240   44.2450 N   0  0  0  0  0  0  0  0  0  0  0  0
   57.6630   33.5050   45.0620 C   0  0  0  0  0  0  0  0  0  0  0  0
   56.9590   34.4920   44.7170 O   0  0  0  0  0  0  0  0  0  0  0  0
   58.4200   33.5590   46.3370 C   0  0  0  0  0  0  0  0  0  0  0  0
   59.3990   34.5430   46.5500 C   0  0  0  0  0  0  0  0  0  0  0  0
   59.6018   35.2902   45.7686 H   0  0  0  0  0  0  0  0  0  0  0  0
   60.1160   34.5790   47.7460 C   0  0  0  0  0  0  0  0  0  0  0  0
   60.8853   35.3499   47.9006 H   0  0  0  0  0  0  0  0  0  0  0  0
   59.8610   33.6400   48.7480 C   0  0  0  0  0  0  0  0  0  0  0  0
   60.4363   33.6703   49.6851 H   0  0  0  0  0  0  0  0  0  0  0  0
   58.8740   32.6570   48.5660 C   0  0  0  0  0  0  0  0  0  0  0  0
   58.5880   31.6570   49.6210 C   0  0  0  0  0  0  0  0  0  0  0  0
   57.6680   31.9000   50.4520 O   0  0  0  0  0  0  0  0  0  0  0  0
   59.3520   30.3910   49.7480 C   0  0  0  0  0  0  0  0  0  0  0  0
   59.9660   30.0310   50.9640 C   0  0  0  0  0  0  0  0  0  0  0  0
   59.8916   30.7015   51.8329 H   0  0  0  0  0  0  0  0  0  0  0  0
   60.6690   28.8280   51.0740 C   0  0  0  0  0  0  0  0  0  0  0  0
   61.1601   28.5637   52.0221 H   0  0  0  0  0  0  0  0  0  0  0  0
   60.7490   27.9600   49.9810 C   0  0  0  0  0  0  0  0  0  0  0  0
   61.3078   27.0165   50.0681 H   0  0  0  0  0  0  0  0  0  0  0  0
   60.1200   28.2900   48.7790 C   0  0  0  0  0  0  0  0  0  0  0  0
   60.2000   27.1870   47.4170 Cl  0  0  0  0  0  0  0  0  0  0  0  0
   59.4200   29.4970   48.6630 C   0  0  0  0  0  0  0  0  0  0  0  0
   58.9192   29.7486   47.7165 H   0  0  0  0  0  0  0  0  0  0  0  0
   58.1730   32.6100   47.3460 C   0  0  0  0  0  0  0  0  0  0  0  0
   57.4235   31.8222   47.1797 H   0  0  0  0  0  0  0  0  0  0  0  0
   58.4450   30.2800   45.1620 C   0  0  0  0  0  0  0  0  0  0  0  0
   59.4698   30.6670   45.2617 H   0  0  0  0  0  0  0  0  0  0  0  0
   58.1460   28.9740   45.5550 C   0  0  0  0  0  0  0  0  0  0  0  0
   58.9352   28.3349   45.9777 H   0  0  0  0  0  0  0  0  0  0  0  0
   56.8440   28.4740   45.4130 C   0  0  0  0  0  0  0  0  0  0  0  0
   56.5110   27.0920   45.8220 C   0  0  0  0  0  0  0  0  0  0  0  0
   57.4240   26.2470   46.0250 O   0  0  0  0  0  0  0  0  0  0  0  0
   55.1850   26.7080   45.9930 O   0  0  0  0  0  0  0  0  0  0  0  0
  1  2  1  0
  2  3  1  0
  3  4  1  0
  4  5  2  0
  5  6  1  0
  6  7  2  0
  6  8  1  0
  8  9  2  0
  9 10  1  0
  9 11  1  0
 11 12  1  0
 11 13  2  0
 13 14  1  0
 13 15  1  0
 15 16  1  0
 16 17  2  0
 16 18  1  0
 18 19  2  0
 19 20  1  0
 19 21  1  0
 21 22  1  0
 21 23  2  0
 23 24  1  0
 23 25  1  0
 25 26  1  0
 25 27  2  0
 27 28  1  0
 15 29  2  0
 29 30  1  0
  4 31  1  0
 31 32  1  0
 31 33  2  0
 33 34  1  0
 33 35  1  0
 35 36  1  0
 36 37  2  0
 36 38  1  0
 35  2  2  0
 29  8  1  0
 27 18  1  0
M  CHG  2   3  -1  38  -1
M  END
>  <UniqueID>  (44) 
38

>  <SMILES>  (44) 
O=C([O-])c1cc/c(=N\C(=O)c2cccc(C(=O)c3cccc(Cl)c3)c2)[n-]c1

>  <Energy>  (44) 
59.29773692859202

>  <Genealogy>  (44) 
O=C([O-])c1ccc(=NC(=O)c2cccc(C(=O)c3cccc(Cl)c3)c2)[n-]c1 (protonated)
O=C([O-])c1cc/c(=N\C(=O)c2cccc(C(=O)c3cccc(Cl)c3)c2)[n-]c1 (cis-trans isomerization)
O=C([O-])c1cc/c(=N\C(=O)c2cccc(C(=O)c3cccc(Cl)c3)c2)[n-]c1 (3D coordinates assigned)
O=C([O-])c1cc/c(=N\C(=O)c2cccc(C(=O)c3cccc(Cl)c3)c2)[n-]c1 (optimized conformer: 59.29773692859202 kcal/mol)

>  <smiles>  (44) 
O=C(O)c1ccc(=NC(=O)c2cccc(C(=O)c3cccc(Cl)c3)c2)[nH]c1

>  <score_type>  (44) 
oracle

>  <origin>  (44) 
adg

>  <m_score__min__energy>  (44) 
-13.390000000000001

>  <m_primary>  (44) 
energy

$$$$
44:0
     RDKit          3D

 55 58  0  0  1  0  0  0  0  0999 V2000
   56.3470   32.3210   44.9500 O   0  0  0  0  0  0  0  0  0  0  0  0
   57.5890   32.1760   45.0910 C   0  0  0  0  0  0  0  0  0  0  0  0
   58.3540   31.1530   44.5110 N   0  0  0  0  0  0  0  0  0  0  0  0
   58.0880   29.9230   44.7690 C   0  0  0  0  0  0  0  0  0  0  0  0
   57.8710   29.4680   46.0740 C   0  0  0  0  0  0  0  0  0  0  0  0
   57.6000   28.1030   46.2300 C   0  0  0  0  0  0  0  0  0  0  0  0
   57.5500   27.2470   45.1450 C   0  0  0  0  0  0  0  0  0  0  0  0
   57.2670   25.8090   45.2270 C   0  0  0  0  0  0  0  0  0  0  0  0
   55.9520   25.4960   45.8420 C   0  0  0  0  0  0  0  0  0  0  0  0
   55.0070   26.5230   46.0110 O   0  0  0  0  0  0  0  0  0  0  0  0
   55.6500   24.2850   46.2310 N   0  0  0  0  0  0  0  0  0  0  0  0
   54.4170   24.1140   46.8090 O   0  0  0  0  0  0  0  0  0  0  0  0
   57.7780   27.7910   43.8950 C   0  0  0  0  0  0  0  0  0  0  0  0
   58.0380   29.0890   43.7110 N   0  0  0  0  0  0  0  0  0  0  0  0
   58.3480   33.1400   45.9340 C   0  0  0  0  0  0  0  0  0  0  0  0
   58.6660   34.3370   45.3270 C   0  0  0  0  0  0  0  0  0  0  0  0
   59.3720   35.2430   46.0880 C   0  0  0  0  0  0  0  0  0  0  0  0
   59.7250   34.9340   47.3800 C   0  0  0  0  0  0  0  0  0  0  0  0
   59.4050   33.7250   47.9900 C   0  0  0  0  0  0  0  0  0  0  0  0
   59.8210   33.5270   49.3270 N   0  0  0  0  0  0  0  0  0  0  0  0
   59.0150   32.8650   50.1250 N   0  0  0  0  0  0  0  0  0  0  0  0
   59.3310   32.6190   51.4050 C   0  0  0  0  0  0  0  0  0  0  0  0
   58.4040   31.8470   52.1600 N   0  0  0  0  0  0  0  0  0  0  0  0
   58.8280   30.5710   52.7720 C   0  0  0  0  0  0  0  0  0  0  0  0
   57.5280   29.7960   53.0130 C   0  0  0  0  0  0  0  0  0  0  0  0
   56.6650   29.9450   51.9440 O   0  0  0  0  0  0  0  0  0  0  0  0
   56.1220   31.1980   51.7950 C   0  0  0  0  0  0  0  0  0  0  0  0
   57.0350   32.2260   52.4230 C   0  0  0  0  0  0  0  0  0  0  0  0
   60.5190   33.0600   51.9270 C   0  0  0  0  0  0  0  0  0  0  0  0
   60.8770   32.8720   53.1080 O   0  0  0  0  0  0  0  0  0  0  0  0
   61.3510   33.7370   51.1270 N   0  0  0  0  0  0  0  0  0  0  0  0
   60.9830   33.9560   49.8380 C   0  0  0  0  0  0  0  0  0  0  0  0
   61.8150   34.5950   49.1470 O   0  0  0  0  0  0  0  0  0  0  0  0
   58.7030   32.8280   47.2340 C   0  0  0  0  0  0  0  0  0  0  0  0
   57.9113   30.1498   46.9363 H   0  0  0  0  0  0  0  0  0  0  0  0
   57.4228   27.7024   47.2390 H   0  0  0  0  0  0  0  0  0  0  0  0
   57.2826   25.3929   44.2089 H   0  0  0  0  0  0  0  0  0  0  0  0
   58.0389   25.3646   45.8725 H   0  0  0  0  0  0  0  0  0  0  0  0
   54.0950   26.2680   46.4010 H   0  0  0  0  0  0  0  0  0  0  0  0
   53.7660   24.9020   46.7470 H   0  0  0  0  0  0  0  0  0  0  0  0
   57.7441   27.1294   43.0168 H   0  0  0  0  0  0  0  0  0  0  0  0
   58.2050   29.4520   42.7290 H   0  0  0  0  0  0  0  0  0  0  0  0
   58.3715   34.5567   44.2902 H   0  0  0  0  0  0  0  0  0  0  0  0
   59.6540   36.2165   45.6604 H   0  0  0  0  0  0  0  0  0  0  0  0
   60.2884   35.6794   47.9605 H   0  0  0  0  0  0  0  0  0  0  0  0
   59.4885   30.0156   52.0899 H   0  0  0  0  0  0  0  0  0  0  0  0
   59.3949   30.7267   53.7017 H   0  0  0  0  0  0  0  0  0  0  0  0
   57.7623   28.7290   53.1419 H   0  0  0  0  0  0  0  0  0  0  0  0
   57.0426   30.1921   53.9172 H   0  0  0  0  0  0  0  0  0  0  0  0
   56.0029   31.4201   50.7243 H   0  0  0  0  0  0  0  0  0  0  0  0
   55.1403   31.2312   52.2902 H   0  0  0  0  0  0  0  0  0  0  0  0
   56.8341   33.2158   51.9873 H   0  0  0  0  0  0  0  0  0  0  0  0
   56.8593   32.2725   53.5079 H   0  0  0  0  0  0  0  0  0  0  0  0
   62.2780   34.0940   51.5020 H   0  0  0  0  0  0  0  0  0  0  0  0
   58.4195   31.8547   47.6610 H   0  0  0  0  0  0  0  0  0  0  0  0
  1  2  2  0
  2  3  1  0
  3  4  2  0
  4  5  1  0
  5  6  2  0
  6  7  1  0
  7  8  1  0
  8  9  1  0
  9 10  1  0
  9 11  2  0
 11 12  1  0
  7 13  2  0
 13 14  1  0
  2 15  1  0
 15 16  2  0
 16 17  1  0
 17 18  2  0
 18 19  1  0
 19 20  1  0
 20 21  1  0
 21 22  2  0
 22 23  1  0
 23 24  1  0
 24 25  1  0
 25 26  1  0
 26 27  1  0
 27 28  1  0
 22 29  1  0
 29 30  2  0
 29 31  1  0
 31 32  1  0
 32 33  2  0
 19 34  2  0
 14  4  1  0
 34 15  1  0
 32 20  1  0
 28 23  1  0
  5 35  1  0
  6 36  1  0
  8 37  1  0
  8 38  1  0
 10 39  1  0
 12 40  1  0
 13 41  1  0
 14 42  1  0
 16 43  1  0
 17 44  1  0
 18 45  1  0
 24 46  1  0
 24 47  1  0
 25 48  1  0
 25 49  1  0
 27 50  1  0
 27 51  1  0
 28 52  1  0
 28 53  1  0
 31 54  1  0
 34 55  1  0
M  END
>  <smiles>  (45) 
O=C(N=c1ccc(CC(O)=NO)c[nH]1)c1cccc(-n2nc(N3CCOCC3)c(=O)[nH]c2=O)c1

>  <score_type>  (45) 
oracle

>  <origin>  (45) 
adg

>  <m_score__min__energy>  (45) 
-10.619999999999999

>  <m_primary>  (45) 
energy

$$$$
45:0
     RDKit          3D

 22 23  0  0  0  0  0  0  0  0999 V2000
   51.5673   32.0283   54.1401 H   0  0  0  0  0  0  0  0  0  0  0  0
   52.0110   31.2180   53.5430 C   0  0  0  0  0  0  0  0  0  0  0  0
   52.7190   30.2870   54.1990 C   0  0  0  0  0  0  0  0  0  0  0  0
   52.2477   29.8175   55.0750 H   0  0  0  0  0  0  0  0  0  0  0  0
   54.0810   29.8410   53.8400 C   0  0  0  0  0  0  0  0  0  0  0  0
   54.5590   28.5770   54.2290 C   0  0  0  0  0  0  0  0  0  0  0  0
   53.9266   27.9158   54.8396 H   0  0  0  0  0  0  0  0  0  0  0  0
   55.8360   28.1580   53.8420 C   0  0  0  0  0  0  0  0  0  0  0  0
   56.2123   27.1754   54.1629 H   0  0  0  0  0  0  0  0  0  0  0  0
   56.6340   28.9850   53.0490 C   0  0  0  0  0  0  0  0  0  0  0  0
   57.6415   28.6571   52.7533 H   0  0  0  0  0  0  0  0  0  0  0  0
   56.1530   30.2310   52.6300 C   0  0  0  0  0  0  0  0  0  0  0  0
   57.1500   31.2620   51.6190 Cl  0  0  0  0  0  0  0  0  0  0  0  0
   54.8750   30.6530   53.0160 C   0  0  0  0  0  0  0  0  0  0  0  0
   54.4919   31.6250   52.6719 H   0  0  0  0  0  0  0  0  0  0  0  0
   51.7780   31.2450   52.0850 C   0  0  0  0  0  0  0  0  0  0  0  0
   52.0940   30.0000   50.9860 S   0  0  0  0  0  0  0  0  0  0  0  0
   51.3950   30.8340   49.7050 C   0  0  0  0  0  0  0  0  0  0  0  0
   51.3290   30.3980   48.5280 O   0  0  0  0  0  0  0  0  0  0  0  0
   50.8980   32.0310   50.0770 N   0  0  0  0  0  0  0  0  0  0  0  0
   51.1000   32.2540   51.4030 C   0  0  0  0  0  0  0  0  0  0  0  0
   50.6530   33.4160   52.0210 O   0  0  0  0  0  0  0  0  0  0  0  0
  1  2  1  0
  2  3  2  0
  3  4  1  0
  3  5  1  0
  5  6  2  0
  6  7  1  0
  6  8  1  0
  8  9  1  0
  8 10  2  0
 10 11  1  0
 10 12  1  0
 12 13  1  0
 12 14  2  0
 14 15  1  0
  2 16  1  0
 16 17  1  0
 17 18  1  0
 18 19  2  0
 18 20  1  0
 20 21  1  0
 21 22  1  0
 14  5  1  0
 21 16  2  0
M  CHG  2  20  -1  22  -1
M  END
>  <UniqueID>  (46) 
39

>  <SMILES>  (46) 
O=c1[n-]c([O-])c(/C=C\c2cccc(Cl)c2)s1

>  <Energy>  (46) 
62.3481391242881

>  <Genealogy>  (46) 
O=c1[n-]c([O-])c(C=Cc2cccc(Cl)c2)s1 (protonated)
O=c1[n-]c([O-])c(/C=C\c2cccc(Cl)c2)s1 (cis-trans isomerization)
O=c1[n-]c([O-])c(/C=C\c2cccc(Cl)c2)s1 (3D coordinates assigned)
O=c1[n-]c([O-])c(/C=C\c2cccc(Cl)c2)s1 (optimized conformer: 62.3481391242881 kcal/mol)

>  <smiles>  (46) 
O=c1[nH]c(O)c(C=Cc2cccc(Cl)c2)s1

>  <score_type>  (46) 
oracle

>  <origin>  (46) 
adg

>  <m_score__min__energy>  (46) 
-13.31

>  <m_primary>  (46) 
energy

$$$$
46:0
     RDKit          3D

 44 47  0  0  1  0  0  0  0  0999 V2000
   55.7420   29.9150   44.8450 O   0  0  0  0  0  0  0  0  0  0  0  0
   57.0420   29.7810   44.7650 C   0  0  0  0  0  0  0  0  0  0  0  0
   57.4500   28.5710   44.2270 N   0  0  0  0  0  0  0  0  0  0  0  0
   57.7570   27.5020   44.7830 C   0  0  0  0  0  0  0  0  0  0  0  0
   58.4050   27.4890   45.9860 C   0  0  0  0  0  0  0  0  0  0  0  0
   58.7480   26.3480   46.6410 C   0  0  0  0  0  0  0  0  0  0  0  0
   58.4000   25.1430   46.0150 C   0  0  0  0  0  0  0  0  0  0  0  0
   57.7460   25.1220   44.8030 C   0  0  0  0  0  0  0  0  0  0  0  0
   57.3760   23.8420   44.2120 C   0  0  0  0  0  0  0  0  0  0  0  0
   58.1440   22.6930   44.3950 C   0  0  0  0  0  0  0  0  0  0  0  0
   57.7860   21.4800   43.8220 C   0  0  0  0  0  0  0  0  0  0  0  0
   56.6500   21.3750   43.0480 C   0  0  0  0  0  0  0  0  0  0  0  0
   55.9180   22.4830   42.8780 N   0  0  0  0  0  0  0  0  0  0  0  0
   56.2480   23.6680   43.4250 C   0  0  0  0  0  0  0  0  0  0  0  0
   57.4540   26.3020   44.2410 N   0  0  0  0  0  0  0  0  0  0  0  0
   57.7720   30.9080   45.2460 C   0  0  0  0  0  0  0  0  0  0  0  0
   58.7710   30.6450   46.2040 C   0  0  0  0  0  0  0  0  0  0  0  0
   59.5520   31.6130   46.7420 C   0  0  0  0  0  0  0  0  0  0  0  0
   59.4040   32.9380   46.3690 C   0  0  0  0  0  0  0  0  0  0  0  0
   60.2480   33.9110   46.9430 N   0  0  0  0  0  0  0  0  0  0  0  0
   61.4770   33.6950   47.2780 C   0  0  0  0  0  0  0  0  0  0  0  0
   61.8230   33.5170   48.6200 C   0  0  0  0  0  0  0  0  0  0  0  0
   63.1670   33.2920   48.9280 C   0  0  0  0  0  0  0  0  0  0  0  0
   64.0820   33.2510   47.9590 N   0  0  0  0  0  0  0  0  0  0  0  0
   63.6980   33.4290   46.6710 C   0  0  0  0  0  0  0  0  0  0  0  0
   62.4300   33.6490   46.3020 N   0  0  0  0  0  0  0  0  0  0  0  0
   58.4270   33.2040   45.4350 C   0  0  0  0  0  0  0  0  0  0  0  0
   57.6210   32.2230   44.8750 C   0  0  0  0  0  0  0  0  0  0  0  0
   58.6628   28.4529   46.4491 H   0  0  0  0  0  0  0  0  0  0  0  0
   59.2700   26.3693   47.6090 H   0  0  0  0  0  0  0  0  0  0  0  0
   58.6554   24.1911   46.5036 H   0  0  0  0  0  0  0  0  0  0  0  0
   59.0556   22.7487   45.0081 H   0  0  0  0  0  0  0  0  0  0  0  0
   58.4156   20.5933   43.9874 H   0  0  0  0  0  0  0  0  0  0  0  0
   56.3569   20.4195   42.5887 H   0  0  0  0  0  0  0  0  0  0  0  0
   55.5956   24.5341   43.2398 H   0  0  0  0  0  0  0  0  0  0  0  0
   56.9580   26.3390   43.3210 H   0  0  0  0  0  0  0  0  0  0  0  0
   58.9241   29.6058   46.5304 H   0  0  0  0  0  0  0  0  0  0  0  0
   60.3151   31.3418   47.4864 H   0  0  0  0  0  0  0  0  0  0  0  0
   61.0594   33.5530   49.4110 H   0  0  0  0  0  0  0  0  0  0  0  0
   63.4718   33.1480   49.9751 H   0  0  0  0  0  0  0  0  0  0  0  0
   65.1160   33.0870   48.1320 H   0  0  0  0  0  0  0  0  0  0  0  0
   64.4692   33.3906   45.8876 H   0  0  0  0  0  0  0  0  0  0  0  0
   58.2783   34.2465   45.1171 H   0  0  0  0  0  0  0  0  0  0  0  0
   56.8585   32.4986   44.1316 H   0  0  0  0  0  0  0  0  0  0  0  0
  1  2  2  0
  2  3  1  0
  3  4  2  0
  4  5  1  0
  5  6  2  0
  6  7  1  0
  7  8  2  0
  8  9  1  0
  9 10  2  0
 10 11  1  0
 11 12  2  0
 12 13  1  0
 13 14  2  0
  8 15  1  0
  2 16  1  0
 16 17  2  0
 17 18  1  0
 18 19  2  0
 19 20  1  0
 20 21  2  0
 21 22  1  0
 22 23  2  0
 23 24  1  0
 24 25  1  0
 25 26  2  0
 19 27  1  0
 27 28  2  0
 15  4  1  0
 28 16  1  0
 14  9  1  0
 26 21  1  0
  5 29  1  0
  6 30  1  0
  7 31  1  0
 10 32  1  0
 11 33  1  0
 12 34  1  0
 14 35  1  0
 15 36  1  0
 17 37  1  0
 18 38  1  0
 22 39  1  0
 23 40  1  0
 24 41  1  0
 25 42  1  0
 27 43  1  0
 28 44  1  0
M  END
>  <smiles>  (47) 
O=C(N=c1cccc(-c2cccnc2)[nH]1)c1ccc(N=c2cc[nH]cn2)cc1

>  <score_type>  (47) 
oracle

>  <origin>  (47) 
adg

>  <m_score__min__energy>  (47) 
-9.5999999999999996

>  <m_primary>  (47) 
energy

$$$$
47:0
     RDKit          3D

 46 49  0  0  0  0  0  0  0  0999 V2000
   58.1581   31.6072   48.2502 H   0  0  0  0  0  0  0  0  0  0  0  0
   58.8940   30.7940   48.1660 C   0  0  0  0  0  0  0  0  0  0  0  0
   58.7110   29.5280   48.5890 N   0  0  0  0  0  0  0  0  0  0  0  0
   59.8130   28.8490   48.3120 N   0  0  0  0  0  0  0  0  0  0  0  0
   60.0090   27.4490   48.6600 C   0  0  0  0  0  0  0  0  0  0  0  0
   60.0240   27.3419   49.7547 H   0  0  0  0  0  0  0  0  0  0  0  0
   59.1861   26.8491   48.2441 H   0  0  0  0  0  0  0  0  0  0  0  0
   60.9650   27.0982   48.2441 H   0  0  0  0  0  0  0  0  0  0  0  0
   60.7170   29.6560   47.7250 C   0  0  0  0  0  0  0  0  0  0  0  0
   61.7260   29.3665   47.3962 H   0  0  0  0  0  0  0  0  0  0  0  0
   60.1550   30.9080   47.6090 C   0  0  0  0  0  0  0  0  0  0  0  0
   60.8070   32.1460   47.0590 C   0  0  1  0  0  0  0  0  0  0  0  0
   60.9052   31.9906   45.9745 H   0  0  0  0  0  0  0  0  0  0  0  0
   60.0030   33.3170   47.3850 N   0  0  0  0  0  0  0  0  0  0  0  0
   58.8430   33.6970   46.6220 C   0  0  0  0  0  0  0  0  0  0  0  0
   58.0650   34.5810   47.0710 O   0  0  0  0  0  0  0  0  0  0  0  0
   58.5160   33.0660   45.3330 C   0  0  0  0  0  0  0  0  0  0  0  0
   57.9780   31.8180   45.2760 N   0  0  0  0  0  0  0  0  0  0  0  0
   57.7190   31.4450   44.0040 C   0  0  0  0  0  0  0  0  0  0  0  0
   57.2100   30.2990   43.6640 N   0  0  0  0  0  0  0  0  0  0  0  0
   55.9450   29.7710   44.0930 C   0  0  0  0  0  0  0  0  0  0  0  0
   54.8790   30.0950   43.5060 O   0  0  0  0  0  0  0  0  0  0  0  0
   55.8660   28.9100   45.2350 N   0  0  0  0  0  0  0  0  0  0  0  0
   56.7300   27.8070   45.5480 C   0  0  0  0  0  0  0  0  0  0  0  0
   58.1240   27.8770   45.3660 C   0  0  0  0  0  0  0  0  0  0  0  0
   58.5804   28.8016   44.9828 H   0  0  0  0  0  0  0  0  0  0  0  0
   58.9310   26.7770   45.6700 C   0  0  0  0  0  0  0  0  0  0  0  0
   60.0208   26.8415   45.5349 H   0  0  0  0  0  0  0  0  0  0  0  0
   58.3560   25.5960   46.1450 C   0  0  0  0  0  0  0  0  0  0  0  0
   58.9939   24.7367   46.3991 H   0  0  0  0  0  0  0  0  0  0  0  0
   56.9710   25.5070   46.2970 C   0  0  0  0  0  0  0  0  0  0  0  0
   56.5182   24.5725   46.6600 H   0  0  0  0  0  0  0  0  0  0  0  0
   56.1570   26.6030   45.9890 C   0  0  0  0  0  0  0  0  0  0  0  0
   54.7780   26.4940   46.1280 O   0  0  0  0  0  0  0  0  0  0  0  0
   58.1180   32.6470   42.9040 S   0  0  0  0  0  0  0  0  0  0  0  0
   58.6580   33.7010   44.0990 C   0  0  0  0  0  0  0  0  0  0  0  0
   59.0540   34.7142   43.9358 H   0  0  0  0  0  0  0  0  0  0  0  0
   60.6750   34.2120   48.3180 C   0  0  0  0  0  0  0  0  0  0  0  0
   60.0422   34.3908   49.1998 H   0  0  0  0  0  0  0  0  0  0  0  0
   60.8804   35.1914   47.8612 H   0  0  0  0  0  0  0  0  0  0  0  0
   61.9620   33.5030   48.7240 C   0  0  0  0  0  0  0  0  0  0  0  0
   61.8603   33.0738   49.7317 H   0  0  0  0  0  0  0  0  0  0  0  0
   62.8140   34.1983   48.7501 H   0  0  0  0  0  0  0  0  0  0  0  0
   62.1750   32.3970   47.6960 C   0  0  0  0  0  0  0  0  0  0  0  0
   62.5414   31.4836   48.1873 H   0  0  0  0  0  0  0  0  0  0  0  0
   62.9238   32.6846   46.9433 H   0  0  0  0  0  0  0  0  0  0  0  0
  1  2  1  0
  2  3  2  0
  3  4  1  0
  4  5  1  0
  5  6  1  0
  5  7  1  0
  5  8  1  0
  4  9  1  0
  9 10  1  0
  9 11  2  0
 11 12  1  0
 12 13  1  6
 12 14  1  0
 14 15  1  0
 15 16  2  0
 15 17  1  0
 17 18  1  0
 18 19  1  0
 19 20  2  0
 20 21  1  0
 21 22  2  0
 21 23  1  0
 23 24  1  0
 24 25  2  0
 25 26  1  0
 25 27  1  0
 27 28  1  0
 27 29  2  0
 29 30  1  0
 29 31  1  0
 31 32  1  0
 31 33  2  0
 33 34  1  0
 19 35  1  0
 35 36  1  0
 36 37  1  0
 14 38  1  0
 38 39  1  0
 38 40  1  0
 38 41  1  0
 41 42  1  0
 41 43  1  0
 41 44  1  0
 44 45  1  0
 44 46  1  0
 11  2  1  0
 44 12  1  0
 36 17  2  0
 33 24  1  0
M  CHG  3  18  -1  23  -1  34  -1
M  END
>  <UniqueID>  (48) 
40

>  <SMILES>  (48) 
Cn1cc([C@@H]2CCCN2C(=O)c2cs/c(=N/C(=O)[N-]c3ccccc3[O-])[n-]2)cn1

>  <Energy>  (48) 
116.90438096580405

>  <Genealogy>  (48) 
Cn1cc(C2CCCN2C(=O)c2csc(=NC(=O)[N-]c3ccccc3[O-])[n-]2)cn1 (protonated)
Cn1cc([C@@H]2CCCN2C(=O)c2csc(=NC(=O)[N-]c3ccccc3[O-])[n-]2)cn1 (chirality)
Cn1cc([C@@H]2CCCN2C(=O)c2cs/c(=N/C(=O)[N-]c3ccccc3[O-])[n-]2)cn1 (cis-trans isomerization)
Cn1cc([C@@H]2CCCN2C(=O)c2cs/c(=N/C(=O)[N-]c3ccccc3[O-])[n-]2)cn1 (3D coordinates assigned)
Cn1cc([C@@H]2CCCN2C(=O)c2cs/c(=N/C(=O)[N-]c3ccccc3[O-])[n-]2)cn1 (nonaromatic ring conformer: 116.90438096580405 kcal/mol)

>  <smiles>  (48) 
Cn1cc(C2CCCN2C(=O)c2csc(=NC(=O)Nc3ccccc3O)[nH]2)cn1

>  <score_type>  (48) 
oracle

>  <origin>  (48) 
adg

>  <m_score__min__energy>  (48) 
-15.609999999999999

>  <m_primary>  (48) 
energy

$$$$
48:0
     RDKit          3D

 34 35  0  0  0  0  0  0  0  0999 V2000
   65.5700   32.6430   50.1260 C   0  0  0  0  0  0  0  0  0  0  0  0
   64.8970   33.3740   49.1390 O   0  0  0  0  0  0  0  0  0  0  0  0
   63.5380   33.3450   48.9530 C   0  0  0  0  0  0  0  0  0  0  0  0
   62.6590   32.9450   49.9180 N   0  0  0  0  0  0  0  0  0  0  0  0
   61.3330   32.9430   49.6610 C   0  0  0  0  0  0  0  0  0  0  0  0
   60.4470   32.5260   50.6730 O   0  0  0  0  0  0  0  0  0  0  0  0
   59.5170   33.4870   51.1400 C   0  0  0  0  0  0  0  0  0  0  0  0
   60.8320   33.3300   48.4600 N   0  0  0  0  0  0  0  0  0  0  0  0
   61.7020   33.7230   47.5120 C   0  0  0  0  0  0  0  0  0  0  0  0
   61.3450   34.1120   46.3340 N   0  0  0  0  0  0  0  0  0  0  0  0
   59.7300   34.6960   46.1530 S   0  0  0  0  0  0  0  0  0  0  0  0
   59.1870   35.0020   47.5260 O   0  0  0  0  0  0  0  0  0  0  0  0
   59.6420   35.8620   45.2400 O   0  0  0  0  0  0  0  0  0  0  0  0
   58.7590   33.3790   45.5330 C   0  0  0  0  0  0  0  0  0  0  0  0
   58.1810   33.4090   44.2830 C   0  0  0  0  0  0  0  0  0  0  0  0
   57.4260   32.3400   43.8480 C   0  0  0  0  0  0  0  0  0  0  0  0
   57.2050   31.2090   44.6050 C   0  0  0  0  0  0  0  0  0  0  0  0
   56.4150   30.1330   44.1050 N   0  0  0  0  0  0  0  0  0  0  0  0
   56.6060   29.7860   42.9100 O   0  0  0  0  0  0  0  0  0  0  0  0
   55.4960   29.5070   44.8790 O   0  0  0  0  0  0  0  0  0  0  0  0
   57.7850   31.1770   45.8600 C   0  0  0  0  0  0  0  0  0  0  0  0
   58.5340   32.2380   46.2910 C   0  0  0  0  0  0  0  0  0  0  0  0
   63.0390   33.7310   47.7560 N   0  0  0  0  0  0  0  0  0  0  0  0
   65.2512   32.9893   51.1202 H   0  0  0  0  0  0  0  0  0  0  0  0
   65.3330   31.5744   50.0165 H   0  0  0  0  0  0  0  0  0  0  0  0
   66.6545   32.7911   50.0165 H   0  0  0  0  0  0  0  0  0  0  0  0
   59.5140   33.4901   52.2400 H   0  0  0  0  0  0  0  0  0  0  0  0
   59.8028   34.4832   50.7713 H   0  0  0  0  0  0  0  0  0  0  0  0
   58.5120   33.2340   50.7713 H   0  0  0  0  0  0  0  0  0  0  0  0
   59.8080   33.3310   48.2550 H   0  0  0  0  0  0  0  0  0  0  0  0
   58.3215   34.2848   43.6324 H   0  0  0  0  0  0  0  0  0  0  0  0
   56.9769   32.3924   42.8452 H   0  0  0  0  0  0  0  0  0  0  0  0
   57.6446   30.3009   46.5101 H   0  0  0  0  0  0  0  0  0  0  0  0
   58.9827   32.1838   47.2938 H   0  0  0  0  0  0  0  0  0  0  0  0
  1  2  1  0
  2  3  1  0
  3  4  1  0
  4  5  2  0
  5  6  1  0
  6  7  1  0
  5  8  1  0
  8  9  1  0
  9 10  2  3
 10 11  1  0
 11 12  2  0
 11 13  2  0
 11 14  1  0
 14 15  2  0
 15 16  1  0
 16 17  2  0
 17 18  1  0
 18 19  2  0
 18 20  1  0
 17 21  1  0
 21 22  2  0
  9 23  1  0
 23  3  2  0
 22 14  1  0
  1 24  1  0
  1 25  1  0
  1 26  1  0
  7 27  1  0
  7 28  1  0
  7 29  1  0
  8 30  1  0
 15 31  1  0
 16 32  1  0
 21 33  1  0
 22 34  1  0
M  CHG  2  18   1  20  -1
M  END
>  <smiles>  (49) 
COc1nc(OC)[nH]c(=NS(=O)(=O)c2ccc([N+](=O)[O-])cc2)n1

>  <score_type>  (49) 
oracle

>  <origin>  (49) 
adg

>  <m_score__min__energy>  (49) 
-7.96

>  <m_primary>  (49) 
energy

$$$$
49:0
     RDKit          3D

 52 54  0  0  0  0  0  0  0  0999 V2000
   54.9530   26.3610   46.0480 N   0  0  0  0  0  0  0  0  0  0  0  0
   56.3280   26.0000   46.1590 C   0  0  0  0  0  0  0  0  0  0  0  0
   56.6830   25.1350   47.0030 O   0  0  0  0  0  0  0  0  0  0  0  0
   57.3540   26.6820   45.3060 C   0  0  0  0  0  0  0  0  0  0  0  0
   57.8620   27.9790   45.9700 C   0  0  1  0  0  0  0  0  0  0  0  0
   59.2620   27.8540   46.3780 N   0  0  0  0  0  0  0  0  0  0  0  0
   59.7700   28.0080   47.7100 C   0  0  0  0  0  0  0  0  0  0  0  0
   59.7510   27.0140   48.4840 O   0  0  0  0  0  0  0  0  0  0  0  0
   60.2980   29.2920   48.2090 C   0  0  0  0  0  0  0  0  0  0  0  0
   61.0760   29.3390   49.3750 C   0  0  0  0  0  0  0  0  0  0  0  0
   61.5670   30.5600   49.8430 C   0  0  0  0  0  0  0  0  0  0  0  0
   61.2720   31.7420   49.1590 C   0  0  0  0  0  0  0  0  0  0  0  0
   60.4740   31.7190   48.0090 C   0  0  0  0  0  0  0  0  0  0  0  0
   60.2060   32.9400   47.3700 O   0  0  0  0  0  0  0  0  0  0  0  0
   59.1410   33.8410   47.6920 C   0  0  0  0  0  0  0  0  0  0  0  0
   57.8240   33.3010   47.0850 C   0  0  0  0  0  0  0  0  0  0  0  0
   57.5110   33.8520   45.6770 C   0  0  0  0  0  0  0  0  0  0  0  0
   58.7870   34.1910   44.9010 C   0  0  0  0  0  0  0  0  0  0  0  0
   59.6290   35.2610   45.6250 C   0  0  0  0  0  0  0  0  0  0  0  0
   59.4490   35.2510   47.1560 C   0  0  0  0  0  0  0  0  0  0  0  0
   59.9850   30.4840   47.5380 C   0  0  0  0  0  0  0  0  0  0  0  0
   57.6970   29.1790   45.0490 C   0  0  0  0  0  0  0  0  0  0  0  0
   58.8490   29.9160   44.7050 C   0  0  0  0  0  0  0  0  0  0  0  0
   58.7610   31.0400   43.8830 C   0  0  0  0  0  0  0  0  0  0  0  0
   57.5250   31.4530   43.3930 C   0  0  0  0  0  0  0  0  0  0  0  0
   56.3710   30.7450   43.7250 C   0  0  0  0  0  0  0  0  0  0  0  0
   56.4360   29.6140   44.5500 C   0  0  0  0  0  0  0  0  0  0  0  0
   55.2340   28.9670   44.8440 O   0  0  0  0  0  0  0  0  0  0  0  0
   54.5330   27.0750   46.6820 H   0  0  0  0  0  0  0  0  0  0  0  0
   58.2040   26.0005   45.1539 H   0  0  0  0  0  0  0  0  0  0  0  0
   56.8882   26.9434   44.3444 H   0  0  0  0  0  0  0  0  0  0  0  0
   57.2468   28.1418   46.8672 H   0  0  0  0  0  0  0  0  0  0  0  0
   61.3001   28.4116   49.9225 H   0  0  0  0  0  0  0  0  0  0  0  0
   62.1867   30.5910   50.7513 H   0  0  0  0  0  0  0  0  0  0  0  0
   61.6702   32.6990   49.5273 H   0  0  0  0  0  0  0  0  0  0  0  0
   59.0359   33.9117   48.7847 H   0  0  0  0  0  0  0  0  0  0  0  0
   57.8966   32.2053   47.0197 H   0  0  0  0  0  0  0  0  0  0  0  0
   57.0091   33.6321   47.7455 H   0  0  0  0  0  0  0  0  0  0  0  0
   56.9442   33.0942   45.1162 H   0  0  0  0  0  0  0  0  0  0  0  0
   56.9270   34.7767   45.7943 H   0  0  0  0  0  0  0  0  0  0  0  0
   59.3901   33.2777   44.7906 H   0  0  0  0  0  0  0  0  0  0  0  0
   58.4944   34.5920   43.9194 H   0  0  0  0  0  0  0  0  0  0  0  0
   60.6903   35.0818   45.3978 H   0  0  0  0  0  0  0  0  0  0  0  0
   59.2858   36.2420   45.2647 H   0  0  0  0  0  0  0  0  0  0  0  0
   60.3754   35.6145   47.6247 H   0  0  0  0  0  0  0  0  0  0  0  0
   58.5966   35.9013   47.4018 H   0  0  0  0  0  0  0  0  0  0  0  0
   59.3534   30.4543   46.6379 H   0  0  0  0  0  0  0  0  0  0  0  0
   59.8300   29.6006   45.0898 H   0  0  0  0  0  0  0  0  0  0  0  0
   59.6703   31.6011   43.6215 H   0  0  0  0  0  0  0  0  0  0  0  0
   57.4590   32.3384   42.7436 H   0  0  0  0  0  0  0  0  0  0  0  0
   55.3979   31.0780   43.3348 H   0  0  0  0  0  0  0  0  0  0  0  0
   55.1360   27.9680   44.9520 H   0  0  0  0  0  0  0  0  0  0  0  0
  1  2  1  0
  2  3  2  0
  2  4  1  0
  4  5  1  0
  5  6  1  0
  6  7  1  0
  7  8  2  0
  7  9  1  0
  9 10  2  0
 10 11  1  0
 11 12  2  0
 12 13  1  0
 13 14  1  0
 14 15  1  0
 15 16  1  0
 16 17  1  0
 17 18  1  0
 18 19  1  0
 19 20  1  0
 13 21  2  0
  5 22  1  0
 22 23  2  0
 23 24  1  0
 24 25  2  0
 25 26  1  0
 26 27  2  0
 27 28  1  0
 21  9  1  0
 27 22  1  0
 20 15  1  0
  1 29  1  0
  4 30  1  0
  4 31  1  0
  5 32  1  1
 10 33  1  0
 11 34  1  0
 12 35  1  0
 15 36  1  0
 16 37  1  0
 16 38  1  0
 17 39  1  0
 17 40  1  0
 18 41  1  0
 18 42  1  0
 19 43  1  0
 19 44  1  0
 20 45  1  0
 20 46  1  0
 21 47  1  0
 23 48  1  0
 24 49  1  0
 25 50  1  0
 26 51  1  0
 28 52  1  0
M  CHG  2   1  -1   6  -1
M  END
>  <UniqueID>  (50) 
41

>  <SMILES>  (50) 
[NH-]C(=O)C[C@@H]([N-]C(=O)c1cccc(OC2CCCCC2)c1)c1ccccc1O

>  <Energy>  (50) 
59.78225212256936

>  <Genealogy>  (50) 
[NH-]C(=O)CC([N-]C(=O)c1cccc(OC2CCCCC2)c1)c1ccccc1O (protonated)
[NH-]C(=O)C[C@@H]([N-]C(=O)c1cccc(OC2CCCCC2)c1)c1ccccc1O (chirality)
[NH-]C(=O)C[C@@H]([N-]C(=O)c1cccc(OC2CCCCC2)c1)c1ccccc1O (3D coordinates assigned)
[NH-]C(=O)C[C@@H]([N-]C(=O)c1cccc(OC2CCCCC2)c1)c1ccccc1O (nonaromatic ring conformer: 59.78225212256936 kcal/mol)

>  <smiles>  (50) 
NC(=O)CC(NC(=O)c1cccc(OC2CCCCC2)c1)c1ccccc1O

>  <score_type>  (50) 
oracle

>  <origin>  (50) 
adg

>  <m_score__min__energy>  (50) 
-14.289999999999999

>  <m_primary>  (50) 
energy

$$$$
50:0
     RDKit          3D

 80 84  0  0  0  0  0  0  0  0999 V2000
   66.1350   32.4150   50.1480 C   0  0  0  0  0  0  0  0  0  0  0  0
   65.3650   33.4300   50.8810 N   0  0  0  0  0  0  0  0  0  0  0  0
   66.0930   34.4300   51.6740 C   0  0  0  0  0  0  0  0  0  0  0  0
   63.9120   33.4530   50.8040 C   0  0  0  0  0  0  0  0  0  0  0  0
   63.1270   33.4820   51.9750 C   0  0  0  0  0  0  0  0  0  0  0  0
   61.7340   33.4940   51.9030 C   0  0  0  0  0  0  0  0  0  0  0  0
   61.0940   33.4700   50.6640 C   0  0  0  0  0  0  0  0  0  0  0  0
   61.8400   33.4310   49.4740 C   0  0  0  0  0  0  0  0  0  0  0  0
   61.1260   33.3880   48.1690 C   0  0  0  0  0  0  0  0  0  0  0  0
   61.7940   33.5130   47.1050 O   0  0  0  0  0  0  0  0  0  0  0  0
   59.6970   33.2060   48.0950 N   0  0  0  0  0  0  0  0  0  0  0  0
   58.9350   33.3460   46.8840 C   0  0  0  0  0  0  0  0  0  0  0  0
   59.1440   34.4690   46.0710 C   0  0  0  0  0  0  0  0  0  0  0  0
   58.4400   34.6160   44.8750 C   0  0  0  0  0  0  0  0  0  0  0  0
   57.5420   33.6300   44.4640 C   0  0  0  0  0  0  0  0  0  0  0  0
   57.3570   32.4750   45.2410 C   0  0  0  0  0  0  0  0  0  0  0  0
   56.4560   31.4360   44.8320 N   0  0  0  0  0  0  0  0  0  0  0  0
   56.8190   30.2610   44.0930 C   0  0  0  0  0  0  0  0  0  0  0  0
   56.3610   30.1110   42.9290 O   0  0  0  0  0  0  0  0  0  0  0  0
   57.6660   29.1990   44.6850 C   0  0  0  0  0  0  0  0  0  0  0  0
   57.7740   27.9420   44.0640 C   0  0  0  0  0  0  0  0  0  0  0  0
   58.5680   26.9420   44.6310 C   0  0  0  0  0  0  0  0  0  0  0  0
   59.2660   27.1870   45.8140 C   0  0  0  0  0  0  0  0  0  0  0  0
   59.1800   28.4400   46.4390 C   0  0  0  0  0  0  0  0  0  0  0  0
   59.8740   28.6790   47.6740 N   0  0  0  0  0  0  0  0  0  0  0  0
   60.0530   30.0570   48.1600 C   0  0  0  0  0  0  0  0  0  0  0  0
   61.2570   30.1470   49.1070 C   0  0  0  0  0  0  0  0  0  0  0  0
   61.1550   29.1500   50.2920 C   0  0  0  0  0  0  0  0  0  0  0  0
   60.4430   29.8040   51.5020 C   0  0  0  0  0  0  0  0  0  0  0  0
   59.0220   29.2330   51.7730 C   0  0  0  0  0  0  0  0  0  0  0  0
   57.9090   30.0740   51.2750 N   0  0  0  0  0  0  0  0  0  0  0  0
   58.3410   31.2820   50.5540 C   0  0  0  0  0  0  0  0  0  0  0  0
   57.7710   32.5000   51.2730 C   0  0  0  0  0  0  0  0  0  0  0  0
   57.1130   31.9750   52.5340 C   0  0  0  0  0  0  0  0  0  0  0  0
   56.9540   30.4810   52.3120 C   0  0  0  0  0  0  0  0  0  0  0  0
   60.4730   27.8100   49.8910 C   0  0  0  0  0  0  0  0  0  0  0  0
   60.5060   27.5580   48.3810 C   0  0  0  0  0  0  0  0  0  0  0  0
   58.3850   29.4450   45.8680 C   0  0  0  0  0  0  0  0  0  0  0  0
   58.0420   32.3450   46.4570 C   0  0  0  0  0  0  0  0  0  0  0  0
   63.2470   33.4410   49.5550 C   0  0  0  0  0  0  0  0  0  0  0  0
   66.6397   31.7498   50.8641 H   0  0  0  0  0  0  0  0  0  0  0  0
   65.4553   31.8250   49.5157 H   0  0  0  0  0  0  0  0  0  0  0  0
   66.8863   32.9106   49.5157 H   0  0  0  0  0  0  0  0  0  0  0  0
   65.9452   34.2270   52.7450 H   0  0  0  0  0  0  0  0  0  0  0  0
   67.1655   34.3772   51.4354 H   0  0  0  0  0  0  0  0  0  0  0  0
   65.7133   35.4344   51.4354 H   0  0  0  0  0  0  0  0  0  0  0  0
   63.6197   33.4953   52.9584 H   0  0  0  0  0  0  0  0  0  0  0  0
   61.1379   33.5225   52.8270 H   0  0  0  0  0  0  0  0  0  0  0  0
   59.9950   33.4817   50.6181 H   0  0  0  0  0  0  0  0  0  0  0  0
   59.1800   32.8800   48.9350 H   0  0  0  0  0  0  0  0  0  0  0  0
   59.8673   35.2389   46.3777 H   0  0  0  0  0  0  0  0  0  0  0  0
   58.5933   35.5114   44.2547 H   0  0  0  0  0  0  0  0  0  0  0  0
   56.9774   33.7579   43.5286 H   0  0  0  0  0  0  0  0  0  0  0  0
   57.2310   27.7452   43.1278 H   0  0  0  0  0  0  0  0  0  0  0  0
   58.6431   25.9588   44.1434 H   0  0  0  0  0  0  0  0  0  0  0  0
   59.8862   26.3946   46.2583 H   0  0  0  0  0  0  0  0  0  0  0  0
   60.2187   30.7240   47.3011 H   0  0  0  0  0  0  0  0  0  0  0  0
   59.1486   30.3583   48.7088 H   0  0  0  0  0  0  0  0  0  0  0  0
   62.1716   29.9258   48.5373 H   0  0  0  0  0  0  0  0  0  0  0  0
   61.2783   31.1639   49.5258 H   0  0  0  0  0  0  0  0  0  0  0  0
   62.1839   28.8983   50.5887 H   0  0  0  0  0  0  0  0  0  0  0  0
   61.0598   29.6407   52.3980 H   0  0  0  0  0  0  0  0  0  0  0  0
   60.3215   30.8714   51.2657 H   0  0  0  0  0  0  0  0  0  0  0  0
   58.9506   28.2485   51.2876 H   0  0  0  0  0  0  0  0  0  0  0  0
   58.9101   29.1872   52.8663 H   0  0  0  0  0  0  0  0  0  0  0  0
   59.4396   31.3363   50.5446 H   0  0  0  0  0  0  0  0  0  0  0  0
   57.9798   31.2523   49.5154 H   0  0  0  0  0  0  0  0  0  0  0  0
   58.5766   33.2044   51.5278 H   0  0  0  0  0  0  0  0  0  0  0  0
   57.0518   33.0400   50.6397 H   0  0  0  0  0  0  0  0  0  0  0  0
   57.7497   32.1686   53.4099 H   0  0  0  0  0  0  0  0  0  0  0  0
   56.1476   32.4656   52.7271 H   0  0  0  0  0  0  0  0  0  0  0  0
   57.1642   29.9400   53.2464 H   0  0  0  0  0  0  0  0  0  0  0  0
   55.9258   30.2480   51.9981 H   0  0  0  0  0  0  0  0  0  0  0  0
   60.9950   26.9844   50.3969 H   0  0  0  0  0  0  0  0  0  0  0  0
   59.4174   27.8710   50.1944 H   0  0  0  0  0  0  0  0  0  0  0  0
   61.5505   27.4603   48.0501 H   0  0  0  0  0  0  0  0  0  0  0  0
   59.9569   26.6318   48.1560 H   0  0  0  0  0  0  0  0  0  0  0  0
   58.3237   30.4323   46.3491 H   0  0  0  0  0  0  0  0  0  0  0  0
   57.8806   31.4544   47.0821 H   0  0  0  0  0  0  0  0  0  0  0  0
   63.8402   33.4395   48.6286 H   0  0  0  0  0  0  0  0  0  0  0  0
  1  2  1  0
  2  3  1  0
  2  4  1  0
  4  5  2  0
  5  6  1  0
  6  7  2  0
  7  8  1  0
  8  9  1  0
  9 10  2  0
  9 11  1  0
 11 12  1  0
 12 13  2  0
 13 14  1  0
 14 15  2  0
 15 16  1  0
 16 17  1  0
 17 18  1  0
 18 19  2  0
 18 20  1  0
 20 21  2  0
 21 22  1  0
 22 23  2  0
 23 24  1  0
 24 25  1  0
 25 26  1  0
 26 27  1  0
 27 28  1  0
 28 29  1  0
 29 30  1  0
 30 31  1  0
 31 32  1  0
 32 33  1  0
 33 34  1  0
 34 35  1  0
 28 36  1  0
 36 37  1  0
 24 38  2  0
 16 39  2  0
  8 40  2  0
 40  4  1  0
 39 12  1  0
 38 20  1  0
 37 25  1  0
 35 31  1  0
  1 41  1  0
  1 42  1  0
  1 43  1  0
  3 44  1  0
  3 45  1  0
  3 46  1  0
  5 47  1  0
  6 48  1  0
  7 49  1  0
 11 50  1  0
 13 51  1  0
 14 52  1  0
 15 53  1  0
 21 54  1  0
 22 55  1  0
 23 56  1  0
 26 57  1  0
 26 58  1  0
 27 59  1  0
 27 60  1  0
 28 61  1  0
 29 62  1  0
 29 63  1  0
 30 64  1  0
 30 65  1  0
 32 66  1  0
 32 67  1  0
 33 68  1  0
 33 69  1  0
 34 70  1  0
 34 71  1  0
 35 72  1  0
 35 73  1  0
 36 74  1  0
 36 75  1  0
 37 76  1  0
 37 77  1  0
 38 78  1  0
 39 79  1  0
 40 80  1  0
M  CHG  1  17  -1
M  END
>  <UniqueID>  (51) 
42

>  <SMILES>  (51) 
CN(C)c1cccc(C(=O)Nc2cccc([N-]C(=O)c3cccc(N4CCC(CCN5CCCC5)CC4)c3)c2)c1

>  <Energy>  (51) 
113.85510132335324

>  <Genealogy>  (51) 
CN(C)c1cccc(C(=O)Nc2cccc([N-]C(=O)c3cccc(N4CCC(CCN5CCCC5)CC4)c3)c2)c1 (protonated)
CN(C)c1cccc(C(=O)Nc2cccc([N-]C(=O)c3cccc(N4CCC(CCN5CCCC5)CC4)c3)c2)c1 (3D coordinates assigned)
CN(C)c1cccc(C(=O)Nc2cccc([N-]C(=O)c3cccc(N4CCC(CCN5CCCC5)CC4)c3)c2)c1 (nonaromatic ring conformer: 113.85510132335324 kcal/mol)

>  <smiles>  (51) 
CN(C)c1cccc(C(=O)Nc2cccc(NC(=O)c3cccc(N4CCC(CCN5CCCC5)CC4)c3)c2)c1

>  <score_type>  (51) 
oracle

>  <origin>  (51) 
adg

>  <m_score__min__energy>  (51) 
-12.199999999999999

>  <m_primary>  (51) 
energy

$$$$
51:0
     RDKit          3D

 48 49  0  0  0  0  0  0  0  0999 V2000
   58.3380   22.3480   45.7620 C   0  0  0  0  0  0  0  0  0  0  0  0
   57.1100   22.9370   45.0870 C   0  0  0  0  0  0  0  0  0  0  0  0
   56.3900   23.9810   45.7260 C   0  0  0  0  0  0  0  0  0  0  0  0
   56.8570   24.6060   47.0320 C   0  0  0  0  0  0  0  0  0  0  0  0
   57.1720   25.9930   46.8820 O   0  0  0  0  0  0  0  0  0  0  0  0
   58.2910   26.6120   47.4550 C   0  0  0  0  0  0  0  0  0  0  0  0
   59.0150   25.9930   48.2830 O   0  0  0  0  0  0  0  0  0  0  0  0
   58.5590   27.9850   47.1420 N   0  0  0  0  0  0  0  0  0  0  0  0
   59.7570   28.6610   47.5480 C   0  0  0  0  0  0  0  0  0  0  0  0
   60.8070   28.0110   47.8040 O   0  0  0  0  0  0  0  0  0  0  0  0
   59.7620   30.1550   47.6720 C   0  0  0  0  0  0  0  0  0  0  0  0
   58.4760   30.6970   47.3640 O   0  0  0  0  0  0  0  0  0  0  0  0
   58.2100   31.6560   46.3710 C   0  0  0  0  0  0  0  0  0  0  0  0
   57.9310   33.0030   46.6770 C   0  0  0  0  0  0  0  0  0  0  0  0
   57.6600   33.9200   45.6600 C   0  0  0  0  0  0  0  0  0  0  0  0
   57.6490   33.5040   44.3290 C   0  0  0  0  0  0  0  0  0  0  0  0
   57.9160   32.1720   44.0100 C   0  0  0  0  0  0  0  0  0  0  0  0
   58.2120   31.2400   45.0260 C   0  0  0  0  0  0  0  0  0  0  0  0
   58.5160   29.8970   44.7480 O   0  0  0  0  0  0  0  0  0  0  0  0
   57.6440   28.9660   44.1070 C   0  0  0  0  0  0  0  0  0  0  0  0
   56.3030   28.9650   44.7730 C   0  0  0  0  0  0  0  0  0  0  0  0
   55.9200   27.8740   45.6090 N   0  0  0  0  0  0  0  0  0  0  0  0
   55.5280   29.9470   44.6270 O   0  0  0  0  0  0  0  0  0  0  0  0
   55.2320   24.4670   45.0950 C   0  0  0  0  0  0  0  0  0  0  0  0
   54.5460   25.3880   45.6160 O   0  0  0  0  0  0  0  0  0  0  0  0
   54.8410   23.9470   43.9110 N   0  0  0  0  0  0  0  0  0  0  0  0
   55.5580   22.9880   43.2800 C   0  0  0  0  0  0  0  0  0  0  0  0
   55.1370   22.5420   42.1790 O   0  0  0  0  0  0  0  0  0  0  0  0
   56.7260   22.5160   43.8280 N   0  0  0  0  0  0  0  0  0  0  0  0
   57.5240   21.5380   43.0640 C   0  0  0  0  0  0  0  0  0  0  0  0
   58.2190   22.4051   46.8541 H   0  0  0  0  0  0  0  0  0  0  0  0
   58.4534   21.2965   45.4602 H   0  0  0  0  0  0  0  0  0  0  0  0
   59.2303   22.9161   45.4602 H   0  0  0  0  0  0  0  0  0  0  0  0
   56.0576   24.5027   47.7805 H   0  0  0  0  0  0  0  0  0  0  0  0
   57.7712   24.0834   47.3499 H   0  0  0  0  0  0  0  0  0  0  0  0
   57.8040   28.5370   46.6750 H   0  0  0  0  0  0  0  0  0  0  0  0
   60.0312   30.4299   48.7025 H   0  0  0  0  0  0  0  0  0  0  0  0
   60.4950   30.5640   46.9611 H   0  0  0  0  0  0  0  0  0  0  0  0
   57.9267   33.3345   47.7258 H   0  0  0  0  0  0  0  0  0  0  0  0
   57.4549   34.9717   45.9087 H   0  0  0  0  0  0  0  0  0  0  0  0
   57.4295   34.2269   43.5294 H   0  0  0  0  0  0  0  0  0  0  0  0
   57.8954   31.8470   42.9593 H   0  0  0  0  0  0  0  0  0  0  0  0
   57.5242   29.2492   43.0509 H   0  0  0  0  0  0  0  0  0  0  0  0
   58.0802   27.9589   44.1805 H   0  0  0  0  0  0  0  0  0  0  0  0
   55.9720   26.8890   45.2620 H   0  0  0  0  0  0  0  0  0  0  0  0
   58.0618   20.8789   43.7614 H   0  0  0  0  0  0  0  0  0  0  0  0
   56.8567   20.9352   42.4305 H   0  0  0  0  0  0  0  0  0  0  0  0
   58.2484   22.0708   42.4305 H   0  0  0  0  0  0  0  0  0  0  0  0
  1  2  1  0
  2  3  2  0
  3  4  1  0
  4  5  1  0
  5  6  1  0
  6  7  2  0
  6  8  1  0
  8  9  1  0
  9 10  2  0
  9 11  1  0
 11 12  1  0
 12 13  1  0
 13 14  2  0
 14 15  1  0
 15 16  2  0
 16 17  1  0
 17 18  2  0
 18 19  1  0
 19 20  1  0
 20 21  1  0
 21 22  1  0
 21 23  2  0
  3 24  1  0
 24 25  2  0
 24 26  1  0
 26 27  1  0
 27 28  2  0
 27 29  1  0
 29 30  1  0
 29  2  1  0
 18 13  1  0
  1 31  1  0
  1 32  1  0
  1 33  1  0
  4 34  1  0
  4 35  1  0
  8 36  1  0
 11 37  1  0
 11 38  1  0
 14 39  1  0
 15 40  1  0
 16 41  1  0
 17 42  1  0
 20 43  1  0
 20 44  1  0
 22 45  1  0
 30 46  1  0
 30 47  1  0
 30 48  1  0
M  CHG  2  22  -1  26  -1
M  END
>  <UniqueID>  (52) 
43

>  <SMILES>  (52) 
Cc1c(COC(=O)NC(=O)COc2ccccc2OCC([NH-])=O)c(=O)[n-]c(=O)n1C

>  <Energy>  (52) 
56.014091607444804

>  <Genealogy>  (52) 
Cc1c(COC(=O)NC(=O)COc2ccccc2OCC([NH-])=O)c(=O)[n-]c(=O)n1C (protonated)
Cc1c(COC(=O)NC(=O)COc2ccccc2OCC([NH-])=O)c(=O)[n-]c(=O)n1C (3D coordinates assigned)
Cc1c(COC(=O)NC(=O)COc2ccccc2OCC([NH-])=O)c(=O)[n-]c(=O)n1C (optimized conformer: 56.014091607444804 kcal/mol)

>  <smiles>  (52) 
Cc1c(COC(=O)NC(=O)COc2ccccc2OCC(N)=O)c(=O)[nH]c(=O)n1C

>  <score_type>  (52) 
oracle

>  <origin>  (52) 
adg

>  <m_score__min__energy>  (52) 
-12.98

>  <m_primary>  (52) 
energy

$$$$
52:0
     RDKit          3D

 43 45  0  0  0  0  0  0  0  0999 V2000
   53.7160   24.9780   45.6180 C   0  0  0  0  0  0  0  0  0  0  0  0
   54.7830   25.9060   45.9710 N   0  0  0  0  0  0  0  0  0  0  0  0
   56.2180   25.0210   46.3860 S   0  0  0  0  0  0  0  0  0  0  0  0
   56.3780   23.8560   45.4480 O   0  0  0  0  0  0  0  0  0  0  0  0
   56.0840   24.4890   47.7850 O   0  0  0  0  0  0  0  0  0  0  0  0
   57.6330   26.0690   46.3030 C   0  0  0  0  0  0  0  0  0  0  0  0
   58.0740   26.5440   45.0620 C   0  0  0  0  0  0  0  0  0  0  0  0
   59.2110   27.3510   44.9830 C   0  0  0  0  0  0  0  0  0  0  0  0
   59.9230   27.6750   46.1420 C   0  0  0  0  0  0  0  0  0  0  0  0
   59.5060   27.1880   47.3920 C   0  0  0  0  0  0  0  0  0  0  0  0
   60.2780   27.5200   48.6140 C   0  0  0  0  0  0  0  0  0  0  0  0
   60.5220   26.6140   49.4540 O   0  0  0  0  0  0  0  0  0  0  0  0
   60.8030   28.8340   48.8510 N   0  0  0  0  0  0  0  0  0  0  0  0
   60.0800   30.0670   48.7160 C   0  0  0  0  0  0  0  0  0  0  0  0
   60.2400   30.9490   47.6310 C   0  0  0  0  0  0  0  0  0  0  0  0
   59.4360   32.0870   47.7130 C   0  0  0  0  0  0  0  0  0  0  0  0
   59.4010   33.2220   46.7560 C   0  0  0  0  0  0  0  0  0  0  0  0
   59.8690   34.5000   47.1250 C   0  0  0  0  0  0  0  0  0  0  0  0
   59.8060   35.5660   46.2230 C   0  0  0  0  0  0  0  0  0  0  0  0
   59.2790   35.3760   44.9460 C   0  0  0  0  0  0  0  0  0  0  0  0
   58.8150   34.1150   44.5650 C   0  0  0  0  0  0  0  0  0  0  0  0
   58.8750   33.0440   45.4620 C   0  0  0  0  0  0  0  0  0  0  0  0
   58.5220   31.9670   49.1240 S   0  0  0  0  0  0  0  0  0  0  0  0
   59.1250   30.4840   49.6440 C   0  0  0  0  0  0  0  0  0  0  0  0
   58.7250   29.7840   50.8810 C   0  0  0  0  0  0  0  0  0  0  0  0
   59.4760   28.6710   51.3700 N   0  0  0  0  0  0  0  0  0  0  0  0
   57.7080   30.1660   51.5200 O   0  0  0  0  0  0  0  0  0  0  0  0
   58.3430   26.4010   47.4660 C   0  0  0  0  0  0  0  0  0  0  0  0
   53.2580   24.5797   46.5354 H   0  0  0  0  0  0  0  0  0  0  0  0
   52.9529   25.5046   45.0261 H   0  0  0  0  0  0  0  0  0  0  0  0
   54.1317   24.1493   45.0261 H   0  0  0  0  0  0  0  0  0  0  0  0
   57.5234   26.2808   44.1468 H   0  0  0  0  0  0  0  0  0  0  0  0
   59.5470   27.7324   44.0075 H   0  0  0  0  0  0  0  0  0  0  0  0
   60.8150   28.3151   46.0746 H   0  0  0  0  0  0  0  0  0  0  0  0
   60.9327   30.7596   46.7977 H   0  0  0  0  0  0  0  0  0  0  0  0
   60.2867   34.6592   48.1301 H   0  0  0  0  0  0  0  0  0  0  0  0
   60.1736   36.5588   46.5217 H   0  0  0  0  0  0  0  0  0  0  0  0
   59.2288   36.2179   44.2399 H   0  0  0  0  0  0  0  0  0  0  0  0
   58.4014   33.9640   43.5570 H   0  0  0  0  0  0  0  0  0  0  0  0
   58.5081   32.0538   45.1541 H   0  0  0  0  0  0  0  0  0  0  0  0
   60.3260   28.3250   50.8730 H   0  0  0  0  0  0  0  0  0  0  0  0
   59.1780   28.1850   52.2450 H   0  0  0  0  0  0  0  0  0  0  0  0
   57.9874   26.0431   48.4435 H   0  0  0  0  0  0  0  0  0  0  0  0
  1  2  1  0
  2  3  1  0
  3  4  2  0
  3  5  2  0
  3  6  1  0
  6  7  2  0
  7  8  1  0
  8  9  2  0
  9 10  1  0
 10 11  1  0
 11 12  2  0
 11 13  1  0
 13 14  1  0
 14 15  1  0
 15 16  2  0
 16 17  1  0
 17 18  2  0
 18 19  1  0
 19 20  2  0
 20 21  1  0
 21 22  2  0
 16 23  1  0
 23 24  1  0
 24 25  1  0
 25 26  1  0
 25 27  2  0
 10 28  2  0
 28  6  1  0
 24 14  2  0
 22 17  1  0
  1 29  1  0
  1 30  1  0
  1 31  1  0
  7 32  1  0
  8 33  1  0
  9 34  1  0
 15 35  1  0
 18 36  1  0
 19 37  1  0
 20 38  1  0
 21 39  1  0
 22 40  1  0
 26 41  1  0
 26 42  1  0
 28 43  1  0
M  CHG  2   2  -1  13  -1
M  END
>  <UniqueID>  (53) 
44

>  <SMILES>  (53) 
C[N-]S(=O)(=O)c1cccc(C(=O)[N-]c2cc(-c3ccccc3)sc2C(N)=O)c1

>  <Energy>  (53) 
73.81907176022116

>  <Genealogy>  (53) 
C[N-]S(=O)(=O)c1cccc(C(=O)[N-]c2cc(-c3ccccc3)sc2C(N)=O)c1 (protonated)
C[N-]S(=O)(=O)c1cccc(C(=O)[N-]c2cc(-c3ccccc3)sc2C(N)=O)c1 (3D coordinates assigned)
C[N-]S(=O)(=O)c1cccc(C(=O)[N-]c2cc(-c3ccccc3)sc2C(N)=O)c1 (optimized conformer: 73.81907176022116 kcal/mol)

>  <smiles>  (53) 
CNS(=O)(=O)c1cccc(C(=O)Nc2cc(-c3ccccc3)sc2C(N)=O)c1

>  <score_type>  (53) 
oracle

>  <origin>  (53) 
adg

>  <m_score__min__energy>  (53) 
-11.68

>  <m_primary>  (53) 
energy

$$$$
53:0
     RDKit          3D

 50 52  0  0  0  0  0  0  0  0999 V2000
   58.7810   32.5470   49.5010 C   0  0  0  0  0  0  0  0  0  0  0  0
   59.6890   32.2510   48.3930 N   0  0  0  0  0  0  0  0  0  0  0  0
   60.2730   31.0760   48.0790 C   0  0  0  0  0  0  0  0  0  0  0  0
   59.9480   29.7570   48.7200 C   0  0  0  0  0  0  0  0  0  0  0  0
   60.3630   29.7360   50.5030 S   0  0  0  0  0  0  0  0  0  0  0  0
   62.1390   30.1580   50.3460 C   0  0  0  0  0  0  0  0  0  0  0  0
   62.3530   31.6470   50.2900 C   0  0  0  0  0  0  0  0  0  0  0  0
   61.7710   32.4790   51.2610 C   0  0  0  0  0  0  0  0  0  0  0  0
   61.9910   33.8580   51.2310 C   0  0  0  0  0  0  0  0  0  0  0  0
   62.7860   34.4190   50.2300 C   0  0  0  0  0  0  0  0  0  0  0  0
   63.3610   33.6010   49.2530 C   0  0  0  0  0  0  0  0  0  0  0  0
   63.1470   32.2200   49.2790 C   0  0  0  0  0  0  0  0  0  0  0  0
   63.7160   31.4420   48.3230 F   0  0  0  0  0  0  0  0  0  0  0  0
   61.1330   31.2180   47.0490 N   0  0  0  0  0  0  0  0  0  0  0  0
   61.1370   32.5020   46.7200 N   0  0  0  0  0  0  0  0  0  0  0  0
   60.2660   33.1180   47.5390 C   0  0  0  0  0  0  0  0  0  0  0  0
   59.9080   34.8780   47.4670 S   0  0  0  0  0  0  0  0  0  0  0  0
   59.1510   34.8290   45.8030 C   0  0  0  0  0  0  0  0  0  0  0  0
   58.2270   33.6600   45.6420 C   0  0  0  0  0  0  0  0  0  0  0  0
   56.9830   33.8410   45.7380 O   0  0  0  0  0  0  0  0  0  0  0  0
   58.7580   32.3460   45.4150 N   0  0  0  0  0  0  0  0  0  0  0  0
   57.9770   31.2310   44.9510 C   0  0  0  0  0  0  0  0  0  0  0  0
   57.1130   31.4030   43.8590 C   0  0  0  0  0  0  0  0  0  0  0  0
   56.3150   30.3460   43.4130 C   0  0  0  0  0  0  0  0  0  0  0  0
   56.3590   29.1110   44.0640 C   0  0  0  0  0  0  0  0  0  0  0  0
   57.2070   28.9270   45.1640 C   0  0  0  0  0  0  0  0  0  0  0  0
   57.2300   27.3820   46.0080 S   0  0  0  0  0  0  0  0  0  0  0  0
   55.6350   26.7220   46.0490 N   0  0  0  0  0  0  0  0  0  0  0  0
   57.7270   27.5750   47.4140 O   0  0  0  0  0  0  0  0  0  0  0  0
   58.1530   26.4320   45.2980 O   0  0  0  0  0  0  0  0  0  0  0  0
   58.0070   29.9870   45.6100 C   0  0  0  0  0  0  0  0  0  0  0  0
   59.3003   32.3777   50.4558 H   0  0  0  0  0  0  0  0  0  0  0  0
   58.4583   33.5969   49.4402 H   0  0  0  0  0  0  0  0  0  0  0  0
   57.9016   31.8890   49.4402 H   0  0  0  0  0  0  0  0  0  0  0  0
   58.8716   29.5622   48.6042 H   0  0  0  0  0  0  0  0  0  0  0  0
   60.5500   28.9819   48.2233 H   0  0  0  0  0  0  0  0  0  0  0  0
   62.6802   29.7522   51.2134 H   0  0  0  0  0  0  0  0  0  0  0  0
   62.5143   29.7214   49.4087 H   0  0  0  0  0  0  0  0  0  0  0  0
   61.1392   32.0424   52.0485 H   0  0  0  0  0  0  0  0  0  0  0  0
   61.5370   34.5032   51.9976 H   0  0  0  0  0  0  0  0  0  0  0  0
   62.9600   35.5050   50.2100 H   0  0  0  0  0  0  0  0  0  0  0  0
   63.9832   34.0451   48.4621 H   0  0  0  0  0  0  0  0  0  0  0  0
   58.5815   35.7566   45.6442 H   0  0  0  0  0  0  0  0  0  0  0  0
   59.9596   34.7279   45.0642 H   0  0  0  0  0  0  0  0  0  0  0  0
   59.7670   32.1840   45.6370 H   0  0  0  0  0  0  0  0  0  0  0  0
   57.0634   32.3770   43.3502 H   0  0  0  0  0  0  0  0  0  0  0  0
   55.6509   30.4869   42.5475 H   0  0  0  0  0  0  0  0  0  0  0  0
   55.7272   28.2819   43.7127 H   0  0  0  0  0  0  0  0  0  0  0  0
   55.1380   27.0770   45.2000 H   0  0  0  0  0  0  0  0  0  0  0  0
   58.6634   29.8465   46.4814 H   0  0  0  0  0  0  0  0  0  0  0  0
  1  2  1  0
  2  3  1  0
  3  4  1  0
  4  5  1  0
  5  6  1  0
  6  7  1  0
  7  8  2  0
  8  9  1  0
  9 10  2  0
 10 11  1  0
 11 12  2  0
 12 13  1  0
  3 14  2  0
 14 15  1  0
 15 16  2  0
 16 17  1  0
 17 18  1  0
 18 19  1  0
 19 20  2  0
 19 21  1  0
 21 22  1  0
 22 23  2  0
 23 24  1  0
 24 25  2  0
 25 26  1  0
 26 27  1  0
 27 28  1  0
 27 29  2  0
 27 30  2  0
 26 31  2  0
 16  2  1  0
 31 22  1  0
 12  7  1  0
  1 32  1  0
  1 33  1  0
  1 34  1  0
  4 35  1  0
  4 36  1  0
  6 37  1  0
  6 38  1  0
  8 39  1  0
  9 40  1  0
 10 41  1  0
 11 42  1  0
 18 43  1  0
 18 44  1  0
 21 45  1  0
 23 46  1  0
 24 47  1  0
 25 48  1  0
 28 49  1  0
 31 50  1  0
M  CHG  1  28  -1
M  END
>  <UniqueID>  (54) 
45

>  <SMILES>  (54) 
Cn1c(CSCc2ccccc2F)nnc1SCC(=O)Nc1cccc(S([NH-])(=O)=O)c1

>  <Energy>  (54) 
78.28871693149623

>  <Genealogy>  (54) 
Cn1c(CSCc2ccccc2F)nnc1SCC(=O)Nc1cccc(S([NH-])(=O)=O)c1 (protonated)
Cn1c(CSCc2ccccc2F)nnc1SCC(=O)Nc1cccc(S([NH-])(=O)=O)c1 (3D coordinates assigned)
Cn1c(CSCc2ccccc2F)nnc1SCC(=O)Nc1cccc(S([NH-])(=O)=O)c1 (optimized conformer: 78.28871693149623 kcal/mol)

>  <smiles>  (54) 
Cn1c(CSCc2ccccc2F)nnc1SCC(=O)Nc1cccc(S(N)(=O)=O)c1

>  <score_type>  (54) 
oracle

>  <origin>  (54) 
adg

>  <m_score__min__energy>  (54) 
-12.390000000000001

>  <m_primary>  (54) 
energy

$$$$
54:0
     RDKit          3D

 51 55  0  0  0  0  0  0  0  0999 V2000
   58.1219   20.1157   44.3256 H   0  0  0  0  0  0  0  0  0  0  0  0
   57.7340   21.1020   44.0310 C   0  0  0  0  0  0  0  0  0  0  0  0
   57.9140   22.5350   44.8970 S   0  0  0  0  0  0  0  0  0  0  0  0
   57.0730   23.4570   43.7600 C   0  0  0  0  0  0  0  0  0  0  0  0
   56.7900   24.7250   43.8390 N   0  0  0  0  0  0  0  0  0  0  0  0
   57.0020   25.6130   44.9490 C   0  0  0  0  0  0  0  0  0  0  0  0
   56.7300   25.1200   46.4970 S   0  0  0  0  0  0  0  0  0  0  0  0
   57.5450   26.9160   44.6790 N   0  0  0  0  0  0  0  0  0  0  0  0
   57.3660   27.3200   43.7320 H   0  0  0  0  0  0  0  0  0  0  0  0
   58.2490   27.7300   45.6320 C   0  0  0  0  0  0  0  0  0  0  0  0
   59.4100   27.2640   46.2700 C   0  0  0  0  0  0  0  0  0  0  0  0
   59.7785   26.2486   46.0622 H   0  0  0  0  0  0  0  0  0  0  0  0
   60.1000   28.0840   47.1680 C   0  0  0  0  0  0  0  0  0  0  0  0
   61.0006   27.7056   47.6737 H   0  0  0  0  0  0  0  0  0  0  0  0
   59.6480   29.3910   47.4280 C   0  0  0  0  0  0  0  0  0  0  0  0
   60.3020   30.2510   48.3220 O   0  0  0  0  0  0  0  0  0  0  0  0
   59.7900   30.6250   49.5980 C   0  0  0  0  0  0  0  0  0  0  0  0
   58.9340   29.9827   49.8524 H   0  0  0  0  0  0  0  0  0  0  0  0
   60.5761   30.5058   50.3581 H   0  0  0  0  0  0  0  0  0  0  0  0
   59.3390   32.0800   49.5570 C   0  0  0  0  0  0  0  0  0  0  0  0
   58.2409   32.1190   49.5050 H   0  0  0  0  0  0  0  0  0  0  0  0
   59.6896   32.5908   50.4659 H   0  0  0  0  0  0  0  0  0  0  0  0
   59.9040   32.7510   48.3820 N   0  0  0  0  0  0  0  0  0  0  0  0
   59.2350   33.2060   47.2920 C   0  0  0  0  0  0  0  0  0  0  0  0
   57.8570   33.1820   47.0550 C   0  0  0  0  0  0  0  0  0  0  0  0
   57.1619   32.7677   47.8001 H   0  0  0  0  0  0  0  0  0  0  0  0
   57.3850   33.7030   45.8360 C   0  0  0  0  0  0  0  0  0  0  0  0
   56.3057   33.7004   45.6237 H   0  0  0  0  0  0  0  0  0  0  0  0
   58.2840   34.2290   44.8830 C   0  0  0  0  0  0  0  0  0  0  0  0
   57.8992   34.6373   43.9369 H   0  0  0  0  0  0  0  0  0  0  0  0
   59.6680   34.2350   45.1340 C   0  0  0  0  0  0  0  0  0  0  0  0
   60.3784   34.6356   44.3959 H   0  0  0  0  0  0  0  0  0  0  0  0
   60.1080   33.7160   46.3500 C   0  0  0  0  0  0  0  0  0  0  0  0
   61.3740   33.5590   46.8680 C   0  0  0  0  0  0  0  0  0  0  0  0
   62.6280   33.8660   46.3470 C   0  0  0  0  0  0  0  0  0  0  0  0
   62.7326   34.3438   45.3617 H   0  0  0  0  0  0  0  0  0  0  0  0
   63.7560   33.5450   47.1220 C   0  0  0  0  0  0  0  0  0  0  0  0
   64.7624   33.7772   46.7435 H   0  0  0  0  0  0  0  0  0  0  0  0
   63.6070   32.9270   48.3820 C   0  0  0  0  0  0  0  0  0  0  0  0
   64.4988   32.6797   48.9766 H   0  0  0  0  0  0  0  0  0  0  0  0
   62.3270   32.6240   48.8850 C   0  0  0  0  0  0  0  0  0  0  0  0
   62.2039   32.1381   49.8642 H   0  0  0  0  0  0  0  0  0  0  0  0
   61.2170   32.9590   48.1030 C   0  0  0  0  0  0  0  0  0  0  0  0
   58.5050   29.8600   46.7700 C   0  0  0  0  0  0  0  0  0  0  0  0
   58.1459   30.8819   46.9621 H   0  0  0  0  0  0  0  0  0  0  0  0
   57.8160   29.0410   45.8710 C   0  0  0  0  0  0  0  0  0  0  0  0
   56.9289   29.4278   45.3482 H   0  0  0  0  0  0  0  0  0  0  0  0
   56.6440   22.6860   42.7390 N   0  0  0  0  0  0  0  0  0  0  0  0
   56.0880   23.0430   41.9300 H   0  0  0  0  0  0  0  0  0  0  0  0
   57.0090   21.3840   42.8780 C   0  0  0  0  0  0  0  0  0  0  0  0
   56.7511   20.6135   42.1365 H   0  0  0  0  0  0  0  0  0  0  0  0
  1  2  1  0
  2  3  1  0
  3  4  1  0
  4  5  2  0
  5  6  1  0
  6  7  2  0
  6  8  1  0
  8  9  1  0
  8 10  1  0
 10 11  2  0
 11 12  1  0
 11 13  1  0
 13 14  1  0
 13 15  2  0
 15 16  1  0
 16 17  1  0
 17 18  1  0
 17 19  1  0
 17 20  1  0
 20 21  1  0
 20 22  1  0
 20 23  1  0
 23 24  1  0
 24 25  2  0
 25 26  1  0
 25 27  1  0
 27 28  1  0
 27 29  2  0
 29 30  1  0
 29 31  1  0
 31 32  1  0
 31 33  2  0
 33 34  1  0
 34 35  2  0
 35 36  1  0
 35 37  1  0
 37 38  1  0
 37 39  2  0
 39 40  1  0
 39 41  1  0
 41 42  1  0
 41 43  2  0
 15 44  1  0
 44 45  1  0
 44 46  2  0
 46 47  1  0
  4 48  1  0
 48 49  1  0
 48 50  1  0
 50 51  1  0
 50  2  2  0
 46 10  1  0
 43 23  1  0
 33 24  1  0
 43 34  1  0
M  END
>  <UniqueID>  (55) 
46

>  <SMILES>  (55) 
S=C(/N=c1/[nH]ccs1)Nc1ccc(OCCn2c3ccccc3c3ccccc32)cc1

>  <Energy>  (55) 
138.8275979143896

>  <Genealogy>  (55) 
S=C(/N=c1/[nH]ccs1)Nc1ccc(OCCn2c3ccccc3c3ccccc32)cc1 (cis-trans isomerization)
S=C(/N=c1/[nH]ccs1)Nc1ccc(OCCn2c3ccccc3c3ccccc32)cc1 (3D coordinates assigned)
S=C(/N=c1/[nH]ccs1)Nc1ccc(OCCn2c3ccccc3c3ccccc32)cc1 (optimized conformer: 138.8275979143896 kcal/mol)

>  <smiles>  (55) 
S=C(N=c1[nH]ccs1)Nc1ccc(OCCn2c3ccccc3c3ccccc32)cc1

>  <score_type>  (55) 
oracle

>  <origin>  (55) 
adg

>  <m_score__min__energy>  (55) 
-9.25

>  <m_primary>  (55) 
energy

$$$$
55:0
     RDKit          3D

 30 31  0  0  0  0  0  0  0  0999 V2000
   53.7110   24.2970   45.6970 O   0  0  0  0  0  0  0  0  0  0  0  0
   54.7770   24.9630   45.6270 C   0  0  0  0  0  0  0  0  0  0  0  0
   54.7180   26.3390   45.8130 O   0  0  0  0  0  0  0  0  0  0  0  0
   56.0720   24.2800   45.3890 C   0  0  0  0  0  0  0  0  0  0  0  0
   56.0890   22.8760   45.2850 C   0  0  0  0  0  0  0  0  0  0  0  0
   57.2920   22.1850   45.1370 C   0  0  0  0  0  0  0  0  0  0  0  0
   58.4980   22.8820   45.0930 C   0  0  0  0  0  0  0  0  0  0  0  0
   58.5030   24.2740   45.1780 C   0  0  0  0  0  0  0  0  0  0  0  0
   57.3010   24.9870   45.3020 C   0  0  0  0  0  0  0  0  0  0  0  0
   57.3650   26.4230   45.3230 N   0  0  0  0  0  0  0  0  0  0  0  0
   58.1400   27.1710   46.2840 C   0  0  0  0  0  0  0  0  0  0  0  0
   58.9430   26.3980   47.4920 S   0  0  0  0  0  0  0  0  0  0  0  0
   58.0410   28.6040   46.3420 N   0  0  0  0  0  0  0  0  0  0  0  0
   57.6100   29.4410   45.2550 C   0  0  0  0  0  0  0  0  0  0  0  0
   58.4970   30.3930   44.7260 C   0  0  0  0  0  0  0  0  0  0  0  0
   58.1100   31.1980   43.6510 C   0  0  0  0  0  0  0  0  0  0  0  0
   56.8420   31.0490   43.0840 C   0  0  0  0  0  0  0  0  0  0  0  0
   55.9620   30.0870   43.5870 C   0  0  0  0  0  0  0  0  0  0  0  0
   56.3440   29.2800   44.6640 C   0  0  0  0  0  0  0  0  0  0  0  0
   55.1423   22.3171   45.3209 H   0  0  0  0  0  0  0  0  0  0  0  0
   57.2885   21.0881   45.0549 H   0  0  0  0  0  0  0  0  0  0  0  0
   59.4463   22.3340   44.9912 H   0  0  0  0  0  0  0  0  0  0  0  0
   59.4585   24.8182   45.1475 H   0  0  0  0  0  0  0  0  0  0  0  0
   56.6080   26.9300   44.8130 H   0  0  0  0  0  0  0  0  0  0  0  0
   58.2460   29.0690   47.2570 H   0  0  0  0  0  0  0  0  0  0  0  0
   59.5015   30.5056   45.1600 H   0  0  0  0  0  0  0  0  0  0  0  0
   58.8053   31.9505   43.2506 H   0  0  0  0  0  0  0  0  0  0  0  0
   56.5366   31.6882   42.2425 H   0  0  0  0  0  0  0  0  0  0  0  0
   54.9667   29.9640   43.1351 H   0  0  0  0  0  0  0  0  0  0  0  0
   55.6519   28.5170   45.0499 H   0  0  0  0  0  0  0  0  0  0  0  0
  1  2  2  0
  2  3  1  0
  2  4  1  0
  4  5  2  0
  5  6  1  0
  6  7  2  0
  7  8  1  0
  8  9  2  0
  9 10  1  0
 10 11  1  0
 11 12  2  0
 11 13  1  0
 13 14  1  0
 14 15  2  0
 15 16  1  0
 16 17  2  0
 17 18  1  0
 18 19  2  0
  9  4  1  0
 19 14  1  0
  5 20  1  0
  6 21  1  0
  7 22  1  0
  8 23  1  0
 10 24  1  0
 13 25  1  0
 15 26  1  0
 16 27  1  0
 17 28  1  0
 18 29  1  0
 19 30  1  0
M  CHG  1   3  -1
M  END
>  <UniqueID>  (56) 
47

>  <SMILES>  (56) 
O=C([O-])c1ccccc1NC(=S)Nc1ccccc1

>  <Energy>  (56) 
44.715956297607164

>  <Genealogy>  (56) 
O=C([O-])c1ccccc1NC(=S)Nc1ccccc1 (protonated)
O=C([O-])c1ccccc1NC(=S)Nc1ccccc1 (3D coordinates assigned)
O=C([O-])c1ccccc1NC(=S)Nc1ccccc1 (optimized conformer: 44.715956297607164 kcal/mol)

>  <smiles>  (56) 
O=C(O)c1ccccc1NC(=S)Nc1ccccc1

>  <score_type>  (56) 
oracle

>  <origin>  (56) 
adg

>  <m_score__min__energy>  (56) 
-9.2899999999999991

>  <m_primary>  (56) 
energy

$$$$
56:0
     RDKit          3D

 58 60  0  0  0  0  0  0  0  0999 V2000
   58.2380   19.5760   45.9890 H   0  0  0  0  0  0  0  0  0  0  0  0
   57.6300   20.2330   46.5280 N   0  0  0  0  0  0  0  0  0  0  0  0
   57.6580   21.5090   46.3130 C   0  0  0  0  0  0  0  0  0  0  0  0
   57.3620   22.3790   47.3180 N   0  0  0  0  0  0  0  0  0  0  0  0
   57.3790   23.7260   47.1300 C   0  0  0  0  0  0  0  0  0  0  0  0
   57.1360   24.3991   47.9654 H   0  0  0  0  0  0  0  0  0  0  0  0
   57.7060   24.2610   45.8720 C   0  0  0  0  0  0  0  0  0  0  0  0
   57.7420   25.7280   45.6560 C   0  0  0  0  0  0  0  0  0  0  0  0
   58.9540   26.3390   45.2860 C   0  0  0  0  0  0  0  0  0  0  0  0
   59.8556   25.7235   45.1507 H   0  0  0  0  0  0  0  0  0  0  0  0
   59.0230   27.7190   45.0890 C   0  0  0  0  0  0  0  0  0  0  0  0
   59.9784   28.1856   44.8072 H   0  0  0  0  0  0  0  0  0  0  0  0
   57.8800   28.5110   45.2490 C   0  0  0  0  0  0  0  0  0  0  0  0
   57.9590   29.9730   45.0470 C   0  0  0  0  0  0  0  0  0  0  0  0
   57.3090   30.5280   43.9320 C   0  0  0  0  0  0  0  0  0  0  0  0
   56.7301   29.8781   43.2593 H   0  0  0  0  0  0  0  0  0  0  0  0
   57.3910   31.8960   43.6700 C   0  0  0  0  0  0  0  0  0  0  0  0
   56.8770   32.3198   42.7947 H   0  0  0  0  0  0  0  0  0  0  0  0
   58.1240   32.7260   44.5170 C   0  0  0  0  0  0  0  0  0  0  0  0
   58.1962   33.8027   44.3035 H   0  0  0  0  0  0  0  0  0  0  0  0
   58.7660   32.1930   45.6350 C   0  0  0  0  0  0  0  0  0  0  0  0
   59.3480   32.8533   46.2947 H   0  0  0  0  0  0  0  0  0  0  0  0
   58.6770   30.8220   45.9270 C   0  0  0  0  0  0  0  0  0  0  0  0
   59.4470   30.2260   47.4090 S   0  0  0  0  0  0  0  0  0  0  0  0
   58.5960   29.1720   48.0600 O   0  0  0  0  0  0  0  0  0  0  0  0
   60.7770   29.6290   47.0520 O   0  0  0  0  0  0  0  0  0  0  0  0
   59.7130   31.5480   48.5160 N   0  0  0  0  0  0  0  0  0  0  0  0
   58.8660   31.4660   49.7130 C   0  0  2  0  0  0  0  0  0  0  0  0
   57.8342   31.2340   49.4104 H   0  0  0  0  0  0  0  0  0  0  0  0
   58.8660   32.8060   50.4620 C   0  0  0  0  0  0  0  0  0  0  0  0
   59.9031   33.1261   50.6409 H   0  0  0  0  0  0  0  0  0  0  0  0
   58.3475   33.5643   49.8569 H   0  0  0  0  0  0  0  0  0  0  0  0
   58.3475   32.6878   51.4249 H   0  0  0  0  0  0  0  0  0  0  0  0
   59.4070   30.3520   50.6390 C   0  0  0  0  0  0  0  0  0  0  0  0
   59.6805   30.8025   51.6045 H   0  0  0  0  0  0  0  0  0  0  0  0
   58.6113   29.5998   50.7438 H   0  0  0  0  0  0  0  0  0  0  0  0
   60.6000   29.6580   50.0870 N   0  0  0  0  0  0  0  0  0  0  0  0
   60.5360   29.6120   49.0420 H   0  0  0  0  0  0  0  0  0  0  0  0
   60.7220   28.2820   50.6100 C   0  0  0  0  0  0  0  0  0  0  0  0
   60.7199   28.3062   51.7097 H   0  0  0  0  0  0  0  0  0  0  0  0
   59.8739   27.6782   50.2549 H   0  0  0  0  0  0  0  0  0  0  0  0
   61.6631   27.8369   50.2549 H   0  0  0  0  0  0  0  0  0  0  0  0
   61.8160   30.4210   50.4220 C   0  0  0  0  0  0  0  0  0  0  0  0
   61.9188   30.4855   51.5153 H   0  0  0  0  0  0  0  0  0  0  0  0
   62.6956   29.9126   50.0003 H   0  0  0  0  0  0  0  0  0  0  0  0
   61.7409   31.4342   50.0003 H   0  0  0  0  0  0  0  0  0  0  0  0
   56.6700   27.9130   45.6250 C   0  0  0  0  0  0  0  0  0  0  0  0
   55.7776   28.5384   45.7750 H   0  0  0  0  0  0  0  0  0  0  0  0
   56.5840   26.5200   45.8130 C   0  0  0  0  0  0  0  0  0  0  0  0
   55.3670   25.8940   46.1330 O   0  0  0  0  0  0  0  0  0  0  0  0
   54.7740   24.8420   45.3780 C   0  0  0  0  0  0  0  0  0  0  0  0
   54.3514   24.0922   46.0630 H   0  0  0  0  0  0  0  0  0  0  0  0
   53.9739   25.2517   44.7439 H   0  0  0  0  0  0  0  0  0  0  0  0
   55.5387   24.3696   44.7439 H   0  0  0  0  0  0  0  0  0  0  0  0
   58.0230   23.3770   44.8290 C   0  0  0  0  0  0  0  0  0  0  0  0
   58.2932   23.7711   43.8382 H   0  0  0  0  0  0  0  0  0  0  0  0
   57.9960   21.9980   45.0470 C   0  0  0  0  0  0  0  0  0  0  0  0
   58.2385   21.3023   44.2301 H   0  0  0  0  0  0  0  0  0  0  0  0
  1  2  1  0
  2  3  2  0
  3  4  1  0
  4  5  1  0
  5  6  1  0
  5  7  2  0
  7  8  1  0
  8  9  2  0
  9 10  1  0
  9 11  1  0
 11 12  1  0
 11 13  2  0
 13 14  1  0
 14 15  2  0
 15 16  1  0
 15 17  1  0
 17 18  1  0
 17 19  2  0
 19 20  1  0
 19 21  1  0
 21 22  1  0
 21 23  2  0
 23 24  1  0
 24 25  2  0
 24 26  2  0
 24 27  1  0
 27 28  1  0
 28 29  1  6
 28 30  1  0
 30 31  1  0
 30 32  1  0
 30 33  1  0
 28 34  1  0
 34 35  1  0
 34 36  1  0
 34 37  1  0
 37 38  1  0
 37 39  1  0
 39 40  1  0
 39 41  1  0
 39 42  1  0
 37 43  1  0
 43 44  1  0
 43 45  1  0
 43 46  1  0
 13 47  1  0
 47 48  1  0
 47 49  2  0
 49 50  1  0
 50 51  1  0
 51 52  1  0
 51 53  1  0
 51 54  1  0
  7 55  1  0
 55 56  1  0
 55 57  2  0
 57 58  1  0
 57  3  1  0
 49  8  1  0
 23 14  1  0
M  CHG  3   4  -1  27  -1  37   1
M  END
>  <UniqueID>  (57) 
48

>  <SMILES>  (57) 
[H]/N=c1/ccc(-c2ccc(-c3ccccc3S(=O)(=O)[N-][C@H](C)C[NH+](C)C)cc2OC)c[n-]1

>  <Energy>  (57) 
72.80235203301173

>  <Genealogy>  (57) 
COc1cc(-c2ccccc2S(=O)(=O)[N-]C(C)C[NH+](C)C)ccc1-c1ccc(=N)[n-]c1 (protonated)
COc1cc(-c2ccccc2S(=O)(=O)[N-][C@H](C)C[NH+](C)C)ccc1-c1ccc(=N)[n-]c1 (chirality)
[H]/N=c1/ccc(-c2ccc(-c3ccccc3S(=O)(=O)[N-][C@H](C)C[NH+](C)C)cc2OC)c[n-]1 (cis-trans isomerization)
[H]/N=c1/ccc(-c2ccc(-c3ccccc3S(=O)(=O)[N-][C@H](C)C[NH+](C)C)cc2OC)c[n-]1 (3D coordinates assigned)
[H]/N=c1/ccc(-c2ccc(-c3ccccc3S(=O)(=O)[N-][C@H](C)C[NH+](C)C)cc2OC)c[n-]1 (optimized conformer: 72.80235203301173 kcal/mol)

>  <smiles>  (57) 
COc1cc(-c2ccccc2S(=O)(=O)NC(C)CN(C)C)ccc1-c1ccc(=N)[nH]c1

>  <score_type>  (57) 
oracle

>  <origin>  (57) 
adg

>  <m_score__min__energy>  (57) 
-9.3699999999999992

>  <m_primary>  (57) 
energy

$$$$
57:0
     RDKit          3D

 44 45  0  0  0  0  0  0  0  0999 V2000
   56.6670   24.8360   43.8990 N   0  0  0  0  0  0  0  0  0  0  0  0
   55.6510   24.0520   44.5920 C   0  0  0  0  0  0  0  0  0  0  0  0
   54.8890   24.9250   45.5490 C   0  0  0  0  0  0  0  0  0  0  0  0
   53.7880   24.5200   46.0080 O   0  0  0  0  0  0  0  0  0  0  0  0
   55.3890   26.1990   45.9710 N   0  0  0  0  0  0  0  0  0  0  0  0
   56.5930   26.3850   46.7720 C   0  0  0  0  0  0  0  0  0  0  0  0
   57.4860   27.3900   46.1030 C   0  0  0  0  0  0  0  0  0  0  0  0
   58.8770   27.3280   46.2880 C   0  0  0  0  0  0  0  0  0  0  0  0
   59.7090   28.2830   45.7000 C   0  0  0  0  0  0  0  0  0  0  0  0
   59.1620   29.3130   44.9300 C   0  0  0  0  0  0  0  0  0  0  0  0
   57.7740   29.3910   44.7340 C   0  0  0  0  0  0  0  0  0  0  0  0
   57.1890   30.5480   43.9680 C   0  0  0  0  0  0  0  0  0  0  0  0
   57.4480   31.7950   44.6820 N   0  0  0  0  0  0  0  0  0  0  0  0
   58.0620   32.9230   44.0430 C   0  0  0  0  0  0  0  0  0  0  0  0
   58.1450   32.9700   42.7870 O   0  0  0  0  0  0  0  0  0  0  0  0
   58.5970   34.0040   44.8140 N   0  0  0  0  0  0  0  0  0  0  0  0
   58.8500   33.9410   46.5300 S   0  0  0  0  0  0  0  0  0  0  0  0
   58.8940   35.3420   47.0740 O   0  0  0  0  0  0  0  0  0  0  0  0
   57.7040   33.1980   47.1690 O   0  0  0  0  0  0  0  0  0  0  0  0
   60.3760   33.1370   46.9040 C   0  0  0  0  0  0  0  0  0  0  0  0
   60.3880   31.7840   47.2760 C   0  0  0  0  0  0  0  0  0  0  0  0
   61.5980   31.1400   47.5470 C   0  0  0  0  0  0  0  0  0  0  0  0
   62.8020   31.8450   47.4560 C   0  0  0  0  0  0  0  0  0  0  0  0
   63.9770   31.2210   47.7250 F   0  0  0  0  0  0  0  0  0  0  0  0
   62.7950   33.1960   47.0890 C   0  0  0  0  0  0  0  0  0  0  0  0
   61.5860   33.8400   46.8140 C   0  0  0  0  0  0  0  0  0  0  0  0
   56.9340   28.4360   45.3390 C   0  0  0  0  0  0  0  0  0  0  0  0
   55.5840   28.5340   45.2010 F   0  0  0  0  0  0  0  0  0  0  0  0
   56.7290   25.7670   44.3740 H   0  0  0  0  0  0  0  0  0  0  0  0
   56.3270   25.0270   42.9260 H   0  0  0  0  0  0  0  0  0  0  0  0
   54.9546   23.6259   43.8548 H   0  0  0  0  0  0  0  0  0  0  0  0
   56.1413   23.2437   45.1543 H   0  0  0  0  0  0  0  0  0  0  0  0
   56.3158   26.7487   47.7724 H   0  0  0  0  0  0  0  0  0  0  0  0
   57.1240   25.4262   46.8658 H   0  0  0  0  0  0  0  0  0  0  0  0
   59.3129   26.5236   46.8987 H   0  0  0  0  0  0  0  0  0  0  0  0
   60.7980   28.2244   45.8433 H   0  0  0  0  0  0  0  0  0  0  0  0
   59.8222   30.0663   44.4753 H   0  0  0  0  0  0  0  0  0  0  0  0
   57.6498   30.5959   42.9703 H   0  0  0  0  0  0  0  0  0  0  0  0
   56.1029   30.4055   43.8679 H   0  0  0  0  0  0  0  0  0  0  0  0
   57.0650   31.9050   45.6490 H   0  0  0  0  0  0  0  0  0  0  0  0
   59.4418   31.2286   47.3545 H   0  0  0  0  0  0  0  0  0  0  0  0
   61.6034   30.0776   47.8321 H   0  0  0  0  0  0  0  0  0  0  0  0
   63.7421   33.7509   47.0171 H   0  0  0  0  0  0  0  0  0  0  0  0
   61.5833   34.9016   46.5260 H   0  0  0  0  0  0  0  0  0  0  0  0
  1  2  1  0
  2  3  1  0
  3  4  2  0
  3  5  1  0
  5  6  1  0
  6  7  1  0
  7  8  2  0
  8  9  1  0
  9 10  2  0
 10 11  1  0
 11 12  1  0
 12 13  1  0
 13 14  1  0
 14 15  2  0
 14 16  1  0
 16 17  1  0
 17 18  2  0
 17 19  2  0
 17 20  1  0
 20 21  2  0
 21 22  1  0
 22 23  2  0
 23 24  1  0
 23 25  1  0
 25 26  2  0
 11 27  2  0
 27 28  1  0
 27  7  1  0
 26 20  1  0
  1 29  1  0
  1 30  1  0
  2 31  1  0
  2 32  1  0
  6 33  1  0
  6 34  1  0
  8 35  1  0
  9 36  1  0
 10 37  1  0
 12 38  1  0
 12 39  1  0
 13 40  1  0
 21 41  1  0
 22 42  1  0
 25 43  1  0
 26 44  1  0
M  CHG  2   5  -1  16  -1
M  END
>  <UniqueID>  (58) 
49

>  <SMILES>  (58) 
NCC(=O)[N-]Cc1cccc(CNC(=O)[N-]S(=O)(=O)c2ccc(F)cc2)c1F

>  <Energy>  (58) 
37.47943581846573

>  <Genealogy>  (58) 
NCC(=O)[N-]Cc1cccc(CNC(=O)[N-]S(=O)(=O)c2ccc(F)cc2)c1F (protonated)
NCC(=O)[N-]Cc1cccc(CNC(=O)[N-]S(=O)(=O)c2ccc(F)cc2)c1F (3D coordinates assigned)
NCC(=O)[N-]Cc1cccc(CNC(=O)[N-]S(=O)(=O)c2ccc(F)cc2)c1F (optimized conformer: 37.47943581846573 kcal/mol)

>  <smiles>  (58) 
NCC(=O)NCc1cccc(CNC(=O)NS(=O)(=O)c2ccc(F)cc2)c1F

>  <score_type>  (58) 
oracle

>  <origin>  (58) 
adg

>  <m_score__min__energy>  (58) 
-11.33

>  <m_primary>  (58) 
energy

$$$$
58:0
     RDKit          3D

 55 59  0  0  0  0  0  0  0  0999 V2000
   58.7620   34.0200   45.8150 O   0  0  0  0  0  0  0  0  0  0  0  0
   59.1540   32.9440   46.7890 S   0  0  0  0  0  0  0  0  0  0  0  0
   58.5430   33.2490   48.1270 O   0  0  0  0  0  0  0  0  0  0  0  0
   60.9050   32.8830   46.9580 C   0  0  0  0  0  0  0  0  0  0  0  0
   61.7030   33.8890   46.3930 C   0  0  0  0  0  0  0  0  0  0  0  0
   63.0950   33.8340   46.5200 C   0  0  0  0  0  0  0  0  0  0  0  0
   63.6940   32.7750   47.2070 C   0  0  0  0  0  0  0  0  0  0  0  0
   62.9030   31.7690   47.7680 C   0  0  0  0  0  0  0  0  0  0  0  0
   61.5100   31.8200   47.6430 C   0  0  0  0  0  0  0  0  0  0  0  0
   58.5640   31.4210   46.2100 N   0  0  0  0  0  0  0  0  0  0  0  0
   58.7150   30.2280   46.8270 C   0  0  0  0  0  0  0  0  0  0  0  0
   58.1660   29.2140   46.0480 C   0  0  0  0  0  0  0  0  0  0  0  0
   58.1880   27.7720   46.3620 C   0  0  0  0  0  0  0  0  0  0  0  0
   57.0530   27.0900   46.5420 C   0  0  0  0  0  0  0  0  0  0  0  0
   57.1250   25.6180   46.8070 C   0  0  0  0  0  0  0  0  0  0  0  0
   58.1470   24.9930   45.9460 N   0  0  0  0  0  0  0  0  0  0  0  0
   57.7580   25.0230   44.5190 C   0  0  0  0  0  0  0  0  0  0  0  0
   57.5040   23.6250   44.0200 C   0  0  0  0  0  0  0  0  0  0  0  0
   56.5170   23.3900   43.0540 C   0  0  0  0  0  0  0  0  0  0  0  0
   56.2690   22.0890   42.6150 C   0  0  0  0  0  0  0  0  0  0  0  0
   57.0130   21.0330   43.1460 C   0  0  0  0  0  0  0  0  0  0  0  0
   57.9730   21.2740   44.0800 N   0  0  0  0  0  0  0  0  0  0  0  0
   58.2310   22.5340   44.5240 C   0  0  0  0  0  0  0  0  0  0  0  0
   59.4980   25.5760   46.1710 C   0  0  0  0  0  0  0  0  0  0  0  0
   59.5050   27.0720   46.5930 C   0  0  0  0  0  0  0  0  0  0  0  0
   57.6900   29.8330   44.9030 C   0  0  0  0  0  0  0  0  0  0  0  0
   57.1320   29.3110   43.7330 C   0  0  0  0  0  0  0  0  0  0  0  0
   56.8040   30.2060   42.7010 C   0  0  0  0  0  0  0  0  0  0  0  0
   57.0520   31.5870   42.8470 C   0  0  0  0  0  0  0  0  0  0  0  0
   57.6360   32.0860   44.0240 C   0  0  0  0  0  0  0  0  0  0  0  0
   57.9460   31.1770   45.0380 C   0  0  0  0  0  0  0  0  0  0  0  0
   61.2335   34.7221   45.8494 H   0  0  0  0  0  0  0  0  0  0  0  0
   63.7187   34.6253   46.0785 H   0  0  0  0  0  0  0  0  0  0  0  0
   64.7887   32.7332   47.3063 H   0  0  0  0  0  0  0  0  0  0  0  0
   63.3758   30.9358   48.3086 H   0  0  0  0  0  0  0  0  0  0  0  0
   60.8893   31.0253   48.0826 H   0  0  0  0  0  0  0  0  0  0  0  0
   59.2010   30.0802   47.8027 H   0  0  0  0  0  0  0  0  0  0  0  0
   56.0806   27.6022   46.4962 H   0  0  0  0  0  0  0  0  0  0  0  0
   57.3880   25.4515   47.8620 H   0  0  0  0  0  0  0  0  0  0  0  0
   56.1465   25.1662   46.5872 H   0  0  0  0  0  0  0  0  0  0  0  0
   56.8423   25.6217   44.4045 H   0  0  0  0  0  0  0  0  0  0  0  0
   58.5747   25.4704   43.9335 H   0  0  0  0  0  0  0  0  0  0  0  0
   55.9383   24.2300   42.6422 H   0  0  0  0  0  0  0  0  0  0  0  0
   55.4947   21.8968   41.8577 H   0  0  0  0  0  0  0  0  0  0  0  0
   56.8225   20.0036   42.8083 H   0  0  0  0  0  0  0  0  0  0  0  0
   58.5180   20.4730   44.4700 H   0  0  0  0  0  0  0  0  0  0  0  0
   59.0121   22.6989   45.2807 H   0  0  0  0  0  0  0  0  0  0  0  0
   59.9927   24.9954   46.9636 H   0  0  0  0  0  0  0  0  0  0  0  0
   60.0195   25.5266   45.2038 H   0  0  0  0  0  0  0  0  0  0  0  0
   59.7460   27.1297   47.6647 H   0  0  0  0  0  0  0  0  0  0  0  0
   60.2538   27.5798   45.9674 H   0  0  0  0  0  0  0  0  0  0  0  0
   56.9548   28.2309   43.6233 H   0  0  0  0  0  0  0  0  0  0  0  0
   56.3508   29.8274   41.7730 H   0  0  0  0  0  0  0  0  0  0  0  0
   56.7864   32.2784   42.0337 H   0  0  0  0  0  0  0  0  0  0  0  0
   57.8426   33.1599   44.1429 H   0  0  0  0  0  0  0  0  0  0  0  0
  1  2  2  0
  2  3  2  0
  2  4  1  0
  4  5  2  0
  5  6  1  0
  6  7  2  0
  7  8  1  0
  8  9  2  0
  2 10  1  0
 10 11  1  0
 11 12  2  0
 12 13  1  0
 13 14  2  0
 14 15  1  0
 15 16  1  0
 16 17  1  0
 17 18  1  0
 18 19  2  0
 19 20  1  0
 20 21  2  0
 21 22  1  0
 22 23  2  0
 16 24  1  0
 24 25  1  0
 12 26  1  0
 26 27  2  0
 27 28  1  0
 28 29  2  0
 29 30  1  0
 30 31  2  0
  9  4  1  0
 31 10  1  0
 25 13  1  0
 31 26  1  0
 23 18  1  0
  5 32  1  0
  6 33  1  0
  7 34  1  0
  8 35  1  0
  9 36  1  0
 11 37  1  0
 14 38  1  0
 15 39  1  0
 15 40  1  0
 17 41  1  0
 17 42  1  0
 19 43  1  0
 20 44  1  0
 21 45  1  0
 22 46  1  0
 23 47  1  0
 24 48  1  0
 24 49  1  0
 25 50  1  0
 25 51  1  0
 27 52  1  0
 28 53  1  0
 29 54  1  0
 30 55  1  0
M  CHG  1  22   1
M  END
>  <UniqueID>  (59) 
50

>  <SMILES>  (59) 
O=S(=O)(c1ccccc1)n1cc(C2=CCN(Cc3ccc[nH+]c3)CC2)c2ccccc21

>  <Energy>  (59) 
107.98820862236258

>  <Genealogy>  (59) 
O=S(=O)(c1ccccc1)n1cc(C2=CCN(Cc3ccc[nH+]c3)CC2)c2ccccc21 (protonated)
O=S(=O)(c1ccccc1)n1cc(C2=CCN(Cc3ccc[nH+]c3)CC2)c2ccccc21 (3D coordinates assigned)
O=S(=O)(c1ccccc1)n1cc(C2=CCN(Cc3ccc[nH+]c3)CC2)c2ccccc21 (nonaromatic ring conformer: 107.98820862236258 kcal/mol)

>  <smiles>  (59) 
O=S(=O)(c1ccccc1)n1cc(C2=CCN(Cc3cccnc3)CC2)c2ccccc21

>  <score_type>  (59) 
oracle

>  <origin>  (59) 
adg

>  <m_score__min__energy>  (59) 
-9.6999999999999993

>  <m_primary>  (59) 
energy

$$$$
59:0
     RDKit          3D

 30 31  0  0  0  0  0  0  0  0999 V2000
   60.2260   27.7810   46.3010 C   0  0  0  0  0  0  0  0  0  0  0  0
   58.7660   27.8510   45.9620 C   0  0  0  0  0  0  0  0  0  0  0  0
   58.0610   26.6630   46.1280 C   0  0  0  0  0  0  0  0  0  0  0  0
   56.7160   26.7110   45.8200 C   0  0  0  0  0  0  0  0  0  0  0  0
   55.9190   25.4660   45.9810 C   0  0  0  0  0  0  0  0  0  0  0  0
   56.1570   27.8530   45.3900 N   0  0  0  0  0  0  0  0  0  0  0  0
   56.8650   28.9980   45.2370 C   0  0  0  0  0  0  0  0  0  0  0  0
   56.2300   30.0210   44.8220 N   0  0  0  0  0  0  0  0  0  0  0  0
   56.6300   30.9570   43.8240 C   0  0  0  0  0  0  0  0  0  0  0  0
   57.4000   32.0310   44.5150 C   0  0  0  0  0  0  0  0  0  0  0  0
   58.1110   32.9960   43.8400 C   0  0  0  0  0  0  0  0  0  0  0  0
   58.8070   33.9670   44.5570 C   0  0  0  0  0  0  0  0  0  0  0  0
   58.7920   33.9710   45.9390 C   0  0  0  0  0  0  0  0  0  0  0  0
   58.0610   32.9780   46.5810 C   0  0  0  0  0  0  0  0  0  0  0  0
   57.3960   32.0490   45.8700 N   0  0  0  0  0  0  0  0  0  0  0  0
   58.1820   28.9830   45.5290 N   0  0  0  0  0  0  0  0  0  0  0  0
   60.3487   27.7751   47.3941 H   0  0  0  0  0  0  0  0  0  0  0  0
   60.6568   26.8612   45.8787 H   0  0  0  0  0  0  0  0  0  0  0  0
   60.7428   28.6554   45.8787 H   0  0  0  0  0  0  0  0  0  0  0  0
   58.5457   25.7416   46.4830 H   0  0  0  0  0  0  0  0  0  0  0  0
   55.7830   25.2536   47.0517 H   0  0  0  0  0  0  0  0  0  0  0  0
   54.9358   25.5960   45.5052 H   0  0  0  0  0  0  0  0  0  0  0  0
   56.4486   24.6275   45.5052 H   0  0  0  0  0  0  0  0  0  0  0  0
   55.1420   27.8360   45.1720 H   0  0  0  0  0  0  0  0  0  0  0  0
   57.2636   30.4613   43.0738 H   0  0  0  0  0  0  0  0  0  0  0  0
   55.7547   31.3744   43.3048 H   0  0  0  0  0  0  0  0  0  0  0  0
   58.1300   33.0010   42.7402 H   0  0  0  0  0  0  0  0  0  0  0  0
   59.3748   34.7391   44.0171 H   0  0  0  0  0  0  0  0  0  0  0  0
   59.3399   34.7340   46.5115 H   0  0  0  0  0  0  0  0  0  0  0  0
   58.0259   32.9514   47.6801 H   0  0  0  0  0  0  0  0  0  0  0  0
  1  2  1  0
  2  3  1  0
  3  4  2  0
  4  5  1  0
  4  6  1  0
  6  7  1  0
  7  8  2  3
  8  9  1  0
  9 10  1  0
 10 11  2  0
 11 12  1  0
 12 13  2  0
 13 14  1  0
 14 15  2  0
  7 16  1  0
 16  2  2  0
 15 10  1  0
  1 17  1  0
  1 18  1  0
  1 19  1  0
  3 20  1  0
  5 21  1  0
  5 22  1  0
  5 23  1  0
  6 24  1  0
  9 25  1  0
  9 26  1  0
 11 27  1  0
 12 28  1  0
 13 29  1  0
 14 30  1  0
M  END
>  <smiles>  (60) 
Cc1cc(C)[nH]c(=NCc2ccccn2)n1

>  <score_type>  (60) 
oracle

>  <origin>  (60) 
adg

>  <m_score__min__energy>  (60) 
-6.6299999999999999

>  <m_primary>  (60) 
energy

$$$$
60:0
     RDKit          3D

 54 58  0  0  0  0  0  0  0  0999 V2000
   56.1520   28.6190   43.3700 H   0  0  0  0  0  0  0  0  0  0  0  0
   56.2880   29.4510   42.8070 O   0  0  0  0  0  0  0  0  0  0  0  0
   56.9830   30.5580   43.2960 C   0  0  0  0  0  0  0  0  0  0  0  0
   57.4970   31.5110   42.4060 C   0  0  0  0  0  0  0  0  0  0  0  0
   57.3976   31.3580   41.3212 H   0  0  0  0  0  0  0  0  0  0  0  0
   58.1360   32.6560   42.8930 C   0  0  0  0  0  0  0  0  0  0  0  0
   58.5451   33.3978   42.1913 H   0  0  0  0  0  0  0  0  0  0  0  0
   58.2550   32.8580   44.2720 C   0  0  0  0  0  0  0  0  0  0  0  0
   59.0400   34.3050   44.8830 Cl  0  0  0  0  0  0  0  0  0  0  0  0
   57.7510   31.9060   45.1670 C   0  0  0  0  0  0  0  0  0  0  0  0
   57.8357   32.0731   46.2509 H   0  0  0  0  0  0  0  0  0  0  0  0
   57.1390   30.7410   44.6850 C   0  0  0  0  0  0  0  0  0  0  0  0
   56.6360   29.7820   45.6250 N   0  0  0  0  0  0  0  0  0  0  0  0
   56.9410   28.3850   45.5830 C   0  0  0  0  0  0  0  0  0  0  0  0
   56.0350   27.5710   45.2580 O   0  0  0  0  0  0  0  0  0  0  0  0
   58.2580   27.8820   46.0290 C   0  0  0  0  0  0  0  0  0  0  0  0
   58.6180   26.5670   45.6850 C   0  0  0  0  0  0  0  0  0  0  0  0
   57.9158   25.9408   45.1150 H   0  0  0  0  0  0  0  0  0  0  0  0
   59.8570   26.0500   46.0600 C   0  0  0  0  0  0  0  0  0  0  0  0
   60.1293   25.0205   45.7844 H   0  0  0  0  0  0  0  0  0  0  0  0
   60.7510   26.8370   46.7840 C   0  0  0  0  0  0  0  0  0  0  0  0
   61.7304   26.4288   47.0742 H   0  0  0  0  0  0  0  0  0  0  0  0
   60.4070   28.1420   47.1420 C   0  0  0  0  0  0  0  0  0  0  0  0
   61.1227   28.7600   47.7040 H   0  0  0  0  0  0  0  0  0  0  0  0
   59.1530   28.6730   46.7900 C   0  0  0  0  0  0  0  0  0  0  0  0
   58.7920   30.0000   47.2160 N   0  0  0  0  0  0  0  0  0  0  0  0
   57.7980   30.3040   47.1240 H   0  0  0  0  0  0  0  0  0  0  0  0
   59.7370   30.9580   47.7310 C   0  0  0  0  0  0  0  0  0  0  0  0
   59.5080   31.6260   48.9660 C   0  0  0  0  0  0  0  0  0  0  0  0
   58.5992   31.4027   49.5441 H   0  0  0  0  0  0  0  0  0  0  0  0
   60.4300   32.5690   49.4570 C   0  0  0  0  0  0  0  0  0  0  0  0
   60.2526   33.0969   50.4056 H   0  0  0  0  0  0  0  0  0  0  0  0
   61.5770   32.8120   48.7000 C   0  0  0  0  0  0  0  0  0  0  0  0
   62.6600   33.6620   48.8480 C   0  0  0  0  0  0  0  0  0  0  0  0
   62.9730   34.5850   49.9540 C   0  0  0  0  0  0  0  0  0  0  0  0
   62.5349   35.5939   49.9399 H   0  0  0  0  0  0  0  0  0  0  0  0
   63.7700   34.2440   50.9760 C   0  0  0  0  0  0  0  0  0  0  0  0
   63.6514   34.7935   51.9215 H   0  0  0  0  0  0  0  0  0  0  0  0
   64.8040   33.1750   50.9230 C   0  0  0  0  0  0  0  0  0  0  0  0
   66.1490   33.4160   50.5630 C   0  0  0  0  0  0  0  0  0  0  0  0
   66.4700   34.4341   50.2977 H   0  0  0  0  0  0  0  0  0  0  0  0
   67.0750   32.3670   50.5420 C   0  0  0  0  0  0  0  0  0  0  0  0
   68.1185   32.5629   50.2544 H   0  0  0  0  0  0  0  0  0  0  0  0
   66.6790   31.0720   50.8850 C   0  0  0  0  0  0  0  0  0  0  0  0
   67.4103   30.2505   50.8666 H   0  0  0  0  0  0  0  0  0  0  0  0
   65.3560   30.8200   51.2510 C   0  0  0  0  0  0  0  0  0  0  0  0
   65.0453   29.8006   51.5237 H   0  0  0  0  0  0  0  0  0  0  0  0
   64.4250   31.8640   51.2710 C   0  0  0  0  0  0  0  0  0  0  0  0
   63.3843   31.6584   51.5621 H   0  0  0  0  0  0  0  0  0  0  0  0
   63.4400   33.5540   47.7450 N   0  0  0  0  0  0  0  0  0  0  0  0
   62.9070   32.6620   46.9170 N   0  0  0  0  0  0  0  0  0  0  0  0
   61.7790   32.2070   47.4900 C   0  0  0  0  0  0  0  0  0  0  0  0
   60.8810   31.2780   46.9700 C   0  0  0  0  0  0  0  0  0  0  0  0
   61.0590   30.8065   45.9923 H   0  0  0  0  0  0  0  0  0  0  0  0
  1  2  1  0
  2  3  1  0
  3  4  2  0
  4  5  1  0
  4  6  1  0
  6  7  1  0
  6  8  2  0
  8  9  1  0
  8 10  1  0
 10 11  1  0
 10 12  2  0
 12 13  1  0
 13 14  1  0
 14 15  2  0
 14 16  1  0
 16 17  2  0
 17 18  1  0
 17 19  1  0
 19 20  1  0
 19 21  2  0
 21 22  1  0
 21 23  1  0
 23 24  1  0
 23 25  2  0
 25 26  1  0
 26 27  1  0
 26 28  1  0
 28 29  1  0
 29 30  1  0
 29 31  2  0
 31 32  1  0
 31 33  1  0
 33 34  2  0
 34 35  1  0
 35 36  1  0
 35 37  2  0
 37 38  1  0
 37 39  1  0
 39 40  2  0
 40 41  1  0
 40 42  1  0
 42 43  1  0
 42 44  2  0
 44 45  1  0
 44 46  1  0
 46 47  1  0
 46 48  2  0
 48 49  1  0
 34 50  1  0
 50 51  1  0
 51 52  2  0
 52 53  1  0
 53 54  1  0
 12  3  1  0
 25 16  1  0
 53 28  2  0
 52 33  1  0
 48 39  1  0
M  CHG  2  13  -1  50  -1
M  END
>  <UniqueID>  (61) 
51

>  <SMILES>  (61) 
O=C([N-]c1cc(Cl)ccc1O)c1ccccc1Nc1ccc2c(/C=C/c3ccccc3)[n-]nc2c1

>  <Energy>  (61) 
120.97587477962546

>  <Genealogy>  (61) 
O=C([N-]c1cc(Cl)ccc1O)c1ccccc1Nc1ccc2c(C=Cc3ccccc3)[n-]nc2c1 (protonated)
O=C([N-]c1cc(Cl)ccc1O)c1ccccc1Nc1ccc2c(/C=C/c3ccccc3)[n-]nc2c1 (cis-trans isomerization)
O=C([N-]c1cc(Cl)ccc1O)c1ccccc1Nc1ccc2c(/C=C/c3ccccc3)[n-]nc2c1 (3D coordinates assigned)
O=C([N-]c1cc(Cl)ccc1O)c1ccccc1Nc1ccc2c(/C=C/c3ccccc3)[n-]nc2c1 (optimized conformer: 120.97587477962546 kcal/mol)

>  <smiles>  (61) 
O=C(Nc1cc(Cl)ccc1O)c1ccccc1Nc1ccc2c(C=Cc3ccccc3)[nH]nc2c1

>  <score_type>  (61) 
oracle

>  <origin>  (61) 
adg

>  <m_score__min__energy>  (61) 
-13.869999999999999

>  <m_primary>  (61) 
energy

$$$$
61:0
     RDKit          3D

 40 41  0  0  0  0  0  0  0  0999 V2000
   57.2850   32.7240   40.4860 C   0  0  0  0  0  0  0  0  0  0  0  0
   58.1420   32.0850   41.4050 O   0  0  0  0  0  0  0  0  0  0  0  0
   57.4290   31.8020   42.5910 C   0  0  0  0  0  0  0  0  0  0  0  0
   56.6340   30.5030   42.4240 C   0  0  0  0  0  0  0  0  0  0  0  0
   56.0660   29.9820   43.7480 C   0  0  0  0  0  0  0  0  0  0  0  0
   56.5750   30.7720   44.8660 N   0  0  0  0  0  0  0  0  0  0  0  0
   57.8010   30.5100   45.5590 C   0  0  0  0  0  0  0  0  0  0  0  0
   58.6590   31.4300   45.6400 O   0  0  0  0  0  0  0  0  0  0  0  0
   58.1060   29.1930   46.1500 C   0  0  0  0  0  0  0  0  0  0  0  0
   59.1250   29.0550   47.1040 C   0  0  0  0  0  0  0  0  0  0  0  0
   59.4210   27.7990   47.6370 C   0  0  0  0  0  0  0  0  0  0  0  0
   58.7090   26.6710   47.2220 C   0  0  0  0  0  0  0  0  0  0  0  0
   57.6850   26.7910   46.2650 C   0  0  0  0  0  0  0  0  0  0  0  0
   56.9390   25.6080   45.7810 C   0  0  0  0  0  0  0  0  0  0  0  0
   57.6330   24.5340   45.4030 O   0  0  0  0  0  0  0  0  0  0  0  0
   57.0620   23.4170   44.9600 C   0  0  0  0  0  0  0  0  0  0  0  0
   57.9170   22.2580   44.5610 C   0  0  0  0  0  0  0  0  0  0  0  0
   55.6680   23.3270   44.8700 C   0  0  0  0  0  0  0  0  0  0  0  0
   54.9000   24.4300   45.2380 C   0  0  0  0  0  0  0  0  0  0  0  0
   53.6440   24.3800   45.1540 O   0  0  0  0  0  0  0  0  0  0  0  0
   55.5320   25.5920   45.6920 C   0  0  0  0  0  0  0  0  0  0  0  0
   54.7730   26.7130   46.0160 O   0  0  0  0  0  0  0  0  0  0  0  0
   57.4080   28.0550   45.7160 C   0  0  0  0  0  0  0  0  0  0  0  0
   56.5201   33.2943   41.0334 H   0  0  0  0  0  0  0  0  0  0  0  0
   57.8700   33.4082   39.8538 H   0  0  0  0  0  0  0  0  0  0  0  0
   56.7962   31.9681   39.8538 H   0  0  0  0  0  0  0  0  0  0  0  0
   58.1376   31.6913   43.4250 H   0  0  0  0  0  0  0  0  0  0  0  0
   56.7335   32.6278   42.8013 H   0  0  0  0  0  0  0  0  0  0  0  0
   55.7994   30.6879   41.7317 H   0  0  0  0  0  0  0  0  0  0  0  0
   57.3238   29.7394   42.0355 H   0  0  0  0  0  0  0  0  0  0  0  0
   54.9685   30.0524   43.7243 H   0  0  0  0  0  0  0  0  0  0  0  0
   56.3746   28.9346   43.8813 H   0  0  0  0  0  0  0  0  0  0  0  0
   59.6921   29.9383   47.4329 H   0  0  0  0  0  0  0  0  0  0  0  0
   60.2188   27.6971   48.3874 H   0  0  0  0  0  0  0  0  0  0  0  0
   58.9501   25.6848   47.6454 H   0  0  0  0  0  0  0  0  0  0  0  0
   58.2911   21.7508   45.4626 H   0  0  0  0  0  0  0  0  0  0  0  0
   57.3218   21.5519   43.9634 H   0  0  0  0  0  0  0  0  0  0  0  0
   58.7673   22.6182   43.9634 H   0  0  0  0  0  0  0  0  0  0  0  0
   55.1878   22.4030   44.5155 H   0  0  0  0  0  0  0  0  0  0  0  0
   56.6363   28.1534   44.9383 H   0  0  0  0  0  0  0  0  0  0  0  0
  1  2  1  0
  2  3  1  0
  3  4  1  0
  4  5  1  0
  5  6  1  0
  6  7  1  0
  7  8  2  0
  7  9  1  0
  9 10  2  0
 10 11  1  0
 11 12  2  0
 12 13  1  0
 13 14  1  0
 14 15  1  0
 15 16  1  0
 16 17  1  0
 16 18  2  0
 18 19  1  0
 19 20  2  0
 19 21  1  0
 21 22  1  0
 13 23  2  0
 23  9  1  0
 21 14  2  0
  1 24  1  0
  1 25  1  0
  1 26  1  0
  3 27  1  0
  3 28  1  0
  4 29  1  0
  4 30  1  0
  5 31  1  0
  5 32  1  0
 10 33  1  0
 11 34  1  0
 12 35  1  0
 17 36  1  0
 17 37  1  0
 17 38  1  0
 18 39  1  0
 23 40  1  0
M  CHG  2   6  -1  22  -1
M  END
>  <UniqueID>  (62) 
52

>  <SMILES>  (62) 
COCCC[N-]C(=O)c1cccc(-c2oc(C)cc(=O)c2[O-])c1

>  <Energy>  (62) 
46.938764236375974

>  <Genealogy>  (62) 
COCCC[N-]C(=O)c1cccc(-c2oc(C)cc(=O)c2[O-])c1 (protonated)
COCCC[N-]C(=O)c1cccc(-c2oc(C)cc(=O)c2[O-])c1 (3D coordinates assigned)
COCCC[N-]C(=O)c1cccc(-c2oc(C)cc(=O)c2[O-])c1 (optimized conformer: 46.938764236375974 kcal/mol)

>  <smiles>  (62) 
COCCCNC(=O)c1cccc(-c2oc(C)cc(=O)c2O)c1

>  <score_type>  (62) 
oracle

>  <origin>  (62) 
adg

>  <m_score__min__energy>  (62) 
-12.289999999999999

>  <m_primary>  (62) 
energy

$$$$
62:0
     RDKit          3D

 50 52  0  0  0  0  0  0  0  0999 V2000
   56.9720   20.6010   46.1960 C   0  0  0  0  0  0  0  0  0  0  0  0
   56.9640   20.0080   44.8510 N   0  0  0  0  0  0  0  0  0  0  0  0
   55.6960   19.3110   44.6010 C   0  0  0  0  0  0  0  0  0  0  0  0
   57.2080   21.2490   43.6480 S   0  0  0  0  0  0  0  0  0  0  0  0
   56.1520   21.1470   42.5820 O   0  0  0  0  0  0  0  0  0  0  0  0
   58.5560   21.0760   43.0030 O   0  0  0  0  0  0  0  0  0  0  0  0
   57.1450   22.8400   44.4040 C   0  0  0  0  0  0  0  0  0  0  0  0
   58.2530   23.3160   45.1150 C   0  0  0  0  0  0  0  0  0  0  0  0
   58.2090   24.5690   45.7310 C   0  0  0  0  0  0  0  0  0  0  0  0
   57.0560   25.3680   45.6380 C   0  0  0  0  0  0  0  0  0  0  0  0
   56.9990   26.7000   46.2870 C   0  0  0  0  0  0  0  0  0  0  0  0
   57.4200   26.8300   47.4670 O   0  0  0  0  0  0  0  0  0  0  0  0
   56.5270   27.8640   45.5950 N   0  0  0  0  0  0  0  0  0  0  0  0
   57.1630   29.1500   45.5690 C   0  0  0  0  0  0  0  0  0  0  0  0
   58.1520   29.4350   46.5150 C   0  0  0  0  0  0  0  0  0  0  0  0
   58.7870   30.6810   46.5240 C   0  0  0  0  0  0  0  0  0  0  0  0
   58.4240   31.6690   45.5940 C   0  0  0  0  0  0  0  0  0  0  0  0
   59.0830   32.9500   45.5890 N   0  0  0  0  0  0  0  0  0  0  0  0
   58.6450   33.9920   44.6530 C   0  0  0  0  0  0  0  0  0  0  0  0
   59.2800   35.3360   45.0170 C   0  0  0  0  0  0  0  0  0  0  0  0
   59.3260   35.4650   46.4210 O   0  0  0  0  0  0  0  0  0  0  0  0
   60.3310   34.6190   46.9560 C   0  0  0  0  0  0  0  0  0  0  0  0
   60.2800   33.1710   46.4130 C   0  0  0  0  0  0  0  0  0  0  0  0
   57.4170   31.3880   44.6570 C   0  0  0  0  0  0  0  0  0  0  0  0
   56.7830   30.1420   44.6490 C   0  0  0  0  0  0  0  0  0  0  0  0
   55.9380   24.8740   44.9430 C   0  0  0  0  0  0  0  0  0  0  0  0
   55.9840   23.6200   44.3270 C   0  0  0  0  0  0  0  0  0  0  0  0
   56.9612   19.8001   46.9499 H   0  0  0  0  0  0  0  0  0  0  0  0
   57.8785   21.2112   46.3223 H   0  0  0  0  0  0  0  0  0  0  0  0
   56.0823   21.2355   46.3223 H   0  0  0  0  0  0  0  0  0  0  0  0
   57.7490   19.3190   44.7780 H   0  0  0  0  0  0  0  0  0  0  0  0
   55.2246   19.0519   45.5605 H   0  0  0  0  0  0  0  0  0  0  0  0
   55.0241   19.9666   44.0276 H   0  0  0  0  0  0  0  0  0  0  0  0
   55.8894   18.3924   44.0276 H   0  0  0  0  0  0  0  0  0  0  0  0
   59.1619   22.7009   45.1889 H   0  0  0  0  0  0  0  0  0  0  0  0
   59.0821   24.9329   46.2925 H   0  0  0  0  0  0  0  0  0  0  0  0
   58.4328   28.6737   47.2577 H   0  0  0  0  0  0  0  0  0  0  0  0
   59.5748   30.8883   47.2632 H   0  0  0  0  0  0  0  0  0  0  0  0
   58.9467   33.7129   43.6326 H   0  0  0  0  0  0  0  0  0  0  0  0
   57.5506   34.0868   44.7106 H   0  0  0  0  0  0  0  0  0  0  0  0
   60.3009   35.3822   44.6101 H   0  0  0  0  0  0  0  0  0  0  0  0
   58.6804   36.1541   44.5913 H   0  0  0  0  0  0  0  0  0  0  0  0
   61.3134   35.0479   46.7092 H   0  0  0  0  0  0  0  0  0  0  0  0
   60.1583   34.5614   48.0408 H   0  0  0  0  0  0  0  0  0  0  0  0
   61.1751   32.9864   45.8009 H   0  0  0  0  0  0  0  0  0  0  0  0
   60.2438   32.4810   47.2689 H   0  0  0  0  0  0  0  0  0  0  0  0
   57.1246   32.1540   43.9236 H   0  0  0  0  0  0  0  0  0  0  0  0
   55.9845   29.9376   43.9206 H   0  0  0  0  0  0  0  0  0  0  0  0
   55.0209   25.4784   44.8836 H   0  0  0  0  0  0  0  0  0  0  0  0
   55.1063   23.2448   43.7804 H   0  0  0  0  0  0  0  0  0  0  0  0
  1  2  1  0
  2  3  1  0
  2  4  1  0
  4  5  2  0
  4  6  2  0
  4  7  1  0
  7  8  2  0
  8  9  1  0
  9 10  2  0
 10 11  1  0
 11 12  2  0
 11 13  1  0
 13 14  1  0
 14 15  2  0
 15 16  1  0
 16 17  2  0
 17 18  1  0
 18 19  1  0
 19 20  1  0
 20 21  1  0
 21 22  1  0
 22 23  1  0
 17 24  1  0
 24 25  2  0
 10 26  1  0
 26 27  2  0
 27  7  1  0
 25 14  1  0
 23 18  1  0
  1 28  1  0
  1 29  1  0
  1 30  1  0
  2 31  1  0
  3 32  1  0
  3 33  1  0
  3 34  1  0
  8 35  1  0
  9 36  1  0
 15 37  1  0
 16 38  1  0
 19 39  1  0
 19 40  1  0
 20 41  1  0
 20 42  1  0
 22 43  1  0
 22 44  1  0
 23 45  1  0
 23 46  1  0
 24 47  1  0
 25 48  1  0
 26 49  1  0
 27 50  1  0
M  CHG  2   2   1  13  -1
M  END
>  <UniqueID>  (63) 
53

>  <SMILES>  (63) 
C[NH+](C)S(=O)(=O)c1ccc(C(=O)[N-]c2ccc(N3CCOCC3)cc2)cc1

>  <Energy>  (63) 
65.86834071569486

>  <Genealogy>  (63) 
C[NH+](C)S(=O)(=O)c1ccc(C(=O)[N-]c2ccc(N3CCOCC3)cc2)cc1 (protonated)
C[NH+](C)S(=O)(=O)c1ccc(C(=O)[N-]c2ccc(N3CCOCC3)cc2)cc1 (3D coordinates assigned)
C[NH+](C)S(=O)(=O)c1ccc(C(=O)[N-]c2ccc(N3CCOCC3)cc2)cc1 (nonaromatic ring conformer: 65.86834071569486 kcal/mol)

>  <smiles>  (63) 
CN(C)S(=O)(=O)c1ccc(C(=O)Nc2ccc(N3CCOCC3)cc2)cc1

>  <score_type>  (63) 
oracle

>  <origin>  (63) 
adg

>  <m_score__min__energy>  (63) 
-8.5600000000000005

>  <m_primary>  (63) 
energy

$$$$
63:0
     RDKit          3D

 25 26  0  0  0  0  0  0  0  0999 V2000
   55.8950   22.1240   43.0340 O   0  0  0  0  0  0  0  0  0  0  0  0
   56.3470   22.8850   43.9280 C   0  0  0  0  0  0  0  0  0  0  0  0
   55.5350   23.7860   44.5250 N   0  0  0  0  0  0  0  0  0  0  0  0
   56.0140   24.6120   45.4890 C   0  0  0  0  0  0  0  0  0  0  0  0
   55.2300   25.4410   46.0250 O   0  0  0  0  0  0  0  0  0  0  0  0
   57.3290   24.5380   45.8720 N   0  0  0  0  0  0  0  0  0  0  0  0
   57.8650   25.4540   46.8970 C   0  0  0  0  0  0  0  0  0  0  0  0
   58.1680   26.8020   46.2930 C   0  0  0  0  0  0  0  0  0  0  0  0
   59.4930   27.2560   46.2050 C   0  0  0  0  0  0  0  0  0  0  0  0
   59.7700   28.5180   45.6760 C   0  0  0  0  0  0  0  0  0  0  0  0
   58.7300   29.3410   45.2350 C   0  0  0  0  0  0  0  0  0  0  0  0
   57.3970   28.9070   45.3200 C   0  0  0  0  0  0  0  0  0  0  0  0
   56.3260   29.7570   44.8660 N   0  0  0  0  0  0  0  0  0  0  0  0
   55.1570   29.3250   44.7920 O   0  0  0  0  0  0  0  0  0  0  0  0
   56.5730   31.0630   44.5090 O   0  0  0  0  0  0  0  0  0  0  0  0
   57.1250   27.6330   45.8540 C   0  0  0  0  0  0  0  0  0  0  0  0
   58.1440   23.6220   45.2540 C   0  0  0  0  0  0  0  0  0  0  0  0
   59.3600   23.5210   45.5700 O   0  0  0  0  0  0  0  0  0  0  0  0
   57.6470   22.8040   44.2930 N   0  0  0  0  0  0  0  0  0  0  0  0
   57.1216   25.5752   47.6987 H   0  0  0  0  0  0  0  0  0  0  0  0
   58.7946   25.0288   47.3034 H   0  0  0  0  0  0  0  0  0  0  0  0
   60.3162   26.6153   46.5540 H   0  0  0  0  0  0  0  0  0  0  0  0
   60.8111   28.8660   45.6060 H   0  0  0  0  0  0  0  0  0  0  0  0
   58.9567   30.3338   44.8192 H   0  0  0  0  0  0  0  0  0  0  0  0
   56.0841   27.2850   45.9281 H   0  0  0  0  0  0  0  0  0  0  0  0
  1  2  2  0
  2  3  1  0
  3  4  1  0
  4  5  2  0
  4  6  1  0
  6  7  1  0
  7  8  1  0
  8  9  2  0
  9 10  1  0
 10 11  2  0
 11 12  1  0
 12 13  1  0
 13 14  2  0
 13 15  1  0
 12 16  2  0
  6 17  1  0
 17 18  2  0
 17 19  1  0
 19  2  1  0
 16  8  1  0
  7 20  1  0
  7 21  1  0
  9 22  1  0
 10 23  1  0
 11 24  1  0
 16 25  1  0
M  CHG  4   3  -1  13   1  15  -1  19  -1
M  END
>  <UniqueID>  (64) 
54

>  <SMILES>  (64) 
O=c1[n-]c(=O)n(Cc2cccc([N+](=O)[O-])c2)c(=O)[n-]1

>  <Energy>  (64) 
30.63166306793983

>  <Genealogy>  (64) 
O=c1[n-]c(=O)n(Cc2cccc([N+](=O)[O-])c2)c(=O)[n-]1 (protonated)
O=c1[n-]c(=O)n(Cc2cccc([N+](=O)[O-])c2)c(=O)[n-]1 (3D coordinates assigned)
O=c1[n-]c(=O)n(Cc2cccc([N+](=O)[O-])c2)c(=O)[n-]1 (optimized conformer: 30.63166306793983 kcal/mol)

>  <smiles>  (64) 
O=c1[nH]c(=O)n(Cc2cccc([N+](=O)[O-])c2)c(=O)[nH]1

>  <score_type>  (64) 
oracle

>  <origin>  (64) 
adg

>  <m_score__min__energy>  (64) 
-10.140000000000001

>  <m_primary>  (64) 
energy

$$$$
64:0
     RDKit          3D

 50 53  0  0  0  0  0  0  0  0999 V2000
   56.6810   30.6260   45.2210 N   0  0  0  0  0  0  0  0  0  0  0  0
   57.5360   32.0960   44.9100 S   0  0  0  0  0  0  0  0  0  0  0  0
   57.9100   32.1250   43.4540 O   0  0  0  0  0  0  0  0  0  0  0  0
   56.6510   33.2720   45.2110 O   0  0  0  0  0  0  0  0  0  0  0  0
   58.9970   32.1760   45.9110 C   0  0  0  0  0  0  0  0  0  0  0  0
   59.5300   33.4360   46.2290 C   0  0  0  0  0  0  0  0  0  0  0  0
   60.7040   33.5430   46.9780 C   0  0  0  0  0  0  0  0  0  0  0  0
   61.3610   32.3940   47.4180 C   0  0  0  0  0  0  0  0  0  0  0  0
   60.8400   31.1330   47.1200 C   0  0  0  0  0  0  0  0  0  0  0  0
   59.6530   31.0100   46.3780 C   0  0  0  0  0  0  0  0  0  0  0  0
   59.1300   29.6560   46.1110 C   0  0  0  0  0  0  0  0  0  0  0  0
   58.4690   28.9400   47.1190 C   0  0  0  0  0  0  0  0  0  0  0  0
   57.9560   27.6680   46.8560 C   0  0  0  0  0  0  0  0  0  0  0  0
   58.1090   27.0880   45.5860 C   0  0  0  0  0  0  0  0  0  0  0  0
   57.5390   25.7920   45.3040 N   0  0  0  0  0  0  0  0  0  0  0  0
   57.3880   25.3700   43.9050 C   0  0  0  0  0  0  0  0  0  0  0  0
   57.4230   23.8720   43.8090 C   0  0  0  0  0  0  0  0  0  0  0  0
   56.5730   23.1320   42.9730 C   0  0  0  0  0  0  0  0  0  0  0  0
   56.8290   21.7680   42.9900 C   0  0  0  0  0  0  0  0  0  0  0  0
   58.1200   21.4910   44.0300 S   0  0  0  0  0  0  0  0  0  0  0  0
   58.3640   23.0930   44.4760 C   0  0  0  0  0  0  0  0  0  0  0  0
   56.8870   25.0450   46.3540 C   0  0  0  0  0  0  0  0  0  0  0  0
   57.3960   25.0090   47.5070 O   0  0  0  0  0  0  0  0  0  0  0  0
   55.6380   24.2910   46.1010 C   0  0  0  0  0  0  0  0  0  0  0  0
   55.6310   22.8930   46.2530 C   0  0  0  0  0  0  0  0  0  0  0  0
   54.4700   22.1590   45.9970 C   0  0  0  0  0  0  0  0  0  0  0  0
   53.3020   22.8120   45.5970 C   0  0  0  0  0  0  0  0  0  0  0  0
   52.1490   22.0800   45.3370 O   0  0  0  0  0  0  0  0  0  0  0  0
   53.2910   24.2030   45.4610 C   0  0  0  0  0  0  0  0  0  0  0  0
   54.4480   24.9460   45.7210 C   0  0  0  0  0  0  0  0  0  0  0  0
   54.3980   26.3320   45.6230 O   0  0  0  0  0  0  0  0  0  0  0  0
   58.7920   27.7990   44.5860 C   0  0  0  0  0  0  0  0  0  0  0  0
   59.3050   29.0720   44.8490 C   0  0  0  0  0  0  0  0  0  0  0  0
   55.7090   30.7540   44.8570 H   0  0  0  0  0  0  0  0  0  0  0  0
   59.0181   34.3468   45.8850 H   0  0  0  0  0  0  0  0  0  0  0  0
   61.1113   34.5354   47.2214 H   0  0  0  0  0  0  0  0  0  0  0  0
   62.2902   32.4811   48.0002 H   0  0  0  0  0  0  0  0  0  0  0  0
   61.3624   30.2299   47.4685 H   0  0  0  0  0  0  0  0  0  0  0  0
   58.3541   29.3814   48.1200 H   0  0  0  0  0  0  0  0  0  0  0  0
   57.4287   27.1168   47.6486 H   0  0  0  0  0  0  0  0  0  0  0  0
   56.4264   25.7367   43.5166 H   0  0  0  0  0  0  0  0  0  0  0  0
   58.2157   25.7872   43.3127 H   0  0  0  0  0  0  0  0  0  0  0  0
   55.7800   23.5890   42.3628 H   0  0  0  0  0  0  0  0  0  0  0  0
   56.2820   21.0014   42.4216 H   0  0  0  0  0  0  0  0  0  0  0  0
   59.1320   23.4609   45.1723 H   0  0  0  0  0  0  0  0  0  0  0  0
   56.5456   22.3739   46.5756 H   0  0  0  0  0  0  0  0  0  0  0  0
   54.4759   21.0649   46.1107 H   0  0  0  0  0  0  0  0  0  0  0  0
   52.3693   24.7157   45.1484 H   0  0  0  0  0  0  0  0  0  0  0  0
   58.9240   27.3513   43.5899 H   0  0  0  0  0  0  0  0  0  0  0  0
   59.8479   29.6174   44.0630 H   0  0  0  0  0  0  0  0  0  0  0  0
  1  2  1  0
  2  3  2  0
  2  4  2  0
  2  5  1  0
  5  6  2  0
  6  7  1  0
  7  8  2  0
  8  9  1  0
  9 10  2  0
 10 11  1  0
 11 12  2  0
 12 13  1  0
 13 14  2  0
 14 15  1  0
 15 16  1  0
 16 17  1  0
 17 18  1  0
 18 19  2  0
 19 20  1  0
 20 21  1  0
 15 22  1  0
 22 23  2  0
 22 24  1  0
 24 25  2  0
 25 26  1  0
 26 27  2  0
 27 28  1  0
 27 29  1  0
 29 30  2  0
 30 31  1  0
 14 32  1  0
 32 33  2  0
 10  5  1  0
 33 11  1  0
 21 17  2  0
 30 24  1  0
  1 34  1  0
  6 35  1  0
  7 36  1  0
  8 37  1  0
  9 38  1  0
 12 39  1  0
 13 40  1  0
 16 41  1  0
 16 42  1  0
 18 43  1  0
 19 44  1  0
 21 45  1  0
 25 46  1  0
 26 47  1  0
 29 48  1  0
 32 49  1  0
 33 50  1  0
M  CHG  3   1  -1  28  -1  31  -1
M  END
>  <UniqueID>  (65) 
55

>  <SMILES>  (65) 
[NH-]S(=O)(=O)c1ccccc1-c1ccc(N(Cc2ccsc2)C(=O)c2ccc([O-])cc2[O-])cc1

>  <Energy>  (65) 
96.16540251157126

>  <Genealogy>  (65) 
[NH-]S(=O)(=O)c1ccccc1-c1ccc(N(Cc2ccsc2)C(=O)c2ccc([O-])cc2[O-])cc1 (protonated)
[NH-]S(=O)(=O)c1ccccc1-c1ccc(N(Cc2ccsc2)C(=O)c2ccc([O-])cc2[O-])cc1 (3D coordinates assigned)
[NH-]S(=O)(=O)c1ccccc1-c1ccc(N(Cc2ccsc2)C(=O)c2ccc([O-])cc2[O-])cc1 (optimized conformer: 96.16540251157126 kcal/mol)

>  <smiles>  (65) 
NS(=O)(=O)c1ccccc1-c1ccc(N(Cc2ccsc2)C(=O)c2ccc(O)cc2O)cc1

>  <score_type>  (65) 
oracle

>  <origin>  (65) 
adg

>  <m_score__min__energy>  (65) 
-16.489999999999998

>  <m_primary>  (65) 
energy

$$$$
65:0
     RDKit          3D

 42 44  0  0  0  0  0  0  0  0999 V2000
   64.6136   34.5353   47.6914 H   0  0  0  0  0  0  0  0  0  0  0  0
   63.7440   33.8680   47.7840 C   0  0  0  0  0  0  0  0  0  0  0  0
   62.6690   34.1750   48.5590 N   0  0  0  0  0  0  0  0  0  0  0  0
   61.7290   33.2080   48.5180 C   0  0  0  0  0  0  0  0  0  0  0  0
   60.6140   33.3070   49.1820 N   0  0  0  0  0  0  0  0  0  0  0  0
   59.2770   33.0770   48.7030 C   0  0  0  0  0  0  0  0  0  0  0  0
   58.3630   32.7140   49.4920 O   0  0  0  0  0  0  0  0  0  0  0  0
   58.9750   33.2580   47.2630 C   0  0  0  0  0  0  0  0  0  0  0  0
   59.1970   34.4950   46.6330 C   0  0  0  0  0  0  0  0  0  0  0  0
   59.6294   35.3293   47.2047 H   0  0  0  0  0  0  0  0  0  0  0  0
   58.8720   34.6720   45.2850 C   0  0  0  0  0  0  0  0  0  0  0  0
   59.0578   35.6410   44.7987 H   0  0  0  0  0  0  0  0  0  0  0  0
   58.3120   33.6220   44.5540 C   0  0  0  0  0  0  0  0  0  0  0  0
   58.0502   33.7686   43.4957 H   0  0  0  0  0  0  0  0  0  0  0  0
   58.0830   32.3830   45.1650 C   0  0  0  0  0  0  0  0  0  0  0  0
   57.3550   31.0650   44.2460 S   0  0  0  0  0  0  0  0  0  0  0  0
   55.8720   31.0300   44.4850 O   0  0  0  0  0  0  0  0  0  0  0  0
   57.6170   31.3020   42.7850 O   0  0  0  0  0  0  0  0  0  0  0  0
   58.0350   29.5150   44.7430 C   0  0  0  0  0  0  0  0  0  0  0  0
   59.4140   29.3670   44.9220 C   0  0  0  0  0  0  0  0  0  0  0  0
   60.0883   30.2096   44.7092 H   0  0  0  0  0  0  0  0  0  0  0  0
   59.9370   28.1530   45.3700 C   0  0  0  0  0  0  0  0  0  0  0  0
   61.0240   28.0430   45.4982 H   0  0  0  0  0  0  0  0  0  0  0  0
   59.0900   27.0700   45.6590 C   0  0  0  0  0  0  0  0  0  0  0  0
   59.6970   25.7820   46.1520 C   0  0  0  0  0  0  0  0  0  0  0  0
   59.7001   25.7755   47.2520 H   0  0  0  0  0  0  0  0  0  0  0  0
   59.1046   24.9322   45.7820 H   0  0  0  0  0  0  0  0  0  0  0  0
   60.7295   25.6980   45.7820 H   0  0  0  0  0  0  0  0  0  0  0  0
   57.6960   27.2070   45.4550 C   0  0  0  0  0  0  0  0  0  0  0  0
   56.5610   25.9000   45.8260 S   0  0  0  0  0  0  0  0  0  0  0  0
   56.9600   25.2110   47.1010 O   0  0  0  0  0  0  0  0  0  0  0  0
   55.1750   26.4540   45.9990 O   0  0  0  0  0  0  0  0  0  0  0  0
   56.5730   24.7480   44.5360 N   0  0  0  0  0  0  0  0  0  0  0  0
   56.3360   25.2660   43.6610 H   0  0  0  0  0  0  0  0  0  0  0  0
   57.5570   24.4130   44.4320 H   0  0  0  0  0  0  0  0  0  0  0  0
   57.1860   28.4300   44.9900 C   0  0  0  0  0  0  0  0  0  0  0  0
   56.1049   28.5367   44.8176 H   0  0  0  0  0  0  0  0  0  0  0  0
   58.4350   32.1990   46.5100 C   0  0  0  0  0  0  0  0  0  0  0  0
   58.2874   31.2162   46.9814 H   0  0  0  0  0  0  0  0  0  0  0  0
   62.1950   31.9340   47.5140 S   0  0  0  0  0  0  0  0  0  0  0  0
   63.6650   32.6500   47.1170 C   0  0  0  0  0  0  0  0  0  0  0  0
   64.4294   32.2288   46.4475 H   0  0  0  0  0  0  0  0  0  0  0  0
  1  2  1  0
  2  3  1  0
  3  4  1  0
  4  5  2  0
  5  6  1  0
  6  7  2  0
  6  8  1  0
  8  9  2  0
  9 10  1  0
  9 11  1  0
 11 12  1  0
 11 13  2  0
 13 14  1  0
 13 15  1  0
 15 16  1  0
 16 17  2  0
 16 18  2  0
 16 19  1  0
 19 20  2  0
 20 21  1  0
 20 22  1  0
 22 23  1  0
 22 24  2  0
 24 25  1  0
 25 26  1  0
 25 27  1  0
 25 28  1  0
 24 29  1  0
 29 30  1  0
 30 31  2  0
 30 32  2  0
 30 33  1  0
 33 34  1  0
 33 35  1  0
 29 36  2  0
 36 37  1  0
 15 38  2  0
 38 39  1  0
  4 40  1  0
 40 41  1  0
 41 42  1  0
 41  2  2  0
 38  8  1  0
 36 19  1  0
M  CHG  1   3  -1
M  END
>  <UniqueID>  (66) 
56

>  <SMILES>  (66) 
Cc1ccc(S(=O)(=O)c2cccc(C(=O)/N=c3/[n-]ccs3)c2)cc1S(N)(=O)=O

>  <Energy>  (66) 
80.32584432354764

>  <Genealogy>  (66) 
Cc1ccc(S(=O)(=O)c2cccc(C(=O)N=c3[n-]ccs3)c2)cc1S(N)(=O)=O (protonated)
Cc1ccc(S(=O)(=O)c2cccc(C(=O)/N=c3/[n-]ccs3)c2)cc1S(N)(=O)=O (cis-trans isomerization)
Cc1ccc(S(=O)(=O)c2cccc(C(=O)/N=c3/[n-]ccs3)c2)cc1S(N)(=O)=O (3D coordinates assigned)
Cc1ccc(S(=O)(=O)c2cccc(C(=O)/N=c3/[n-]ccs3)c2)cc1S(N)(=O)=O (optimized conformer: 80.32584432354764 kcal/mol)

>  <smiles>  (66) 
Cc1ccc(S(=O)(=O)c2cccc(C(=O)N=c3[nH]ccs3)c2)cc1S(N)(=O)=O

>  <score_type>  (66) 
oracle

>  <origin>  (66) 
adg

>  <m_score__min__energy>  (66) 
-12.06

>  <m_primary>  (66) 
energy

$$$$
66:0
     RDKit          3D

 41 43  0  0  1  0  0  0  0  0999 V2000
   61.1330   30.2800   46.7010 O   0  0  0  0  0  0  0  0  0  0  0  0
   60.8800   31.2410   47.5220 C   0  0  0  0  0  0  0  0  0  0  0  0
   60.9110   32.5700   46.9190 C   0  0  0  0  0  0  0  0  0  0  0  0
   59.5230   32.7950   46.3130 C   0  0  0  0  0  0  0  0  0  0  0  0
   58.8940   34.0110   46.5080 C   0  0  0  0  0  0  0  0  0  0  0  0
   57.6430   34.2020   45.9560 C   0  0  0  0  0  0  0  0  0  0  0  0
   57.0220   33.1950   45.2200 C   0  0  0  0  0  0  0  0  0  0  0  0
   57.6600   31.9880   45.0340 C   0  0  0  0  0  0  0  0  0  0  0  0
   56.9670   30.6720   44.1320 S   0  0  0  0  0  0  0  0  0  0  0  0
   56.6500   31.1360   42.7520 O   0  0  0  0  0  0  0  0  0  0  0  0
   55.7230   30.1420   44.7650 O   0  0  0  0  0  0  0  0  0  0  0  0
   58.1140   29.3660   44.1020 N   0  0  0  0  0  0  0  0  0  0  0  0
   58.0280   28.3080   45.0350 C   0  0  0  0  0  0  0  0  0  0  0  0
   59.1180   27.8270   45.7370 C   0  0  0  0  0  0  0  0  0  0  0  0
   58.9650   26.7840   46.6400 C   0  0  0  0  0  0  0  0  0  0  0  0
   59.9580   26.3590   47.2680 O   0  0  0  0  0  0  0  0  0  0  0  0
   57.7170   26.2740   46.7910 N   0  0  0  0  0  0  0  0  0  0  0  0
   56.6550   26.7280   46.1220 C   0  0  0  0  0  0  0  0  0  0  0  0
   55.5010   26.2350   46.2810 O   0  0  0  0  0  0  0  0  0  0  0  0
   56.8000   27.7540   45.2320 N   0  0  0  0  0  0  0  0  0  0  0  0
   58.9100   31.7990   45.5860 C   0  0  0  0  0  0  0  0  0  0  0  0
   60.6280   30.8310   48.8260 N   0  0  0  0  0  0  0  0  0  0  0  0
   60.6700   29.6880   49.3410 C   0  0  0  0  0  0  0  0  0  0  0  0
   60.7610   29.4010   50.6670 C   0  0  0  0  0  0  0  0  0  0  0  0
   60.7770   28.0280   50.7670 C   0  0  0  0  0  0  0  0  0  0  0  0
   60.6960   27.5330   49.5220 N   0  0  0  0  0  0  0  0  0  0  0  0
   60.6310   28.5300   48.6510 N   0  0  0  0  0  0  0  0  0  0  0  0
   61.1212   33.3315   47.6845 H   0  0  0  0  0  0  0  0  0  0  0  0
   61.6994   32.6462   46.1557 H   0  0  0  0  0  0  0  0  0  0  0  0
   59.3795   34.8083   47.0899 H   0  0  0  0  0  0  0  0  0  0  0  0
   57.1288   35.1638   46.0994 H   0  0  0  0  0  0  0  0  0  0  0  0
   56.0243   33.3633   44.7883 H   0  0  0  0  0  0  0  0  0  0  0  0
   58.8710   29.3890   43.3710 H   0  0  0  0  0  0  0  0  0  0  0  0
   60.1110   28.2731   45.5791 H   0  0  0  0  0  0  0  0  0  0  0  0
   57.5580   25.4880   47.4610 H   0  0  0  0  0  0  0  0  0  0  0  0
   55.9480   28.0760   44.7330 H   0  0  0  0  0  0  0  0  0  0  0  0
   59.4252   30.8376   45.4432 H   0  0  0  0  0  0  0  0  0  0  0  0
   60.8118   30.1228   51.4955 H   0  0  0  0  0  0  0  0  0  0  0  0
   60.8439   27.4438   51.6967 H   0  0  0  0  0  0  0  0  0  0  0  0
   60.6890   26.4970   49.3290 H   0  0  0  0  0  0  0  0  0  0  0  0
   60.5610   28.4090   47.5990 H   0  0  0  0  0  0  0  0  0  0  0  0
  1  2  2  0
  2  3  1  0
  3  4  1  0
  4  5  2  0
  5  6  1  0
  6  7  2  0
  7  8  1  0
  8  9  1  0
  9 10  2  0
  9 11  2  0
  9 12  1  0
 12 13  1  0
 13 14  2  0
 14 15  1  0
 15 16  2  0
 15 17  1  0
 17 18  1  0
 18 19  2  0
 18 20  1  0
  8 21  2  0
  2 22  1  0
 22 23  2  0
 23 24  1  0
 24 25  2  0
 25 26  1  0
 26 27  1  0
 21  4  1  0
 27 23  1  0
 20 13  1  0
  3 28  1  0
  3 29  1  0
  5 30  1  0
  6 31  1  0
  7 32  1  0
 12 33  1  0
 14 34  1  0
 17 35  1  0
 20 36  1  0
 21 37  1  0
 24 38  1  0
 25 39  1  0
 26 40  1  0
 27 41  1  0
M  END
>  <smiles>  (67) 
O=C(Cc1cccc(S(=O)(=O)Nc2cc(=O)[nH]c(=O)[nH]2)c1)N=c1cc[nH][nH]1

>  <score_type>  (67) 
oracle

>  <origin>  (67) 
adg

>  <m_score__min__energy>  (67) 
-9.7899999999999991

>  <m_primary>  (67) 
energy

$$$$
67:0
     RDKit          3D

 46 48  0  0  0  0  0  0  0  0999 V2000
   56.2340   33.7410   45.2130 H   0  0  0  0  0  0  0  0  0  0  0  0
   57.0270   33.2100   44.7860 N   0  0  0  0  0  0  0  0  0  0  0  0
   57.2530   31.9690   45.0860 C   0  0  0  0  0  0  0  0  0  0  0  0
   56.5820   30.9890   44.4230 N   0  0  0  0  0  0  0  0  0  0  0  0
   56.7510   29.6720   44.7100 C   0  0  0  0  0  0  0  0  0  0  0  0
   56.1935   28.9125   44.1422 H   0  0  0  0  0  0  0  0  0  0  0  0
   57.6330   29.2750   45.7270 C   0  0  0  0  0  0  0  0  0  0  0  0
   57.8190   27.8410   46.0600 C   0  0  0  0  0  0  0  0  0  0  0  0
   59.0860   27.3540   46.4290 C   0  0  0  0  0  0  0  0  0  0  0  0
   59.9478   28.0371   46.4562 H   0  0  0  0  0  0  0  0  0  0  0  0
   59.2560   26.0080   46.7610 C   0  0  0  0  0  0  0  0  0  0  0  0
   60.2484   25.6381   47.0583 H   0  0  0  0  0  0  0  0  0  0  0  0
   58.1710   25.1300   46.7170 C   0  0  0  0  0  0  0  0  0  0  0  0
   58.3089   24.0746   46.9948 H   0  0  0  0  0  0  0  0  0  0  0  0
   56.9090   25.5870   46.3210 C   0  0  0  0  0  0  0  0  0  0  0  0
   55.8130   24.6620   46.3060 N   0  0  0  0  0  0  0  0  0  0  0  0
   54.5610   24.8310   45.6270 C   0  0  0  0  0  0  0  0  0  0  0  0
   54.0010   25.9570   45.6540 O   0  0  0  0  0  0  0  0  0  0  0  0
   53.8790   23.6980   44.9220 C   0  0  0  0  0  0  0  0  0  0  0  0
   53.4605   23.0028   45.6647 H   0  0  0  0  0  0  0  0  0  0  0  0
   53.0684   24.0930   44.2919 H   0  0  0  0  0  0  0  0  0  0  0  0
   54.6074   23.1666   44.2919 H   0  0  0  0  0  0  0  0  0  0  0  0
   56.7310   26.9480   46.0190 C   0  0  0  0  0  0  0  0  0  0  0  0
   55.7317   27.3194   45.7479 H   0  0  0  0  0  0  0  0  0  0  0  0
   58.3370   30.2710   46.4220 C   0  0  0  0  0  0  0  0  0  0  0  0
   59.0345   29.9840   47.2227 H   0  0  0  0  0  0  0  0  0  0  0  0
   58.1630   31.6280   46.1090 C   0  0  0  0  0  0  0  0  0  0  0  0
   58.9280   32.6540   46.8630 C   0  0  0  0  0  0  0  0  0  0  0  0
   58.5010   33.9910   46.8890 C   0  0  0  0  0  0  0  0  0  0  0  0
   57.5826   34.2832   46.3587 H   0  0  0  0  0  0  0  0  0  0  0  0
   59.2370   34.9510   47.5850 C   0  0  0  0  0  0  0  0  0  0  0  0
   58.8906   35.9947   47.6111 H   0  0  0  0  0  0  0  0  0  0  0  0
   60.4110   34.5910   48.2480 C   0  0  0  0  0  0  0  0  0  0  0  0
   60.9830   35.3534   48.7971 H   0  0  0  0  0  0  0  0  0  0  0  0
   60.8680   33.2640   48.2200 C   0  0  0  0  0  0  0  0  0  0  0  0
   62.0890   32.9300   48.9060 N   0  0  0  0  0  0  0  0  0  0  0  0
   62.0680   32.8140   49.9430 H   0  0  0  0  0  0  0  0  0  0  0  0
   63.6480   32.8550   48.1450 S   0  0  0  0  0  0  0  0  0  0  0  0
   63.8500   34.0550   47.2630 O   0  0  0  0  0  0  0  0  0  0  0  0
   63.7150   31.6150   47.2980 O   0  0  0  0  0  0  0  0  0  0  0  0
   64.9330   32.7650   49.3760 C   0  0  0  0  0  0  0  0  0  0  0  0
   64.4827   32.7965   50.3791 H   0  0  0  0  0  0  0  0  0  0  0  0
   65.4921   31.8255   49.2544 H   0  0  0  0  0  0  0  0  0  0  0  0
   65.6176   33.6174   49.2544 H   0  0  0  0  0  0  0  0  0  0  0  0
   60.1120   32.2980   47.5320 C   0  0  0  0  0  0  0  0  0  0  0  0
   60.4511   31.2517   47.5172 H   0  0  0  0  0  0  0  0  0  0  0  0
  1  2  1  0
  2  3  2  0
  3  4  1  0
  4  5  1  0
  5  6  1  0
  5  7  2  0
  7  8  1  0
  8  9  2  0
  9 10  1  0
  9 11  1  0
 11 12  1  0
 11 13  2  0
 13 14  1  0
 13 15  1  0
 15 16  1  0
 16 17  1  0
 17 18  2  0
 17 19  1  0
 19 20  1  0
 19 21  1  0
 19 22  1  0
 15 23  2  0
 23 24  1  0
  7 25  1  0
 25 26  1  0
 25 27  2  0
 27 28  1  0
 28 29  2  0
 29 30  1  0
 29 31  1  0
 31 32  1  0
 31 33  2  0
 33 34  1  0
 33 35  1  0
 35 36  1  0
 36 37  1  0
 36 38  1  0
 38 39  2  0
 38 40  2  0
 38 41  1  0
 41 42  1  0
 41 43  1  0
 41 44  1  0
 35 45  2  0
 45 46  1  0
 27  3  1  0
 45 28  1  0
 23  8  1  0
M  CHG  2   4  -1  16  -1
M  END
>  <UniqueID>  (68) 
57

>  <SMILES>  (68) 
[H]/N=c1\[n-]cc(-c2cccc([N-]C(C)=O)c2)cc1-c1cccc(NS(C)(=O)=O)c1

>  <Energy>  (68) 
62.81377480005531

>  <Genealogy>  (68) 
CC(=O)[N-]c1cccc(-c2c[n-]c(=N)c(-c3cccc(NS(C)(=O)=O)c3)c2)c1 (protonated)
[H]/N=c1\[n-]cc(-c2cccc([N-]C(C)=O)c2)cc1-c1cccc(NS(C)(=O)=O)c1 (cis-trans isomerization)
[H]/N=c1\[n-]cc(-c2cccc([N-]C(C)=O)c2)cc1-c1cccc(NS(C)(=O)=O)c1 (3D coordinates assigned)
[H]/N=c1\[n-]cc(-c2cccc([N-]C(C)=O)c2)cc1-c1cccc(NS(C)(=O)=O)c1 (optimized conformer: 62.81377480005531 kcal/mol)

>  <smiles>  (68) 
CC(=O)Nc1cccc(-c2c[nH]c(=N)c(-c3cccc(NS(C)(=O)=O)c3)c2)c1

>  <score_type>  (68) 
oracle

>  <origin>  (68) 
adg

>  <m_score__min__energy>  (68) 
-11.949999999999999

>  <m_primary>  (68) 
energy

$$$$
68:0
     RDKit          3D

 70 73  0  0  0  0  0  0  0  0999 V2000
   59.3160   31.1180   52.6180 C   0  0  0  0  0  0  0  0  0  0  0  0
   58.0810   31.3850   51.3680 S   0  0  0  0  0  0  0  0  0  0  0  0
   57.4270   32.7190   51.6150 O   0  0  0  0  0  0  0  0  0  0  0  0
   57.0380   30.3070   51.4620 O   0  0  0  0  0  0  0  0  0  0  0  0
   58.8270   31.3210   49.8000 N   0  0  0  0  0  0  0  0  0  0  0  0
   58.8480   32.4290   48.8850 C   0  0  0  0  0  0  0  0  0  0  0  0
   59.7140   33.5060   49.1240 C   0  0  0  0  0  0  0  0  0  0  0  0
   59.7570   34.5880   48.2420 C   0  0  0  0  0  0  0  0  0  0  0  0
   58.9300   34.6080   47.1160 C   0  0  0  0  0  0  0  0  0  0  0  0
   58.0690   33.5310   46.8530 C   0  0  0  0  0  0  0  0  0  0  0  0
   57.1300   33.5700   45.6720 C   0  0  0  0  0  0  0  0  0  0  0  0
   57.4170   32.4630   44.6390 C   0  0  0  0  0  0  0  0  0  0  0  0
   57.1380   31.1230   45.1580 N   0  0  0  0  0  0  0  0  0  0  0  0
   57.9930   29.9890   44.9980 C   0  0  0  0  0  0  0  0  0  0  0  0
   58.2670   29.5480   43.8510 O   0  0  0  0  0  0  0  0  0  0  0  0
   58.6280   29.4030   46.1890 C   0  0  0  0  0  0  0  0  0  0  0  0
   59.6430   30.1610   46.7920 C   0  0  0  0  0  0  0  0  0  0  0  0
   60.2990   29.6990   47.8850 N   0  0  0  0  0  0  0  0  0  0  0  0
   60.0220   28.4900   48.4410 C   0  0  0  0  0  0  0  0  0  0  0  0
   60.7470   28.0720   49.6680 C   0  0  0  0  0  0  0  0  0  0  0  0
   60.7920   26.7200   50.0690 C   0  0  0  0  0  0  0  0  0  0  0  0
   61.4540   26.3530   51.2430 C   0  0  0  0  0  0  0  0  0  0  0  0
   62.0720   27.3250   52.0310 C   0  0  0  0  0  0  0  0  0  0  0  0
   62.0490   28.6640   51.6350 C   0  0  0  0  0  0  0  0  0  0  0  0
   61.3930   29.0370   50.4600 C   0  0  0  0  0  0  0  0  0  0  0  0
   59.0060   27.6990   47.8820 C   0  0  0  0  0  0  0  0  0  0  0  0
   58.2750   28.1500   46.7710 C   0  0  0  0  0  0  0  0  0  0  0  0
   57.2690   27.4030   46.3960 N   0  0  0  0  0  0  0  0  0  0  0  0
   57.1430   26.4900   45.2620 C   0  0  0  0  0  0  0  0  0  0  0  0
   56.0870   25.4530   45.5430 C   0  0  0  0  0  0  0  0  0  0  0  0
   55.1540   25.7350   46.3430 O   0  0  0  0  0  0  0  0  0  0  0  0
   56.0870   24.1800   44.8620 N   0  0  0  0  0  0  0  0  0  0  0  0
   56.9390   23.9720   43.6770 C   0  0  0  0  0  0  0  0  0  0  0  0
   56.6200   22.6480   42.9720 C   0  0  0  0  0  0  0  0  0  0  0  0
   56.6480   21.4730   43.9690 C   0  0  0  0  0  0  0  0  0  0  0  0
   56.1460   20.3140   43.3520 O   0  0  0  0  0  0  0  0  0  0  0  0
   55.8470   21.7570   45.2640 C   0  0  0  0  0  0  0  0  0  0  0  0
   55.1500   23.1230   45.2730 C   0  0  0  0  0  0  0  0  0  0  0  0
   58.0560   32.4310   47.7260 C   0  0  0  0  0  0  0  0  0  0  0  0
   58.8579   31.2170   53.6131 H   0  0  0  0  0  0  0  0  0  0  0  0
   59.7374   30.1080   52.5072 H   0  0  0  0  0  0  0  0  0  0  0  0
   60.1170   31.8637   52.5072 H   0  0  0  0  0  0  0  0  0  0  0  0
   59.5120   30.5480   49.6500 H   0  0  0  0  0  0  0  0  0  0  0  0
   60.3635   33.4984   50.0118 H   0  0  0  0  0  0  0  0  0  0  0  0
   60.4432   35.4260   48.4341 H   0  0  0  0  0  0  0  0  0  0  0  0
   58.9537   35.4704   46.4335 H   0  0  0  0  0  0  0  0  0  0  0  0
   56.1000   33.4490   46.0387 H   0  0  0  0  0  0  0  0  0  0  0  0
   57.2749   34.5368   45.1677 H   0  0  0  0  0  0  0  0  0  0  0  0
   56.7879   32.6359   43.7533 H   0  0  0  0  0  0  0  0  0  0  0  0
   58.4877   32.5081   44.3910 H   0  0  0  0  0  0  0  0  0  0  0  0
   59.9099   31.1423   46.3728 H   0  0  0  0  0  0  0  0  0  0  0  0
   60.3030   25.9505   49.4536 H   0  0  0  0  0  0  0  0  0  0  0  0
   61.4883   25.2964   51.5468 H   0  0  0  0  0  0  0  0  0  0  0  0
   62.5774   27.0363   52.9644 H   0  0  0  0  0  0  0  0  0  0  0  0
   62.5488   29.4267   52.2501 H   0  0  0  0  0  0  0  0  0  0  0  0
   61.3817   30.0930   50.1522 H   0  0  0  0  0  0  0  0  0  0  0  0
   58.7800   26.7151   48.3190 H   0  0  0  0  0  0  0  0  0  0  0  0
   56.8615   27.0614   44.3652 H   0  0  0  0  0  0  0  0  0  0  0  0
   58.1068   25.9854   45.0990 H   0  0  0  0  0  0  0  0  0  0  0  0
   56.7756   24.7997   42.9712 H   0  0  0  0  0  0  0  0  0  0  0  0
   57.9866   23.9382   44.0106 H   0  0  0  0  0  0  0  0  0  0  0  0
   55.6193   22.7128   42.5198 H   0  0  0  0  0  0  0  0  0  0  0  0
   57.3809   22.4700   42.1978 H   0  0  0  0  0  0  0  0  0  0  0  0
   57.6983   21.3303   44.2630 H   0  0  0  0  0  0  0  0  0  0  0  0
   56.8260   19.6020   43.4800 H   0  0  0  0  0  0  0  0  0  0  0  0
   55.0807   20.9758   45.3763 H   0  0  0  0  0  0  0  0  0  0  0  0
   56.5693   21.7602   46.0936 H   0  0  0  0  0  0  0  0  0  0  0  0
   54.3001   23.1007   44.5751 H   0  0  0  0  0  0  0  0  0  0  0  0
   54.7966   23.3364   46.2926 H   0  0  0  0  0  0  0  0  0  0  0  0
   57.4194   31.5630   47.4995 H   0  0  0  0  0  0  0  0  0  0  0  0
  1  2  1  0
  2  3  2  0
  2  4  2  0
  2  5  1  0
  5  6  1  0
  6  7  2  0
  7  8  1  0
  8  9  2  0
  9 10  1  0
 10 11  1  0
 11 12  1  0
 12 13  1  0
 13 14  1  0
 14 15  2  0
 14 16  1  0
 16 17  2  0
 17 18  1  0
 18 19  1  0
 19 20  1  0
 20 21  2  0
 21 22  1  0
 22 23  2  0
 23 24  1  0
 24 25  2  0
 19 26  2  0
 26 27  1  0
 27 28  2  3
 28 29  1  0
 29 30  1  0
 30 31  2  0
 30 32  1  0
 32 33  1  0
 33 34  1  0
 34 35  1  0
 35 36  1  0
 35 37  1  0
 37 38  1  0
 10 39  2  0
 39  6  1  0
 27 16  1  0
 38 32  1  0
 25 20  1  0
  1 40  1  0
  1 41  1  0
  1 42  1  0
  5 43  1  0
  7 44  1  0
  8 45  1  0
  9 46  1  0
 11 47  1  0
 11 48  1  0
 12 49  1  0
 12 50  1  0
 17 51  1  0
 21 52  1  0
 22 53  1  0
 23 54  1  0
 24 55  1  0
 25 56  1  0
 26 57  1  0
 29 58  1  0
 29 59  1  0
 33 60  1  0
 33 61  1  0
 34 62  1  0
 34 63  1  0
 35 64  1  0
 36 65  1  0
 37 66  1  0
 37 67  1  0
 38 68  1  0
 38 69  1  0
 39 70  1  0
M  CHG  2  13  -1  18  -1
M  END
>  <UniqueID>  (69) 
58

>  <SMILES>  (69) 
CS(=O)(=O)Nc1cccc(CC[N-]C(=O)c2c[n-]c(-c3ccccc3)cc2=NCC(=O)N2CCC(O)CC2)c1

>  <Energy>  (69) 
90.52601859296347

>  <Genealogy>  (69) 
CS(=O)(=O)Nc1cccc(CC[N-]C(=O)c2c[n-]c(-c3ccccc3)cc2=NCC(=O)N2CCC(O)CC2)c1 (protonated)
CS(=O)(=O)Nc1cccc(CC[N-]C(=O)c2c[n-]c(-c3ccccc3)cc2=NCC(=O)N2CCC(O)CC2)c1 (3D coordinates assigned)
CS(=O)(=O)Nc1cccc(CC[N-]C(=O)c2c[n-]c(-c3ccccc3)cc2=NCC(=O)N2CCC(O)CC2)c1 (nonaromatic ring conformer: 90.52601859296347 kcal/mol)

>  <smiles>  (69) 
CS(=O)(=O)Nc1cccc(CCNC(=O)c2c[nH]c(-c3ccccc3)cc2=NCC(=O)N2CCC(O)CC2)c1

>  <score_type>  (69) 
oracle

>  <origin>  (69) 
adg

>  <m_score__min__energy>  (69) 
-12.779999999999999

>  <m_primary>  (69) 
energy

$$$$
69:0
     RDKit          3D

 39 40  0  0  0  0  0  0  0  0999 V2000
   57.2250   24.6950   45.0550 C   0  0  0  0  0  0  0  0  0  0  0  0
   56.7670   25.2530   46.7280 S   0  0  0  0  0  0  0  0  0  0  0  0
   58.3740   26.0310   47.1170 C   0  0  0  0  0  0  0  0  0  0  0  0
   58.6290   27.2080   46.2170 C   0  0  0  0  0  0  0  0  0  0  0  0
   59.9440   27.5600   45.8720 C   0  0  0  0  0  0  0  0  0  0  0  0
   60.1840   28.6490   45.0300 C   0  0  0  0  0  0  0  0  0  0  0  0
   59.1140   29.3910   44.5220 C   0  0  0  0  0  0  0  0  0  0  0  0
   57.7980   29.0450   44.8510 C   0  0  0  0  0  0  0  0  0  0  0  0
   56.4600   30.0040   44.2230 S   0  0  0  0  0  0  0  0  0  0  0  0
   55.1490   29.3490   44.5600 O   0  0  0  0  0  0  0  0  0  0  0  0
   56.5800   30.0760   42.7270 O   0  0  0  0  0  0  0  0  0  0  0  0
   56.4830   31.6220   44.8690 N   0  0  0  0  0  0  0  0  0  0  0  0
   57.6970   32.3430   44.4800 C   0  0  0  0  0  0  0  0  0  0  0  0
   58.4410   32.8610   45.6830 C   0  0  0  0  0  0  0  0  0  0  0  0
   59.2530   32.0090   46.4450 C   0  0  0  0  0  0  0  0  0  0  0  0
   59.9240   32.5030   47.5630 C   0  0  0  0  0  0  0  0  0  0  0  0
   59.7780   33.8500   47.9180 C   0  0  0  0  0  0  0  0  0  0  0  0
   60.5240   34.4000   49.0970 C   0  0  0  0  0  0  0  0  0  0  0  0
   59.0070   34.6720   47.1500 N   0  0  0  0  0  0  0  0  0  0  0  0
   58.3410   34.2080   46.0560 C   0  0  0  0  0  0  0  0  0  0  0  0
   57.5580   27.9520   45.6960 C   0  0  0  0  0  0  0  0  0  0  0  0
   57.9213   23.8467   45.1292 H   0  0  0  0  0  0  0  0  0  0  0  0
   56.3209   24.3809   44.5129 H   0  0  0  0  0  0  0  0  0  0  0  0
   57.7093   25.5206   44.5129 H   0  0  0  0  0  0  0  0  0  0  0  0
   58.3659   26.3718   48.1628 H   0  0  0  0  0  0  0  0  0  0  0  0
   59.1715   25.2894   46.9621 H   0  0  0  0  0  0  0  0  0  0  0  0
   60.7887   26.9760   46.2663 H   0  0  0  0  0  0  0  0  0  0  0  0
   61.2163   28.9227   44.7666 H   0  0  0  0  0  0  0  0  0  0  0  0
   59.3065   30.2494   43.8617 H   0  0  0  0  0  0  0  0  0  0  0  0
   58.3537   31.6611   43.9199 H   0  0  0  0  0  0  0  0  0  0  0  0
   57.4039   33.2024   43.8591 H   0  0  0  0  0  0  0  0  0  0  0  0
   59.3606   30.9517   46.1611 H   0  0  0  0  0  0  0  0  0  0  0  0
   60.5641   31.8389   48.1625 H   0  0  0  0  0  0  0  0  0  0  0  0
   60.0501   34.0506   50.0262 H   0  0  0  0  0  0  0  0  0  0  0  0
   61.5675   34.0535   49.0648 H   0  0  0  0  0  0  0  0  0  0  0  0
   60.5015   35.4993   49.0648 H   0  0  0  0  0  0  0  0  0  0  0  0
   58.9150   35.6830   47.3970 H   0  0  0  0  0  0  0  0  0  0  0  0
   57.7208   34.8951   45.4616 H   0  0  0  0  0  0  0  0  0  0  0  0
   56.5246   27.6757   45.9523 H   0  0  0  0  0  0  0  0  0  0  0  0
  1  2  1  0
  2  3  1  0
  3  4  1  0
  4  5  2  0
  5  6  1  0
  6  7  2  0
  7  8  1  0
  8  9  1  0
  9 10  2  0
  9 11  2  0
  9 12  1  0
 12 13  1  0
 13 14  1  0
 14 15  2  0
 15 16  1  0
 16 17  2  0
 17 18  1  0
 17 19  1  0
 19 20  2  0
  8 21  2  0
 21  4  1  0
 20 14  1  0
  1 22  1  0
  1 23  1  0
  1 24  1  0
  3 25  1  0
  3 26  1  0
  5 27  1  0
  6 28  1  0
  7 29  1  0
 13 30  1  0
 13 31  1  0
 15 32  1  0
 16 33  1  0
 18 34  1  0
 18 35  1  0
 18 36  1  0
 19 37  1  0
 20 38  1  0
 21 39  1  0
M  CHG  2  12  -1  19   1
M  END
>  <UniqueID>  (70) 
59

>  <SMILES>  (70) 
CSCc1cccc(S(=O)(=O)[N-]Cc2ccc(C)[nH+]c2)c1

>  <Energy>  (70) 
31.928357856712708

>  <Genealogy>  (70) 
CSCc1cccc(S(=O)(=O)[N-]Cc2ccc(C)[nH+]c2)c1 (protonated)
CSCc1cccc(S(=O)(=O)[N-]Cc2ccc(C)[nH+]c2)c1 (3D coordinates assigned)
CSCc1cccc(S(=O)(=O)[N-]Cc2ccc(C)[nH+]c2)c1 (optimized conformer: 31.928357856712708 kcal/mol)

>  <smiles>  (70) 
CSCc1cccc(S(=O)(=O)NCc2ccc(C)nc2)c1

>  <score_type>  (70) 
oracle

>  <origin>  (70) 
adg

>  <m_score__min__energy>  (70) 
-7.7000000000000002

>  <m_primary>  (70) 
energy

$$$$
70:0
     RDKit          3D

 62 66  0  0  0  0  0  0  0  0999 V2000
   58.1490   26.8840   43.2140 C   0  0  0  0  0  0  0  0  0  0  0  0
   57.7510   26.2750   44.5300 C   0  0  0  0  0  0  0  0  0  0  0  0
   58.1520   24.9600   44.8260 C   0  0  0  0  0  0  0  0  0  0  0  0
   57.8350   24.3810   46.0580 C   0  0  0  0  0  0  0  0  0  0  0  0
   58.2360   23.1160   46.3350 F   0  0  0  0  0  0  0  0  0  0  0  0
   57.1130   25.1080   47.0060 C   0  0  0  0  0  0  0  0  0  0  0  0
   56.6930   26.4080   46.7200 C   0  0  0  0  0  0  0  0  0  0  0  0
   56.9810   26.9890   45.4780 C   0  0  0  0  0  0  0  0  0  0  0  0
   56.5070   28.3150   45.2220 N   0  0  0  0  0  0  0  0  0  0  0  0
   57.5520   29.6990   45.2290 S   0  0  0  0  0  0  0  0  0  0  0  0
   58.6060   29.5190   44.1740 O   0  0  0  0  0  0  0  0  0  0  0  0
   56.7510   30.9380   44.9370 O   0  0  0  0  0  0  0  0  0  0  0  0
   58.3120   29.8800   46.8150 C   0  0  0  0  0  0  0  0  0  0  0  0
   58.5260   28.7500   47.6110 C   0  0  0  0  0  0  0  0  0  0  0  0
   59.1110   28.8740   48.8680 C   0  0  0  0  0  0  0  0  0  0  0  0
   59.4910   30.1240   49.3600 C   0  0  0  0  0  0  0  0  0  0  0  0
   60.0650   30.1790   50.6240 O   0  0  0  0  0  0  0  0  0  0  0  0
   59.2840   31.2880   48.5790 C   0  0  0  0  0  0  0  0  0  0  0  0
   59.6310   32.5920   49.0190 C   0  0  0  0  0  0  0  0  0  0  0  0
   60.2370   32.8280   50.3030 N   0  0  0  0  0  0  0  0  0  0  0  0
   59.4820   33.5610   51.3280 C   0  0  0  0  0  0  0  0  0  0  0  0
   58.5560   32.6300   52.0620 C   0  0  0  0  0  0  0  0  0  0  0  0
   58.7130   32.4160   53.4410 C   0  0  0  0  0  0  0  0  0  0  0  0
   57.8160   31.5970   54.1340 C   0  0  0  0  0  0  0  0  0  0  0  0
   56.7530   30.9920   53.4560 C   0  0  0  0  0  0  0  0  0  0  0  0
   56.5860   31.2060   52.0850 C   0  0  0  0  0  0  0  0  0  0  0  0
   57.4800   32.0250   51.3890 C   0  0  0  0  0  0  0  0  0  0  0  0
   61.6800   32.6150   50.4600 C   0  0  0  0  0  0  0  0  0  0  0  0
   62.3790   32.7760   49.1370 C   0  0  0  0  0  0  0  0  0  0  0  0
   62.7050   31.6500   48.3620 C   0  0  0  0  0  0  0  0  0  0  0  0
   63.3930   31.8010   47.1540 C   0  0  0  0  0  0  0  0  0  0  0  0
   63.7660   33.0740   46.7160 C   0  0  0  0  0  0  0  0  0  0  0  0
   63.4540   34.1980   47.4850 C   0  0  0  0  0  0  0  0  0  0  0  0
   62.7650   34.0510   48.6920 C   0  0  0  0  0  0  0  0  0  0  0  0
   59.3650   33.6930   48.1960 C   0  0  0  0  0  0  0  0  0  0  0  0
   58.7720   33.5040   46.9520 C   0  0  0  0  0  0  0  0  0  0  0  0
   58.4480   32.2550   46.5370 N   0  0  0  0  0  0  0  0  0  0  0  0
   58.6800   31.1510   47.2980 C   0  0  0  0  0  0  0  0  0  0  0  0
   58.7426   27.7923   43.3949 H   0  0  0  0  0  0  0  0  0  0  0  0
   58.7496   26.1613   42.6422 H   0  0  0  0  0  0  0  0  0  0  0  0
   57.2460   27.1440   42.6422 H   0  0  0  0  0  0  0  0  0  0  0  0
   58.7198   24.3823   44.0818 H   0  0  0  0  0  0  0  0  0  0  0  0
   56.8747   24.6557   47.9800 H   0  0  0  0  0  0  0  0  0  0  0  0
   56.1325   26.9798   47.4742 H   0  0  0  0  0  0  0  0  0  0  0  0
   58.2302   27.7571   47.2414 H   0  0  0  0  0  0  0  0  0  0  0  0
   59.2759   27.9759   49.4813 H   0  0  0  0  0  0  0  0  0  0  0  0
   60.1855   34.0115   52.0437 H   0  0  0  0  0  0  0  0  0  0  0  0
   58.8859   34.3459   50.8395 H   0  0  0  0  0  0  0  0  0  0  0  0
   59.5450   32.8946   53.9783 H   0  0  0  0  0  0  0  0  0  0  0  0
   57.9467   31.4285   55.2131 H   0  0  0  0  0  0  0  0  0  0  0  0
   56.0482   30.3476   54.0018 H   0  0  0  0  0  0  0  0  0  0  0  0
   55.7497   30.7292   51.5527 H   0  0  0  0  0  0  0  0  0  0  0  0
   57.3411   32.1966   50.3114 H   0  0  0  0  0  0  0  0  0  0  0  0
   62.0798   33.3506   51.1735 H   0  0  0  0  0  0  0  0  0  0  0  0
   61.8524   31.5949   50.8338 H   0  0  0  0  0  0  0  0  0  0  0  0
   62.4178   30.6458   48.7070 H   0  0  0  0  0  0  0  0  0  0  0  0
   63.6407   30.9168   46.5483 H   0  0  0  0  0  0  0  0  0  0  0  0
   64.3058   33.1916   45.7648 H   0  0  0  0  0  0  0  0  0  0  0  0
   63.7509   35.1995   47.1401 H   0  0  0  0  0  0  0  0  0  0  0  0
   62.5239   34.9380   49.2963 H   0  0  0  0  0  0  0  0  0  0  0  0
   59.6249   34.7073   48.5331 H   0  0  0  0  0  0  0  0  0  0  0  0
   58.5658   34.3690   46.3044 H   0  0  0  0  0  0  0  0  0  0  0  0
  1  2  1  0
  2  3  2  0
  3  4  1  0
  4  5  1  0
  4  6  2  0
  6  7  1  0
  7  8  2  0
  8  9  1  0
  9 10  1  0
 10 11  2  0
 10 12  2  0
 10 13  1  0
 13 14  2  0
 14 15  1  0
 15 16  2  0
 16 17  1  0
 16 18  1  0
 18 19  2  0
 19 20  1  0
 20 21  1  0
 21 22  1  0
 22 23  2  0
 23 24  1  0
 24 25  2  0
 25 26  1  0
 26 27  2  0
 20 28  1  0
 28 29  1  0
 29 30  2  0
 30 31  1  0
 31 32  2  0
 32 33  1  0
 33 34  2  0
 19 35  1  0
 35 36  2  0
 36 37  1  0
 37 38  2  0
  8  2  1  0
 38 13  1  0
 38 18  1  0
 27 22  1  0
 34 29  1  0
  1 39  1  0
  1 40  1  0
  1 41  1  0
  3 42  1  0
  6 43  1  0
  7 44  1  0
 14 45  1  0
 15 46  1  0
 21 47  1  0
 21 48  1  0
 23 49  1  0
 24 50  1  0
 25 51  1  0
 26 52  1  0
 27 53  1  0
 28 54  1  0
 28 55  1  0
 30 56  1  0
 31 57  1  0
 32 58  1  0
 33 59  1  0
 34 60  1  0
 35 61  1  0
 36 62  1  0
M  CHG  2   9  -1  17  -1
M  END
>  <UniqueID>  (71) 
60

>  <SMILES>  (71) 
Cc1cc(F)ccc1[N-]S(=O)(=O)c1ccc([O-])c2c(N(Cc3ccccc3)Cc3ccccc3)ccnc12

>  <Energy>  (71) 
86.4978255158014

>  <Genealogy>  (71) 
Cc1cc(F)ccc1[N-]S(=O)(=O)c1ccc([O-])c2c(N(Cc3ccccc3)Cc3ccccc3)ccnc12 (protonated)
Cc1cc(F)ccc1[N-]S(=O)(=O)c1ccc([O-])c2c(N(Cc3ccccc3)Cc3ccccc3)ccnc12 (3D coordinates assigned)
Cc1cc(F)ccc1[N-]S(=O)(=O)c1ccc([O-])c2c(N(Cc3ccccc3)Cc3ccccc3)ccnc12 (optimized conformer: 86.4978255158014 kcal/mol)

>  <smiles>  (71) 
Cc1cc(F)ccc1NS(=O)(=O)c1ccc(O)c2c(N(Cc3ccccc3)Cc3ccccc3)ccnc12

>  <score_type>  (71) 
oracle

>  <origin>  (71) 
adg

>  <m_score__min__energy>  (71) 
-12.720000000000001

>  <m_primary>  (71) 
energy

$$$$
71:0
     RDKit          3D

 46 48  0  0  0  0  0  0  0  0999 V2000
   57.3404   20.6652   43.1502 H   0  0  0  0  0  0  0  0  0  0  0  0
   56.8090   21.5690   43.4830 C   0  0  0  0  0  0  0  0  0  0  0  0
   56.1360   21.8110   45.0060 S   0  0  0  0  0  0  0  0  0  0  0  0
   55.5530   23.3530   44.6940 C   0  0  0  0  0  0  0  0  0  0  0  0
   54.7430   24.3730   45.8730 S   0  0  0  0  0  0  0  0  0  0  0  0
   53.3290   24.6050   45.4250 O   0  0  0  0  0  0  0  0  0  0  0  0
   54.7300   23.6960   47.2150 O   0  0  0  0  0  0  0  0  0  0  0  0
   55.5490   25.9050   46.0120 N   0  0  0  0  0  0  0  0  0  0  0  0
   56.9660   26.1020   46.1190 C   0  0  0  0  0  0  0  0  0  0  0  0
   57.8110   25.0010   45.9450 C   0  0  0  0  0  0  0  0  0  0  0  0
   57.3809   24.0171   45.7064 H   0  0  0  0  0  0  0  0  0  0  0  0
   59.1940   25.1380   46.0710 C   0  0  0  0  0  0  0  0  0  0  0  0
   59.8503   24.2699   45.9103 H   0  0  0  0  0  0  0  0  0  0  0  0
   59.7450   26.3810   46.4020 C   0  0  0  0  0  0  0  0  0  0  0  0
   60.8336   26.4834   46.5220 H   0  0  0  0  0  0  0  0  0  0  0  0
   58.9110   27.5010   46.5820 C   0  0  0  0  0  0  0  0  0  0  0  0
   59.4040   28.7510   47.0070 O   0  0  0  0  0  0  0  0  0  0  0  0
   58.9710   29.9940   46.5270 C   0  0  0  0  0  0  0  0  0  0  0  0
   57.8580   30.0770   45.7510 N   0  0  0  0  0  0  0  0  0  0  0  0
   57.4040   31.2580   45.2530 C   0  0  0  0  0  0  0  0  0  0  0  0
   56.3410   31.2830   44.4980 N   0  0  0  0  0  0  0  0  0  0  0  0
   55.7850   30.1120   43.8200 C   0  0  0  0  0  0  0  0  0  0  0  0
   55.4395   29.3843   44.5690 H   0  0  0  0  0  0  0  0  0  0  0  0
   54.9374   30.4208   43.1906 H   0  0  0  0  0  0  0  0  0  0  0  0
   56.5601   29.6504   43.1906 H   0  0  0  0  0  0  0  0  0  0  0  0
   58.0920   32.4560   45.5510 C   0  0  0  0  0  0  0  0  0  0  0  0
   57.6370   33.7110   44.9830 C   0  0  0  0  0  0  0  0  0  0  0  0
   57.2720   34.7150   44.5310 N   0  0  0  0  0  0  0  0  0  0  0  0
   59.2380   32.4140   46.3890 C   0  0  0  0  0  0  0  0  0  0  0  0
   60.0300   33.6750   46.6920 C   0  0  0  0  0  0  0  0  0  0  0  0
   61.0107   33.4049   47.1107 H   0  0  0  0  0  0  0  0  0  0  0  0
   60.1834   34.2531   45.7688 H   0  0  0  0  0  0  0  0  0  0  0  0
   59.3060   34.4490   47.6330 O   0  0  0  0  0  0  0  0  0  0  0  0
   59.8300   34.2270   48.9310 C   0  0  0  0  0  0  0  0  0  0  0  0
   59.0910   34.5401   49.6832 H   0  0  0  0  0  0  0  0  0  0  0  0
   60.0525   33.1573   49.0586 H   0  0  0  0  0  0  0  0  0  0  0  0
   60.7532   34.8113   49.0586 H   0  0  0  0  0  0  0  0  0  0  0  0
   59.6830   31.1580   46.8680 C   0  0  0  0  0  0  0  0  0  0  0  0
   60.9130   31.0230   47.6260 C   0  0  0  0  0  0  0  0  0  0  0  0
   61.8960   30.9430   48.2340 N   0  0  0  0  0  0  0  0  0  0  0  0
   57.5280   27.3570   46.4160 C   0  0  0  0  0  0  0  0  0  0  0  0
   56.8736   28.2352   46.5190 H   0  0  0  0  0  0  0  0  0  0  0  0
   55.8750   23.7070   43.3940 C   0  0  0  0  0  0  0  0  0  0  0  0
   55.6055   24.6730   42.9421 H   0  0  0  0  0  0  0  0  0  0  0  0
   56.5790   22.7060   42.7170 C   0  0  0  0  0  0  0  0  0  0  0  0
   56.9189   22.8088   41.6759 H   0  0  0  0  0  0  0  0  0  0  0  0
  1  2  1  0
  2  3  1  0
  3  4  1  0
  4  5  1  0
  5  6  2  0
  5  7  2  0
  5  8  1  0
  8  9  1  0
  9 10  2  0
 10 11  1  0
 10 12  1  0
 12 13  1  0
 12 14  2  0
 14 15  1  0
 14 16  1  0
 16 17  1  0
 17 18  1  0
 18 19  1  0
 19 20  1  0
 20 21  2  0
 21 22  1  0
 22 23  1  0
 22 24  1  0
 22 25  1  0
 20 26  1  0
 26 27  1  0
 27 28  3  0
 26 29  2  0
 29 30  1  0
 30 31  1  0
 30 32  1  0
 30 33  1  0
 33 34  1  0
 34 35  1  0
 34 36  1  0
 34 37  1  0
 29 38  1  0
 38 39  1  0
 39 40  3  0
 16 41  2  0
 41 42  1  0
  4 43  2  0
 43 44  1  0
 43 45  1  0
 45 46  1  0
 45  2  2  0
 41  9  1  0
 38 18  2  0
M  CHG  2   8  -1  19  -1
M  END
>  <UniqueID>  (72) 
61

>  <SMILES>  (72) 
C/N=c1\[n-]c(Oc2cccc([N-]S(=O)(=O)c3cccs3)c2)c(C#N)c(COC)c1C#N

>  <Energy>  (72) 
86.47753921076242

>  <Genealogy>  (72) 
CN=c1[n-]c(Oc2cccc([N-]S(=O)(=O)c3cccs3)c2)c(C#N)c(COC)c1C#N (protonated)
C/N=c1\[n-]c(Oc2cccc([N-]S(=O)(=O)c3cccs3)c2)c(C#N)c(COC)c1C#N (cis-trans isomerization)
C/N=c1\[n-]c(Oc2cccc([N-]S(=O)(=O)c3cccs3)c2)c(C#N)c(COC)c1C#N (3D coordinates assigned)
C/N=c1\[n-]c(Oc2cccc([N-]S(=O)(=O)c3cccs3)c2)c(C#N)c(COC)c1C#N (optimized conformer: 86.47753921076242 kcal/mol)

>  <smiles>  (72) 
CN=c1[nH]c(Oc2cccc(NS(=O)(=O)c3cccs3)c2)c(C#N)c(COC)c1C#N

>  <score_type>  (72) 
oracle

>  <origin>  (72) 
adg

>  <m_score__min__energy>  (72) 
-11.51

>  <m_primary>  (72) 
energy

$$$$
72:0
     RDKit          3D

 29 30  0  0  0  0  0  0  0  0999 V2000
   52.8220   22.9530   45.1020 N   0  0  0  0  0  0  0  0  0  0  0  0
   53.8950   23.6720   45.1280 C   0  0  0  0  0  0  0  0  0  0  0  0
   54.0640   24.7070   45.9740 N   0  0  0  0  0  0  0  0  0  0  0  0
   55.2450   25.3040   45.8270 N   0  0  0  0  0  0  0  0  0  0  0  0
   56.0100   24.7380   44.8660 C   0  0  0  0  0  0  0  0  0  0  0  0
   57.6560   25.3100   44.4500 S   0  0  0  0  0  0  0  0  0  0  0  0
   58.4220   24.7260   46.0020 C   0  0  0  0  0  0  0  0  0  0  0  0
   59.5960   25.5770   46.3640 C   0  0  0  0  0  0  0  0  0  0  0  0
   60.7550   25.2300   46.0120 O   0  0  0  0  0  0  0  0  0  0  0  0
   59.3890   26.7780   47.1180 N   0  0  0  0  0  0  0  0  0  0  0  0
   59.1960   28.0940   46.5790 C   0  0  0  0  0  0  0  0  0  0  0  0
   60.1310   29.0890   46.8840 C   0  0  0  0  0  0  0  0  0  0  0  0
   59.9620   30.3890   46.4000 C   0  0  0  0  0  0  0  0  0  0  0  0
   58.8460   30.7090   45.6230 C   0  0  0  0  0  0  0  0  0  0  0  0
   57.8840   29.7300   45.3380 C   0  0  0  0  0  0  0  0  0  0  0  0
   56.4650   30.1280   44.3760 S   0  0  0  0  0  0  0  0  0  0  0  0
   55.2200   28.9700   44.6790 N   0  0  0  0  0  0  0  0  0  0  0  0
   55.9760   31.5020   44.7410 O   0  0  0  0  0  0  0  0  0  0  0  0
   56.8130   30.1130   42.9140 O   0  0  0  0  0  0  0  0  0  0  0  0
   58.0610   28.4240   45.8160 C   0  0  0  0  0  0  0  0  0  0  0  0
   55.2330   23.4370   44.1290 S   0  0  0  0  0  0  0  0  0  0  0  0
   52.8580   21.9210   45.2570 H   0  0  0  0  0  0  0  0  0  0  0  0
   57.6787   24.7728   46.8115 H   0  0  0  0  0  0  0  0  0  0  0  0
   58.7659   23.6909   45.8592 H   0  0  0  0  0  0  0  0  0  0  0  0
   61.0038   28.8467   47.5081 H   0  0  0  0  0  0  0  0  0  0  0  0
   60.7095   31.1621   46.6314 H   0  0  0  0  0  0  0  0  0  0  0  0
   58.7220   31.7305   45.2343 H   0  0  0  0  0  0  0  0  0  0  0  0
   54.6280   29.3530   45.4500 H   0  0  0  0  0  0  0  0  0  0  0  0
   57.3085   27.6532   45.5933 H   0  0  0  0  0  0  0  0  0  0  0  0
  1  2  2  3
  2  3  1  0
  3  4  1  0
  4  5  2  0
  5  6  1  0
  6  7  1  0
  7  8  1  0
  8  9  2  0
  8 10  1  0
 10 11  1  0
 11 12  2  0
 12 13  1  0
 13 14  2  0
 14 15  1  0
 15 16  1  0
 16 17  1  0
 16 18  2  0
 16 19  2  0
 15 20  2  0
  5 21  1  0
 21  2  1  0
 20 11  1  0
  1 22  1  0
  7 23  1  0
  7 24  1  0
 12 25  1  0
 13 26  1  0
 14 27  1  0
 17 28  1  0
 20 29  1  0
M  CHG  3   3  -1  10  -1  17  -1
M  END
>  <UniqueID>  (73) 
62

>  <SMILES>  (73) 
N=c1[n-]nc(SCC(=O)[N-]c2cccc(S([NH-])(=O)=O)c2)s1

>  <Energy>  (73) 
61.021659134747374

>  <Genealogy>  (73) 
N=c1[n-]nc(SCC(=O)[N-]c2cccc(S([NH-])(=O)=O)c2)s1 (protonated)
N=c1[n-]nc(SCC(=O)[N-]c2cccc(S([NH-])(=O)=O)c2)s1 (3D coordinates assigned)
N=c1[n-]nc(SCC(=O)[N-]c2cccc(S([NH-])(=O)=O)c2)s1 (optimized conformer: 61.021659134747374 kcal/mol)

>  <smiles>  (73) 
N=c1[nH]nc(SCC(=O)Nc2cccc(S(N)(=O)=O)c2)s1

>  <score_type>  (73) 
oracle

>  <origin>  (73) 
adg

>  <m_score__min__energy>  (73) 
-12.779999999999999

>  <m_primary>  (73) 
energy

$$$$
73:0
     RDKit          3D

 42 44  0  0  0  0  0  0  0  0999 V2000
   64.1440   32.2380   47.7260 N   0  0  0  0  0  0  0  0  0  0  0  0
   62.9580   33.4400   47.3590 S   0  0  0  0  0  0  0  0  0  0  0  0
   62.8190   34.3650   48.5370 O   0  0  0  0  0  0  0  0  0  0  0  0
   63.4000   34.2380   46.1640 O   0  0  0  0  0  0  0  0  0  0  0  0
   61.4140   32.6670   47.0040 C   0  0  0  0  0  0  0  0  0  0  0  0
   61.2640   31.2800   47.1230 C   0  0  0  0  0  0  0  0  0  0  0  0
   60.0300   30.6810   46.8530 C   0  0  0  0  0  0  0  0  0  0  0  0
   58.9330   31.4580   46.4610 C   0  0  0  0  0  0  0  0  0  0  0  0
   57.6830   30.8010   46.2090 N   0  0  0  0  0  0  0  0  0  0  0  0
   57.1470   30.2230   44.6630 S   0  0  0  0  0  0  0  0  0  0  0  0
   55.6930   30.5570   44.4900 O   0  0  0  0  0  0  0  0  0  0  0  0
   57.9260   30.9040   43.5720 O   0  0  0  0  0  0  0  0  0  0  0  0
   57.3400   28.4740   44.5880 C   0  0  0  0  0  0  0  0  0  0  0  0
   57.8250   27.8520   43.4290 C   0  0  0  0  0  0  0  0  0  0  0  0
   58.0070   26.4660   43.3980 C   0  0  0  0  0  0  0  0  0  0  0  0
   57.6980   25.6830   44.5230 C   0  0  0  0  0  0  0  0  0  0  0  0
   57.8940   24.2570   44.4970 N   0  0  0  0  0  0  0  0  0  0  0  0
   58.9050   23.5470   45.2640 C   0  0  0  0  0  0  0  0  0  0  0  0
   58.6990   22.0480   44.9640 C   0  0  0  0  0  0  0  0  0  0  0  0
   57.4760   21.9240   44.0430 C   0  0  0  0  0  0  0  0  0  0  0  0
   57.1050   23.3270   43.7750 C   0  0  0  0  0  0  0  0  0  0  0  0
   56.2210   23.6680   42.9420 O   0  0  0  0  0  0  0  0  0  0  0  0
   57.1930   26.3090   45.6750 C   0  0  0  0  0  0  0  0  0  0  0  0
   57.0250   27.6960   45.7090 C   0  0  0  0  0  0  0  0  0  0  0  0
   59.0860   32.8510   46.3420 C   0  0  0  0  0  0  0  0  0  0  0  0
   60.3210   33.4490   46.6120 C   0  0  0  0  0  0  0  0  0  0  0  0
   64.9360   32.7180   48.2090 H   0  0  0  0  0  0  0  0  0  0  0  0
   64.5130   31.8850   46.8150 H   0  0  0  0  0  0  0  0  0  0  0  0
   62.1193   30.6600   47.4297 H   0  0  0  0  0  0  0  0  0  0  0  0
   59.9199   29.5908   46.9493 H   0  0  0  0  0  0  0  0  0  0  0  0
   58.0631   28.4562   42.5412 H   0  0  0  0  0  0  0  0  0  0  0  0
   58.3944   25.9857   42.4874 H   0  0  0  0  0  0  0  0  0  0  0  0
   59.9116   23.8633   44.9529 H   0  0  0  0  0  0  0  0  0  0  0  0
   58.8126   23.7568   46.3398 H   0  0  0  0  0  0  0  0  0  0  0  0
   59.5891   21.6397   44.4630 H   0  0  0  0  0  0  0  0  0  0  0  0
   58.5404   21.4852   45.8957 H   0  0  0  0  0  0  0  0  0  0  0  0
   57.7367   21.4010   43.1110 H   0  0  0  0  0  0  0  0  0  0  0  0
   56.6577   21.3421   44.4922 H   0  0  0  0  0  0  0  0  0  0  0  0
   56.9284   25.7042   46.5549 H   0  0  0  0  0  0  0  0  0  0  0  0
   56.6435   28.1789   46.6207 H   0  0  0  0  0  0  0  0  0  0  0  0
   58.2315   33.4722   46.0356 H   0  0  0  0  0  0  0  0  0  0  0  0
   60.4341   34.5389   46.5159 H   0  0  0  0  0  0  0  0  0  0  0  0
  1  2  1  0
  2  3  2  0
  2  4  2  0
  2  5  1  0
  5  6  2  0
  6  7  1  0
  7  8  2  0
  8  9  1  0
  9 10  1  0
 10 11  2  0
 10 12  2  0
 10 13  1  0
 13 14  2  0
 14 15  1  0
 15 16  2  0
 16 17  1  0
 17 18  1  0
 18 19  1  0
 19 20  1  0
 20 21  1  0
 21 22  2  0
 16 23  1  0
 23 24  2  0
  8 25  1  0
 25 26  2  0
 26  5  1  0
 24 13  1  0
 21 17  1  0
  1 27  1  0
  1 28  1  0
  6 29  1  0
  7 30  1  0
 14 31  1  0
 15 32  1  0
 18 33  1  0
 18 34  1  0
 19 35  1  0
 19 36  1  0
 20 37  1  0
 20 38  1  0
 23 39  1  0
 24 40  1  0
 25 41  1  0
 26 42  1  0
M  CHG  1   9  -1
M  END
>  <UniqueID>  (74) 
63

>  <SMILES>  (74) 
NS(=O)(=O)c1ccc([N-]S(=O)(=O)c2ccc(N3CCCC3=O)cc2)cc1

>  <Energy>  (74) 
56.185736114822326

>  <Genealogy>  (74) 
NS(=O)(=O)c1ccc([N-]S(=O)(=O)c2ccc(N3CCCC3=O)cc2)cc1 (protonated)
NS(=O)(=O)c1ccc([N-]S(=O)(=O)c2ccc(N3CCCC3=O)cc2)cc1 (3D coordinates assigned)
NS(=O)(=O)c1ccc([N-]S(=O)(=O)c2ccc(N3CCCC3=O)cc2)cc1 (nonaromatic ring conformer: 56.185736114822326 kcal/mol)

>  <smiles>  (74) 
NS(=O)(=O)c1ccc(NS(=O)(=O)c2ccc(N3CCCC3=O)cc2)cc1

>  <score_type>  (74) 
oracle

>  <origin>  (74) 
adg

>  <m_score__min__energy>  (74) 
-10.57

>  <m_primary>  (74) 
energy

$$$$
74:0
     RDKit          3D

 27 28  0  0  0  0  0  0  0  0999 V2000
   57.4057   26.8122   43.7616 H   0  0  0  0  0  0  0  0  0  0  0  0
   57.6680   26.9140   44.8250 C   0  0  0  0  0  0  0  0  0  0  0  0
   58.4260   27.9740   45.1770 C   0  0  0  0  0  0  0  0  0  0  0  0
   59.6410   27.8310   46.0160 C   0  0  0  0  0  0  0  0  0  0  0  0
   60.7800   27.9000   45.4770 O   0  0  0  0  0  0  0  0  0  0  0  0
   59.5460   27.6920   47.5080 C   0  0  0  0  0  0  0  0  0  0  0  0
   60.3700   28.6200   48.1160 F   0  0  0  0  0  0  0  0  0  0  0  0
   58.2430   27.9150   47.9120 F   0  0  0  0  0  0  0  0  0  0  0  0
   59.9360   26.4260   47.9040 F   0  0  0  0  0  0  0  0  0  0  0  0
   58.0740   29.3230   44.6630 C   0  0  0  0  0  0  0  0  0  0  0  0
   58.6830   30.4700   45.2040 C   0  0  0  0  0  0  0  0  0  0  0  0
   59.4274   30.3670   46.0073 H   0  0  0  0  0  0  0  0  0  0  0  0
   58.3470   31.7400   44.7260 C   0  0  0  0  0  0  0  0  0  0  0  0
   58.8267   32.6319   45.1553 H   0  0  0  0  0  0  0  0  0  0  0  0
   57.4040   31.8800   43.7050 C   0  0  0  0  0  0  0  0  0  0  0  0
   57.1425   32.8806   43.3303 H   0  0  0  0  0  0  0  0  0  0  0  0
   56.7930   30.7470   43.1600 C   0  0  0  0  0  0  0  0  0  0  0  0
   56.0500   30.8572   42.3563 H   0  0  0  0  0  0  0  0  0  0  0  0
   57.1240   29.4740   43.6340 C   0  0  0  0  0  0  0  0  0  0  0  0
   56.6402   28.5860   43.2012 H   0  0  0  0  0  0  0  0  0  0  0  0
   57.1610   25.8780   45.7510 C   0  0  0  0  0  0  0  0  0  0  0  0
   57.8890   24.8790   46.2830 N   0  0  0  0  0  0  0  0  0  0  0  0
   57.0150   24.2550   47.1020 C   0  0  0  0  0  0  0  0  0  0  0  0
   57.3290   23.2460   47.7850 O   0  0  0  0  0  0  0  0  0  0  0  0
   55.7820   24.8010   47.1350 N   0  0  0  0  0  0  0  0  0  0  0  0
   55.8930   25.8300   46.2810 C   0  0  0  0  0  0  0  0  0  0  0  0
   54.8570   26.7100   45.9930 O   0  0  0  0  0  0  0  0  0  0  0  0
  1  2  1  0
  2  3  2  0
  3  4  1  0
  4  5  2  0
  4  6  1  0
  6  7  1  0
  6  8  1  0
  6  9  1  0
  3 10  1  0
 10 11  2  0
 11 12  1  0
 11 13  1  0
 13 14  1  0
 13 15  2  0
 15 16  1  0
 15 17  1  0
 17 18  1  0
 17 19  2  0
 19 20  1  0
  2 21  1  0
 21 22  1  0
 22 23  1  0
 23 24  2  0
 23 25  1  0
 25 26  1  0
 26 27  1  0
 19 10  1  0
 26 21  2  0
M  CHG  3  22  -1  25  -1  27  -1
M  END
>  <UniqueID>  (75) 
64

>  <SMILES>  (75) 
O=C(/C(=C\c1[n-]c(=O)[n-]c1[O-])c1ccccc1)C(F)(F)F

>  <Energy>  (75) 
68.4151471367383

>  <Genealogy>  (75) 
O=C(C(=Cc1[n-]c(=O)[n-]c1[O-])c1ccccc1)C(F)(F)F (protonated)
O=C(/C(=C\c1[n-]c(=O)[n-]c1[O-])c1ccccc1)C(F)(F)F (cis-trans isomerization)
O=C(/C(=C\c1[n-]c(=O)[n-]c1[O-])c1ccccc1)C(F)(F)F (3D coordinates assigned)
O=C(/C(=C\c1[n-]c(=O)[n-]c1[O-])c1ccccc1)C(F)(F)F (optimized conformer: 68.4151471367383 kcal/mol)

>  <smiles>  (75) 
O=C(C(=Cc1[nH]c(=O)[nH]c1O)c1ccccc1)C(F)(F)F

>  <score_type>  (75) 
oracle

>  <origin>  (75) 
adg

>  <m_score__min__energy>  (75) 
-14.31

>  <m_primary>  (75) 
energy

$$$$
75:0
     RDKit          3D

 49 51  0  0  0  0  0  0  0  0999 V2000
   62.7170   31.2780   48.8820 C   0  0  0  0  0  0  0  0  0  0  0  0
   61.3800   30.5940   48.8610 C   0  0  0  0  0  0  0  0  0  0  0  0
   61.0600   29.6570   49.8530 C   0  0  0  0  0  0  0  0  0  0  0  0
   59.8100   29.0340   49.8530 C   0  0  0  0  0  0  0  0  0  0  0  0
   58.8720   29.3460   48.8680 C   0  0  0  0  0  0  0  0  0  0  0  0
   59.1640   30.2970   47.8790 C   0  0  0  0  0  0  0  0  0  0  0  0
   58.1910   30.5680   46.8550 N   0  0  0  0  0  0  0  0  0  0  0  0
   58.1440   31.7940   46.1100 C   0  0  0  0  0  0  0  0  0  0  0  0
   58.7290   32.9510   46.6510 C   0  0  0  0  0  0  0  0  0  0  0  0
   58.6870   34.1590   45.9540 C   0  0  0  0  0  0  0  0  0  0  0  0
   58.0590   34.2240   44.7110 C   0  0  0  0  0  0  0  0  0  0  0  0
   57.4670   33.0860   44.1650 C   0  0  0  0  0  0  0  0  0  0  0  0
   57.4870   31.8660   44.8590 C   0  0  0  0  0  0  0  0  0  0  0  0
   56.7790   30.4430   44.0810 S   0  0  0  0  0  0  0  0  0  0  0  0
   56.2740   30.8250   42.7200 O   0  0  0  0  0  0  0  0  0  0  0  0
   55.6140   29.9070   44.8630 O   0  0  0  0  0  0  0  0  0  0  0  0
   58.0010   29.2350   43.8950 N   0  0  0  0  0  0  0  0  0  0  0  0
   58.3920   28.3910   44.9810 C   0  0  0  0  0  0  0  0  0  0  0  0
   59.6850   28.0590   45.3550 C   0  0  0  0  0  0  0  0  0  0  0  0
   60.9500   28.6650   44.8300 C   0  0  0  0  0  0  0  0  0  0  0  0
   59.6240   27.0980   46.3090 N   0  0  0  0  0  0  0  0  0  0  0  0
   60.7670   26.4070   46.9090 C   0  0  0  0  0  0  0  0  0  0  0  0
   58.3500   26.7820   46.5180 N   0  0  0  0  0  0  0  0  0  0  0  0
   57.8770   25.7220   47.4090 C   0  0  0  0  0  0  0  0  0  0  0  0
   57.5840   27.5530   45.7210 C   0  0  0  0  0  0  0  0  0  0  0  0
   56.3310   27.4660   45.6360 O   0  0  0  0  0  0  0  0  0  0  0  0
   60.4280   30.9180   47.8790 C   0  0  0  0  0  0  0  0  0  0  0  0
   63.0305   31.4384   49.9241 H   0  0  0  0  0  0  0  0  0  0  0  0
   63.4589   30.6487   48.3686 H   0  0  0  0  0  0  0  0  0  0  0  0
   62.6408   32.2479   48.3686 H   0  0  0  0  0  0  0  0  0  0  0  0
   61.7952   29.4117   50.6335 H   0  0  0  0  0  0  0  0  0  0  0  0
   59.5644   28.2960   50.6309 H   0  0  0  0  0  0  0  0  0  0  0  0
   57.8945   28.8415   48.8671 H   0  0  0  0  0  0  0  0  0  0  0  0
   57.4070   29.8910   46.7260 H   0  0  0  0  0  0  0  0  0  0  0  0
   59.2242   32.9042   47.6321 H   0  0  0  0  0  0  0  0  0  0  0  0
   59.1491   35.0594   46.3849 H   0  0  0  0  0  0  0  0  0  0  0  0
   58.0305   35.1755   44.1597 H   0  0  0  0  0  0  0  0  0  0  0  0
   56.9794   33.1447   43.1807 H   0  0  0  0  0  0  0  0  0  0  0  0
   58.6530   29.3410   43.0890 H   0  0  0  0  0  0  0  0  0  0  0  0
   61.5876   28.9704   45.6728 H   0  0  0  0  0  0  0  0  0  0  0  0
   61.4838   27.9248   44.2158 H   0  0  0  0  0  0  0  0  0  0  0  0
   60.7077   29.5448   44.2158 H   0  0  0  0  0  0  0  0  0  0  0  0
   60.6895   26.4538   48.0053 H   0  0  0  0  0  0  0  0  0  0  0  0
   60.7704   25.3554   46.5862 H   0  0  0  0  0  0  0  0  0  0  0  0
   61.6997   26.8926   46.5862 H   0  0  0  0  0  0  0  0  0  0  0  0
   58.0158   26.0331   48.4549 H   0  0  0  0  0  0  0  0  0  0  0  0
   56.8096   25.5340   47.2209 H   0  0  0  0  0  0  0  0  0  0  0  0
   58.4500   24.8021   47.2209 H   0  0  0  0  0  0  0  0  0  0  0  0
   60.6718   31.6613   47.1056 H   0  0  0  0  0  0  0  0  0  0  0  0
  1  2  1  0
  2  3  2  0
  3  4  1  0
  4  5  2  0
  5  6  1  0
  6  7  1  0
  7  8  1  0
  8  9  2  0
  9 10  1  0
 10 11  2  0
 11 12  1  0
 12 13  2  0
 13 14  1  0
 14 15  2  0
 14 16  2  0
 14 17  1  0
 17 18  1  0
 18 19  2  0
 19 20  1  0
 19 21  1  0
 21 22  1  0
 21 23  1  0
 23 24  1  0
 23 25  1  0
 25 26  2  0
  6 27  2  0
 27  2  1  0
 13  8  1  0
 25 18  1  0
  1 28  1  0
  1 29  1  0
  1 30  1  0
  3 31  1  0
  4 32  1  0
  5 33  1  0
  7 34  1  0
  9 35  1  0
 10 36  1  0
 11 37  1  0
 12 38  1  0
 17 39  1  0
 20 40  1  0
 20 41  1  0
 20 42  1  0
 22 43  1  0
 22 44  1  0
 22 45  1  0
 24 46  1  0
 24 47  1  0
 24 48  1  0
 27 49  1  0
M  END
>  <UniqueID>  (76) 
65

>  <SMILES>  (76) 
Cc1cccc(Nc2ccccc2S(=O)(=O)Nc2c(C)n(C)n(C)c2=O)c1

>  <Energy>  (76) 
91.577809585758

>  <Genealogy>  (76) 
Cc1cccc(Nc2ccccc2S(=O)(=O)Nc2c(C)n(C)n(C)c2=O)c1 (3D coordinates assigned)
Cc1cccc(Nc2ccccc2S(=O)(=O)Nc2c(C)n(C)n(C)c2=O)c1 (optimized conformer: 91.577809585758 kcal/mol)

>  <smiles>  (76) 
Cc1cccc(Nc2ccccc2S(=O)(=O)Nc2c(C)n(C)n(C)c2=O)c1

>  <score_type>  (76) 
oracle

>  <origin>  (76) 
adg

>  <m_score__min__energy>  (76) 
-8.3900000000000006

>  <m_primary>  (76) 
energy

$$$$
76:0
     RDKit          3D

 33 35  0  0  0  0  0  0  0  0999 V2000
   57.8833   31.9420   42.4753 H   0  0  0  0  0  0  0  0  0  0  0  0
   57.5930   31.9670   43.5360 C   0  0  0  0  0  0  0  0  0  0  0  0
   57.3490   30.6870   44.2320 C   0  0  0  0  0  0  0  0  0  0  0  0
   56.2720   30.5470   44.8710 O   0  0  0  0  0  0  0  0  0  0  0  0
   58.2780   29.5930   44.1450 N   0  0  0  0  0  0  0  0  0  0  0  0
   58.8600   29.5080   43.2820 H   0  0  0  0  0  0  0  0  0  0  0  0
   58.3350   28.5180   45.1000 C   0  0  0  0  0  0  0  0  0  0  0  0
   59.5380   28.2560   45.7730 C   0  0  0  0  0  0  0  0  0  0  0  0
   60.4297   28.8618   45.5541 H   0  0  0  0  0  0  0  0  0  0  0  0
   59.6110   27.2290   46.7210 C   0  0  0  0  0  0  0  0  0  0  0  0
   60.5613   27.0218   47.2349 H   0  0  0  0  0  0  0  0  0  0  0  0
   58.4780   26.4670   47.0150 C   0  0  0  0  0  0  0  0  0  0  0  0
   58.5372   25.6574   47.7574 H   0  0  0  0  0  0  0  0  0  0  0  0
   57.2690   26.7330   46.3660 C   0  0  0  0  0  0  0  0  0  0  0  0
   56.3759   26.1358   46.6022 H   0  0  0  0  0  0  0  0  0  0  0  0
   57.1930   27.7570   45.4170 C   0  0  0  0  0  0  0  0  0  0  0  0
   56.2371   27.9692   44.9158 H   0  0  0  0  0  0  0  0  0  0  0  0
   57.4760   33.1580   44.1410 C   0  0  0  0  0  0  0  0  0  0  0  0
   56.7510   33.8779   43.7334 H   0  0  0  0  0  0  0  0  0  0  0  0
   58.2690   33.5600   45.3290 C   0  0  0  0  0  0  0  0  0  0  0  0
   59.2340   34.6070   45.2890 C   0  0  0  0  0  0  0  0  0  0  0  0
   59.4177   35.1434   44.3464 H   0  0  0  0  0  0  0  0  0  0  0  0
   59.9540   34.9610   46.4440 C   0  0  0  0  0  0  0  0  0  0  0  0
   60.7070   35.7625   46.4192 H   0  0  0  0  0  0  0  0  0  0  0  0
   59.6850   34.2670   47.6180 C   0  0  0  0  0  0  0  0  0  0  0  0
   58.7600   33.2790   47.6710 C   0  0  0  0  0  0  0  0  0  0  0  0
   58.0250   32.8960   46.5530 C   0  0  0  0  0  0  0  0  0  0  0  0
   57.2727   32.0963   46.6201 H   0  0  0  0  0  0  0  0  0  0  0  0
   58.7000   32.7730   48.9550 O   0  0  0  0  0  0  0  0  0  0  0  0
   59.6480   33.4880   49.7590 C   0  0  0  0  0  0  0  0  0  0  0  0
   59.1402   34.0070   50.5853 H   0  0  0  0  0  0  0  0  0  0  0  0
   60.3902   32.8172   50.2163 H   0  0  0  0  0  0  0  0  0  0  0  0
   60.2550   34.4340   48.8670 O   0  0  0  0  0  0  0  0  0  0  0  0
  1  2  1  0
  2  3  1  0
  3  4  2  0
  3  5  1  0
  5  6  1  0
  5  7  1  0
  7  8  2  0
  8  9  1  0
  8 10  1  0
 10 11  1  0
 10 12  2  0
 12 13  1  0
 12 14  1  0
 14 15  1  0
 14 16  2  0
 16 17  1  0
  2 18  2  0
 18 19  1  0
 18 20  1  0
 20 21  2  0
 21 22  1  0
 21 23  1  0
 23 24  1  0
 23 25  2  0
 25 26  1  0
 26 27  2  0
 27 28  1  0
 26 29  1  0
 29 30  1  0
 30 31  1  0
 30 32  1  0
 30 33  1  0
 16  7  1  0
 27 20  1  0
 33 25  1  0
M  END
>  <UniqueID>  (77) 
66

>  <SMILES>  (77) 
O=C(/C=C/c1ccc2c(c1)OCO2)Nc1ccccc1

>  <Energy>  (77) 
69.15846712191478

>  <Genealogy>  (77) 
O=C(/C=C/c1ccc2c(c1)OCO2)Nc1ccccc1 (cis-trans isomerization)
O=C(/C=C/c1ccc2c(c1)OCO2)Nc1ccccc1 (3D coordinates assigned)
O=C(/C=C/c1ccc2c(c1)OCO2)Nc1ccccc1 (nonaromatic ring conformer: 69.15846712191478 kcal/mol)

>  <smiles>  (77) 
O=C(C=Cc1ccc2c(c1)OCO2)Nc1ccccc1

>  <score_type>  (77) 
oracle

>  <origin>  (77) 
adg

>  <m_score__min__energy>  (77) 
-7.3799999999999999

>  <m_primary>  (77) 
energy

$$$$
77:0
     RDKit          3D

 42 44  0  0  1  0  0  0  0  0999 V2000
   64.7750   33.0500   50.1390 C   0  0  0  0  0  0  0  0  0  0  0  0
   63.6100   33.2660   49.2220 C   0  0  0  0  0  0  0  0  0  0  0  0
   62.3900   33.6020   49.7080 N   0  0  0  0  0  0  0  0  0  0  0  0
   61.3650   33.7920   48.8530 C   0  0  0  0  0  0  0  0  0  0  0  0
   60.2200   34.1090   49.3360 N   0  0  0  0  0  0  0  0  0  0  0  0
   59.5120   33.3240   50.2710 C   0  0  0  0  0  0  0  0  0  0  0  0
   59.2750   33.8550   51.5410 C   0  0  0  0  0  0  0  0  0  0  0  0
   58.5790   33.1130   52.4870 C   0  0  0  0  0  0  0  0  0  0  0  0
   58.1030   31.8490   52.2210 C   0  0  0  0  0  0  0  0  0  0  0  0
   57.2300   30.9590   53.4690 Cl  0  0  0  0  0  0  0  0  0  0  0  0
   58.3390   31.3320   50.9660 C   0  0  0  0  0  0  0  0  0  0  0  0
   59.0320   32.0470   49.9910 C   0  0  0  0  0  0  0  0  0  0  0  0
   59.3000   31.3360   48.4100 Cl  0  0  0  0  0  0  0  0  0  0  0  0
   61.5440   33.6500   47.4990 C   0  0  0  0  0  0  0  0  0  0  0  0
   60.4620   33.8550   46.5400 C   0  0  0  0  0  0  0  0  0  0  0  0
   60.8020   33.8470   45.3150 O   0  0  0  0  0  0  0  0  0  0  0  0
   59.1130   34.0510   46.9120 N   0  0  0  0  0  0  0  0  0  0  0  0
   58.0170   34.2670   45.9790 C   0  0  0  0  0  0  0  0  0  0  0  0
   57.8220   33.0990   45.1130 C   0  0  0  0  0  0  0  0  0  0  0  0
   58.0860   33.2430   43.7560 C   0  0  0  0  0  0  0  0  0  0  0  0
   57.9270   32.1690   42.8730 C   0  0  0  0  0  0  0  0  0  0  0  0
   57.5050   30.9510   43.3360 C   0  0  0  0  0  0  0  0  0  0  0  0
   57.2380   30.7900   44.6880 C   0  0  0  0  0  0  0  0  0  0  0  0
   57.4020   31.8610   45.5450 C   0  0  0  0  0  0  0  0  0  0  0  0
   62.7960   33.3080   47.0130 C   0  0  0  0  0  0  0  0  0  0  0  0
   63.8080   33.1210   47.8830 N   0  0  0  0  0  0  0  0  0  0  0  0
   64.4360   33.1129   51.1836 H   0  0  0  0  0  0  0  0  0  0  0  0
   65.2084   32.0562   49.9533 H   0  0  0  0  0  0  0  0  0  0  0  0
   65.5359   33.8224   49.9533 H   0  0  0  0  0  0  0  0  0  0  0  0
   59.6399   34.8618   51.7924 H   0  0  0  0  0  0  0  0  0  0  0  0
   58.4025   33.5497   53.4810 H   0  0  0  0  0  0  0  0  0  0  0  0
   57.9692   30.3242   50.7262 H   0  0  0  0  0  0  0  0  0  0  0  0
   58.8890   34.0390   47.9370 H   0  0  0  0  0  0  0  0  0  0  0  0
   57.0931   34.4514   46.5468 H   0  0  0  0  0  0  0  0  0  0  0  0
   58.2621   35.1333   45.3469 H   0  0  0  0  0  0  0  0  0  0  0  0
   58.4250   34.2158   43.3703 H   0  0  0  0  0  0  0  0  0  0  0  0
   58.1418   32.3036   41.8026 H   0  0  0  0  0  0  0  0  0  0  0  0
   57.3788   30.1073   42.6416 H   0  0  0  0  0  0  0  0  0  0  0  0
   56.8985   29.8176   45.0743 H   0  0  0  0  0  0  0  0  0  0  0  0
   57.1886   31.7191   46.6147 H   0  0  0  0  0  0  0  0  0  0  0  0
   62.9614   33.1908   45.9318 H   0  0  0  0  0  0  0  0  0  0  0  0
   64.7620   32.8550   47.5050 H   0  0  0  0  0  0  0  0  0  0  0  0
  1  2  1  0
  2  3  2  0
  3  4  1  0
  4  5  2  0
  5  6  1  0
  6  7  2  0
  7  8  1  0
  8  9  2  0
  9 10  1  0
  9 11  1  0
 11 12  2  0
 12 13  1  0
  4 14  1  0
 14 15  1  0
 15 16  2  0
 15 17  1  0
 17 18  1  0
 18 19  1  0
 19 20  2  0
 20 21  1  0
 21 22  2  0
 22 23  1  0
 23 24  2  0
 14 25  2  0
 25 26  1  0
 26  2  1  0
 12  6  1  0
 24 19  1  0
  1 27  1  0
  1 28  1  0
  1 29  1  0
  7 30  1  0
  8 31  1  0
 11 32  1  0
 17 33  1  0
 18 34  1  0
 18 35  1  0
 20 36  1  0
 21 37  1  0
 22 38  1  0
 23 39  1  0
 24 40  1  0
 25 41  1  0
 26 42  1  0
M  END
>  <smiles>  (78) 
Cc1nc(=Nc2ccc(Cl)cc2Cl)c(C(=O)NCc2ccccc2)c[nH]1

>  <score_type>  (78) 
oracle

>  <origin>  (78) 
adg

>  <m_score__min__energy>  (78) 
-8.4100000000000001

>  <m_primary>  (78) 
energy

$$$$
78:0
     RDKit          3D

 52 54  0  0  0  0  0  0  0  0999 V2000
   56.9700   20.6330   48.9620 C   0  0  0  0  0  0  0  0  0  0  0  0
   57.3730   21.4460   47.8930 O   0  0  0  0  0  0  0  0  0  0  0  0
   57.3440   22.7280   48.3390 N   0  0  0  0  0  0  0  0  0  0  0  0
   56.3880   23.6680   47.8290 C   0  0  0  0  0  0  0  0  0  0  0  0
   55.1560   23.4290   47.9600 O   0  0  0  0  0  0  0  0  0  0  0  0
   56.8430   24.9190   47.1800 C   0  0  0  0  0  0  0  0  0  0  0  0
   56.0210   25.5840   46.2570 C   0  0  0  0  0  0  0  0  0  0  0  0
   56.4640   26.7460   45.6200 C   0  0  0  0  0  0  0  0  0  0  0  0
   57.7430   27.2640   45.8790 C   0  0  0  0  0  0  0  0  0  0  0  0
   58.2630   28.7160   45.0090 S   0  0  0  0  0  0  0  0  0  0  0  0
   58.2100   28.4370   43.5320 O   0  0  0  0  0  0  0  0  0  0  0  0
   59.6820   29.0760   45.3640 O   0  0  0  0  0  0  0  0  0  0  0  0
   57.2440   30.0770   45.3620 N   0  0  0  0  0  0  0  0  0  0  0  0
   57.7210   31.4160   45.5590 C   0  0  0  0  0  0  0  0  0  0  0  0
   57.5370   32.3780   44.5550 C   0  0  0  0  0  0  0  0  0  0  0  0
   58.0040   33.6800   44.7240 C   0  0  0  0  0  0  0  0  0  0  0  0
   58.6620   34.0390   45.8960 C   0  0  0  0  0  0  0  0  0  0  0  0
   58.8750   33.1000   46.9130 C   0  0  0  0  0  0  0  0  0  0  0  0
   59.7440   33.6540   48.3960 S   0  0  0  0  0  0  0  0  0  0  0  0
   61.3900   33.2350   47.7770 C   0  0  0  0  0  0  0  0  0  0  0  0
   62.0770   34.1930   47.0140 C   0  0  0  0  0  0  0  0  0  0  0  0
   63.3520   33.9250   46.5110 C   0  0  0  0  0  0  0  0  0  0  0  0
   63.9520   32.6900   46.7510 C   0  0  0  0  0  0  0  0  0  0  0  0
   63.2720   31.7130   47.4810 C   0  0  0  0  0  0  0  0  0  0  0  0
   61.9820   31.9640   47.9920 C   0  0  0  0  0  0  0  0  0  0  0  0
   61.2940   30.8620   48.7590 C   0  0  0  0  0  0  0  0  0  0  0  0
   61.2040   29.7230   47.9480 O   0  0  0  0  0  0  0  0  0  0  0  0
   58.3890   31.7740   46.7640 C   0  0  0  0  0  0  0  0  0  0  0  0
   58.5160   30.8080   47.8920 C   0  0  0  0  0  0  0  0  0  0  0  0
   58.5580   29.5620   47.7020 O   0  0  0  0  0  0  0  0  0  0  0  0
   58.5800   26.6060   46.8120 C   0  0  0  0  0  0  0  0  0  0  0  0
   59.9010   27.0810   47.1160 N   0  0  0  0  0  0  0  0  0  0  0  0
   58.1180   25.4450   47.4580 C   0  0  0  0  0  0  0  0  0  0  0  0
   57.2158   21.1288   49.9127 H   0  0  0  0  0  0  0  0  0  0  0  0
   55.8843   20.4651   48.9060 H   0  0  0  0  0  0  0  0  0  0  0  0
   57.4937   19.6673   48.9060 H   0  0  0  0  0  0  0  0  0  0  0  0
   55.0198   25.1871   46.0333 H   0  0  0  0  0  0  0  0  0  0  0  0
   55.8030   27.2610   44.9073 H   0  0  0  0  0  0  0  0  0  0  0  0
   57.0188   32.1019   43.6248 H   0  0  0  0  0  0  0  0  0  0  0  0
   57.8521   34.4252   43.9293 H   0  0  0  0  0  0  0  0  0  0  0  0
   59.0188   35.0715   46.0253 H   0  0  0  0  0  0  0  0  0  0  0  0
   61.6055   35.1657   46.8101 H   0  0  0  0  0  0  0  0  0  0  0  0
   63.8833   34.6893   45.9248 H   0  0  0  0  0  0  0  0  0  0  0  0
   64.9615   32.4849   46.3652 H   0  0  0  0  0  0  0  0  0  0  0  0
   63.7477   30.7373   47.6593 H   0  0  0  0  0  0  0  0  0  0  0  0
   61.8744   30.6251   49.6629 H   0  0  0  0  0  0  0  0  0  0  0  0
   60.2849   31.1889   49.0504 H   0  0  0  0  0  0  0  0  0  0  0  0
   60.6080   29.9670   47.1900 H   0  0  0  0  0  0  0  0  0  0  0  0
   58.5748   31.1933   48.9206 H   0  0  0  0  0  0  0  0  0  0  0  0
   60.0730   28.1080   47.2510 H   0  0  0  0  0  0  0  0  0  0  0  0
   60.7260   26.4440   47.2070 H   0  0  0  0  0  0  0  0  0  0  0  0
   58.7636   24.9405   48.1919 H   0  0  0  0  0  0  0  0  0  0  0  0
  1  2  1  0
  2  3  1  0
  3  4  1  0
  4  5  2  0
  4  6  1  0
  6  7  2  0
  7  8  1  0
  8  9  2  0
  9 10  1  0
 10 11  2  0
 10 12  2  0
 10 13  1  0
 13 14  1  0
 14 15  2  0
 15 16  1  0
 16 17  2  0
 17 18  1  0
 18 19  1  0
 19 20  1  0
 20 21  2  0
 21 22  1  0
 22 23  2  0
 23 24  1  0
 24 25  2  0
 25 26  1  0
 26 27  1  0
 18 28  2  0
 28 29  1  0
 29 30  2  0
  9 31  1  0
 31 32  1  0
 31 33  2  0
 33  6  1  0
 28 14  1  0
 25 20  1  0
  1 34  1  0
  1 35  1  0
  1 36  1  0
  7 37  1  0
  8 38  1  0
 15 39  1  0
 16 40  1  0
 17 41  1  0
 21 42  1  0
 22 43  1  0
 23 44  1  0
 24 45  1  0
 26 46  1  0
 26 47  1  0
 27 48  1  0
 29 49  1  0
 32 50  1  0
 32 51  1  0
 33 52  1  0
M  CHG  2   3  -1  13  -1
M  END
>  <UniqueID>  (79) 
67

>  <SMILES>  (79) 
CO[N-]C(=O)c1ccc(S(=O)(=O)[N-]c2cccc(Sc3ccccc3CO)c2C=O)c(N)c1

>  <Energy>  (79) 
62.92815310527034

>  <Genealogy>  (79) 
CO[N-]C(=O)c1ccc(S(=O)(=O)[N-]c2cccc(Sc3ccccc3CO)c2C=O)c(N)c1 (protonated)
CO[N-]C(=O)c1ccc(S(=O)(=O)[N-]c2cccc(Sc3ccccc3CO)c2C=O)c(N)c1 (3D coordinates assigned)
CO[N-]C(=O)c1ccc(S(=O)(=O)[N-]c2cccc(Sc3ccccc3CO)c2C=O)c(N)c1 (optimized conformer: 62.92815310527034 kcal/mol)

>  <smiles>  (79) 
CONC(=O)c1ccc(S(=O)(=O)Nc2cccc(Sc3ccccc3CO)c2C=O)c(N)c1

>  <score_type>  (79) 
oracle

>  <origin>  (79) 
adg

>  <m_score__min__energy>  (79) 
-12.02

>  <m_primary>  (79) 
energy

$$$$
79:0
     RDKit          3D

 53 56  0  0  0  0  0  0  0  0999 V2000
   53.5540   30.2100   51.4130 C   0  0  0  0  0  0  0  0  0  0  0  0
   54.8670   30.6070   52.0860 C   0  0  0  0  0  0  0  0  0  0  0  0
   55.5480   29.4270   52.7970 C   0  0  0  0  0  0  0  0  0  0  0  0
   57.0830   29.4270   52.6820 C   0  0  0  0  0  0  0  0  0  0  0  0
   57.6080   30.7770   52.4110 N   0  0  0  0  0  0  0  0  0  0  0  0
   57.6580   31.7520   53.3840 C   0  0  0  0  0  0  0  0  0  0  0  0
   57.2750   31.5080   54.5600 O   0  0  0  0  0  0  0  0  0  0  0  0
   58.1280   33.0010   53.0880 N   0  0  0  0  0  0  0  0  0  0  0  0
   58.5540   33.3360   51.8390 C   0  0  0  0  0  0  0  0  0  0  0  0
   58.9720   34.5010   51.6180 O   0  0  0  0  0  0  0  0  0  0  0  0
   58.4980   32.3540   50.8430 C   0  0  0  0  0  0  0  0  0  0  0  0
   58.0420   31.1130   51.1610 C   0  0  0  0  0  0  0  0  0  0  0  0
   58.1170   30.2910   50.1030 N   0  0  0  0  0  0  0  0  0  0  0  0
   58.6050   31.0900   49.1240 C   0  0  0  0  0  0  0  0  0  0  0  0
   58.7780   30.6150   47.9220 N   0  0  0  0  0  0  0  0  0  0  0  0
   58.5260   29.2940   47.4370 C   0  0  0  0  0  0  0  0  0  0  0  0
   59.1110   28.3190   47.9760 O   0  0  0  0  0  0  0  0  0  0  0  0
   57.5490   29.0480   46.4180 N   0  0  0  0  0  0  0  0  0  0  0  0
   57.4270   29.7680   45.1820 C   0  0  0  0  0  0  0  0  0  0  0  0
   58.4810   30.5550   44.6830 C   0  0  0  0  0  0  0  0  0  0  0  0
   58.3310   31.2510   43.4790 C   0  0  0  0  0  0  0  0  0  0  0  0
   57.1270   31.1810   42.7760 C   0  0  0  0  0  0  0  0  0  0  0  0
   56.0680   30.4200   43.2770 C   0  0  0  0  0  0  0  0  0  0  0  0
   56.2130   29.7210   44.4800 C   0  0  0  0  0  0  0  0  0  0  0  0
   55.1490   28.9720   44.9720 O   0  0  0  0  0  0  0  0  0  0  0  0
   58.8700   32.3750   49.5380 N   0  0  0  0  0  0  0  0  0  0  0  0
   59.6860   33.4080   48.8710 C   0  0  0  0  0  0  0  0  0  0  0  0
   59.1600   33.7190   47.4920 C   0  0  0  0  0  0  0  0  0  0  0  0
   57.8190   33.4510   47.1690 C   0  0  0  0  0  0  0  0  0  0  0  0
   57.3230   33.7600   45.8990 C   0  0  0  0  0  0  0  0  0  0  0  0
   58.1560   34.3530   44.9470 C   0  0  0  0  0  0  0  0  0  0  0  0
   59.4820   34.6470   45.2670 C   0  0  0  0  0  0  0  0  0  0  0  0
   59.9840   34.3410   46.5350 C   0  0  0  0  0  0  0  0  0  0  0  0
   52.8017   29.9825   52.1826 H   0  0  0  0  0  0  0  0  0  0  0  0
   53.1976   31.0405   50.7860 H   0  0  0  0  0  0  0  0  0  0  0  0
   53.7175   29.3211   50.7860 H   0  0  0  0  0  0  0  0  0  0  0  0
   55.5515   30.9986   51.3191 H   0  0  0  0  0  0  0  0  0  0  0  0
   54.6344   31.3654   52.8481 H   0  0  0  0  0  0  0  0  0  0  0  0
   55.2812   29.4654   53.8635 H   0  0  0  0  0  0  0  0  0  0  0  0
   55.1923   28.5105   52.3036 H   0  0  0  0  0  0  0  0  0  0  0  0
   57.5115   29.0606   53.6265 H   0  0  0  0  0  0  0  0  0  0  0  0
   57.3645   28.7741   51.8427 H   0  0  0  0  0  0  0  0  0  0  0  0
   59.4262   30.6232   45.2415 H   0  0  0  0  0  0  0  0  0  0  0  0
   59.1626   31.8541   43.0857 H   0  0  0  0  0  0  0  0  0  0  0  0
   57.0121   31.7253   41.8271 H   0  0  0  0  0  0  0  0  0  0  0  0
   55.1182   30.3703   42.7244 H   0  0  0  0  0  0  0  0  0  0  0  0
   59.6666   34.3259   49.4769 H   0  0  0  0  0  0  0  0  0  0  0  0
   60.7133   33.0273   48.7721 H   0  0  0  0  0  0  0  0  0  0  0  0
   57.1560   32.9957   47.9194 H   0  0  0  0  0  0  0  0  0  0  0  0
   56.2755   33.5359   45.6489 H   0  0  0  0  0  0  0  0  0  0  0  0
   57.7667   34.5881   43.9454 H   0  0  0  0  0  0  0  0  0  0  0  0
   60.1343   35.1211   44.5189 H   0  0  0  0  0  0  0  0  0  0  0  0
   61.0264   34.5870   46.7860 H   0  0  0  0  0  0  0  0  0  0  0  0
  1  2  1  0
  2  3  1  0
  3  4  1  0
  4  5  1  0
  5  6  1  0
  6  7  2  0
  6  8  1  0
  8  9  1  0
  9 10  2  0
  9 11  1  0
 11 12  2  0
 12 13  1  0
 13 14  1  0
 14 15  2  3
 15 16  1  0
 16 17  2  0
 16 18  1  0
 18 19  1  0
 19 20  2  0
 20 21  1  0
 21 22  2  0
 22 23  1  0
 23 24  2  0
 24 25  1  0
 14 26  1  0
 26 27  1  0
 27 28  1  0
 28 29  2  0
 29 30  1  0
 30 31  2  0
 31 32  1  0
 32 33  2  0
 12  5  1  0
 24 19  1  0
 33 28  1  0
 26 11  1  0
  1 34  1  0
  1 35  1  0
  1 36  1  0
  2 37  1  0
  2 38  1  0
  3 39  1  0
  3 40  1  0
  4 41  1  0
  4 42  1  0
 20 43  1  0
 21 44  1  0
 22 45  1  0
 23 46  1  0
 27 47  1  0
 27 48  1  0
 29 49  1  0
 30 50  1  0
 31 51  1  0
 32 52  1  0
 33 53  1  0
M  CHG  4   8  -1  13  -1  18  -1  25  -1
M  END
>  <UniqueID>  (80) 
68

>  <SMILES>  (80) 
CCCCn1c(=O)[n-]c(=O)c2c1[n-]c(=NC(=O)[N-]c1ccccc1[O-])n2Cc1ccccc1

>  <Energy>  (80) 
112.61430990857826

>  <Genealogy>  (80) 
CCCCn1c(=O)[n-]c(=O)c2c1[n-]c(=NC(=O)[N-]c1ccccc1[O-])n2Cc1ccccc1 (protonated)
CCCCn1c(=O)[n-]c(=O)c2c1[n-]c(=NC(=O)[N-]c1ccccc1[O-])n2Cc1ccccc1 (3D coordinates assigned)
CCCCn1c(=O)[n-]c(=O)c2c1[n-]c(=NC(=O)[N-]c1ccccc1[O-])n2Cc1ccccc1 (optimized conformer: 112.61430990857826 kcal/mol)

>  <smiles>  (80) 
CCCCn1c(=O)[nH]c(=O)c2c1[nH]c(=NC(=O)Nc1ccccc1O)n2Cc1ccccc1

>  <score_type>  (80) 
oracle

>  <origin>  (80) 
adg

>  <m_score__min__energy>  (80) 
-14.640000000000001

>  <m_primary>  (80) 
energy

$$$$
80:0
     RDKit          3D

 50 52  0  0  0  0  0  0  0  0999 V2000
   54.7660   26.7160   45.1400 H   0  0  0  0  0  0  0  0  0  0  0  0
   55.1880   26.6480   46.0940 N   0  0  0  0  0  0  0  0  0  0  0  0
   56.8550   27.0790   45.9420 S   0  0  0  0  0  0  0  0  0  0  0  0
   57.4670   27.1510   47.3130 O   0  0  0  0  0  0  0  0  0  0  0  0
   57.5790   26.0250   45.1500 O   0  0  0  0  0  0  0  0  0  0  0  0
   56.9930   28.6430   45.1260 C   0  0  0  0  0  0  0  0  0  0  0  0
   55.8250   29.3080   44.7170 C   0  0  0  0  0  0  0  0  0  0  0  0
   54.8437   28.8427   44.8916 H   0  0  0  0  0  0  0  0  0  0  0  0
   55.8980   30.5540   44.0910 C   0  0  0  0  0  0  0  0  0  0  0  0
   54.9759   31.0676   43.7812 H   0  0  0  0  0  0  0  0  0  0  0  0
   57.1370   31.1480   43.8580 C   0  0  0  0  0  0  0  0  0  0  0  0
   57.1922   32.1286   43.3627 H   0  0  0  0  0  0  0  0  0  0  0  0
   58.3080   30.4990   44.2530 C   0  0  0  0  0  0  0  0  0  0  0  0
   59.2840   30.9667   44.0562 H   0  0  0  0  0  0  0  0  0  0  0  0
   58.2500   29.2510   44.9010 C   0  0  0  0  0  0  0  0  0  0  0  0
   59.5120   28.5780   45.2940 C   0  0  0  0  0  0  0  0  0  0  0  0
   59.6114   27.5007   45.0953 H   0  0  0  0  0  0  0  0  0  0  0  0
   60.5090   29.1950   45.8620 N   0  0  0  0  0  0  0  0  0  0  0  0
   60.7130   29.3520   47.2740 C   0  0  0  0  0  0  0  0  0  0  0  0
   60.1550   28.4450   48.1940 C   0  0  0  0  0  0  0  0  0  0  0  0
   59.5618   27.5919   47.8330 H   0  0  0  0  0  0  0  0  0  0  0  0
   60.3530   28.6260   49.5640 C   0  0  0  0  0  0  0  0  0  0  0  0
   59.9149   27.9159   50.2808 H   0  0  0  0  0  0  0  0  0  0  0  0
   61.1070   29.7080   50.0260 C   0  0  0  0  0  0  0  0  0  0  0  0
   61.2490   29.8564   51.1067 H   0  0  0  0  0  0  0  0  0  0  0  0
   61.6830   30.6050   49.1150 C   0  0  0  0  0  0  0  0  0  0  0  0
   62.5710   32.0010   49.7180 S   0  0  0  0  0  0  0  0  0  0  0  0
   61.8890   32.5140   50.9540 O   0  0  0  0  0  0  0  0  0  0  0  0
   63.9880   31.6350   50.0670 O   0  0  0  0  0  0  0  0  0  0  0  0
   62.5760   33.2480   48.5090 N   0  0  0  0  0  0  0  0  0  0  0  0
   61.5400   33.8410   47.9840 C   0  0  0  0  0  0  0  0  0  0  0  0
   60.4700   34.1970   48.8770 N   0  0  0  0  0  0  0  0  0  0  0  0
   60.5710   33.9630   49.8920 H   0  0  0  0  0  0  0  0  0  0  0  0
   59.2650   34.9110   48.4690 C   0  0  0  0  0  0  0  0  0  0  0  0
   59.5496   35.8924   48.0618 H   0  0  0  0  0  0  0  0  0  0  0  0
   58.6155   35.0306   49.3486 H   0  0  0  0  0  0  0  0  0  0  0  0
   58.4940   34.1280   47.3970 C   0  0  0  0  0  0  0  0  0  0  0  0
   57.4313   34.4039   47.4639 H   0  0  0  0  0  0  0  0  0  0  0  0
   58.6665   33.0600   47.5959 H   0  0  0  0  0  0  0  0  0  0  0  0
   58.9750   34.3980   45.9610 C   0  0  0  0  0  0  0  0  0  0  0  0
   59.0900   35.4834   45.8244 H   0  0  0  0  0  0  0  0  0  0  0  0
   58.2250   33.9842   45.2709 H   0  0  0  0  0  0  0  0  0  0  0  0
   60.3180   33.7170   45.6600 C   0  0  0  0  0  0  0  0  0  0  0  0
   60.5551   33.8794   44.5982 H   0  0  0  0  0  0  0  0  0  0  0  0
   60.1939   32.6544   45.9157 H   0  0  0  0  0  0  0  0  0  0  0  0
   61.5080   34.2380   46.5070 C   0  0  0  0  0  0  0  0  0  0  0  0
   61.4921   35.3369   46.4597 H   0  0  0  0  0  0  0  0  0  0  0  0
   62.3985   33.7658   46.0665 H   0  0  0  0  0  0  0  0  0  0  0  0
   61.5030   30.4100   47.7390 C   0  0  0  0  0  0  0  0  0  0  0  0
   61.9843   31.0909   47.0215 H   0  0  0  0  0  0  0  0  0  0  0  0
  1  2  1  0
  2  3  1  0
  3  4  2  0
  3  5  2  0
  3  6  1  0
  6  7  2  0
  7  8  1  0
  7  9  1  0
  9 10  1  0
  9 11  2  0
 11 12  1  0
 11 13  1  0
 13 14  1  0
 13 15  2  0
 15 16  1  0
 16 17  1  0
 16 18  2  3
 18 19  1  0
 19 20  2  0
 20 21  1  0
 20 22  1  0
 22 23  1  0
 22 24  2  0
 24 25  1  0
 24 26  1  0
 26 27  1  0
 27 28  2  0
 27 29  2  0
 27 30  1  0
 30 31  2  0
 31 32  1  0
 32 33  1  0
 32 34  1  0
 34 35  1  0
 34 36  1  0
 34 37  1  0
 37 38  1  0
 37 39  1  0
 37 40  1  0
 40 41  1  0
 40 42  1  0
 40 43  1  0
 43 44  1  0
 43 45  1  0
 43 46  1  0
 46 47  1  0
 46 48  1  0
 26 49  2  0
 49 50  1  0
 15  6  1  0
 49 19  1  0
 46 31  1  0
M  CHG  1   2  -1
M  END
>  <UniqueID>  (81) 
69

>  <SMILES>  (81) 
[NH-]S(=O)(=O)c1ccccc1C=Nc1cccc(S(=O)(=O)/N=C2\CCCCCN2)c1

>  <Energy>  (81) 
70.42925768312307

>  <Genealogy>  (81) 
[NH-]S(=O)(=O)c1ccccc1C=Nc1cccc(S(=O)(=O)N=C2CCCCCN2)c1 (protonated)
[NH-]S(=O)(=O)c1ccccc1C=Nc1cccc(S(=O)(=O)/N=C2\CCCCCN2)c1 (cis-trans isomerization)
[NH-]S(=O)(=O)c1ccccc1C=Nc1cccc(S(=O)(=O)/N=C2\CCCCCN2)c1 (3D coordinates assigned)
[NH-]S(=O)(=O)c1ccccc1C=Nc1cccc(S(=O)(=O)/N=C2\CCCCCN2)c1 (nonaromatic ring conformer: 70.42925768312307 kcal/mol)

>  <smiles>  (81) 
NS(=O)(=O)c1ccccc1C=Nc1cccc(S(=O)(=O)N=C2CCCCCN2)c1

>  <score_type>  (81) 
oracle

>  <origin>  (81) 
adg

>  <m_score__min__energy>  (81) 
-10.880000000000001

>  <m_primary>  (81) 
energy

$$$$
81:0
     RDKit          3D

 45 47  0  0  0  0  0  0  0  0999 V2000
   58.0103   31.0620   42.1467 H   0  0  0  0  0  0  0  0  0  0  0  0
   57.7450   31.4870   43.1260 C   0  0  0  0  0  0  0  0  0  0  0  0
   58.2450   32.9780   43.7260 S   0  0  0  0  0  0  0  0  0  0  0  0
   57.4240   32.7830   45.1750 C   0  0  0  0  0  0  0  0  0  0  0  0
   57.4270   33.6680   46.1270 N   0  0  0  0  0  0  0  0  0  0  0  0
   58.5750   34.1020   46.8730 C   0  0  0  0  0  0  0  0  0  0  0  0
   59.3820   34.9470   46.3970 O   0  0  0  0  0  0  0  0  0  0  0  0
   58.8400   33.5050   48.2190 C   0  0  0  0  0  0  0  0  0  0  0  0
   59.6485   34.0642   48.7125 H   0  0  0  0  0  0  0  0  0  0  0  0
   57.9235   33.5604   48.8248 H   0  0  0  0  0  0  0  0  0  0  0  0
   59.2480   32.0650   48.0730 C   0  0  0  0  0  0  0  0  0  0  0  0
   60.0660   31.6720   47.0010 C   0  0  0  0  0  0  0  0  0  0  0  0
   60.3860   32.4163   46.2569 H   0  0  0  0  0  0  0  0  0  0  0  0
   60.4760   30.3430   46.8730 C   0  0  0  0  0  0  0  0  0  0  0  0
   61.1021   30.0441   46.0194 H   0  0  0  0  0  0  0  0  0  0  0  0
   60.0940   29.3860   47.8270 C   0  0  0  0  0  0  0  0  0  0  0  0
   60.4940   28.0080   47.6830 N   0  0  0  0  0  0  0  0  0  0  0  0
   59.9010   27.4020   48.2980 H   0  0  0  0  0  0  0  0  0  0  0  0
   61.4910   27.8950   47.9850 H   0  0  0  0  0  0  0  0  0  0  0  0
   60.3490   27.5860   46.2830 C   0  0  0  0  0  0  0  0  0  0  0  0
   60.3371   28.4757   45.6362 H   0  0  0  0  0  0  0  0  0  0  0  0
   61.1957   26.9356   46.0182 H   0  0  0  0  0  0  0  0  0  0  0  0
   59.0670   26.8180   46.0930 C   0  0  0  0  0  0  0  0  0  0  0  0
   57.8310   27.4820   46.1470 C   0  0  0  0  0  0  0  0  0  0  0  0
   57.8001   28.5708   46.3007 H   0  0  0  0  0  0  0  0  0  0  0  0
   56.6390   26.7640   46.0060 C   0  0  0  0  0  0  0  0  0  0  0  0
   55.6736   27.2901   46.0398 H   0  0  0  0  0  0  0  0  0  0  0  0
   56.6730   25.3770   45.8220 C   0  0  0  0  0  0  0  0  0  0  0  0
   55.0450   24.3970   45.6320 Br  0  0  0  0  0  0  0  0  0  0  0  0
   57.9010   24.7090   45.7830 C   0  0  0  0  0  0  0  0  0  0  0  0
   57.9283   23.6185   45.6411 H   0  0  0  0  0  0  0  0  0  0  0  0
   59.0940   25.4240   45.9240 C   0  0  0  0  0  0  0  0  0  0  0  0
   60.0571   24.8930   45.9025 H   0  0  0  0  0  0  0  0  0  0  0  0
   59.2770   29.7790   48.9020 C   0  0  0  0  0  0  0  0  0  0  0  0
   58.9605   29.0348   49.6477 H   0  0  0  0  0  0  0  0  0  0  0  0
   58.8640   31.1090   49.0300 C   0  0  0  0  0  0  0  0  0  0  0  0
   58.0900   31.4630   50.0870 F   0  0  0  0  0  0  0  0  0  0  0  0
   56.7660   31.6040   45.2320 N   0  0  0  0  0  0  0  0  0  0  0  0
   56.9350   30.8850   44.0890 C   0  0  0  0  0  0  0  0  0  0  0  0
   56.3440   29.5210   43.9220 C   0  0  0  0  0  0  0  0  0  0  0  0
   57.1202   28.7627   44.1026 H   0  0  0  0  0  0  0  0  0  0  0  0
   55.9544   29.4183   42.8985 H   0  0  0  0  0  0  0  0  0  0  0  0
   55.2530   29.3320   44.8720 N   0  0  0  0  0  0  0  0  0  0  0  0
   55.5360   29.7800   45.7730 H   0  0  0  0  0  0  0  0  0  0  0  0
   55.1630   28.3070   45.0660 H   0  0  0  0  0  0  0  0  0  0  0  0
  1  2  1  0
  2  3  1  0
  3  4  1  0
  4  5  2  0
  5  6  1  0
  6  7  2  0
  6  8  1  0
  8  9  1  0
  8 10  1  0
  8 11  1  0
 11 12  2  0
 12 13  1  0
 12 14  1  0
 14 15  1  0
 14 16  2  0
 16 17  1  0
 17 18  1  0
 17 19  1  0
 17 20  1  0
 20 21  1  0
 20 22  1  0
 20 23  1  0
 23 24  2  0
 24 25  1  0
 24 26  1  0
 26 27  1  0
 26 28  2  0
 28 29  1  0
 28 30  1  0
 30 31  1  0
 30 32  2  0
 32 33  1  0
 16 34  1  0
 34 35  1  0
 34 36  2  0
 36 37  1  0
  4 38  1  0
 38 39  1  0
 39 40  1  0
 40 41  1  0
 40 42  1  0
 40 43  1  0
 43 44  1  0
 43 45  1  0
 39  2  2  0
 36 11  1  0
 32 23  1  0
M  CHG  2  17   1  38  -1
M  END
>  <UniqueID>  (82) 
70

>  <SMILES>  (82) 
NCc1cs/c(=N/C(=O)Cc2ccc([NH2+]Cc3ccc(Br)cc3)cc2F)[n-]1

>  <Energy>  (82) 
74.56496016470825

>  <Genealogy>  (82) 
NCc1csc(=NC(=O)Cc2ccc([NH2+]Cc3ccc(Br)cc3)cc2F)[n-]1 (protonated)
NCc1cs/c(=N/C(=O)Cc2ccc([NH2+]Cc3ccc(Br)cc3)cc2F)[n-]1 (cis-trans isomerization)
NCc1cs/c(=N/C(=O)Cc2ccc([NH2+]Cc3ccc(Br)cc3)cc2F)[n-]1 (3D coordinates assigned)
NCc1cs/c(=N/C(=O)Cc2ccc([NH2+]Cc3ccc(Br)cc3)cc2F)[n-]1 (optimized conformer: 74.56496016470825 kcal/mol)

>  <smiles>  (82) 
NCc1csc(=NC(=O)Cc2ccc(NCc3ccc(Br)cc3)cc2F)[nH]1

>  <score_type>  (82) 
oracle

>  <origin>  (82) 
adg

>  <m_score__min__energy>  (82) 
-9.5500000000000007

>  <m_primary>  (82) 
energy

$$$$
82:0
     RDKit          3D

 71 74  0  0  0  0  0  0  0  0999 V2000
   63.5840   33.4490   47.9380 C   0  0  0  0  0  0  0  0  0  0  0  0
   62.3620   34.1770   48.0110 O   0  0  0  0  0  0  0  0  0  0  0  0
   61.2250   33.8910   47.2400 C   0  0  0  0  0  0  0  0  0  0  0  0
   60.3490   34.9380   46.9260 C   0  0  0  0  0  0  0  0  0  0  0  0
   59.2150   34.7050   46.1430 C   0  0  0  0  0  0  0  0  0  0  0  0
   58.9340   33.4150   45.6780 C   0  0  0  0  0  0  0  0  0  0  0  0
   57.5600   33.1220   44.6180 S   0  0  0  0  0  0  0  0  0  0  0  0
   58.0430   32.8630   43.2190 O   0  0  0  0  0  0  0  0  0  0  0  0
   56.6570   34.3240   44.6020 O   0  0  0  0  0  0  0  0  0  0  0  0
   56.6960   31.7390   45.1940 N   0  0  0  0  0  0  0  0  0  0  0  0
   57.1450   30.4270   44.8630 C   0  0  0  0  0  0  0  0  0  0  0  0
   56.9030   29.9190   43.5790 C   0  0  0  0  0  0  0  0  0  0  0  0
   57.3760   28.6540   43.2210 C   0  0  0  0  0  0  0  0  0  0  0  0
   58.0710   27.8800   44.1520 C   0  0  0  0  0  0  0  0  0  0  0  0
   58.3020   28.3730   45.4390 C   0  0  0  0  0  0  0  0  0  0  0  0
   57.8680   29.6610   45.7960 C   0  0  0  0  0  0  0  0  0  0  0  0
   58.0690   30.1750   47.1200 N   0  0  0  0  0  0  0  0  0  0  0  0
   59.1100   29.8020   48.0350 C   0  0  0  0  0  0  0  0  0  0  0  0
   60.3070   29.8580   47.6470 O   0  0  0  0  0  0  0  0  0  0  0  0
   58.8180   29.3020   49.4180 C   0  0  0  0  0  0  0  0  0  0  0  0
   58.5910   30.4320   50.3030 N   0  0  0  0  0  0  0  0  0  0  0  0
   57.5990   30.4370   51.3280 C   0  0  0  0  0  0  0  0  0  0  0  0
   57.3850   29.4000   52.0140 O   0  0  0  0  0  0  0  0  0  0  0  0
   56.8480   31.7090   51.6130 C   0  0  2  0  0  0  0  0  0  0  0  0
   57.6920   32.6720   52.4660 C   0  0  0  0  0  0  0  0  0  0  0  0
   59.1030   32.8340   51.9500 C   0  0  0  0  0  0  0  0  0  0  0  0
   60.1730   32.2000   52.6070 C   0  0  0  0  0  0  0  0  0  0  0  0
   61.4830   32.3770   52.1520 C   0  0  0  0  0  0  0  0  0  0  0  0
   61.7340   33.1900   51.0430 C   0  0  0  0  0  0  0  0  0  0  0  0
   60.6770   33.8280   50.3870 C   0  0  0  0  0  0  0  0  0  0  0  0
   59.3650   33.6510   50.8370 C   0  0  0  0  0  0  0  0  0  0  0  0
   55.5740   31.4370   52.2790 N   0  0  0  0  0  0  0  0  0  0  0  0
   54.5730   30.5030   51.8520 C   0  0  0  0  0  0  0  0  0  0  0  0
   54.7730   29.2770   52.0620 O   0  0  0  0  0  0  0  0  0  0  0  0
   53.2770   30.9290   51.2090 C   0  0  0  0  0  0  0  0  0  0  0  0
   52.2410   31.2230   52.2650 C   0  0  0  0  0  0  0  0  0  0  0  0
   52.3750   30.6600   53.5480 C   0  0  0  0  0  0  0  0  0  0  0  0
   51.4720   30.9880   54.5620 C   0  0  0  0  0  0  0  0  0  0  0  0
   50.4180   31.8680   54.3050 C   0  0  0  0  0  0  0  0  0  0  0  0
   50.2730   32.4320   53.0340 C   0  0  0  0  0  0  0  0  0  0  0  0
   51.1830   32.1220   52.0180 C   0  0  0  0  0  0  0  0  0  0  0  0
   51.0330   32.7150   50.7670 O   0  0  0  0  0  0  0  0  0  0  0  0
   59.8010   32.3610   45.9950 C   0  0  0  0  0  0  0  0  0  0  0  0
   60.9400   32.5970   46.7690 C   0  0  0  0  0  0  0  0  0  0  0  0
   63.9443   33.2344   48.9549 H   0  0  0  0  0  0  0  0  0  0  0  0
   63.4161   32.5036   47.4013 H   0  0  0  0  0  0  0  0  0  0  0  0
   64.3354   34.0468   47.4013 H   0  0  0  0  0  0  0  0  0  0  0  0
   60.5554   35.9521   47.2988 H   0  0  0  0  0  0  0  0  0  0  0  0
   58.5415   35.5376   45.8915 H   0  0  0  0  0  0  0  0  0  0  0  0
   56.3383   30.5189   42.8502 H   0  0  0  0  0  0  0  0  0  0  0  0
   57.2008   28.2681   42.2059 H   0  0  0  0  0  0  0  0  0  0  0  0
   58.4371   26.8812   43.8723 H   0  0  0  0  0  0  0  0  0  0  0  0
   58.8269   27.7489   46.1773 H   0  0  0  0  0  0  0  0  0  0  0  0
   57.9202   28.6668   49.3964 H   0  0  0  0  0  0  0  0  0  0  0  0
   59.6732   28.7151   49.7842 H   0  0  0  0  0  0  0  0  0  0  0  0
   56.6391   32.1877   50.6449 H   0  0  0  0  0  0  0  0  0  0  0  0
   57.2041   33.6579   52.4684 H   0  0  0  0  0  0  0  0  0  0  0  0
   57.7580   32.2447   53.4775 H   0  0  0  0  0  0  0  0  0  0  0  0
   59.9783   31.5625   53.4821 H   0  0  0  0  0  0  0  0  0  0  0  0
   62.3163   31.8764   52.6668 H   0  0  0  0  0  0  0  0  0  0  0  0
   62.7652   33.3281   50.6857 H   0  0  0  0  0  0  0  0  0  0  0  0
   60.8776   34.4696   49.5163 H   0  0  0  0  0  0  0  0  0  0  0  0
   58.5351   34.1530   50.3180 H   0  0  0  0  0  0  0  0  0  0  0  0
   53.4501   31.8342   50.6085 H   0  0  0  0  0  0  0  0  0  0  0  0
   52.9117   30.1146   50.5661 H   0  0  0  0  0  0  0  0  0  0  0  0
   53.1960   29.9573   53.7535 H   0  0  0  0  0  0  0  0  0  0  0  0
   51.5911   30.5524   55.5650 H   0  0  0  0  0  0  0  0  0  0  0  0
   49.7024   32.1171   55.1024 H   0  0  0  0  0  0  0  0  0  0  0  0
   49.4404   33.1219   52.8323 H   0  0  0  0  0  0  0  0  0  0  0  0
   59.5843   31.3449   45.6335 H   0  0  0  0  0  0  0  0  0  0  0  0
   61.6180   31.7654   47.0115 H   0  0  0  0  0  0  0  0  0  0  0  0
  1  2  1  0
  2  3  1  0
  3  4  2  0
  4  5  1  0
  5  6  2  0
  6  7  1  0
  7  8  2  0
  7  9  2  0
  7 10  1  0
 10 11  1  0
 11 12  2  0
 12 13  1  0
 13 14  2  0
 14 15  1  0
 15 16  2  0
 16 17  1  0
 17 18  1  0
 18 19  2  0
 18 20  1  0
 20 21  1  0
 21 22  1  0
 22 23  2  0
 22 24  1  0
 24 25  1  0
 25 26  1  0
 26 27  2  0
 27 28  1  0
 28 29  2  0
 29 30  1  0
 30 31  2  0
 24 32  1  0
 32 33  1  0
 33 34  2  0
 33 35  1  0
 35 36  1  0
 36 37  2  0
 37 38  1  0
 38 39  2  0
 39 40  1  0
 40 41  2  0
 41 42  1  0
  6 43  1  0
 43 44  2  0
 44  3  1  0
 16 11  1  0
 31 26  1  0
 41 36  1  0
  1 45  1  0
  1 46  1  0
  1 47  1  0
  4 48  1  0
  5 49  1  0
 12 50  1  0
 13 51  1  0
 14 52  1  0
 15 53  1  0
 20 54  1  0
 20 55  1  0
 24 56  1  6
 25 57  1  0
 25 58  1  0
 27 59  1  0
 28 60  1  0
 29 61  1  0
 30 62  1  0
 31 63  1  0
 35 64  1  0
 35 65  1  0
 37 66  1  0
 38 67  1  0
 39 68  1  0
 40 69  1  0
 43 70  1  0
 44 71  1  0
M  CHG  5  10  -1  17  -1  21  -1  32  -1  42  -1
M  END
>  <UniqueID>  (83) 
71

>  <SMILES>  (83) 
COc1ccc(S(=O)(=O)[N-]c2ccccc2[N-]C(=O)C[N-]C(=O)[C@H](Cc2ccccc2)[N-]C(=O)Cc2ccccc2[O-])cc1

>  <Energy>  (83) 
77.20443491550036

>  <Genealogy>  (83) 
COc1ccc(S(=O)(=O)[N-]c2ccccc2[N-]C(=O)C[N-]C(=O)C(Cc2ccccc2)[N-]C(=O)Cc2ccccc2[O-])cc1 (protonated)
COc1ccc(S(=O)(=O)[N-]c2ccccc2[N-]C(=O)C[N-]C(=O)[C@H](Cc2ccccc2)[N-]C(=O)Cc2ccccc2[O-])cc1 (chirality)
COc1ccc(S(=O)(=O)[N-]c2ccccc2[N-]C(=O)C[N-]C(=O)[C@H](Cc2ccccc2)[N-]C(=O)Cc2ccccc2[O-])cc1 (3D coordinates assigned)
COc1ccc(S(=O)(=O)[N-]c2ccccc2[N-]C(=O)C[N-]C(=O)[C@H](Cc2ccccc2)[N-]C(=O)Cc2ccccc2[O-])cc1 (optimized conformer: 77.20443491550036 kcal/mol)

>  <smiles>  (83) 
COc1ccc(S(=O)(=O)Nc2ccccc2NC(=O)CNC(=O)C(Cc2ccccc2)NC(=O)Cc2ccccc2O)cc1

>  <score_type>  (83) 
oracle

>  <origin>  (83) 
adg

>  <m_score__min__energy>  (83) 
-19.07

>  <m_primary>  (83) 
energy

$$$$
83:0
     RDKit          3D

 40 42  0  0  0  0  0  0  0  0999 V2000
   57.5160   27.2990   45.6190 O   0  0  0  0  0  0  0  0  0  0  0  0
   56.2690   27.4680   45.6240 C   0  0  0  0  0  0  0  0  0  0  0  0
   55.4240   26.3700   45.9850 N   0  0  0  0  0  0  0  0  0  0  0  0
   55.5820   25.0080   45.5620 C   0  0  0  0  0  0  0  0  0  0  0  0
   54.6170   24.0670   45.9470 C   0  0  0  0  0  0  0  0  0  0  0  0
   54.7300   22.7330   45.5430 C   0  0  0  0  0  0  0  0  0  0  0  0
   55.7990   22.3340   44.7380 C   0  0  0  0  0  0  0  0  0  0  0  0
   56.7510   23.2700   44.3270 C   0  0  0  0  0  0  0  0  0  0  0  0
   56.6420   24.6050   44.7290 C   0  0  0  0  0  0  0  0  0  0  0  0
   55.7000   28.7010   45.1640 N   0  0  0  0  0  0  0  0  0  0  0  0
   56.3550   29.7300   44.4060 C   0  0  0  0  0  0  0  0  0  0  0  0
   55.9830   30.0100   43.0770 C   0  0  0  0  0  0  0  0  0  0  0  0
   56.6890   30.9560   42.3290 C   0  0  0  0  0  0  0  0  0  0  0  0
   57.7860   31.6120   42.8870 C   0  0  0  0  0  0  0  0  0  0  0  0
   58.1800   31.3250   44.1950 C   0  0  0  0  0  0  0  0  0  0  0  0
   57.4640   30.3990   44.9650 C   0  0  0  0  0  0  0  0  0  0  0  0
   57.9100   30.1130   46.2990 N   0  0  0  0  0  0  0  0  0  0  0  0
   58.5420   31.0920   47.1410 C   0  0  0  0  0  0  0  0  0  0  0  0
   58.6500   32.2870   46.7570 O   0  0  0  0  0  0  0  0  0  0  0  0
   59.0000   30.7400   48.4530 N   0  0  0  0  0  0  0  0  0  0  0  0
   59.5820   29.6290   48.8100 C   0  0  0  0  0  0  0  0  0  0  0  0
   60.2960   29.4980   50.0200 C   0  0  0  0  0  0  0  0  0  0  0  0
   60.8820   28.2730   50.3430 C   0  0  0  0  0  0  0  0  0  0  0  0
   60.7470   27.1870   49.4770 C   0  0  0  0  0  0  0  0  0  0  0  0
   60.0170   27.3420   48.2990 C   0  0  0  0  0  0  0  0  0  0  0  0
   59.4550   28.5430   47.9990 N   0  0  0  0  0  0  0  0  0  0  0  0
   53.7662   24.3796   46.5703 H   0  0  0  0  0  0  0  0  0  0  0  0
   53.9761   21.9972   45.8596 H   0  0  0  0  0  0  0  0  0  0  0  0
   55.8914   21.2828   44.4276 H   0  0  0  0  0  0  0  0  0  0  0  0
   57.5880   22.9564   43.6859 H   0  0  0  0  0  0  0  0  0  0  0  0
   57.3866   25.3417   44.3932 H   0  0  0  0  0  0  0  0  0  0  0  0
   55.1313   29.4807   42.6248 H   0  0  0  0  0  0  0  0  0  0  0  0
   56.3790   31.1836   41.2984 H   0  0  0  0  0  0  0  0  0  0  0  0
   58.3409   32.3557   42.2962 H   0  0  0  0  0  0  0  0  0  0  0  0
   59.0585   31.8292   44.6241 H   0  0  0  0  0  0  0  0  0  0  0  0
   57.8730   29.1200   46.6230 H   0  0  0  0  0  0  0  0  0  0  0  0
   60.3901   30.3547   50.7035 H   0  0  0  0  0  0  0  0  0  0  0  0
   61.4495   28.1638   51.2790 H   0  0  0  0  0  0  0  0  0  0  0  0
   61.2111   26.2199   49.7208 H   0  0  0  0  0  0  0  0  0  0  0  0
   59.8958   26.4917   47.6118 H   0  0  0  0  0  0  0  0  0  0  0  0
  1  2  2  0
  2  3  1  0
  3  4  1  0
  4  5  2  0
  5  6  1  0
  6  7  2  0
  7  8  1  0
  8  9  2  0
  2 10  1  0
 10 11  1  0
 11 12  2  0
 12 13  1  0
 13 14  2  0
 14 15  1  0
 15 16  2  0
 16 17  1  0
 17 18  1  0
 18 19  2  0
 18 20  1  0
 20 21  2  3
 21 22  1  0
 22 23  2  0
 23 24  1  0
 24 25  2  0
 25 26  1  0
  9  4  1  0
 16 11  1  0
 26 21  1  0
  5 27  1  0
  6 28  1  0
  7 29  1  0
  8 30  1  0
  9 31  1  0
 12 32  1  0
 13 33  1  0
 14 34  1  0
 15 35  1  0
 17 36  1  0
 22 37  1  0
 23 38  1  0
 24 39  1  0
 25 40  1  0
M  CHG  3   3  -1  10  -1  26  -1
M  END
>  <UniqueID>  (84) 
72

>  <SMILES>  (84) 
O=C([N-]c1ccccc1)[N-]c1ccccc1NC(=O)N=c1cccc[n-]1

>  <Energy>  (84) 
63.88621828967278

>  <Genealogy>  (84) 
O=C([N-]c1ccccc1)[N-]c1ccccc1NC(=O)N=c1cccc[n-]1 (protonated)
O=C([N-]c1ccccc1)[N-]c1ccccc1NC(=O)N=c1cccc[n-]1 (3D coordinates assigned)
O=C([N-]c1ccccc1)[N-]c1ccccc1NC(=O)N=c1cccc[n-]1 (optimized conformer: 63.88621828967278 kcal/mol)

>  <smiles>  (84) 
O=C(N=c1cccc[nH]1)Nc1ccccc1NC(=O)Nc1ccccc1

>  <score_type>  (84) 
oracle

>  <origin>  (84) 
adg

>  <m_score__min__energy>  (84) 
-12.609999999999999

>  <m_primary>  (84) 
energy

$$$$
84:0
     RDKit          3D

 51 54  0  0  0  0  0  0  0  0999 V2000
   56.7430   28.7640   42.4040 N   0  0  0  0  0  0  0  0  0  0  0  0
   56.6990   30.0190   43.5920 S   0  0  0  0  0  0  0  0  0  0  0  0
   55.3220   30.0980   44.1860 O   0  0  0  0  0  0  0  0  0  0  0  0
   57.0200   31.3360   42.9420 O   0  0  0  0  0  0  0  0  0  0  0  0
   57.8750   29.6760   44.8570 C   0  0  0  0  0  0  0  0  0  0  0  0
   57.4500   29.2060   46.1070 C   0  0  0  0  0  0  0  0  0  0  0  0
   58.3840   28.9230   47.1070 C   0  0  0  0  0  0  0  0  0  0  0  0
   59.7560   29.0930   46.8630 C   0  0  0  0  0  0  0  0  0  0  0  0
   60.7600   28.8200   47.9510 C   0  0  0  0  0  0  0  0  0  0  0  0
   60.5660   29.7920   49.1180 C   0  0  0  0  0  0  0  0  0  0  0  0
   61.1150   31.1030   48.7820 N   0  0  0  0  0  0  0  0  0  0  0  0
   60.6380   31.9070   47.8760 C   0  0  0  0  0  0  0  0  0  0  0  0
   59.2930   32.0300   47.6940 N   0  0  0  0  0  0  0  0  0  0  0  0
   58.7770   32.8610   46.7540 C   0  0  0  0  0  0  0  0  0  0  0  0
   57.3930   32.9740   46.5820 C   0  0  0  0  0  0  0  0  0  0  0  0
   56.8810   33.8370   45.6060 C   0  0  0  0  0  0  0  0  0  0  0  0
   57.7500   34.5870   44.8040 C   0  0  0  0  0  0  0  0  0  0  0  0
   59.1350   34.4770   44.9740 C   0  0  0  0  0  0  0  0  0  0  0  0
   59.6510   33.6160   45.9470 C   0  0  0  0  0  0  0  0  0  0  0  0
   60.9920   33.4990   46.1300 N   0  0  0  0  0  0  0  0  0  0  0  0
   61.5100   32.6650   47.0720 C   0  0  0  0  0  0  0  0  0  0  0  0
   63.2570   32.5930   47.2850 S   0  0  0  0  0  0  0  0  0  0  0  0
   63.7450   31.2180   46.9220 O   0  0  0  0  0  0  0  0  0  0  0  0
   63.9230   33.5930   46.3830 O   0  0  0  0  0  0  0  0  0  0  0  0
   63.6550   32.9770   48.9560 C   0  0  0  0  0  0  0  0  0  0  0  0
   62.8650   33.8740   49.6930 C   0  0  0  0  0  0  0  0  0  0  0  0
   63.2170   34.2040   51.0060 C   0  0  0  0  0  0  0  0  0  0  0  0
   64.3570   33.6410   51.5880 C   0  0  0  0  0  0  0  0  0  0  0  0
   65.1470   32.7490   50.8580 C   0  0  0  0  0  0  0  0  0  0  0  0
   64.7990   32.4190   49.5440 C   0  0  0  0  0  0  0  0  0  0  0  0
   60.1790   29.5690   45.6120 C   0  0  0  0  0  0  0  0  0  0  0  0
   59.2450   29.8520   44.6120 C   0  0  0  0  0  0  0  0  0  0  0  0
   55.8300   28.7910   41.8980 H   0  0  0  0  0  0  0  0  0  0  0  0
   56.7760   27.8560   42.9200 H   0  0  0  0  0  0  0  0  0  0  0  0
   56.3773   29.0594   46.3016 H   0  0  0  0  0  0  0  0  0  0  0  0
   58.0427   28.5655   48.0897 H   0  0  0  0  0  0  0  0  0  0  0  0
   60.6298   27.7895   48.3131 H   0  0  0  0  0  0  0  0  0  0  0  0
   61.7723   28.9539   47.5418 H   0  0  0  0  0  0  0  0  0  0  0  0
   59.4917   29.8924   49.3319 H   0  0  0  0  0  0  0  0  0  0  0  0
   61.0910   29.3998   50.0015 H   0  0  0  0  0  0  0  0  0  0  0  0
   56.7092   32.3863   47.2120 H   0  0  0  0  0  0  0  0  0  0  0  0
   55.7933   33.9262   45.4687 H   0  0  0  0  0  0  0  0  0  0  0  0
   57.3432   35.2642   44.0386 H   0  0  0  0  0  0  0  0  0  0  0  0
   59.8162   35.0670   44.3431 H   0  0  0  0  0  0  0  0  0  0  0  0
   61.9678   34.3179   49.2370 H   0  0  0  0  0  0  0  0  0  0  0  0
   62.5965   34.9070   51.5811 H   0  0  0  0  0  0  0  0  0  0  0  0
   64.6320   33.9004   52.6210 H   0  0  0  0  0  0  0  0  0  0  0  0
   66.0432   32.3060   51.3170 H   0  0  0  0  0  0  0  0  0  0  0  0
   65.4248   31.7196   48.9702 H   0  0  0  0  0  0  0  0  0  0  0  0
   61.2512   29.7200   45.4179 H   0  0  0  0  0  0  0  0  0  0  0  0
   59.5848   30.2137   43.6303 H   0  0  0  0  0  0  0  0  0  0  0  0
  1  2  1  0
  2  3  2  0
  2  4  2  0
  2  5  1  0
  5  6  2  0
  6  7  1  0
  7  8  2  0
  8  9  1  0
  9 10  1  0
 10 11  1  0
 11 12  2  3
 12 13  1  0
 13 14  1  0
 14 15  2  0
 15 16  1  0
 16 17  2  0
 17 18  1  0
 18 19  2  0
 19 20  1  0
 20 21  2  0
 21 22  1  0
 22 23  2  0
 22 24  2  0
 22 25  1  0
 25 26  2  0
 26 27  1  0
 27 28  2  0
 28 29  1  0
 29 30  2  0
  8 31  1  0
 31 32  2  0
 32  5  1  0
 21 12  1  0
 30 25  1  0
 19 14  1  0
  1 33  1  0
  1 34  1  0
  6 35  1  0
  7 36  1  0
  9 37  1  0
  9 38  1  0
 10 39  1  0
 10 40  1  0
 15 41  1  0
 16 42  1  0
 17 43  1  0
 18 44  1  0
 26 45  1  0
 27 46  1  0
 28 47  1  0
 29 48  1  0
 30 49  1  0
 31 50  1  0
 32 51  1  0
M  CHG  1  13  -1
M  END
>  <UniqueID>  (85) 
73

>  <SMILES>  (85) 
NS(=O)(=O)c1ccc(CCN=c2[n-]c3ccccc3nc2S(=O)(=O)c2ccccc2)cc1

>  <Energy>  (85) 
56.29282570269381

>  <Genealogy>  (85) 
NS(=O)(=O)c1ccc(CCN=c2[n-]c3ccccc3nc2S(=O)(=O)c2ccccc2)cc1 (protonated)
NS(=O)(=O)c1ccc(CCN=c2[n-]c3ccccc3nc2S(=O)(=O)c2ccccc2)cc1 (3D coordinates assigned)
NS(=O)(=O)c1ccc(CCN=c2[n-]c3ccccc3nc2S(=O)(=O)c2ccccc2)cc1 (optimized conformer: 56.29282570269381 kcal/mol)

>  <smiles>  (85) 
NS(=O)(=O)c1ccc(CCN=c2[nH]c3ccccc3nc2S(=O)(=O)c2ccccc2)cc1

>  <score_type>  (85) 
oracle

>  <origin>  (85) 
adg

>  <m_score__min__energy>  (85) 
-11.720000000000001

>  <m_primary>  (85) 
energy

$$$$
85:0
     RDKit          3D

 48 50  0  0  0  0  0  0  0  0999 V2000
   64.0670   33.0130   48.1640 C   0  0  0  0  0  0  0  0  0  0  0  0
   62.6100   32.9840   47.8110 C   0  0  0  0  0  0  0  0  0  0  0  0
   62.0620   31.8760   47.1450 C   0  0  0  0  0  0  0  0  0  0  0  0
   60.6940   31.8320   46.8600 C   0  0  0  0  0  0  0  0  0  0  0  0
   59.8570   32.8870   47.2480 C   0  0  0  0  0  0  0  0  0  0  0  0
   58.1250   32.7790   46.9580 S   0  0  0  0  0  0  0  0  0  0  0  0
   57.3930   32.6540   48.2650 O   0  0  0  0  0  0  0  0  0  0  0  0
   57.6390   34.0140   46.2530 O   0  0  0  0  0  0  0  0  0  0  0  0
   57.8010   31.3820   45.9940 N   0  0  0  0  0  0  0  0  0  0  0  0
   57.6090   31.5040   44.5850 C   0  0  0  0  0  0  0  0  0  0  0  0
   58.1520   32.6080   43.9140 C   0  0  0  0  0  0  0  0  0  0  0  0
   58.0330   32.7190   42.5270 C   0  0  0  0  0  0  0  0  0  0  0  0
   57.3800   31.7210   41.8010 C   0  0  0  0  0  0  0  0  0  0  0  0
   56.8400   30.6140   42.4580 C   0  0  0  0  0  0  0  0  0  0  0  0
   56.9340   30.4990   43.8560 C   0  0  0  0  0  0  0  0  0  0  0  0
   56.3380   29.3170   44.5260 C   0  0  0  0  0  0  0  0  0  0  0  0
   55.1470   29.3870   44.9350 O   0  0  0  0  0  0  0  0  0  0  0  0
   57.0960   28.1090   44.7470 N   0  0  0  0  0  0  0  0  0  0  0  0
   57.9450   27.5830   43.6750 C   0  0  0  0  0  0  0  0  0  0  0  0
   57.1190   27.4550   46.0340 C   0  0  0  0  0  0  0  0  0  0  0  0
   56.1580   26.7090   46.3670 O   0  0  0  0  0  0  0  0  0  0  0  0
   58.2410   27.6420   46.9800 C   0  0  0  0  0  0  0  0  0  0  0  0
   58.5190   28.9180   47.5000 C   0  0  0  0  0  0  0  0  0  0  0  0
   59.5600   29.0960   48.4180 C   0  0  0  0  0  0  0  0  0  0  0  0
   60.3380   28.0060   48.8120 C   0  0  0  0  0  0  0  0  0  0  0  0
   60.0840   26.7370   48.2850 C   0  0  0  0  0  0  0  0  0  0  0  0
   59.0440   26.5550   47.3680 C   0  0  0  0  0  0  0  0  0  0  0  0
   60.4000   33.9870   47.9240 C   0  0  0  0  0  0  0  0  0  0  0  0
   61.7690   34.0330   48.2090 C   0  0  0  0  0  0  0  0  0  0  0  0
   64.1792   33.0152   49.2583 H   0  0  0  0  0  0  0  0  0  0  0  0
   64.5632   32.1246   47.7464 H   0  0  0  0  0  0  0  0  0  0  0  0
   64.5275   33.9205   47.7464 H   0  0  0  0  0  0  0  0  0  0  0  0
   62.7113   31.0397   46.8465 H   0  0  0  0  0  0  0  0  0  0  0  0
   60.2728   30.9656   46.3290 H   0  0  0  0  0  0  0  0  0  0  0  0
   58.6746   33.3912   44.4828 H   0  0  0  0  0  0  0  0  0  0  0  0
   58.4535   33.5922   42.0067 H   0  0  0  0  0  0  0  0  0  0  0  0
   57.2908   31.8073   40.7080 H   0  0  0  0  0  0  0  0  0  0  0  0
   56.3374   29.8261   41.8778 H   0  0  0  0  0  0  0  0  0  0  0  0
   58.8025   27.0517   44.1137 H   0  0  0  0  0  0  0  0  0  0  0  0
   57.3619   26.8877   43.0532 H   0  0  0  0  0  0  0  0  0  0  0  0
   58.3080   28.4147   43.0532 H   0  0  0  0  0  0  0  0  0  0  0  0
   57.9150   29.7812   47.1836 H   0  0  0  0  0  0  0  0  0  0  0  0
   59.7654   30.0953   48.8293 H   0  0  0  0  0  0  0  0  0  0  0  0
   61.1521   28.1462   49.5383 H   0  0  0  0  0  0  0  0  0  0  0  0
   60.7025   25.8806   48.5917 H   0  0  0  0  0  0  0  0  0  0  0  0
   58.8532   25.5564   46.9481 H   0  0  0  0  0  0  0  0  0  0  0  0
   59.7479   34.8176   48.2319 H   0  0  0  0  0  0  0  0  0  0  0  0
   62.1874   34.8960   48.7477 H   0  0  0  0  0  0  0  0  0  0  0  0
  1  2  1  0
  2  3  2  0
  3  4  1  0
  4  5  2  0
  5  6  1  0
  6  7  2  0
  6  8  2  0
  6  9  1  0
  9 10  1  0
 10 11  2  0
 11 12  1  0
 12 13  2  0
 13 14  1  0
 14 15  2  0
 15 16  1  0
 16 17  2  0
 16 18  1  0
 18 19  1  0
 18 20  1  0
 20 21  2  0
 20 22  1  0
 22 23  2  0
 23 24  1  0
 24 25  2  0
 25 26  1  0
 26 27  2  0
  5 28  1  0
 28 29  2  0
 29  2  1  0
 15 10  1  0
 27 22  1  0
  1 30  1  0
  1 31  1  0
  1 32  1  0
  3 33  1  0
  4 34  1  0
 11 35  1  0
 12 36  1  0
 13 37  1  0
 14 38  1  0
 19 39  1  0
 19 40  1  0
 19 41  1  0
 23 42  1  0
 24 43  1  0
 25 44  1  0
 26 45  1  0
 27 46  1  0
 28 47  1  0
 29 48  1  0
M  CHG  1   9  -1
M  END
>  <UniqueID>  (86) 
74

>  <SMILES>  (86) 
Cc1ccc(S(=O)(=O)[N-]c2ccccc2C(=O)N(C)C(=O)c2ccccc2)cc1

>  <Energy>  (86) 
65.79888861662654

>  <Genealogy>  (86) 
Cc1ccc(S(=O)(=O)[N-]c2ccccc2C(=O)N(C)C(=O)c2ccccc2)cc1 (protonated)
Cc1ccc(S(=O)(=O)[N-]c2ccccc2C(=O)N(C)C(=O)c2ccccc2)cc1 (3D coordinates assigned)
Cc1ccc(S(=O)(=O)[N-]c2ccccc2C(=O)N(C)C(=O)c2ccccc2)cc1 (optimized conformer: 65.79888861662654 kcal/mol)

>  <smiles>  (86) 
Cc1ccc(S(=O)(=O)Nc2ccccc2C(=O)N(C)C(=O)c2ccccc2)cc1

>  <score_type>  (86) 
oracle

>  <origin>  (86) 
adg

>  <m_score__min__energy>  (86) 
-10.93

>  <m_primary>  (86) 
energy

$$$$
86:0
     RDKit          3D

 32 34  0  0  0  0  0  0  0  0999 V2000
   58.6360   30.5480   47.8130 O   0  0  0  0  0  0  0  0  0  0  0  0
   59.2730   30.9170   46.7870 C   0  0  0  0  0  0  0  0  0  0  0  0
   59.9750   29.9580   45.9780 N   0  0  0  0  0  0  0  0  0  0  0  0
   59.4680   29.1060   45.1330 C   0  0  0  0  0  0  0  0  0  0  0  0
   58.1570   28.4570   45.3130 C   0  0  0  0  0  0  0  0  0  0  0  0
   56.9160   28.9730   44.9390 C   0  0  0  0  0  0  0  0  0  0  0  0
   56.6660   30.2840   44.3160 C   0  0  0  0  0  0  0  0  0  0  0  0
   55.5580   30.8570   44.4860 O   0  0  0  0  0  0  0  0  0  0  0  0
   57.6400   30.9030   43.5410 O   0  0  0  0  0  0  0  0  0  0  0  0
   55.9140   28.1140   45.2450 N   0  0  0  0  0  0  0  0  0  0  0  0
   56.5270   27.0520   45.7990 C   0  0  0  0  0  0  0  0  0  0  0  0
   55.9020   25.8980   46.2660 C   0  0  0  0  0  0  0  0  0  0  0  0
   56.7080   24.8740   46.7940 C   0  0  0  0  0  0  0  0  0  0  0  0
   55.9660   23.4030   47.3930 Cl  0  0  0  0  0  0  0  0  0  0  0  0
   58.1100   25.0220   46.8350 C   0  0  0  0  0  0  0  0  0  0  0  0
   58.7230   26.1950   46.3550 C   0  0  0  0  0  0  0  0  0  0  0  0
   60.4760   26.3150   46.3700 Cl  0  0  0  0  0  0  0  0  0  0  0  0
   57.8920   27.2090   45.8520 C   0  0  0  0  0  0  0  0  0  0  0  0
   59.3040   32.3560   46.4370 C   0  0  0  0  0  0  0  0  0  0  0  0
   58.1770   32.9220   45.8100 C   0  0  0  0  0  0  0  0  0  0  0  0
   58.1490   34.2800   45.4830 C   0  0  0  0  0  0  0  0  0  0  0  0
   59.2450   35.0920   45.7720 C   0  0  0  0  0  0  0  0  0  0  0  0
   60.3760   34.5460   46.3800 C   0  0  0  0  0  0  0  0  0  0  0  0
   60.4190   33.1860   46.7140 C   0  0  0  0  0  0  0  0  0  0  0  0
   61.9190   32.5690   47.4040 Cl  0  0  0  0  0  0  0  0  0  0  0  0
   60.0513   28.8568   44.2343 H   0  0  0  0  0  0  0  0  0  0  0  0
   54.8081   25.7908   46.2229 H   0  0  0  0  0  0  0  0  0  0  0  0
   58.7310   24.2125   47.2463 H   0  0  0  0  0  0  0  0  0  0  0  0
   57.3094   32.2879   45.5752 H   0  0  0  0  0  0  0  0  0  0  0  0
   57.2607   34.7094   44.9967 H   0  0  0  0  0  0  0  0  0  0  0  0
   59.2181   36.1626   45.5208 H   0  0  0  0  0  0  0  0  0  0  0  0
   61.2413   35.1889   46.5990 H   0  0  0  0  0  0  0  0  0  0  0  0
  1  2  2  0
  2  3  1  0
  3  4  2  3
  4  5  1  0
  5  6  2  0
  6  7  1  0
  7  8  2  0
  7  9  1  0
  6 10  1  0
 10 11  1  0
 11 12  2  0
 12 13  1  0
 13 14  1  0
 13 15  2  0
 15 16  1  0
 16 17  1  0
 16 18  2  0
  2 19  1  0
 19 20  2  0
 20 21  1  0
 21 22  2  0
 22 23  1  0
 23 24  2  0
 24 25  1  0
 18  5  1  0
 24 19  1  0
 18 11  1  0
  4 26  1  0
 12 27  1  0
 15 28  1  0
 20 29  1  0
 21 30  1  0
 22 31  1  0
 23 32  1  0
M  CHG  2   9  -1  10  -1
M  END
>  <UniqueID>  (87) 
75

>  <SMILES>  (87) 
O=C(N=Cc1c(C(=O)[O-])[n-]c2cc(Cl)cc(Cl)c12)c1ccccc1Cl

>  <Energy>  (87) 
82.9069642381631

>  <Genealogy>  (87) 
O=C(N=Cc1c(C(=O)[O-])[n-]c2cc(Cl)cc(Cl)c12)c1ccccc1Cl (protonated)
O=C(N=Cc1c(C(=O)[O-])[n-]c2cc(Cl)cc(Cl)c12)c1ccccc1Cl (3D coordinates assigned)
O=C(N=Cc1c(C(=O)[O-])[n-]c2cc(Cl)cc(Cl)c12)c1ccccc1Cl (optimized conformer: 82.9069642381631 kcal/mol)

>  <smiles>  (87) 
O=C(N=Cc1c(C(=O)O)[nH]c2cc(Cl)cc(Cl)c12)c1ccccc1Cl

>  <score_type>  (87) 
oracle

>  <origin>  (87) 
adg

>  <m_score__min__energy>  (87) 
-11.67

>  <m_primary>  (87) 
energy

$$$$
87:0
     RDKit          3D

 29 30  0  0  0  0  0  0  0  0999 V2000
   57.4427   28.5729   47.2002 H   0  0  0  0  0  0  0  0  0  0  0  0
   57.5010   27.9640   46.2860 C   0  0  0  0  0  0  0  0  0  0  0  0
   57.8420   28.5920   45.1440 C   0  0  0  0  0  0  0  0  0  0  0  0
   56.9940   29.6210   44.5060 C   0  0  0  0  0  0  0  0  0  0  0  0
   56.4900   29.3960   43.3720 O   0  0  0  0  0  0  0  0  0  0  0  0
   56.7680   30.8750   45.1620 N   0  0  0  0  0  0  0  0  0  0  0  0
   57.7410   31.9210   45.2870 C   0  0  0  0  0  0  0  0  0  0  0  0
   57.6600   33.0140   44.4130 C   0  0  0  0  0  0  0  0  0  0  0  0
   56.8645   33.0486   43.6541 H   0  0  0  0  0  0  0  0  0  0  0  0
   58.5820   34.0590   44.4990 C   0  0  0  0  0  0  0  0  0  0  0  0
   58.5205   34.9051   43.7988 H   0  0  0  0  0  0  0  0  0  0  0  0
   59.5820   34.0310   45.4730 C   0  0  0  0  0  0  0  0  0  0  0  0
   60.3145   34.8495   45.5322 H   0  0  0  0  0  0  0  0  0  0  0  0
   59.6530   32.9650   46.3720 C   0  0  0  0  0  0  0  0  0  0  0  0
   60.4354   32.9529   47.1452 H   0  0  0  0  0  0  0  0  0  0  0  0
   58.7330   31.9100   46.2950 C   0  0  0  0  0  0  0  0  0  0  0  0
   58.7800   30.8730   47.2960 C   0  0  0  0  0  0  0  0  0  0  0  0
   58.8170   30.0400   48.0990 N   0  0  0  0  0  0  0  0  0  0  0  0
   59.1560   28.2470   44.4970 C   0  0  0  0  0  0  0  0  0  0  0  0
   59.9075   28.0497   45.2757 H   0  0  0  0  0  0  0  0  0  0  0  0
   59.0325   27.3509   43.8712 H   0  0  0  0  0  0  0  0  0  0  0  0
   59.4886   29.0883   43.8712 H   0  0  0  0  0  0  0  0  0  0  0  0
   57.1990   26.5230   46.4090 C   0  0  0  0  0  0  0  0  0  0  0  0
   58.2740   25.3080   46.8860 S   0  0  0  0  0  0  0  0  0  0  0  0
   57.0730   24.1340   46.9040 C   0  0  0  0  0  0  0  0  0  0  0  0
   57.2670   22.9240   47.1900 O   0  0  0  0  0  0  0  0  0  0  0  0
   55.8580   24.6290   46.5870 N   0  0  0  0  0  0  0  0  0  0  0  0
   55.9280   25.9610   46.3260 C   0  0  0  0  0  0  0  0  0  0  0  0
   54.7960   26.6980   45.9990 O   0  0  0  0  0  0  0  0  0  0  0  0
  1  2  1  0
  2  3  2  0
  3  4  1  0
  4  5  2  0
  4  6  1  0
  6  7  1  0
  7  8  2  0
  8  9  1  0
  8 10  1  0
 10 11  1  0
 10 12  2  0
 12 13  1  0
 12 14  1  0
 14 15  1  0
 14 16  2  0
 16 17  1  0
 17 18  3  0
  3 19  1  0
 19 20  1  0
 19 21  1  0
 19 22  1  0
  2 23  1  0
 23 24  1  0
 24 25  1  0
 25 26  2  0
 25 27  1  0
 27 28  1  0
 28 29  1  0
 16  7  1  0
 28 23  2  0
M  CHG  3   6  -1  27  -1  29  -1
M  END
>  <UniqueID>  (88) 
76

>  <SMILES>  (88) 
C/C(=C/c1sc(=O)[n-]c1[O-])C(=O)[N-]c1ccccc1C#N

>  <Energy>  (88) 
73.47579149823002

>  <Genealogy>  (88) 
CC(=Cc1sc(=O)[n-]c1[O-])C(=O)[N-]c1ccccc1C#N (protonated)
C/C(=C/c1sc(=O)[n-]c1[O-])C(=O)[N-]c1ccccc1C#N (cis-trans isomerization)
C/C(=C/c1sc(=O)[n-]c1[O-])C(=O)[N-]c1ccccc1C#N (3D coordinates assigned)
C/C(=C/c1sc(=O)[n-]c1[O-])C(=O)[N-]c1ccccc1C#N (optimized conformer: 73.47579149823002 kcal/mol)

>  <smiles>  (88) 
CC(=Cc1sc(=O)[nH]c1O)C(=O)Nc1ccccc1C#N

>  <score_type>  (88) 
oracle

>  <origin>  (88) 
adg

>  <m_score__min__energy>  (88) 
-15.08

>  <m_primary>  (88) 
energy

$$$$
88:0
     RDKit          3D

 45 48  0  0  0  0  0  0  0  0999 V2000
   57.3830   32.9330   47.2230 O   0  0  0  0  0  0  0  0  0  0  0  0
   58.4470   33.2800   46.6400 C   0  0  0  0  0  0  0  0  0  0  0  0
   58.9800   32.4830   45.5720 N   0  0  0  0  0  0  0  0  0  0  0  0
   58.2230   31.4680   44.8910 C   0  0  0  0  0  0  0  0  0  0  0  0
   57.4510   31.7930   43.7610 C   0  0  0  0  0  0  0  0  0  0  0  0
   56.7840   30.7950   43.0480 C   0  0  0  0  0  0  0  0  0  0  0  0
   56.8860   29.4630   43.4480 C   0  0  0  0  0  0  0  0  0  0  0  0
   57.6540   29.1240   44.5630 C   0  0  0  0  0  0  0  0  0  0  0  0
   58.3280   30.1180   45.2890 C   0  0  0  0  0  0  0  0  0  0  0  0
   59.1110   29.7590   46.4380 N   0  0  0  0  0  0  0  0  0  0  0  0
   58.5320   28.8950   47.4680 C   0  0  0  0  0  0  0  0  0  0  0  0
   59.2060   29.1780   48.8130 C   0  0  0  0  0  0  0  0  0  0  0  0
   60.6130   29.0880   48.6920 O   0  0  0  0  0  0  0  0  0  0  0  0
   61.0870   30.1170   47.8420 C   0  0  0  0  0  0  0  0  0  0  0  0
   60.5670   29.9310   46.4120 C   0  0  0  0  0  0  0  0  0  0  0  0
   59.1620   34.5380   47.0600 C   0  0  1  0  0  0  0  0  0  0  0  0
   59.2700   34.6050   48.5970 C   0  0  0  0  0  0  0  0  0  0  0  0
   60.2480   33.6770   49.0750 O   0  0  0  0  0  0  0  0  0  0  0  0
   61.4430   33.4690   48.3810 C   0  0  0  0  0  0  0  0  0  0  0  0
   62.5050   32.7800   48.9760 C   0  0  0  0  0  0  0  0  0  0  0  0
   63.6980   32.5980   48.2670 C   0  0  0  0  0  0  0  0  0  0  0  0
   63.8270   33.1030   46.9660 C   0  0  0  0  0  0  0  0  0  0  0  0
   62.7610   33.7860   46.3680 C   0  0  0  0  0  0  0  0  0  0  0  0
   61.5650   33.9540   47.0700 C   0  0  0  0  0  0  0  0  0  0  0  0
   60.4700   34.5930   46.4730 O   0  0  0  0  0  0  0  0  0  0  0  0
   59.9750   32.6380   45.2890 H   0  0  0  0  0  0  0  0  0  0  0  0
   57.3722   32.8411   43.4367 H   0  0  0  0  0  0  0  0  0  0  0  0
   56.1772   31.0598   42.1695 H   0  0  0  0  0  0  0  0  0  0  0  0
   56.3604   28.6784   42.8840 H   0  0  0  0  0  0  0  0  0  0  0  0
   57.7314   28.0719   44.8744 H   0  0  0  0  0  0  0  0  0  0  0  0
   57.4534   29.0948   47.5497 H   0  0  0  0  0  0  0  0  0  0  0  0
   58.6913   27.8417   47.1936 H   0  0  0  0  0  0  0  0  0  0  0  0
   58.9356   30.1905   49.1472 H   0  0  0  0  0  0  0  0  0  0  0  0
   58.8640   28.4323   49.5457 H   0  0  0  0  0  0  0  0  0  0  0  0
   60.7427   31.0884   48.2265 H   0  0  0  0  0  0  0  0  0  0  0  0
   62.1861   30.0777   47.8232 H   0  0  0  0  0  0  0  0  0  0  0  0
   60.8205   30.8173   45.8118 H   0  0  0  0  0  0  0  0  0  0  0  0
   61.0328   29.0397   45.9663 H   0  0  0  0  0  0  0  0  0  0  0  0
   58.5803   35.4019   46.7059 H   0  0  0  0  0  0  0  0  0  0  0  0
   59.5620   35.6229   48.8946 H   0  0  0  0  0  0  0  0  0  0  0  0
   58.2935   34.3460   49.0322 H   0  0  0  0  0  0  0  0  0  0  0  0
   62.4030   32.3829   49.9967 H   0  0  0  0  0  0  0  0  0  0  0  0
   64.5359   32.0576   48.7317 H   0  0  0  0  0  0  0  0  0  0  0  0
   64.7677   32.9625   46.4135 H   0  0  0  0  0  0  0  0  0  0  0  0
   62.8649   34.1886   45.3496 H   0  0  0  0  0  0  0  0  0  0  0  0
  1  2  2  0
  2  3  1  0
  3  4  1  0
  4  5  2  0
  5  6  1  0
  6  7  2  0
  7  8  1  0
  8  9  2  0
  9 10  1  0
 10 11  1  0
 11 12  1  0
 12 13  1  0
 13 14  1  0
 14 15  1  0
  2 16  1  0
 16 17  1  0
 17 18  1  0
 18 19  1  0
 19 20  2  0
 20 21  1  0
 21 22  2  0
 22 23  1  0
 23 24  2  0
 24 25  1  0
  9  4  1  0
 15 10  1  0
 25 16  1  0
 24 19  1  0
  3 26  1  0
  5 27  1  0
  6 28  1  0
  7 29  1  0
  8 30  1  0
 11 31  1  0
 11 32  1  0
 12 33  1  0
 12 34  1  0
 14 35  1  0
 14 36  1  0
 15 37  1  0
 15 38  1  0
 16 39  1  6
 17 40  1  0
 17 41  1  0
 20 42  1  0
 21 43  1  0
 22 44  1  0
 23 45  1  0
M  END
>  <UniqueID>  (89) 
77

>  <SMILES>  (89) 
O=C(Nc1ccccc1N1CCOCC1)[C@H]1COc2ccccc2O1

>  <Energy>  (89) 
58.076360850179746

>  <Genealogy>  (89) 
O=C(Nc1ccccc1N1CCOCC1)[C@H]1COc2ccccc2O1 (chirality)
O=C(Nc1ccccc1N1CCOCC1)[C@H]1COc2ccccc2O1 (3D coordinates assigned)
O=C(Nc1ccccc1N1CCOCC1)[C@H]1COc2ccccc2O1 (nonaromatic ring conformer: 58.076360850179746 kcal/mol)

>  <smiles>  (89) 
O=C(Nc1ccccc1N1CCOCC1)C1COc2ccccc2O1

>  <score_type>  (89) 
oracle

>  <origin>  (89) 
adg

>  <m_score__min__energy>  (89) 
-6.8899999999999997

>  <m_primary>  (89) 
energy

$$$$
89:0
     RDKit          3D

 39 41  0  0  0  0  0  0  0  0999 V2000
   55.1500   26.7060   46.0010 N   0  0  0  0  0  0  0  0  0  0  0  0
   56.4940   25.6290   46.1340 S   0  0  0  0  0  0  0  0  0  0  0  0
   56.3500   24.5570   45.0890 O   0  0  0  0  0  0  0  0  0  0  0  0
   56.4870   24.9770   47.4890 O   0  0  0  0  0  0  0  0  0  0  0  0
   58.0190   26.5070   45.9090 C   0  0  0  0  0  0  0  0  0  0  0  0
   59.1640   26.0310   46.5700 C   0  0  0  0  0  0  0  0  0  0  0  0
   60.3870   26.6910   46.4450 C   0  0  0  0  0  0  0  0  0  0  0  0
   60.4850   27.8380   45.6620 C   0  0  0  0  0  0  0  0  0  0  0  0
   59.3620   28.3280   44.9960 C   0  0  0  0  0  0  0  0  0  0  0  0
   58.1160   27.6800   45.1060 C   0  0  0  0  0  0  0  0  0  0  0  0
   57.0050   28.1840   44.3270 N   0  0  0  0  0  0  0  0  0  0  0  0
   57.1160   29.6130   44.1580 C   0  0  0  0  0  0  0  0  0  0  0  0
   57.0280   30.1950   42.8840 C   0  0  0  0  0  0  0  0  0  0  0  0
   57.1770   31.5790   42.7510 C   0  0  0  0  0  0  0  0  0  0  0  0
   57.4190   32.3670   43.8770 C   0  0  0  0  0  0  0  0  0  0  0  0
   57.5080   31.7600   45.1350 C   0  0  0  0  0  0  0  0  0  0  0  0
   57.7570   32.4850   46.1860 N   0  0  0  0  0  0  0  0  0  0  0  0
   59.0250   32.5850   46.8610 C   0  0  0  0  0  0  0  0  0  0  0  0
   59.4570   31.5910   47.7620 C   0  0  0  0  0  0  0  0  0  0  0  0
   60.6930   31.7090   48.4030 C   0  0  0  0  0  0  0  0  0  0  0  0
   61.4970   32.8270   48.1730 C   0  0  0  0  0  0  0  0  0  0  0  0
   61.0630   33.8350   47.3080 C   0  0  0  0  0  0  0  0  0  0  0  0
   59.8270   33.7220   46.6600 C   0  0  0  0  0  0  0  0  0  0  0  0
   59.3120   35.0040   45.5720 Cl  0  0  0  0  0  0  0  0  0  0  0  0
   57.3730   30.4100   45.2320 N   0  0  0  0  0  0  0  0  0  0  0  0
   54.8700   26.7190   44.9950 H   0  0  0  0  0  0  0  0  0  0  0  0
   59.0954   25.1273   47.1934 H   0  0  0  0  0  0  0  0  0  0  0  0
   61.2753   26.3044   46.9660 H   0  0  0  0  0  0  0  0  0  0  0  0
   61.4496   28.3585   45.5685 H   0  0  0  0  0  0  0  0  0  0  0  0
   59.4503   29.2326   44.3765 H   0  0  0  0  0  0  0  0  0  0  0  0
   56.9440   27.7410   43.3850 H   0  0  0  0  0  0  0  0  0  0  0  0
   56.1160   27.9490   44.8280 H   0  0  0  0  0  0  0  0  0  0  0  0
   56.8436   29.5686   41.9988 H   0  0  0  0  0  0  0  0  0  0  0  0
   57.1034   32.0469   41.7582 H   0  0  0  0  0  0  0  0  0  0  0  0
   57.5388   33.4559   43.7767 H   0  0  0  0  0  0  0  0  0  0  0  0
   58.8181   30.7181   47.9616 H   0  0  0  0  0  0  0  0  0  0  0  0
   61.0330   30.9199   49.0898 H   0  0  0  0  0  0  0  0  0  0  0  0
   62.4728   32.9144   48.6731 H   0  0  0  0  0  0  0  0  0  0  0  0
   61.6940   34.7194   47.1357 H   0  0  0  0  0  0  0  0  0  0  0  0
  1  2  1  0
  2  3  2  0
  2  4  2  0
  2  5  1  0
  5  6  2  0
  6  7  1  0
  7  8  2  0
  8  9  1  0
  9 10  2  0
 10 11  1  0
 11 12  1  0
 12 13  2  0
 13 14  1  0
 14 15  2  0
 15 16  1  0
 16 17  2  3
 17 18  1  0
 18 19  2  0
 19 20  1  0
 20 21  2  0
 21 22  1  0
 22 23  2  0
 23 24  1  0
 16 25  1  0
 10  5  1  0
 25 12  1  0
 23 18  1  0
  1 26  1  0
  6 27  1  0
  7 28  1  0
  8 29  1  0
  9 30  1  0
 11 31  1  0
 11 32  1  0
 13 33  1  0
 14 34  1  0
 15 35  1  0
 19 36  1  0
 20 37  1  0
 21 38  1  0
 22 39  1  0
M  CHG  3   1  -1  11   1  25  -1
M  END
>  <UniqueID>  (90) 
78

>  <SMILES>  (90) 
[NH-]S(=O)(=O)c1ccccc1[NH2+]c1cccc(=Nc2ccccc2Cl)[n-]1

>  <Energy>  (90) 
51.01671504052871

>  <Genealogy>  (90) 
[NH-]S(=O)(=O)c1ccccc1[NH2+]c1cccc(=Nc2ccccc2Cl)[n-]1 (protonated)
[NH-]S(=O)(=O)c1ccccc1[NH2+]c1cccc(=Nc2ccccc2Cl)[n-]1 (3D coordinates assigned)
[NH-]S(=O)(=O)c1ccccc1[NH2+]c1cccc(=Nc2ccccc2Cl)[n-]1 (optimized conformer: 51.01671504052871 kcal/mol)

>  <smiles>  (90) 
NS(=O)(=O)c1ccccc1Nc1cccc(=Nc2ccccc2Cl)[nH]1

>  <score_type>  (90) 
oracle

>  <origin>  (90) 
adg

>  <m_score__min__energy>  (90) 
-12.19

>  <m_primary>  (90) 
energy

$$$$
90:0
     RDKit          3D

 44 47  0  0  0  0  0  0  0  0999 V2000
   55.7489   32.3771   44.3356 H   0  0  0  0  0  0  0  0  0  0  0  0
   56.6940   32.5680   44.8650 C   0  0  0  0  0  0  0  0  0  0  0  0
   57.5380   31.5620   45.1100 C   0  0  0  0  0  0  0  0  0  0  0  0
   58.7740   31.7310   45.6860 C   0  0  0  0  0  0  0  0  0  0  0  0
   59.3480   30.4820   45.7900 C   0  0  0  0  0  0  0  0  0  0  0  0
   60.3358   30.2357   46.2066 H   0  0  0  0  0  0  0  0  0  0  0  0
   58.4130   29.5970   45.2560 C   0  0  0  0  0  0  0  0  0  0  0  0
   58.5500   28.2690   45.1370 C   0  0  0  0  0  0  0  0  0  0  0  0
   59.4547   27.8796   44.6472 H   0  0  0  0  0  0  0  0  0  0  0  0
   57.5500   27.3030   45.6290 C   0  0  0  0  0  0  0  0  0  0  0  0
   56.1860   27.4900   45.6300 C   0  0  0  0  0  0  0  0  0  0  0  0
   55.5210   28.6000   45.1250 O   0  0  0  0  0  0  0  0  0  0  0  0
   55.5600   26.4370   46.1900 N   0  0  0  0  0  0  0  0  0  0  0  0
   56.5840   25.6280   46.5400 C   0  0  0  0  0  0  0  0  0  0  0  0
   56.4110   24.5190   47.1130 O   0  0  0  0  0  0  0  0  0  0  0  0
   57.8020   26.1230   46.2330 N   0  0  0  0  0  0  0  0  0  0  0  0
   59.0940   25.5160   46.5490 C   0  0  0  0  0  0  0  0  0  0  0  0
   59.2151   25.4591   47.6408 H   0  0  0  0  0  0  0  0  0  0  0  0
   59.1376   24.5032   46.1220 H   0  0  0  0  0  0  0  0  0  0  0  0
   59.9014   26.1290   46.1220 H   0  0  0  0  0  0  0  0  0  0  0  0
   57.3160   30.2650   44.8310 N   0  0  0  0  0  0  0  0  0  0  0  0
   56.4610   29.8570   44.3870 H   0  0  0  0  0  0  0  0  0  0  0  0
   59.3140   33.0590   46.1380 C   0  0  2  0  0  0  0  0  0  0  0  0
   60.3839   33.1232   45.8906 H   0  0  0  0  0  0  0  0  0  0  0  0
   59.1860   33.1980   47.6300 C   0  0  0  0  0  0  0  0  0  0  0  0
   58.2430   32.6250   48.2400 O   0  0  0  0  0  0  0  0  0  0  0  0
   60.1680   33.9530   48.3490 N   0  0  0  0  0  0  0  0  0  0  0  0
   61.5690   33.6550   48.4520 C   0  0  0  0  0  0  0  0  0  0  0  0
   62.2970   33.4340   47.2750 C   0  0  0  0  0  0  0  0  0  0  0  0
   61.7873   33.4756   46.3011 H   0  0  0  0  0  0  0  0  0  0  0  0
   63.6670   33.1610   47.3310 C   0  0  0  0  0  0  0  0  0  0  0  0
   64.2293   32.9783   46.4034 H   0  0  0  0  0  0  0  0  0  0  0  0
   64.3230   33.1200   48.5650 C   0  0  0  0  0  0  0  0  0  0  0  0
   65.3990   32.8960   48.6094 H   0  0  0  0  0  0  0  0  0  0  0  0
   63.6100   33.3640   49.7420 C   0  0  0  0  0  0  0  0  0  0  0  0
   64.1284   33.3421   50.7119 H   0  0  0  0  0  0  0  0  0  0  0  0
   62.2390   33.6360   49.6900 C   0  0  0  0  0  0  0  0  0  0  0  0
   61.6833   33.8354   50.6181 H   0  0  0  0  0  0  0  0  0  0  0  0
   58.5690   34.1990   45.3980 C   0  0  0  0  0  0  0  0  0  0  0  0
   58.9677   34.2724   44.3754 H   0  0  0  0  0  0  0  0  0  0  0  0
   58.7324   35.1243   45.9699 H   0  0  0  0  0  0  0  0  0  0  0  0
   57.0390   33.9690   45.3160 C   0  0  0  0  0  0  0  0  0  0  0  0
   56.6110   34.6866   44.6006 H   0  0  0  0  0  0  0  0  0  0  0  0
   56.6224   34.1107   46.3241 H   0  0  0  0  0  0  0  0  0  0  0  0
  1  2  1  0
  2  3  2  0
  3  4  1  0
  4  5  2  0
  5  6  1  0
  5  7  1  0
  7  8  2  0
  8  9  1  0
  8 10  1  0
 10 11  2  0
 11 12  1  0
 11 13  1  0
 13 14  1  0
 14 15  2  0
 14 16  1  0
 16 17  1  0
 17 18  1  0
 17 19  1  0
 17 20  1  0
  7 21  1  0
 21 22  1  0
  4 23  1  0
 23 24  1  1
 23 25  1  0
 25 26  2  0
 25 27  1  0
 27 28  1  0
 28 29  2  0
 29 30  1  0
 29 31  1  0
 31 32  1  0
 31 33  2  0
 33 34  1  0
 33 35  1  0
 35 36  1  0
 35 37  2  0
 37 38  1  0
 23 39  1  0
 39 40  1  0
 39 41  1  0
 39 42  1  0
 42 43  1  0
 42 44  1  0
 42  2  1  0
 21  3  1  0
 37 28  1  0
 16 10  1  0
M  CHG  3  12  -1  13  -1  27  -1
M  END
>  <UniqueID>  (91) 
79

>  <SMILES>  (91) 
Cn1c(/C=c2\cc3c([nH]2)=CCC[C@H]3C(=O)[N-]c2ccccc2)c([O-])[n-]c1=O

>  <Energy>  (91) 
117.09733575091475

>  <Genealogy>  (91) 
Cn1c(C=c2cc3c([nH]2)=CCCC3C(=O)[N-]c2ccccc2)c([O-])[n-]c1=O (protonated)
Cn1c(C=c2cc3c([nH]2)=CCC[C@H]3C(=O)[N-]c2ccccc2)c([O-])[n-]c1=O (chirality)
Cn1c(/C=c2\cc3c([nH]2)=CCC[C@H]3C(=O)[N-]c2ccccc2)c([O-])[n-]c1=O (cis-trans isomerization)
Cn1c(/C=c2\cc3c([nH]2)=CCC[C@H]3C(=O)[N-]c2ccccc2)c([O-])[n-]c1=O (3D coordinates assigned)
Cn1c(/C=c2\cc3c([nH]2)=CCC[C@H]3C(=O)[N-]c2ccccc2)c([O-])[n-]c1=O (nonaromatic ring conformer: 117.09733575091475 kcal/mol)

>  <smiles>  (91) 
Cn1c(C=c2cc3c([nH]2)=CCCC3C(=O)Nc2ccccc2)c(O)[nH]c1=O

>  <score_type>  (91) 
oracle

>  <origin>  (91) 
adg

>  <m_score__min__energy>  (91) 
-15.529999999999999

>  <m_primary>  (91) 
energy

$$$$
91:0
     RDKit          3D

 45 46  0  0  0  0  0  0  0  0999 V2000
   54.0400   22.9460   47.6130 C   0  0  0  0  0  0  0  0  0  0  0  0
   53.1370   22.9380   46.0810 S   0  0  0  0  0  0  0  0  0  0  0  0
   51.8100   23.6130   46.2870 O   0  0  0  0  0  0  0  0  0  0  0  0
   52.9270   21.5150   45.6450 O   0  0  0  0  0  0  0  0  0  0  0  0
   54.0520   23.7950   44.8840 N   0  0  0  0  0  0  0  0  0  0  0  0
   55.3770   24.3150   45.0710 C   0  0  0  0  0  0  0  0  0  0  0  0
   56.5190   23.5740   44.7250 C   0  0  0  0  0  0  0  0  0  0  0  0
   57.7920   24.1070   44.9310 C   0  0  0  0  0  0  0  0  0  0  0  0
   57.9400   25.3800   45.4830 C   0  0  0  0  0  0  0  0  0  0  0  0
   56.8120   26.1390   45.8320 C   0  0  0  0  0  0  0  0  0  0  0  0
   57.0060   27.4860   46.4820 C   0  0  0  0  0  0  0  0  0  0  0  0
   57.5260   28.4380   45.5040 N   0  0  0  0  0  0  0  0  0  0  0  0
   56.7020   29.4430   44.9050 C   0  0  0  0  0  0  0  0  0  0  0  0
   55.4450   29.3330   44.9310 O   0  0  0  0  0  0  0  0  0  0  0  0
   57.3150   30.5570   44.2510 N   0  0  0  0  0  0  0  0  0  0  0  0
   57.8340   31.7250   44.9050 C   0  0  0  0  0  0  0  0  0  0  0  0
   57.3970   32.9800   44.4630 C   0  0  0  0  0  0  0  0  0  0  0  0
   57.8820   34.1490   45.0510 C   0  0  0  0  0  0  0  0  0  0  0  0
   58.8250   34.0720   46.0750 C   0  0  0  0  0  0  0  0  0  0  0  0
   59.2930   32.8300   46.5080 C   0  0  0  0  0  0  0  0  0  0  0  0
   58.8160   31.6390   45.9190 C   0  0  0  0  0  0  0  0  0  0  0  0
   59.2970   30.3720   46.2980 O   0  0  0  0  0  0  0  0  0  0  0  0
   60.6460   29.9120   46.2120 C   0  0  0  0  0  0  0  0  0  0  0  0
   60.7510   28.7100   45.2730 C   0  0  0  0  0  0  0  0  0  0  0  0
   59.9180   28.8680   44.1570 O   0  0  0  0  0  0  0  0  0  0  0  0
   55.5270   25.5960   45.6260 C   0  0  0  0  0  0  0  0  0  0  0  0
   54.3920   26.3240   45.9760 O   0  0  0  0  0  0  0  0  0  0  0  0
   53.3328   22.9397   48.4555 H   0  0  0  0  0  0  0  0  0  0  0  0
   54.6808   22.0535   47.6656 H   0  0  0  0  0  0  0  0  0  0  0  0
   54.6649   23.8497   47.6656 H   0  0  0  0  0  0  0  0  0  0  0  0
   56.4094   22.5696   44.2900 H   0  0  0  0  0  0  0  0  0  0  0  0
   58.6821   23.5215   44.6573 H   0  0  0  0  0  0  0  0  0  0  0  0
   58.9471   25.7914   45.6457 H   0  0  0  0  0  0  0  0  0  0  0  0
   56.0411   27.8481   46.8665 H   0  0  0  0  0  0  0  0  0  0  0  0
   57.7229   27.3891   47.3106 H   0  0  0  0  0  0  0  0  0  0  0  0
   58.5560   28.4670   45.3330 H   0  0  0  0  0  0  0  0  0  0  0  0
   56.6647   33.0449   43.6448 H   0  0  0  0  0  0  0  0  0  0  0  0
   57.5209   35.1295   44.7071 H   0  0  0  0  0  0  0  0  0  0  0  0
   59.2017   34.9932   46.5435 H   0  0  0  0  0  0  0  0  0  0  0  0
   60.0393   32.7790   47.3145 H   0  0  0  0  0  0  0  0  0  0  0  0
   61.2805   30.7250   45.8294 H   0  0  0  0  0  0  0  0  0  0  0  0
   60.9788   29.6061   47.2148 H   0  0  0  0  0  0  0  0  0  0  0  0
   61.7923   28.6095   44.9329 H   0  0  0  0  0  0  0  0  0  0  0  0
   60.4349   27.8099   45.8206 H   0  0  0  0  0  0  0  0  0  0  0  0
   59.2040   29.5050   44.4250 H   0  0  0  0  0  0  0  0  0  0  0  0
  1  2  1  0
  2  3  2  0
  2  4  2  0
  2  5  1  0
  5  6  1  0
  6  7  2  0
  7  8  1  0
  8  9  2  0
  9 10  1  0
 10 11  1  0
 11 12  1  0
 12 13  1  0
 13 14  2  0
 13 15  1  0
 15 16  1  0
 16 17  2  0
 17 18  1  0
 18 19  2  0
 19 20  1  0
 20 21  2  0
 21 22  1  0
 22 23  1  0
 23 24  1  0
 24 25  1  0
 10 26  2  0
 26 27  1  0
 26  6  1  0
 21 16  1  0
  1 28  1  0
  1 29  1  0
  1 30  1  0
  7 31  1  0
  8 32  1  0
  9 33  1  0
 11 34  1  0
 11 35  1  0
 12 36  1  0
 17 37  1  0
 18 38  1  0
 19 39  1  0
 20 40  1  0
 23 41  1  0
 23 42  1  0
 24 43  1  0
 24 44  1  0
 25 45  1  0
M  CHG  3   5  -1  15  -1  27  -1
M  END
>  <UniqueID>  (92) 
80

>  <SMILES>  (92) 
CS(=O)(=O)[N-]c1cccc(CNC(=O)[N-]c2ccccc2OCCO)c1[O-]

>  <Energy>  (92) 
44.540478837256245

>  <Genealogy>  (92) 
CS(=O)(=O)[N-]c1cccc(CNC(=O)[N-]c2ccccc2OCCO)c1[O-] (protonated)
CS(=O)(=O)[N-]c1cccc(CNC(=O)[N-]c2ccccc2OCCO)c1[O-] (3D coordinates assigned)
CS(=O)(=O)[N-]c1cccc(CNC(=O)[N-]c2ccccc2OCCO)c1[O-] (optimized conformer: 44.540478837256245 kcal/mol)

>  <smiles>  (92) 
CS(=O)(=O)Nc1cccc(CNC(=O)Nc2ccccc2OCCO)c1O

>  <score_type>  (92) 
oracle

>  <origin>  (92) 
adg

>  <m_score__min__energy>  (92) 
-14.869999999999999

>  <m_primary>  (92) 
energy

$$$$
92:0
     RDKit          3D

 39 41  0  0  0  0  0  0  0  0999 V2000
   57.8130   26.1900   43.1630 C   0  0  0  0  0  0  0  0  0  0  0  0
   58.1390   26.0900   44.4630 C   0  0  0  0  0  0  0  0  0  0  0  0
   57.5590   25.2210   45.4030 C   0  0  0  0  0  0  0  0  0  0  0  0
   56.7300   24.1700   45.2460 C   0  0  0  0  0  0  0  0  0  0  0  0
   55.2600   24.2390   45.1770 C   0  0  0  0  0  0  0  0  0  0  0  0
   54.4690   23.2200   44.7960 N   0  0  0  0  0  0  0  0  0  0  0  0
   53.2240   23.6910   45.0200 C   0  0  0  0  0  0  0  0  0  0  0  0
   52.1890   23.0210   44.7680 O   0  0  0  0  0  0  0  0  0  0  0  0
   53.1740   24.9350   45.5420 N   0  0  0  0  0  0  0  0  0  0  0  0
   54.4720   25.2640   45.6480 C   0  0  0  0  0  0  0  0  0  0  0  0
   54.9160   26.4780   46.1670 O   0  0  0  0  0  0  0  0  0  0  0  0
   58.0190   25.6270   46.6420 C   0  0  0  0  0  0  0  0  0  0  0  0
   58.9080   26.6560   46.4220 C   0  0  0  0  0  0  0  0  0  0  0  0
   59.6220   27.3970   47.5140 C   0  0  0  0  0  0  0  0  0  0  0  0
   58.9910   26.9410   45.1000 N   0  0  0  0  0  0  0  0  0  0  0  0
   59.7980   28.0290   44.5210 C   0  0  0  0  0  0  0  0  0  0  0  0
   59.2240   29.3760   44.8820 C   0  0  0  0  0  0  0  0  0  0  0  0
   59.8360   30.1710   45.8620 C   0  0  0  0  0  0  0  0  0  0  0  0
   59.3080   31.4230   46.1900 C   0  0  0  0  0  0  0  0  0  0  0  0
   58.1540   31.9010   45.5460 C   0  0  0  0  0  0  0  0  0  0  0  0
   57.5920   33.2270   45.8880 C   0  0  0  0  0  0  0  0  0  0  0  0
   56.7360   33.7720   45.1400 O   0  0  0  0  0  0  0  0  0  0  0  0
   58.0020   33.8900   47.0390 O   0  0  0  0  0  0  0  0  0  0  0  0
   57.5390   31.1010   44.5680 C   0  0  0  0  0  0  0  0  0  0  0  0
   58.0690   29.8500   44.2410 C   0  0  0  0  0  0  0  0  0  0  0  0
   58.3379   26.9102   42.5182 H   0  0  0  0  0  0  0  0  0  0  0  0
   57.0213   25.5517   42.7438 H   0  0  0  0  0  0  0  0  0  0  0  0
   57.1908   23.1747   45.1621 H   0  0  0  0  0  0  0  0  0  0  0  0
   54.7660   26.7210   47.1380 H   0  0  0  0  0  0  0  0  0  0  0  0
   57.7302   25.2082   47.6173 H   0  0  0  0  0  0  0  0  0  0  0  0
   59.2728   27.0346   48.4921 H   0  0  0  0  0  0  0  0  0  0  0  0
   60.7051   27.2266   47.4252 H   0  0  0  0  0  0  0  0  0  0  0  0
   59.4116   28.4730   47.4252 H   0  0  0  0  0  0  0  0  0  0  0  0
   60.8255   27.9601   44.9076 H   0  0  0  0  0  0  0  0  0  0  0  0
   59.7917   27.9265   43.4258 H   0  0  0  0  0  0  0  0  0  0  0  0
   60.7377   29.8068   46.3761 H   0  0  0  0  0  0  0  0  0  0  0  0
   59.7994   32.0386   46.9578 H   0  0  0  0  0  0  0  0  0  0  0  0
   56.6345   31.4619   44.0565 H   0  0  0  0  0  0  0  0  0  0  0  0
   57.5771   29.2321   43.4753 H   0  0  0  0  0  0  0  0  0  0  0  0
  1  2  2  0
  2  3  1  0
  3  4  2  3
  4  5  1  0
  5  6  1  0
  6  7  1  0
  7  8  2  0
  7  9  1  0
  9 10  1  0
 10 11  1  0
  3 12  1  0
 12 13  2  0
 13 14  1  0
 13 15  1  0
 15 16  1  0
 16 17  1  0
 17 18  2  0
 18 19  1  0
 19 20  2  0
 20 21  1  0
 21 22  2  0
 21 23  1  0
 20 24  1  0
 24 25  2  0
 15  2  1  0
 25 17  1  0
 10  5  2  0
  1 26  1  0
  1 27  1  0
  4 28  1  0
 11 29  1  0
 12 30  1  0
 14 31  1  0
 14 32  1  0
 14 33  1  0
 16 34  1  0
 16 35  1  0
 18 36  1  0
 19 37  1  0
 24 38  1  0
 25 39  1  0
M  CHG  3   6  -1   9  -1  23  -1
M  END
>  <UniqueID>  (93) 
81

>  <SMILES>  (93) 
C=c1c(=Cc2[n-]c(=O)[n-]c2O)cc(C)n1Cc1ccc(C(=O)[O-])cc1

>  <Energy>  (93) 
109.74085080341571

>  <Genealogy>  (93) 
C=c1c(=Cc2[n-]c(=O)[n-]c2O)cc(C)n1Cc1ccc(C(=O)[O-])cc1 (protonated)
C=c1c(=Cc2[n-]c(=O)[n-]c2O)cc(C)n1Cc1ccc(C(=O)[O-])cc1 (3D coordinates assigned)
C=c1c(=Cc2[n-]c(=O)[n-]c2O)cc(C)n1Cc1ccc(C(=O)[O-])cc1 (optimized conformer: 109.74085080341571 kcal/mol)

>  <smiles>  (93) 
C=c1c(=Cc2[nH]c(=O)[nH]c2O)cc(C)n1Cc1ccc(C(=O)O)cc1

>  <score_type>  (93) 
oracle

>  <origin>  (93) 
adg

>  <m_score__min__energy>  (93) 
-13.199999999999999

>  <m_primary>  (93) 
energy

$$$$
93:0
     RDKit          3D

 40 42  0  0  0  0  0  0  0  0999 V2000
   55.2300   26.0980   46.2250 N   0  0  0  0  0  0  0  0  0  0  0  0
   56.9430   26.2460   46.0470 S   0  0  0  0  0  0  0  0  0  0  0  0
   57.6120   25.0740   46.7100 O   0  0  0  0  0  0  0  0  0  0  0  0
   57.3030   26.2590   44.5880 O   0  0  0  0  0  0  0  0  0  0  0  0
   57.4790   27.6900   46.7900 O   0  0  0  0  0  0  0  0  0  0  0  0
   57.7240   28.8950   46.1150 C   0  0  0  0  0  0  0  0  0  0  0  0
   58.9160   29.6260   46.2790 C   0  0  0  0  0  0  0  0  0  0  0  0
   59.1130   30.8210   45.5830 C   0  0  0  0  0  0  0  0  0  0  0  0
   58.1240   31.3100   44.7180 C   0  0  0  0  0  0  0  0  0  0  0  0
   58.3560   32.5770   43.9340 C   0  0  0  0  0  0  0  0  0  0  0  0
   57.6500   33.7700   44.5800 C   0  0  0  0  0  0  0  0  0  0  0  0
   57.9810   33.8250   46.0000 N   0  0  0  0  0  0  0  0  0  0  0  0
   59.1020   33.6930   46.6610 C   0  0  0  0  0  0  0  0  0  0  0  0
   60.2440   34.1450   45.9840 C   0  0  0  0  0  0  0  0  0  0  0  0
   61.4850   34.1650   46.6070 C   0  0  0  0  0  0  0  0  0  0  0  0
   61.6080   33.7400   47.8840 N   0  0  0  0  0  0  0  0  0  0  0  0
   60.5530   33.2620   48.5910 C   0  0  0  0  0  0  0  0  0  0  0  0
   60.7730   32.8260   49.9020 C   0  0  0  0  0  0  0  0  0  0  0  0
   59.7290   32.2900   50.6510 C   0  0  0  0  0  0  0  0  0  0  0  0
   60.0160   31.7400   52.2920 Cl  0  0  0  0  0  0  0  0  0  0  0  0
   58.4640   32.1680   50.0850 C   0  0  0  0  0  0  0  0  0  0  0  0
   58.2260   32.6000   48.7770 C   0  0  0  0  0  0  0  0  0  0  0  0
   59.2540   33.1910   48.0010 C   0  0  0  0  0  0  0  0  0  0  0  0
   56.9400   30.5790   44.5450 C   0  0  0  0  0  0  0  0  0  0  0  0
   56.7370   29.3790   45.2430 C   0  0  0  0  0  0  0  0  0  0  0  0
   55.5570   28.6590   45.0710 O   0  0  0  0  0  0  0  0  0  0  0  0
   54.8550   27.0590   46.3860 H   0  0  0  0  0  0  0  0  0  0  0  0
   59.6965   29.2540   46.9590 H   0  0  0  0  0  0  0  0  0  0  0  0
   60.0501   31.3819   45.7145 H   0  0  0  0  0  0  0  0  0  0  0  0
   59.4364   32.7797   43.8930 H   0  0  0  0  0  0  0  0  0  0  0  0
   57.9462   32.4383   42.9226 H   0  0  0  0  0  0  0  0  0  0  0  0
   57.9793   34.6988   44.0912 H   0  0  0  0  0  0  0  0  0  0  0  0
   56.5620   33.6577   44.4628 H   0  0  0  0  0  0  0  0  0  0  0  0
   60.1553   34.4892   44.9430 H   0  0  0  0  0  0  0  0  0  0  0  0
   62.3685   34.5270   46.0607 H   0  0  0  0  0  0  0  0  0  0  0  0
   61.7771   32.9072   50.3438 H   0  0  0  0  0  0  0  0  0  0  0  0
   57.6442   31.7279   50.6717 H   0  0  0  0  0  0  0  0  0  0  0  0
   57.2228   32.4790   48.3423 H   0  0  0  0  0  0  0  0  0  0  0  0
   56.1651   30.9489   43.8574 H   0  0  0  0  0  0  0  0  0  0  0  0
   55.1370   28.1380   45.8320 H   0  0  0  0  0  0  0  0  0  0  0  0
  1  2  1  0
  2  3  2  0
  2  4  2  0
  2  5  1  0
  5  6  1  0
  6  7  2  0
  7  8  1  0
  8  9  2  0
  9 10  1  0
 10 11  1  0
 11 12  1  0
 12 13  2  3
 13 14  1  0
 14 15  2  0
 15 16  1  0
 16 17  1  0
 17 18  2  0
 18 19  1  0
 19 20  1  0
 19 21  2  0
 21 22  1  0
 22 23  2  0
  9 24  1  0
 24 25  2  0
 25 26  1  0
 25  6  1  0
 23 13  1  0
 23 17  1  0
  1 27  1  0
  7 28  1  0
  8 29  1  0
 10 30  1  0
 10 31  1  0
 11 32  1  0
 11 33  1  0
 14 34  1  0
 15 35  1  0
 18 36  1  0
 21 37  1  0
 22 38  1  0
 24 39  1  0
 26 40  1  0
M  CHG  2   1  -1  16  -1
M  END
>  <UniqueID>  (94) 
82

>  <SMILES>  (94) 
[NH-]S(=O)(=O)Oc1ccc(CCN=c2cc[n-]c3cc(Cl)ccc23)cc1O

>  <Energy>  (94) 
55.25099011678077

>  <Genealogy>  (94) 
[NH-]S(=O)(=O)Oc1ccc(CCN=c2cc[n-]c3cc(Cl)ccc23)cc1O (protonated)
[NH-]S(=O)(=O)Oc1ccc(CCN=c2cc[n-]c3cc(Cl)ccc23)cc1O (3D coordinates assigned)
[NH-]S(=O)(=O)Oc1ccc(CCN=c2cc[n-]c3cc(Cl)ccc23)cc1O (optimized conformer: 55.25099011678077 kcal/mol)

>  <smiles>  (94) 
NS(=O)(=O)Oc1ccc(CCN=c2cc[nH]c3cc(Cl)ccc23)cc1O

>  <score_type>  (94) 
oracle

>  <origin>  (94) 
adg

>  <m_score__min__energy>  (94) 
-12.449999999999999

>  <m_primary>  (94) 
energy

$$$$
94:0
     RDKit          3D

 47 49  0  0  0  0  0  0  0  0999 V2000
   54.5780   29.3400   44.8820 H   0  0  0  0  0  0  0  0  0  0  0  0
   55.5740   29.6150   45.0180 N   0  0  0  0  0  0  0  0  0  0  0  0
   56.3130   30.2350   43.9680 C   0  0  0  0  0  0  0  0  0  0  0  0
   55.9630   30.0580   42.7700 O   0  0  0  0  0  0  0  0  0  0  0  0
   57.5190   31.0760   44.2920 C   0  0  1  0  0  0  0  0  0  0  0  0
   58.4059   30.4268   44.3350 H   0  0  0  0  0  0  0  0  0  0  0  0
   57.7630   32.1130   43.1700 C   0  0  0  0  0  0  0  0  0  0  0  0
   58.2818   31.6223   42.3333 H   0  0  0  0  0  0  0  0  0  0  0  0
   56.7908   32.5092   42.8415 H   0  0  0  0  0  0  0  0  0  0  0  0
   58.6190   33.2780   43.6760 C   0  0  0  0  0  0  0  0  0  0  0  0
   59.5695   32.8800   44.0610 H   0  0  0  0  0  0  0  0  0  0  0  0
   58.7890   33.9665   42.8351 H   0  0  0  0  0  0  0  0  0  0  0  0
   57.9100   34.0680   44.8090 C   0  0  2  0  0  0  0  0  0  0  0  0
   57.2898   34.8521   44.3502 H   0  0  0  0  0  0  0  0  0  0  0  0
   58.9620   34.7520   45.7070 C   0  0  0  0  0  0  0  0  0  0  0  0
   58.5917   35.7452   46.0010 H   0  0  0  0  0  0  0  0  0  0  0  0
   59.9002   34.8405   45.1395 H   0  0  0  0  0  0  0  0  0  0  0  0
   59.2220   33.9620   46.9140 N   0  0  0  0  0  0  0  0  0  0  0  0
   60.2250   33.1520   47.0880 C   0  0  0  0  0  0  0  0  0  0  0  0
   61.4780   33.6620   47.2020 N   0  0  0  0  0  0  0  0  0  0  0  0
   62.5540   32.8530   47.3900 C   0  0  0  0  0  0  0  0  0  0  0  0
   63.9250   33.4440   47.4840 C   0  0  0  0  0  0  0  0  0  0  0  0
   64.2012   33.5631   48.5421 H   0  0  0  0  0  0  0  0  0  0  0  0
   64.6465   32.7770   46.9895 H   0  0  0  0  0  0  0  0  0  0  0  0
   63.9354   34.4265   46.9895 H   0  0  0  0  0  0  0  0  0  0  0  0
   62.3740   31.4680   47.4600 C   0  0  0  0  0  0  0  0  0  0  0  0
   63.2350   30.7965   47.5932 H   0  0  0  0  0  0  0  0  0  0  0  0
   61.0740   30.9520   47.3570 C   0  0  0  0  0  0  0  0  0  0  0  0
   60.8170   29.5750   47.4070 O   0  0  0  0  0  0  0  0  0  0  0  0
   59.9420   28.8810   46.5590 C   0  0  0  0  0  0  0  0  0  0  0  0
   60.2110   28.8620   45.1850 C   0  0  0  0  0  0  0  0  0  0  0  0
   61.1016   29.3768   44.7954 H   0  0  0  0  0  0  0  0  0  0  0  0
   59.3550   28.1930   44.3050 C   0  0  0  0  0  0  0  0  0  0  0  0
   59.5787   28.1742   43.2282 H   0  0  0  0  0  0  0  0  0  0  0  0
   58.2150   27.5480   44.7930 C   0  0  0  0  0  0  0  0  0  0  0  0
   57.5448   27.0169   44.1011 H   0  0  0  0  0  0  0  0  0  0  0  0
   57.9270   27.5780   46.1600 C   0  0  0  0  0  0  0  0  0  0  0  0
   57.0269   27.0749   46.5429 H   0  0  0  0  0  0  0  0  0  0  0  0
   58.7820   28.2470   47.0420 C   0  0  0  0  0  0  0  0  0  0  0  0
   58.5471   28.2777   48.1162 H   0  0  0  0  0  0  0  0  0  0  0  0
   60.0360   31.8050   47.1590 N   0  0  0  0  0  0  0  0  0  0  0  0
   56.9230   33.1800   45.6180 C   0  0  0  0  0  0  0  0  0  0  0  0
   56.8374   33.5824   46.6382 H   0  0  0  0  0  0  0  0  0  0  0  0
   55.9514   33.1944   45.1025 H   0  0  0  0  0  0  0  0  0  0  0  0
   57.3960   31.7240   45.6980 C   0  0  0  0  0  0  0  0  0  0  0  0
   58.3797   31.6963   46.1894 H   0  0  0  0  0  0  0  0  0  0  0  0
   56.6496   31.1545   46.2713 H   0  0  0  0  0  0  0  0  0  0  0  0
  1  2  1  0
  2  3  1  0
  3  4  2  0
  3  5  1  0
  5  6  1  6
  5  7  1  0
  7  8  1  0
  7  9  1  0
  7 10  1  0
 10 11  1  0
 10 12  1  0
 10 13  1  0
 13 14  1  1
 13 15  1  0
 15 16  1  0
 15 17  1  0
 15 18  1  0
 18 19  2  0
 19 20  1  0
 20 21  2  0
 21 22  1  0
 22 23  1  0
 22 24  1  0
 22 25  1  0
 21 26  1  0
 26 27  1  0
 26 28  2  0
 28 29  1  0
 29 30  1  0
 30 31  2  0
 31 32  1  0
 31 33  1  0
 33 34  1  0
 33 35  2  0
 35 36  1  0
 35 37  1  0
 37 38  1  0
 37 39  2  0
 39 40  1  0
 28 41  1  0
 13 42  1  0
 42 43  1  0
 42 44  1  0
 42 45  1  0
 45 46  1  0
 45 47  1  0
 45  5  1  0
 41 19  1  0
 39 30  1  0
M  CHG  2   2  -1  41  -1
M  END
>  <UniqueID>  (95) 
83

>  <SMILES>  (95) 
Cc1cc(Oc2ccccc2)[n-]/c(=N\CC2CCC(C([NH-])=O)CC2)n1

>  <Energy>  (95) 
56.96751576043789

>  <Genealogy>  (95) 
Cc1cc(Oc2ccccc2)[n-]c(=NCC2CCC(C([NH-])=O)CC2)n1 (protonated)
Cc1cc(Oc2ccccc2)[n-]/c(=N\CC2CCC(C([NH-])=O)CC2)n1 (cis-trans isomerization)
Cc1cc(Oc2ccccc2)[n-]/c(=N\CC2CCC(C([NH-])=O)CC2)n1 (3D coordinates assigned)
Cc1cc(Oc2ccccc2)[n-]/c(=N\CC2CCC(C([NH-])=O)CC2)n1 (nonaromatic ring conformer: 56.96751576043789 kcal/mol)

>  <smiles>  (95) 
Cc1cc(Oc2ccccc2)[nH]c(=NCC2CCC(C(N)=O)CC2)n1

>  <score_type>  (95) 
oracle

>  <origin>  (95) 
adg

>  <m_score__min__energy>  (95) 
-12.81

>  <m_primary>  (95) 
energy

$$$$
95:0
     RDKit          3D

 42 44  0  0  0  0  0  0  0  0999 V2000
   57.2090   25.5950   44.5660 N   0  0  0  0  0  0  0  0  0  0  0  0
   56.7300   26.8220   45.6840 S   0  0  0  0  0  0  0  0  0  0  0  0
   57.5080   26.6750   46.9620 O   0  0  0  0  0  0  0  0  0  0  0  0
   55.2650   26.6760   45.9920 O   0  0  0  0  0  0  0  0  0  0  0  0
   57.0350   28.4060   44.9810 C   0  0  0  0  0  0  0  0  0  0  0  0
   55.9650   29.2260   44.6000 C   0  0  0  0  0  0  0  0  0  0  0  0
   56.2050   30.4880   44.0480 C   0  0  0  0  0  0  0  0  0  0  0  0
   57.5210   30.9460   43.8670 C   0  0  0  0  0  0  0  0  0  0  0  0
   57.7690   32.2820   43.2740 C   0  0  0  0  0  0  0  0  0  0  0  0
   58.0360   32.3730   42.0470 O   0  0  0  0  0  0  0  0  0  0  0  0
   57.6660   33.4870   44.0450 N   0  0  0  0  0  0  0  0  0  0  0  0
   58.3710   33.7720   45.2620 C   0  0  0  0  0  0  0  0  0  0  0  0
   58.1680   32.9450   46.3730 C   0  0  0  0  0  0  0  0  0  0  0  0
   58.8460   33.1920   47.5700 C   0  0  0  0  0  0  0  0  0  0  0  0
   59.7170   34.2870   47.6790 C   0  0  0  0  0  0  0  0  0  0  0  0
   60.4890   34.5200   48.9490 C   0  0  0  0  0  0  0  0  0  0  0  0
   61.8890   33.9850   48.8080 C   0  0  0  0  0  0  0  0  0  0  0  0
   62.3260   33.4530   47.5850 C   0  0  0  0  0  0  0  0  0  0  0  0
   63.6150   32.9250   47.4880 C   0  0  0  0  0  0  0  0  0  0  0  0
   64.4350   32.9180   48.5720 N   0  0  0  0  0  0  0  0  0  0  0  0
   64.0330   33.4180   49.7710 C   0  0  0  0  0  0  0  0  0  0  0  0
   62.7520   33.9560   49.9140 C   0  0  0  0  0  0  0  0  0  0  0  0
   59.9050   35.1280   46.5720 C   0  0  0  0  0  0  0  0  0  0  0  0
   59.2290   34.8810   45.3750 C   0  0  0  0  0  0  0  0  0  0  0  0
   58.5910   30.1300   44.2770 C   0  0  0  0  0  0  0  0  0  0  0  0
   58.3480   28.8690   44.8270 C   0  0  0  0  0  0  0  0  0  0  0  0
   58.2480   25.5160   44.6250 H   0  0  0  0  0  0  0  0  0  0  0  0
   56.9870   25.9510   43.6090 H   0  0  0  0  0  0  0  0  0  0  0  0
   54.9312   28.8754   44.7357 H   0  0  0  0  0  0  0  0  0  0  0  0
   55.3587   31.1260   43.7537 H   0  0  0  0  0  0  0  0  0  0  0  0
   57.4714   32.0965   46.3036 H   0  0  0  0  0  0  0  0  0  0  0  0
   58.6961   32.5245   48.4313 H   0  0  0  0  0  0  0  0  0  0  0  0
   60.5310   35.5994   49.1565 H   0  0  0  0  0  0  0  0  0  0  0  0
   59.9860   33.9993   49.7772 H   0  0  0  0  0  0  0  0  0  0  0  0
   61.6588   33.4520   46.7104 H   0  0  0  0  0  0  0  0  0  0  0  0
   63.9681   32.5133   46.5310 H   0  0  0  0  0  0  0  0  0  0  0  0
   64.7187   33.3987   50.6309 H   0  0  0  0  0  0  0  0  0  0  0  0
   62.4225   34.3535   50.8853 H   0  0  0  0  0  0  0  0  0  0  0  0
   60.5885   35.9866   46.6471 H   0  0  0  0  0  0  0  0  0  0  0  0
   59.3680   35.5560   44.5177 H   0  0  0  0  0  0  0  0  0  0  0  0
   59.6253   30.4870   44.1639 H   0  0  0  0  0  0  0  0  0  0  0  0
   59.1917   28.2367   45.1406 H   0  0  0  0  0  0  0  0  0  0  0  0
  1  2  1  0
  2  3  2  0
  2  4  2  0
  2  5  1  0
  5  6  2  0
  6  7  1  0
  7  8  2  0
  8  9  1  0
  9 10  2  0
  9 11  1  0
 11 12  1  0
 12 13  2  0
 13 14  1  0
 14 15  2  0
 15 16  1  0
 16 17  1  0
 17 18  2  0
 18 19  1  0
 19 20  2  0
 20 21  1  0
 21 22  2  0
 15 23  1  0
 23 24  2  0
  8 25  1  0
 25 26  2  0
 26  5  1  0
 24 12  1  0
 22 17  1  0
  1 27  1  0
  1 28  1  0
  6 29  1  0
  7 30  1  0
 13 31  1  0
 14 32  1  0
 16 33  1  0
 16 34  1  0
 18 35  1  0
 19 36  1  0
 21 37  1  0
 22 38  1  0
 23 39  1  0
 24 40  1  0
 25 41  1  0
 26 42  1  0
M  CHG  1  11  -1
M  END
>  <UniqueID>  (96) 
84

>  <SMILES>  (96) 
NS(=O)(=O)c1ccc(C(=O)[N-]c2ccc(Cc3ccncc3)cc2)cc1

>  <Energy>  (96) 
49.33001624762307

>  <Genealogy>  (96) 
NS(=O)(=O)c1ccc(C(=O)[N-]c2ccc(Cc3ccncc3)cc2)cc1 (protonated)
NS(=O)(=O)c1ccc(C(=O)[N-]c2ccc(Cc3ccncc3)cc2)cc1 (3D coordinates assigned)
NS(=O)(=O)c1ccc(C(=O)[N-]c2ccc(Cc3ccncc3)cc2)cc1 (optimized conformer: 49.33001624762307 kcal/mol)

>  <smiles>  (96) 
NS(=O)(=O)c1ccc(C(=O)Nc2ccc(Cc3ccncc3)cc2)cc1

>  <score_type>  (96) 
oracle

>  <origin>  (96) 
adg

>  <m_score__min__energy>  (96) 
-10.859999999999999

>  <m_primary>  (96) 
energy

$$$$
96:0
     RDKit          3D

 36 37  0  0  0  0  0  0  0  0999 V2000
   61.0700   34.0780   47.1190 C   0  0  0  0  0  0  0  0  0  0  0  0
   59.7510   33.7240   46.4810 C   0  0  0  0  0  0  0  0  0  0  0  0
   59.2020   34.6000   45.5270 C   0  0  0  0  0  0  0  0  0  0  0  0
   57.9970   34.2960   44.8930 C   0  0  0  0  0  0  0  0  0  0  0  0
   57.3270   33.1110   45.1950 C   0  0  0  0  0  0  0  0  0  0  0  0
   57.8610   32.2250   46.1320 C   0  0  0  0  0  0  0  0  0  0  0  0
   59.0770   32.5120   46.7800 C   0  0  0  0  0  0  0  0  0  0  0  0
   59.5960   31.5270   47.8060 C   0  0  0  0  0  0  0  0  0  0  0  0
   59.6110   30.0920   47.2620 C   0  0  0  0  0  0  0  0  0  0  0  0
   60.5900   29.9570   46.1670 N   0  0  0  0  0  0  0  0  0  0  0  0
   60.0140   29.3470   44.9590 C   0  0  0  0  0  0  0  0  0  0  0  0
   58.7290   28.6410   45.2810 C   0  0  0  0  0  0  0  0  0  0  0  0
   58.7310   27.3270   45.7720 C   0  0  0  0  0  0  0  0  0  0  0  0
   57.5150   26.6850   46.0160 C   0  0  0  0  0  0  0  0  0  0  0  0
   57.5060   25.5050   46.4570 O   0  0  0  0  0  0  0  0  0  0  0  0
   56.3110   27.3550   45.7700 C   0  0  0  0  0  0  0  0  0  0  0  0
   55.0960   26.7220   46.0100 O   0  0  0  0  0  0  0  0  0  0  0  0
   56.3470   28.6690   45.2740 C   0  0  0  0  0  0  0  0  0  0  0  0
   55.1740   29.3720   45.0100 O   0  0  0  0  0  0  0  0  0  0  0  0
   57.5450   29.2690   45.0430 N   0  0  0  0  0  0  0  0  0  0  0  0
   60.9669   34.0503   48.2138 H   0  0  0  0  0  0  0  0  0  0  0  0
   61.8356   33.3536   46.8044 H   0  0  0  0  0  0  0  0  0  0  0  0
   61.3700   35.0884   46.8044 H   0  0  0  0  0  0  0  0  0  0  0  0
   59.7279   35.5337   45.2785 H   0  0  0  0  0  0  0  0  0  0  0  0
   57.5747   34.9924   44.1536 H   0  0  0  0  0  0  0  0  0  0  0  0
   56.3766   32.8742   44.6943 H   0  0  0  0  0  0  0  0  0  0  0  0
   57.3260   31.2929   46.3664 H   0  0  0  0  0  0  0  0  0  0  0  0
   60.6207   31.8121   48.0867 H   0  0  0  0  0  0  0  0  0  0  0  0
   58.9249   31.5554   48.6771 H   0  0  0  0  0  0  0  0  0  0  0  0
   59.8810   29.4012   48.0743 H   0  0  0  0  0  0  0  0  0  0  0  0
   58.6107   29.8523   46.8721 H   0  0  0  0  0  0  0  0  0  0  0  0
   60.9140   30.9160   45.9030 H   0  0  0  0  0  0  0  0  0  0  0  0
   59.8171   30.1340   44.2161 H   0  0  0  0  0  0  0  0  0  0  0  0
   60.7292   28.6135   44.5583 H   0  0  0  0  0  0  0  0  0  0  0  0
   59.6814   26.8072   45.9630 H   0  0  0  0  0  0  0  0  0  0  0  0
   54.3860   28.9440   44.5390 H   0  0  0  0  0  0  0  0  0  0  0  0
  1  2  1  0
  2  3  2  0
  3  4  1  0
  4  5  2  0
  5  6  1  0
  6  7  2  0
  7  8  1  0
  8  9  1  0
  9 10  1  0
 10 11  1  0
 11 12  1  0
 12 13  2  0
 13 14  1  0
 14 15  2  0
 14 16  1  0
 16 17  1  0
 16 18  2  0
 18 19  1  0
 18 20  1  0
  7  2  1  0
 20 12  1  0
  1 21  1  0
  1 22  1  0
  1 23  1  0
  3 24  1  0
  4 25  1  0
  5 26  1  0
  6 27  1  0
  8 28  1  0
  8 29  1  0
  9 30  1  0
  9 31  1  0
 10 32  1  0
 11 33  1  0
 11 34  1  0
 13 35  1  0
 19 36  1  0
M  CHG  2  17  -1  20  -1
M  END
>  <UniqueID>  (97) 
85

>  <SMILES>  (97) 
Cc1ccccc1CCNCc1cc(=O)c([O-])c(O)[n-]1

>  <Energy>  (97) 
35.77054670210589

>  <Genealogy>  (97) 
Cc1ccccc1CCNCc1cc(=O)c([O-])c(O)[n-]1 (protonated)
Cc1ccccc1CCNCc1cc(=O)c([O-])c(O)[n-]1 (3D coordinates assigned)
Cc1ccccc1CCNCc1cc(=O)c([O-])c(O)[n-]1 (optimized conformer: 35.77054670210589 kcal/mol)

>  <smiles>  (97) 
Cc1ccccc1CCNCc1cc(=O)c(O)c(O)[nH]1

>  <score_type>  (97) 
oracle

>  <origin>  (97) 
adg

>  <m_score__min__energy>  (97) 
-12.67

>  <m_primary>  (97) 
energy

$$$$
