0:0
     RDKit          3D

 49 52  0  0  1  0  0  0  0  0999 V2000
   64.0810   33.4370   48.1250 C   0  0  0  0  0  0  0  0  0  0  0  0
   63.0500   32.6540   48.3920 C   0  0  0  0  0  0  0  0  0  0  0  0
   61.8550   32.5820   47.5600 C   0  0  0  0  0  0  0  0  0  0  0  0
   61.8280   33.1120   46.4030 O   0  0  0  0  0  0  0  0  0  0  0  0
   60.6780   31.9280   47.9850 N   0  0  0  0  0  0  0  0  0  0  0  0
   59.5670   31.9200   47.0820 C   0  0  0  0  0  0  0  0  0  0  0  0
   59.1410   30.6760   46.6530 C   0  0  0  0  0  0  0  0  0  0  0  0
   58.0700   30.5940   45.7770 C   0  0  0  0  0  0  0  0  0  0  0  0
   57.6420   29.3600   45.3480 C   0  0  0  0  0  0  0  0  0  0  0  0
   58.2500   28.3190   45.7720 N   0  0  0  0  0  0  0  0  0  0  0  0
   57.9080   26.9890   45.4020 C   0  0  0  0  0  0  0  0  0  0  0  0
   57.4400   26.0510   46.3010 C   0  0  0  0  0  0  0  0  0  0  0  0
   57.1280   24.7770   45.8670 C   0  0  0  0  0  0  0  0  0  0  0  0
   57.2730   24.4100   44.5390 C   0  0  0  0  0  0  0  0  0  0  0  0
   56.9610   23.1080   44.0600 N   0  0  0  0  0  0  0  0  0  0  0  0
   57.1600   21.7320   44.4720 C   0  0  0  0  0  0  0  0  0  0  0  0
   57.1350   21.3560   42.9900 C   0  0  0  0  0  0  0  0  0  0  0  0
   56.2720   22.6000   42.8880 C   0  0  0  0  0  0  0  0  0  0  0  0
   57.7430   25.3680   43.6620 C   0  0  0  0  0  0  0  0  0  0  0  0
   58.0620   26.6500   44.0680 C   0  0  0  0  0  0  0  0  0  0  0  0
   56.6070   29.2150   44.4980 N   0  0  0  0  0  0  0  0  0  0  0  0
   56.0070   30.3500   44.0860 C   0  0  0  0  0  0  0  0  0  0  0  0
   56.3940   31.5750   44.4830 N   0  0  0  0  0  0  0  0  0  0  0  0
   57.4290   31.7320   45.3320 C   0  0  0  0  0  0  0  0  0  0  0  0
   57.8700   32.9560   45.7730 C   0  0  0  0  0  0  0  0  0  0  0  0
   58.9480   33.0790   46.6570 C   0  0  0  0  0  0  0  0  0  0  0  0
   59.4010   34.2990   47.1060 O   0  0  0  0  0  0  0  0  0  0  0  0
   59.6420   35.3730   46.2330 C   0  0  0  0  0  0  0  0  0  0  0  0
   64.9539   33.4445   48.7944 H   0  0  0  0  0  0  0  0  0  0  0  0
   64.0661   34.0811   47.2334 H   0  0  0  0  0  0  0  0  0  0  0  0
   63.0962   32.0221   49.2912 H   0  0  0  0  0  0  0  0  0  0  0  0
   60.6280   31.4690   48.9210 H   0  0  0  0  0  0  0  0  0  0  0  0
   59.6458   29.7633   47.0026 H   0  0  0  0  0  0  0  0  0  0  0  0
   57.3158   26.3178   47.3609 H   0  0  0  0  0  0  0  0  0  0  0  0
   56.7563   24.0378   46.5918 H   0  0  0  0  0  0  0  0  0  0  0  0
   58.1171   21.5385   44.9785 H   0  0  0  0  0  0  0  0  0  0  0  0
   56.4986   21.2454   45.2039 H   0  0  0  0  0  0  0  0  0  0  0  0
   58.1030   21.4033   42.4697 H   0  0  0  0  0  0  0  0  0  0  0  0
   56.8427   20.3670   42.6073 H   0  0  0  0  0  0  0  0  0  0  0  0
   56.4281   23.1912   41.9736 H   0  0  0  0  0  0  0  0  0  0  0  0
   55.1745   22.5373   42.8477 H   0  0  0  0  0  0  0  0  0  0  0  0
   57.8679   25.1010   42.6022 H   0  0  0  0  0  0  0  0  0  0  0  0
   58.4324   27.3896   43.3429 H   0  0  0  0  0  0  0  0  0  0  0  0
   56.3010   28.2670   44.1860 H   0  0  0  0  0  0  0  0  0  0  0  0
   55.1586   30.2698   43.3904 H   0  0  0  0  0  0  0  0  0  0  0  0
   57.3612   33.8656   45.4212 H   0  0  0  0  0  0  0  0  0  0  0  0
   59.8460   36.2821   46.8177 H   0  0  0  0  0  0  0  0  0  0  0  0
   60.5107   35.1423   45.5989 H   0  0  0  0  0  0  0  0  0  0  0  0
   58.7580   35.5356   45.5989 H   0  0  0  0  0  0  0  0  0  0  0  0
  1  2  2  0
  2  3  1  0
  3  4  2  0
  3  5  1  0
  5  6  1  0
  6  7  2  0
  7  8  1  0
  8  9  1  0
  9 10  2  0
 10 11  1  0
 11 12  2  0
 12 13  1  0
 13 14  2  0
 14 15  1  0
 15 16  1  0
 16 17  1  0
 17 18  1  0
 14 19  1  0
 19 20  2  0
  9 21  1  0
 21 22  1  0
 22 23  2  0
 23 24  1  0
 24 25  1  0
 25 26  2  0
 26 27  1  0
 27 28  1  0
 26  6  1  0
 24  8  2  0
 20 11  1  0
 18 15  1  0
  1 29  1  0
  1 30  1  0
  2 31  1  0
  5 32  1  0
  7 33  1  0
 12 34  1  0
 13 35  1  0
 16 36  1  0
 16 37  1  0
 17 38  1  0
 17 39  1  0
 18 40  1  0
 18 41  1  0
 19 42  1  0
 20 43  1  0
 21 44  1  0
 22 45  1  0
 25 46  1  0
 28 47  1  0
 28 48  1  0
 28 49  1  0
M  END
>  <smiles>  (1) 
C=CC(=O)Nc1cc2c(=Nc3ccc(N4CCC4)cc3)[nH]cnc2cc1OC

>  <score_type>  (1) 
oracle

>  <origin>  (1) 
adg

>  <m_score__min__energy>  (1) 
-7.7999999999999998

>  <m_primary>  (1) 
energy

$$$$
1:0
     RDKit          3D

 57 60  0  0  0  0  0  0  0  0999 V2000
   56.5150   24.8260   44.7090 C   0  0  0  0  0  0  0  0  0  0  0  0
   55.6920   25.7810   45.9590 S   0  0  0  0  0  0  0  0  0  0  0  0
   56.2820   25.4460   47.2980 O   0  0  0  0  0  0  0  0  0  0  0  0
   54.2320   25.4430   45.9480 O   0  0  0  0  0  0  0  0  0  0  0  0
   55.9060   27.4660   45.6150 N   0  0  0  0  0  0  0  0  0  0  0  0
   57.1670   28.0980   45.3530 C   0  0  0  0  0  0  0  0  0  0  0  0
   58.2480   27.4030   44.7830 C   0  0  0  0  0  0  0  0  0  0  0  0
   59.4620   28.0580   44.5600 C   0  0  0  0  0  0  0  0  0  0  0  0
   59.6110   29.4060   44.9010 C   0  0  0  0  0  0  0  0  0  0  0  0
   58.5380   30.1130   45.4660 C   0  0  0  0  0  0  0  0  0  0  0  0
   58.7000   31.5320   45.8660 C   0  0  0  0  0  0  0  0  0  0  0  0
   59.3540   31.8480   47.0660 C   0  0  0  0  0  0  0  0  0  0  0  0
   59.4300   33.1750   47.5020 C   0  0  0  0  0  0  0  0  0  0  0  0
   60.0720   33.4750   48.7930 C   0  0  0  0  0  0  0  0  0  0  0  0
   61.0630   34.2510   48.8120 O   0  0  0  0  0  0  0  0  0  0  0  0
   59.6040   32.8630   50.0120 N   0  0  0  0  0  0  0  0  0  0  0  0
   58.8790   31.5850   49.9410 C   0  0  0  0  0  0  0  0  0  0  0  0
   58.7470   30.9330   51.3180 C   0  0  0  0  0  0  0  0  0  0  0  0
   58.2730   31.9240   52.2910 N   0  0  0  0  0  0  0  0  0  0  0  0
   57.3100   31.5630   53.2990 C   0  0  0  0  0  0  0  0  0  0  0  0
   57.4890   31.9380   54.4860 O   0  0  0  0  0  0  0  0  0  0  0  0
   56.1090   30.7630   52.9710 C   0  0  0  0  0  0  0  0  0  0  0  0
   55.1900   31.2170   52.0110 C   0  0  0  0  0  0  0  0  0  0  0  0
   54.0460   30.4640   51.7120 C   0  0  0  0  0  0  0  0  0  0  0  0
   53.8260   29.2470   52.3560 C   0  0  0  0  0  0  0  0  0  0  0  0
   54.7490   28.7750   53.2890 C   0  0  0  0  0  0  0  0  0  0  0  0
   55.8900   29.5250   53.5940 C   0  0  0  0  0  0  0  0  0  0  0  0
   58.9150   33.2470   52.3600 C   0  0  0  0  0  0  0  0  0  0  0  0
   60.0310   33.3980   51.3130 C   0  0  0  0  0  0  0  0  0  0  0  0
   58.8520   34.1900   46.7110 C   0  0  0  0  0  0  0  0  0  0  0  0
   58.8660   35.5300   47.1030 O   0  0  0  0  0  0  0  0  0  0  0  0
   58.2610   33.8650   45.5310 N   0  0  0  0  0  0  0  0  0  0  0  0
   58.1730   32.5850   45.0900 C   0  0  0  0  0  0  0  0  0  0  0  0
   57.6250   32.3550   43.9780 O   0  0  0  0  0  0  0  0  0  0  0  0
   57.3190   29.4480   45.6880 C   0  0  0  0  0  0  0  0  0  0  0  0
   57.1617   24.0756   45.1873 H   0  0  0  0  0  0  0  0  0  0  0  0
   55.7663   24.3190   44.0826 H   0  0  0  0  0  0  0  0  0  0  0  0
   57.1270   25.4917   44.0826 H   0  0  0  0  0  0  0  0  0  0  0  0
   58.1380   26.3425   44.5123 H   0  0  0  0  0  0  0  0  0  0  0  0
   60.3051   27.5103   44.1138 H   0  0  0  0  0  0  0  0  0  0  0  0
   60.5712   29.9134   44.7261 H   0  0  0  0  0  0  0  0  0  0  0  0
   59.8097   31.0478   47.6676 H   0  0  0  0  0  0  0  0  0  0  0  0
   57.8731   31.7677   49.5351 H   0  0  0  0  0  0  0  0  0  0  0  0
   59.4479   30.9033   49.2917 H   0  0  0  0  0  0  0  0  0  0  0  0
   58.0278   30.1026   51.2619 H   0  0  0  0  0  0  0  0  0  0  0  0
   59.7283   30.5509   51.6358 H   0  0  0  0  0  0  0  0  0  0  0  0
   55.3690   32.1694   51.4905 H   0  0  0  0  0  0  0  0  0  0  0  0
   53.3225   30.8329   50.9700 H   0  0  0  0  0  0  0  0  0  0  0  0
   52.9245   28.6592   52.1282 H   0  0  0  0  0  0  0  0  0  0  0  0
   54.5792   27.8091   53.7871 H   0  0  0  0  0  0  0  0  0  0  0  0
   56.6179   29.1428   54.3248 H   0  0  0  0  0  0  0  0  0  0  0  0
   58.1540   34.0213   52.1828 H   0  0  0  0  0  0  0  0  0  0  0  0
   59.3662   33.3554   53.3573 H   0  0  0  0  0  0  0  0  0  0  0  0
   60.2780   34.4640   51.2008 H   0  0  0  0  0  0  0  0  0  0  0  0
   60.9118   32.8339   51.6536 H   0  0  0  0  0  0  0  0  0  0  0  0
   59.4520   35.8740   47.8510 H   0  0  0  0  0  0  0  0  0  0  0  0
   56.4742   29.9961   46.1306 H   0  0  0  0  0  0  0  0  0  0  0  0
  1  2  1  0
  2  3  2  0
  2  4  2  0
  2  5  1  0
  5  6  1  0
  6  7  2  0
  7  8  1  0
  8  9  2  0
  9 10  1  0
 10 11  1  0
 11 12  2  0
 12 13  1  0
 13 14  1  0
 14 15  2  0
 14 16  1  0
 16 17  1  0
 17 18  1  0
 18 19  1  0
 19 20  1  0
 20 21  2  0
 20 22  1  0
 22 23  2  0
 23 24  1  0
 24 25  2  0
 25 26  1  0
 26 27  2  0
 19 28  1  0
 28 29  1  0
 13 30  2  0
 30 31  1  0
 30 32  1  0
 32 33  1  0
 33 34  2  0
 10 35  2  0
 35  6  1  0
 33 11  1  0
 29 16  1  0
 27 22  1  0
  1 36  1  0
  1 37  1  0
  1 38  1  0
  7 39  1  0
  8 40  1  0
  9 41  1  0
 12 42  1  0
 17 43  1  0
 17 44  1  0
 18 45  1  0
 18 46  1  0
 23 47  1  0
 24 48  1  0
 25 49  1  0
 26 50  1  0
 27 51  1  0
 28 52  1  0
 28 53  1  0
 29 54  1  0
 29 55  1  0
 31 56  1  0
 35 57  1  0
M  CHG  2   5  -1  32  -1
M  END
>  <UniqueID>  (2) 
1

>  <SMILES>  (2) 
CS(=O)(=O)[N-]c1cccc(-c2cc(C(=O)N3CCN(C(=O)c4ccccc4)CC3)c(O)[n-]c2=O)c1

>  <Energy>  (2) 
79.91027527937669

>  <Genealogy>  (2) 
CS(=O)(=O)[N-]c1cccc(-c2cc(C(=O)N3CCN(C(=O)c4ccccc4)CC3)c(O)[n-]c2=O)c1 (protonated)
CS(=O)(=O)[N-]c1cccc(-c2cc(C(=O)N3CCN(C(=O)c4ccccc4)CC3)c(O)[n-]c2=O)c1 (3D coordinates assigned)
CS(=O)(=O)[N-]c1cccc(-c2cc(C(=O)N3CCN(C(=O)c4ccccc4)CC3)c(O)[n-]c2=O)c1 (nonaromatic ring conformer: 79.91027527937669 kcal/mol)

>  <smiles>  (2) 
CS(=O)(=O)Nc1cccc(-c2cc(C(=O)N3CCN(C(=O)c4ccccc4)CC3)c(O)[nH]c2=O)c1

>  <score_type>  (2) 
oracle

>  <origin>  (2) 
adg

>  <m_score__min__energy>  (2) 
-12.41

>  <m_primary>  (2) 
energy

$$$$
2:0
     RDKit          3D

 40 42  0  0  0  0  0  0  0  0999 V2000
   60.4030   28.5920   44.8810 C   0  0  0  0  0  0  0  0  0  0  0  0
   59.3290   27.7870   45.5520 C   0  0  0  0  0  0  0  0  0  0  0  0
   59.5580   27.0270   46.7120 C   0  0  0  0  0  0  0  0  0  0  0  0
   58.4340   26.3400   47.1610 C   0  0  0  0  0  0  0  0  0  0  0  0
   57.1570   26.6710   46.1160 S   0  0  0  0  0  0  0  0  0  0  0  0
   58.0100   27.7020   45.0940 C   0  0  0  0  0  0  0  0  0  0  0  0
   57.4440   28.3210   43.8520 C   0  0  0  0  0  0  0  0  0  0  0  0
   57.0090   29.7270   44.1350 C   0  0  0  0  0  0  0  0  0  0  0  0
   56.0030   29.9240   44.8750 O   0  0  0  0  0  0  0  0  0  0  0  0
   57.7280   30.8390   43.5760 N   0  0  0  0  0  0  0  0  0  0  0  0
   57.3770   32.2180   43.9150 C   0  0  0  0  0  0  0  0  0  0  0  0
   58.5450   32.9290   44.6220 C   0  0  1  0  0  0  0  0  0  0  0  0
   58.3100   34.3260   44.5220 O   0  0  0  0  0  0  0  0  0  0  0  0
   59.2690   35.0540   45.2560 C   0  0  0  0  0  0  0  0  0  0  0  0
   58.9990   34.8850   46.7490 C   0  0  0  0  0  0  0  0  0  0  0  0
   58.9100   33.4220   47.0890 C   0  0  0  0  0  0  0  0  0  0  0  0
   59.0520   33.0070   48.4200 C   0  0  0  0  0  0  0  0  0  0  0  0
   59.0390   31.6510   48.7410 C   0  0  0  0  0  0  0  0  0  0  0  0
   58.8950   30.6990   47.7360 C   0  0  0  0  0  0  0  0  0  0  0  0
   58.7330   31.1010   46.4090 C   0  0  0  0  0  0  0  0  0  0  0  0
   58.6850   32.4690   46.0740 C   0  0  0  0  0  0  0  0  0  0  0  0
   61.0365   29.0668   45.6447 H   0  0  0  0  0  0  0  0  0  0  0  0
   61.0186   27.9310   44.2532 H   0  0  0  0  0  0  0  0  0  0  0  0
   59.9412   29.3683   44.2532 H   0  0  0  0  0  0  0  0  0  0  0  0
   60.5339   26.9797   47.2174 H   0  0  0  0  0  0  0  0  0  0  0  0
   58.3881   25.6911   48.0480 H   0  0  0  0  0  0  0  0  0  0  0  0
   58.2128   28.3285   43.0653 H   0  0  0  0  0  0  0  0  0  0  0  0
   56.5759   27.7337   43.5181 H   0  0  0  0  0  0  0  0  0  0  0  0
   58.5320   30.6500   42.9330 H   0  0  0  0  0  0  0  0  0  0  0  0
   57.1302   32.7632   42.9921 H   0  0  0  0  0  0  0  0  0  0  0  0
   56.5138   32.2015   44.5966 H   0  0  0  0  0  0  0  0  0  0  0  0
   59.5008   32.6752   44.1404 H   0  0  0  0  0  0  0  0  0  0  0  0
   60.2753   34.6775   45.0200 H   0  0  0  0  0  0  0  0  0  0  0  0
   59.2054   36.1192   44.9891 H   0  0  0  0  0  0  0  0  0  0  0  0
   59.8180   35.3439   47.3223 H   0  0  0  0  0  0  0  0  0  0  0  0
   58.0478   35.3753   47.0036 H   0  0  0  0  0  0  0  0  0  0  0  0
   59.1745   33.7561   49.2161 H   0  0  0  0  0  0  0  0  0  0  0  0
   59.1426   31.3330   49.7889 H   0  0  0  0  0  0  0  0  0  0  0  0
   58.9089   29.6283   47.9877 H   0  0  0  0  0  0  0  0  0  0  0  0
   58.6420   30.3427   45.6173 H   0  0  0  0  0  0  0  0  0  0  0  0
  1  2  1  0
  2  3  1  0
  3  4  2  0
  4  5  1  0
  5  6  1  0
  6  7  1  0
  7  8  1  0
  8  9  2  0
  8 10  1  0
 10 11  1  0
 11 12  1  0
 12 13  1  0
 13 14  1  0
 14 15  1  0
 15 16  1  0
 16 17  2  0
 17 18  1  0
 18 19  2  0
 19 20  1  0
 20 21  2  0
  6  2  2  0
 21 12  1  0
 21 16  1  0
  1 22  1  0
  1 23  1  0
  1 24  1  0
  3 25  1  0
  4 26  1  0
  7 27  1  0
  7 28  1  0
 10 29  1  0
 11 30  1  0
 11 31  1  0
 12 32  1  6
 14 33  1  0
 14 34  1  0
 15 35  1  0
 15 36  1  0
 17 37  1  0
 18 38  1  0
 19 39  1  0
 20 40  1  0
M  END
>  <UniqueID>  (3) 
2

>  <SMILES>  (3) 
Cc1ccsc1CC(=O)NC[C@H]1OCCc2ccccc21

>  <Energy>  (3) 
67.3247642781583

>  <Genealogy>  (3) 
Cc1ccsc1CC(=O)NC[C@H]1OCCc2ccccc21 (chirality)
Cc1ccsc1CC(=O)NC[C@H]1OCCc2ccccc21 (3D coordinates assigned)
Cc1ccsc1CC(=O)NC[C@H]1OCCc2ccccc21 (nonaromatic ring conformer: 67.3247642781583 kcal/mol)

>  <smiles>  (3) 
Cc1ccsc1CC(=O)NCC1OCCc2ccccc21

>  <score_type>  (3) 
oracle

>  <origin>  (3) 
adg

>  <m_score__min__energy>  (3) 
-7.8200000000000003

>  <m_primary>  (3) 
energy

$$$$
3:0
     RDKit          3D

 24 25  0  0  0  0  0  0  0  0999 V2000
   54.4220   31.7000   52.3710 O   0  0  0  0  0  0  0  0  0  0  0  0
   55.0430   30.6740   51.9810 C   0  0  0  0  0  0  0  0  0  0  0  0
   54.3320   29.4570   51.7130 N   0  0  0  0  0  0  0  0  0  0  0  0
   52.8910   29.3280   51.9230 C   0  0  0  0  0  0  0  0  0  0  0  0
   52.1440   30.2750   51.0170 C   0  0  0  0  0  0  0  0  0  0  0  0
   51.8500   29.8960   49.7010 C   0  0  0  0  0  0  0  0  0  0  0  0
   51.1640   30.7360   48.8840 N   0  0  0  0  0  0  0  0  0  0  0  0
   50.7510   31.9530   49.3220 C   0  0  0  0  0  0  0  0  0  0  0  0
   50.1180   32.7170   48.5490 O   0  0  0  0  0  0  0  0  0  0  0  0
   51.0200   32.3460   50.5940 N   0  0  0  0  0  0  0  0  0  0  0  0
   51.7020   31.5390   51.4490 C   0  0  0  0  0  0  0  0  0  0  0  0
   51.9310   31.9390   52.6220 O   0  0  0  0  0  0  0  0  0  0  0  0
   56.5020   30.7330   51.8020 C   0  0  0  0  0  0  0  0  0  0  0  0
   57.2780   31.8760   51.8430 C   0  0  0  0  0  0  0  0  0  0  0  0
   58.5740   31.4550   51.6270 C   0  0  0  0  0  0  0  0  0  0  0  0
   58.5020   30.0860   51.4690 C   0  0  0  0  0  0  0  0  0  0  0  0
   59.9800   28.9290   51.1400 Br  0  0  0  0  0  0  0  0  0  0  0  0
   57.2580   29.6830   51.5770 O   0  0  0  0  0  0  0  0  0  0  0  0
   54.8540   28.6290   51.3510 H   0  0  0  0  0  0  0  0  0  0  0  0
   52.5829   28.2954   51.7021 H   0  0  0  0  0  0  0  0  0  0  0  0
   52.6580   29.5746   52.9694 H   0  0  0  0  0  0  0  0  0  0  0  0
   52.1761   28.9140   49.3279 H   0  0  0  0  0  0  0  0  0  0  0  0
   56.9339   32.9069   52.0126 H   0  0  0  0  0  0  0  0  0  0  0  0
   59.4777   32.0810   51.5887 H   0  0  0  0  0  0  0  0  0  0  0  0
  1  2  2  0
  2  3  1  0
  3  4  1  0
  4  5  1  0
  5  6  2  0
  6  7  1  0
  7  8  1  0
  8  9  2  0
  8 10  1  0
 10 11  1  0
 11 12  2  0
  2 13  1  0
 13 14  2  0
 14 15  1  0
 15 16  2  0
 16 17  1  0
 16 18  1  0
 11  5  1  0
 18 13  1  0
  3 19  1  0
  4 20  1  0
  4 21  1  0
  6 22  1  0
 14 23  1  0
 15 24  1  0
M  CHG  2   7  -1  10  -1
M  END
>  <UniqueID>  (4) 
3

>  <SMILES>  (4) 
O=C(NCc1c[n-]c(=O)[n-]c1=O)c1ccc(Br)o1

>  <Energy>  (4) 
49.42414098144495

>  <Genealogy>  (4) 
O=C(NCc1c[n-]c(=O)[n-]c1=O)c1ccc(Br)o1 (protonated)
O=C(NCc1c[n-]c(=O)[n-]c1=O)c1ccc(Br)o1 (3D coordinates assigned)
O=C(NCc1c[n-]c(=O)[n-]c1=O)c1ccc(Br)o1 (optimized conformer: 49.42414098144495 kcal/mol)

>  <smiles>  (4) 
O=C(NCc1c[nH]c(=O)[nH]c1=O)c1ccc(Br)o1

>  <score_type>  (4) 
oracle

>  <origin>  (4) 
adg

>  <m_score__min__energy>  (4) 
-11.529999999999999

>  <m_primary>  (4) 
energy

$$$$
4:0
     RDKit          3D

 46 48  0  0  0  0  0  0  0  0999 V2000
   61.0910   32.8450   50.8990 C   0  0  0  0  0  0  0  0  0  0  0  0
   61.9260   33.0050   49.6570 C   0  0  0  0  0  0  0  0  0  0  0  0
   63.2530   32.5440   49.6790 C   0  0  0  0  0  0  0  0  0  0  0  0
   64.0930   32.7410   48.5810 C   0  0  0  0  0  0  0  0  0  0  0  0
   63.6200   33.4060   47.4510 C   0  0  0  0  0  0  0  0  0  0  0  0
   62.2980   33.8520   47.4040 C   0  0  0  0  0  0  0  0  0  0  0  0
   61.4270   33.6190   48.4780 C   0  0  0  0  0  0  0  0  0  0  0  0
   60.0690   34.0620   48.3520 N   0  0  0  0  0  0  0  0  0  0  0  0
   59.0150   33.3660   47.6720 C   0  0  0  0  0  0  0  0  0  0  0  0
   58.1800   32.7180   48.3540 O   0  0  0  0  0  0  0  0  0  0  0  0
   58.8660   33.4120   46.2010 C   0  0  0  0  0  0  0  0  0  0  0  0
   58.2770   32.4610   45.3790 C   0  0  0  0  0  0  0  0  0  0  0  0
   57.7990   31.1500   45.7150 N   0  0  0  0  0  0  0  0  0  0  0  0
   57.8450   30.0870   44.9620 C   0  0  0  0  0  0  0  0  0  0  0  0
   57.4190   28.7380   45.4000 C   0  0  0  0  0  0  0  0  0  0  0  0
   58.3440   27.8100   45.9040 C   0  0  0  0  0  0  0  0  0  0  0  0
   57.9200   26.5400   46.3210 C   0  0  0  0  0  0  0  0  0  0  0  0
   58.9040   25.5580   46.8940 C   0  0  0  0  0  0  0  0  0  0  0  0
   56.5610   26.2070   46.1920 C   0  0  0  0  0  0  0  0  0  0  0  0
   56.1400   25.0770   46.5550 O   0  0  0  0  0  0  0  0  0  0  0  0
   55.6880   27.1070   45.6670 N   0  0  0  0  0  0  0  0  0  0  0  0
   56.0780   28.3450   45.2660 C   0  0  0  0  0  0  0  0  0  0  0  0
   55.1340   29.2180   44.7390 O   0  0  0  0  0  0  0  0  0  0  0  0
   58.3050   33.0040   44.1110 C   0  0  0  0  0  0  0  0  0  0  0  0
   57.8700   32.3330   42.8520 C   0  0  0  0  0  0  0  0  0  0  0  0
   58.9280   34.1990   44.1530 N   0  0  0  0  0  0  0  0  0  0  0  0
   59.2550   34.4410   45.4150 N   0  0  0  0  0  0  0  0  0  0  0  0
   59.9370   35.6590   45.8410 C   0  0  0  0  0  0  0  0  0  0  0  0
   61.7281   32.9671   51.7874 H   0  0  0  0  0  0  0  0  0  0  0  0
   60.2983   33.6076   50.9087 H   0  0  0  0  0  0  0  0  0  0  0  0
   60.6364   31.8434   50.9087 H   0  0  0  0  0  0  0  0  0  0  0  0
   63.6339   32.0229   50.5697 H   0  0  0  0  0  0  0  0  0  0  0  0
   65.1286   32.3712   48.6079 H   0  0  0  0  0  0  0  0  0  0  0  0
   64.2891   33.5795   46.5953 H   0  0  0  0  0  0  0  0  0  0  0  0
   61.9362   34.3913   46.5162 H   0  0  0  0  0  0  0  0  0  0  0  0
   58.2245   30.1991   43.9356 H   0  0  0  0  0  0  0  0  0  0  0  0
   59.4080   28.0807   45.9722 H   0  0  0  0  0  0  0  0  0  0  0  0
   58.8642   25.5977   47.9926 H   0  0  0  0  0  0  0  0  0  0  0  0
   58.6494   24.5432   46.5543 H   0  0  0  0  0  0  0  0  0  0  0  0
   59.9183   25.8147   46.5543 H   0  0  0  0  0  0  0  0  0  0  0  0
   57.2868   31.4335   43.0985 H   0  0  0  0  0  0  0  0  0  0  0  0
   57.2475   33.0239   42.2645 H   0  0  0  0  0  0  0  0  0  0  0  0
   58.7548   32.0468   42.2645 H   0  0  0  0  0  0  0  0  0  0  0  0
   59.9604   35.7009   46.9400 H   0  0  0  0  0  0  0  0  0  0  0  0
   60.9659   35.6583   45.4521 H   0  0  0  0  0  0  0  0  0  0  0  0
   59.3986   36.5359   45.4521 H   0  0  0  0  0  0  0  0  0  0  0  0
  1  2  1  0
  2  3  2  0
  3  4  1  0
  4  5  2  0
  5  6  1  0
  6  7  2  0
  7  8  1  0
  8  9  1  0
  9 10  2  0
  9 11  1  0
 11 12  2  0
 12 13  1  0
 13 14  2  3
 14 15  1  0
 15 16  1  0
 16 17  2  0
 17 18  1  0
 17 19  1  0
 19 20  2  0
 19 21  1  0
 21 22  1  0
 22 23  1  0
 12 24  1  0
 24 25  1  0
 24 26  2  0
 26 27  1  0
 27 28  1  0
  7  2  1  0
 27 11  1  0
 22 15  2  0
  1 29  1  0
  1 30  1  0
  1 31  1  0
  3 32  1  0
  4 33  1  0
  5 34  1  0
  6 35  1  0
 14 36  1  0
 16 37  1  0
 18 38  1  0
 18 39  1  0
 18 40  1  0
 25 41  1  0
 25 42  1  0
 25 43  1  0
 28 44  1  0
 28 45  1  0
 28 46  1  0
M  CHG  3   8  -1  21  -1  23  -1
M  END
>  <UniqueID>  (5) 
4

>  <SMILES>  (5) 
Cc1ccccc1[N-]C(=O)c1c(N=Cc2cc(C)c(=O)[n-]c2[O-])c(C)nn1C

>  <Energy>  (5) 
97.70233067195899

>  <Genealogy>  (5) 
Cc1ccccc1[N-]C(=O)c1c(N=Cc2cc(C)c(=O)[n-]c2[O-])c(C)nn1C (protonated)
Cc1ccccc1[N-]C(=O)c1c(N=Cc2cc(C)c(=O)[n-]c2[O-])c(C)nn1C (3D coordinates assigned)
Cc1ccccc1[N-]C(=O)c1c(N=Cc2cc(C)c(=O)[n-]c2[O-])c(C)nn1C (optimized conformer: 97.70233067195899 kcal/mol)

>  <smiles>  (5) 
Cc1ccccc1NC(=O)c1c(N=Cc2cc(C)c(=O)[nH]c2O)c(C)nn1C

>  <score_type>  (5) 
oracle

>  <origin>  (5) 
adg

>  <m_score__min__energy>  (5) 
-15.65

>  <m_primary>  (5) 
energy

$$$$
5:0
     RDKit          3D

 48 50  0  0  0  0  0  0  0  0999 V2000
   60.0110   24.8460   45.9590 C   0  0  0  0  0  0  0  0  0  0  0  0
   59.1580   25.8850   45.9020 C   0  0  0  0  0  0  0  0  0  0  0  0
   59.5850   27.1000   46.4700 C   0  0  0  0  0  0  0  0  0  0  0  0
   58.8960   28.2870   46.2330 C   0  0  0  0  0  0  0  0  0  0  0  0
   57.7620   28.2960   45.4150 C   0  0  0  0  0  0  0  0  0  0  0  0
   57.0610   29.5650   45.1100 C   0  0  0  0  0  0  0  0  0  0  0  0
   55.8450   29.5320   44.7770 O   0  0  0  0  0  0  0  0  0  0  0  0
   57.7360   30.8360   45.1840 N   0  0  0  0  0  0  0  0  0  0  0  0
   57.5200   31.8550   44.1560 C   0  0  0  0  0  0  0  0  0  0  0  0
   57.2480   33.2290   44.7980 C   0  0  0  0  0  0  0  0  0  0  0  0
   58.1570   33.5510   45.9230 N   0  0  0  0  0  0  0  0  0  0  0  0
   59.4320   34.2250   45.5720 C   0  0  1  0  0  0  0  0  0  0  0  0
   59.4040   34.7620   44.2700 O   0  0  0  0  0  0  0  0  0  0  0  0
   59.8050   35.2430   46.6350 C   0  0  0  0  0  0  0  0  0  0  0  0
   60.0180   34.8660   48.0740 C   0  0  0  0  0  0  0  0  0  0  0  0
   59.9380   36.4130   46.3090 O   0  0  0  0  0  0  0  0  0  0  0  0
   58.2880   32.4610   46.9120 C   0  0  0  0  0  0  0  0  0  0  0  0
   58.6820   31.1380   46.2570 C   0  0  0  0  0  0  0  0  0  0  0  0
   57.2980   27.0880   44.8750 C   0  0  0  0  0  0  0  0  0  0  0  0
   57.9220   25.8560   45.1770 C   0  0  0  0  0  0  0  0  0  0  0  0
   57.2790   24.7300   44.7710 C   0  0  0  0  0  0  0  0  0  0  0  0
   55.8690   24.3910   45.0480 C   0  0  0  0  0  0  0  0  0  0  0  0
   55.3290   23.1700   44.8740 N   0  0  0  0  0  0  0  0  0  0  0  0
   54.0770   23.3100   45.3570 C   0  0  0  0  0  0  0  0  0  0  0  0
   53.2410   22.3690   45.3570 O   0  0  0  0  0  0  0  0  0  0  0  0
   53.7910   24.5350   45.8460 N   0  0  0  0  0  0  0  0  0  0  0  0
   54.9390   25.2060   45.6530 C   0  0  0  0  0  0  0  0  0  0  0  0
   55.1190   26.5360   46.0240 O   0  0  0  0  0  0  0  0  0  0  0  0
   59.7243   23.8748   45.5293 H   0  0  0  0  0  0  0  0  0  0  0  0
   60.9950   24.9678   46.4353 H   0  0  0  0  0  0  0  0  0  0  0  0
   60.4781   27.1123   47.1120 H   0  0  0  0  0  0  0  0  0  0  0  0
   59.2461   29.2232   46.6922 H   0  0  0  0  0  0  0  0  0  0  0  0
   58.4164   31.9239   43.5222 H   0  0  0  0  0  0  0  0  0  0  0  0
   56.6463   31.5681   43.5524 H   0  0  0  0  0  0  0  0  0  0  0  0
   57.3645   34.0028   44.0249 H   0  0  0  0  0  0  0  0  0  0  0  0
   56.2279   33.1960   45.2082 H   0  0  0  0  0  0  0  0  0  0  0  0
   60.2319   33.4701   45.5565 H   0  0  0  0  0  0  0  0  0  0  0  0
   59.6290   35.7250   44.3220 H   0  0  0  0  0  0  0  0  0  0  0  0
   59.5815   35.6387   48.7239 H   0  0  0  0  0  0  0  0  0  0  0  0
   59.5323   33.8999   48.2757 H   0  0  0  0  0  0  0  0  0  0  0  0
   61.0962   34.7835   48.2757 H   0  0  0  0  0  0  0  0  0  0  0  0
   59.0596   32.7378   47.6454 H   0  0  0  0  0  0  0  0  0  0  0  0
   57.3101   32.3224   47.3963 H   0  0  0  0  0  0  0  0  0  0  0  0
   59.6970   31.2206   45.8410 H   0  0  0  0  0  0  0  0  0  0  0  0
   58.6625   30.3328   47.0062 H   0  0  0  0  0  0  0  0  0  0  0  0
   56.4287   27.0993   44.2011 H   0  0  0  0  0  0  0  0  0  0  0  0
   57.8615   24.0056   44.1829 H   0  0  0  0  0  0  0  0  0  0  0  0
   54.3490   27.0980   46.3680 H   0  0  0  0  0  0  0  0  0  0  0  0
  1  2  2  0
  2  3  1  0
  3  4  2  0
  4  5  1  0
  5  6  1  0
  6  7  2  0
  6  8  1  0
  8  9  1  0
  9 10  1  0
 10 11  1  0
 11 12  1  0
 12 13  1  0
 12 14  1  0
 14 15  1  0
 14 16  2  0
 11 17  1  0
 17 18  1  0
  5 19  2  0
 19 20  1  0
 20 21  2  3
 21 22  1  0
 22 23  1  0
 23 24  1  0
 24 25  2  0
 24 26  1  0
 26 27  1  0
 27 28  1  0
 20  2  1  0
 27 22  2  0
 18  8  1  0
  1 29  1  0
  1 30  1  0
  3 31  1  0
  4 32  1  0
  9 33  1  0
  9 34  1  0
 10 35  1  0
 10 36  1  0
 12 37  1  6
 13 38  1  0
 15 39  1  0
 15 40  1  0
 15 41  1  0
 17 42  1  0
 17 43  1  0
 18 44  1  0
 18 45  1  0
 19 46  1  0
 21 47  1  0
 28 48  1  0
M  CHG  2  23  -1  26  -1
M  END
>  <UniqueID>  (6) 
5

>  <SMILES>  (6) 
C=c1ccc(C(=O)N2CCN([C@@H](O)C(C)=O)CC2)cc1=Cc1[n-]c(=O)[n-]c1O

>  <Energy>  (6) 
112.20703944543686

>  <Genealogy>  (6) 
C=c1ccc(C(=O)N2CCN(C(O)C(C)=O)CC2)cc1=Cc1[n-]c(=O)[n-]c1O (protonated)
C=c1ccc(C(=O)N2CCN([C@@H](O)C(C)=O)CC2)cc1=Cc1[n-]c(=O)[n-]c1O (chirality)
C=c1ccc(C(=O)N2CCN([C@@H](O)C(C)=O)CC2)cc1=Cc1[n-]c(=O)[n-]c1O (3D coordinates assigned)
C=c1ccc(C(=O)N2CCN([C@@H](O)C(C)=O)CC2)cc1=Cc1[n-]c(=O)[n-]c1O (nonaromatic ring conformer: 112.20703944543686 kcal/mol)

>  <smiles>  (6) 
C=c1ccc(C(=O)N2CCN(C(O)C(C)=O)CC2)cc1=Cc1[nH]c(=O)[nH]c1O

>  <score_type>  (6) 
oracle

>  <origin>  (6) 
adg

>  <m_score__min__energy>  (6) 
-12.9

>  <m_primary>  (6) 
energy

$$$$
6:0
     RDKit          3D

 35 37  0  0  0  0  0  0  0  0999 V2000
   55.7930   29.9020   44.0510 C   0  0  0  0  0  0  0  0  0  0  0  0
   56.5620   29.1330   44.8300 C   0  0  0  0  0  0  0  0  0  0  0  0
   56.1110   27.9680   45.3370 N   0  0  0  0  0  0  0  0  0  0  0  0
   57.1410   27.3700   45.9620 C   0  0  0  0  0  0  0  0  0  0  0  0
   57.0040   26.0730   46.7060 C   0  0  0  0  0  0  0  0  0  0  0  0
   56.1630   25.1140   45.9240 C   0  0  0  0  0  0  0  0  0  0  0  0
   56.5970   23.9280   45.4640 N   0  0  0  0  0  0  0  0  0  0  0  0
   55.4980   23.3990   44.8830 C   0  0  0  0  0  0  0  0  0  0  0  0
   55.5030   22.2720   44.3240 O   0  0  0  0  0  0  0  0  0  0  0  0
   54.3910   24.1700   44.9550 N   0  0  0  0  0  0  0  0  0  0  0  0
   54.8300   25.2510   45.6210 C   0  0  0  0  0  0  0  0  0  0  0  0
   54.0270   26.3350   45.9510 O   0  0  0  0  0  0  0  0  0  0  0  0
   58.2780   28.1610   45.8720 C   0  0  0  0  0  0  0  0  0  0  0  0
   59.6100   27.8890   46.5120 C   0  0  0  0  0  0  0  0  0  0  0  0
   57.9120   29.3150   45.1770 C   0  0  0  0  0  0  0  0  0  0  0  0
   58.7400   30.3590   44.9520 C   0  0  0  0  0  0  0  0  0  0  0  0
   58.8720   31.5480   45.8160 C   0  0  0  0  0  0  0  0  0  0  0  0
   59.9960   31.7030   46.6380 C   0  0  0  0  0  0  0  0  0  0  0  0
   61.0240   30.7650   46.6110 O   0  0  0  0  0  0  0  0  0  0  0  0
   60.0880   32.7800   47.4630 N   0  0  0  0  0  0  0  0  0  0  0  0
   59.0980   33.7070   47.5180 C   0  0  0  0  0  0  0  0  0  0  0  0
   59.2070   34.6980   48.2860 O   0  0  0  0  0  0  0  0  0  0  0  0
   57.9870   33.5640   46.7510 N   0  0  0  0  0  0  0  0  0  0  0  0
   57.8470   32.5060   45.9110 C   0  0  0  0  0  0  0  0  0  0  0  0
   56.7930   32.3930   45.2290 O   0  0  0  0  0  0  0  0  0  0  0  0
   56.1872   30.8479   43.6511 H   0  0  0  0  0  0  0  0  0  0  0  0
   54.7664   29.5885   43.8104 H   0  0  0  0  0  0  0  0  0  0  0  0
   55.1440   27.5820   45.2450 H   0  0  0  0  0  0  0  0  0  0  0  0
   58.0017   25.6370   46.8626 H   0  0  0  0  0  0  0  0  0  0  0  0
   56.5212   26.2651   47.6755 H   0  0  0  0  0  0  0  0  0  0  0  0
   59.5022   27.9110   47.6065 H   0  0  0  0  0  0  0  0  0  0  0  0
   59.9717   26.8985   46.1990 H   0  0  0  0  0  0  0  0  0  0  0  0
   60.3311   28.6584   46.1990 H   0  0  0  0  0  0  0  0  0  0  0  0
   59.3679   30.3192   44.0497 H   0  0  0  0  0  0  0  0  0  0  0  0
   61.9470   30.9940   46.9620 H   0  0  0  0  0  0  0  0  0  0  0  0
  1  2  2  0
  2  3  1  0
  3  4  1  0
  4  5  1  0
  5  6  1  0
  6  7  1  0
  7  8  1  0
  8  9  2  0
  8 10  1  0
 10 11  1  0
 11 12  1  0
  4 13  2  0
 13 14  1  0
 13 15  1  0
 15 16  2  3
 16 17  1  0
 17 18  2  0
 18 19  1  0
 18 20  1  0
 20 21  1  0
 21 22  2  0
 21 23  1  0
 23 24  1  0
 24 25  2  0
 15  2  1  0
 24 17  1  0
 11  6  2  0
  1 26  1  0
  1 27  1  0
  3 28  1  0
  5 29  1  0
  5 30  1  0
 14 31  1  0
 14 32  1  0
 14 33  1  0
 16 34  1  0
 19 35  1  0
M  CHG  5   7  -1  10  -1  12  -1  20  -1  23  -1
M  END
>  <UniqueID>  (7) 
6

>  <SMILES>  (7) 
C=c1[nH]c(Cc2[n-]c(=O)[n-]c2[O-])c(C)c1=Cc1c(O)[n-]c(=O)[n-]c1=O

>  <Energy>  (7) 
105.71122494447674

>  <Genealogy>  (7) 
C=c1[nH]c(Cc2[n-]c(=O)[n-]c2[O-])c(C)c1=Cc1c(O)[n-]c(=O)[n-]c1=O (protonated)
C=c1[nH]c(Cc2[n-]c(=O)[n-]c2[O-])c(C)c1=Cc1c(O)[n-]c(=O)[n-]c1=O (3D coordinates assigned)
C=c1[nH]c(Cc2[n-]c(=O)[n-]c2[O-])c(C)c1=Cc1c(O)[n-]c(=O)[n-]c1=O (optimized conformer: 105.71122494447674 kcal/mol)

>  <smiles>  (7) 
C=c1[nH]c(Cc2[nH]c(=O)[nH]c2O)c(C)c1=Cc1c(O)[nH]c(=O)[nH]c1=O

>  <score_type>  (7) 
oracle

>  <origin>  (7) 
adg

>  <m_score__min__energy>  (7) 
-16.920000000000002

>  <m_primary>  (7) 
energy

$$$$
7:0
     RDKit          3D

 41 43  0  0  0  0  0  0  0  0999 V2000
   60.8040   30.2200   46.5980 C   0  0  0  0  0  0  0  0  0  0  0  0
   59.6940   30.2510   45.8570 C   0  0  0  0  0  0  0  0  0  0  0  0
   59.3480   29.1140   44.9380 C   0  0  0  0  0  0  0  0  0  0  0  0
   57.8960   28.7400   45.0710 C   0  0  0  0  0  0  0  0  0  0  0  0
   56.7830   29.4980   44.7030 C   0  0  0  0  0  0  0  0  0  0  0  0
   56.7790   30.8400   44.0910 C   0  0  0  0  0  0  0  0  0  0  0  0
   56.9930   30.9860   42.8580 O   0  0  0  0  0  0  0  0  0  0  0  0
   56.5430   31.9840   44.9180 N   0  0  0  0  0  0  0  0  0  0  0  0
   57.2520   33.2490   44.7650 C   0  0  0  0  0  0  0  0  0  0  0  0
   58.2410   33.4340   45.8850 C   0  0  0  0  0  0  0  0  0  0  0  0
   58.0230   32.8230   47.1320 C   0  0  0  0  0  0  0  0  0  0  0  0
   58.9530   32.9780   48.1640 C   0  0  0  0  0  0  0  0  0  0  0  0
   60.1080   33.7400   47.9610 C   0  0  0  0  0  0  0  0  0  0  0  0
   61.3750   33.9480   49.3740 Br  0  0  0  0  0  0  0  0  0  0  0  0
   60.3340   34.3460   46.7210 C   0  0  0  0  0  0  0  0  0  0  0  0
   59.4080   34.1930   45.6850 C   0  0  0  0  0  0  0  0  0  0  0  0
   59.6500   34.7830   44.4850 F   0  0  0  0  0  0  0  0  0  0  0  0
   55.6400   28.8410   44.9930 N   0  0  0  0  0  0  0  0  0  0  0  0
   56.0230   27.6820   45.5550 C   0  0  0  0  0  0  0  0  0  0  0  0
   55.1250   26.7150   45.9880 O   0  0  0  0  0  0  0  0  0  0  0  0
   57.3950   27.5820   45.6440 C   0  0  0  0  0  0  0  0  0  0  0  0
   58.1650   26.4110   46.1830 C   0  0  0  0  0  0  0  0  0  0  0  0
   59.0850   26.8580   47.2760 C   0  0  0  0  0  0  0  0  0  0  0  0
   58.8750   27.9060   48.1390 C   0  0  0  0  0  0  0  0  0  0  0  0
   59.9430   28.0230   48.9470 N   0  0  0  0  0  0  0  0  0  0  0  0
   60.7740   27.0390   48.5410 C   0  0  0  0  0  0  0  0  0  0  0  0
   60.2870   26.3070   47.5170 N   0  0  0  0  0  0  0  0  0  0  0  0
   61.0430   31.0606   47.2660 H   0  0  0  0  0  0  0  0  0  0  0  0
   61.4796   29.3538   46.5406 H   0  0  0  0  0  0  0  0  0  0  0  0
   59.0236   31.1208   45.9202 H   0  0  0  0  0  0  0  0  0  0  0  0
   59.5486   29.4162   43.8995 H   0  0  0  0  0  0  0  0  0  0  0  0
   59.9621   28.2427   45.2095 H   0  0  0  0  0  0  0  0  0  0  0  0
   57.7877   33.2506   43.8042 H   0  0  0  0  0  0  0  0  0  0  0  0
   56.5233   34.0725   44.7922 H   0  0  0  0  0  0  0  0  0  0  0  0
   57.1173   32.2207   47.2963 H   0  0  0  0  0  0  0  0  0  0  0  0
   58.7759   32.4993   49.1384 H   0  0  0  0  0  0  0  0  0  0  0  0
   61.2428   34.9446   46.5605 H   0  0  0  0  0  0  0  0  0  0  0  0
   57.4613   25.6657   46.5821 H   0  0  0  0  0  0  0  0  0  0  0  0
   58.7601   25.9675   45.3711 H   0  0  0  0  0  0  0  0  0  0  0  0
   57.9798   28.5447   48.1647 H   0  0  0  0  0  0  0  0  0  0  0  0
   61.7553   26.8517   49.0015 H   0  0  0  0  0  0  0  0  0  0  0  0
  1  2  2  0
  2  3  1  0
  3  4  1  0
  4  5  2  0
  5  6  1  0
  6  7  2  0
  6  8  1  0
  8  9  1  0
  9 10  1  0
 10 11  2  0
 11 12  1  0
 12 13  2  0
 13 14  1  0
 13 15  1  0
 15 16  2  0
 16 17  1  0
  5 18  1  0
 18 19  1  0
 19 20  1  0
 19 21  2  0
 21 22  1  0
 22 23  1  0
 23 24  2  0
 24 25  1  0
 25 26  1  0
 26 27  2  0
 21  4  1  0
 27 23  1  0
 16 10  1  0
  1 28  1  0
  1 29  1  0
  2 30  1  0
  3 31  1  0
  3 32  1  0
  9 33  1  0
  9 34  1  0
 11 35  1  0
 12 36  1  0
 15 37  1  0
 22 38  1  0
 22 39  1  0
 24 40  1  0
 26 41  1  0
M  CHG  4   8  -1  18  -1  20  -1  25  -1
M  END
>  <UniqueID>  (8) 
7

>  <SMILES>  (8) 
C=CCc1c(C(=O)[N-]Cc2ccc(Br)cc2F)[n-]c([O-])c1Cc1c[n-]cn1

>  <Energy>  (8) 
88.90420506545674

>  <Genealogy>  (8) 
C=CCc1c(C(=O)[N-]Cc2ccc(Br)cc2F)[n-]c([O-])c1Cc1c[n-]cn1 (protonated)
C=CCc1c(C(=O)[N-]Cc2ccc(Br)cc2F)[n-]c([O-])c1Cc1c[n-]cn1 (3D coordinates assigned)
C=CCc1c(C(=O)[N-]Cc2ccc(Br)cc2F)[n-]c([O-])c1Cc1c[n-]cn1 (optimized conformer: 88.90420506545674 kcal/mol)

>  <smiles>  (8) 
C=CCc1c(C(=O)NCc2ccc(Br)cc2F)[nH]c(O)c1Cc1c[nH]cn1

>  <score_type>  (8) 
oracle

>  <origin>  (8) 
adg

>  <m_score__min__energy>  (8) 
-16.100000000000001

>  <m_primary>  (8) 
energy

$$$$
8:0
     RDKit          3D

 33 35  0  0  1  0  0  0  0  0999 V2000
   61.7080   32.0680   47.4750 C   0  0  0  0  0  0  0  0  0  0  0  0
   61.4300   30.8470   48.2760 C   0  0  0  0  0  0  0  0  0  0  0  0
   60.2310   30.1810   47.7690 C   0  0  0  0  0  0  0  0  0  0  0  0
   59.1850   30.4230   47.0830 N   0  0  0  0  0  0  0  0  0  0  0  0
   58.2820   29.5370   46.8180 N   0  0  0  0  0  0  0  0  0  0  0  0
   58.4110   28.3190   47.2590 C   0  0  0  0  0  0  0  0  0  0  0  0
   57.7230   27.2780   47.1580 N   0  0  0  0  0  0  0  0  0  0  0  0
   57.1510   26.9010   45.9050 C   0  0  0  0  0  0  0  0  0  0  0  0
   55.9220   26.6870   45.7690 O   0  0  0  0  0  0  0  0  0  0  0  0
   58.0910   26.7710   44.7620 C   0  0  0  0  0  0  0  0  0  0  0  0
   57.7900   27.9380   43.4420 S   0  0  0  0  0  0  0  0  0  0  0  0
   57.3280   29.5160   44.0900 C   0  0  0  0  0  0  0  0  0  0  0  0
   56.1570   30.0310   44.4540 N   0  0  0  0  0  0  0  0  0  0  0  0
   56.3280   31.2530   44.8720 N   0  0  0  0  0  0  0  0  0  0  0  0
   57.6440   31.5490   44.7790 C   0  0  0  0  0  0  0  0  0  0  0  0
   58.2330   32.8010   45.1430 C   0  0  0  0  0  0  0  0  0  0  0  0
   58.8770   33.7780   44.4770 C   0  0  0  0  0  0  0  0  0  0  0  0
   59.3040   34.8610   45.1290 C   0  0  0  0  0  0  0  0  0  0  0  0
   59.0490   34.9130   46.4930 C   0  0  0  0  0  0  0  0  0  0  0  0
   58.1780   33.3840   46.8770 S   0  0  0  0  0  0  0  0  0  0  0  0
   58.2140   30.4760   44.3050 O   0  0  0  0  0  0  0  0  0  0  0  0
   60.0270   28.4060   48.1810 S   0  0  0  0  0  0  0  0  0  0  0  0
   61.9006   32.9141   48.1511 H   0  0  0  0  0  0  0  0  0  0  0  0
   62.5903   31.8973   46.8406 H   0  0  0  0  0  0  0  0  0  0  0  0
   60.8388   32.2961   46.8406 H   0  0  0  0  0  0  0  0  0  0  0  0
   62.2865   30.1606   48.2037 H   0  0  0  0  0  0  0  0  0  0  0  0
   61.2691   31.1319   49.3262 H   0  0  0  0  0  0  0  0  0  0  0  0
   57.4120   29.8220   46.2240 H   0  0  0  0  0  0  0  0  0  0  0  0
   59.1140   26.9263   45.1353 H   0  0  0  0  0  0  0  0  0  0  0  0
   57.9441   25.7659   44.3399 H   0  0  0  0  0  0  0  0  0  0  0  0
   59.0512   33.6833   43.3950 H   0  0  0  0  0  0  0  0  0  0  0  0
   59.8330   35.6742   44.6105 H   0  0  0  0  0  0  0  0  0  0  0  0
   59.3214   35.7180   47.1914 H   0  0  0  0  0  0  0  0  0  0  0  0
  1  2  1  0
  2  3  1  0
  3  4  2  0
  4  5  1  0
  5  6  1  0
  6  7  2  0
  7  8  1  0
  8  9  2  0
  8 10  1  0
 10 11  1  0
 11 12  1  0
 12 13  2  0
 13 14  1  0
 14 15  2  0
 15 16  1  0
 16 17  2  0
 17 18  1  0
 18 19  2  0
 19 20  1  0
 15 21  1  0
  6 22  1  0
 22  3  1  0
 21 12  1  0
 20 16  1  0
  1 23  1  0
  1 24  1  0
  1 25  1  0
  2 26  1  0
  2 27  1  0
  5 28  1  0
 10 29  1  0
 10 30  1  0
 17 31  1  0
 18 32  1  0
 19 33  1  0
M  END
>  <smiles>  (9) 
CCc1n[nH]c(=NC(=O)CSc2nnc(-c3cccs3)o2)s1

>  <score_type>  (9) 
oracle

>  <origin>  (9) 
adg

>  <m_score__min__energy>  (9) 
-8.2699999999999996

>  <m_primary>  (9) 
energy

$$$$
9:0
     RDKit          3D

 59 62  0  0  0  0  0  0  0  0999 V2000
   58.5180   33.9270   44.1300 O   0  0  0  0  0  0  0  0  0  0  0  0
   58.2080   33.1820   45.0990 C   0  0  0  0  0  0  0  0  0  0  0  0
   58.0190   33.8150   46.4470 C   0  0  0  0  0  0  0  0  0  0  0  0
   57.6470   32.7870   47.4160 N   0  0  0  0  0  0  0  0  0  0  0  0
   58.8420   32.6880   48.6730 S   0  0  0  0  0  0  0  0  0  0  0  0
   58.2120   32.2400   49.9630 O   0  0  0  0  0  0  0  0  0  0  0  0
   59.4510   34.0480   48.8750 O   0  0  0  0  0  0  0  0  0  0  0  0
   60.1260   31.5360   48.2090 C   0  0  0  0  0  0  0  0  0  0  0  0
   61.3830   32.2750   47.8400 C   0  0  0  0  0  0  0  0  0  0  0  0
   61.3800   33.1900   46.7740 C   0  0  0  0  0  0  0  0  0  0  0  0
   62.5570   33.8550   46.4130 C   0  0  0  0  0  0  0  0  0  0  0  0
   63.7420   33.6100   47.1120 C   0  0  0  0  0  0  0  0  0  0  0  0
   63.7540   32.6960   48.1680 C   0  0  0  0  0  0  0  0  0  0  0  0
   62.5820   32.0250   48.5290 C   0  0  0  0  0  0  0  0  0  0  0  0
   58.0210   31.7210   44.8710 C   0  0  0  0  0  0  0  0  0  0  0  0
   56.8510   31.2520   44.2450 C   0  0  0  0  0  0  0  0  0  0  0  0
   56.6470   29.8840   44.0440 C   0  0  0  0  0  0  0  0  0  0  0  0
   57.6140   28.9530   44.4570 C   0  0  0  0  0  0  0  0  0  0  0  0
   57.4020   27.5380   44.3130 N   0  0  0  0  0  0  0  0  0  0  0  0
   57.5780   26.5870   45.3730 C   0  0  0  0  0  0  0  0  0  0  0  0
   57.5510   26.9600   46.5770 O   0  0  0  0  0  0  0  0  0  0  0  0
   57.7600   25.1630   45.0570 C   0  0  0  0  0  0  0  0  0  0  0  0
   58.7050   24.3200   45.6110 C   0  0  0  0  0  0  0  0  0  0  0  0
   58.5130   23.0940   45.0080 C   0  0  0  0  0  0  0  0  0  0  0  0
   57.4700   23.2730   44.1200 C   0  0  0  0  0  0  0  0  0  0  0  0
   56.8880   22.2190   43.2370 C   0  0  0  0  0  0  0  0  0  0  0  0
   55.9240   21.4670   43.9690 O   0  0  0  0  0  0  0  0  0  0  0  0
   55.7000   21.5480   45.3550 C   0  0  0  0  0  0  0  0  0  0  0  0
   56.6010   20.8770   46.1970 C   0  0  0  0  0  0  0  0  0  0  0  0
   57.6320   20.1730   45.6610 F   0  0  0  0  0  0  0  0  0  0  0  0
   56.4460   20.9220   47.5860 C   0  0  0  0  0  0  0  0  0  0  0  0
   57.3270   20.2750   48.3870 F   0  0  0  0  0  0  0  0  0  0  0  0
   55.3860   21.6370   48.1500 C   0  0  0  0  0  0  0  0  0  0  0  0
   55.2330   21.6740   49.4960 F   0  0  0  0  0  0  0  0  0  0  0  0
   54.4750   22.3020   47.3230 C   0  0  0  0  0  0  0  0  0  0  0  0
   53.4370   22.9790   47.8740 F   0  0  0  0  0  0  0  0  0  0  0  0
   54.6240   22.2650   45.9320 C   0  0  0  0  0  0  0  0  0  0  0  0
   53.7160   22.9210   45.1700 F   0  0  0  0  0  0  0  0  0  0  0  0
   57.0360   24.5110   44.1770 O   0  0  0  0  0  0  0  0  0  0  0  0
   58.7750   29.4140   45.0900 C   0  0  0  0  0  0  0  0  0  0  0  0
   58.9840   30.7810   45.2880 C   0  0  0  0  0  0  0  0  0  0  0  0
   58.9573   34.2947   46.7624 H   0  0  0  0  0  0  0  0  0  0  0  0
   57.2232   34.5723   46.3898 H   0  0  0  0  0  0  0  0  0  0  0  0
   60.3348   30.8653   49.0555 H   0  0  0  0  0  0  0  0  0  0  0  0
   59.7862   30.9527   47.3405 H   0  0  0  0  0  0  0  0  0  0  0  0
   60.4491   33.3843   46.2212 H   0  0  0  0  0  0  0  0  0  0  0  0
   62.5495   34.5713   45.5782 H   0  0  0  0  0  0  0  0  0  0  0  0
   64.6655   34.1371   46.8305 H   0  0  0  0  0  0  0  0  0  0  0  0
   64.6877   32.5037   48.7168 H   0  0  0  0  0  0  0  0  0  0  0  0
   62.5983   31.2989   49.3551 H   0  0  0  0  0  0  0  0  0  0  0  0
   56.0883   31.9704   43.9100 H   0  0  0  0  0  0  0  0  0  0  0  0
   55.7235   29.5344   43.5594 H   0  0  0  0  0  0  0  0  0  0  0  0
   57.0550   27.1860   43.3910 H   0  0  0  0  0  0  0  0  0  0  0  0
   59.4549   24.5740   46.3746 H   0  0  0  0  0  0  0  0  0  0  0  0
   59.0740   22.1665   45.1954 H   0  0  0  0  0  0  0  0  0  0  0  0
   56.4031   22.6927   42.3707 H   0  0  0  0  0  0  0  0  0  0  0  0
   57.6880   21.5496   42.8878 H   0  0  0  0  0  0  0  0  0  0  0  0
   59.5301   28.6923   45.4348 H   0  0  0  0  0  0  0  0  0  0  0  0
   59.9085   31.1265   45.7737 H   0  0  0  0  0  0  0  0  0  0  0  0
  1  2  2  0
  2  3  1  0
  3  4  1  0
  4  5  1  0
  5  6  2  0
  5  7  2  0
  5  8  1  0
  8  9  1  0
  9 10  2  0
 10 11  1  0
 11 12  2  0
 12 13  1  0
 13 14  2  0
  2 15  1  0
 15 16  2  0
 16 17  1  0
 17 18  2  0
 18 19  1  0
 19 20  1  0
 20 21  2  0
 20 22  1  0
 22 23  2  0
 23 24  1  0
 24 25  2  0
 25 26  1  0
 26 27  1  0
 27 28  1  0
 28 29  2  0
 29 30  1  0
 29 31  1  0
 31 32  1  0
 31 33  2  0
 33 34  1  0
 33 35  1  0
 35 36  1  0
 35 37  2  0
 37 38  1  0
 25 39  1  0
 18 40  1  0
 40 41  2  0
 14  9  1  0
 41 15  1  0
 39 22  1  0
 37 28  1  0
  3 42  1  0
  3 43  1  0
  8 44  1  0
  8 45  1  0
 10 46  1  0
 11 47  1  0
 12 48  1  0
 13 49  1  0
 14 50  1  0
 16 51  1  0
 17 52  1  0
 19 53  1  0
 23 54  1  0
 24 55  1  0
 26 56  1  0
 26 57  1  0
 40 58  1  0
 41 59  1  0
M  CHG  1   4  -1
M  END
>  <UniqueID>  (10) 
8

>  <SMILES>  (10) 
O=C(C[N-]S(=O)(=O)Cc1ccccc1)c1ccc(NC(=O)c2ccc(COc3c(F)c(F)c(F)c(F)c3F)o2)cc1

>  <Energy>  (10) 
87.07641344641044

>  <Genealogy>  (10) 
O=C(C[N-]S(=O)(=O)Cc1ccccc1)c1ccc(NC(=O)c2ccc(COc3c(F)c(F)c(F)c(F)c3F)o2)cc1 (protonated)
O=C(C[N-]S(=O)(=O)Cc1ccccc1)c1ccc(NC(=O)c2ccc(COc3c(F)c(F)c(F)c(F)c3F)o2)cc1 (3D coordinates assigned)
O=C(C[N-]S(=O)(=O)Cc1ccccc1)c1ccc(NC(=O)c2ccc(COc3c(F)c(F)c(F)c(F)c3F)o2)cc1 (optimized conformer: 87.07641344641044 kcal/mol)

>  <smiles>  (10) 
O=C(CNS(=O)(=O)Cc1ccccc1)c1ccc(NC(=O)c2ccc(COc3c(F)c(F)c(F)c(F)c3F)o2)cc1

>  <score_type>  (10) 
oracle

>  <origin>  (10) 
adg

>  <m_score__min__energy>  (10) 
-10.789999999999999

>  <m_primary>  (10) 
energy

$$$$
10:0
     RDKit          3D

 54 57  0  0  0  0  0  0  0  0999 V2000
   54.9970   29.3090   44.3890 O   0  0  0  0  0  0  0  0  0  0  0  0
   55.9230   29.0380   45.1940 C   0  0  0  0  0  0  0  0  0  0  0  0
   56.1100   27.6800   45.6090 N   0  0  0  0  0  0  0  0  0  0  0  0
   57.2840   26.8760   45.2850 C   0  0  0  0  0  0  0  0  0  0  0  0
   58.2130   27.6730   44.3740 C   0  0  0  0  0  0  0  0  0  0  0  0
   59.3090   28.3130   45.1710 C   0  0  0  0  0  0  0  0  0  0  0  0
   60.5030   28.1960   44.7820 O   0  0  0  0  0  0  0  0  0  0  0  0
   59.0040   28.9690   46.4120 N   0  0  0  0  0  0  0  0  0  0  0  0
   59.9470   29.7530   47.1620 C   0  0  0  0  0  0  0  0  0  0  0  0
   59.8780   29.7550   48.5630 C   0  0  0  0  0  0  0  0  0  0  0  0
   60.7690   30.5260   49.3160 C   0  0  0  0  0  0  0  0  0  0  0  0
   61.7300   31.3240   48.6780 C   0  0  0  0  0  0  0  0  0  0  0  0
   62.6480   32.1120   49.4560 N   0  0  0  0  0  0  0  0  0  0  0  0
   64.0880   31.9960   49.1920 C   0  0  0  0  0  0  0  0  0  0  0  0
   64.9030   32.7050   50.2770 C   0  0  0  0  0  0  0  0  0  0  0  0
   64.4180   34.0190   50.4700 O   0  0  0  0  0  0  0  0  0  0  0  0
   63.1560   33.9760   51.1110 C   0  0  0  0  0  0  0  0  0  0  0  0
   62.1710   33.1450   50.3390 C   0  0  0  0  0  0  0  0  0  0  0  0
   60.9350   33.3050   50.5350 O   0  0  0  0  0  0  0  0  0  0  0  0
   61.7880   31.3380   47.2750 C   0  0  0  0  0  0  0  0  0  0  0  0
   60.8990   30.5670   46.5220 C   0  0  0  0  0  0  0  0  0  0  0  0
   56.8120   30.0800   45.6130 N   0  0  0  0  0  0  0  0  0  0  0  0
   57.3430   31.1060   44.7610 C   0  0  0  0  0  0  0  0  0  0  0  0
   57.2630   30.9790   43.3630 C   0  0  0  0  0  0  0  0  0  0  0  0
   57.7990   31.9610   42.5280 C   0  0  0  0  0  0  0  0  0  0  0  0
   58.4350   33.0760   43.0730 C   0  0  0  0  0  0  0  0  0  0  0  0
   58.5460   33.2160   44.4630 C   0  0  0  0  0  0  0  0  0  0  0  0
   59.1900   34.3360   45.0120 C   0  0  0  0  0  0  0  0  0  0  0  0
   59.2970   34.4770   46.3970 C   0  0  0  0  0  0  0  0  0  0  0  0
   58.7620   33.5060   47.2450 C   0  0  0  0  0  0  0  0  0  0  0  0
   58.8680   33.6570   48.6230 O   0  0  0  0  0  0  0  0  0  0  0  0
   58.1180   32.3840   46.7140 C   0  0  0  0  0  0  0  0  0  0  0  0
   58.0020   32.2230   45.3200 C   0  0  0  0  0  0  0  0  0  0  0  0
   57.8157   26.6141   46.2116 H   0  0  0  0  0  0  0  0  0  0  0  0
   56.9673   25.9567   44.7706 H   0  0  0  0  0  0  0  0  0  0  0  0
   58.6557   26.9968   43.6278 H   0  0  0  0  0  0  0  0  0  0  0  0
   57.6305   28.4609   43.8741 H   0  0  0  0  0  0  0  0  0  0  0  0
   58.0650   28.7930   46.8350 H   0  0  0  0  0  0  0  0  0  0  0  0
   59.1174   29.1456   49.0730 H   0  0  0  0  0  0  0  0  0  0  0  0
   60.7160   30.5066   50.4146 H   0  0  0  0  0  0  0  0  0  0  0  0
   64.3654   30.9318   49.1713 H   0  0  0  0  0  0  0  0  0  0  0  0
   64.3063   32.4698   48.2236 H   0  0  0  0  0  0  0  0  0  0  0  0
   64.8189   32.1443   51.2196 H   0  0  0  0  0  0  0  0  0  0  0  0
   65.9558   32.7531   49.9620 H   0  0  0  0  0  0  0  0  0  0  0  0
   63.2799   33.5422   52.1142 H   0  0  0  0  0  0  0  0  0  0  0  0
   62.7662   35.0028   51.1720 H   0  0  0  0  0  0  0  0  0  0  0  0
   62.5385   31.9602   46.7654 H   0  0  0  0  0  0  0  0  0  0  0  0
   60.9437   30.5967   45.4233 H   0  0  0  0  0  0  0  0  0  0  0  0
   56.7735   30.0976   42.9231 H   0  0  0  0  0  0  0  0  0  0  0  0
   57.7194   31.8549   41.4360 H   0  0  0  0  0  0  0  0  0  0  0  0
   58.8511   33.8484   42.4095 H   0  0  0  0  0  0  0  0  0  0  0  0
   59.6119   35.1054   44.3486 H   0  0  0  0  0  0  0  0  0  0  0  0
   59.8045   35.3560   46.8211 H   0  0  0  0  0  0  0  0  0  0  0  0
   57.6997   31.6229   47.3891 H   0  0  0  0  0  0  0  0  0  0  0  0
  1  2  2  0
  2  3  1  0
  3  4  1  0
  4  5  1  0
  5  6  1  0
  6  7  2  0
  6  8  1  0
  8  9  1  0
  9 10  2  0
 10 11  1  0
 11 12  2  0
 12 13  1  0
 13 14  1  0
 14 15  1  0
 15 16  1  0
 16 17  1  0
 17 18  1  0
 18 19  2  0
 12 20  1  0
 20 21  2  0
  2 22  1  0
 22 23  1  0
 23 24  2  0
 24 25  1  0
 25 26  2  0
 26 27  1  0
 27 28  2  0
 28 29  1  0
 29 30  2  0
 30 31  1  0
 30 32  1  0
 32 33  2  0
 21  9  1  0
 33 23  1  0
 18 13  1  0
 33 27  1  0
  4 34  1  0
  4 35  1  0
  5 36  1  0
  5 37  1  0
  8 38  1  0
 10 39  1  0
 11 40  1  0
 14 41  1  0
 14 42  1  0
 15 43  1  0
 15 44  1  0
 17 45  1  0
 17 46  1  0
 20 47  1  0
 21 48  1  0
 24 49  1  0
 25 50  1  0
 26 51  1  0
 28 52  1  0
 29 53  1  0
 32 54  1  0
M  CHG  3   3  -1  22  -1  31  -1
M  END
>  <UniqueID>  (11) 
9

>  <SMILES>  (11) 
O=C([N-]CCC(=O)Nc1ccc(N2CCOCC2=O)cc1)[N-]c1cccc2ccc([O-])cc12

>  <Energy>  (11) 
74.75987421978105

>  <Genealogy>  (11) 
O=C([N-]CCC(=O)Nc1ccc(N2CCOCC2=O)cc1)[N-]c1cccc2ccc([O-])cc12 (protonated)
O=C([N-]CCC(=O)Nc1ccc(N2CCOCC2=O)cc1)[N-]c1cccc2ccc([O-])cc12 (3D coordinates assigned)
O=C([N-]CCC(=O)Nc1ccc(N2CCOCC2=O)cc1)[N-]c1cccc2ccc([O-])cc12 (nonaromatic ring conformer: 74.75987421978105 kcal/mol)

>  <smiles>  (11) 
O=C(CCNC(=O)Nc1cccc2ccc(O)cc12)Nc1ccc(N2CCOCC2=O)cc1

>  <score_type>  (11) 
oracle

>  <origin>  (11) 
adg

>  <m_score__min__energy>  (11) 
-14.42

>  <m_primary>  (11) 
energy

$$$$
11:0
     RDKit          3D

 60 63  0  0  0  0  0  0  0  0999 V2000
   62.4640   31.6330   47.1210 C   0  0  0  0  0  0  0  0  0  0  0  0
   63.0080   33.0300   47.1310 C   0  0  0  0  0  0  0  0  0  0  0  0
   62.6040   33.8310   46.2930 O   0  0  0  0  0  0  0  0  0  0  0  0
   64.0130   33.4790   48.1710 C   0  0  0  0  0  0  0  0  0  0  0  0
   63.4060   33.8000   49.4850 N   0  0  0  0  0  0  0  0  0  0  0  0
   61.9800   34.2130   49.4230 C   0  0  0  0  0  0  0  0  0  0  0  0
   61.0450   33.2210   50.1230 C   0  0  0  0  0  0  0  0  0  0  0  0
   61.5750   31.8630   49.9320 N   0  0  0  0  0  0  0  0  0  0  0  0
   60.5820   30.7820   50.0910 C   0  0  0  0  0  0  0  0  0  0  0  0
   59.4380   30.8330   49.0980 C   0  0  0  0  0  0  0  0  0  0  0  0
   58.3380   31.3510   49.4410 O   0  0  0  0  0  0  0  0  0  0  0  0
   59.5570   30.3060   47.7660 N   0  0  0  0  0  0  0  0  0  0  0  0
   59.6930   28.9300   47.3790 C   0  0  0  0  0  0  0  0  0  0  0  0
   60.3930   28.0710   48.2340 C   0  0  0  0  0  0  0  0  0  0  0  0
   60.5760   26.7320   47.8920 C   0  0  0  0  0  0  0  0  0  0  0  0
   60.0410   26.2530   46.6980 C   0  0  0  0  0  0  0  0  0  0  0  0
   59.3320   27.0830   45.8900 N   0  0  0  0  0  0  0  0  0  0  0  0
   59.1230   28.3940   46.1960 C   0  0  0  0  0  0  0  0  0  0  0  0
   58.2940   29.1930   45.2690 C   0  0  0  0  0  0  0  0  0  0  0  0
   57.7230   28.5740   44.1440 C   0  0  0  0  0  0  0  0  0  0  0  0
   56.9680   29.3190   43.2360 C   0  0  0  0  0  0  0  0  0  0  0  0
   56.7510   30.6790   43.4580 C   0  0  0  0  0  0  0  0  0  0  0  0
   57.2810   31.3040   44.6010 C   0  0  0  0  0  0  0  0  0  0  0  0
   57.0250   32.6560   44.8760 O   0  0  0  0  0  0  0  0  0  0  0  0
   57.9160   33.4680   45.5820 C   0  0  0  0  0  0  0  0  0  0  0  0
   58.0120   33.3670   46.9870 C   0  0  0  0  0  0  0  0  0  0  0  0
   58.9040   34.1810   47.6950 C   0  0  0  0  0  0  0  0  0  0  0  0
   59.7150   35.1000   46.9940 C   0  0  0  0  0  0  0  0  0  0  0  0
   59.6390   35.1830   45.5920 C   0  0  0  0  0  0  0  0  0  0  0  0
   58.7300   34.3790   44.8860 C   0  0  0  0  0  0  0  0  0  0  0  0
   58.0480   30.5560   45.5040 C   0  0  0  0  0  0  0  0  0  0  0  0
   62.8110   31.6590   50.7180 C   0  0  0  0  0  0  0  0  0  0  0  0
   63.7640   32.8770   50.5940 C   0  0  0  0  0  0  0  0  0  0  0  0
   62.3284   31.2849   48.1556 H   0  0  0  0  0  0  0  0  0  0  0  0
   61.4953   31.6205   46.6000 H   0  0  0  0  0  0  0  0  0  0  0  0
   63.1691   30.9686   46.6000 H   0  0  0  0  0  0  0  0  0  0  0  0
   64.7476   32.6730   48.3151 H   0  0  0  0  0  0  0  0  0  0  0  0
   64.4743   34.4040   47.7948 H   0  0  0  0  0  0  0  0  0  0  0  0
   61.8769   35.1952   49.9073 H   0  0  0  0  0  0  0  0  0  0  0  0
   61.6909   34.2495   48.3623 H   0  0  0  0  0  0  0  0  0  0  0  0
   60.9964   33.4523   51.1973 H   0  0  0  0  0  0  0  0  0  0  0  0
   60.0333   33.2932   49.6972 H   0  0  0  0  0  0  0  0  0  0  0  0
   61.0995   29.8188   49.9708 H   0  0  0  0  0  0  0  0  0  0  0  0
   60.1376   30.9077   51.0893 H   0  0  0  0  0  0  0  0  0  0  0  0
   60.8009   28.4545   49.1809 H   0  0  0  0  0  0  0  0  0  0  0  0
   61.1372   26.0603   48.5582 H   0  0  0  0  0  0  0  0  0  0  0  0
   60.1929   25.2024   46.4097 H   0  0  0  0  0  0  0  0  0  0  0  0
   57.8716   27.4968   43.9779 H   0  0  0  0  0  0  0  0  0  0  0  0
   56.5440   28.8331   42.3449 H   0  0  0  0  0  0  0  0  0  0  0  0
   56.1630   31.2649   42.7362 H   0  0  0  0  0  0  0  0  0  0  0  0
   57.3827   32.6450   47.5280 H   0  0  0  0  0  0  0  0  0  0  0  0
   58.9727   34.1052   48.7902 H   0  0  0  0  0  0  0  0  0  0  0  0
   60.4078   35.7525   47.5456 H   0  0  0  0  0  0  0  0  0  0  0  0
   60.2934   35.8795   45.0473 H   0  0  0  0  0  0  0  0  0  0  0  0
   58.6549   34.4615   43.7917 H   0  0  0  0  0  0  0  0  0  0  0  0
   58.4600   31.0389   46.4023 H   0  0  0  0  0  0  0  0  0  0  0  0
   62.5441   31.5188   51.7759 H   0  0  0  0  0  0  0  0  0  0  0  0
   63.3291   30.7709   50.3270 H   0  0  0  0  0  0  0  0  0  0  0  0
   63.7343   33.4398   51.5386 H   0  0  0  0  0  0  0  0  0  0  0  0
   64.7669   32.4819   50.3749 H   0  0  0  0  0  0  0  0  0  0  0  0
  1  2  1  0
  2  3  2  0
  2  4  1  0
  4  5  1  0
  5  6  1  0
  6  7  1  0
  7  8  1  0
  8  9  1  0
  9 10  1  0
 10 11  2  0
 10 12  1  0
 12 13  1  0
 13 14  2  0
 14 15  1  0
 15 16  2  0
 16 17  1  0
 17 18  2  0
 18 19  1  0
 19 20  2  0
 20 21  1  0
 21 22  2  0
 22 23  1  0
 23 24  1  0
 24 25  1  0
 25 26  2  0
 26 27  1  0
 27 28  2  0
 28 29  1  0
 29 30  2  0
 23 31  2  0
  8 32  1  0
 32 33  1  0
 33  5  1  0
 18 13  1  0
 31 19  1  0
 30 25  1  0
  1 34  1  0
  1 35  1  0
  1 36  1  0
  4 37  1  0
  4 38  1  0
  6 39  1  0
  6 40  1  0
  7 41  1  0
  7 42  1  0
  9 43  1  0
  9 44  1  0
 14 45  1  0
 15 46  1  0
 16 47  1  0
 20 48  1  0
 21 49  1  0
 22 50  1  0
 26 51  1  0
 27 52  1  0
 28 53  1  0
 29 54  1  0
 30 55  1  0
 31 56  1  0
 32 57  1  0
 32 58  1  0
 33 59  1  0
 33 60  1  0
M  CHG  1  12  -1
M  END
>  <UniqueID>  (12) 
10

>  <SMILES>  (12) 
CC(=O)CN1CCN(CC(=O)[N-]c2cccnc2-c2cccc(Oc3ccccc3)c2)CC1

>  <Energy>  (12) 
99.37105204128453

>  <Genealogy>  (12) 
CC(=O)CN1CCN(CC(=O)[N-]c2cccnc2-c2cccc(Oc3ccccc3)c2)CC1 (protonated)
CC(=O)CN1CCN(CC(=O)[N-]c2cccnc2-c2cccc(Oc3ccccc3)c2)CC1 (3D coordinates assigned)
CC(=O)CN1CCN(CC(=O)[N-]c2cccnc2-c2cccc(Oc3ccccc3)c2)CC1 (nonaromatic ring conformer: 99.37105204128453 kcal/mol)

>  <smiles>  (12) 
CC(=O)CN1CCN(CC(=O)Nc2cccnc2-c2cccc(Oc3ccccc3)c2)CC1

>  <score_type>  (12) 
oracle

>  <origin>  (12) 
adg

>  <m_score__min__energy>  (12) 
-10.699999999999999

>  <m_primary>  (12) 
energy

$$$$
12:0
     RDKit          3D

 65 69  0  0  0  0  0  0  0  0999 V2000
   58.0370   20.8730   45.4100 N   0  0  0  0  0  0  0  0  0  0  0  0
   58.8780   22.0310   45.4080 C   0  0  0  0  0  0  0  0  0  0  0  0
   60.1150   21.8940   45.6040 O   0  0  0  0  0  0  0  0  0  0  0  0
   58.3250   23.3780   45.1400 C   0  0  0  0  0  0  0  0  0  0  0  0
   59.0590   24.4990   45.5680 C   0  0  0  0  0  0  0  0  0  0  0  0
   58.6000   25.8020   45.3260 C   0  0  0  0  0  0  0  0  0  0  0  0
   59.3510   26.9370   45.8090 N   0  0  0  0  0  0  0  0  0  0  0  0
   60.0020   27.8760   44.8950 C   0  0  0  0  0  0  0  0  0  0  0  0
   59.1890   29.1740   44.8220 C   0  0  0  0  0  0  0  0  0  0  0  0
   58.7830   29.6490   46.1600 N   0  0  0  0  0  0  0  0  0  0  0  0
   58.4020   31.0330   46.3310 C   0  0  0  0  0  0  0  0  0  0  0  0
   58.1530   31.4690   47.4910 O   0  0  0  0  0  0  0  0  0  0  0  0
   58.2810   31.9640   45.1360 C   0  0  1  0  0  0  0  0  0  0  0  0
   57.4320   33.2150   45.3420 C   0  0  0  0  0  0  0  0  0  0  0  0
   58.9530   33.3420   45.2140 C   0  0  1  0  0  0  0  0  0  0  0  0
   59.7020   33.6820   46.4800 C   0  0  0  0  0  0  0  0  0  0  0  0
   59.0300   34.3280   47.5340 C   0  0  0  0  0  0  0  0  0  0  0  0
   59.6970   34.5990   48.7340 C   0  0  0  0  0  0  0  0  0  0  0  0
   61.0320   34.2090   48.8970 C   0  0  0  0  0  0  0  0  0  0  0  0
   61.6980   33.5410   47.8630 C   0  0  0  0  0  0  0  0  0  0  0  0
   61.0330   33.2620   46.6650 C   0  0  0  0  0  0  0  0  0  0  0  0
   58.3180   28.6740   47.1700 C   0  0  0  0  0  0  0  0  0  0  0  0
   59.1790   27.4110   47.1800 C   0  0  0  0  0  0  0  0  0  0  0  0
   57.3890   25.9800   44.6390 C   0  0  0  0  0  0  0  0  0  0  0  0
   56.6410   24.8780   44.2270 C   0  0  0  0  0  0  0  0  0  0  0  0
   57.0930   23.5730   44.4660 C   0  0  0  0  0  0  0  0  0  0  0  0
   56.2110   22.4420   44.1020 C   0  0  0  0  0  0  0  0  0  0  0  0
   56.4230   21.8150   43.0320 O   0  0  0  0  0  0  0  0  0  0  0  0
   55.1150   22.0410   44.9330 N   0  0  0  0  0  0  0  0  0  0  0  0
   54.5740   22.8440   46.0260 C   0  0  0  0  0  0  0  0  0  0  0  0
   53.1240   23.1360   45.7650 C   0  0  0  0  0  0  0  0  0  0  0  0
   52.7520   24.0520   44.7650 C   0  0  0  0  0  0  0  0  0  0  0  0
   51.4000   24.3130   44.5210 C   0  0  0  0  0  0  0  0  0  0  0  0
   50.4140   23.6530   45.2610 C   0  0  0  0  0  0  0  0  0  0  0  0
   50.7760   22.7250   46.2420 C   0  0  0  0  0  0  0  0  0  0  0  0
   52.1270   22.4620   46.4910 C   0  0  0  0  0  0  0  0  0  0  0  0
   57.0320   20.9370   45.1310 H   0  0  0  0  0  0  0  0  0  0  0  0
   58.4410   19.9330   45.6240 H   0  0  0  0  0  0  0  0  0  0  0  0
   60.0094   24.3511   46.1017 H   0  0  0  0  0  0  0  0  0  0  0  0
   61.0152   28.0992   45.2606 H   0  0  0  0  0  0  0  0  0  0  0  0
   60.0616   27.4267   43.8927 H   0  0  0  0  0  0  0  0  0  0  0  0
   59.8019   29.9502   44.3406 H   0  0  0  0  0  0  0  0  0  0  0  0
   58.2764   28.9709   44.2424 H   0  0  0  0  0  0  0  0  0  0  0  0
   58.3102   31.1385   44.4096 H   0  0  0  0  0  0  0  0  0  0  0  0
   56.7806   33.5762   44.5325 H   0  0  0  0  0  0  0  0  0  0  0  0
   56.6864   33.5333   46.0854 H   0  0  0  0  0  0  0  0  0  0  0  0
   59.6456   33.9018   44.5683 H   0  0  0  0  0  0  0  0  0  0  0  0
   57.9765   34.6211   47.4143 H   0  0  0  0  0  0  0  0  0  0  0  0
   59.1725   35.1185   49.5494 H   0  0  0  0  0  0  0  0  0  0  0  0
   61.5576   34.4278   49.8382 H   0  0  0  0  0  0  0  0  0  0  0  0
   62.7465   33.2349   47.9930 H   0  0  0  0  0  0  0  0  0  0  0  0
   61.5512   32.7129   45.8650 H   0  0  0  0  0  0  0  0  0  0  0  0
   58.3624   29.1428   48.1641 H   0  0  0  0  0  0  0  0  0  0  0  0
   57.2882   28.3832   46.9151 H   0  0  0  0  0  0  0  0  0  0  0  0
   60.1625   27.6395   47.6166 H   0  0  0  0  0  0  0  0  0  0  0  0
   58.6868   26.6326   47.7815 H   0  0  0  0  0  0  0  0  0  0  0  0
   57.0275   26.9964   44.4241 H   0  0  0  0  0  0  0  0  0  0  0  0
   55.6840   25.0347   43.7078 H   0  0  0  0  0  0  0  0  0  0  0  0
   54.6717   22.2896   46.9711 H   0  0  0  0  0  0  0  0  0  0  0  0
   55.1310   23.7900   46.0955 H   0  0  0  0  0  0  0  0  0  0  0  0
   53.5256   24.5640   44.1739 H   0  0  0  0  0  0  0  0  0  0  0  0
   51.1118   25.0384   43.7460 H   0  0  0  0  0  0  0  0  0  0  0  0
   49.3514   23.8644   45.0709 H   0  0  0  0  0  0  0  0  0  0  0  0
   49.9985   22.2018   46.8179 H   0  0  0  0  0  0  0  0  0  0  0  0
   52.4100   21.7254   47.2574 H   0  0  0  0  0  0  0  0  0  0  0  0
  1  2  1  0
  2  3  2  0
  2  4  1  0
  4  5  2  0
  5  6  1  0
  6  7  1  0
  7  8  1  0
  8  9  1  0
  9 10  1  0
 10 11  1  0
 11 12  2  0
 11 13  1  0
 13 14  1  0
 14 15  1  0
 15 16  1  0
 16 17  2  0
 17 18  1  0
 18 19  2  0
 19 20  1  0
 20 21  2  0
 10 22  1  0
 22 23  1  0
  6 24  2  0
 24 25  1  0
 25 26  2  0
 26 27  1  0
 27 28  2  0
 27 29  1  0
 29 30  1  0
 30 31  1  0
 31 32  2  0
 32 33  1  0
 33 34  2  0
 34 35  1  0
 35 36  2  0
 26  4  1  0
 36 31  1  0
 23  7  1  0
 15 13  1  0
 21 16  1  0
  1 37  1  0
  1 38  1  0
  5 39  1  0
  8 40  1  0
  8 41  1  0
  9 42  1  0
  9 43  1  0
 13 44  1  6
 14 45  1  0
 14 46  1  0
 15 47  1  6
 17 48  1  0
 18 49  1  0
 19 50  1  0
 20 51  1  0
 21 52  1  0
 22 53  1  0
 22 54  1  0
 23 55  1  0
 23 56  1  0
 24 57  1  0
 25 58  1  0
 30 59  1  0
 30 60  1  0
 32 61  1  0
 33 62  1  0
 34 63  1  0
 35 64  1  0
 36 65  1  0
M  CHG  1  29  -1
M  END
>  <UniqueID>  (13) 
11

>  <SMILES>  (13) 
NC(=O)c1cc(N2CCN(C(=O)[C@H]3C[C@H]3c3ccccc3)CC2)ccc1C(=O)[N-]Cc1ccccc1

>  <Energy>  (13) 
351.9106233207775

>  <Genealogy>  (13) 
NC(=O)c1cc(N2CCN(C(=O)C3CC3c3ccccc3)CC2)ccc1C(=O)[N-]Cc1ccccc1 (protonated)
NC(=O)c1cc(N2CCN(C(=O)[C@H]3C[C@H]3c3ccccc3)CC2)ccc1C(=O)[N-]Cc1ccccc1 (chirality)
NC(=O)c1cc(N2CCN(C(=O)[C@H]3C[C@H]3c3ccccc3)CC2)ccc1C(=O)[N-]Cc1ccccc1 (3D coordinates assigned)
NC(=O)c1cc(N2CCN(C(=O)[C@H]3C[C@H]3c3ccccc3)CC2)ccc1C(=O)[N-]Cc1ccccc1 (nonaromatic ring conformer: 351.9106233207775 kcal/mol)

>  <smiles>  (13) 
NC(=O)c1cc(N2CCN(C(=O)C3CC3c3ccccc3)CC2)ccc1C(=O)NCc1ccccc1

>  <score_type>  (13) 
oracle

>  <origin>  (13) 
adg

>  <m_score__min__energy>  (13) 
-11.23

>  <m_primary>  (13) 
energy

$$$$
13:0
     RDKit          3D

 37 39  0  0  0  0  0  0  0  0999 V2000
   55.6620   29.3880   44.6630 O   0  0  0  0  0  0  0  0  0  0  0  0
   56.6400   29.0980   45.4030 C   0  0  0  0  0  0  0  0  0  0  0  0
   57.3850   30.1620   46.0070 N   0  0  0  0  0  0  0  0  0  0  0  0
   57.7780   31.3850   45.3680 C   0  0  0  0  0  0  0  0  0  0  0  0
   57.7150   31.5400   43.9710 C   0  0  0  0  0  0  0  0  0  0  0  0
   58.1150   32.7400   43.3770 C   0  0  0  0  0  0  0  0  0  0  0  0
   58.5940   33.7870   44.1670 C   0  0  0  0  0  0  0  0  0  0  0  0
   58.6820   33.6350   45.5550 C   0  0  0  0  0  0  0  0  0  0  0  0
   59.2960   34.9540   46.5370 Cl  0  0  0  0  0  0  0  0  0  0  0  0
   58.2810   32.4330   46.1540 C   0  0  0  0  0  0  0  0  0  0  0  0
   58.3680   32.2850   47.5010 F   0  0  0  0  0  0  0  0  0  0  0  0
   57.0080   27.6800   45.5840 C   0  0  0  0  0  0  0  0  0  0  0  0
   58.2970   27.1730   45.5870 C   0  0  0  0  0  0  0  0  0  0  0  0
   58.1710   25.8170   45.8250 C   0  0  0  0  0  0  0  0  0  0  0  0
   59.2290   24.9180   45.9160 O   0  0  0  0  0  0  0  0  0  0  0  0
   56.8750   25.4710   45.9690 N   0  0  0  0  0  0  0  0  0  0  0  0
   56.3550   24.1460   46.3110 C   0  0  0  0  0  0  0  0  0  0  0  0
   56.5370   23.2060   45.1510 C   0  0  0  0  0  0  0  0  0  0  0  0
   57.0680   21.9220   45.3570 C   0  0  0  0  0  0  0  0  0  0  0  0
   57.2010   21.0350   44.2850 C   0  0  0  0  0  0  0  0  0  0  0  0
   56.8000   21.4200   43.0030 C   0  0  0  0  0  0  0  0  0  0  0  0
   56.2610   22.6910   42.7920 C   0  0  0  0  0  0  0  0  0  0  0  0
   56.1260   23.5820   43.8610 C   0  0  0  0  0  0  0  0  0  0  0  0
   56.1670   26.6090   45.8430 C   0  0  0  0  0  0  0  0  0  0  0  0
   54.7870   26.6810   45.9980 O   0  0  0  0  0  0  0  0  0  0  0  0
   57.3495   30.7134   43.3440 H   0  0  0  0  0  0  0  0  0  0  0  0
   58.0524   32.8600   42.2854 H   0  0  0  0  0  0  0  0  0  0  0  0
   58.9026   34.7326   43.6974 H   0  0  0  0  0  0  0  0  0  0  0  0
   59.2301   27.7345   45.4318 H   0  0  0  0  0  0  0  0  0  0  0  0
   60.1440   25.1550   45.5530 H   0  0  0  0  0  0  0  0  0  0  0  0
   56.8981   23.7560   47.1844 H   0  0  0  0  0  0  0  0  0  0  0  0
   55.2831   24.2282   46.5440 H   0  0  0  0  0  0  0  0  0  0  0  0
   57.3803   21.6134   46.3656 H   0  0  0  0  0  0  0  0  0  0  0  0
   57.6220   20.0324   44.4508 H   0  0  0  0  0  0  0  0  0  0  0  0
   56.9089   20.7219   42.1599 H   0  0  0  0  0  0  0  0  0  0  0  0
   55.9421   22.9916   41.7831 H   0  0  0  0  0  0  0  0  0  0  0  0
   55.6967   24.5805   43.6916 H   0  0  0  0  0  0  0  0  0  0  0  0
  1  2  2  0
  2  3  1  0
  3  4  1  0
  4  5  2  0
  5  6  1  0
  6  7  2  0
  7  8  1  0
  8  9  1  0
  8 10  2  0
 10 11  1  0
  2 12  1  0
 12 13  1  0
 13 14  2  0
 14 15  1  0
 14 16  1  0
 16 17  1  0
 17 18  1  0
 18 19  2  0
 19 20  1  0
 20 21  2  0
 21 22  1  0
 22 23  2  0
 16 24  1  0
 24 25  1  0
 10  4  1  0
 24 12  2  0
 23 18  1  0
  5 26  1  0
  6 27  1  0
  7 28  1  0
 13 29  1  0
 15 30  1  0
 17 31  1  0
 17 32  1  0
 19 33  1  0
 20 34  1  0
 21 35  1  0
 22 36  1  0
 23 37  1  0
M  CHG  2   3  -1  25  -1
M  END
>  <UniqueID>  (14) 
12

>  <SMILES>  (14) 
O=C([N-]c1cccc(Cl)c1F)c1cc(O)n(Cc2ccccc2)c1[O-]

>  <Energy>  (14) 
72.18402338950271

>  <Genealogy>  (14) 
O=C([N-]c1cccc(Cl)c1F)c1cc(O)n(Cc2ccccc2)c1[O-] (protonated)
O=C([N-]c1cccc(Cl)c1F)c1cc(O)n(Cc2ccccc2)c1[O-] (3D coordinates assigned)
O=C([N-]c1cccc(Cl)c1F)c1cc(O)n(Cc2ccccc2)c1[O-] (optimized conformer: 72.18402338950271 kcal/mol)

>  <smiles>  (14) 
O=C(Nc1cccc(Cl)c1F)c1cc(O)n(Cc2ccccc2)c1O

>  <score_type>  (14) 
oracle

>  <origin>  (14) 
adg

>  <m_score__min__energy>  (14) 
-13.390000000000001

>  <m_primary>  (14) 
energy

$$$$
14:0
     RDKit          3D

 45 47  0  0  0  0  0  0  0  0999 V2000
   54.9888   32.0750   51.5982 H   0  0  0  0  0  0  0  0  0  0  0  0
   54.5340   31.0820   51.7290 C   0  0  0  0  0  0  0  0  0  0  0  0
   55.3900   29.9510   52.1420 C   0  0  0  0  0  0  0  0  0  0  0  0
   54.8730   28.8300   52.3910 O   0  0  0  0  0  0  0  0  0  0  0  0
   56.8180   30.0830   52.2160 N   0  0  0  0  0  0  0  0  0  0  0  0
   57.6820   30.6410   51.2130 C   0  0  0  0  0  0  0  0  0  0  0  0
   57.8570   32.0290   51.1640 C   0  0  0  0  0  0  0  0  0  0  0  0
   57.3542   32.6696   51.9035 H   0  0  0  0  0  0  0  0  0  0  0  0
   58.6660   32.6060   50.1820 C   0  0  0  0  0  0  0  0  0  0  0  0
   58.7916   33.6982   50.1468 H   0  0  0  0  0  0  0  0  0  0  0  0
   59.3170   31.7980   49.2430 C   0  0  0  0  0  0  0  0  0  0  0  0
   59.9534   32.2557   48.4713 H   0  0  0  0  0  0  0  0  0  0  0  0
   59.1590   30.4090   49.2850 C   0  0  0  0  0  0  0  0  0  0  0  0
   59.8430   29.5920   48.3270 N   0  0  0  0  0  0  0  0  0  0  0  0
   59.3550   29.3340   47.0050 C   0  0  0  0  0  0  0  0  0  0  0  0
   60.1600   29.1900   46.0440 O   0  0  0  0  0  0  0  0  0  0  0  0
   57.8830   29.2590   46.7520 C   0  0  0  0  0  0  0  0  0  0  0  0
   57.5672   28.2053   46.7470 H   0  0  0  0  0  0  0  0  0  0  0  0
   57.3513   29.8034   47.5463 H   0  0  0  0  0  0  0  0  0  0  0  0
   57.5580   29.8840   45.4200 C   0  0  0  0  0  0  0  0  0  0  0  0
   58.3930   30.8920   44.9070 C   0  0  0  0  0  0  0  0  0  0  0  0
   59.2969   31.1875   45.4599 H   0  0  0  0  0  0  0  0  0  0  0  0
   58.0810   31.5210   43.6980 C   0  0  0  0  0  0  0  0  0  0  0  0
   58.7409   32.3064   43.3008 H   0  0  0  0  0  0  0  0  0  0  0  0
   56.9320   31.1530   42.9940 C   0  0  0  0  0  0  0  0  0  0  0  0
   56.6908   31.6445   42.0399 H   0  0  0  0  0  0  0  0  0  0  0  0
   56.0890   30.1610   43.5010 C   0  0  0  0  0  0  0  0  0  0  0  0
   55.1852   29.8728   42.9442 H   0  0  0  0  0  0  0  0  0  0  0  0
   56.3900   29.5330   44.7140 C   0  0  0  0  0  0  0  0  0  0  0  0
   55.5230   28.5640   45.2100 O   0  0  0  0  0  0  0  0  0  0  0  0
   58.3020   29.8390   50.2380 C   0  0  0  0  0  0  0  0  0  0  0  0
   58.1132   28.7554   50.2227 H   0  0  0  0  0  0  0  0  0  0  0  0
   53.2210   30.9350   51.5090 C   0  0  0  0  0  0  0  0  0  0  0  0
   52.8974   30.5157   50.5449 H   0  0  0  0  0  0  0  0  0  0  0  0
   52.1790   31.3090   52.5000 C   0  0  0  0  0  0  0  0  0  0  0  0
   52.2020   30.8160   53.8220 C   0  0  0  0  0  0  0  0  0  0  0  0
   53.0098   30.1401   54.1392 H   0  0  0  0  0  0  0  0  0  0  0  0
   51.2050   31.1810   54.7310 C   0  0  0  0  0  0  0  0  0  0  0  0
   51.2247   30.7817   55.7558 H   0  0  0  0  0  0  0  0  0  0  0  0
   50.1850   32.0500   54.3430 C   0  0  0  0  0  0  0  0  0  0  0  0
   49.4011   32.3333   55.0608 H   0  0  0  0  0  0  0  0  0  0  0  0
   50.1590   32.5600   53.0440 C   0  0  0  0  0  0  0  0  0  0  0  0
   49.3589   33.2523   52.7431 H   0  0  0  0  0  0  0  0  0  0  0  0
   51.1470   32.1940   52.1230 C   0  0  0  0  0  0  0  0  0  0  0  0
   51.0870   32.7060   50.8320 O   0  0  0  0  0  0  0  0  0  0  0  0
  1  2  1  0
  2  3  1  0
  3  4  2  0
  3  5  1  0
  5  6  1  0
  6  7  2  0
  7  8  1  0
  7  9  1  0
  9 10  1  0
  9 11  2  0
 11 12  1  0
 11 13  1  0
 13 14  1  0
 14 15  1  0
 15 16  2  0
 15 17  1  0
 17 18  1  0
 17 19  1  0
 17 20  1  0
 20 21  2  0
 21 22  1  0
 21 23  1  0
 23 24  1  0
 23 25  2  0
 25 26  1  0
 25 27  1  0
 27 28  1  0
 27 29  2  0
 29 30  1  0
 13 31  2  0
 31 32  1  0
  2 33  2  0
 33 34  1  0
 33 35  1  0
 35 36  2  0
 36 37  1  0
 36 38  1  0
 38 39  1  0
 38 40  2  0
 40 41  1  0
 40 42  1  0
 42 43  1  0
 42 44  2  0
 44 45  1  0
 31  6  1  0
 44 35  1  0
 29 20  1  0
M  CHG  4   5  -1  14  -1  30  -1  45  -1
M  END
>  <UniqueID>  (15) 
13

>  <SMILES>  (15) 
O=C(/C=C/c1ccccc1[O-])[N-]c1cccc([N-]C(=O)Cc2ccccc2[O-])c1

>  <Energy>  (15) 
54.40585919947754

>  <Genealogy>  (15) 
O=C(C=Cc1ccccc1[O-])[N-]c1cccc([N-]C(=O)Cc2ccccc2[O-])c1 (protonated)
O=C(/C=C/c1ccccc1[O-])[N-]c1cccc([N-]C(=O)Cc2ccccc2[O-])c1 (cis-trans isomerization)
O=C(/C=C/c1ccccc1[O-])[N-]c1cccc([N-]C(=O)Cc2ccccc2[O-])c1 (3D coordinates assigned)
O=C(/C=C/c1ccccc1[O-])[N-]c1cccc([N-]C(=O)Cc2ccccc2[O-])c1 (optimized conformer: 54.40585919947754 kcal/mol)

>  <smiles>  (15) 
O=C(C=Cc1ccccc1O)Nc1cccc(NC(=O)Cc2ccccc2O)c1

>  <score_type>  (15) 
oracle

>  <origin>  (15) 
adg

>  <m_score__min__energy>  (15) 
-17.640000000000001

>  <m_primary>  (15) 
energy

$$$$
15:0
     RDKit          3D

 69 73  0  0  0  0  0  0  0  0999 V2000
   58.1520   28.9150   47.0260 C   0  0  0  0  0  0  0  0  0  0  0  0
   57.8980   28.9730   45.7080 C   0  0  0  0  0  0  0  0  0  0  0  0
   57.8250   27.8850   44.8150 C   0  0  0  0  0  0  0  0  0  0  0  0
   58.0620   26.5690   44.9850 C   0  0  0  0  0  0  0  0  0  0  0  0
   57.3230   25.6660   45.8760 C   0  0  0  0  0  0  0  0  0  0  0  0
   57.8790   24.6050   46.4910 N   0  0  0  0  0  0  0  0  0  0  0  0
   56.8740   24.1330   47.2620 C   0  0  0  0  0  0  0  0  0  0  0  0
   57.0030   23.1140   47.9930 O   0  0  0  0  0  0  0  0  0  0  0  0
   55.7220   24.8430   47.1930 N   0  0  0  0  0  0  0  0  0  0  0  0
   56.0270   25.8180   46.3190 C   0  0  0  0  0  0  0  0  0  0  0  0
   55.1440   26.8270   45.9450 O   0  0  0  0  0  0  0  0  0  0  0  0
   57.3990   28.4060   43.6070 C   0  0  0  0  0  0  0  0  0  0  0  0
   57.2680   29.7670   43.7750 C   0  0  0  0  0  0  0  0  0  0  0  0
   56.7420   30.6910   42.7190 C   0  0  0  0  0  0  0  0  0  0  0  0
   57.5680   30.1220   45.0490 N   0  0  0  0  0  0  0  0  0  0  0  0
   57.4080   31.4780   45.6070 C   0  0  0  0  0  0  0  0  0  0  0  0
   58.5660   31.8240   46.5080 C   0  0  0  0  0  0  0  0  0  0  0  0
   58.3610   32.5790   47.6750 C   0  0  0  0  0  0  0  0  0  0  0  0
   59.4310   32.8730   48.5260 C   0  0  0  0  0  0  0  0  0  0  0  0
   60.7260   32.4140   48.2280 C   0  0  0  0  0  0  0  0  0  0  0  0
   61.8300   32.7010   49.1130 N   0  0  0  0  0  0  0  0  0  0  0  0
   63.0950   31.9600   48.9750 C   0  0  0  0  0  0  0  0  0  0  0  0
   63.8250   31.8710   50.3200 C   0  0  0  0  0  0  0  0  0  0  0  0
   64.0690   33.2670   50.9740 C   0  0  0  0  0  0  0  0  0  0  0  0
   65.5010   33.6940   50.8880 N   0  0  0  0  0  0  0  0  0  0  0  0
   66.1150   34.0260   52.2040 C   0  0  0  0  0  0  0  0  0  0  0  0
   67.6450   34.1230   52.0940 C   0  0  0  0  0  0  0  0  0  0  0  0
   68.2620   32.8530   51.6360 N   0  0  0  0  0  0  0  0  0  0  0  0
   68.9070   32.1350   52.7480 C   0  0  0  0  0  0  0  0  0  0  0  0
   67.3280   31.9570   50.9200 C   0  0  0  0  0  0  0  0  0  0  0  0
   66.3290   32.7570   50.0700 C   0  0  0  0  0  0  0  0  0  0  0  0
   63.0540   34.3460   50.4890 C   0  0  0  0  0  0  0  0  0  0  0  0
   61.6910   33.7280   50.1580 C   0  0  0  0  0  0  0  0  0  0  0  0
   60.9280   31.6620   47.0570 C   0  0  0  0  0  0  0  0  0  0  0  0
   59.8600   31.3740   46.2040 C   0  0  0  0  0  0  0  0  0  0  0  0
   58.1832   29.8395   47.6213 H   0  0  0  0  0  0  0  0  0  0  0  0
   58.3288   27.9431   47.5098 H   0  0  0  0  0  0  0  0  0  0  0  0
   58.8856   26.1310   44.4020 H   0  0  0  0  0  0  0  0  0  0  0  0
   57.2017   27.8398   42.6848 H   0  0  0  0  0  0  0  0  0  0  0  0
   56.2517   31.5522   43.1964 H   0  0  0  0  0  0  0  0  0  0  0  0
   57.5746   31.0439   42.0927 H   0  0  0  0  0  0  0  0  0  0  0  0
   56.0135   30.1552   42.0927 H   0  0  0  0  0  0  0  0  0  0  0  0
   57.3625   32.2046   44.7824 H   0  0  0  0  0  0  0  0  0  0  0  0
   56.4797   31.5105   46.1963 H   0  0  0  0  0  0  0  0  0  0  0  0
   57.3519   32.9413   47.9210 H   0  0  0  0  0  0  0  0  0  0  0  0
   59.2582   33.4677   49.4351 H   0  0  0  0  0  0  0  0  0  0  0  0
   62.8797   30.9435   48.6139 H   0  0  0  0  0  0  0  0  0  0  0  0
   63.7388   32.4929   48.2597 H   0  0  0  0  0  0  0  0  0  0  0  0
   63.2197   31.2624   51.0079 H   0  0  0  0  0  0  0  0  0  0  0  0
   64.8099   31.4191   50.1310 H   0  0  0  0  0  0  0  0  0  0  0  0
   63.8653   33.1536   52.0490 H   0  0  0  0  0  0  0  0  0  0  0  0
   65.4910   34.5950   50.3480 H   0  0  0  0  0  0  0  0  0  0  0  0
   65.7182   34.9912   52.5519 H   0  0  0  0  0  0  0  0  0  0  0  0
   65.8667   33.2255   52.9164 H   0  0  0  0  0  0  0  0  0  0  0  0
   67.8977   34.9173   51.3762 H   0  0  0  0  0  0  0  0  0  0  0  0
   68.0395   34.3446   53.0966 H   0  0  0  0  0  0  0  0  0  0  0  0
   68.5442   32.5389   53.7047 H   0  0  0  0  0  0  0  0  0  0  0  0
   68.6612   31.0647   52.6850 H   0  0  0  0  0  0  0  0  0  0  0  0
   69.9975   32.2651   52.6850 H   0  0  0  0  0  0  0  0  0  0  0  0
   67.9045   31.2899   50.2623 H   0  0  0  0  0  0  0  0  0  0  0  0
   66.7638   31.3765   51.6647 H   0  0  0  0  0  0  0  0  0  0  0  0
   66.8888   33.3406   49.3243 H   0  0  0  0  0  0  0  0  0  0  0  0
   65.6464   32.0383   49.5930 H   0  0  0  0  0  0  0  0  0  0  0  0
   62.9229   35.0958   51.2832 H   0  0  0  0  0  0  0  0  0  0  0  0
   63.4537   34.8090   49.5747 H   0  0  0  0  0  0  0  0  0  0  0  0
   61.2728   33.2671   51.0650 H   0  0  0  0  0  0  0  0  0  0  0  0
   61.0213   34.5199   49.7913 H   0  0  0  0  0  0  0  0  0  0  0  0
   61.9361   31.2973   46.8105 H   0  0  0  0  0  0  0  0  0  0  0  0
   60.0344   30.7906   45.2879 H   0  0  0  0  0  0  0  0  0  0  0  0
  1  2  2  0
  2  3  1  0
  3  4  2  3
  4  5  1  0
  5  6  1  0
  6  7  1  0
  7  8  2  0
  7  9  1  0
  9 10  1  0
 10 11  1  0
  3 12  1  0
 12 13  2  0
 13 14  1  0
 13 15  1  0
 15 16  1  0
 16 17  1  0
 17 18  2  0
 18 19  1  0
 19 20  2  0
 20 21  1  0
 21 22  1  0
 22 23  1  0
 23 24  1  0
 24 25  1  0
 25 26  1  0
 26 27  1  0
 27 28  1  0
 28 29  1  0
 28 30  1  0
 30 31  1  0
 24 32  1  0
 32 33  1  0
 20 34  1  0
 34 35  2  0
 15  2  1  0
 35 17  1  0
 10  5  2  0
 33 21  1  0
 31 25  1  0
  1 36  1  0
  1 37  1  0
  4 38  1  0
 12 39  1  0
 14 40  1  0
 14 41  1  0
 14 42  1  0
 16 43  1  0
 16 44  1  0
 18 45  1  0
 19 46  1  0
 22 47  1  0
 22 48  1  0
 23 49  1  0
 23 50  1  0
 24 51  1  0
 25 52  1  0
 26 53  1  0
 26 54  1  0
 27 55  1  0
 27 56  1  0
 29 57  1  0
 29 58  1  0
 29 59  1  0
 30 60  1  0
 30 61  1  0
 31 62  1  0
 31 63  1  0
 32 64  1  0
 32 65  1  0
 33 66  1  0
 33 67  1  0
 34 68  1  0
 35 69  1  0
M  CHG  4   6  -1   9  -1  11  -1  25   1
M  END
>  <UniqueID>  (16) 
14

>  <SMILES>  (16) 
C=c1c(=Cc2[n-]c(=O)[n-]c2[O-])cc(C)n1Cc1ccc(N2CCC([NH+]3CCN(C)CC3)CC2)cc1

>  <Energy>  (16) 
166.8795198090631

>  <Genealogy>  (16) 
C=c1c(=Cc2[n-]c(=O)[n-]c2[O-])cc(C)n1Cc1ccc(N2CCC([NH+]3CCN(C)CC3)CC2)cc1 (protonated)
C=c1c(=Cc2[n-]c(=O)[n-]c2[O-])cc(C)n1Cc1ccc(N2CCC([NH+]3CCN(C)CC3)CC2)cc1 (3D coordinates assigned)
C=c1c(=Cc2[n-]c(=O)[n-]c2[O-])cc(C)n1Cc1ccc(N2CCC([NH+]3CCN(C)CC3)CC2)cc1 (nonaromatic ring conformer: 166.8795198090631 kcal/mol)

>  <smiles>  (16) 
C=c1c(=Cc2[nH]c(=O)[nH]c2O)cc(C)n1Cc1ccc(N2CCC(N3CCN(C)CC3)CC2)cc1

>  <score_type>  (16) 
oracle

>  <origin>  (16) 
adg

>  <m_score__min__energy>  (16) 
-15.220000000000001

>  <m_primary>  (16) 
energy

$$$$
16:0
     RDKit          3D

 60 64  0  0  0  0  0  0  0  0999 V2000
   54.8900   23.0910   44.8430 C   0  0  0  0  0  0  0  0  0  0  0  0
   56.0630   23.7740   44.1990 C   0  0  0  0  0  0  0  0  0  0  0  0
   56.4620   23.3380   43.0850 O   0  0  0  0  0  0  0  0  0  0  0  0
   56.7430   24.8930   44.8260 N   0  0  0  0  0  0  0  0  0  0  0  0
   56.1370   25.5260   46.0220 C   0  0  0  0  0  0  0  0  0  0  0  0
   57.1470   26.3500   46.8230 C   0  0  0  0  0  0  0  0  0  0  0  0
   57.9100   27.1880   45.9030 N   0  0  0  0  0  0  0  0  0  0  0  0
   57.9660   28.6190   46.0570 C   0  0  0  0  0  0  0  0  0  0  0  0
   58.2300   29.1210   47.1860 O   0  0  0  0  0  0  0  0  0  0  0  0
   57.6740   29.5010   44.9100 C   0  0  0  0  0  0  0  0  0  0  0  0
   56.8700   29.0630   43.8460 C   0  0  0  0  0  0  0  0  0  0  0  0
   56.5480   29.9390   42.8030 C   0  0  0  0  0  0  0  0  0  0  0  0
   57.0350   31.2480   42.8090 C   0  0  0  0  0  0  0  0  0  0  0  0
   57.8810   31.6800   43.8380 C   0  0  0  0  0  0  0  0  0  0  0  0
   58.3440   33.0360   43.8520 N   0  0  0  0  0  0  0  0  0  0  0  0
   58.1160   33.9460   44.9360 C   0  0  0  0  0  0  0  0  0  0  0  0
   57.4030   34.9720   44.7630 O   0  0  0  0  0  0  0  0  0  0  0  0
   58.6990   33.6760   46.2550 C   0  0  0  0  0  0  0  0  0  0  0  0
   60.0180   33.8800   46.6130 C   0  0  0  0  0  0  0  0  0  0  0  0
   60.0990   33.4120   47.9120 C   0  0  0  0  0  0  0  0  0  0  0  0
   61.3420   33.4180   48.7240 C   0  0  0  0  0  0  0  0  0  0  0  0
   61.6060   34.2180   49.8410 C   0  0  0  0  0  0  0  0  0  0  0  0
   62.9040   33.9240   50.1950 C   0  0  0  0  0  0  0  0  0  0  0  0
   63.7030   34.4450   51.2100 C   0  0  0  0  0  0  0  0  0  0  0  0
   65.0300   33.9820   51.3030 C   0  0  0  0  0  0  0  0  0  0  0  0
   65.5180   33.0290   50.3820 C   0  0  0  0  0  0  0  0  0  0  0  0
   64.6840   32.5250   49.3670 C   0  0  0  0  0  0  0  0  0  0  0  0
   63.3730   32.9920   49.3100 C   0  0  0  0  0  0  0  0  0  0  0  0
   62.4310   32.6720   48.4080 N   0  0  0  0  0  0  0  0  0  0  0  0
   58.8790   32.9450   48.2780 N   0  0  0  0  0  0  0  0  0  0  0  0
   58.4940   32.3160   49.5390 C   0  0  0  0  0  0  0  0  0  0  0  0
   58.0270   33.1050   47.2750 N   0  0  0  0  0  0  0  0  0  0  0  0
   58.2000   30.8020   44.8860 C   0  0  0  0  0  0  0  0  0  0  0  0
   58.6580   26.5100   44.8420 C   0  0  0  0  0  0  0  0  0  0  0  0
   57.7170   25.6430   44.0010 C   0  0  0  0  0  0  0  0  0  0  0  0
   54.9879   23.1480   45.9371 H   0  0  0  0  0  0  0  0  0  0  0  0
   53.9597   23.5886   44.5317 H   0  0  0  0  0  0  0  0  0  0  0  0
   54.8636   22.0363   44.5317 H   0  0  0  0  0  0  0  0  0  0  0  0
   55.3212   26.1878   45.6958 H   0  0  0  0  0  0  0  0  0  0  0  0
   55.7681   24.7217   46.6755 H   0  0  0  0  0  0  0  0  0  0  0  0
   56.6144   26.9855   47.5459 H   0  0  0  0  0  0  0  0  0  0  0  0
   57.8277   25.6785   47.3669 H   0  0  0  0  0  0  0  0  0  0  0  0
   56.4925   28.0299   43.8319 H   0  0  0  0  0  0  0  0  0  0  0  0
   55.9093   29.5954   41.9759 H   0  0  0  0  0  0  0  0  0  0  0  0
   56.7532   31.9416   42.0031 H   0  0  0  0  0  0  0  0  0  0  0  0
   60.8223   34.3163   46.0025 H   0  0  0  0  0  0  0  0  0  0  0  0
   60.9239   34.9285   50.3308 H   0  0  0  0  0  0  0  0  0  0  0  0
   63.3109   35.1927   51.9151 H   0  0  0  0  0  0  0  0  0  0  0  0
   65.6891   34.3643   52.0964 H   0  0  0  0  0  0  0  0  0  0  0  0
   66.5577   32.6782   50.4587 H   0  0  0  0  0  0  0  0  0  0  0  0
   65.0554   31.7859   48.6418 H   0  0  0  0  0  0  0  0  0  0  0  0
   62.5220   31.9950   47.6180 H   0  0  0  0  0  0  0  0  0  0  0  0
   58.8647   32.9217   50.3791 H   0  0  0  0  0  0  0  0  0  0  0  0
   57.3976   32.2452   49.5937 H   0  0  0  0  0  0  0  0  0  0  0  0
   58.9297   31.3075   49.5937 H   0  0  0  0  0  0  0  0  0  0  0  0
   58.8671   31.1362   45.6943 H   0  0  0  0  0  0  0  0  0  0  0  0
   59.1337   27.2622   44.1955 H   0  0  0  0  0  0  0  0  0  0  0  0
   59.4251   25.8674   45.2987 H   0  0  0  0  0  0  0  0  0  0  0  0
   57.1639   26.2938   43.3078 H   0  0  0  0  0  0  0  0  0  0  0  0
   58.3336   24.9077   43.4633 H   0  0  0  0  0  0  0  0  0  0  0  0
  1  2  1  0
  2  3  2  0
  2  4  1  0
  4  5  1  0
  5  6  1  0
  6  7  1  0
  7  8  1  0
  8  9  2  0
  8 10  1  0
 10 11  2  0
 11 12  1  0
 12 13  2  0
 13 14  1  0
 14 15  1  0
 15 16  1  0
 16 17  2  0
 16 18  1  0
 18 19  1  0
 19 20  2  0
 20 21  1  0
 21 22  2  0
 22 23  1  0
 23 24  2  0
 24 25  1  0
 25 26  2  0
 26 27  1  0
 27 28  2  0
 28 29  1  0
 20 30  1  0
 30 31  1  0
 30 32  1  0
 14 33  2  0
  7 34  1  0
 34 35  1  0
 35  4  1  0
 33 10  1  0
 32 18  2  0
 29 21  1  0
 28 23  1  0
  1 36  1  0
  1 37  1  0
  1 38  1  0
  5 39  1  0
  5 40  1  0
  6 41  1  0
  6 42  1  0
 11 43  1  0
 12 44  1  0
 13 45  1  0
 19 46  1  0
 22 47  1  0
 24 48  1  0
 25 49  1  0
 26 50  1  0
 27 51  1  0
 29 52  1  0
 31 53  1  0
 31 54  1  0
 31 55  1  0
 33 56  1  0
 34 57  1  0
 34 58  1  0
 35 59  1  0
 35 60  1  0
M  CHG  1  15  -1
M  END
>  <UniqueID>  (17) 
15

>  <SMILES>  (17) 
CC(=O)N1CCN(C(=O)c2cccc([N-]C(=O)c3cc(-c4cc5ccccc5[nH]4)n(C)n3)c2)CC1

>  <Energy>  (17) 
139.20318764379624

>  <Genealogy>  (17) 
CC(=O)N1CCN(C(=O)c2cccc([N-]C(=O)c3cc(-c4cc5ccccc5[nH]4)n(C)n3)c2)CC1 (protonated)
CC(=O)N1CCN(C(=O)c2cccc([N-]C(=O)c3cc(-c4cc5ccccc5[nH]4)n(C)n3)c2)CC1 (3D coordinates assigned)
CC(=O)N1CCN(C(=O)c2cccc([N-]C(=O)c3cc(-c4cc5ccccc5[nH]4)n(C)n3)c2)CC1 (nonaromatic ring conformer: 139.20318764379624 kcal/mol)

>  <smiles>  (17) 
CC(=O)N1CCN(C(=O)c2cccc(NC(=O)c3cc(-c4cc5ccccc5[nH]4)n(C)n3)c2)CC1

>  <score_type>  (17) 
oracle

>  <origin>  (17) 
adg

>  <m_score__min__energy>  (17) 
-11.84

>  <m_primary>  (17) 
energy

$$$$
17:0
     RDKit          3D

 46 48  0  0  1  0  0  0  0  0999 V2000
   59.5660   34.9680   46.4500 C   0  0  0  0  0  0  0  0  0  0  0  0
   58.8910   33.7770   45.8620 C   0  0  0  0  0  0  0  0  0  0  0  0
   58.7730   32.6340   46.6220 C   0  0  0  0  0  0  0  0  0  0  0  0
   58.1520   31.4840   46.1330 C   0  0  0  0  0  0  0  0  0  0  0  0
   57.6480   31.5230   44.8360 C   0  0  0  0  0  0  0  0  0  0  0  0
   56.8530   30.1520   44.1180 S   0  0  0  0  0  0  0  0  0  0  0  0
   55.6180   29.7720   44.8540 O   0  0  0  0  0  0  0  0  0  0  0  0
   56.5130   30.4050   42.6710 O   0  0  0  0  0  0  0  0  0  0  0  0
   57.9300   28.7740   44.1130 N   0  0  0  0  0  0  0  0  0  0  0  0
   57.9180   27.9250   45.0880 C   0  0  0  0  0  0  0  0  0  0  0  0
   57.1230   26.8080   45.1220 C   0  0  0  0  0  0  0  0  0  0  0  0
   57.2270   25.9890   46.2530 C   0  0  0  0  0  0  0  0  0  0  0  0
   56.3820   24.7990   46.2860 C   0  0  0  0  0  0  0  0  0  0  0  0
   55.8920   24.5170   47.4360 O   0  0  0  0  0  0  0  0  0  0  0  0
   56.0990   23.9950   45.1680 N   0  0  0  0  0  0  0  0  0  0  0  0
   56.5780   24.2070   43.8300 C   0  0  0  0  0  0  0  0  0  0  0  0
   56.6430   22.9990   42.9680 C   0  0  0  0  0  0  0  0  0  0  0  0
   56.0860   21.8440   43.4310 O   0  0  0  0  0  0  0  0  0  0  0  0
   56.1120   21.6740   44.7840 C   0  0  0  0  0  0  0  0  0  0  0  0
   55.2500   22.8130   45.3620 C   0  0  0  0  0  0  0  0  0  0  0  0
   58.0660   26.2810   47.2600 N   0  0  0  0  0  0  0  0  0  0  0  0
   58.8250   27.3920   47.1740 C   0  0  0  0  0  0  0  0  0  0  0  0
   59.7930   27.7640   48.2560 C   0  0  0  0  0  0  0  0  0  0  0  0
   58.7730   28.2210   46.1150 N   0  0  0  0  0  0  0  0  0  0  0  0
   57.7580   32.6680   44.0530 C   0  0  0  0  0  0  0  0  0  0  0  0
   58.3800   33.7730   44.5860 C   0  0  0  0  0  0  0  0  0  0  0  0
   59.5303   34.9050   47.5476 H   0  0  0  0  0  0  0  0  0  0  0  0
   60.6144   34.9963   46.1183 H   0  0  0  0  0  0  0  0  0  0  0  0
   59.0516   35.8820   46.1183 H   0  0  0  0  0  0  0  0  0  0  0  0
   59.1801   32.6277   47.6439 H   0  0  0  0  0  0  0  0  0  0  0  0
   58.0638   30.5782   46.7509 H   0  0  0  0  0  0  0  0  0  0  0  0
   56.4350   26.5665   44.2984 H   0  0  0  0  0  0  0  0  0  0  0  0
   55.9103   24.9333   43.3435 H   0  0  0  0  0  0  0  0  0  0  0  0
   57.6161   24.5549   43.9358 H   0  0  0  0  0  0  0  0  0  0  0  0
   56.1399   23.2467   42.0217 H   0  0  0  0  0  0  0  0  0  0  0  0
   57.7173   22.7732   42.8976 H   0  0  0  0  0  0  0  0  0  0  0  0
   55.6885   20.6960   45.0562 H   0  0  0  0  0  0  0  0  0  0  0  0
   57.1388   21.7010   45.1777 H   0  0  0  0  0  0  0  0  0  0  0  0
   54.3026   22.9112   44.8117 H   0  0  0  0  0  0  0  0  0  0  0  0
   54.9621   22.6514   46.4113 H   0  0  0  0  0  0  0  0  0  0  0  0
   58.1470   25.6800   48.1090 H   0  0  0  0  0  0  0  0  0  0  0  0
   59.3309   27.5864   49.2383 H   0  0  0  0  0  0  0  0  0  0  0  0
   60.7015   27.1509   48.1619 H   0  0  0  0  0  0  0  0  0  0  0  0
   60.0571   28.8277   48.1619 H   0  0  0  0  0  0  0  0  0  0  0  0
   57.3560   32.6890   43.0293 H   0  0  0  0  0  0  0  0  0  0  0  0
   58.4713   34.6813   43.9723 H   0  0  0  0  0  0  0  0  0  0  0  0
  1  2  1  0
  2  3  2  0
  3  4  1  0
  4  5  2  0
  5  6  1  0
  6  7  2  0
  6  8  2  0
  6  9  1  0
  9 10  2  0
 10 11  1  0
 11 12  2  0
 12 13  1  0
 13 14  2  0
 13 15  1  0
 15 16  1  0
 16 17  1  0
 17 18  1  0
 18 19  1  0
 19 20  1  0
 12 21  1  0
 21 22  1  0
 22 23  1  0
 22 24  2  0
  5 25  1  0
 25 26  2  0
 26  2  1  0
 24 10  1  0
 20 15  1  0
  1 27  1  0
  1 28  1  0
  1 29  1  0
  3 30  1  0
  4 31  1  0
 11 32  1  0
 16 33  1  0
 16 34  1  0
 17 35  1  0
 17 36  1  0
 19 37  1  0
 19 38  1  0
 20 39  1  0
 20 40  1  0
 21 41  1  0
 23 42  1  0
 23 43  1  0
 23 44  1  0
 25 45  1  0
 26 46  1  0
M  END
>  <smiles>  (18) 
Cc1ccc(S(=O)(=O)N=c2cc(C(=O)N3CCOCC3)[nH]c(C)n2)cc1

>  <score_type>  (18) 
oracle

>  <origin>  (18) 
adg

>  <m_score__min__energy>  (18) 
-9.3200000000000003

>  <m_primary>  (18) 
energy

$$$$
18:0
     RDKit          3D

 49 51  0  0  0  0  0  0  0  0999 V2000
   66.3610   33.4750   50.5090 C   0  0  0  0  0  0  0  0  0  0  0  0
   65.0100   32.8450   50.4180 C   0  0  0  0  0  0  0  0  0  0  0  0
   64.2990   32.7480   51.4560 O   0  0  0  0  0  0  0  0  0  0  0  0
   64.5120   32.4060   49.1450 N   0  0  0  0  0  0  0  0  0  0  0  0
   63.3060   31.6430   48.9700 C   0  0  0  0  0  0  0  0  0  0  0  0
   62.8450   30.8360   50.0200 C   0  0  0  0  0  0  0  0  0  0  0  0
   61.6640   30.1000   49.8820 C   0  0  0  0  0  0  0  0  0  0  0  0
   60.9190   30.1760   48.6980 C   0  0  0  0  0  0  0  0  0  0  0  0
   59.4260   29.2510   48.5210 S   0  0  0  0  0  0  0  0  0  0  0  0
   58.3540   29.8790   49.3690 O   0  0  0  0  0  0  0  0  0  0  0  0
   59.6460   27.8470   49.0140 O   0  0  0  0  0  0  0  0  0  0  0  0
   58.8920   29.2030   46.8590 N   0  0  0  0  0  0  0  0  0  0  0  0
   57.9490   28.0880   46.6490 C   0  0  0  0  0  0  0  0  0  0  0  0
   57.8090   27.7110   45.1580 C   0  0  0  0  0  0  0  0  0  0  0  0
   58.1940   28.8100   44.2510 N   0  0  0  0  0  0  0  0  0  0  0  0
   57.0140   30.1060   44.2420 S   0  0  0  0  0  0  0  0  0  0  0  0
   56.4190   30.2760   42.8720 O   0  0  0  0  0  0  0  0  0  0  0  0
   55.9050   29.7700   45.1990 O   0  0  0  0  0  0  0  0  0  0  0  0
   57.7540   31.6190   44.7610 C   0  0  0  0  0  0  0  0  0  0  0  0
   58.1300   32.5900   43.8190 C   0  0  0  0  0  0  0  0  0  0  0  0
   58.7370   33.7780   44.2400 C   0  0  0  0  0  0  0  0  0  0  0  0
   58.9740   34.0000   45.6000 C   0  0  0  0  0  0  0  0  0  0  0  0
   58.6080   33.0330   46.5420 C   0  0  0  0  0  0  0  0  0  0  0  0
   58.9170   33.3070   48.2470 Cl  0  0  0  0  0  0  0  0  0  0  0  0
   58.0000   31.8430   46.1230 C   0  0  0  0  0  0  0  0  0  0  0  0
   59.5670   29.3090   44.4990 C   0  0  0  0  0  0  0  0  0  0  0  0
   60.0390   29.1040   45.9500 C   0  0  0  0  0  0  0  0  0  0  0  0
   61.3620   31.0030   47.6570 C   0  0  0  0  0  0  0  0  0  0  0  0
   62.5450   31.7350   47.7910 C   0  0  0  0  0  0  0  0  0  0  0  0
   66.6354   33.6030   51.5665 H   0  0  0  0  0  0  0  0  0  0  0  0
   67.1009   32.8290   50.0138 H   0  0  0  0  0  0  0  0  0  0  0  0
   66.3418   34.4570   50.0138 H   0  0  0  0  0  0  0  0  0  0  0  0
   65.0170   32.7300   48.2880 H   0  0  0  0  0  0  0  0  0  0  0  0
   63.4162   30.7815   50.9585 H   0  0  0  0  0  0  0  0  0  0  0  0
   61.3186   29.4588   50.7064 H   0  0  0  0  0  0  0  0  0  0  0  0
   58.3109   27.2096   47.2034 H   0  0  0  0  0  0  0  0  0  0  0  0
   56.9608   28.4111   47.0084 H   0  0  0  0  0  0  0  0  0  0  0  0
   58.4539   26.8438   44.9528 H   0  0  0  0  0  0  0  0  0  0  0  0
   56.7488   27.4845   44.9721 H   0  0  0  0  0  0  0  0  0  0  0  0
   57.9470   32.4163   42.7483 H   0  0  0  0  0  0  0  0  0  0  0  0
   59.0282   34.5383   43.5003 H   0  0  0  0  0  0  0  0  0  0  0  0
   59.4487   34.9360   45.9294 H   0  0  0  0  0  0  0  0  0  0  0  0
   57.7147   31.0821   46.8644 H   0  0  0  0  0  0  0  0  0  0  0  0
   60.2579   28.7764   43.8290 H   0  0  0  0  0  0  0  0  0  0  0  0
   59.5578   30.3927   44.3104 H   0  0  0  0  0  0  0  0  0  0  0  0
   60.4993   28.1098   46.0483 H   0  0  0  0  0  0  0  0  0  0  0  0
   60.7768   29.8783   46.2071 H   0  0  0  0  0  0  0  0  0  0  0  0
   60.7754   31.0764   46.7293 H   0  0  0  0  0  0  0  0  0  0  0  0
   62.8822   32.3858   46.9708 H   0  0  0  0  0  0  0  0  0  0  0  0
  1  2  1  0
  2  3  2  0
  2  4  1  0
  4  5  1  0
  5  6  2  0
  6  7  1  0
  7  8  2  0
  8  9  1  0
  9 10  2  0
  9 11  2  0
  9 12  1  0
 12 13  1  0
 13 14  1  0
 14 15  1  0
 15 16  1  0
 16 17  2  0
 16 18  2  0
 16 19  1  0
 19 20  2  0
 20 21  1  0
 21 22  2  0
 22 23  1  0
 23 24  1  0
 23 25  2  0
 15 26  1  0
 26 27  1  0
  8 28  1  0
 28 29  2  0
 29  5  1  0
 27 12  1  0
 25 19  1  0
  1 30  1  0
  1 31  1  0
  1 32  1  0
  4 33  1  0
  6 34  1  0
  7 35  1  0
 13 36  1  0
 13 37  1  0
 14 38  1  0
 14 39  1  0
 20 40  1  0
 21 41  1  0
 22 42  1  0
 25 43  1  0
 26 44  1  0
 26 45  1  0
 27 46  1  0
 27 47  1  0
 28 48  1  0
 29 49  1  0
M  END
>  <UniqueID>  (19) 
16

>  <SMILES>  (19) 
CC(=O)Nc1ccc(S(=O)(=O)N2CCN(S(=O)(=O)c3cccc(Cl)c3)CC2)cc1

>  <Energy>  (19) 
59.71839670661133

>  <Genealogy>  (19) 
CC(=O)Nc1ccc(S(=O)(=O)N2CCN(S(=O)(=O)c3cccc(Cl)c3)CC2)cc1 (3D coordinates assigned)
CC(=O)Nc1ccc(S(=O)(=O)N2CCN(S(=O)(=O)c3cccc(Cl)c3)CC2)cc1 (nonaromatic ring conformer: 59.71839670661133 kcal/mol)

>  <smiles>  (19) 
CC(=O)Nc1ccc(S(=O)(=O)N2CCN(S(=O)(=O)c3cccc(Cl)c3)CC2)cc1

>  <score_type>  (19) 
oracle

>  <origin>  (19) 
adg

>  <m_score__min__energy>  (19) 
-9.8599999999999994

>  <m_primary>  (19) 
energy

$$$$
19:0
     RDKit          3D

 68 71  0  0  0  0  0  0  0  0999 V2000
   60.7040   28.9570   45.0430 C   0  0  0  0  0  0  0  0  0  0  0  0
   59.6260   28.1400   45.7100 C   0  0  0  0  0  0  0  0  0  0  0  0
   59.9940   27.1990   46.6880 C   0  0  0  0  0  0  0  0  0  0  0  0
   59.0240   26.4320   47.3370 C   0  0  0  0  0  0  0  0  0  0  0  0
   57.6770   26.5980   47.0260 C   0  0  0  0  0  0  0  0  0  0  0  0
   57.2920   27.5240   46.0570 C   0  0  0  0  0  0  0  0  0  0  0  0
   58.2520   28.2980   45.3810 C   0  0  0  0  0  0  0  0  0  0  0  0
   57.7660   29.2700   44.3230 C   0  0  0  0  0  0  0  0  0  0  0  0
   57.1980   30.4830   44.9450 N   0  0  0  0  0  0  0  0  0  0  0  0
   56.9000   31.5420   43.9440 C   0  0  0  0  0  0  0  0  0  0  0  0
   57.9770   32.6330   43.9180 C   0  0  0  0  0  0  0  0  0  0  0  0
   58.0770   33.3220   45.2240 N   0  0  0  0  0  0  0  0  0  0  0  0
   59.3720   34.0210   45.3410 C   0  0  0  0  0  0  0  0  0  0  0  0
   59.6030   34.4570   46.7560 C   0  0  0  0  0  0  0  0  0  0  0  0
   59.4600   35.6710   47.0640 O   0  0  0  0  0  0  0  0  0  0  0  0
   59.9860   33.4950   47.7470 N   0  0  0  0  0  0  0  0  0  0  0  0
   60.2100   33.8550   49.1460 C   0  0  0  0  0  0  0  0  0  0  0  0
   59.3520   33.0100   50.0480 C   0  0  0  0  0  0  0  0  0  0  0  0
   58.9430   31.7280   49.6480 C   0  0  0  0  0  0  0  0  0  0  0  0
   58.1490   30.9480   50.4920 C   0  0  0  0  0  0  0  0  0  0  0  0
   57.7580   31.4360   51.7470 C   0  0  0  0  0  0  0  0  0  0  0  0
   56.7990   30.4260   52.8330 S   0  0  0  0  0  0  0  0  0  0  0  0
   56.8300   29.0050   52.3450 O   0  0  0  0  0  0  0  0  0  0  0  0
   57.4090   30.4600   54.2080 O   0  0  0  0  0  0  0  0  0  0  0  0
   55.1390   30.9720   52.9190 N   0  0  0  0  0  0  0  0  0  0  0  0
   54.5090   30.9150   51.5870 C   0  0  0  0  0  0  0  0  0  0  0  0
   52.9760   30.9170   51.7090 C   0  0  0  0  0  0  0  0  0  0  0  0
   52.4460   29.8370   52.4690 O   0  0  0  0  0  0  0  0  0  0  0  0
   53.3900   29.2290   53.3390 C   0  0  0  0  0  0  0  0  0  0  0  0
   54.3760   30.2380   53.9540 C   0  0  0  0  0  0  0  0  0  0  0  0
   58.1470   32.7250   52.1380 C   0  0  0  0  0  0  0  0  0  0  0  0
   58.9380   33.5080   51.2940 C   0  0  0  0  0  0  0  0  0  0  0  0
   57.8160   32.4290   46.3840 C   0  0  0  0  0  0  0  0  0  0  0  0
   58.0680   30.9510   46.0500 C   0  0  0  0  0  0  0  0  0  0  0  0
   61.3316   29.4327   45.8110 H   0  0  0  0  0  0  0  0  0  0  0  0
   61.3258   28.3013   44.4158 H   0  0  0  0  0  0  0  0  0  0  0  0
   60.2408   29.7329   44.4158 H   0  0  0  0  0  0  0  0  0  0  0  0
   61.0554   27.0658   46.9442 H   0  0  0  0  0  0  0  0  0  0  0  0
   59.3249   25.6948   48.0959 H   0  0  0  0  0  0  0  0  0  0  0  0
   56.9154   25.9978   47.5454 H   0  0  0  0  0  0  0  0  0  0  0  0
   56.2256   27.6504   45.8188 H   0  0  0  0  0  0  0  0  0  0  0  0
   58.6120   29.5566   43.6810 H   0  0  0  0  0  0  0  0  0  0  0  0
   56.9818   28.7794   43.7277 H   0  0  0  0  0  0  0  0  0  0  0  0
   56.8390   31.0805   42.9474 H   0  0  0  0  0  0  0  0  0  0  0  0
   55.9472   32.0143   44.2251 H   0  0  0  0  0  0  0  0  0  0  0  0
   58.9475   32.1727   43.6806 H   0  0  0  0  0  0  0  0  0  0  0  0
   57.7007   33.3751   43.1545 H   0  0  0  0  0  0  0  0  0  0  0  0
   60.1803   33.3407   45.0346 H   0  0  0  0  0  0  0  0  0  0  0  0
   59.3590   34.9085   44.6912 H   0  0  0  0  0  0  0  0  0  0  0  0
   60.0790   32.4930   47.4700 H   0  0  0  0  0  0  0  0  0  0  0  0
   61.2687   33.6935   49.3969 H   0  0  0  0  0  0  0  0  0  0  0  0
   59.9451   34.9130   49.2894 H   0  0  0  0  0  0  0  0  0  0  0  0
   59.2488   31.3364   48.6666 H   0  0  0  0  0  0  0  0  0  0  0  0
   57.8289   29.9459   50.1705 H   0  0  0  0  0  0  0  0  0  0  0  0
   54.8255   31.7900   51.0004 H   0  0  0  0  0  0  0  0  0  0  0  0
   54.8223   29.9864   51.0876 H   0  0  0  0  0  0  0  0  0  0  0  0
   52.6702   31.8583   52.1890 H   0  0  0  0  0  0  0  0  0  0  0  0
   52.5795   30.8077   50.6888 H   0  0  0  0  0  0  0  0  0  0  0  0
   52.8453   28.7297   54.1538 H   0  0  0  0  0  0  0  0  0  0  0  0
   53.9775   28.5163   52.7416 H   0  0  0  0  0  0  0  0  0  0  0  0
   53.8110   30.9625   54.5589 H   0  0  0  0  0  0  0  0  0  0  0  0
   55.0940   29.6775   54.5707 H   0  0  0  0  0  0  0  0  0  0  0  0
   57.8280   33.1213   53.1133 H   0  0  0  0  0  0  0  0  0  0  0  0
   59.2379   34.5191   51.6067 H   0  0  0  0  0  0  0  0  0  0  0  0
   58.4778   32.7223   47.2122 H   0  0  0  0  0  0  0  0  0  0  0  0
   56.7564   32.5359   46.6594 H   0  0  0  0  0  0  0  0  0  0  0  0
   59.1198   30.8269   45.7527 H   0  0  0  0  0  0  0  0  0  0  0  0
   57.8382   30.3532   46.9443 H   0  0  0  0  0  0  0  0  0  0  0  0
  1  2  1  0
  2  3  2  0
  3  4  1  0
  4  5  2  0
  5  6  1  0
  6  7  2  0
  7  8  1  0
  8  9  1  0
  9 10  1  0
 10 11  1  0
 11 12  1  0
 12 13  1  0
 13 14  1  0
 14 15  2  0
 14 16  1  0
 16 17  1  0
 17 18  1  0
 18 19  2  0
 19 20  1  0
 20 21  2  0
 21 22  1  0
 22 23  2  0
 22 24  2  0
 22 25  1  0
 25 26  1  0
 26 27  1  0
 27 28  1  0
 28 29  1  0
 29 30  1  0
 21 31  1  0
 31 32  2  0
 12 33  1  0
 33 34  1  0
  7  2  1  0
 34  9  1  0
 32 18  1  0
 30 25  1  0
  1 35  1  0
  1 36  1  0
  1 37  1  0
  3 38  1  0
  4 39  1  0
  5 40  1  0
  6 41  1  0
  8 42  1  0
  8 43  1  0
 10 44  1  0
 10 45  1  0
 11 46  1  0
 11 47  1  0
 13 48  1  0
 13 49  1  0
 16 50  1  0
 17 51  1  0
 17 52  1  0
 19 53  1  0
 20 54  1  0
 26 55  1  0
 26 56  1  0
 27 57  1  0
 27 58  1  0
 29 59  1  0
 29 60  1  0
 30 61  1  0
 30 62  1  0
 31 63  1  0
 32 64  1  0
 33 65  1  0
 33 66  1  0
 34 67  1  0
 34 68  1  0
M  END
>  <UniqueID>  (20) 
17

>  <SMILES>  (20) 
Cc1ccccc1CN1CCN(CC(=O)NCc2ccc(S(=O)(=O)N3CCOCC3)cc2)CC1

>  <Energy>  (20) 
91.57970183798648

>  <Genealogy>  (20) 
Cc1ccccc1CN1CCN(CC(=O)NCc2ccc(S(=O)(=O)N3CCOCC3)cc2)CC1 (3D coordinates assigned)
Cc1ccccc1CN1CCN(CC(=O)NCc2ccc(S(=O)(=O)N3CCOCC3)cc2)CC1 (nonaromatic ring conformer: 91.57970183798648 kcal/mol)

>  <smiles>  (20) 
Cc1ccccc1CN1CCN(CC(=O)NCc2ccc(S(=O)(=O)N3CCOCC3)cc2)CC1

>  <score_type>  (20) 
oracle

>  <origin>  (20) 
adg

>  <m_score__min__energy>  (20) 
-10.07

>  <m_primary>  (20) 
energy

$$$$
20:0
     RDKit          3D

 57 60  0  0  0  0  0  0  0  0999 V2000
   54.3590   28.2780   53.4820 C   0  0  0  0  0  0  0  0  0  0  0  0
   54.6210   29.5310   53.0740 C   0  0  0  0  0  0  0  0  0  0  0  0
   53.7330   30.3980   52.4170 C   0  0  0  0  0  0  0  0  0  0  0  0
   52.4020   30.3130   52.2160 C   0  0  0  0  0  0  0  0  0  0  0  0
   51.6910   30.7400   51.0020 C   0  0  0  0  0  0  0  0  0  0  0  0
   51.6550   30.0170   49.8680 N   0  0  0  0  0  0  0  0  0  0  0  0
   51.0180   30.8300   48.9990 C   0  0  0  0  0  0  0  0  0  0  0  0
   50.7740   30.4950   47.8110 O   0  0  0  0  0  0  0  0  0  0  0  0
   50.6730   32.0370   49.4980 N   0  0  0  0  0  0  0  0  0  0  0  0
   51.1190   31.9710   50.7620 C   0  0  0  0  0  0  0  0  0  0  0  0
   51.0320   33.0210   51.6670 O   0  0  0  0  0  0  0  0  0  0  0  0
   54.4820   31.4820   52.0010 C   0  0  0  0  0  0  0  0  0  0  0  0
   55.7630   31.2860   52.4710 C   0  0  0  0  0  0  0  0  0  0  0  0
   56.8800   32.2740   52.3140 C   0  0  0  0  0  0  0  0  0  0  0  0
   55.8550   30.1060   53.1270 N   0  0  0  0  0  0  0  0  0  0  0  0
   57.0570   29.6190   53.8260 C   0  0  0  0  0  0  0  0  0  0  0  0
   58.1180   29.2200   52.8310 C   0  0  0  0  0  0  0  0  0  0  0  0
   58.0860   29.7150   51.5180 C   0  0  0  0  0  0  0  0  0  0  0  0
   59.0790   29.3550   50.6060 C   0  0  0  0  0  0  0  0  0  0  0  0
   60.1160   28.5030   50.9950 C   0  0  0  0  0  0  0  0  0  0  0  0
   60.1710   28.0050   52.3070 C   0  0  0  0  0  0  0  0  0  0  0  0
   61.2370   27.1230   52.7100 N   0  0  0  0  0  0  0  0  0  0  0  0
   61.2110   26.4840   54.0300 C   0  0  0  0  0  0  0  0  0  0  0  0
   62.1120   25.2380   54.0430 C   0  0  0  0  0  0  0  0  0  0  0  0
   62.0920   24.5310   52.7420 N   0  0  0  0  0  0  0  0  0  0  0  0
   60.7680   23.9650   52.3850 C   0  0  0  0  0  0  0  0  0  0  0  0
   60.8330   22.4500   52.1480 C   0  0  0  0  0  0  0  0  0  0  0  0
   62.1470   22.0600   51.8560 O   0  0  0  0  0  0  0  0  0  0  0  0
   62.6410   25.3780   51.6490 C   0  0  0  0  0  0  0  0  0  0  0  0
   62.3990   26.8910   51.8450 C   0  0  0  0  0  0  0  0  0  0  0  0
   59.1580   28.3560   53.2140 C   0  0  0  0  0  0  0  0  0  0  0  0
   55.1384   27.6905   53.9894 H   0  0  0  0  0  0  0  0  0  0  0  0
   53.3651   27.8396   53.3086 H   0  0  0  0  0  0  0  0  0  0  0  0
   51.7966   29.8878   53.0301 H   0  0  0  0  0  0  0  0  0  0  0  0
   54.1247   32.3372   51.4085 H   0  0  0  0  0  0  0  0  0  0  0  0
   57.2345   32.5875   53.3070 H   0  0  0  0  0  0  0  0  0  0  0  0
   57.7075   31.8069   51.7599 H   0  0  0  0  0  0  0  0  0  0  0  0
   56.5174   33.1524   51.7599 H   0  0  0  0  0  0  0  0  0  0  0  0
   57.4487   30.4178   54.4729 H   0  0  0  0  0  0  0  0  0  0  0  0
   56.7869   28.7410   54.4312 H   0  0  0  0  0  0  0  0  0  0  0  0
   57.2748   30.3895   51.2066 H   0  0  0  0  0  0  0  0  0  0  0  0
   59.0453   29.7433   49.5774 H   0  0  0  0  0  0  0  0  0  0  0  0
   60.8934   28.2209   50.2697 H   0  0  0  0  0  0  0  0  0  0  0  0
   61.5704   27.1985   54.7852 H   0  0  0  0  0  0  0  0  0  0  0  0
   60.1789   26.1790   54.2574 H   0  0  0  0  0  0  0  0  0  0  0  0
   63.1442   25.5473   54.2642 H   0  0  0  0  0  0  0  0  0  0  0  0
   61.7320   24.5494   54.8121 H   0  0  0  0  0  0  0  0  0  0  0  0
   60.0634   24.1658   53.2055 H   0  0  0  0  0  0  0  0  0  0  0  0
   60.4372   24.4404   51.4498 H   0  0  0  0  0  0  0  0  0  0  0  0
   60.4914   21.9260   53.0529 H   0  0  0  0  0  0  0  0  0  0  0  0
   60.1855   22.1926   51.2968 H   0  0  0  0  0  0  0  0  0  0  0  0
   62.7370   22.7950   52.1670 H   0  0  0  0  0  0  0  0  0  0  0  0
   63.7259   25.2060   51.5897 H   0  0  0  0  0  0  0  0  0  0  0  0
   62.1153   25.0883   50.7272 H   0  0  0  0  0  0  0  0  0  0  0  0
   63.2892   27.3420   52.3077 H   0  0  0  0  0  0  0  0  0  0  0  0
   62.2057   27.3481   50.8633 H   0  0  0  0  0  0  0  0  0  0  0  0
   59.1788   27.9499   54.2361 H   0  0  0  0  0  0  0  0  0  0  0  0
  1  2  2  0
  2  3  1  0
  3  4  2  3
  4  5  1  0
  5  6  1  0
  6  7  1  0
  7  8  2  0
  7  9  1  0
  9 10  1  0
 10 11  1  0
  3 12  1  0
 12 13  2  0
 13 14  1  0
 13 15  1  0
 15 16  1  0
 16 17  1  0
 17 18  2  0
 18 19  1  0
 19 20  2  0
 20 21  1  0
 21 22  1  0
 22 23  1  0
 23 24  1  0
 24 25  1  0
 25 26  1  0
 26 27  1  0
 27 28  1  0
 25 29  1  0
 29 30  1  0
 21 31  2  0
 15  2  1  0
 31 17  1  0
 10  5  2  0
 30 22  1  0
  1 32  1  0
  1 33  1  0
  4 34  1  0
 12 35  1  0
 14 36  1  0
 14 37  1  0
 14 38  1  0
 16 39  1  0
 16 40  1  0
 18 41  1  0
 19 42  1  0
 20 43  1  0
 23 44  1  0
 23 45  1  0
 24 46  1  0
 24 47  1  0
 26 48  1  0
 26 49  1  0
 27 50  1  0
 27 51  1  0
 28 52  1  0
 29 53  1  0
 29 54  1  0
 30 55  1  0
 30 56  1  0
 31 57  1  0
M  CHG  3   6  -1   9  -1  11  -1
M  END
>  <UniqueID>  (21) 
18

>  <SMILES>  (21) 
C=c1c(=Cc2[n-]c(=O)[n-]c2[O-])cc(C)n1Cc1cccc(N2CCN(CCO)CC2)c1

>  <Energy>  (21) 
140.21353947663133

>  <Genealogy>  (21) 
C=c1c(=Cc2[n-]c(=O)[n-]c2[O-])cc(C)n1Cc1cccc(N2CCN(CCO)CC2)c1 (protonated)
C=c1c(=Cc2[n-]c(=O)[n-]c2[O-])cc(C)n1Cc1cccc(N2CCN(CCO)CC2)c1 (3D coordinates assigned)
C=c1c(=Cc2[n-]c(=O)[n-]c2[O-])cc(C)n1Cc1cccc(N2CCN(CCO)CC2)c1 (nonaromatic ring conformer: 140.21353947663133 kcal/mol)

>  <smiles>  (21) 
C=c1c(=Cc2[nH]c(=O)[nH]c2O)cc(C)n1Cc1cccc(N2CCN(CCO)CC2)c1

>  <score_type>  (21) 
oracle

>  <origin>  (21) 
adg

>  <m_score__min__energy>  (21) 
-16.41

>  <m_primary>  (21) 
energy

$$$$
21:0
     RDKit          3D

 65 68  0  0  0  0  0  0  0  0999 V2000
   56.2730   29.3510   42.5860 C   0  0  0  0  0  0  0  0  0  0  0  0
   56.9810   30.4720   43.7740 S   0  0  0  0  0  0  0  0  0  0  0  0
   57.3720   31.7630   43.1140 O   0  0  0  0  0  0  0  0  0  0  0  0
   55.9530   30.7600   44.8310 O   0  0  0  0  0  0  0  0  0  0  0  0
   58.3670   29.7400   44.5190 N   0  0  0  0  0  0  0  0  0  0  0  0
   59.2450   30.4500   45.4070 C   0  0  0  0  0  0  0  0  0  0  0  0
   60.3950   29.8130   45.8930 C   0  0  0  0  0  0  0  0  0  0  0  0
   61.2720   30.4860   46.7460 C   0  0  0  0  0  0  0  0  0  0  0  0
   61.0080   31.8070   47.1330 C   0  0  0  0  0  0  0  0  0  0  0  0
   62.1170   32.6540   48.2130 S   0  0  0  0  0  0  0  0  0  0  0  0
   63.5240   32.3960   47.7490 O   0  0  0  0  0  0  0  0  0  0  0  0
   61.8620   34.1290   48.0810 O   0  0  0  0  0  0  0  0  0  0  0  0
   61.9080   32.2190   49.9030 N   0  0  0  0  0  0  0  0  0  0  0  0
   62.2670   30.8230   50.2400 C   0  0  0  0  0  0  0  0  0  0  0  0
   61.0450   29.9200   50.4600 C   0  0  0  0  0  0  0  0  0  0  0  0
   59.9210   30.3870   49.6360 N   0  0  0  0  0  0  0  0  0  0  0  0
   58.8200   29.3960   49.6410 C   0  0  0  0  0  0  0  0  0  0  0  0
   59.0270   28.3770   48.5530 C   0  0  0  0  0  0  0  0  0  0  0  0
   60.2410   27.6830   48.4550 C   0  0  0  0  0  0  0  0  0  0  0  0
   60.4320   26.7720   47.4180 C   0  0  0  0  0  0  0  0  0  0  0  0
   59.4200   26.5610   46.4840 C   0  0  0  0  0  0  0  0  0  0  0  0
   58.2060   27.2510   46.6170 C   0  0  0  0  0  0  0  0  0  0  0  0
   57.1340   27.0490   45.6250 C   0  0  0  0  0  0  0  0  0  0  0  0
   57.4070   27.1440   44.3990 O   0  0  0  0  0  0  0  0  0  0  0  0
   55.7920   26.7200   46.0060 N   0  0  0  0  0  0  0  0  0  0  0  0
   55.1110   25.4650   45.7010 C   0  0  0  0  0  0  0  0  0  0  0  0
   56.0910   24.4370   45.2050 C   0  0  0  0  0  0  0  0  0  0  0  0
   57.0810   23.9380   46.0690 C   0  0  0  0  0  0  0  0  0  0  0  0
   57.9770   22.9610   45.6250 C   0  0  0  0  0  0  0  0  0  0  0  0
   57.8910   22.4730   44.3180 C   0  0  0  0  0  0  0  0  0  0  0  0
   56.9080   22.9630   43.4530 C   0  0  0  0  0  0  0  0  0  0  0  0
   56.0130   23.9450   43.8910 C   0  0  0  0  0  0  0  0  0  0  0  0
   58.0420   28.1380   47.6400 N   0  0  0  0  0  0  0  0  0  0  0  0
   59.4520   31.6940   50.1420 C   0  0  0  0  0  0  0  0  0  0  0  0
   60.6180   32.6580   50.4660 C   0  0  0  0  0  0  0  0  0  0  0  0
   59.8470   32.4410   46.6710 C   0  0  0  0  0  0  0  0  0  0  0  0
   58.9700   31.7670   45.8170 C   0  0  0  0  0  0  0  0  0  0  0  0
   55.7576   28.5350   43.1137 H   0  0  0  0  0  0  0  0  0  0  0  0
   55.5526   29.8923   41.9551 H   0  0  0  0  0  0  0  0  0  0  0  0
   57.0713   28.9331   41.9551 H   0  0  0  0  0  0  0  0  0  0  0  0
   58.6710   28.8130   44.1440 H   0  0  0  0  0  0  0  0  0  0  0  0
   60.6084   28.7744   45.6001 H   0  0  0  0  0  0  0  0  0  0  0  0
   62.1743   29.9771   47.1160 H   0  0  0  0  0  0  0  0  0  0  0  0
   62.8650   30.4072   49.4157 H   0  0  0  0  0  0  0  0  0  0  0  0
   62.8283   30.8492   51.1857 H   0  0  0  0  0  0  0  0  0  0  0  0
   61.2993   28.8876   50.1781 H   0  0  0  0  0  0  0  0  0  0  0  0
   60.7552   29.9561   51.5205 H   0  0  0  0  0  0  0  0  0  0  0  0
   58.7956   28.8861   50.6154 H   0  0  0  0  0  0  0  0  0  0  0  0
   57.8684   29.9187   49.4642 H   0  0  0  0  0  0  0  0  0  0  0  0
   61.0384   27.8566   49.1926 H   0  0  0  0  0  0  0  0  0  0  0  0
   61.3802   26.2204   47.3370 H   0  0  0  0  0  0  0  0  0  0  0  0
   59.5716   25.8599   45.6501 H   0  0  0  0  0  0  0  0  0  0  0  0
   54.6222   25.0885   46.6117 H   0  0  0  0  0  0  0  0  0  0  0  0
   54.3631   25.6494   44.9158 H   0  0  0  0  0  0  0  0  0  0  0  0
   57.1511   24.3178   47.0990 H   0  0  0  0  0  0  0  0  0  0  0  0
   58.7508   22.5757   46.3052 H   0  0  0  0  0  0  0  0  0  0  0  0
   58.5963   21.7039   43.9702 H   0  0  0  0  0  0  0  0  0  0  0  0
   56.8382   22.5756   42.4259 H   0  0  0  0  0  0  0  0  0  0  0  0
   55.2459   24.3332   43.2048 H   0  0  0  0  0  0  0  0  0  0  0  0
   58.8121   32.1590   49.3776 H   0  0  0  0  0  0  0  0  0  0  0  0
   58.9001   31.5119   51.0759 H   0  0  0  0  0  0  0  0  0  0  0  0
   60.3765   33.6494   50.0551 H   0  0  0  0  0  0  0  0  0  0  0  0
   60.7294   32.6802   51.5601 H   0  0  0  0  0  0  0  0  0  0  0  0
   59.6252   33.4727   46.9816 H   0  0  0  0  0  0  0  0  0  0  0  0
   58.0581   32.2700   45.4629 H   0  0  0  0  0  0  0  0  0  0  0  0
  1  2  1  0
  2  3  2  0
  2  4  2  0
  2  5  1  0
  5  6  1  0
  6  7  2  0
  7  8  1  0
  8  9  2  0
  9 10  1  0
 10 11  2  0
 10 12  2  0
 10 13  1  0
 13 14  1  0
 14 15  1  0
 15 16  1  0
 16 17  1  0
 17 18  1  0
 18 19  2  0
 19 20  1  0
 20 21  2  0
 21 22  1  0
 22 23  1  0
 23 24  2  0
 23 25  1  0
 25 26  1  0
 26 27  1  0
 27 28  2  0
 28 29  1  0
 29 30  2  0
 30 31  1  0
 31 32  2  0
 22 33  2  0
 16 34  1  0
 34 35  1  0
  9 36  1  0
 36 37  2  0
 37  6  1  0
 35 13  1  0
 33 18  1  0
 32 27  1  0
  1 38  1  0
  1 39  1  0
  1 40  1  0
  5 41  1  0
  7 42  1  0
  8 43  1  0
 14 44  1  0
 14 45  1  0
 15 46  1  0
 15 47  1  0
 17 48  1  0
 17 49  1  0
 19 50  1  0
 20 51  1  0
 21 52  1  0
 26 53  1  0
 26 54  1  0
 28 55  1  0
 29 56  1  0
 30 57  1  0
 31 58  1  0
 32 59  1  0
 34 60  1  0
 34 61  1  0
 35 62  1  0
 35 63  1  0
 36 64  1  0
 37 65  1  0
M  CHG  1  25  -1
M  END
>  <UniqueID>  (22) 
19

>  <SMILES>  (22) 
CS(=O)(=O)Nc1ccc(S(=O)(=O)N2CCN(Cc3cccc(C(=O)[N-]Cc4ccccc4)n3)CC2)cc1

>  <Energy>  (22) 
76.77872481433079

>  <Genealogy>  (22) 
CS(=O)(=O)Nc1ccc(S(=O)(=O)N2CCN(Cc3cccc(C(=O)[N-]Cc4ccccc4)n3)CC2)cc1 (protonated)
CS(=O)(=O)Nc1ccc(S(=O)(=O)N2CCN(Cc3cccc(C(=O)[N-]Cc4ccccc4)n3)CC2)cc1 (3D coordinates assigned)
CS(=O)(=O)Nc1ccc(S(=O)(=O)N2CCN(Cc3cccc(C(=O)[N-]Cc4ccccc4)n3)CC2)cc1 (nonaromatic ring conformer: 76.77872481433079 kcal/mol)

>  <smiles>  (22) 
CS(=O)(=O)Nc1ccc(S(=O)(=O)N2CCN(Cc3cccc(C(=O)NCc4ccccc4)n3)CC2)cc1

>  <score_type>  (22) 
oracle

>  <origin>  (22) 
adg

>  <m_score__min__energy>  (22) 
-12.880000000000001

>  <m_primary>  (22) 
energy

$$$$
22:0
     RDKit          3D

 44 46  0  0  0  0  0  0  0  0999 V2000
   55.2610   22.8290   47.0120 C   0  0  0  0  0  0  0  0  0  0  0  0
   56.6280   22.9050   47.6200 C   0  0  0  0  0  0  0  0  0  0  0  0
   57.2590   21.8370   47.8340 O   0  0  0  0  0  0  0  0  0  0  0  0
   57.2270   24.1510   48.0020 N   0  0  0  0  0  0  0  0  0  0  0  0
   57.8550   25.1070   47.1370 C   0  0  0  0  0  0  0  0  0  0  0  0
   58.7010   26.1120   47.6330 C   0  0  0  0  0  0  0  0  0  0  0  0
   59.2760   27.0450   46.7640 C   0  0  0  0  0  0  0  0  0  0  0  0
   58.9940   26.9980   45.3860 C   0  0  0  0  0  0  0  0  0  0  0  0
   59.5450   27.9110   44.4740 O   0  0  0  0  0  0  0  0  0  0  0  0
   59.4850   29.3280   44.6190 C   0  0  0  0  0  0  0  0  0  0  0  0
   58.0600   29.7770   44.5360 C   0  0  0  0  0  0  0  0  0  0  0  0
   57.0180   28.9530   44.3420 N   0  0  0  0  0  0  0  0  0  0  0  0
   55.9440   29.7630   44.3360 C   0  0  0  0  0  0  0  0  0  0  0  0
   54.7690   29.3440   44.1690 O   0  0  0  0  0  0  0  0  0  0  0  0
   56.2380   31.0670   44.5230 N   0  0  0  0  0  0  0  0  0  0  0  0
   57.5810   31.0690   44.6620 C   0  0  0  0  0  0  0  0  0  0  0  0
   58.3880   32.3170   44.8540 C   0  0  0  0  0  0  0  0  0  0  0  0
   58.3220   32.7540   46.2890 C   0  0  0  0  0  0  0  0  0  0  0  0
   57.3570   33.4670   46.6790 O   0  0  0  0  0  0  0  0  0  0  0  0
   59.2520   32.2470   47.2550 N   0  0  0  0  0  0  0  0  0  0  0  0
   58.9650   31.5440   48.3160 C   0  0  0  0  0  0  0  0  0  0  0  0
   58.4920   32.1260   49.5110 C   0  0  0  0  0  0  0  0  0  0  0  0
   58.1900   31.3070   50.6040 C   0  0  0  0  0  0  0  0  0  0  0  0
   58.3440   29.9590   50.5110 N   0  0  0  0  0  0  0  0  0  0  0  0
   58.7860   29.3690   49.3680 C   0  0  0  0  0  0  0  0  0  0  0  0
   59.0960   30.1490   48.2520 C   0  0  0  0  0  0  0  0  0  0  0  0
   58.1280   26.0130   44.9000 C   0  0  0  0  0  0  0  0  0  0  0  0
   57.5550   25.0810   45.7700 C   0  0  0  0  0  0  0  0  0  0  0  0
   54.5061   22.7870   47.8110 H   0  0  0  0  0  0  0  0  0  0  0  0
   55.0867   23.7188   46.3893 H   0  0  0  0  0  0  0  0  0  0  0  0
   55.1864   21.9253   46.3893 H   0  0  0  0  0  0  0  0  0  0  0  0
   58.9127   26.1658   48.7111 H   0  0  0  0  0  0  0  0  0  0  0  0
   59.9511   27.8184   47.1591 H   0  0  0  0  0  0  0  0  0  0  0  0
   59.9038   29.6150   45.5948 H   0  0  0  0  0  0  0  0  0  0  0  0
   60.0672   29.8041   43.8163 H   0  0  0  0  0  0  0  0  0  0  0  0
   57.0360   27.9160   44.2170 H   0  0  0  0  0  0  0  0  0  0  0  0
   59.4351   32.1196   44.5809 H   0  0  0  0  0  0  0  0  0  0  0  0
   57.9800   33.1135   44.2143 H   0  0  0  0  0  0  0  0  0  0  0  0
   58.3617   33.2159   49.5827 H   0  0  0  0  0  0  0  0  0  0  0  0
   57.8270   31.7544   51.5411 H   0  0  0  0  0  0  0  0  0  0  0  0
   58.8994   28.2758   49.3226 H   0  0  0  0  0  0  0  0  0  0  0  0
   59.4424   29.6702   47.3242 H   0  0  0  0  0  0  0  0  0  0  0  0
   57.8962   25.9715   43.8255 H   0  0  0  0  0  0  0  0  0  0  0  0
   56.8631   24.3213   45.3774 H   0  0  0  0  0  0  0  0  0  0  0  0
  1  2  1  0
  2  3  2  0
  2  4  1  0
  4  5  1  0
  5  6  2  0
  6  7  1  0
  7  8  2  0
  8  9  1  0
  9 10  1  0
 10 11  1  0
 11 12  1  0
 12 13  1  0
 13 14  2  0
 13 15  1  0
 15 16  1  0
 16 17  1  0
 17 18  1  0
 18 19  2  0
 18 20  1  0
 20 21  2  3
 21 22  1  0
 22 23  2  0
 23 24  1  0
 24 25  1  0
 25 26  2  0
  8 27  1  0
 27 28  2  0
 28  5  1  0
 16 11  2  0
 26 21  1  0
  1 29  1  0
  1 30  1  0
  1 31  1  0
  6 32  1  0
  7 33  1  0
 10 34  1  0
 10 35  1  0
 12 36  1  0
 17 37  1  0
 17 38  1  0
 22 39  1  0
 23 40  1  0
 25 41  1  0
 26 42  1  0
 27 43  1  0
 28 44  1  0
M  CHG  3   4  -1  15  -1  24  -1
M  END
>  <UniqueID>  (23) 
20

>  <SMILES>  (23) 
CC(=O)[N-]c1ccc(OCc2[nH]c(=O)[n-]c2CC(=O)N=c2cc[n-]cc2)cc1

>  <Energy>  (23) 
86.59703776493443

>  <Genealogy>  (23) 
CC(=O)[N-]c1ccc(OCc2[nH]c(=O)[n-]c2CC(=O)N=c2cc[n-]cc2)cc1 (protonated)
CC(=O)[N-]c1ccc(OCc2[nH]c(=O)[n-]c2CC(=O)N=c2cc[n-]cc2)cc1 (3D coordinates assigned)
CC(=O)[N-]c1ccc(OCc2[nH]c(=O)[n-]c2CC(=O)N=c2cc[n-]cc2)cc1 (optimized conformer: 86.59703776493443 kcal/mol)

>  <smiles>  (23) 
CC(=O)Nc1ccc(OCc2[nH]c(=O)[nH]c2CC(=O)N=c2cc[nH]cc2)cc1

>  <score_type>  (23) 
oracle

>  <origin>  (23) 
adg

>  <m_score__min__energy>  (23) 
-11.41

>  <m_primary>  (23) 
energy

$$$$
23:0
     RDKit          3D

 54 56  0  0  0  0  0  0  0  0999 V2000
   54.8440   26.6740   46.0150 O   0  0  0  0  0  0  0  0  0  0  0  0
   55.9600   26.1910   46.3500 C   0  0  0  0  0  0  0  0  0  0  0  0
   56.0670   24.8320   46.6260 O   0  0  0  0  0  0  0  0  0  0  0  0
   57.1770   27.0610   46.3910 C   0  0  0  0  0  0  0  0  0  0  0  0
   57.8890   27.0510   45.0410 C   0  0  0  0  0  0  0  0  0  0  0  0
   57.3920   28.1500   44.2190 N   0  0  0  0  0  0  0  0  0  0  0  0
   56.7410   29.3230   44.7250 C   0  0  0  0  0  0  0  0  0  0  0  0
   55.4910   29.3010   44.8820 O   0  0  0  0  0  0  0  0  0  0  0  0
   57.4780   30.5680   45.0230 C   0  0  0  0  0  0  0  0  0  0  0  0
   58.6140   30.5530   45.8490 C   0  0  0  0  0  0  0  0  0  0  0  0
   59.3060   31.7370   46.1180 C   0  0  0  0  0  0  0  0  0  0  0  0
   58.8600   32.9560   45.5840 C   0  0  0  0  0  0  0  0  0  0  0  0
   59.6040   34.2330   45.8550 C   0  0  0  0  0  0  0  0  0  0  0  0
   60.0960   34.2090   47.1930 O   0  0  0  0  0  0  0  0  0  0  0  0
   61.4220   33.9620   47.5980 C   0  0  0  0  0  0  0  0  0  0  0  0
   62.3540   33.7070   46.5850 C   0  0  0  0  0  0  0  0  0  0  0  0
   63.6900   33.4530   46.8930 C   0  0  0  0  0  0  0  0  0  0  0  0
   64.0930   33.4580   48.2250 C   0  0  0  0  0  0  0  0  0  0  0  0
   63.1870   33.7060   49.2060 N   0  0  0  0  0  0  0  0  0  0  0  0
   61.8690   33.9490   48.9470 C   0  0  0  0  0  0  0  0  0  0  0  0
   61.0460   34.1990   49.9230 N   0  0  0  0  0  0  0  0  0  0  0  0
   59.9800   33.3560   50.3870 C   0  0  0  0  0  0  0  0  0  0  0  0
   59.5940   33.4680   51.5800 O   0  0  0  0  0  0  0  0  0  0  0  0
   59.3170   32.4400   49.5040 N   0  0  0  0  0  0  0  0  0  0  0  0
   58.4810   31.3480   49.9960 C   0  0  0  0  0  0  0  0  0  0  0  0
   59.1700   30.0300   49.7510 C   0  0  0  0  0  0  0  0  0  0  0  0
   58.8990   29.3130   48.5700 C   0  0  0  0  0  0  0  0  0  0  0  0
   59.5500   28.1040   48.3110 C   0  0  0  0  0  0  0  0  0  0  0  0
   60.4840   27.6020   49.2200 C   0  0  0  0  0  0  0  0  0  0  0  0
   60.7710   28.3090   50.3910 C   0  0  0  0  0  0  0  0  0  0  0  0
   60.1220   29.5200   50.6620 C   0  0  0  0  0  0  0  0  0  0  0  0
   60.5320   30.3750   52.1480 Cl  0  0  0  0  0  0  0  0  0  0  0  0
   57.7080   32.9750   44.7820 C   0  0  0  0  0  0  0  0  0  0  0  0
   57.0200   31.7900   44.5080 C   0  0  0  0  0  0  0  0  0  0  0  0
   56.8772   28.0910   46.6342 H   0  0  0  0  0  0  0  0  0  0  0  0
   57.8643   26.6742   47.1578 H   0  0  0  0  0  0  0  0  0  0  0  0
   58.9714   27.1703   45.1967 H   0  0  0  0  0  0  0  0  0  0  0  0
   57.6942   26.0957   44.5315 H   0  0  0  0  0  0  0  0  0  0  0  0
   58.9605   29.6049   46.2861 H   0  0  0  0  0  0  0  0  0  0  0  0
   60.2049   31.7135   46.7516 H   0  0  0  0  0  0  0  0  0  0  0  0
   60.4466   34.3247   45.1539 H   0  0  0  0  0  0  0  0  0  0  0  0
   58.9290   35.0914   45.7227 H   0  0  0  0  0  0  0  0  0  0  0  0
   62.0287   33.7070   45.5342 H   0  0  0  0  0  0  0  0  0  0  0  0
   64.4169   33.2510   46.0925 H   0  0  0  0  0  0  0  0  0  0  0  0
   65.1441   33.2613   48.4830 H   0  0  0  0  0  0  0  0  0  0  0  0
   59.3190   32.6380   48.4770 H   0  0  0  0  0  0  0  0  0  0  0  0
   58.3100   31.4761   51.0751 H   0  0  0  0  0  0  0  0  0  0  0  0
   57.5176   31.3594   49.4652 H   0  0  0  0  0  0  0  0  0  0  0  0
   58.1701   29.7071   47.8465 H   0  0  0  0  0  0  0  0  0  0  0  0
   59.3264   27.5466   47.3894 H   0  0  0  0  0  0  0  0  0  0  0  0
   60.9941   26.6494   49.0142 H   0  0  0  0  0  0  0  0  0  0  0  0
   61.5099   27.9125   51.1029 H   0  0  0  0  0  0  0  0  0  0  0  0
   57.3452   33.9271   44.3674 H   0  0  0  0  0  0  0  0  0  0  0  0
   56.1139   31.8155   43.8848 H   0  0  0  0  0  0  0  0  0  0  0  0
  1  2  2  0
  2  3  1  0
  2  4  1  0
  4  5  1  0
  5  6  1  0
  6  7  1  0
  7  8  2  0
  7  9  1  0
  9 10  2  0
 10 11  1  0
 11 12  2  0
 12 13  1  0
 13 14  1  0
 14 15  1  0
 15 16  2  0
 16 17  1  0
 17 18  2  0
 18 19  1  0
 19 20  1  0
 20 21  2  3
 21 22  1  0
 22 23  2  0
 22 24  1  0
 24 25  1  0
 25 26  1  0
 26 27  2  0
 27 28  1  0
 28 29  2  0
 29 30  1  0
 30 31  2  0
 31 32  1  0
 12 33  1  0
 33 34  2  0
 34  9  1  0
 20 15  1  0
 31 26  1  0
  4 35  1  0
  4 36  1  0
  5 37  1  0
  5 38  1  0
 10 39  1  0
 11 40  1  0
 13 41  1  0
 13 42  1  0
 16 43  1  0
 17 44  1  0
 18 45  1  0
 24 46  1  0
 25 47  1  0
 25 48  1  0
 27 49  1  0
 28 50  1  0
 29 51  1  0
 30 52  1  0
 33 53  1  0
 34 54  1  0
M  CHG  3   3  -1   6  -1  19  -1
M  END
>  <UniqueID>  (24) 
21

>  <SMILES>  (24) 
O=C([O-])CC[N-]C(=O)c1ccc(COc2ccc[n-]c2=NC(=O)NCc2ccccc2Cl)cc1

>  <Energy>  (24) 
63.661787802187746

>  <Genealogy>  (24) 
O=C([O-])CC[N-]C(=O)c1ccc(COc2ccc[n-]c2=NC(=O)NCc2ccccc2Cl)cc1 (protonated)
O=C([O-])CC[N-]C(=O)c1ccc(COc2ccc[n-]c2=NC(=O)NCc2ccccc2Cl)cc1 (3D coordinates assigned)
O=C([O-])CC[N-]C(=O)c1ccc(COc2ccc[n-]c2=NC(=O)NCc2ccccc2Cl)cc1 (optimized conformer: 63.661787802187746 kcal/mol)

>  <smiles>  (24) 
O=C(O)CCNC(=O)c1ccc(COc2ccc[nH]c2=NC(=O)NCc2ccccc2Cl)cc1

>  <score_type>  (24) 
oracle

>  <origin>  (24) 
adg

>  <m_score__min__energy>  (24) 
-14.609999999999999

>  <m_primary>  (24) 
energy

$$$$
24:0
     RDKit          3D

 85 90  0  0  0  0  0  0  0  0999 V2000
   60.9770   33.6200   46.8090 H   0  0  0  0  0  0  0  0  0  0  0  0
   61.9290   34.0030   47.0040 N   0  0  0  0  0  0  0  0  0  0  0  0
   62.9500   32.6500   47.3340 S   0  0  0  0  0  0  0  0  0  0  0  0
   64.1410   32.6910   46.4180 O   0  0  0  0  0  0  0  0  0  0  0  0
   62.1670   31.3920   47.0820 O   0  0  0  0  0  0  0  0  0  0  0  0
   63.4970   32.6690   49.0180 C   0  0  0  0  0  0  0  0  0  0  0  0
   64.8070   33.0640   49.3220 C   0  0  0  0  0  0  0  0  0  0  0  0
   65.4995   33.3282   48.5092 H   0  0  0  0  0  0  0  0  0  0  0  0
   65.2410   33.1250   50.6500 C   0  0  0  0  0  0  0  0  0  0  0  0
   66.2721   33.4338   50.8770 H   0  0  0  0  0  0  0  0  0  0  0  0
   64.3690   32.7950   51.6870 C   0  0  0  0  0  0  0  0  0  0  0  0
   64.7120   32.8440   52.7310 H   0  0  0  0  0  0  0  0  0  0  0  0
   63.0590   32.4020   51.3990 C   0  0  0  0  0  0  0  0  0  0  0  0
   62.3714   32.1450   52.2182 H   0  0  0  0  0  0  0  0  0  0  0  0
   62.6170   32.3340   50.0670 C   0  0  0  0  0  0  0  0  0  0  0  0
   61.2720   31.9120   49.7930 N   0  0  0  0  0  0  0  0  0  0  0  0
   61.0310   31.6270   48.8150 H   0  0  0  0  0  0  0  0  0  0  0  0
   60.2330   31.9660   50.7900 C   0  0  0  0  0  0  0  0  0  0  0  0
   59.9450   33.1750   51.4490 C   0  0  0  0  0  0  0  0  0  0  0  0
   60.5378   34.0744   51.2262 H   0  0  0  0  0  0  0  0  0  0  0  0
   58.9120   33.2390   52.3830 C   0  0  0  0  0  0  0  0  0  0  0  0
   58.6896   34.1897   52.8897 H   0  0  0  0  0  0  0  0  0  0  0  0
   58.1580   32.1000   52.6780 C   0  0  0  0  0  0  0  0  0  0  0  0
   57.3518   32.1532   53.4244 H   0  0  0  0  0  0  0  0  0  0  0  0
   58.4260   30.8970   52.0280 C   0  0  0  0  0  0  0  0  0  0  0  0
   57.8317   30.0020   52.2639 H   0  0  0  0  0  0  0  0  0  0  0  0
   59.4500   30.8240   51.0750 C   0  0  0  0  0  0  0  0  0  0  0  0
   59.7300   29.5290   50.4330 C   0  0  0  0  0  0  0  0  0  0  0  0
   59.3877   28.6156   50.9415 H   0  0  0  0  0  0  0  0  0  0  0  0
   60.3780   29.3950   49.2640 C   0  0  0  0  0  0  0  0  0  0  0  0
   61.1905   30.1076   49.0588 H   0  0  0  0  0  0  0  0  0  0  0  0
   60.1010   28.3830   48.2330 C   0  0  0  0  0  0  0  0  0  0  0  0
   59.8060   27.1960   48.5430 O   0  0  0  0  0  0  0  0  0  0  0  0
   60.2140   28.7570   46.8530 N   0  0  0  0  0  0  0  0  0  0  0  0
   59.2540   29.5070   46.1000 C   0  0  0  0  0  0  0  0  0  0  0  0
   59.3800   30.9000   45.9430 C   0  0  0  0  0  0  0  0  0  0  0  0
   60.2208   31.4281   46.4164 H   0  0  0  0  0  0  0  0  0  0  0  0
   58.4450   31.6190   45.1900 C   0  0  0  0  0  0  0  0  0  0  0  0
   58.5790   33.3740   45.0420 S   0  0  0  0  0  0  0  0  0  0  0  0
   60.0280   33.7440   44.8720 O   0  0  0  0  0  0  0  0  0  0  0  0
   57.8430   33.8230   43.8070 O   0  0  0  0  0  0  0  0  0  0  0  0
   57.9370   34.2160   46.4390 N   0  0  0  0  0  0  0  0  0  0  0  0
   58.9400   35.0910   47.0900 C   0  0  0  0  0  0  0  0  0  0  0  0
   59.7657   35.2637   46.3840 H   0  0  0  0  0  0  0  0  0  0  0  0
   58.4321   36.0275   47.3639 H   0  0  0  0  0  0  0  0  0  0  0  0
   59.5170   34.4850   48.3810 C   0  0  0  0  0  0  0  0  0  0  0  0
   60.5450   34.8489   48.5250 H   0  0  0  0  0  0  0  0  0  0  0  0
   58.8881   34.7878   49.2312 H   0  0  0  0  0  0  0  0  0  0  0  0
   59.5290   33.0790   48.2970 O   0  0  0  0  0  0  0  0  0  0  0  0
   58.2010   32.5900   48.3550 C   0  0  0  0  0  0  0  0  0  0  0  0
   58.2124   31.5183   48.1075 H   0  0  0  0  0  0  0  0  0  0  0  0
   57.8293   32.7761   49.3734 H   0  0  0  0  0  0  0  0  0  0  0  0
   57.2390   33.3110   47.3760 C   0  0  0  0  0  0  0  0  0  0  0  0
   56.6993   32.5509   46.7921 H   0  0  0  0  0  0  0  0  0  0  0  0
   56.5568   33.9270   47.9803 H   0  0  0  0  0  0  0  0  0  0  0  0
   57.3940   30.9360   44.5660 C   0  0  0  0  0  0  0  0  0  0  0  0
   56.6679   31.4929   43.9556 H   0  0  0  0  0  0  0  0  0  0  0  0
   57.2600   29.5550   44.7120 C   0  0  0  0  0  0  0  0  0  0  0  0
   56.4218   29.0314   44.2290 H   0  0  0  0  0  0  0  0  0  0  0  0
   58.1910   28.8320   45.4730 C   0  0  0  0  0  0  0  0  0  0  0  0
   58.0110   27.4180   45.6560 N   0  0  0  0  0  0  0  0  0  0  0  0
   56.8000   26.9090   46.3140 C   0  0  0  0  0  0  0  0  0  0  0  0
   57.0147   26.7207   47.3763 H   0  0  0  0  0  0  0  0  0  0  0  0
   55.9982   27.6564   46.2216 H   0  0  0  0  0  0  0  0  0  0  0  0
   56.3490   25.6030   45.6480 C   0  0  0  0  0  0  0  0  0  0  0  0
   55.5663   25.1381   46.2655 H   0  0  0  0  0  0  0  0  0  0  0  0
   55.9651   25.8405   44.6449 H   0  0  0  0  0  0  0  0  0  0  0  0
   57.4680   24.6600   45.5040 N   0  0  0  0  0  0  0  0  0  0  0  0
   57.1970   23.2740   45.2200 C   0  0  0  0  0  0  0  0  0  0  0  0
   57.1480   22.3280   46.2600 C   0  0  0  0  0  0  0  0  0  0  0  0
   57.3058   22.6510   47.2996 H   0  0  0  0  0  0  0  0  0  0  0  0
   56.9000   20.9790   45.9820 C   0  0  0  0  0  0  0  0  0  0  0  0
   56.8682   20.2446   46.8003 H   0  0  0  0  0  0  0  0  0  0  0  0
   56.6930   20.5670   44.6640 C   0  0  0  0  0  0  0  0  0  0  0  0
   56.4913   19.5082   44.4443 H   0  0  0  0  0  0  0  0  0  0  0  0
   56.7420   21.4990   43.6240 C   0  0  0  0  0  0  0  0  0  0  0  0
   56.5907   21.1696   42.5854 H   0  0  0  0  0  0  0  0  0  0  0  0
   56.9830   22.8510   43.8990 C   0  0  0  0  0  0  0  0  0  0  0  0
   57.0046   23.5828   43.0780 H   0  0  0  0  0  0  0  0  0  0  0  0
   58.8430   25.0880   45.8020 C   0  0  0  0  0  0  0  0  0  0  0  0
   58.9967   25.0798   46.8912 H   0  0  0  0  0  0  0  0  0  0  0  0
   59.5449   24.3951   45.3149 H   0  0  0  0  0  0  0  0  0  0  0  0
   59.0920   26.5030   45.2680 C   0  0  0  0  0  0  0  0  0  0  0  0
   60.0423   26.8778   45.6760 H   0  0  0  0  0  0  0  0  0  0  0  0
   59.1307   26.4576   44.1696 H   0  0  0  0  0  0  0  0  0  0  0  0
  1  2  1  0
  2  3  1  0
  3  4  2  0
  3  5  2  0
  3  6  1  0
  6  7  2  0
  7  8  1  0
  7  9  1  0
  9 10  1  0
  9 11  2  0
 11 12  1  0
 11 13  1  0
 13 14  1  0
 13 15  2  0
 15 16  1  0
 16 17  1  0
 16 18  1  0
 18 19  2  0
 19 20  1  0
 19 21  1  0
 21 22  1  0
 21 23  2  0
 23 24  1  0
 23 25  1  0
 25 26  1  0
 25 27  2  0
 27 28  1  0
 28 29  1  0
 28 30  2  0
 30 31  1  0
 30 32  1  0
 32 33  2  0
 32 34  1  0
 34 35  1  0
 35 36  2  0
 36 37  1  0
 36 38  1  0
 38 39  1  0
 39 40  2  0
 39 41  2  0
 39 42  1  0
 42 43  1  0
 43 44  1  0
 43 45  1  0
 43 46  1  0
 46 47  1  0
 46 48  1  0
 46 49  1  0
 49 50  1  0
 50 51  1  0
 50 52  1  0
 50 53  1  0
 53 54  1  0
 53 55  1  0
 38 56  2  0
 56 57  1  0
 56 58  1  0
 58 59  1  0
 58 60  2  0
 60 61  1  0
 61 62  1  0
 62 63  1  0
 62 64  1  0
 62 65  1  0
 65 66  1  0
 65 67  1  0
 65 68  1  0
 68 69  1  0
 69 70  2  0
 70 71  1  0
 70 72  1  0
 72 73  1  0
 72 74  2  0
 74 75  1  0
 74 76  1  0
 76 77  1  0
 76 78  2  0
 78 79  1  0
 68 80  1  0
 80 81  1  0
 80 82  1  0
 80 83  1  0
 83 84  1  0
 83 85  1  0
 15  6  1  0
 27 18  1  0
 60 35  1  0
 83 61  1  0
 53 42  1  0
 78 69  1  0
M  CHG  2   2  -1  34  -1
M  END
>  <UniqueID>  (25) 
22

>  <SMILES>  (25) 
[NH-]S(=O)(=O)c1ccccc1Nc1ccccc1/C=C\C(=O)[N-]c1cc(S(=O)(=O)N2CCOCC2)ccc1N1CCN(c2ccccc2)CC1

>  <Energy>  (25) 
128.72675193002374

>  <Genealogy>  (25) 
[NH-]S(=O)(=O)c1ccccc1Nc1ccccc1C=CC(=O)[N-]c1cc(S(=O)(=O)N2CCOCC2)ccc1N1CCN(c2ccccc2)CC1 (protonated)
[NH-]S(=O)(=O)c1ccccc1Nc1ccccc1/C=C\C(=O)[N-]c1cc(S(=O)(=O)N2CCOCC2)ccc1N1CCN(c2ccccc2)CC1 (cis-trans isomerization)
[NH-]S(=O)(=O)c1ccccc1Nc1ccccc1/C=C\C(=O)[N-]c1cc(S(=O)(=O)N2CCOCC2)ccc1N1CCN(c2ccccc2)CC1 (3D coordinates assigned)
[NH-]S(=O)(=O)c1ccccc1Nc1ccccc1/C=C\C(=O)[N-]c1cc(S(=O)(=O)N2CCOCC2)ccc1N1CCN(c2ccccc2)CC1 (nonaromatic ring conformer: 128.72675193002374 kcal/mol)

>  <smiles>  (25) 
NS(=O)(=O)c1ccccc1Nc1ccccc1C=CC(=O)Nc1cc(S(=O)(=O)N2CCOCC2)ccc1N1CCN(c2ccccc2)CC1

>  <score_type>  (25) 
oracle

>  <origin>  (25) 
adg

>  <m_score__min__energy>  (25) 
-15.369999999999999

>  <m_primary>  (25) 
energy

$$$$
25:0
     RDKit          3D

 41 43  0  0  0  0  0  0  0  0999 V2000
   56.3260   23.9010   43.9040 C   0  0  0  0  0  0  0  0  0  0  0  0
   56.4510   24.9200   44.7520 C   0  0  0  0  0  0  0  0  0  0  0  0
   57.8390   25.8500   44.9490 S   0  0  0  0  0  0  0  0  0  0  0  0
   57.1390   26.8220   46.1370 C   0  0  0  0  0  0  0  0  0  0  0  0
   57.7650   27.8370   46.7400 C   0  0  0  0  0  0  0  0  0  0  0  0
   57.7680   29.2140   46.1910 C   0  0  0  0  0  0  0  0  0  0  0  0
   58.7800   30.1460   46.5120 C   0  0  0  0  0  0  0  0  0  0  0  0
   60.2190   29.5490   47.3540 Cl  0  0  0  0  0  0  0  0  0  0  0  0
   58.6880   31.4720   46.0100 C   0  0  0  0  0  0  0  0  0  0  0  0
   59.5750   32.5350   46.3580 C   0  0  0  0  0  0  0  0  0  0  0  0
   60.5250   32.4310   47.4330 N   0  0  0  0  0  0  0  0  0  0  0  0
   60.0580   32.4820   48.8260 C   0  0  0  0  0  0  0  0  0  0  0  0
   59.6720   33.9000   49.2340 C   0  0  0  0  0  0  0  0  0  0  0  0
   61.9450   32.2030   47.1270 C   0  0  0  0  0  0  0  0  0  0  0  0
   62.7120   33.5210   47.0670 C   0  0  0  0  0  0  0  0  0  0  0  0
   59.4470   33.7790   45.7200 C   0  0  0  0  0  0  0  0  0  0  0  0
   58.4430   34.0040   44.7830 C   0  0  0  0  0  0  0  0  0  0  0  0
   57.5350   32.9970   44.4800 C   0  0  0  0  0  0  0  0  0  0  0  0
   57.6420   31.7420   45.0860 C   0  0  0  0  0  0  0  0  0  0  0  0
   56.7490   30.8130   44.7740 O   0  0  0  0  0  0  0  0  0  0  0  0
   56.7650   29.5940   45.2880 C   0  0  0  0  0  0  0  0  0  0  0  0
   55.8630   28.7780   44.9540 O   0  0  0  0  0  0  0  0  0  0  0  0
   55.8590   26.4610   46.3880 N   0  0  0  0  0  0  0  0  0  0  0  0
   55.4760   25.4050   45.6240 C   0  0  0  0  0  0  0  0  0  0  0  0
   54.3190   24.9130   45.7100 O   0  0  0  0  0  0  0  0  0  0  0  0
   55.3765   23.3488   43.8438 H   0  0  0  0  0  0  0  0  0  0  0  0
   57.1722   23.6114   43.2637 H   0  0  0  0  0  0  0  0  0  0  0  0
   58.2996   27.6429   47.6816 H   0  0  0  0  0  0  0  0  0  0  0  0
   59.1802   31.8277   48.9330 H   0  0  0  0  0  0  0  0  0  0  0  0
   60.8781   32.1463   49.4777 H   0  0  0  0  0  0  0  0  0  0  0  0
   59.6521   33.9732   50.3314 H   0  0  0  0  0  0  0  0  0  0  0  0
   60.4094   34.6106   48.8324 H   0  0  0  0  0  0  0  0  0  0  0  0
   58.6762   34.1388   48.8324 H   0  0  0  0  0  0  0  0  0  0  0  0
   62.3838   31.5672   47.9101 H   0  0  0  0  0  0  0  0  0  0  0  0
   62.0166   31.7118   46.1454 H   0  0  0  0  0  0  0  0  0  0  0  0
   62.9168   33.8729   48.0889 H   0  0  0  0  0  0  0  0  0  0  0  0
   63.6623   33.3683   46.5344 H   0  0  0  0  0  0  0  0  0  0  0  0
   62.1098   34.2718   46.5344 H   0  0  0  0  0  0  0  0  0  0  0  0
   60.1510   34.5881   45.9645 H   0  0  0  0  0  0  0  0  0  0  0  0
   58.3682   34.9803   44.2817 H   0  0  0  0  0  0  0  0  0  0  0  0
   56.7269   33.1886   43.7587 H   0  0  0  0  0  0  0  0  0  0  0  0
  1  2  2  0
  2  3  1  0
  3  4  1  0
  4  5  2  3
  5  6  1  0
  6  7  2  0
  7  8  1  0
  7  9  1  0
  9 10  2  0
 10 11  1  0
 11 12  1  0
 12 13  1  0
 11 14  1  0
 14 15  1  0
 10 16  1  0
 16 17  2  0
 17 18  1  0
 18 19  2  0
 19 20  1  0
 20 21  1  0
 21 22  2  0
  4 23  1  0
 23 24  1  0
 24 25  2  0
 24  2  1  0
 21  6  1  0
 19  9  1  0
  1 26  1  0
  1 27  1  0
  5 28  1  0
 12 29  1  0
 12 30  1  0
 13 31  1  0
 13 32  1  0
 13 33  1  0
 14 34  1  0
 14 35  1  0
 15 36  1  0
 15 37  1  0
 15 38  1  0
 16 39  1  0
 17 40  1  0
 18 41  1  0
M  CHG  1  23  -1
M  END
>  <UniqueID>  (26) 
23

>  <SMILES>  (26) 
C=c1sc(=Cc2c(Cl)c3c(N(CC)CC)cccc3oc2=O)[n-]c1=O

>  <Energy>  (26) 
91.58279588935801

>  <Genealogy>  (26) 
C=c1sc(=Cc2c(Cl)c3c(N(CC)CC)cccc3oc2=O)[n-]c1=O (protonated)
C=c1sc(=Cc2c(Cl)c3c(N(CC)CC)cccc3oc2=O)[n-]c1=O (3D coordinates assigned)
C=c1sc(=Cc2c(Cl)c3c(N(CC)CC)cccc3oc2=O)[n-]c1=O (optimized conformer: 91.58279588935801 kcal/mol)

>  <smiles>  (26) 
C=c1sc(=Cc2c(Cl)c3c(N(CC)CC)cccc3oc2=O)[nH]c1=O

>  <score_type>  (26) 
oracle

>  <origin>  (26) 
adg

>  <m_score__min__energy>  (26) 
-10.77

>  <m_primary>  (26) 
energy

$$$$
26:0
     RDKit          3D

 39 41  0  0  0  0  0  0  0  0999 V2000
   60.1600   27.5470   46.6130 C   0  0  0  0  0  0  0  0  0  0  0  0
   59.0510   26.8110   46.7500 C   0  0  0  0  0  0  0  0  0  0  0  0
   58.9140   25.9240   47.7570 N   0  0  0  0  0  0  0  0  0  0  0  0
   57.7970   25.2140   47.5200 C   0  0  0  0  0  0  0  0  0  0  0  0
   57.3190   24.1020   48.4010 C   0  0  0  0  0  0  0  0  0  0  0  0
   57.1930   25.6450   46.3510 C   0  0  0  0  0  0  0  0  0  0  0  0
   55.9220   25.1190   45.8070 C   0  0  0  0  0  0  0  0  0  0  0  0
   54.9670   25.9220   45.6110 O   0  0  0  0  0  0  0  0  0  0  0  0
   55.7930   23.7300   45.4180 N   0  0  0  0  0  0  0  0  0  0  0  0
   57.0890   23.2370   44.8980 C   0  0  0  0  0  0  0  0  0  0  0  0
   56.8800   21.9960   44.0120 C   0  0  0  0  0  0  0  0  0  0  0  0
   56.0490   22.2210   42.8790 O   0  0  0  0  0  0  0  0  0  0  0  0
   55.1850   23.3410   43.0150 C   0  0  0  0  0  0  0  0  0  0  0  0
   54.6760   23.5420   44.4540 C   0  0  0  0  0  0  0  0  0  0  0  0
   57.9700   26.6960   45.8590 C   0  0  0  0  0  0  0  0  0  0  0  0
   57.7070   27.3770   44.7240 C   0  0  0  0  0  0  0  0  0  0  0  0
   57.5870   28.8390   44.6170 C   0  0  0  0  0  0  0  0  0  0  0  0
   58.8740   29.9330   44.6020 S   0  0  0  0  0  0  0  0  0  0  0  0
   57.8500   31.2630   44.7060 C   0  0  0  0  0  0  0  0  0  0  0  0
   58.2410   32.4590   44.7190 O   0  0  0  0  0  0  0  0  0  0  0  0
   56.5500   30.9130   44.7880 N   0  0  0  0  0  0  0  0  0  0  0  0
   56.4060   29.5620   44.7570 C   0  0  0  0  0  0  0  0  0  0  0  0
   55.1590   28.9600   44.8630 O   0  0  0  0  0  0  0  0  0  0  0  0
   60.2457   28.2632   45.7825 H   0  0  0  0  0  0  0  0  0  0  0  0
   60.9860   27.4359   47.3309 H   0  0  0  0  0  0  0  0  0  0  0  0
   59.5790   25.7720   48.5490 H   0  0  0  0  0  0  0  0  0  0  0  0
   57.4430   24.3904   49.4553 H   0  0  0  0  0  0  0  0  0  0  0  0
   56.2563   23.9040   48.1975 H   0  0  0  0  0  0  0  0  0  0  0  0
   57.9066   23.1946   48.1975 H   0  0  0  0  0  0  0  0  0  0  0  0
   55.5750   23.1610   46.2690 H   0  0  0  0  0  0  0  0  0  0  0  0
   57.5651   24.0302   44.3028 H   0  0  0  0  0  0  0  0  0  0  0  0
   57.7309   22.9621   45.7480 H   0  0  0  0  0  0  0  0  0  0  0  0
   57.8640   21.6567   43.6561 H   0  0  0  0  0  0  0  0  0  0  0  0
   56.3697   21.2460   44.6341 H   0  0  0  0  0  0  0  0  0  0  0  0
   55.7325   24.2444   42.7083 H   0  0  0  0  0  0  0  0  0  0  0  0
   54.3062   23.1554   42.3799 H   0  0  0  0  0  0  0  0  0  0  0  0
   54.0296   24.4316   44.4812 H   0  0  0  0  0  0  0  0  0  0  0  0
   54.1214   22.6387   44.7479 H   0  0  0  0  0  0  0  0  0  0  0  0
   57.5712   26.7906   43.8033 H   0  0  0  0  0  0  0  0  0  0  0  0
  1  2  2  0
  2  3  1  0
  3  4  1  0
  4  5  1  0
  4  6  2  0
  6  7  1  0
  7  8  2  0
  7  9  1  0
  9 10  1  0
 10 11  1  0
 11 12  1  0
 12 13  1  0
 13 14  1  0
  6 15  1  0
 15 16  2  3
 16 17  1  0
 17 18  1  0
 18 19  1  0
 19 20  2  0
 19 21  1  0
 21 22  1  0
 22 23  1  0
 15  2  1  0
 22 17  2  0
 14  9  1  0
  1 24  1  0
  1 25  1  0
  3 26  1  0
  5 27  1  0
  5 28  1  0
  5 29  1  0
  9 30  1  0
 10 31  1  0
 10 32  1  0
 11 33  1  0
 11 34  1  0
 13 35  1  0
 13 36  1  0
 14 37  1  0
 14 38  1  0
 16 39  1  0
M  CHG  3   9   1  21  -1  23  -1
M  END
>  <UniqueID>  (27) 
24

>  <SMILES>  (27) 
C=c1[nH]c(C)c(C(=O)[NH+]2CCOCC2)c1=Cc1sc(=O)[n-]c1[O-]

>  <Energy>  (27) 
129.98745357370322

>  <Genealogy>  (27) 
C=c1[nH]c(C)c(C(=O)[NH+]2CCOCC2)c1=Cc1sc(=O)[n-]c1[O-] (protonated)
C=c1[nH]c(C)c(C(=O)[NH+]2CCOCC2)c1=Cc1sc(=O)[n-]c1[O-] (3D coordinates assigned)
C=c1[nH]c(C)c(C(=O)[NH+]2CCOCC2)c1=Cc1sc(=O)[n-]c1[O-] (nonaromatic ring conformer: 129.98745357370322 kcal/mol)

>  <smiles>  (27) 
C=c1[nH]c(C)c(C(=O)N2CCOCC2)c1=Cc1sc(=O)[nH]c1O

>  <score_type>  (27) 
oracle

>  <origin>  (27) 
adg

>  <m_score__min__energy>  (27) 
-12.630000000000001

>  <m_primary>  (27) 
energy

$$$$
27:0
     RDKit          3D

 55 58  0  0  0  0  0  0  0  0999 V2000
   56.7740   29.2730   44.4090 C   0  0  0  0  0  0  0  0  0  0  0  0
   55.8840   28.4850   45.2480 N   0  0  0  0  0  0  0  0  0  0  0  0
   56.2670   27.2330   45.8260 C   0  0  0  0  0  0  0  0  0  0  0  0
   55.3980   26.3370   46.0020 O   0  0  0  0  0  0  0  0  0  0  0  0
   57.6900   26.9830   46.1800 C   0  0  0  0  0  0  0  0  0  0  0  0
   58.3760   27.9570   46.9280 C   0  0  0  0  0  0  0  0  0  0  0  0
   59.7360   27.8100   47.2340 C   0  0  0  0  0  0  0  0  0  0  0  0
   60.4510   28.8430   48.0690 C   0  0  0  0  0  0  0  0  0  0  0  0
   60.6020   30.1240   47.3390 N   0  0  0  0  0  0  0  0  0  0  0  0
   59.2830   30.7470   47.0480 C   0  0  0  0  0  0  0  0  0  0  0  0
   58.8790   31.8530   48.0460 C   0  0  0  0  0  0  0  0  0  0  0  0
   59.5420   31.6510   49.3380 N   0  0  0  0  0  0  0  0  0  0  0  0
   58.7880   31.5730   50.5610 C   0  0  0  0  0  0  0  0  0  0  0  0
   58.5320   32.7300   51.3180 C   0  0  0  0  0  0  0  0  0  0  0  0
   57.8090   32.6500   52.5100 C   0  0  0  0  0  0  0  0  0  0  0  0
   57.3420   31.4130   52.9650 C   0  0  0  0  0  0  0  0  0  0  0  0
   56.6230   31.3340   54.1510 O   0  0  0  0  0  0  0  0  0  0  0  0
   57.6010   30.2550   52.2270 C   0  0  0  0  0  0  0  0  0  0  0  0
   58.3230   30.3320   51.0320 C   0  0  0  0  0  0  0  0  0  0  0  0
   61.0040   31.5370   49.3640 C   0  0  0  0  0  0  0  0  0  0  0  0
   61.5310   31.0720   47.9960 C   0  0  0  0  0  0  0  0  0  0  0  0
   60.4270   26.6830   46.7760 C   0  0  0  0  0  0  0  0  0  0  0  0
   59.7610   25.6970   46.0500 C   0  0  0  0  0  0  0  0  0  0  0  0
   58.3910   25.8190   45.7590 C   0  0  0  0  0  0  0  0  0  0  0  0
   57.7220   24.6840   45.0840 C   0  0  0  0  0  0  0  0  0  0  0  0
   57.6180   23.4370   45.7230 C   0  0  0  0  0  0  0  0  0  0  0  0
   57.0060   22.3600   45.0730 C   0  0  0  0  0  0  0  0  0  0  0  0
   56.5080   22.5160   43.7760 C   0  0  0  0  0  0  0  0  0  0  0  0
   55.9030   21.4440   43.1320 O   0  0  0  0  0  0  0  0  0  0  0  0
   56.6210   23.7500   43.1290 C   0  0  0  0  0  0  0  0  0  0  0  0
   57.2270   24.8300   43.7770 C   0  0  0  0  0  0  0  0  0  0  0  0
   57.4460   29.8680   45.0449 H   0  0  0  0  0  0  0  0  0  0  0  0
   57.3698   28.6009   43.7739 H   0  0  0  0  0  0  0  0  0  0  0  0
   56.1790   29.9458   43.7739 H   0  0  0  0  0  0  0  0  0  0  0  0
   57.8361   28.8490   47.2787 H   0  0  0  0  0  0  0  0  0  0  0  0
   59.8734   29.0216   48.9879 H   0  0  0  0  0  0  0  0  0  0  0  0
   61.4550   28.4605   48.3048 H   0  0  0  0  0  0  0  0  0  0  0  0
   59.3228   31.1873   46.0407 H   0  0  0  0  0  0  0  0  0  0  0  0
   58.5287   29.9507   47.1318 H   0  0  0  0  0  0  0  0  0  0  0  0
   59.1721   32.8319   47.6386 H   0  0  0  0  0  0  0  0  0  0  0  0
   57.7901   31.8135   48.1967 H   0  0  0  0  0  0  0  0  0  0  0  0
   58.9038   33.7046   50.9689 H   0  0  0  0  0  0  0  0  0  0  0  0
   57.6066   33.5613   53.0918 H   0  0  0  0  0  0  0  0  0  0  0  0
   57.2364   29.2815   52.5866 H   0  0  0  0  0  0  0  0  0  0  0  0
   58.5284   29.4169   50.4571 H   0  0  0  0  0  0  0  0  0  0  0  0
   61.4396   32.5177   49.6057 H   0  0  0  0  0  0  0  0  0  0  0  0
   61.2903   30.7974   50.1263 H   0  0  0  0  0  0  0  0  0  0  0  0
   61.6598   31.9509   47.3472 H   0  0  0  0  0  0  0  0  0  0  0  0
   62.4881   30.5544   48.1576 H   0  0  0  0  0  0  0  0  0  0  0  0
   61.5006   26.5746   46.9898 H   0  0  0  0  0  0  0  0  0  0  0  0
   60.3140   24.8127   45.7005 H   0  0  0  0  0  0  0  0  0  0  0  0
   58.0196   23.3070   46.7388 H   0  0  0  0  0  0  0  0  0  0  0  0
   56.9165   21.3894   45.5829 H   0  0  0  0  0  0  0  0  0  0  0  0
   56.2320   23.8714   42.1073 H   0  0  0  0  0  0  0  0  0  0  0  0
   57.3168   25.7978   43.2620 H   0  0  0  0  0  0  0  0  0  0  0  0
  1  2  1  0
  2  3  1  0
  3  4  2  0
  3  5  1  0
  5  6  2  0
  6  7  1  0
  7  8  1  0
  8  9  1  0
  9 10  1  0
 10 11  1  0
 11 12  1  0
 12 13  1  0
 13 14  2  0
 14 15  1  0
 15 16  2  0
 16 17  1  0
 16 18  1  0
 18 19  2  0
 12 20  1  0
 20 21  1  0
  7 22  2  0
 22 23  1  0
 23 24  2  0
 24 25  1  0
 25 26  2  0
 26 27  1  0
 27 28  2  0
 28 29  1  0
 28 30  1  0
 30 31  2  0
 24  5  1  0
 31 25  1  0
 21  9  1  0
 19 13  1  0
  1 32  1  0
  1 33  1  0
  1 34  1  0
  6 35  1  0
  8 36  1  0
  8 37  1  0
 10 38  1  0
 10 39  1  0
 11 40  1  0
 11 41  1  0
 14 42  1  0
 15 43  1  0
 18 44  1  0
 19 45  1  0
 20 46  1  0
 20 47  1  0
 21 48  1  0
 21 49  1  0
 22 50  1  0
 23 51  1  0
 26 52  1  0
 27 53  1  0
 30 54  1  0
 31 55  1  0
M  CHG  3   2  -1  17  -1  29  -1
M  END
>  <UniqueID>  (28) 
25

>  <SMILES>  (28) 
C[N-]C(=O)c1cc(CN2CCN(c3ccc([O-])cc3)CC2)ccc1-c1ccc([O-])cc1

>  <Energy>  (28) 
79.36147794216001

>  <Genealogy>  (28) 
C[N-]C(=O)c1cc(CN2CCN(c3ccc([O-])cc3)CC2)ccc1-c1ccc([O-])cc1 (protonated)
C[N-]C(=O)c1cc(CN2CCN(c3ccc([O-])cc3)CC2)ccc1-c1ccc([O-])cc1 (3D coordinates assigned)
C[N-]C(=O)c1cc(CN2CCN(c3ccc([O-])cc3)CC2)ccc1-c1ccc([O-])cc1 (nonaromatic ring conformer: 79.36147794216001 kcal/mol)

>  <smiles>  (28) 
CNC(=O)c1cc(CN2CCN(c3ccc(O)cc3)CC2)ccc1-c1ccc(O)cc1

>  <score_type>  (28) 
oracle

>  <origin>  (28) 
adg

>  <m_score__min__energy>  (28) 
-12.99

>  <m_primary>  (28) 
energy

$$$$
28:0
     RDKit          3D

 56 59  0  0  0  0  0  0  0  0999 V2000
   55.8280   29.3010   45.6010 H   0  0  0  0  0  0  0  0  0  0  0  0
   56.7370   29.7400   45.3230 N   0  0  0  0  0  0  0  0  0  0  0  0
   57.8650   29.7070   46.1960 C   0  0  0  0  0  0  0  0  0  0  0  0
   57.8740   28.9040   47.1680 O   0  0  0  0  0  0  0  0  0  0  0  0
   59.0470   30.6330   45.9750 C   0  0  1  0  0  0  0  0  0  0  0  0
   59.4070   30.4493   44.9519 H   0  0  0  0  0  0  0  0  0  0  0  0
   58.6950   32.0830   46.0050 N   0  0  0  0  0  0  0  0  0  0  0  0
   57.3180   32.4220   45.6090 C   0  0  0  0  0  0  0  0  0  0  0  0
   56.7042   32.5731   46.5093 H   0  0  0  0  0  0  0  0  0  0  0  0
   57.3252   33.3452   45.0109 H   0  0  0  0  0  0  0  0  0  0  0  0
   56.8958   31.6010   45.0109 H   0  0  0  0  0  0  0  0  0  0  0  0
   59.1680   32.8560   47.1820 C   0  0  0  0  0  0  0  0  0  0  0  0
   58.5249   33.7405   47.3007 H   0  0  0  0  0  0  0  0  0  0  0  0
   60.2166   33.1296   46.9933 H   0  0  0  0  0  0  0  0  0  0  0  0
   59.1350   32.0490   48.4900 C   0  0  0  0  0  0  0  0  0  0  0  0
   58.0885   31.9234   48.8047 H   0  0  0  0  0  0  0  0  0  0  0  0
   59.7117   32.6006   49.2471 H   0  0  0  0  0  0  0  0  0  0  0  0
   59.7470   30.7190   48.3270 N   0  0  0  0  0  0  0  0  0  0  0  0
   59.6520   29.7470   49.3920 C   0  0  0  0  0  0  0  0  0  0  0  0
   59.9930   28.5490   49.1830 O   0  0  0  0  0  0  0  0  0  0  0  0
   59.1240   30.1050   50.7260 C   0  0  0  0  0  0  0  0  0  0  0  0
   59.8730   30.9390   51.5740 C   0  0  0  0  0  0  0  0  0  0  0  0
   60.8595   31.3032   51.2513 H   0  0  0  0  0  0  0  0  0  0  0  0
   59.3710   31.3080   52.8250 C   0  0  0  0  0  0  0  0  0  0  0  0
   59.9693   31.9483   53.4899 H   0  0  0  0  0  0  0  0  0  0  0  0
   58.1110   30.8650   53.2320 C   0  0  0  0  0  0  0  0  0  0  0  0
   57.7189   31.1552   54.2179 H   0  0  0  0  0  0  0  0  0  0  0  0
   57.3450   30.0510   52.3860 C   0  0  0  0  0  0  0  0  0  0  0  0
   56.0350   29.6240   52.7890 N   0  0  0  0  0  0  0  0  0  0  0  0
   55.7590   28.5270   53.5250 C   0  0  0  0  0  0  0  0  0  0  0  0
   56.7850   27.5740   54.0600 C   0  0  0  0  0  0  0  0  0  0  0  0
   56.7648   27.5928   55.1597 H   0  0  0  0  0  0  0  0  0  0  0  0
   56.5603   26.5569   53.7065 H   0  0  0  0  0  0  0  0  0  0  0  0
   57.7828   27.8730   53.7065 H   0  0  0  0  0  0  0  0  0  0  0  0
   54.3970   28.3750   53.6640 C   0  0  0  0  0  0  0  0  0  0  0  0
   53.8798   27.5611   54.1932 H   0  0  0  0  0  0  0  0  0  0  0  0
   53.8020   29.4430   53.0100 C   0  0  0  0  0  0  0  0  0  0  0  0
   52.4680   29.6240   52.9830 C   0  0  0  0  0  0  0  0  0  0  0  0
   51.8485   28.8490   53.4580 H   0  0  0  0  0  0  0  0  0  0  0  0
   51.7650   30.7620   52.3770 C   0  0  0  0  0  0  0  0  0  0  0  0
   51.2650   31.7850   53.0930 N   0  0  0  0  0  0  0  0  0  0  0  0
   50.8110   32.6360   52.1460 C   0  0  0  0  0  0  0  0  0  0  0  0
   50.2490   33.7260   52.4290 O   0  0  0  0  0  0  0  0  0  0  0  0
   51.0160   32.2330   50.8750 N   0  0  0  0  0  0  0  0  0  0  0  0
   51.6360   31.0510   51.0330 C   0  0  0  0  0  0  0  0  0  0  0  0
   52.0860   30.2730   49.9710 O   0  0  0  0  0  0  0  0  0  0  0  0
   52.9270   30.5100   49.4590 H   0  0  0  0  0  0  0  0  0  0  0  0
   54.8500   30.1890   52.4440 C   0  0  0  0  0  0  0  0  0  0  0  0
   54.7530   31.2180   51.5890 C   0  0  0  0  0  0  0  0  0  0  0  0
   55.6627   31.7155   51.2217 H   0  0  0  0  0  0  0  0  0  0  0  0
   53.7637   31.5643   51.2552 H   0  0  0  0  0  0  0  0  0  0  0  0
   57.8530   29.6720   51.1340 C   0  0  0  0  0  0  0  0  0  0  0  0
   57.2526   29.0330   50.4698 H   0  0  0  0  0  0  0  0  0  0  0  0
   60.1650   30.3030   46.9790 C   0  0  0  0  0  0  0  0  0  0  0  0
   60.3572   29.2200   46.9719 H   0  0  0  0  0  0  0  0  0  0  0  0
   61.0835   30.8384   46.6966 H   0  0  0  0  0  0  0  0  0  0  0  0
  1  2  1  0
  2  3  1  0
  3  4  2  0
  3  5  1  0
  5  6  1  6
  5  7  1  0
  7  8  1  0
  8  9  1  0
  8 10  1  0
  8 11  1  0
  7 12  1  0
 12 13  1  0
 12 14  1  0
 12 15  1  0
 15 16  1  0
 15 17  1  0
 15 18  1  0
 18 19  1  0
 19 20  2  0
 19 21  1  0
 21 22  2  0
 22 23  1  0
 22 24  1  0
 24 25  1  0
 24 26  2  0
 26 27  1  0
 26 28  1  0
 28 29  1  0
 29 30  1  0
 30 31  1  0
 31 32  1  0
 31 33  1  0
 31 34  1  0
 30 35  2  0
 35 36  1  0
 35 37  1  0
 37 38  2  0
 38 39  1  0
 38 40  1  0
 40 41  1  0
 41 42  1  0
 42 43  2  0
 42 44  1  0
 44 45  1  0
 45 46  1  0
 46 47  1  0
 37 48  1  0
 48 49  2  0
 49 50  1  0
 49 51  1  0
 28 52  2  0
 52 53  1  0
 18 54  1  0
 54 55  1  0
 54 56  1  0
 54  5  1  0
 52 21  1  0
 48 29  1  0
 45 40  2  0
M  CHG  3   2  -1  41  -1  44  -1
M  END
>  <UniqueID>  (29) 
26

>  <SMILES>  (29) 
C=c1/c(=C\c2[n-]c(=O)[n-]c2O)cc(C)n1-c1cccc(C(=O)N2CCN(C)[C@H](C([NH-])=O)C2)c1

>  <Energy>  (29) 
152.36413475922308

>  <Genealogy>  (29) 
C=c1c(=Cc2[n-]c(=O)[n-]c2O)cc(C)n1-c1cccc(C(=O)N2CCN(C)C(C([NH-])=O)C2)c1 (protonated)
C=c1c(=Cc2[n-]c(=O)[n-]c2O)cc(C)n1-c1cccc(C(=O)N2CCN(C)[C@H](C([NH-])=O)C2)c1 (chirality)
C=c1/c(=C\c2[n-]c(=O)[n-]c2O)cc(C)n1-c1cccc(C(=O)N2CCN(C)[C@H](C([NH-])=O)C2)c1 (cis-trans isomerization)
C=c1/c(=C\c2[n-]c(=O)[n-]c2O)cc(C)n1-c1cccc(C(=O)N2CCN(C)[C@H](C([NH-])=O)C2)c1 (3D coordinates assigned)
C=c1/c(=C\c2[n-]c(=O)[n-]c2O)cc(C)n1-c1cccc(C(=O)N2CCN(C)[C@H](C([NH-])=O)C2)c1 (nonaromatic ring conformer: 152.36413475922308 kcal/mol)

>  <smiles>  (29) 
C=c1c(=Cc2[nH]c(=O)[nH]c2O)cc(C)n1-c1cccc(C(=O)N2CCN(C)C(C(N)=O)C2)c1

>  <score_type>  (29) 
oracle

>  <origin>  (29) 
adg

>  <m_score__min__energy>  (29) 
-14.949999999999999

>  <m_primary>  (29) 
energy

$$$$
29:0
     RDKit          3D

 56 59  0  0  0  0  0  0  0  0999 V2000
   58.0710   27.8020   43.7010 C   0  0  0  0  0  0  0  0  0  0  0  0
   58.1340   29.0710   44.0980 C   0  0  0  0  0  0  0  0  0  0  0  0
   57.1270   29.6950   44.9790 C   0  0  0  0  0  0  0  0  0  0  0  0
   55.9830   29.9290   44.5110 O   0  0  0  0  0  0  0  0  0  0  0  0
   57.3900   30.0320   46.3500 N   0  0  0  0  0  0  0  0  0  0  0  0
   58.2900   31.0520   46.8140 C   0  0  0  0  0  0  0  0  0  0  0  0
   59.0870   30.7990   47.9540 C   0  0  0  0  0  0  0  0  0  0  0  0
   59.0810   29.4830   48.6470 C   0  0  0  0  0  0  0  0  0  0  0  0
   58.5170   29.3710   49.7710 O   0  0  0  0  0  0  0  0  0  0  0  0
   59.7720   28.3610   48.0840 N   0  0  0  0  0  0  0  0  0  0  0  0
   59.1840   27.2710   47.3580 C   0  0  0  0  0  0  0  0  0  0  0  0
   57.7940   27.1410   47.2050 C   0  0  0  0  0  0  0  0  0  0  0  0
   57.2600   26.0820   46.4640 C   0  0  0  0  0  0  0  0  0  0  0  0
   58.1060   25.1400   45.8510 C   0  0  0  0  0  0  0  0  0  0  0  0
   57.5550   24.0500   45.0800 N   0  0  0  0  0  0  0  0  0  0  0  0
   58.0440   22.6770   45.2640 C   0  0  0  0  0  0  0  0  0  0  0  0
   56.9200   21.6730   44.9710 C   0  0  0  0  0  0  0  0  0  0  0  0
   56.2840   21.8630   43.6390 N   0  0  0  0  0  0  0  0  0  0  0  0
   56.6470   20.7790   42.7130 C   0  0  0  0  0  0  0  0  0  0  0  0
   56.5400   23.1790   43.0120 C   0  0  0  0  0  0  0  0  0  0  0  0
   56.5450   24.3090   44.0450 C   0  0  0  0  0  0  0  0  0  0  0  0
   59.4980   25.2910   45.9880 C   0  0  0  0  0  0  0  0  0  0  0  0
   60.0290   26.3500   46.7280 C   0  0  0  0  0  0  0  0  0  0  0  0
   59.8770   31.8330   48.4780 C   0  0  0  0  0  0  0  0  0  0  0  0
   59.9050   33.0910   47.8830 C   0  0  0  0  0  0  0  0  0  0  0  0
   59.1610   33.3560   46.7200 C   0  0  0  0  0  0  0  0  0  0  0  0
   59.1980   34.6250   46.0770 C   0  0  0  0  0  0  0  0  0  0  0  0
   59.9150   35.7180   46.5750 O   0  0  0  0  0  0  0  0  0  0  0  0
   58.4900   34.8200   44.8890 C   0  0  0  0  0  0  0  0  0  0  0  0
   57.7510   33.7870   44.3240 C   0  0  0  0  0  0  0  0  0  0  0  0
   57.6890   32.5450   44.9490 C   0  0  0  0  0  0  0  0  0  0  0  0
   58.3660   32.3130   46.1630 C   0  0  0  0  0  0  0  0  0  0  0  0
   58.8517   27.3920   43.0435 H   0  0  0  0  0  0  0  0  0  0  0  0
   57.2382   27.1633   44.0305 H   0  0  0  0  0  0  0  0  0  0  0  0
   58.9785   29.6854   43.7524 H   0  0  0  0  0  0  0  0  0  0  0  0
   57.1215   27.8764   47.6707 H   0  0  0  0  0  0  0  0  0  0  0  0
   56.1693   25.9848   46.3596 H   0  0  0  0  0  0  0  0  0  0  0  0
   58.8832   22.4945   44.5767 H   0  0  0  0  0  0  0  0  0  0  0  0
   58.3780   22.5501   46.3044 H   0  0  0  0  0  0  0  0  0  0  0  0
   57.3408   20.6576   45.0138 H   0  0  0  0  0  0  0  0  0  0  0  0
   56.1381   21.8340   45.7278 H   0  0  0  0  0  0  0  0  0  0  0  0
   56.9448   19.8898   43.2881 H   0  0  0  0  0  0  0  0  0  0  0  0
   55.7822   20.5331   42.0793 H   0  0  0  0  0  0  0  0  0  0  0  0
   57.4855   21.1035   42.0793 H   0  0  0  0  0  0  0  0  0  0  0  0
   57.5187   23.1503   42.5107 H   0  0  0  0  0  0  0  0  0  0  0  0
   55.7328   23.3776   42.2916 H   0  0  0  0  0  0  0  0  0  0  0  0
   56.7766   25.2594   43.5419 H   0  0  0  0  0  0  0  0  0  0  0  0
   55.5538   24.3648   44.5187 H   0  0  0  0  0  0  0  0  0  0  0  0
   60.1744   24.5685   45.5080 H   0  0  0  0  0  0  0  0  0  0  0  0
   61.1198   26.4611   46.8164 H   0  0  0  0  0  0  0  0  0  0  0  0
   60.4853   31.6463   49.3753 H   0  0  0  0  0  0  0  0  0  0  0  0
   60.5175   33.8886   48.3288 H   0  0  0  0  0  0  0  0  0  0  0  0
   59.5180   36.4690   47.1200 H   0  0  0  0  0  0  0  0  0  0  0  0
   58.5175   35.8023   44.3947 H   0  0  0  0  0  0  0  0  0  0  0  0
   57.2129   33.9519   43.3789 H   0  0  0  0  0  0  0  0  0  0  0  0
   57.1043   31.7344   44.4897 H   0  0  0  0  0  0  0  0  0  0  0  0
  1  2  2  0
  2  3  1  0
  3  4  2  0
  3  5  1  0
  5  6  1  0
  6  7  2  0
  7  8  1  0
  8  9  2  0
  8 10  1  0
 10 11  1  0
 11 12  2  0
 12 13  1  0
 13 14  2  0
 14 15  1  0
 15 16  1  0
 16 17  1  0
 17 18  1  0
 18 19  1  0
 18 20  1  0
 20 21  1  0
 14 22  1  0
 22 23  2  0
  7 24  1  0
 24 25  2  0
 25 26  1  0
 26 27  2  0
 27 28  1  0
 27 29  1  0
 29 30  2  0
 30 31  1  0
 31 32  2  0
 32  6  1  0
 23 11  1  0
 32 26  1  0
 21 15  1  0
  1 33  1  0
  1 34  1  0
  2 35  1  0
 12 36  1  0
 13 37  1  0
 16 38  1  0
 16 39  1  0
 17 40  1  0
 17 41  1  0
 19 42  1  0
 19 43  1  0
 19 44  1  0
 20 45  1  0
 20 46  1  0
 21 47  1  0
 21 48  1  0
 22 49  1  0
 23 50  1  0
 24 51  1  0
 25 52  1  0
 28 53  1  0
 29 54  1  0
 30 55  1  0
 31 56  1  0
M  CHG  2   5  -1  10  -1
M  END
>  <UniqueID>  (30) 
27

>  <SMILES>  (30) 
C=CC(=O)[N-]c1c(C(=O)[N-]c2ccc(N3CCN(C)CC3)cc2)ccc2c(O)cccc12

>  <Energy>  (30) 
91.77497051810872

>  <Genealogy>  (30) 
C=CC(=O)[N-]c1c(C(=O)[N-]c2ccc(N3CCN(C)CC3)cc2)ccc2c(O)cccc12 (protonated)
C=CC(=O)[N-]c1c(C(=O)[N-]c2ccc(N3CCN(C)CC3)cc2)ccc2c(O)cccc12 (3D coordinates assigned)
C=CC(=O)[N-]c1c(C(=O)[N-]c2ccc(N3CCN(C)CC3)cc2)ccc2c(O)cccc12 (nonaromatic ring conformer: 91.77497051810872 kcal/mol)

>  <smiles>  (30) 
C=CC(=O)Nc1c(C(=O)Nc2ccc(N3CCN(C)CC3)cc2)ccc2c(O)cccc12

>  <score_type>  (30) 
oracle

>  <origin>  (30) 
adg

>  <m_score__min__energy>  (30) 
-11.029999999999999

>  <m_primary>  (30) 
energy

$$$$
30:0
     RDKit          3D

 63 66  0  0  0  0  0  0  0  0999 V2000
   64.3212   32.5736   51.7190 H   0  0  0  0  0  0  0  0  0  0  0  0
   63.6250   32.8140   50.9020 C   0  0  0  0  0  0  0  0  0  0  0  0
   63.3370   34.1450   50.6030 C   0  0  0  0  0  0  0  0  0  0  0  0
   63.8077   34.9529   51.1824 H   0  0  0  0  0  0  0  0  0  0  0  0
   62.4510   34.4530   49.5680 C   0  0  0  0  0  0  0  0  0  0  0  0
   62.2186   35.5042   49.3421 H   0  0  0  0  0  0  0  0  0  0  0  0
   61.8550   33.4290   48.8140 C   0  0  0  0  0  0  0  0  0  0  0  0
   60.9670   33.7690   47.7350 N   0  0  0  0  0  0  0  0  0  0  0  0
   59.6990   34.4450   48.0040 C   0  0  0  0  0  0  0  0  0  0  0  0
   59.6121   35.3344   47.3626 H   0  0  0  0  0  0  0  0  0  0  0  0
   59.6599   34.7549   49.0587 H   0  0  0  0  0  0  0  0  0  0  0  0
   58.5500   33.4850   47.7060 C   0  0  0  0  0  0  0  0  0  0  0  0
   57.5972   34.0328   47.7507 H   0  0  0  0  0  0  0  0  0  0  0  0
   58.5525   32.6773   48.4528 H   0  0  0  0  0  0  0  0  0  0  0  0
   58.7140   32.9010   46.3630 N   0  0  0  0  0  0  0  0  0  0  0  0
   57.5500   32.6960   45.5340 C   0  0  0  0  0  0  0  0  0  0  0  0
   56.5750   33.4940   45.6220 O   0  0  0  0  0  0  0  0  0  0  0  0
   57.4910   31.5750   44.5250 C   0  0  0  0  0  0  0  0  0  0  0  0
   56.4815   31.1384   44.5400 H   0  0  0  0  0  0  0  0  0  0  0  0
   58.2541   30.8327   44.8019 H   0  0  0  0  0  0  0  0  0  0  0  0
   57.7980   32.0540   43.1070 C   0  0  0  0  0  0  0  0  0  0  0  0
   58.3910   32.9793   43.1529 H   0  0  0  0  0  0  0  0  0  0  0  0
   58.3682   31.2791   42.5736 H   0  0  0  0  0  0  0  0  0  0  0  0
   56.8558   32.2484   42.5736 H   0  0  0  0  0  0  0  0  0  0  0  0
   60.0100   32.2870   46.0260 C   0  0  0  0  0  0  0  0  0  0  0  0
   60.0408   32.0794   44.9462 H   0  0  0  0  0  0  0  0  0  0  0  0
   60.1176   31.3540   46.5986 H   0  0  0  0  0  0  0  0  0  0  0  0
   61.1680   33.2240   46.3910 C   0  0  0  0  0  0  0  0  0  0  0  0
   61.2107   34.0499   45.6657 H   0  0  0  0  0  0  0  0  0  0  0  0
   62.1110   32.6582   46.3683 H   0  0  0  0  0  0  0  0  0  0  0  0
   62.1550   32.0780   49.1030 C   0  0  0  0  0  0  0  0  0  0  0  0
   61.4860   31.0240   48.3880 N   0  0  0  0  0  0  0  0  0  0  0  0
   61.7430   30.8900   47.3870 H   0  0  0  0  0  0  0  0  0  0  0  0
   60.4520   30.1950   48.9490 C   0  0  0  0  0  0  0  0  0  0  0  0
   60.1930   30.2460   50.1810 O   0  0  0  0  0  0  0  0  0  0  0  0
   59.6590   29.2880   48.0980 C   0  0  0  0  0  0  0  0  0  0  0  0
   58.3800   29.7990   47.1280 S   0  0  0  0  0  0  0  0  0  0  0  0
   58.0700   28.2490   46.5400 C   0  0  0  0  0  0  0  0  0  0  0  0
   57.1230   27.9090   45.7160 N   0  0  0  0  0  0  0  0  0  0  0  0
   56.3890   26.6760   45.7020 C   0  0  0  0  0  0  0  0  0  0  0  0
   55.1660   26.7030   46.0010 O   0  0  0  0  0  0  0  0  0  0  0  0
   57.0570   25.3440   45.4290 C   0  0  0  0  0  0  0  0  0  0  0  0
   57.9361   25.3178   46.0897 H   0  0  0  0  0  0  0  0  0  0  0  0
   56.1230   24.1600   45.7280 C   0  0  0  0  0  0  0  0  0  0  0  0
   56.4387   23.6482   46.6491 H   0  0  0  0  0  0  0  0  0  0  0  0
   55.0860   24.4949   45.8778 H   0  0  0  0  0  0  0  0  0  0  0  0
   56.2360   23.2210   44.5380 C   0  0  0  0  0  0  0  0  0  0  0  0
   57.0106   22.4614   44.7193 H   0  0  0  0  0  0  0  0  0  0  0  0
   55.2960   22.6806   44.3526 H   0  0  0  0  0  0  0  0  0  0  0  0
   56.6210   24.1020   43.3650 C   0  0  0  0  0  0  0  0  0  0  0  0
   57.1969   23.5273   42.6247 H   0  0  0  0  0  0  0  0  0  0  0  0
   55.7372   24.4988   42.8439 H   0  0  0  0  0  0  0  0  0  0  0  0
   57.4740   25.2120   43.9570 C   0  0  0  0  0  0  0  0  0  0  0  0
   58.5402   24.9510   43.8860 H   0  0  0  0  0  0  0  0  0  0  0  0
   57.3275   26.1582   43.4155 H   0  0  0  0  0  0  0  0  0  0  0  0
   58.8920   27.3350   47.0960 N   0  0  0  0  0  0  0  0  0  0  0  0
   59.7740   27.8970   47.9670 C   0  0  0  0  0  0  0  0  0  0  0  0
   60.7270   27.0440   48.7410 C   0  0  0  0  0  0  0  0  0  0  0  0
   60.5607   27.1929   49.8181 H   0  0  0  0  0  0  0  0  0  0  0  0
   60.5618   25.9865   48.4872 H   0  0  0  0  0  0  0  0  0  0  0  0
   61.7598   27.3250   48.4872 H   0  0  0  0  0  0  0  0  0  0  0  0
   63.0320   31.7850   50.1670 C   0  0  0  0  0  0  0  0  0  0  0  0
   63.2511   30.7373   50.4205 H   0  0  0  0  0  0  0  0  0  0  0  0
  1  2  1  0
  2  3  2  0
  3  4  1  0
  3  5  1  0
  5  6  1  0
  5  7  2  0
  7  8  1  0
  8  9  1  0
  9 10  1  0
  9 11  1  0
  9 12  1  0
 12 13  1  0
 12 14  1  0
 12 15  1  0
 15 16  1  0
 16 17  2  0
 16 18  1  0
 18 19  1  0
 18 20  1  0
 18 21  1  0
 21 22  1  0
 21 23  1  0
 21 24  1  0
 15 25  1  0
 25 26  1  0
 25 27  1  0
 25 28  1  0
 28 29  1  0
 28 30  1  0
  7 31  1  0
 31 32  1  0
 32 33  1  0
 32 34  1  0
 34 35  2  0
 34 36  1  0
 36 37  1  0
 37 38  1  0
 38 39  2  0
 39 40  1  0
 40 41  2  0
 40 42  1  0
 42 43  1  0
 42 44  1  0
 44 45  1  0
 44 46  1  0
 44 47  1  0
 47 48  1  0
 47 49  1  0
 47 50  1  0
 50 51  1  0
 50 52  1  0
 50 53  1  0
 53 54  1  0
 53 55  1  0
 38 56  1  0
 56 57  1  0
 57 58  1  0
 58 59  1  0
 58 60  1  0
 58 61  1  0
 31 62  2  0
 62 63  1  0
 62  2  1  0
 28  8  1  0
 57 36  2  0
 53 42  1  0
M  CHG  1  56  -1
M  END
>  <UniqueID>  (31) 
28

>  <SMILES>  (31) 
CCC(=O)N1CCN(c2ccccc2NC(=O)c2s/c(=N\C(=O)C3CCCC3)[n-]c2C)CC1

>  <Energy>  (31) 
111.56221764331157

>  <Genealogy>  (31) 
CCC(=O)N1CCN(c2ccccc2NC(=O)c2sc(=NC(=O)C3CCCC3)[n-]c2C)CC1 (protonated)
CCC(=O)N1CCN(c2ccccc2NC(=O)c2s/c(=N\C(=O)C3CCCC3)[n-]c2C)CC1 (cis-trans isomerization)
CCC(=O)N1CCN(c2ccccc2NC(=O)c2s/c(=N\C(=O)C3CCCC3)[n-]c2C)CC1 (3D coordinates assigned)
CCC(=O)N1CCN(c2ccccc2NC(=O)c2s/c(=N\C(=O)C3CCCC3)[n-]c2C)CC1 (nonaromatic ring conformer: 111.56221764331157 kcal/mol)

>  <smiles>  (31) 
CCC(=O)N1CCN(c2ccccc2NC(=O)c2sc(=NC(=O)C3CCCC3)[nH]c2C)CC1

>  <score_type>  (31) 
oracle

>  <origin>  (31) 
adg

>  <m_score__min__energy>  (31) 
-11.32

>  <m_primary>  (31) 
energy

$$$$
31:0
     RDKit          3D

 65 68  0  0  0  0  0  0  0  0999 V2000
   60.0090   27.1070   46.0480 C   0  0  0  0  0  0  0  0  0  0  0  0
   59.4230   28.4630   45.7840 C   0  0  0  0  0  0  0  0  0  0  0  0
   60.0200   29.6090   46.3270 C   0  0  0  0  0  0  0  0  0  0  0  0
   59.5000   30.8740   46.0470 C   0  0  0  0  0  0  0  0  0  0  0  0
   58.3770   31.0170   45.2160 C   0  0  0  0  0  0  0  0  0  0  0  0
   57.8550   32.3990   44.9090 C   0  0  0  0  0  0  0  0  0  0  0  0
   57.8130   33.2360   46.1590 C   0  0  0  0  0  0  0  0  0  0  0  0
   56.6990   33.4740   46.7030 O   0  0  0  0  0  0  0  0  0  0  0  0
   59.0170   33.7370   46.7640 N   0  0  0  0  0  0  0  0  0  0  0  0
   59.1140   33.7910   48.2280 C   0  0  0  0  0  0  0  0  0  0  0  0
   60.5590   34.0430   48.6670 C   0  0  0  0  0  0  0  0  0  0  0  0
   61.4610   33.2900   47.7830 N   0  0  0  0  0  0  0  0  0  0  0  0
   63.0810   33.2660   48.4390 S   0  0  0  0  0  0  0  0  0  0  0  0
   64.0660   33.0580   47.3230 O   0  0  0  0  0  0  0  0  0  0  0  0
   63.3790   34.5910   49.0840 O   0  0  0  0  0  0  0  0  0  0  0  0
   63.2750   31.9770   49.6300 C   0  0  0  0  0  0  0  0  0  0  0  0
   64.5020   31.8020   50.2820 C   0  0  0  0  0  0  0  0  0  0  0  0
   64.6660   30.7710   51.2100 C   0  0  0  0  0  0  0  0  0  0  0  0
   63.6070   29.8980   51.5040 C   0  0  0  0  0  0  0  0  0  0  0  0
   63.8100   28.8370   52.4550 N   0  0  0  0  0  0  0  0  0  0  0  0
   64.3390   27.5210   52.0900 C   0  0  0  0  0  0  0  0  0  0  0  0
   65.8140   27.6060   51.7990 C   0  0  0  0  0  0  0  0  0  0  0  0
   66.4060   26.7020   50.9060 C   0  0  0  0  0  0  0  0  0  0  0  0
   67.7680   26.8080   50.6260 C   0  0  0  0  0  0  0  0  0  0  0  0
   68.5230   27.8170   51.2200 C   0  0  0  0  0  0  0  0  0  0  0  0
   67.8990   28.7290   52.0820 C   0  0  0  0  0  0  0  0  0  0  0  0
   68.7050   29.8030   52.7500 C   0  0  0  0  0  0  0  0  0  0  0  0
   66.5670   28.5980   52.3580 N   0  0  0  0  0  0  0  0  0  0  0  0
   62.3710   30.0840   50.8520 C   0  0  0  0  0  0  0  0  0  0  0  0
   62.2090   31.1170   49.9250 C   0  0  0  0  0  0  0  0  0  0  0  0
   61.4700   33.8380   46.4090 C   0  0  0  0  0  0  0  0  0  0  0  0
   60.0840   34.3460   45.9580 C   0  0  0  0  0  0  0  0  0  0  0  0
   57.7930   29.8650   44.6430 C   0  0  0  0  0  0  0  0  0  0  0  0
   56.2870   29.9660   43.4560 Br  0  0  0  0  0  0  0  0  0  0  0  0
   58.3210   28.6010   44.9290 C   0  0  0  0  0  0  0  0  0  0  0  0
   60.0798   26.9432   47.1334 H   0  0  0  0  0  0  0  0  0  0  0  0
   59.3639   26.3356   45.6020 H   0  0  0  0  0  0  0  0  0  0  0  0
   61.0128   27.0482   45.6020 H   0  0  0  0  0  0  0  0  0  0  0  0
   60.9022   29.5112   46.9767 H   0  0  0  0  0  0  0  0  0  0  0  0
   59.9741   31.7666   46.4811 H   0  0  0  0  0  0  0  0  0  0  0  0
   58.5158   32.8804   44.1730 H   0  0  0  0  0  0  0  0  0  0  0  0
   56.8359   32.3126   44.5041 H   0  0  0  0  0  0  0  0  0  0  0  0
   58.4760   34.6052   48.6021 H   0  0  0  0  0  0  0  0  0  0  0  0
   58.7831   32.8261   48.6396 H   0  0  0  0  0  0  0  0  0  0  0  0
   60.7846   35.1173   48.5970 H   0  0  0  0  0  0  0  0  0  0  0  0
   60.6960   33.7148   49.7079 H   0  0  0  0  0  0  0  0  0  0  0  0
   65.3403   32.4795   50.0623 H   0  0  0  0  0  0  0  0  0  0  0  0
   65.6345   30.6420   51.7153 H   0  0  0  0  0  0  0  0  0  0  0  0
   63.5730   29.0230   53.4580 H   0  0  0  0  0  0  0  0  0  0  0  0
   64.1743   26.8213   52.9227 H   0  0  0  0  0  0  0  0  0  0  0  0
   63.8189   27.1670   51.1877 H   0  0  0  0  0  0  0  0  0  0  0  0
   65.8014   25.9158   50.4302 H   0  0  0  0  0  0  0  0  0  0  0  0
   68.2456   26.0958   49.9370 H   0  0  0  0  0  0  0  0  0  0  0  0
   69.6006   27.8972   51.0140 H   0  0  0  0  0  0  0  0  0  0  0  0
   68.6248   29.6961   53.8419 H   0  0  0  0  0  0  0  0  0  0  0  0
   69.7590   29.7112   52.4490 H   0  0  0  0  0  0  0  0  0  0  0  0
   68.3223   30.7894   52.4490 H   0  0  0  0  0  0  0  0  0  0  0  0
   66.1130   29.2760   53.0120 H   0  0  0  0  0  0  0  0  0  0  0  0
   61.5290   29.4119   51.0743 H   0  0  0  0  0  0  0  0  0  0  0  0
   61.2395   31.2557   49.4243 H   0  0  0  0  0  0  0  0  0  0  0  0
   62.1813   34.6762   46.3697 H   0  0  0  0  0  0  0  0  0  0  0  0
   61.7610   33.0233   45.7296 H   0  0  0  0  0  0  0  0  0  0  0  0
   60.0450   35.4391   46.0750 H   0  0  0  0  0  0  0  0  0  0  0  0
   59.9324   34.0678   44.9046 H   0  0  0  0  0  0  0  0  0  0  0  0
   57.8665   27.7065   44.4781 H   0  0  0  0  0  0  0  0  0  0  0  0
  1  2  1  0
  2  3  2  0
  3  4  1  0
  4  5  2  0
  5  6  1  0
  6  7  1  0
  7  8  2  0
  7  9  1  0
  9 10  1  0
 10 11  1  0
 11 12  1  0
 12 13  1  0
 13 14  2  0
 13 15  2  0
 13 16  1  0
 16 17  2  0
 17 18  1  0
 18 19  2  0
 19 20  1  0
 20 21  1  0
 21 22  1  0
 22 23  2  0
 23 24  1  0
 24 25  2  0
 25 26  1  0
 26 27  1  0
 26 28  2  0
 19 29  1  0
 29 30  2  0
 12 31  1  0
 31 32  1  0
  5 33  1  0
 33 34  1  0
 33 35  2  0
 35  2  1  0
 32  9  1  0
 30 16  1  0
 28 22  1  0
  1 36  1  0
  1 37  1  0
  1 38  1  0
  3 39  1  0
  4 40  1  0
  6 41  1  0
  6 42  1  0
 10 43  1  0
 10 44  1  0
 11 45  1  0
 11 46  1  0
 17 47  1  0
 18 48  1  0
 20 49  1  0
 21 50  1  0
 21 51  1  0
 23 52  1  0
 24 53  1  0
 25 54  1  0
 27 55  1  0
 27 56  1  0
 27 57  1  0
 28 58  1  0
 29 59  1  0
 30 60  1  0
 31 61  1  0
 31 62  1  0
 32 63  1  0
 32 64  1  0
 35 65  1  0
M  CHG  1  28   1
M  END
>  <UniqueID>  (32) 
29

>  <SMILES>  (32) 
Cc1ccc(CC(=O)N2CCN(S(=O)(=O)c3ccc(NCc4cccc(C)[nH+]4)cc3)CC2)c(Br)c1

>  <Energy>  (32) 
70.9627687366188

>  <Genealogy>  (32) 
Cc1ccc(CC(=O)N2CCN(S(=O)(=O)c3ccc(NCc4cccc(C)[nH+]4)cc3)CC2)c(Br)c1 (protonated)
Cc1ccc(CC(=O)N2CCN(S(=O)(=O)c3ccc(NCc4cccc(C)[nH+]4)cc3)CC2)c(Br)c1 (3D coordinates assigned)
Cc1ccc(CC(=O)N2CCN(S(=O)(=O)c3ccc(NCc4cccc(C)[nH+]4)cc3)CC2)c(Br)c1 (nonaromatic ring conformer: 70.9627687366188 kcal/mol)

>  <smiles>  (32) 
Cc1ccc(CC(=O)N2CCN(S(=O)(=O)c3ccc(NCc4cccc(C)n4)cc3)CC2)c(Br)c1

>  <score_type>  (32) 
oracle

>  <origin>  (32) 
adg

>  <m_score__min__energy>  (32) 
-8.8200000000000003

>  <m_primary>  (32) 
energy

$$$$
32:0
     RDKit          3D

 35 37  0  0  0  0  0  0  0  0999 V2000
   58.5470   32.7030   47.7930 C   0  0  0  0  0  0  0  0  0  0  0  0
   58.2790   32.3960   46.3490 C   0  0  0  0  0  0  0  0  0  0  0  0
   58.3690   33.4070   45.3860 C   0  0  0  0  0  0  0  0  0  0  0  0
   58.0850   33.1320   44.0480 C   0  0  0  0  0  0  0  0  0  0  0  0
   57.6980   31.8410   43.6460 C   0  0  0  0  0  0  0  0  0  0  0  0
   57.3850   31.6020   42.1920 C   0  0  0  0  0  0  0  0  0  0  0  0
   57.5670   30.8190   44.6220 C   0  0  0  0  0  0  0  0  0  0  0  0
   57.1100   29.4170   44.2690 C   0  0  0  0  0  0  0  0  0  0  0  0
   57.8600   28.4030   45.0240 N   0  0  0  0  0  0  0  0  0  0  0  0
   59.3030   28.4250   45.1030 C   0  0  0  0  0  0  0  0  0  0  0  0
   59.9570   29.3660   44.5780 O   0  0  0  0  0  0  0  0  0  0  0  0
   60.0570   27.2720   45.7330 C   0  0  0  0  0  0  0  0  0  0  0  0
   59.2550   26.5940   46.8600 C   0  0  0  0  0  0  0  0  0  0  0  0
   57.8580   26.4570   46.4640 N   0  0  0  0  0  0  0  0  0  0  0  0
   57.1990   27.3090   45.6720 C   0  0  0  0  0  0  0  0  0  0  0  0
   55.8780   27.0350   45.6180 N   0  0  0  0  0  0  0  0  0  0  0  0
   55.6800   25.9900   46.4120 N   0  0  0  0  0  0  0  0  0  0  0  0
   56.8820   25.6630   46.9270 C   0  0  0  0  0  0  0  0  0  0  0  0
   57.0610   24.7340   47.7580 O   0  0  0  0  0  0  0  0  0  0  0  0
   57.8640   31.1140   45.9660 C   0  0  0  0  0  0  0  0  0  0  0  0
   57.9561   32.0261   48.4276 H   0  0  0  0  0  0  0  0  0  0  0  0
   59.6173   32.5633   48.0050 H   0  0  0  0  0  0  0  0  0  0  0  0
   58.2641   33.7446   48.0050 H   0  0  0  0  0  0  0  0  0  0  0  0
   58.6650   34.4233   45.6852 H   0  0  0  0  0  0  0  0  0  0  0  0
   58.1646   33.9338   43.2992 H   0  0  0  0  0  0  0  0  0  0  0  0
   56.5132   30.9363   42.1092 H   0  0  0  0  0  0  0  0  0  0  0  0
   57.1615   32.5614   41.7025 H   0  0  0  0  0  0  0  0  0  0  0  0
   58.2517   31.1337   41.7025 H   0  0  0  0  0  0  0  0  0  0  0  0
   56.0398   29.3195   44.5041 H   0  0  0  0  0  0  0  0  0  0  0  0
   57.2902   29.2537   43.1962 H   0  0  0  0  0  0  0  0  0  0  0  0
   60.2749   26.5251   44.9554 H   0  0  0  0  0  0  0  0  0  0  0  0
   60.9808   27.6752   46.1735 H   0  0  0  0  0  0  0  0  0  0  0  0
   59.6768   25.5978   47.0590 H   0  0  0  0  0  0  0  0  0  0  0  0
   59.3144   27.2119   47.7681 H   0  0  0  0  0  0  0  0  0  0  0  0
   57.7687   30.3257   46.7272 H   0  0  0  0  0  0  0  0  0  0  0  0
  1  2  1  0
  2  3  2  0
  3  4  1  0
  4  5  2  0
  5  6  1  0
  5  7  1  0
  7  8  1  0
  8  9  1  0
  9 10  1  0
 10 11  2  0
 10 12  1  0
 12 13  1  0
 13 14  1  0
 14 15  1  0
 15 16  2  0
 16 17  1  0
 17 18  1  0
 18 19  2  0
  7 20  2  0
 20  2  1  0
 15  9  1  0
 18 14  1  0
  1 21  1  0
  1 22  1  0
  1 23  1  0
  3 24  1  0
  4 25  1  0
  6 26  1  0
  6 27  1  0
  6 28  1  0
  8 29  1  0
  8 30  1  0
 12 31  1  0
 12 32  1  0
 13 33  1  0
 13 34  1  0
 20 35  1  0
M  CHG  1  17  -1
M  END
>  <UniqueID>  (33) 
30

>  <SMILES>  (33) 
Cc1ccc(C)c(CN2C(=O)CCn3c2n[n-]c3=O)c1

>  <Energy>  (33) 
75.0333288533518

>  <Genealogy>  (33) 
Cc1ccc(C)c(CN2C(=O)CCn3c2n[n-]c3=O)c1 (protonated)
Cc1ccc(C)c(CN2C(=O)CCn3c2n[n-]c3=O)c1 (3D coordinates assigned)
Cc1ccc(C)c(CN2C(=O)CCn3c2n[n-]c3=O)c1 (nonaromatic ring conformer: 75.0333288533518 kcal/mol)

>  <smiles>  (33) 
Cc1ccc(C)c(CN2C(=O)CCn3c2n[nH]c3=O)c1

>  <score_type>  (33) 
oracle

>  <origin>  (33) 
adg

>  <m_score__min__energy>  (33) 
-8.8900000000000006

>  <m_primary>  (33) 
energy

$$$$
33:0
     RDKit          3D

 47 49  0  0  0  0  0  0  0  0999 V2000
   63.3510   33.4850   47.7650 C   0  0  0  0  0  0  0  0  0  0  0  0
   62.1280   33.9640   48.3140 O   0  0  0  0  0  0  0  0  0  0  0  0
   60.8740   33.8180   47.7010 C   0  0  0  0  0  0  0  0  0  0  0  0
   59.7580   33.2890   48.3790 C   0  0  0  0  0  0  0  0  0  0  0  0
   58.5300   33.1650   47.7250 C   0  0  0  0  0  0  0  0  0  0  0  0
   58.3960   33.5590   46.3850 C   0  0  0  0  0  0  0  0  0  0  0  0
   57.0620   33.4680   45.6960 C   0  0  0  0  0  0  0  0  0  0  0  0
   57.0990   32.3980   44.6520 C   0  0  0  0  0  0  0  0  0  0  0  0
   57.8330   32.5310   43.6340 O   0  0  0  0  0  0  0  0  0  0  0  0
   56.2660   31.2460   44.7970 N   0  0  0  0  0  0  0  0  0  0  0  0
   56.2840   30.1310   43.8590 C   0  0  0  0  0  0  0  0  0  0  0  0
   57.3410   29.1640   44.2710 C   0  0  0  0  0  0  0  0  0  0  0  0
   58.6620   29.3800   44.1300 N   0  0  0  0  0  0  0  0  0  0  0  0
   59.2660   28.3090   44.6220 N   0  0  0  0  0  0  0  0  0  0  0  0
   58.2860   27.4880   45.0440 C   0  0  0  0  0  0  0  0  0  0  0  0
   58.5780   25.9070   45.8340 S   0  0  0  0  0  0  0  0  0  0  0  0
   57.2050   26.0790   47.0280 C   0  0  0  0  0  0  0  0  0  0  0  0
   55.8930   25.7690   46.3830 C   0  0  0  0  0  0  0  0  0  0  0  0
   55.1400   26.7090   46.0120 O   0  0  0  0  0  0  0  0  0  0  0  0
   55.5110   24.4000   46.1920 N   0  0  0  0  0  0  0  0  0  0  0  0
   56.0360   23.4930   45.2130 C   0  0  0  0  0  0  0  0  0  0  0  0
   56.9810   22.5420   45.6160 C   0  0  0  0  0  0  0  0  0  0  0  0
   57.5480   21.6650   44.6850 C   0  0  0  0  0  0  0  0  0  0  0  0
   57.1830   21.7420   43.3390 C   0  0  0  0  0  0  0  0  0  0  0  0
   56.2570   22.7020   42.9230 C   0  0  0  0  0  0  0  0  0  0  0  0
   55.6870   23.5790   43.8510 C   0  0  0  0  0  0  0  0  0  0  0  0
   57.1020   28.0010   44.8260 O   0  0  0  0  0  0  0  0  0  0  0  0
   59.5060   34.0980   45.7130 C   0  0  0  0  0  0  0  0  0  0  0  0
   60.7350   34.2200   46.3670 C   0  0  0  0  0  0  0  0  0  0  0  0
   64.0384   33.2158   48.5805 H   0  0  0  0  0  0  0  0  0  0  0  0
   63.1523   32.5983   47.1452 H   0  0  0  0  0  0  0  0  0  0  0  0
   63.8073   34.2708   47.1452 H   0  0  0  0  0  0  0  0  0  0  0  0
   59.8542   32.9722   49.4280 H   0  0  0  0  0  0  0  0  0  0  0  0
   57.6626   32.7559   48.2638 H   0  0  0  0  0  0  0  0  0  0  0  0
   56.2849   33.2280   46.4366 H   0  0  0  0  0  0  0  0  0  0  0  0
   56.8355   34.4323   45.2177 H   0  0  0  0  0  0  0  0  0  0  0  0
   55.3046   29.6302   43.8633 H   0  0  0  0  0  0  0  0  0  0  0  0
   56.4963   30.5026   42.8457 H   0  0  0  0  0  0  0  0  0  0  0  0
   57.3673   25.3845   47.8654 H   0  0  0  0  0  0  0  0  0  0  0  0
   57.1818   27.1180   47.3884 H   0  0  0  0  0  0  0  0  0  0  0  0
   57.2801   22.4838   46.6730 H   0  0  0  0  0  0  0  0  0  0  0  0
   58.2819   20.9142   45.0133 H   0  0  0  0  0  0  0  0  0  0  0  0
   57.6237   21.0482   42.6079 H   0  0  0  0  0  0  0  0  0  0  0  0
   55.9754   22.7681   41.8617 H   0  0  0  0  0  0  0  0  0  0  0  0
   54.9643   24.3379   43.5166 H   0  0  0  0  0  0  0  0  0  0  0  0
   59.4072   34.4254   44.6675 H   0  0  0  0  0  0  0  0  0  0  0  0
   61.6002   34.6352   45.8294 H   0  0  0  0  0  0  0  0  0  0  0  0
  1  2  1  0
  2  3  1  0
  3  4  2  0
  4  5  1  0
  5  6  2  0
  6  7  1  0
  7  8  1  0
  8  9  2  0
  8 10  1  0
 10 11  1  0
 11 12  1  0
 12 13  2  0
 13 14  1  0
 14 15  2  0
 15 16  1  0
 16 17  1  0
 17 18  1  0
 18 19  2  0
 18 20  1  0
 20 21  1  0
 21 22  2  0
 22 23  1  0
 23 24  2  0
 24 25  1  0
 25 26  2  0
 15 27  1  0
  6 28  1  0
 28 29  2  0
 29  3  1  0
 27 12  1  0
 26 21  1  0
  1 30  1  0
  1 31  1  0
  1 32  1  0
  4 33  1  0
  5 34  1  0
  7 35  1  0
  7 36  1  0
 11 37  1  0
 11 38  1  0
 17 39  1  0
 17 40  1  0
 22 41  1  0
 23 42  1  0
 24 43  1  0
 25 44  1  0
 26 45  1  0
 28 46  1  0
 29 47  1  0
M  CHG  2  10  -1  20  -1
M  END
>  <UniqueID>  (34) 
31

>  <SMILES>  (34) 
COc1ccc(CC(=O)[N-]Cc2nnc(SCC(=O)[N-]c3ccccc3)o2)cc1

>  <Energy>  (34) 
75.21766808975953

>  <Genealogy>  (34) 
COc1ccc(CC(=O)[N-]Cc2nnc(SCC(=O)[N-]c3ccccc3)o2)cc1 (protonated)
COc1ccc(CC(=O)[N-]Cc2nnc(SCC(=O)[N-]c3ccccc3)o2)cc1 (3D coordinates assigned)
COc1ccc(CC(=O)[N-]Cc2nnc(SCC(=O)[N-]c3ccccc3)o2)cc1 (optimized conformer: 75.21766808975953 kcal/mol)

>  <smiles>  (34) 
COc1ccc(CC(=O)NCc2nnc(SCC(=O)Nc3ccccc3)o2)cc1

>  <score_type>  (34) 
oracle

>  <origin>  (34) 
adg

>  <m_score__min__energy>  (34) 
-11.42

>  <m_primary>  (34) 
energy

$$$$
34:0
     RDKit          3D

 66 69  0  0  0  0  0  0  0  0999 V2000
   64.1270   33.2530   50.0250 C   0  0  0  0  0  0  0  0  0  0  0  0
   63.0080   33.5020   49.3420 C   0  0  0  0  0  0  0  0  0  0  0  0
   62.9790   33.6730   47.6700 S   0  0  0  0  0  0  0  0  0  0  0  0
   61.3220   33.9360   47.5910 C   0  0  0  0  0  0  0  0  0  0  0  0
   60.6580   34.1400   46.4430 C   0  0  0  0  0  0  0  0  0  0  0  0
   59.5350   33.3090   45.9680 C   0  0  0  0  0  0  0  0  0  0  0  0
   59.4530   31.9730   46.3800 C   0  0  0  0  0  0  0  0  0  0  0  0
   58.3740   31.1620   45.9780 C   0  0  0  0  0  0  0  0  0  0  0  0
   58.2690   29.8170   46.3620 O   0  0  0  0  0  0  0  0  0  0  0  0
   59.0860   28.7660   45.8560 C   0  0  0  0  0  0  0  0  0  0  0  0
   57.3630   31.7050   45.1700 C   0  0  0  0  0  0  0  0  0  0  0  0
   56.3030   30.8710   44.7780 O   0  0  0  0  0  0  0  0  0  0  0  0
   56.2810   30.1050   43.5780 C   0  0  0  0  0  0  0  0  0  0  0  0
   57.4320   33.0560   44.7810 C   0  0  0  0  0  0  0  0  0  0  0  0
   58.5030   33.8560   45.1880 C   0  0  0  0  0  0  0  0  0  0  0  0
   58.5240   35.1980   44.8220 O   0  0  0  0  0  0  0  0  0  0  0  0
   60.8280   33.9120   48.9030 C   0  0  0  0  0  0  0  0  0  0  0  0
   59.6200   34.1370   49.1840 O   0  0  0  0  0  0  0  0  0  0  0  0
   61.7610   33.6590   49.8740 N   0  0  0  0  0  0  0  0  0  0  0  0
   61.4060   33.5010   51.2960 C   0  0  0  0  0  0  0  0  0  0  0  0
   60.0870   32.7840   51.4270 C   0  0  0  0  0  0  0  0  0  0  0  0
   59.9380   31.4840   50.9200 C   0  0  0  0  0  0  0  0  0  0  0  0
   58.7340   30.7930   51.0810 C   0  0  0  0  0  0  0  0  0  0  0  0
   57.6550   31.3840   51.7650 C   0  0  0  0  0  0  0  0  0  0  0  0
   56.3640   30.6690   51.9590 C   0  0  0  0  0  0  0  0  0  0  0  0
   55.2930   31.2540   51.6280 O   0  0  0  0  0  0  0  0  0  0  0  0
   56.3050   29.3160   52.4820 N   0  0  0  0  0  0  0  0  0  0  0  0
   54.9350   29.0240   52.9520 C   0  0  0  0  0  0  0  0  0  0  0  0
   54.8350   27.7720   53.8610 C   0  0  0  0  0  0  0  0  0  0  0  0
   56.0850   26.9920   53.9410 N   0  0  0  0  0  0  0  0  0  0  0  0
   56.0500   25.5780   54.2460 C   0  0  0  0  0  0  0  0  0  0  0  0
   54.7710   24.8700   54.5820 C   0  0  0  0  0  0  0  0  0  0  0  0
   57.1160   24.9040   54.2120 O   0  0  0  0  0  0  0  0  0  0  0  0
   57.3960   27.6590   53.9260 C   0  0  0  0  0  0  0  0  0  0  0  0
   57.2760   29.1420   53.5770 C   0  0  0  0  0  0  0  0  0  0  0  0
   57.8060   32.6930   52.2560 C   0  0  0  0  0  0  0  0  0  0  0  0
   59.0080   33.3840   52.0910 C   0  0  0  0  0  0  0  0  0  0  0  0
   64.0918   33.1498   51.1196 H   0  0  0  0  0  0  0  0  0  0  0  0
   65.0846   33.1509   49.4934 H   0  0  0  0  0  0  0  0  0  0  0  0
   60.9724   34.9848   45.8126 H   0  0  0  0  0  0  0  0  0  0  0  0
   60.2394   31.5528   47.0242 H   0  0  0  0  0  0  0  0  0  0  0  0
   59.5225   28.2045   46.6951 H   0  0  0  0  0  0  0  0  0  0  0  0
   58.4742   28.0896   45.2410 H   0  0  0  0  0  0  0  0  0  0  0  0
   59.8924   29.1921   45.2410 H   0  0  0  0  0  0  0  0  0  0  0  0
   56.2502   29.0340   43.8272 H   0  0  0  0  0  0  0  0  0  0  0  0
   55.3901   30.3704   42.9899 H   0  0  0  0  0  0  0  0  0  0  0  0
   57.1857   30.3188   42.9899 H   0  0  0  0  0  0  0  0  0  0  0  0
   56.6376   33.4849   44.1525 H   0  0  0  0  0  0  0  0  0  0  0  0
   62.1886   32.9176   51.8031 H   0  0  0  0  0  0  0  0  0  0  0  0
   61.3208   34.4960   51.7572 H   0  0  0  0  0  0  0  0  0  0  0  0
   60.7755   31.0051   50.3917 H   0  0  0  0  0  0  0  0  0  0  0  0
   58.6286   29.7783   50.6696 H   0  0  0  0  0  0  0  0  0  0  0  0
   56.5600   28.6410   51.7240 H   0  0  0  0  0  0  0  0  0  0  0  0
   54.5709   29.8934   53.5191 H   0  0  0  0  0  0  0  0  0  0  0  0
   54.3283   28.8181   52.0578 H   0  0  0  0  0  0  0  0  0  0  0  0
   54.5660   28.1008   54.8756 H   0  0  0  0  0  0  0  0  0  0  0  0
   54.0746   27.1133   53.4161 H   0  0  0  0  0  0  0  0  0  0  0  0
   54.6616   24.8094   55.6749 H   0  0  0  0  0  0  0  0  0  0  0  0
   53.9218   25.4265   54.1588 H   0  0  0  0  0  0  0  0  0  0  0  0
   54.7917   23.8549   54.1588 H   0  0  0  0  0  0  0  0  0  0  0  0
   57.8551   27.5637   54.9211 H   0  0  0  0  0  0  0  0  0  0  0  0
   58.0157   27.1763   53.1560 H   0  0  0  0  0  0  0  0  0  0  0  0
   56.9340   29.6996   54.4614 H   0  0  0  0  0  0  0  0  0  0  0  0
   58.2576   29.5225   53.2582 H   0  0  0  0  0  0  0  0  0  0  0  0
   56.9671   33.1784   52.7763 H   0  0  0  0  0  0  0  0  0  0  0  0
   59.1090   34.4061   52.4847 H   0  0  0  0  0  0  0  0  0  0  0  0
  1  2  2  0
  2  3  1  0
  3  4  1  0
  4  5  2  3
  5  6  1  0
  6  7  2  0
  7  8  1  0
  8  9  1  0
  9 10  1  0
  8 11  2  0
 11 12  1  0
 12 13  1  0
 11 14  1  0
 14 15  2  0
 15 16  1  0
  4 17  1  0
 17 18  2  0
 17 19  1  0
 19 20  1  0
 20 21  1  0
 21 22  2  0
 22 23  1  0
 23 24  2  0
 24 25  1  0
 25 26  2  0
 25 27  1  0
 27 28  1  0
 28 29  1  0
 29 30  1  0
 30 31  1  0
 31 32  1  0
 31 33  2  0
 30 34  1  0
 34 35  1  0
 24 36  1  0
 36 37  2  0
 19  2  1  0
 37 21  1  0
 15  6  1  0
 35 27  1  0
  1 38  1  0
  1 39  1  0
  5 40  1  0
  7 41  1  0
 10 42  1  0
 10 43  1  0
 10 44  1  0
 13 45  1  0
 13 46  1  0
 13 47  1  0
 14 48  1  0
 20 49  1  0
 20 50  1  0
 22 51  1  0
 23 52  1  0
 27 53  1  0
 28 54  1  0
 28 55  1  0
 29 56  1  0
 29 57  1  0
 32 58  1  0
 32 59  1  0
 32 60  1  0
 34 61  1  0
 34 62  1  0
 35 63  1  0
 35 64  1  0
 36 65  1  0
 37 66  1  0
M  CHG  2  16  -1  27   1
M  END
>  <UniqueID>  (35) 
32

>  <SMILES>  (35) 
C=c1sc(=Cc2cc(OC)c(OC)cc2[O-])c(=O)n1Cc1ccc(C(=O)[NH+]2CCN(C(C)=O)CC2)cc1

>  <Energy>  (35) 
118.90820004145627

>  <Genealogy>  (35) 
C=c1sc(=Cc2cc(OC)c(OC)cc2[O-])c(=O)n1Cc1ccc(C(=O)[NH+]2CCN(C(C)=O)CC2)cc1 (protonated)
C=c1sc(=Cc2cc(OC)c(OC)cc2[O-])c(=O)n1Cc1ccc(C(=O)[NH+]2CCN(C(C)=O)CC2)cc1 (3D coordinates assigned)
C=c1sc(=Cc2cc(OC)c(OC)cc2[O-])c(=O)n1Cc1ccc(C(=O)[NH+]2CCN(C(C)=O)CC2)cc1 (nonaromatic ring conformer: 118.90820004145627 kcal/mol)

>  <smiles>  (35) 
C=c1sc(=Cc2cc(OC)c(OC)cc2O)c(=O)n1Cc1ccc(C(=O)N2CCN(C(C)=O)CC2)cc1

>  <score_type>  (35) 
oracle

>  <origin>  (35) 
adg

>  <m_score__min__energy>  (35) 
-11.92

>  <m_primary>  (35) 
energy

$$$$
35:0
     RDKit          3D

 20 21  0  0  0  0  0  0  0  0999 V2000
   57.9666   28.6445   52.5154 H   0  0  0  0  0  0  0  0  0  0  0  0
   57.1840   29.4050   52.3770 C   0  0  0  0  0  0  0  0  0  0  0  0
   55.8730   29.0420   52.3880 N   0  0  0  0  0  0  0  0  0  0  0  0
   54.8700   29.9530   52.2290 C   0  0  0  0  0  0  0  0  0  0  0  0
   53.6210   29.5850   52.2220 N   0  0  0  0  0  0  0  0  0  0  0  0
   52.4810   30.4590   52.2130 C   0  0  0  0  0  0  0  0  0  0  0  0
   51.9930   30.8250   53.3140 O   0  0  0  0  0  0  0  0  0  0  0  0
   51.8210   30.8670   50.9570 C   0  0  0  0  0  0  0  0  0  0  0  0
   51.7270   30.0910   49.8600 N   0  0  0  0  0  0  0  0  0  0  0  0
   51.0180   30.8510   48.9980 C   0  0  0  0  0  0  0  0  0  0  0  0
   50.7250   30.4640   47.8370 O   0  0  0  0  0  0  0  0  0  0  0  0
   50.6470   32.0570   49.4780 N   0  0  0  0  0  0  0  0  0  0  0  0
   51.1580   32.0500   50.7190 C   0  0  0  0  0  0  0  0  0  0  0  0
   51.0220   33.1040   51.6140 O   0  0  0  0  0  0  0  0  0  0  0  0
   55.1900   31.3010   52.0280 C   0  0  0  0  0  0  0  0  0  0  0  0
   54.3922   32.0443   51.8830 H   0  0  0  0  0  0  0  0  0  0  0  0
   56.5300   31.6950   52.0130 C   0  0  0  0  0  0  0  0  0  0  0  0
   56.7921   32.7526   51.8621 H   0  0  0  0  0  0  0  0  0  0  0  0
   57.5360   30.7430   52.1900 C   0  0  0  0  0  0  0  0  0  0  0  0
   58.5940   31.0439   52.1822 H   0  0  0  0  0  0  0  0  0  0  0  0
  1  2  1  0
  2  3  1  0
  3  4  1  0
  4  5  2  0
  5  6  1  0
  6  7  2  0
  6  8  1  0
  8  9  1  0
  9 10  1  0
 10 11  2  0
 10 12  1  0
 12 13  1  0
 13 14  1  0
  4 15  1  0
 15 16  1  0
 15 17  2  0
 17 18  1  0
 17 19  1  0
 19 20  1  0
 19  2  2  0
 13  8  2  0
M  CHG  4   3  -1   9  -1  12  -1  14  -1
M  END
>  <UniqueID>  (36) 
33

>  <SMILES>  (36) 
O=C(/N=c1/cccc[n-]1)c1[n-]c(=O)[n-]c1[O-]

>  <Energy>  (36) 
57.2836649870745

>  <Genealogy>  (36) 
O=C(N=c1cccc[n-]1)c1[n-]c(=O)[n-]c1[O-] (protonated)
O=C(/N=c1/cccc[n-]1)c1[n-]c(=O)[n-]c1[O-] (cis-trans isomerization)
O=C(/N=c1/cccc[n-]1)c1[n-]c(=O)[n-]c1[O-] (3D coordinates assigned)
O=C(/N=c1/cccc[n-]1)c1[n-]c(=O)[n-]c1[O-] (optimized conformer: 57.2836649870745 kcal/mol)

>  <smiles>  (36) 
O=C(N=c1cccc[nH]1)c1[nH]c(=O)[nH]c1O

>  <score_type>  (36) 
oracle

>  <origin>  (36) 
adg

>  <m_score__min__energy>  (36) 
-15.98

>  <m_primary>  (36) 
energy

$$$$
36:0
     RDKit          3D

 51 53  0  0  0  0  0  0  0  0999 V2000
   60.1890   30.9930   46.0530 N   0  0  0  0  0  0  0  0  0  0  0  0
   59.5470   30.0320   46.0880 C   0  0  0  0  0  0  0  0  0  0  0  0
   58.7470   28.8330   46.1310 C   0  0  0  0  0  0  0  0  0  0  0  0
   59.2700   27.6780   46.7270 C   0  0  0  0  0  0  0  0  0  0  0  0
   58.5120   26.5060   46.7730 C   0  0  0  0  0  0  0  0  0  0  0  0
   57.2280   26.4830   46.2260 C   0  0  0  0  0  0  0  0  0  0  0  0
   56.6980   27.6310   45.6290 C   0  0  0  0  0  0  0  0  0  0  0  0
   57.4550   28.8180   45.5710 C   0  0  0  0  0  0  0  0  0  0  0  0
   56.9620   29.9970   44.9830 O   0  0  0  0  0  0  0  0  0  0  0  0
   56.7220   30.1980   43.5900 C   0  0  0  0  0  0  0  0  0  0  0  0
   57.2560   31.5590   43.1110 C   0  0  0  0  0  0  0  0  0  0  0  0
   58.2570   32.1560   44.0170 N   0  0  0  0  0  0  0  0  0  0  0  0
   57.9990   33.5130   44.5520 C   0  0  0  0  0  0  0  0  0  0  0  0
   59.2880   34.3330   44.8170 C   0  0  0  0  0  0  0  0  0  0  0  0
   59.5830   34.5680   46.3040 C   0  0  0  0  0  0  0  0  0  0  0  0
   59.0760   33.4470   47.1110 N   0  0  0  0  0  0  0  0  0  0  0  0
   59.6260   33.4970   48.4830 C   0  0  0  0  0  0  0  0  0  0  0  0
   59.6200   32.1230   49.0990 C   0  0  0  0  0  0  0  0  0  0  0  0
   60.7300   31.2730   48.9650 C   0  0  0  0  0  0  0  0  0  0  0  0
   60.7320   30.0160   49.5760 C   0  0  0  0  0  0  0  0  0  0  0  0
   59.6300   29.6010   50.3290 C   0  0  0  0  0  0  0  0  0  0  0  0
   58.5200   30.4410   50.4730 C   0  0  0  0  0  0  0  0  0  0  0  0
   57.4310   30.0180   51.2320 O   0  0  0  0  0  0  0  0  0  0  0  0
   58.5160   31.6990   49.8560 C   0  0  0  0  0  0  0  0  0  0  0  0
   57.5970   33.4820   47.1350 C   0  0  0  0  0  0  0  0  0  0  0  0
   56.9800   33.5290   45.7180 C   0  0  0  0  0  0  0  0  0  0  0  0
   60.2810   27.6943   47.1601 H   0  0  0  0  0  0  0  0  0  0  0  0
   58.9269   25.6008   47.2404 H   0  0  0  0  0  0  0  0  0  0  0  0
   56.6316   25.5595   46.2647 H   0  0  0  0  0  0  0  0  0  0  0  0
   55.6844   27.6073   45.2023 H   0  0  0  0  0  0  0  0  0  0  0  0
   57.2226   29.3992   43.0232 H   0  0  0  0  0  0  0  0  0  0  0  0
   55.6349   30.1782   43.4231 H   0  0  0  0  0  0  0  0  0  0  0  0
   57.7199   31.4218   42.1231 H   0  0  0  0  0  0  0  0  0  0  0  0
   56.3989   32.2478   43.0803 H   0  0  0  0  0  0  0  0  0  0  0  0
   58.5130   31.5000   44.7920 H   0  0  0  0  0  0  0  0  0  0  0  0
   57.4968   34.0577   43.7389 H   0  0  0  0  0  0  0  0  0  0  0  0
   60.1387   33.7921   44.3768 H   0  0  0  0  0  0  0  0  0  0  0  0
   59.1347   35.3229   44.3625 H   0  0  0  0  0  0  0  0  0  0  0  0
   60.6699   34.6560   46.4484 H   0  0  0  0  0  0  0  0  0  0  0  0
   59.0828   35.4936   46.6250 H   0  0  0  0  0  0  0  0  0  0  0  0
   60.6588   33.8737   48.4464 H   0  0  0  0  0  0  0  0  0  0  0  0
   59.0023   34.1658   49.0943 H   0  0  0  0  0  0  0  0  0  0  0  0
   61.6010   31.5978   48.3770 H   0  0  0  0  0  0  0  0  0  0  0  0
   61.6021   29.3523   49.4641 H   0  0  0  0  0  0  0  0  0  0  0  0
   59.6352   28.6116   50.8097 H   0  0  0  0  0  0  0  0  0  0  0  0
   57.4530   30.0390   52.2440 H   0  0  0  0  0  0  0  0  0  0  0  0
   57.6425   32.3586   49.9653 H   0  0  0  0  0  0  0  0  0  0  0  0
   57.2316   32.5805   47.6486 H   0  0  0  0  0  0  0  0  0  0  0  0
   57.2941   34.3995   47.6608 H   0  0  0  0  0  0  0  0  0  0  0  0
   56.3207   32.6557   45.6052 H   0  0  0  0  0  0  0  0  0  0  0  0
   56.4522   34.4915   45.6477 H   0  0  0  0  0  0  0  0  0  0  0  0
  1  2  3  0
  2  3  1  0
  3  4  2  0
  4  5  1  0
  5  6  2  0
  6  7  1  0
  7  8  2  0
  8  9  1  0
  9 10  1  0
 10 11  1  0
 11 12  1  0
 12 13  1  0
 13 14  1  0
 14 15  1  0
 15 16  1  0
 16 17  1  0
 17 18  1  0
 18 19  2  0
 19 20  1  0
 20 21  2  0
 21 22  1  0
 22 23  1  0
 22 24  2  0
 16 25  1  0
 25 26  1  0
  8  3  1  0
 26 13  1  0
 24 18  1  0
  4 27  1  0
  5 28  1  0
  6 29  1  0
  7 30  1  0
 10 31  1  0
 10 32  1  0
 11 33  1  0
 11 34  1  0
 12 35  1  0
 13 36  1  0
 14 37  1  0
 14 38  1  0
 15 39  1  0
 15 40  1  0
 17 41  1  0
 17 42  1  0
 19 43  1  0
 20 44  1  0
 21 45  1  0
 23 46  1  0
 24 47  1  0
 25 48  1  0
 25 49  1  0
 26 50  1  0
 26 51  1  0
M  END
>  <UniqueID>  (37) 
34

>  <SMILES>  (37) 
N#Cc1ccccc1OCCNC1CCN(Cc2cccc(O)c2)CC1

>  <Energy>  (37) 
65.55529828380902

>  <Genealogy>  (37) 
N#Cc1ccccc1OCCNC1CCN(Cc2cccc(O)c2)CC1 (3D coordinates assigned)
N#Cc1ccccc1OCCNC1CCN(Cc2cccc(O)c2)CC1 (nonaromatic ring conformer: 65.55529828380902 kcal/mol)

>  <smiles>  (37) 
N#Cc1ccccc1OCCNC1CCN(Cc2cccc(O)c2)CC1

>  <score_type>  (37) 
oracle

>  <origin>  (37) 
adg

>  <m_score__min__energy>  (37) 
-8.5

>  <m_primary>  (37) 
energy

$$$$
37:0
     RDKit          3D

 41 42  0  0  0  0  0  0  0  0999 V2000
   63.7120   33.4560   46.7760 C   0  0  0  0  0  0  0  0  0  0  0  0
   62.2800   33.8640   46.4440 C   0  0  0  0  0  0  0  0  0  0  0  0
   61.3490   33.3550   47.4630 N   0  0  0  0  0  0  0  0  0  0  0  0
   61.4840   31.9570   47.8980 C   0  0  0  0  0  0  0  0  0  0  0  0
   60.2110   31.2070   47.6420 C   0  0  0  0  0  0  0  0  0  0  0  0
   59.1890   31.4710   48.3290 O   0  0  0  0  0  0  0  0  0  0  0  0
   60.1430   30.2410   46.5810 N   0  0  0  0  0  0  0  0  0  0  0  0
   59.1680   29.1850   46.5130 C   0  0  0  0  0  0  0  0  0  0  0  0
   59.2760   28.0950   47.3890 C   0  0  0  0  0  0  0  0  0  0  0  0
   58.3220   27.0730   47.3760 C   0  0  0  0  0  0  0  0  0  0  0  0
   57.2230   27.1350   46.5010 C   0  0  0  0  0  0  0  0  0  0  0  0
   56.1970   26.0670   46.5050 C   0  0  0  0  0  0  0  0  0  0  0  0
   54.8940   26.3060   45.9730 N   0  0  0  0  0  0  0  0  0  0  0  0
   56.4580   24.9390   47.0010 O   0  0  0  0  0  0  0  0  0  0  0  0
   57.1040   28.2390   45.6380 C   0  0  0  0  0  0  0  0  0  0  0  0
   58.0640   29.2550   45.6480 C   0  0  0  0  0  0  0  0  0  0  0  0
   60.3480   34.2450   48.0180 C   0  0  0  0  0  0  0  0  0  0  0  0
   60.2450   34.3540   49.2710 O   0  0  0  0  0  0  0  0  0  0  0  0
   59.3700   35.0140   47.1610 C   0  0  0  0  0  0  0  0  0  0  0  0
   58.7520   34.1190   46.1310 C   0  0  0  0  0  0  0  0  0  0  0  0
   59.2000   33.9440   44.8410 C   0  0  0  0  0  0  0  0  0  0  0  0
   58.4500   33.0010   44.2420 N   0  0  0  0  0  0  0  0  0  0  0  0
   57.5770   32.6360   45.2060 C   0  0  0  0  0  0  0  0  0  0  0  0
   56.6980   31.7520   45.0250 O   0  0  0  0  0  0  0  0  0  0  0  0
   57.7260   33.2840   46.3790 N   0  0  0  0  0  0  0  0  0  0  0  0
   63.8391   33.4198   47.8680 H   0  0  0  0  0  0  0  0  0  0  0  0
   63.9186   32.4632   46.3497 H   0  0  0  0  0  0  0  0  0  0  0  0
   64.4108   34.1908   46.3497 H   0  0  0  0  0  0  0  0  0  0  0  0
   62.2150   34.9616   46.4105 H   0  0  0  0  0  0  0  0  0  0  0  0
   62.0062   33.4375   45.4677 H   0  0  0  0  0  0  0  0  0  0  0  0
   62.3040   31.4810   47.3403 H   0  0  0  0  0  0  0  0  0  0  0  0
   61.7003   31.9371   48.9763 H   0  0  0  0  0  0  0  0  0  0  0  0
   60.8310   30.3270   45.8000 H   0  0  0  0  0  0  0  0  0  0  0  0
   60.1195   28.0437   48.0931 H   0  0  0  0  0  0  0  0  0  0  0  0
   58.4319   26.2145   48.0549 H   0  0  0  0  0  0  0  0  0  0  0  0
   54.7670   26.7140   45.0210 H   0  0  0  0  0  0  0  0  0  0  0  0
   56.2485   28.3035   44.9495 H   0  0  0  0  0  0  0  0  0  0  0  0
   57.9538   30.1164   44.9728 H   0  0  0  0  0  0  0  0  0  0  0  0
   58.5776   35.4291   47.8011 H   0  0  0  0  0  0  0  0  0  0  0  0
   59.9095   35.8240   46.6483 H   0  0  0  0  0  0  0  0  0  0  0  0
   60.0357   34.4871   44.3754 H   0  0  0  0  0  0  0  0  0  0  0  0
  1  2  1  0
  2  3  1  0
  3  4  1  0
  4  5  1  0
  5  6  2  0
  5  7  1  0
  7  8  1  0
  8  9  2  0
  9 10  1  0
 10 11  2  0
 11 12  1  0
 12 13  1  0
 12 14  2  0
 11 15  1  0
 15 16  2  0
  3 17  1  0
 17 18  2  0
 17 19  1  0
 19 20  1  0
 20 21  2  0
 21 22  1  0
 22 23  1  0
 23 24  2  0
 23 25  1  0
 16  8  1  0
 25 20  1  0
  1 26  1  0
  1 27  1  0
  1 28  1  0
  2 29  1  0
  2 30  1  0
  4 31  1  0
  4 32  1  0
  7 33  1  0
  9 34  1  0
 10 35  1  0
 13 36  1  0
 15 37  1  0
 16 38  1  0
 19 39  1  0
 19 40  1  0
 21 41  1  0
M  CHG  3  13  -1  22  -1  25  -1
M  END
>  <UniqueID>  (38) 
35

>  <SMILES>  (38) 
CCN(CC(=O)Nc1ccc(C([NH-])=O)cc1)C(=O)Cc1c[n-]c(=O)[n-]1

>  <Energy>  (38) 
66.52564989272355

>  <Genealogy>  (38) 
CCN(CC(=O)Nc1ccc(C([NH-])=O)cc1)C(=O)Cc1c[n-]c(=O)[n-]1 (protonated)
CCN(CC(=O)Nc1ccc(C([NH-])=O)cc1)C(=O)Cc1c[n-]c(=O)[n-]1 (3D coordinates assigned)
CCN(CC(=O)Nc1ccc(C([NH-])=O)cc1)C(=O)Cc1c[n-]c(=O)[n-]1 (optimized conformer: 66.52564989272355 kcal/mol)

>  <smiles>  (38) 
CCN(CC(=O)Nc1ccc(C(N)=O)cc1)C(=O)Cc1c[nH]c(=O)[nH]1

>  <score_type>  (38) 
oracle

>  <origin>  (38) 
adg

>  <m_score__min__energy>  (38) 
-11.85

>  <m_primary>  (38) 
energy

$$$$
38:0
     RDKit          3D

 47 51  0  0  0  0  0  0  0  0999 V2000
   59.2730   33.8200   49.6080 C   0  0  0  0  0  0  0  0  0  0  0  0
   59.7100   33.7500   48.3310 C   0  0  0  0  0  0  0  0  0  0  0  0
   59.4780   34.9680   47.4560 C   0  0  0  0  0  0  0  0  0  0  0  0
   59.2970   34.6070   45.9720 C   0  0  0  0  0  0  0  0  0  0  0  0
   58.6090   33.2490   45.7780 C   0  0  0  0  0  0  0  0  0  0  0  0
   59.2230   32.0830   46.5580 C   0  0  0  0  0  0  0  0  0  0  0  0
   58.9630   30.7490   46.2540 C   0  0  0  0  0  0  0  0  0  0  0  0
   59.6310   29.7330   47.0110 C   0  0  0  0  0  0  0  0  0  0  0  0
   59.6770   28.4120   46.5650 C   0  0  0  0  0  0  0  0  0  0  0  0
   59.0890   28.0470   45.3700 C   0  0  0  0  0  0  0  0  0  0  0  0
   58.2850   28.9520   44.6830 C   0  0  0  0  0  0  0  0  0  0  0  0
   57.5910   28.5080   43.5450 C   0  0  0  0  0  0  0  0  0  0  0  0
   56.6410   29.3210   42.9400 C   0  0  0  0  0  0  0  0  0  0  0  0
   56.3340   30.5550   43.5000 C   0  0  0  0  0  0  0  0  0  0  0  0
   57.0320   31.0150   44.6200 C   0  0  0  0  0  0  0  0  0  0  0  0
   58.1110   30.2820   45.1770 C   0  0  0  0  0  0  0  0  0  0  0  0
   60.2360   29.9910   48.1280 N   0  0  0  0  0  0  0  0  0  0  0  0
   60.4180   31.3060   48.6200 C   0  0  0  0  0  0  0  0  0  0  0  0
   60.9750   31.4620   49.7410 O   0  0  0  0  0  0  0  0  0  0  0  0
   60.2420   32.4640   47.6630 C   0  0  2  0  0  0  0  0  0  0  0  0
   61.6760   32.7390   47.0830 C   0  0  0  0  0  0  0  0  0  0  0  0
   62.7440   32.9320   48.1370 C   0  0  0  0  0  0  0  0  0  0  0  0
   62.6900   34.0200   49.0230 C   0  0  0  0  0  0  0  0  0  0  0  0
   63.6510   34.1540   50.0260 C   0  0  0  0  0  0  0  0  0  0  0  0
   64.6660   33.2010   50.1320 C   0  0  0  0  0  0  0  0  0  0  0  0
   64.7140   32.1590   49.2620 N   0  0  0  0  0  0  0  0  0  0  0  0
   63.7900   32.0060   48.2760 C   0  0  0  0  0  0  0  0  0  0  0  0
   59.4155   32.9653   50.2857 H   0  0  0  0  0  0  0  0  0  0  0  0
   58.7749   34.7316   49.9697 H   0  0  0  0  0  0  0  0  0  0  0  0
   58.5721   35.4849   47.8054 H   0  0  0  0  0  0  0  0  0  0  0  0
   60.3685   35.6089   47.5358 H   0  0  0  0  0  0  0  0  0  0  0  0
   58.6848   35.3846   45.4918 H   0  0  0  0  0  0  0  0  0  0  0  0
   60.2973   34.5431   45.5188 H   0  0  0  0  0  0  0  0  0  0  0  0
   57.5600   33.3523   46.0924 H   0  0  0  0  0  0  0  0  0  0  0  0
   58.7296   32.9980   44.7138 H   0  0  0  0  0  0  0  0  0  0  0  0
   60.1883   27.6512   47.1731 H   0  0  0  0  0  0  0  0  0  0  0  0
   59.2562   27.0398   44.9605 H   0  0  0  0  0  0  0  0  0  0  0  0
   57.8011   27.5109   43.1307 H   0  0  0  0  0  0  0  0  0  0  0  0
   56.1341   28.9894   42.0218 H   0  0  0  0  0  0  0  0  0  0  0  0
   55.5376   31.1729   43.0596 H   0  0  0  0  0  0  0  0  0  0  0  0
   56.7373   31.9692   45.0810 H   0  0  0  0  0  0  0  0  0  0  0  0
   61.9633   31.8842   46.4531 H   0  0  0  0  0  0  0  0  0  0  0  0
   61.6139   33.6815   46.5192 H   0  0  0  0  0  0  0  0  0  0  0  0
   61.8891   34.7678   48.9263 H   0  0  0  0  0  0  0  0  0  0  0  0
   63.6093   35.0016   50.7259 H   0  0  0  0  0  0  0  0  0  0  0  0
   65.4272   33.2941   50.9206 H   0  0  0  0  0  0  0  0  0  0  0  0
   63.8625   31.1534   47.5847 H   0  0  0  0  0  0  0  0  0  0  0  0
  1  2  2  0
  2  3  1  0
  3  4  1  0
  4  5  1  0
  5  6  1  0
  6  7  2  0
  7  8  1  0
  8  9  1  0
  9 10  2  0
 10 11  1  0
 11 12  2  0
 12 13  1  0
 13 14  2  0
 14 15  1  0
 15 16  2  0
  8 17  2  0
 17 18  1  0
 18 19  2  0
 18 20  1  0
 20 21  1  6
 21 22  1  0
 22 23  2  0
 23 24  1  0
 24 25  2  0
 25 26  1  0
 26 27  2  0
 20  2  1  0
 27 22  1  0
 20  6  1  0
 16  7  1  0
 16 11  1  0
  1 28  1  0
  1 29  1  0
  3 30  1  0
  3 31  1  0
  4 32  1  0
  4 33  1  0
  5 34  1  0
  5 35  1  0
  9 36  1  0
 10 37  1  0
 12 38  1  0
 13 39  1  0
 14 40  1  0
 15 41  1  0
 21 42  1  0
 21 43  1  0
 23 44  1  0
 24 45  1  0
 25 46  1  0
 27 47  1  0
M  END
>  <UniqueID>  (39) 
36

>  <SMILES>  (39) 
C=C1CCCC2=c3c(ccc4ccccc34)=NC(=O)[C@]12Cc1cccnc1

>  <Energy>  (39) 
97.97604345897113

>  <Genealogy>  (39) 
C=C1CCCC2=c3c(ccc4ccccc34)=NC(=O)[C@]12Cc1cccnc1 (chirality)
C=C1CCCC2=c3c(ccc4ccccc34)=NC(=O)[C@]12Cc1cccnc1 (3D coordinates assigned)
C=C1CCCC2=c3c(ccc4ccccc34)=NC(=O)[C@]12Cc1cccnc1 (nonaromatic ring conformer: 97.97604345897113 kcal/mol)

>  <smiles>  (39) 
C=C1CCCC2=c3c(ccc4ccccc34)=NC(=O)C12Cc1cccnc1

>  <score_type>  (39) 
oracle

>  <origin>  (39) 
adg

>  <m_score__min__energy>  (39) 
-9.0800000000000001

>  <m_primary>  (39) 
energy

$$$$
39:0
     RDKit          3D

 46 48  0  0  0  0  0  0  0  0999 V2000
   53.8850   21.6370   45.6620 N   0  0  0  0  0  0  0  0  0  0  0  0
   54.3870   22.6210   45.3180 C   0  0  0  0  0  0  0  0  0  0  0  0
   55.0270   23.8730   44.8780 C   0  0  2  0  0  0  0  0  0  0  0  0
   56.2320   23.5890   43.9540 C   0  0  0  0  0  0  0  0  0  0  0  0
   57.3810   22.8200   44.6300 C   0  0  0  0  0  0  0  0  0  0  0  0
   57.7950   23.4950   45.8710 N   0  0  0  0  0  0  0  0  0  0  0  0
   58.9950   24.2870   45.8610 C   0  0  0  0  0  0  0  0  0  0  0  0
   60.1140   23.7070   45.8820 O   0  0  0  0  0  0  0  0  0  0  0  0
   58.9390   25.7680   45.8330 C   0  0  0  0  0  0  0  0  0  0  0  0
   58.7280   26.4570   44.6260 C   0  0  0  0  0  0  0  0  0  0  0  0
   58.6630   27.8530   44.6090 C   0  0  0  0  0  0  0  0  0  0  0  0
   58.8010   28.5820   45.7980 C   0  0  0  0  0  0  0  0  0  0  0  0
   58.7130   30.0580   45.7920 C   0  0  0  0  0  0  0  0  0  0  0  0
   59.6970   30.7890   46.4800 C   0  0  0  0  0  0  0  0  0  0  0  0
   59.6600   32.1820   46.5020 C   0  0  0  0  0  0  0  0  0  0  0  0
   58.6430   32.8650   45.8370 C   0  0  0  0  0  0  0  0  0  0  0  0
   57.6510   32.1540   45.1580 C   0  0  0  0  0  0  0  0  0  0  0  0
   57.6640   30.7500   45.1340 C   0  0  0  0  0  0  0  0  0  0  0  0
   56.3390   29.9020   44.3130 S   0  0  0  0  0  0  0  0  0  0  0  0
   55.9360   28.4550   45.1670 N   0  0  0  0  0  0  0  0  0  0  0  0
   55.1200   30.7790   44.2720 O   0  0  0  0  0  0  0  0  0  0  0  0
   56.7480   29.5670   42.9070 O   0  0  0  0  0  0  0  0  0  0  0  0
   59.0560   27.9010   46.9970 C   0  0  0  0  0  0  0  0  0  0  0  0
   59.1260   26.5060   47.0150 C   0  0  0  0  0  0  0  0  0  0  0  0
   57.1240   23.2540   47.1630 C   0  0  0  0  0  0  0  0  0  0  0  0
   55.8530   24.0880   47.3630 C   0  0  0  0  0  0  0  0  0  0  0  0
   55.4080   24.7210   46.0690 C   0  0  0  0  0  0  0  0  0  0  0  0
   55.4070   25.9370   45.9670 O   0  0  0  0  0  0  0  0  0  0  0  0
   54.3006   24.4470   44.2840 H   0  0  0  0  0  0  0  0  0  0  0  0
   55.8775   22.9962   43.0979 H   0  0  0  0  0  0  0  0  0  0  0  0
   56.6390   24.5670   43.6575 H   0  0  0  0  0  0  0  0  0  0  0  0
   57.0432   21.8006   44.8681 H   0  0  0  0  0  0  0  0  0  0  0  0
   58.2383   22.7851   43.9417 H   0  0  0  0  0  0  0  0  0  0  0  0
   58.6132   25.8935   43.6883 H   0  0  0  0  0  0  0  0  0  0  0  0
   58.5028   28.3820   43.6580 H   0  0  0  0  0  0  0  0  0  0  0  0
   60.5034   30.2568   47.0057 H   0  0  0  0  0  0  0  0  0  0  0  0
   60.4346   32.7434   47.0450 H   0  0  0  0  0  0  0  0  0  0  0  0
   58.6217   33.9648   45.8470 H   0  0  0  0  0  0  0  0  0  0  0  0
   56.8509   32.6997   44.6364 H   0  0  0  0  0  0  0  0  0  0  0  0
   55.2320   28.7150   45.8950 H   0  0  0  0  0  0  0  0  0  0  0  0
   59.2017   28.4682   47.9281 H   0  0  0  0  0  0  0  0  0  0  0  0
   59.3288   25.9813   47.9603 H   0  0  0  0  0  0  0  0  0  0  0  0
   56.8533   22.1894   47.2204 H   0  0  0  0  0  0  0  0  0  0  0  0
   57.8305   23.5508   47.9522 H   0  0  0  0  0  0  0  0  0  0  0  0
   55.0508   23.4354   47.7379 H   0  0  0  0  0  0  0  0  0  0  0  0
   56.0711   24.8881   48.0857 H   0  0  0  0  0  0  0  0  0  0  0  0
  1  2  3  0
  2  3  1  0
  3  4  1  0
  4  5  1  0
  5  6  1  0
  6  7  1  0
  7  8  2  0
  7  9  1  0
  9 10  2  0
 10 11  1  0
 11 12  2  0
 12 13  1  0
 13 14  2  0
 14 15  1  0
 15 16  2  0
 16 17  1  0
 17 18  2  0
 18 19  1  0
 19 20  1  0
 19 21  2  0
 19 22  2  0
 12 23  1  0
 23 24  2  0
  6 25  1  0
 25 26  1  0
 26 27  1  0
 27 28  2  0
 27  3  1  0
 24  9  1  0
 18 13  1  0
  3 29  1  6
  4 30  1  0
  4 31  1  0
  5 32  1  0
  5 33  1  0
 10 34  1  0
 11 35  1  0
 14 36  1  0
 15 37  1  0
 16 38  1  0
 17 39  1  0
 20 40  1  0
 23 41  1  0
 24 42  1  0
 25 43  1  0
 25 44  1  0
 26 45  1  0
 26 46  1  0
M  CHG  1  20  -1
M  END
>  <UniqueID>  (40) 
37

>  <SMILES>  (40) 
N#C[C@@H]1CCN(C(=O)c2ccc(-c3ccccc3S([NH-])(=O)=O)cc2)CCC1=O

>  <Energy>  (40) 
61.17818526661592

>  <Genealogy>  (40) 
N#CC1CCN(C(=O)c2ccc(-c3ccccc3S([NH-])(=O)=O)cc2)CCC1=O (protonated)
N#C[C@@H]1CCN(C(=O)c2ccc(-c3ccccc3S([NH-])(=O)=O)cc2)CCC1=O (chirality)
N#C[C@@H]1CCN(C(=O)c2ccc(-c3ccccc3S([NH-])(=O)=O)cc2)CCC1=O (3D coordinates assigned)
N#C[C@@H]1CCN(C(=O)c2ccc(-c3ccccc3S([NH-])(=O)=O)cc2)CCC1=O (nonaromatic ring conformer: 61.17818526661592 kcal/mol)

>  <smiles>  (40) 
N#CC1CCN(C(=O)c2ccc(-c3ccccc3S(N)(=O)=O)cc2)CCC1=O

>  <score_type>  (40) 
oracle

>  <origin>  (40) 
adg

>  <m_score__min__energy>  (40) 
-9.4199999999999999

>  <m_primary>  (40) 
energy

$$$$
40:0
     RDKit          3D

 55 57  0  0  0  0  0  0  0  0999 V2000
   59.6900   35.1690   46.0390 C   0  0  0  0  0  0  0  0  0  0  0  0
   59.5920   33.7310   45.7920 N   0  0  0  0  0  0  0  0  0  0  0  0
   57.9430   33.2150   45.9760 S   0  0  0  0  0  0  0  0  0  0  0  0
   57.0210   34.3560   45.6490 O   0  0  0  0  0  0  0  0  0  0  0  0
   57.7080   32.8080   47.4040 O   0  0  0  0  0  0  0  0  0  0  0  0
   57.6050   31.8410   44.9250 C   0  0  0  0  0  0  0  0  0  0  0  0
   57.3980   32.0480   43.5560 C   0  0  0  0  0  0  0  0  0  0  0  0
   57.0930   30.9700   42.7230 C   0  0  0  0  0  0  0  0  0  0  0  0
   56.9800   29.6820   43.2540 C   0  0  0  0  0  0  0  0  0  0  0  0
   57.1650   29.4610   44.6300 C   0  0  0  0  0  0  0  0  0  0  0  0
   57.0130   28.1000   45.1890 C   0  0  0  0  0  0  0  0  0  0  0  0
   55.8900   27.7280   45.6250 O   0  0  0  0  0  0  0  0  0  0  0  0
   58.1200   27.1830   45.2400 N   0  0  0  0  0  0  0  0  0  0  0  0
   57.9870   25.9300   44.4940 C   0  0  0  0  0  0  0  0  0  0  0  0
   59.2590   27.3950   46.1610 C   0  0  0  0  0  0  0  0  0  0  0  0
   58.8040   28.0410   47.4920 C   0  0  0  0  0  0  0  0  0  0  0  0
   59.9900   28.7050   48.2030 C   0  0  0  0  0  0  0  0  0  0  0  0
   60.6110   29.7920   47.3920 N   0  0  0  0  0  0  0  0  0  0  0  0
   60.1980   31.1340   47.8530 C   0  0  0  0  0  0  0  0  0  0  0  0
   61.3790   32.0690   47.8810 C   0  0  0  0  0  0  0  0  0  0  0  0
   61.3140   33.2600   48.6230 C   0  0  0  0  0  0  0  0  0  0  0  0
   62.4050   34.1340   48.6500 C   0  0  0  0  0  0  0  0  0  0  0  0
   63.5670   33.8250   47.9370 C   0  0  0  0  0  0  0  0  0  0  0  0
   63.6400   32.6410   47.1980 C   0  0  0  0  0  0  0  0  0  0  0  0
   62.5510   31.7640   47.1680 C   0  0  0  0  0  0  0  0  0  0  0  0
   60.3970   29.6600   45.9300 C   0  0  0  0  0  0  0  0  0  0  0  0
   60.4000   28.1930   45.4880 C   0  0  0  0  0  0  0  0  0  0  0  0
   57.4960   30.5490   45.4560 C   0  0  0  0  0  0  0  0  0  0  0  0
   59.7027   35.3548   47.1231 H   0  0  0  0  0  0  0  0  0  0  0  0
   60.6166   35.5559   45.5898 H   0  0  0  0  0  0  0  0  0  0  0  0
   58.8245   35.6780   45.5898 H   0  0  0  0  0  0  0  0  0  0  0  0
   59.8600   33.5600   44.7950 H   0  0  0  0  0  0  0  0  0  0  0  0
   57.4758   33.0617   43.1360 H   0  0  0  0  0  0  0  0  0  0  0  0
   56.9412   31.1347   41.6460 H   0  0  0  0  0  0  0  0  0  0  0  0
   56.7449   28.8361   42.5912 H   0  0  0  0  0  0  0  0  0  0  0  0
   57.8979   25.0909   45.1996 H   0  0  0  0  0  0  0  0  0  0  0  0
   57.0885   25.9737   43.8610 H   0  0  0  0  0  0  0  0  0  0  0  0
   58.8747   25.7841   43.8610 H   0  0  0  0  0  0  0  0  0  0  0  0
   59.6675   26.4042   46.4088 H   0  0  0  0  0  0  0  0  0  0  0  0
   58.0372   28.8010   47.2814 H   0  0  0  0  0  0  0  0  0  0  0  0
   58.3932   27.2566   48.1447 H   0  0  0  0  0  0  0  0  0  0  0  0
   59.6366   29.1325   49.1529 H   0  0  0  0  0  0  0  0  0  0  0  0
   60.7557   27.9321   48.3652 H   0  0  0  0  0  0  0  0  0  0  0  0
   59.4361   31.5336   47.1676 H   0  0  0  0  0  0  0  0  0  0  0  0
   59.7867   31.0499   48.8697 H   0  0  0  0  0  0  0  0  0  0  0  0
   60.4010   33.5060   49.1851 H   0  0  0  0  0  0  0  0  0  0  0  0
   62.3489   35.0653   49.2327 H   0  0  0  0  0  0  0  0  0  0  0  0
   64.4242   34.5140   47.9576 H   0  0  0  0  0  0  0  0  0  0  0  0
   64.5557   32.3984   46.6389 H   0  0  0  0  0  0  0  0  0  0  0  0
   62.6120   30.8333   46.5849 H   0  0  0  0  0  0  0  0  0  0  0  0
   59.4272   30.1090   45.6695 H   0  0  0  0  0  0  0  0  0  0  0  0
   61.2207   30.1756   45.4145 H   0  0  0  0  0  0  0  0  0  0  0  0
   60.2715   28.1485   44.3964 H   0  0  0  0  0  0  0  0  0  0  0  0
   61.3583   27.7444   45.7886 H   0  0  0  0  0  0  0  0  0  0  0  0
   57.6711   30.3846   46.5295 H   0  0  0  0  0  0  0  0  0  0  0  0
  1  2  1  0
  2  3  1  0
  3  4  2  0
  3  5  2  0
  3  6  1  0
  6  7  2  0
  7  8  1  0
  8  9  2  0
  9 10  1  0
 10 11  1  0
 11 12  2  0
 11 13  1  0
 13 14  1  0
 13 15  1  0
 15 16  1  0
 16 17  1  0
 17 18  1  0
 18 19  1  0
 19 20  1  0
 20 21  2  0
 21 22  1  0
 22 23  2  0
 23 24  1  0
 24 25  2  0
 18 26  1  0
 26 27  1  0
 10 28  2  0
 28  6  1  0
 27 15  1  0
 25 20  1  0
  1 29  1  0
  1 30  1  0
  1 31  1  0
  2 32  1  0
  7 33  1  0
  8 34  1  0
  9 35  1  0
 14 36  1  0
 14 37  1  0
 14 38  1  0
 15 39  1  0
 16 40  1  0
 16 41  1  0
 17 42  1  0
 17 43  1  0
 19 44  1  0
 19 45  1  0
 21 46  1  0
 22 47  1  0
 23 48  1  0
 24 49  1  0
 25 50  1  0
 26 51  1  0
 26 52  1  0
 27 53  1  0
 27 54  1  0
 28 55  1  0
M  END
>  <UniqueID>  (41) 
38

>  <SMILES>  (41) 
CNS(=O)(=O)c1cccc(C(=O)N(C)C2CCN(Cc3ccccc3)CC2)c1

>  <Energy>  (41) 
66.50031084994917

>  <Genealogy>  (41) 
CNS(=O)(=O)c1cccc(C(=O)N(C)C2CCN(Cc3ccccc3)CC2)c1 (3D coordinates assigned)
CNS(=O)(=O)c1cccc(C(=O)N(C)C2CCN(Cc3ccccc3)CC2)c1 (nonaromatic ring conformer: 66.50031084994917 kcal/mol)

>  <smiles>  (41) 
CNS(=O)(=O)c1cccc(C(=O)N(C)C2CCN(Cc3ccccc3)CC2)c1

>  <score_type>  (41) 
oracle

>  <origin>  (41) 
adg

>  <m_score__min__energy>  (41) 
-10.52

>  <m_primary>  (41) 
energy

$$$$
41:0
     RDKit          3D

 45 46  0  0  0  0  0  0  0  0999 V2000
   55.1090   26.2950   45.9860 N   0  0  0  0  0  0  0  0  0  0  0  0
   56.8350   26.3290   46.0750 S   0  0  0  0  0  0  0  0  0  0  0  0
   57.4070   25.2900   45.1530 O   0  0  0  0  0  0  0  0  0  0  0  0
   57.2470   26.0040   47.4830 O   0  0  0  0  0  0  0  0  0  0  0  0
   57.4260   27.9350   45.6190 C   0  0  0  0  0  0  0  0  0  0  0  0
   56.5990   28.7760   44.8560 C   0  0  0  0  0  0  0  0  0  0  0  0
   57.0480   30.0330   44.4480 C   0  0  0  0  0  0  0  0  0  0  0  0
   58.3270   30.4660   44.7940 C   0  0  0  0  0  0  0  0  0  0  0  0
   59.1630   29.6410   45.5470 C   0  0  0  0  0  0  0  0  0  0  0  0
   58.7210   28.3790   45.9760 C   0  0  0  0  0  0  0  0  0  0  0  0
   59.6360   27.5460   46.7790 C   0  0  0  0  0  0  0  0  0  0  0  0
   59.8160   26.3450   46.4520 O   0  0  0  0  0  0  0  0  0  0  0  0
   60.3270   28.0720   47.9180 N   0  0  0  0  0  0  0  0  0  0  0  0
   60.3590   27.4290   49.2270 C   0  0  0  0  0  0  0  0  0  0  0  0
   60.4250   28.4810   50.3400 C   0  0  0  0  0  0  0  0  0  0  0  0
   59.2570   29.4700   50.2690 C   0  0  0  0  0  0  0  0  0  0  0  0
   59.5010   30.4770   49.2340 N   0  0  0  0  0  0  0  0  0  0  0  0
   59.0280   31.8320   49.3390 C   0  0  0  0  0  0  0  0  0  0  0  0
   58.4720   32.2220   50.4020 O   0  0  0  0  0  0  0  0  0  0  0  0
   59.1420   32.7690   48.1980 C   0  0  0  0  0  0  0  0  0  0  0  0
   60.2030   33.6890   48.1540 C   0  0  0  0  0  0  0  0  0  0  0  0
   60.3050   34.6020   47.1030 C   0  0  0  0  0  0  0  0  0  0  0  0
   59.3610   34.5980   46.0750 C   0  0  0  0  0  0  0  0  0  0  0  0
   58.3110   33.6620   46.0790 C   0  0  0  0  0  0  0  0  0  0  0  0
   57.2630   33.6590   44.9940 C   0  0  0  0  0  0  0  0  0  0  0  0
   56.2800   32.7170   45.2420 F   0  0  0  0  0  0  0  0  0  0  0  0
   56.6630   34.9040   44.9160 F   0  0  0  0  0  0  0  0  0  0  0  0
   57.8620   33.3720   43.7820 F   0  0  0  0  0  0  0  0  0  0  0  0
   58.2020   32.7600   47.1510 C   0  0  0  0  0  0  0  0  0  0  0  0
   54.7590   27.0920   46.5640 H   0  0  0  0  0  0  0  0  0  0  0  0
   55.5889   28.4410   44.5777 H   0  0  0  0  0  0  0  0  0  0  0  0
   56.3910   30.6835   43.8520 H   0  0  0  0  0  0  0  0  0  0  0  0
   58.6772   31.4582   44.4733 H   0  0  0  0  0  0  0  0  0  0  0  0
   60.1762   29.9817   45.8067 H   0  0  0  0  0  0  0  0  0  0  0  0
   59.4500   26.8230   49.3550 H   0  0  0  0  0  0  0  0  0  0  0  0
   61.2522   26.7899   49.2879 H   0  0  0  0  0  0  0  0  0  0  0  0
   60.3978   27.9695   51.3135 H   0  0  0  0  0  0  0  0  0  0  0  0
   61.3581   29.0496   50.2135 H   0  0  0  0  0  0  0  0  0  0  0  0
   58.3330   28.9227   50.0311 H   0  0  0  0  0  0  0  0  0  0  0  0
   59.1584   29.9751   51.2412 H   0  0  0  0  0  0  0  0  0  0  0  0
   59.8710   30.1330   48.3210 H   0  0  0  0  0  0  0  0  0  0  0  0
   60.9586   33.6898   48.9534 H   0  0  0  0  0  0  0  0  0  0  0  0
   61.1321   35.3270   47.0850 H   0  0  0  0  0  0  0  0  0  0  0  0
   59.4385   35.3303   45.2578 H   0  0  0  0  0  0  0  0  0  0  0  0
   57.3720   32.0384   47.1719 H   0  0  0  0  0  0  0  0  0  0  0  0
  1  2  1  0
  2  3  2  0
  2  4  2  0
  2  5  1  0
  5  6  2  0
  6  7  1  0
  7  8  2  0
  8  9  1  0
  9 10  2  0
 10 11  1  0
 11 12  2  0
 11 13  1  0
 13 14  1  0
 14 15  1  0
 15 16  1  0
 16 17  1  0
 17 18  1  0
 18 19  2  0
 18 20  1  0
 20 21  2  0
 21 22  1  0
 22 23  2  0
 23 24  1  0
 24 25  1  0
 25 26  1  0
 25 27  1  0
 25 28  1  0
 24 29  2  0
 10  5  1  0
 29 20  1  0
  1 30  1  0
  6 31  1  0
  7 32  1  0
  8 33  1  0
  9 34  1  0
 14 35  1  0
 14 36  1  0
 15 37  1  0
 15 38  1  0
 16 39  1  0
 16 40  1  0
 17 41  1  0
 21 42  1  0
 22 43  1  0
 23 44  1  0
 29 45  1  0
M  CHG  2   1  -1  13  -1
M  END
>  <UniqueID>  (42) 
39

>  <SMILES>  (42) 
[NH-]S(=O)(=O)c1ccccc1C(=O)[N-]CCCNC(=O)c1cccc(C(F)(F)F)c1

>  <Energy>  (42) 
44.77198716264603

>  <Genealogy>  (42) 
[NH-]S(=O)(=O)c1ccccc1C(=O)[N-]CCCNC(=O)c1cccc(C(F)(F)F)c1 (protonated)
[NH-]S(=O)(=O)c1ccccc1C(=O)[N-]CCCNC(=O)c1cccc(C(F)(F)F)c1 (3D coordinates assigned)
[NH-]S(=O)(=O)c1ccccc1C(=O)[N-]CCCNC(=O)c1cccc(C(F)(F)F)c1 (optimized conformer: 44.77198716264603 kcal/mol)

>  <smiles>  (42) 
NS(=O)(=O)c1ccccc1C(=O)NCCCNC(=O)c1cccc(C(F)(F)F)c1

>  <score_type>  (42) 
oracle

>  <origin>  (42) 
adg

>  <m_score__min__energy>  (42) 
-12.68

>  <m_primary>  (42) 
energy

$$$$
42:0
     RDKit          3D

 40 43  0  0  0  0  0  0  0  0999 V2000
   57.7570   32.3730   40.9100 C   0  0  0  0  0  0  0  0  0  0  0  0
   57.4910   31.7830   42.2630 C   0  0  0  0  0  0  0  0  0  0  0  0
   56.6460   30.6710   42.3960 C   0  0  0  0  0  0  0  0  0  0  0  0
   56.4250   30.1030   43.6520 C   0  0  0  0  0  0  0  0  0  0  0  0
   57.0590   30.6260   44.7800 C   0  0  0  0  0  0  0  0  0  0  0  0
   57.9400   31.7130   44.6580 C   0  0  0  0  0  0  0  0  0  0  0  0
   58.6410   32.2600   45.8390 C   0  0  0  0  0  0  0  0  0  0  0  0
   58.3920   33.4980   46.3360 N   0  0  0  0  0  0  0  0  0  0  0  0
   59.1860   33.5630   47.4250 C   0  0  0  0  0  0  0  0  0  0  0  0
   59.2830   34.6320   48.2520 N   0  0  0  0  0  0  0  0  0  0  0  0
   60.1390   34.5710   49.3140 C   0  0  0  0  0  0  0  0  0  0  0  0
   60.9130   33.4160   49.5430 C   0  0  0  0  0  0  0  0  0  0  0  0
   60.7870   32.3330   48.6650 C   0  0  0  0  0  0  0  0  0  0  0  0
   59.9100   32.4540   47.6360 N   0  0  0  0  0  0  0  0  0  0  0  0
   59.5920   31.6210   46.6360 C   0  0  0  0  0  0  0  0  0  0  0  0
   60.1960   30.3340   46.4330 N   0  0  0  0  0  0  0  0  0  0  0  0
   59.5160   29.2150   45.8410 C   0  0  0  0  0  0  0  0  0  0  0  0
   59.7330   28.8520   44.4980 C   0  0  0  0  0  0  0  0  0  0  0  0
   59.0470   27.7690   43.9400 C   0  0  0  0  0  0  0  0  0  0  0  0
   58.1520   27.0270   44.7170 C   0  0  0  0  0  0  0  0  0  0  0  0
   57.4710   25.9540   44.1460 O   0  0  0  0  0  0  0  0  0  0  0  0
   57.9500   27.3690   46.0600 C   0  0  0  0  0  0  0  0  0  0  0  0
   58.6340   28.4520   46.6200 C   0  0  0  0  0  0  0  0  0  0  0  0
   58.1420   32.2960   43.3970 C   0  0  0  0  0  0  0  0  0  0  0  0
   58.2066   33.3701   41.0267 H   0  0  0  0  0  0  0  0  0  0  0  0
   58.4485   31.7217   40.3555 H   0  0  0  0  0  0  0  0  0  0  0  0
   56.8110   32.4599   40.3555 H   0  0  0  0  0  0  0  0  0  0  0  0
   56.1561   30.2453   41.5079 H   0  0  0  0  0  0  0  0  0  0  0  0
   55.7493   29.2409   43.7529 H   0  0  0  0  0  0  0  0  0  0  0  0
   56.8678   30.1848   45.7693 H   0  0  0  0  0  0  0  0  0  0  0  0
   60.2250   35.4299   49.9959 H   0  0  0  0  0  0  0  0  0  0  0  0
   61.6044   33.3662   50.3971 H   0  0  0  0  0  0  0  0  0  0  0  0
   61.3781   31.4158   48.8041 H   0  0  0  0  0  0  0  0  0  0  0  0
   61.2010   30.2220   46.6960 H   0  0  0  0  0  0  0  0  0  0  0  0
   60.4456   29.4232   43.8849 H   0  0  0  0  0  0  0  0  0  0  0  0
   59.2119   27.4998   42.8863 H   0  0  0  0  0  0  0  0  0  0  0  0
   56.7490   26.0960   43.4500 H   0  0  0  0  0  0  0  0  0  0  0  0
   57.2512   26.7839   46.6759 H   0  0  0  0  0  0  0  0  0  0  0  0
   58.4794   28.7074   47.6787 H   0  0  0  0  0  0  0  0  0  0  0  0
   58.8147   33.1605   43.2963 H   0  0  0  0  0  0  0  0  0  0  0  0
  1  2  1  0
  2  3  2  0
  3  4  1  0
  4  5  2  0
  5  6  1  0
  6  7  1  0
  7  8  1  0
  8  9  2  0
  9 10  1  0
 10 11  2  0
 11 12  1  0
 12 13  2  0
 13 14  1  0
 14 15  1  0
 15 16  1  0
 16 17  1  0
 17 18  2  0
 18 19  1  0
 19 20  2  0
 20 21  1  0
 20 22  1  0
 22 23  2  0
  6 24  2  0
 24  2  1  0
 15  7  2  0
 23 17  1  0
 14  9  1  0
  1 25  1  0
  1 26  1  0
  1 27  1  0
  3 28  1  0
  4 29  1  0
  5 30  1  0
 11 31  1  0
 12 32  1  0
 13 33  1  0
 16 34  1  0
 18 35  1  0
 19 36  1  0
 21 37  1  0
 22 38  1  0
 23 39  1  0
 24 40  1  0
M  END
>  <UniqueID>  (43) 
40

>  <SMILES>  (43) 
Cc1cccc(-c2nc3ncccn3c2Nc2ccc(O)cc2)c1

>  <Energy>  (43) 
88.70943954238133

>  <Genealogy>  (43) 
Cc1cccc(-c2nc3ncccn3c2Nc2ccc(O)cc2)c1 (3D coordinates assigned)
Cc1cccc(-c2nc3ncccn3c2Nc2ccc(O)cc2)c1 (optimized conformer: 88.70943954238133 kcal/mol)

>  <smiles>  (43) 
Cc1cccc(-c2nc3ncccn3c2Nc2ccc(O)cc2)c1

>  <score_type>  (43) 
oracle

>  <origin>  (43) 
adg

>  <m_score__min__energy>  (43) 
-7.2599999999999998

>  <m_primary>  (43) 
energy

$$$$
43:0
     RDKit          3D

 44 46  0  0  0  0  0  0  0  0999 V2000
   57.7970   29.2990   51.1860 O   0  0  0  0  0  0  0  0  0  0  0  0
   58.2310   30.3950   51.6320 C   0  0  0  0  0  0  0  0  0  0  0  0
   57.9130   30.7910   53.0480 C   0  0  0  0  0  0  0  0  0  0  0  0
   56.8620   29.9420   53.6420 N   0  0  0  0  0  0  0  0  0  0  0  0
   55.5320   30.5910   53.7340 C   0  0  2  0  0  0  0  0  0  0  0  0
   54.6170   29.7690   54.6600 C   0  0  0  0  0  0  0  0  0  0  0  0
   53.2900   30.4930   54.8920 C   0  0  0  0  0  0  0  0  0  0  0  0
   52.6430   30.9310   53.6020 C   0  0  0  0  0  0  0  0  0  0  0  0
   51.2780   31.2590   53.6040 C   0  0  0  0  0  0  0  0  0  0  0  0
   50.6590   31.7230   52.4420 C   0  0  0  0  0  0  0  0  0  0  0  0
   51.3990   31.8750   51.2680 C   0  0  0  0  0  0  0  0  0  0  0  0
   50.7800   32.3330   50.1110 O   0  0  0  0  0  0  0  0  0  0  0  0
   52.7620   31.5660   51.2550 C   0  0  0  0  0  0  0  0  0  0  0  0
   53.4010   31.1100   52.4210 C   0  0  0  0  0  0  0  0  0  0  0  0
   54.8630   30.7340   52.3460 C   0  0  0  0  0  0  0  0  0  0  0  0
   59.0120   31.2690   50.8010 N   0  0  0  0  0  0  0  0  0  0  0  0
   59.1980   31.0670   49.3890 C   0  0  0  0  0  0  0  0  0  0  0  0
   58.4730   30.2390   48.7720 O   0  0  0  0  0  0  0  0  0  0  0  0
   60.2100   31.8450   48.6360 C   0  0  0  0  0  0  0  0  0  0  0  0
   61.4730   31.2850   48.3670 C   0  0  0  0  0  0  0  0  0  0  0  0
   62.4360   32.0120   47.6610 C   0  0  0  0  0  0  0  0  0  0  0  0
   62.1540   33.3080   47.2210 C   0  0  0  0  0  0  0  0  0  0  0  0
   63.3650   34.2200   46.3380 Cl  0  0  0  0  0  0  0  0  0  0  0  0
   60.9070   33.8790   47.4920 C   0  0  0  0  0  0  0  0  0  0  0  0
   59.9400   33.1550   48.1960 C   0  0  0  0  0  0  0  0  0  0  0  0
   58.8262   30.7007   53.6546 H   0  0  0  0  0  0  0  0  0  0  0  0
   57.5424   31.8266   53.0338 H   0  0  0  0  0  0  0  0  0  0  0  0
   56.7850   29.0670   53.0700 H   0  0  0  0  0  0  0  0  0  0  0  0
   57.1780   29.6580   54.5990 H   0  0  0  0  0  0  0  0  0  0  0  0
   55.6809   31.6006   54.1446 H   0  0  0  0  0  0  0  0  0  0  0  0
   54.4185   28.7915   54.1962 H   0  0  0  0  0  0  0  0  0  0  0  0
   55.1214   29.6371   55.6286 H   0  0  0  0  0  0  0  0  0  0  0  0
   52.6039   29.8135   55.4188 H   0  0  0  0  0  0  0  0  0  0  0  0
   53.4984   31.3946   55.4867 H   0  0  0  0  0  0  0  0  0  0  0  0
   50.6917   31.1495   54.5283 H   0  0  0  0  0  0  0  0  0  0  0  0
   49.5869   31.9691   52.4514 H   0  0  0  0  0  0  0  0  0  0  0  0
   53.3389   31.6805   50.3255 H   0  0  0  0  0  0  0  0  0  0  0  0
   54.9495   29.7737   51.8165 H   0  0  0  0  0  0  0  0  0  0  0  0
   55.3812   31.5478   51.8177 H   0  0  0  0  0  0  0  0  0  0  0  0
   59.4150   32.1250   51.2440 H   0  0  0  0  0  0  0  0  0  0  0  0
   61.7041   30.2674   48.7150 H   0  0  0  0  0  0  0  0  0  0  0  0
   63.4180   31.5628   47.4514 H   0  0  0  0  0  0  0  0  0  0  0  0
   60.6860   34.9010   47.1503 H   0  0  0  0  0  0  0  0  0  0  0  0
   58.9619   33.6118   48.4075 H   0  0  0  0  0  0  0  0  0  0  0  0
  1  2  2  0
  2  3  1  0
  3  4  1  0
  4  5  1  0
  5  6  1  0
  6  7  1  0
  7  8  1  0
  8  9  2  0
  9 10  1  0
 10 11  2  0
 11 12  1  0
 11 13  1  0
 13 14  2  0
 14 15  1  0
  2 16  1  0
 16 17  1  0
 17 18  2  0
 17 19  1  0
 19 20  2  0
 20 21  1  0
 21 22  2  0
 22 23  1  0
 22 24  1  0
 24 25  2  0
 15  5  1  0
 25 19  1  0
 14  8  1  0
  3 26  1  0
  3 27  1  0
  4 28  1  0
  4 29  1  0
  5 30  1  1
  6 31  1  0
  6 32  1  0
  7 33  1  0
  7 34  1  0
  9 35  1  0
 10 36  1  0
 13 37  1  0
 15 38  1  0
 15 39  1  0
 16 40  1  0
 20 41  1  0
 21 42  1  0
 24 43  1  0
 25 44  1  0
M  CHG  2   4   1  12  -1
M  END
>  <UniqueID>  (44) 
41

>  <SMILES>  (44) 
O=C(C[NH2+][C@@H]1CCc2ccc([O-])cc2C1)NC(=O)c1ccc(Cl)cc1

>  <Energy>  (44) 
49.740075354005306

>  <Genealogy>  (44) 
O=C(C[NH2+]C1CCc2ccc([O-])cc2C1)NC(=O)c1ccc(Cl)cc1 (protonated)
O=C(C[NH2+][C@@H]1CCc2ccc([O-])cc2C1)NC(=O)c1ccc(Cl)cc1 (chirality)
O=C(C[NH2+][C@@H]1CCc2ccc([O-])cc2C1)NC(=O)c1ccc(Cl)cc1 (3D coordinates assigned)
O=C(C[NH2+][C@@H]1CCc2ccc([O-])cc2C1)NC(=O)c1ccc(Cl)cc1 (nonaromatic ring conformer: 49.740075354005306 kcal/mol)

>  <smiles>  (44) 
O=C(CNC1CCc2ccc(O)cc2C1)NC(=O)c1ccc(Cl)cc1

>  <score_type>  (44) 
oracle

>  <origin>  (44) 
adg

>  <m_score__min__energy>  (44) 
-10.58

>  <m_primary>  (44) 
energy

$$$$
44:0
     RDKit          3D

 44 46  0  0  0  0  0  0  0  0999 V2000
   58.5970   33.8600   44.5190 C   0  0  0  0  0  0  0  0  0  0  0  0
   57.9570   32.6310   43.9640 C   0  0  0  0  0  0  0  0  0  0  0  0
   57.2630   31.6770   44.6960 C   0  0  0  0  0  0  0  0  0  0  0  0
   56.7030   30.6660   43.8990 C   0  0  0  0  0  0  0  0  0  0  0  0
   55.9660   29.5230   44.4740 C   0  0  0  0  0  0  0  0  0  0  0  0
   54.7680   29.3410   44.1300 O   0  0  0  0  0  0  0  0  0  0  0  0
   56.5690   28.5850   45.3740 N   0  0  0  0  0  0  0  0  0  0  0  0
   57.9620   28.1560   45.3460 C   0  0  0  0  0  0  0  0  0  0  0  0
   58.7130   28.8460   46.4470 C   0  0  0  0  0  0  0  0  0  0  0  0
   58.5460   28.4400   47.7790 C   0  0  0  0  0  0  0  0  0  0  0  0
   59.2770   29.0530   48.8010 C   0  0  0  0  0  0  0  0  0  0  0  0
   60.1970   30.0750   48.5080 C   0  0  0  0  0  0  0  0  0  0  0  0
   60.9730   30.7240   49.5910 C   0  0  0  0  0  0  0  0  0  0  0  0
   62.1020   30.2670   49.9190 O   0  0  0  0  0  0  0  0  0  0  0  0
   60.4460   31.8710   50.2670 N   0  0  0  0  0  0  0  0  0  0  0  0
   61.0230   33.2070   50.1650 C   0  0  0  0  0  0  0  0  0  0  0  0
   61.7030   33.3870   48.8300 C   0  0  0  0  0  0  0  0  0  0  0  0
   63.0970   33.2280   48.7350 C   0  0  0  0  0  0  0  0  0  0  0  0
   63.7490   33.4090   47.5120 C   0  0  0  0  0  0  0  0  0  0  0  0
   63.0180   33.7530   46.3730 C   0  0  0  0  0  0  0  0  0  0  0  0
   61.6330   33.9170   46.4550 C   0  0  0  0  0  0  0  0  0  0  0  0
   60.9700   33.7390   47.6760 C   0  0  0  0  0  0  0  0  0  0  0  0
   59.2240   33.9660   47.7210 Cl  0  0  0  0  0  0  0  0  0  0  0  0
   60.3700   30.4710   47.1680 C   0  0  0  0  0  0  0  0  0  0  0  0
   59.6380   29.8570   46.1470 C   0  0  0  0  0  0  0  0  0  0  0  0
   56.9700   30.8240   42.5390 C   0  0  0  0  0  0  0  0  0  0  0  0
   57.8720   32.2300   42.3360 S   0  0  0  0  0  0  0  0  0  0  0  0
   58.5761   33.8199   45.6181 H   0  0  0  0  0  0  0  0  0  0  0  0
   59.6399   33.9181   44.1740 H   0  0  0  0  0  0  0  0  0  0  0  0
   58.0467   34.7477   44.1740 H   0  0  0  0  0  0  0  0  0  0  0  0
   57.1620   31.7100   45.7909 H   0  0  0  0  0  0  0  0  0  0  0  0
   58.0146   27.0669   45.4912 H   0  0  0  0  0  0  0  0  0  0  0  0
   58.4091   28.4151   44.3749 H   0  0  0  0  0  0  0  0  0  0  0  0
   57.8363   27.6352   48.0208 H   0  0  0  0  0  0  0  0  0  0  0  0
   59.1311   28.7330   49.8433 H   0  0  0  0  0  0  0  0  0  0  0  0
   60.2237   33.9556   50.2683 H   0  0  0  0  0  0  0  0  0  0  0  0
   61.7676   33.3355   50.9644 H   0  0  0  0  0  0  0  0  0  0  0  0
   63.6783   32.9593   49.6294 H   0  0  0  0  0  0  0  0  0  0  0  0
   64.8395   33.2803   47.4466 H   0  0  0  0  0  0  0  0  0  0  0  0
   63.5327   33.8948   45.4112 H   0  0  0  0  0  0  0  0  0  0  0  0
   61.0600   34.1874   45.5558 H   0  0  0  0  0  0  0  0  0  0  0  0
   61.0861   31.2691   46.9225 H   0  0  0  0  0  0  0  0  0  0  0  0
   59.7883   30.1685   45.1028 H   0  0  0  0  0  0  0  0  0  0  0  0
   56.6462   30.1453   41.7362 H   0  0  0  0  0  0  0  0  0  0  0  0
  1  2  1  0
  2  3  2  0
  3  4  1  0
  4  5  1  0
  5  6  2  0
  5  7  1  0
  7  8  1  0
  8  9  1  0
  9 10  2  0
 10 11  1  0
 11 12  2  0
 12 13  1  0
 13 14  2  0
 13 15  1  0
 15 16  1  0
 16 17  1  0
 17 18  2  0
 18 19  1  0
 19 20  2  0
 20 21  1  0
 21 22  2  0
 22 23  1  0
 12 24  1  0
 24 25  2  0
  4 26  2  0
 26 27  1  0
 27  2  1  0
 25  9  1  0
 22 17  1  0
  1 28  1  0
  1 29  1  0
  1 30  1  0
  3 31  1  0
  8 32  1  0
  8 33  1  0
 10 34  1  0
 11 35  1  0
 16 36  1  0
 16 37  1  0
 18 38  1  0
 19 39  1  0
 20 40  1  0
 21 41  1  0
 24 42  1  0
 25 43  1  0
 26 44  1  0
M  CHG  2   7  -1  15  -1
M  END
>  <UniqueID>  (45) 
42

>  <SMILES>  (45) 
Cc1cc(C(=O)[N-]Cc2ccc(C(=O)[N-]Cc3ccccc3Cl)cc2)cs1

>  <Energy>  (45) 
72.6627696105818

>  <Genealogy>  (45) 
Cc1cc(C(=O)[N-]Cc2ccc(C(=O)[N-]Cc3ccccc3Cl)cc2)cs1 (protonated)
Cc1cc(C(=O)[N-]Cc2ccc(C(=O)[N-]Cc3ccccc3Cl)cc2)cs1 (3D coordinates assigned)
Cc1cc(C(=O)[N-]Cc2ccc(C(=O)[N-]Cc3ccccc3Cl)cc2)cs1 (optimized conformer: 72.6627696105818 kcal/mol)

>  <smiles>  (45) 
Cc1cc(C(=O)NCc2ccc(C(=O)NCc3ccccc3Cl)cc2)cs1

>  <score_type>  (45) 
oracle

>  <origin>  (45) 
adg

>  <m_score__min__energy>  (45) 
-11.76

>  <m_primary>  (45) 
energy

$$$$
45:0
     RDKit          3D

 33 34  0  0  0  0  0  0  0  0999 V2000
   56.2788   26.8738   54.2654 H   0  0  0  0  0  0  0  0  0  0  0  0
   55.4070   27.5210   54.0890 C   0  0  0  0  0  0  0  0  0  0  0  0
   54.4234   27.2412   54.4942 H   0  0  0  0  0  0  0  0  0  0  0  0
   55.5430   28.6480   53.3820 C   0  0  0  0  0  0  0  0  0  0  0  0
   54.4470   29.4220   53.1840 N   0  0  0  0  0  0  0  0  0  0  0  0
   54.4800   30.5820   52.4810 C   0  0  0  0  0  0  0  0  0  0  0  0
   53.3640   31.3150   52.3130 C   0  0  0  0  0  0  0  0  0  0  0  0
   53.1107   32.0493   53.0918 H   0  0  0  0  0  0  0  0  0  0  0  0
   52.4550   31.2000   51.1520 C   0  0  0  0  0  0  0  0  0  0  0  0
   52.5180   30.2530   50.1960 N   0  0  0  0  0  0  0  0  0  0  0  0
   51.4950   30.5680   49.3730 C   0  0  0  0  0  0  0  0  0  0  0  0
   51.2250   29.9000   48.3400 O   0  0  0  0  0  0  0  0  0  0  0  0
   50.7840   31.6550   49.7420 N   0  0  0  0  0  0  0  0  0  0  0  0
   51.4050   32.0410   50.8680 C   0  0  0  0  0  0  0  0  0  0  0  0
   51.0190   33.1430   51.6220 O   0  0  0  0  0  0  0  0  0  0  0  0
   55.6970   31.0130   51.9290 C   0  0  0  0  0  0  0  0  0  0  0  0
   55.7307   31.9529   51.3586 H   0  0  0  0  0  0  0  0  0  0  0  0
   56.8820   30.2550   52.0960 C   0  0  0  0  0  0  0  0  0  0  0  0
   58.2360   30.7210   51.4890 C   0  0  0  0  0  0  0  0  0  0  0  0
   58.0560   32.0820   50.7770 C   0  0  0  0  0  0  0  0  0  0  0  0
   57.9507   32.8780   51.5288 H   0  0  0  0  0  0  0  0  0  0  0  0
   58.9350   32.2858   50.1479 H   0  0  0  0  0  0  0  0  0  0  0  0
   57.1542   32.0503   50.1479 H   0  0  0  0  0  0  0  0  0  0  0  0
   58.8040   29.7340   50.4370 C   0  0  0  0  0  0  0  0  0  0  0  0
   59.2894   28.8906   50.9500 H   0  0  0  0  0  0  0  0  0  0  0  0
   57.9844   29.3576   49.8073 H   0  0  0  0  0  0  0  0  0  0  0  0
   59.5413   30.2535   49.8073 H   0  0  0  0  0  0  0  0  0  0  0  0
   59.2980   30.8510   52.6040 C   0  0  0  0  0  0  0  0  0  0  0  0
   58.8072   30.7909   53.5866 H   0  0  0  0  0  0  0  0  0  0  0  0
   60.0305   30.0358   52.5095 H   0  0  0  0  0  0  0  0  0  0  0  0
   59.8122   31.8188   52.5095 H   0  0  0  0  0  0  0  0  0  0  0  0
   56.7850   29.0470   52.8430 C   0  0  0  0  0  0  0  0  0  0  0  0
   57.8010   28.3250   53.0290 O   0  0  0  0  0  0  0  0  0  0  0  0
  1  2  1  0
  2  3  1  0
  2  4  2  0
  4  5  1  0
  5  6  1  0
  6  7  2  0
  7  8  1  0
  7  9  1  0
  9 10  1  0
 10 11  1  0
 11 12  2  0
 11 13  1  0
 13 14  1  0
 14 15  1  0
  6 16  1  0
 16 17  1  0
 16 18  2  0
 18 19  1  0
 19 20  1  0
 20 21  1  0
 20 22  1  0
 20 23  1  0
 19 24  1  0
 24 25  1  0
 24 26  1  0
 24 27  1  0
 19 28  1  0
 28 29  1  0
 28 30  1  0
 28 31  1  0
 18 32  1  0
 32 33  2  0
 32  4  1  0
 14  9  2  0
M  CHG  4   5  -1  10  -1  13  -1  15  -1
M  END
>  <UniqueID>  (46) 
43

>  <SMILES>  (46) 
C=c1[n-]/c(=C\c2[n-]c(=O)[n-]c2[O-])cc(C(C)(C)C)c1=O

>  <Energy>  (46) 
71.33404979490602

>  <Genealogy>  (46) 
C=c1[n-]c(=Cc2[n-]c(=O)[n-]c2[O-])cc(C(C)(C)C)c1=O (protonated)
C=c1[n-]/c(=C\c2[n-]c(=O)[n-]c2[O-])cc(C(C)(C)C)c1=O (cis-trans isomerization)
C=c1[n-]/c(=C\c2[n-]c(=O)[n-]c2[O-])cc(C(C)(C)C)c1=O (3D coordinates assigned)
C=c1[n-]/c(=C\c2[n-]c(=O)[n-]c2[O-])cc(C(C)(C)C)c1=O (optimized conformer: 71.33404979490602 kcal/mol)

>  <smiles>  (46) 
C=c1[nH]c(=Cc2[nH]c(=O)[nH]c2O)cc(C(C)(C)C)c1=O

>  <score_type>  (46) 
oracle

>  <origin>  (46) 
adg

>  <m_score__min__energy>  (46) 
-16.329999999999998

>  <m_primary>  (46) 
energy

$$$$
46:0
     RDKit          3D

 44 46  0  0  0  0  0  0  0  0999 V2000
   58.3220   33.8930   47.4640 C   0  0  0  0  0  0  0  0  0  0  0  0
   58.2500   33.4250   46.2030 C   0  0  0  0  0  0  0  0  0  0  0  0
   57.5180   32.2430   45.9840 C   0  0  0  0  0  0  0  0  0  0  0  0
   57.3890   31.7020   44.7010 C   0  0  0  0  0  0  0  0  0  0  0  0
   56.6050   30.4610   44.4860 C   0  0  0  0  0  0  0  0  0  0  0  0
   55.7360   30.4310   43.5750 O   0  0  0  0  0  0  0  0  0  0  0  0
   56.7690   29.3040   45.3170 N   0  0  0  0  0  0  0  0  0  0  0  0
   57.9930   28.8660   45.9280 C   0  0  0  0  0  0  0  0  0  0  0  0
   58.5170   29.5190   47.0580 C   0  0  0  0  0  0  0  0  0  0  0  0
   59.7200   29.0870   47.6430 C   0  0  0  0  0  0  0  0  0  0  0  0
   60.2430   29.7580   48.8560 C   0  0  0  0  0  0  0  0  0  0  0  0
   59.8370   29.3880   49.9920 O   0  0  0  0  0  0  0  0  0  0  0  0
   61.2270   30.8020   48.7660 N   0  0  0  0  0  0  0  0  0  0  0  0
   60.9930   31.9680   47.9030 C   0  0  0  0  0  0  0  0  0  0  0  0
   62.3270   32.5550   47.3830 C   0  0  0  0  0  0  0  0  0  0  0  0
   63.4780   31.9980   47.9960 O   0  0  0  0  0  0  0  0  0  0  0  0
   63.3080   31.9490   49.3970 C   0  0  0  0  0  0  0  0  0  0  0  0
   62.3160   30.8400   49.7470 C   0  0  0  0  0  0  0  0  0  0  0  0
   60.3970   27.9910   47.0830 C   0  0  0  0  0  0  0  0  0  0  0  0
   59.8950   27.3580   45.9450 C   0  0  0  0  0  0  0  0  0  0  0  0
   58.7020   27.7960   45.3610 C   0  0  0  0  0  0  0  0  0  0  0  0
   58.0960   26.9690   43.9320 Cl  0  0  0  0  0  0  0  0  0  0  0  0
   58.0280   32.3420   43.6380 C   0  0  0  0  0  0  0  0  0  0  0  0
   58.7370   33.4820   43.8430 N   0  0  0  0  0  0  0  0  0  0  0  0
   58.8710   34.0550   45.0790 C   0  0  0  0  0  0  0  0  0  0  0  0
   59.5880   35.1900   45.1730 C   0  0  0  0  0  0  0  0  0  0  0  0
   58.8844   34.8139   47.6776 H   0  0  0  0  0  0  0  0  0  0  0  0
   57.8184   33.3543   48.2802 H   0  0  0  0  0  0  0  0  0  0  0  0
   57.0398   31.7368   46.8355 H   0  0  0  0  0  0  0  0  0  0  0  0
   57.9798   30.3769   47.4886 H   0  0  0  0  0  0  0  0  0  0  0  0
   60.3769   31.6615   47.0448 H   0  0  0  0  0  0  0  0  0  0  0  0
   60.4785   32.7408   48.4930 H   0  0  0  0  0  0  0  0  0  0  0  0
   62.3878   32.3705   46.3003 H   0  0  0  0  0  0  0  0  0  0  0  0
   62.3215   33.6270   47.6293 H   0  0  0  0  0  0  0  0  0  0  0  0
   64.2755   31.7417   49.8775 H   0  0  0  0  0  0  0  0  0  0  0  0
   62.9225   32.9149   49.7554 H   0  0  0  0  0  0  0  0  0  0  0  0
   62.8388   29.8722   49.7462 H   0  0  0  0  0  0  0  0  0  0  0  0
   61.8933   31.0397   50.7427 H   0  0  0  0  0  0  0  0  0  0  0  0
   61.3281   27.6296   47.5440 H   0  0  0  0  0  0  0  0  0  0  0  0
   60.4405   26.5101   45.5050 H   0  0  0  0  0  0  0  0  0  0  0  0
   57.9567   31.9192   42.6250 H   0  0  0  0  0  0  0  0  0  0  0  0
   59.1890   33.9190   43.0060 H   0  0  0  0  0  0  0  0  0  0  0  0
   59.7176   35.6794   46.1496 H   0  0  0  0  0  0  0  0  0  0  0  0
   60.0444   35.6283   44.2733 H   0  0  0  0  0  0  0  0  0  0  0  0
  1  2  2  0
  2  3  1  0
  3  4  2  0
  4  5  1  0
  5  6  2  0
  5  7  1  0
  7  8  1  0
  8  9  2  0
  9 10  1  0
 10 11  1  0
 11 12  2  0
 11 13  1  0
 13 14  1  0
 14 15  1  0
 15 16  1  0
 16 17  1  0
 17 18  1  0
 10 19  2  0
 19 20  1  0
 20 21  2  0
 21 22  1  0
  4 23  1  0
 23 24  2  0
 24 25  1  0
 25 26  2  0
 25  2  1  0
 21  8  1  0
 18 13  1  0
  1 27  1  0
  1 28  1  0
  3 29  1  0
  9 30  1  0
 14 31  1  0
 14 32  1  0
 15 33  1  0
 15 34  1  0
 17 35  1  0
 17 36  1  0
 18 37  1  0
 18 38  1  0
 19 39  1  0
 20 40  1  0
 23 41  1  0
 24 42  1  0
 26 43  1  0
 26 44  1  0
M  CHG  2   7  -1  24   1
M  END
>  <UniqueID>  (47) 
44

>  <SMILES>  (47) 
C=c1cc(C(=O)[N-]c2cc(C(=O)N3CCOCC3)ccc2Cl)c[nH+]c1=C

>  <Energy>  (47) 
70.62078291946851

>  <Genealogy>  (47) 
C=c1cc(C(=O)[N-]c2cc(C(=O)N3CCOCC3)ccc2Cl)c[nH+]c1=C (protonated)
C=c1cc(C(=O)[N-]c2cc(C(=O)N3CCOCC3)ccc2Cl)c[nH+]c1=C (3D coordinates assigned)
C=c1cc(C(=O)[N-]c2cc(C(=O)N3CCOCC3)ccc2Cl)c[nH+]c1=C (nonaromatic ring conformer: 70.62078291946851 kcal/mol)

>  <smiles>  (47) 
C=c1cc(C(=O)Nc2cc(C(=O)N3CCOCC3)ccc2Cl)cnc1=C

>  <score_type>  (47) 
oracle

>  <origin>  (47) 
adg

>  <m_score__min__energy>  (47) 
-8.6799999999999997

>  <m_primary>  (47) 
energy

$$$$
47:0
     RDKit          3D

 43 45  0  0  0  0  0  0  0  0999 V2000
   57.3442   23.9002   43.0042 H   0  0  0  0  0  0  0  0  0  0  0  0
   56.5810   24.1210   43.7650 C   0  0  0  0  0  0  0  0  0  0  0  0
   55.5162   24.1308   43.4892 H   0  0  0  0  0  0  0  0  0  0  0  0
   56.9470   24.3770   45.0230 C   0  0  0  0  0  0  0  0  0  0  0  0
   58.0153   24.3638   45.2849 H   0  0  0  0  0  0  0  0  0  0  0  0
   55.9360   24.6820   46.0870 C   0  0  0  0  0  0  0  0  0  0  0  0
   55.0732   24.0090   45.9748 H   0  0  0  0  0  0  0  0  0  0  0  0
   56.3938   24.5352   47.0764 H   0  0  0  0  0  0  0  0  0  0  0  0
   55.4900   26.0680   45.9620 N   0  0  0  0  0  0  0  0  0  0  0  0
   56.2900   27.0920   45.9670 C   0  0  0  0  0  0  0  0  0  0  0  0
   57.4540   27.0580   46.6700 N   0  0  0  0  0  0  0  0  0  0  0  0
   58.2950   28.1250   46.6670 C   0  0  0  0  0  0  0  0  0  0  0  0
   59.4020   28.1170   47.3510 N   0  0  0  0  0  0  0  0  0  0  0  0
   60.1690   29.2610   47.7620 C   0  0  0  0  0  0  0  0  0  0  0  0
   60.7480   30.0720   46.7760 C   0  0  0  0  0  0  0  0  0  0  0  0
   60.5897   29.8363   45.7133 H   0  0  0  0  0  0  0  0  0  0  0  0
   61.5250   31.1780   47.1330 C   0  0  0  0  0  0  0  0  0  0  0  0
   61.9625   31.8177   46.3523 H   0  0  0  0  0  0  0  0  0  0  0  0
   61.7460   31.4710   48.4810 C   0  0  0  0  0  0  0  0  0  0  0  0
   62.3499   32.3465   48.7616 H   0  0  0  0  0  0  0  0  0  0  0  0
   61.2000   30.6520   49.4730 C   0  0  0  0  0  0  0  0  0  0  0  0
   61.3808   30.8790   50.5340 H   0  0  0  0  0  0  0  0  0  0  0  0
   60.4240   29.5440   49.1180 C   0  0  0  0  0  0  0  0  0  0  0  0
   60.0111   28.8909   49.9009 H   0  0  0  0  0  0  0  0  0  0  0  0
   57.9550   29.2370   45.9700 N   0  0  0  0  0  0  0  0  0  0  0  0
   56.7950   29.2840   45.2620 C   0  0  0  0  0  0  0  0  0  0  0  0
   56.4720   30.3480   44.5840 N   0  0  0  0  0  0  0  0  0  0  0  0
   57.4130   31.1810   43.8360 C   0  0  0  0  0  0  0  0  0  0  0  0
   58.2644   30.5639   43.5129 H   0  0  0  0  0  0  0  0  0  0  0  0
   56.8958   31.6031   42.9618 H   0  0  0  0  0  0  0  0  0  0  0  0
   57.9180   32.3110   44.6940 C   0  0  0  0  0  0  0  0  0  0  0  0
   58.4470   33.4740   44.1090 C   0  0  0  0  0  0  0  0  0  0  0  0
   58.5113   33.5565   43.0140 H   0  0  0  0  0  0  0  0  0  0  0  0
   58.8920   34.5270   44.9150 C   0  0  0  0  0  0  0  0  0  0  0  0
   59.3066   35.4349   44.4525 H   0  0  0  0  0  0  0  0  0  0  0  0
   58.8110   34.4280   46.3060 C   0  0  0  0  0  0  0  0  0  0  0  0
   59.1619   35.2573   46.9378 H   0  0  0  0  0  0  0  0  0  0  0  0
   58.2840   33.2750   46.8950 C   0  0  0  0  0  0  0  0  0  0  0  0
   58.2209   33.1977   47.9905 H   0  0  0  0  0  0  0  0  0  0  0  0
   57.8370   32.2200   46.0940 C   0  0  0  0  0  0  0  0  0  0  0  0
   57.4204   31.3155   46.5612 H   0  0  0  0  0  0  0  0  0  0  0  0
   55.9630   28.2080   45.2620 N   0  0  0  0  0  0  0  0  0  0  0  0
   55.0690   28.2390   44.7190 H   0  0  0  0  0  0  0  0  0  0  0  0
  1  2  1  0
  2  3  1  0
  2  4  2  0
  4  5  1  0
  4  6  1  0
  6  7  1  0
  6  8  1  0
  6  9  1  0
  9 10  2  0
 10 11  1  0
 11 12  1  0
 12 13  2  0
 13 14  1  0
 14 15  2  0
 15 16  1  0
 15 17  1  0
 17 18  1  0
 17 19  2  0
 19 20  1  0
 19 21  1  0
 21 22  1  0
 21 23  2  0
 23 24  1  0
 12 25  1  0
 25 26  1  0
 26 27  2  3
 27 28  1  0
 28 29  1  0
 28 30  1  0
 28 31  1  0
 31 32  2  0
 32 33  1  0
 32 34  1  0
 34 35  1  0
 34 36  2  0
 36 37  1  0
 36 38  1  0
 38 39  1  0
 38 40  2  0
 40 41  1  0
 26 42  1  0
 42 43  1  0
 42 10  1  0
 23 14  1  0
 40 31  1  0
M  CHG  2  11  -1  25  -1
M  END
>  <UniqueID>  (48) 
45

>  <SMILES>  (48) 
C=CC/N=c1\[n-]/c(=N\c2ccccc2)[n-]c(=NCc2ccccc2)[nH]1

>  <Energy>  (48) 
46.65598615382303

>  <Genealogy>  (48) 
C=CCN=c1[n-]c(=Nc2ccccc2)[n-]c(=NCc2ccccc2)[nH]1 (protonated)
C=CC/N=c1\[n-]/c(=N\c2ccccc2)[n-]c(=NCc2ccccc2)[nH]1 (cis-trans isomerization)
C=CC/N=c1\[n-]/c(=N\c2ccccc2)[n-]c(=NCc2ccccc2)[nH]1 (3D coordinates assigned)
C=CC/N=c1\[n-]/c(=N\c2ccccc2)[n-]c(=NCc2ccccc2)[nH]1 (optimized conformer: 46.65598615382303 kcal/mol)

>  <smiles>  (48) 
C=CCN=c1[nH]c(=NCc2ccccc2)[nH]c(=Nc2ccccc2)[nH]1

>  <score_type>  (48) 
oracle

>  <origin>  (48) 
adg

>  <m_score__min__energy>  (48) 
-11.18

>  <m_primary>  (48) 
energy

$$$$
48:0
     RDKit          3D

 49 51  0  0  0  0  0  0  0  0999 V2000
   59.1280   27.9200   45.1890 C   0  0  0  0  0  0  0  0  0  0  0  0
   58.0980   27.9990   46.0340 C   0  0  0  0  0  0  0  0  0  0  0  0
   56.7020   27.6350   45.6100 C   0  0  0  0  0  0  0  0  0  0  0  0
   55.9500   28.8240   45.2090 N   0  0  0  0  0  0  0  0  0  0  0  0
   56.4800   29.9000   44.7070 C   0  0  0  0  0  0  0  0  0  0  0  0
   57.0220   30.8530   45.5150 N   0  0  0  0  0  0  0  0  0  0  0  0
   57.5630   31.9880   45.0020 C   0  0  0  0  0  0  0  0  0  0  0  0
   58.2120   33.2000   46.0990 S   0  0  0  0  0  0  0  0  0  0  0  0
   58.0380   34.5490   45.4620 O   0  0  0  0  0  0  0  0  0  0  0  0
   57.4510   33.1800   47.3960 O   0  0  0  0  0  0  0  0  0  0  0  0
   59.9170   32.9200   46.3950 N   0  0  0  0  0  0  0  0  0  0  0  0
   60.2370   31.4820   46.5080 C   0  0  0  0  0  0  0  0  0  0  0  0
   59.6410   30.8590   47.7810 C   0  0  0  0  0  0  0  0  0  0  0  0
   59.7300   31.7920   48.9090 N   0  0  0  0  0  0  0  0  0  0  0  0
   58.9060   31.6020   50.0750 C   0  0  0  0  0  0  0  0  0  0  0  0
   58.5180   30.3110   50.4730 C   0  0  0  0  0  0  0  0  0  0  0  0
   57.7330   30.1250   51.6150 C   0  0  0  0  0  0  0  0  0  0  0  0
   57.3270   31.2320   52.3850 C   0  0  0  0  0  0  0  0  0  0  0  0
   56.5400   31.0980   53.5380 O   0  0  0  0  0  0  0  0  0  0  0  0
   55.5160   30.1220   53.7030 C   0  0  0  0  0  0  0  0  0  0  0  0
   57.7220   32.5160   51.9940 C   0  0  0  0  0  0  0  0  0  0  0  0
   58.5070   32.7020   50.8530 C   0  0  0  0  0  0  0  0  0  0  0  0
   60.6730   32.9130   48.8160 C   0  0  0  0  0  0  0  0  0  0  0  0
   60.4100   33.7290   47.5380 C   0  0  0  0  0  0  0  0  0  0  0  0
   57.5670   32.1870   43.6180 C   0  0  0  0  0  0  0  0  0  0  0  0
   57.0140   31.1990   42.8040 C   0  0  0  0  0  0  0  0  0  0  0  0
   57.0020   31.3410   41.5530 O   0  0  0  0  0  0  0  0  0  0  0  0
   56.4820   30.0790   43.3610 N   0  0  0  0  0  0  0  0  0  0  0  0
   60.1387   28.1928   45.5268 H   0  0  0  0  0  0  0  0  0  0  0  0
   58.9662   27.5821   44.1548 H   0  0  0  0  0  0  0  0  0  0  0  0
   58.2745   28.3385   47.0653 H   0  0  0  0  0  0  0  0  0  0  0  0
   56.7541   26.9385   44.7602 H   0  0  0  0  0  0  0  0  0  0  0  0
   56.1879   27.1654   46.4616 H   0  0  0  0  0  0  0  0  0  0  0  0
   59.8296   30.9573   45.6312 H   0  0  0  0  0  0  0  0  0  0  0  0
   61.3310   31.3798   46.5591 H   0  0  0  0  0  0  0  0  0  0  0  0
   58.5846   30.6112   47.6006 H   0  0  0  0  0  0  0  0  0  0  0  0
   60.2106   29.9512   48.0289 H   0  0  0  0  0  0  0  0  0  0  0  0
   58.8346   29.4396   49.8810 H   0  0  0  0  0  0  0  0  0  0  0  0
   57.4314   29.1100   51.9131 H   0  0  0  0  0  0  0  0  0  0  0  0
   55.3393   29.9536   54.7756 H   0  0  0  0  0  0  0  0  0  0  0  0
   54.5892   30.4794   53.2304 H   0  0  0  0  0  0  0  0  0  0  0  0
   55.8285   29.1791   53.2304 H   0  0  0  0  0  0  0  0  0  0  0  0
   57.4118   33.3869   52.5901 H   0  0  0  0  0  0  0  0  0  0  0  0
   58.8149   33.7171   50.5617 H   0  0  0  0  0  0  0  0  0  0  0  0
   60.5499   33.5643   49.6939 H   0  0  0  0  0  0  0  0  0  0  0  0
   61.6982   32.5157   48.7817 H   0  0  0  0  0  0  0  0  0  0  0  0
   59.6576   34.4979   47.7674 H   0  0  0  0  0  0  0  0  0  0  0  0
   61.3750   34.1585   47.2308 H   0  0  0  0  0  0  0  0  0  0  0  0
   57.9961   33.1011   43.1817 H   0  0  0  0  0  0  0  0  0  0  0  0
  1  2  2  0
  2  3  1  0
  3  4  1  0
  4  5  2  3
  5  6  1  0
  6  7  1  0
  7  8  1  0
  8  9  2  0
  8 10  2  0
  8 11  1  0
 11 12  1  0
 12 13  1  0
 13 14  1  0
 14 15  1  0
 15 16  2  0
 16 17  1  0
 17 18  2  0
 18 19  1  0
 19 20  1  0
 18 21  1  0
 21 22  2  0
 14 23  1  0
 23 24  1  0
  7 25  2  0
 25 26  1  0
 26 27  2  0
 26 28  1  0
 28  5  1  0
 24 11  1  0
 22 15  1  0
  1 29  1  0
  1 30  1  0
  2 31  1  0
  3 32  1  0
  3 33  1  0
 12 34  1  0
 12 35  1  0
 13 36  1  0
 13 37  1  0
 16 38  1  0
 17 39  1  0
 20 40  1  0
 20 41  1  0
 20 42  1  0
 21 43  1  0
 22 44  1  0
 23 45  1  0
 23 46  1  0
 24 47  1  0
 24 48  1  0
 25 49  1  0
M  CHG  2   6  -1  28  -1
M  END
>  <UniqueID>  (49) 
46

>  <SMILES>  (49) 
C=CCN=c1[n-]c(S(=O)(=O)N2CCN(c3ccc(OC)cc3)CC2)cc(=O)[n-]1

>  <Energy>  (49) 
57.26682107437054

>  <Genealogy>  (49) 
C=CCN=c1[n-]c(S(=O)(=O)N2CCN(c3ccc(OC)cc3)CC2)cc(=O)[n-]1 (protonated)
C=CCN=c1[n-]c(S(=O)(=O)N2CCN(c3ccc(OC)cc3)CC2)cc(=O)[n-]1 (3D coordinates assigned)
C=CCN=c1[n-]c(S(=O)(=O)N2CCN(c3ccc(OC)cc3)CC2)cc(=O)[n-]1 (nonaromatic ring conformer: 57.26682107437054 kcal/mol)

>  <smiles>  (49) 
C=CCN=c1[nH]c(S(=O)(=O)N2CCN(c3ccc(OC)cc3)CC2)cc(=O)[nH]1

>  <score_type>  (49) 
oracle

>  <origin>  (49) 
adg

>  <m_score__min__energy>  (49) 
-10.640000000000001

>  <m_primary>  (49) 
energy

$$$$
49:0
     RDKit          3D

 29 30  0  0  0  0  0  0  0  0999 V2000
   57.2450   29.3410   51.9910 O   0  0  0  0  0  0  0  0  0  0  0  0
   56.3610   30.2160   52.1950 C   0  0  0  0  0  0  0  0  0  0  0  0
   56.6500   31.6410   51.8190 C   0  0  0  0  0  0  0  0  0  0  0  0
   57.7190   32.2030   52.7150 C   0  0  0  0  0  0  0  0  0  0  0  0
   58.0880   33.5530   52.6090 C   0  0  0  0  0  0  0  0  0  0  0  0
   59.1070   34.0520   53.4210 C   0  0  0  0  0  0  0  0  0  0  0  0
   59.7540   33.2060   54.3220 C   0  0  0  0  0  0  0  0  0  0  0  0
   59.3710   31.8650   54.3960 C   0  0  0  0  0  0  0  0  0  0  0  0
   58.3750   31.3920   53.5970 N   0  0  0  0  0  0  0  0  0  0  0  0
   55.0680   29.8370   52.8100 C   0  0  0  0  0  0  0  0  0  0  0  0
   55.0360   28.8680   53.6170 O   0  0  0  0  0  0  0  0  0  0  0  0
   53.8140   30.5730   52.5220 C   0  0  0  0  0  0  0  0  0  0  0  0
   53.5660   31.0550   51.2250 C   0  0  0  0  0  0  0  0  0  0  0  0
   52.3940   31.7640   50.9440 C   0  0  0  0  0  0  0  0  0  0  0  0
   51.4630   32.0090   51.9560 C   0  0  0  0  0  0  0  0  0  0  0  0
   50.3000   32.7140   51.6750 O   0  0  0  0  0  0  0  0  0  0  0  0
   51.7060   31.5490   53.2530 C   0  0  0  0  0  0  0  0  0  0  0  0
   52.8770   30.8400   53.5380 C   0  0  0  0  0  0  0  0  0  0  0  0
   56.9928   31.6797   50.7745 H   0  0  0  0  0  0  0  0  0  0  0  0
   55.7329   32.2375   51.9332 H   0  0  0  0  0  0  0  0  0  0  0  0
   57.5779   34.2124   51.8914 H   0  0  0  0  0  0  0  0  0  0  0  0
   59.3995   35.1101   53.3509 H   0  0  0  0  0  0  0  0  0  0  0  0
   60.5573   33.5911   54.9673 H   0  0  0  0  0  0  0  0  0  0  0  0
   59.8755   31.1888   55.1019 H   0  0  0  0  0  0  0  0  0  0  0  0
   58.1150   30.3820   53.6700 H   0  0  0  0  0  0  0  0  0  0  0  0
   54.2992   30.8731   50.4254 H   0  0  0  0  0  0  0  0  0  0  0  0
   52.2048   32.1295   49.9239 H   0  0  0  0  0  0  0  0  0  0  0  0
   50.9748   31.7450   54.0511 H   0  0  0  0  0  0  0  0  0  0  0  0
   53.0672   30.4886   54.5628 H   0  0  0  0  0  0  0  0  0  0  0  0
  1  2  2  0
  2  3  1  0
  3  4  1  0
  4  5  2  0
  5  6  1  0
  6  7  2  0
  7  8  1  0
  8  9  2  0
  2 10  1  0
 10 11  2  0
 10 12  1  0
 12 13  2  0
 13 14  1  0
 14 15  2  0
 15 16  1  0
 15 17  1  0
 17 18  2  0
  9  4  1  0
 18 12  1  0
  3 19  1  0
  3 20  1  0
  5 21  1  0
  6 22  1  0
  7 23  1  0
  8 24  1  0
  9 25  1  0
 13 26  1  0
 14 27  1  0
 17 28  1  0
 18 29  1  0
M  CHG  2   9   1  16  -1
M  END
>  <UniqueID>  (50) 
47

>  <SMILES>  (50) 
O=C(Cc1cccc[nH+]1)C(=O)c1ccc([O-])cc1

>  <Energy>  (50) 
31.923237651593688

>  <Genealogy>  (50) 
O=C(Cc1cccc[nH+]1)C(=O)c1ccc([O-])cc1 (protonated)
O=C(Cc1cccc[nH+]1)C(=O)c1ccc([O-])cc1 (3D coordinates assigned)
O=C(Cc1cccc[nH+]1)C(=O)c1ccc([O-])cc1 (optimized conformer: 31.923237651593688 kcal/mol)

>  <smiles>  (50) 
O=C(Cc1ccccn1)C(=O)c1ccc(O)cc1

>  <score_type>  (50) 
oracle

>  <origin>  (50) 
adg

>  <m_score__min__energy>  (50) 
-8.5

>  <m_primary>  (50) 
energy

$$$$
50:0
     RDKit          3D

 59 63  0  0  0  0  0  0  0  0999 V2000
   59.4018   34.4063   50.1454 H   0  0  0  0  0  0  0  0  0  0  0  0
   59.8210   33.4060   49.9620 C   0  0  0  0  0  0  0  0  0  0  0  0
   59.4470   32.3210   50.7800 C   0  0  0  0  0  0  0  0  0  0  0  0
   58.3920   32.4300   51.8900 C   0  0  1  0  0  0  0  0  0  0  0  0
   58.1390   33.8890   52.3430 C   0  0  0  0  0  0  0  0  0  0  0  0
   58.1309   33.9355   53.4420 H   0  0  0  0  0  0  0  0  0  0  0  0
   58.9381   34.5374   51.9544 H   0  0  0  0  0  0  0  0  0  0  0  0
   57.1682   34.2305   51.9544 H   0  0  0  0  0  0  0  0  0  0  0  0
   57.0610   31.8340   51.3760 C   0  0  0  0  0  0  0  0  0  0  0  0
   56.9509   32.0617   50.3055 H   0  0  0  0  0  0  0  0  0  0  0  0
   56.2285   32.2761   51.9430 H   0  0  0  0  0  0  0  0  0  0  0  0
   57.0480   30.4340   51.5580 O   0  0  0  0  0  0  0  0  0  0  0  0
   57.0570   30.0840   52.9460 C   0  0  2  0  0  0  0  0  0  0  0  0
   57.7540   28.7510   53.1110 C   0  0  0  0  0  0  0  0  0  0  0  0
   57.2760   27.8770   53.8830 O   0  0  0  0  0  0  0  0  0  0  0  0
   58.9730   28.4780   52.4160 N   0  0  0  0  0  0  0  0  0  0  0  0
   59.4480   27.5560   52.5330 H   0  0  0  0  0  0  0  0  0  0  0  0
   59.4060   29.1940   51.7950 H   0  0  0  0  0  0  0  0  0  0  0  0
   55.6070   29.9190   53.4220 C   0  0  0  0  0  0  0  0  0  0  0  0
   55.5802   29.9159   54.5217 H   0  0  0  0  0  0  0  0  0  0  0  0
   54.9993   30.7538   53.0427 H   0  0  0  0  0  0  0  0  0  0  0  0
   55.2024   28.9690   53.0427 H   0  0  0  0  0  0  0  0  0  0  0  0
   57.6970   31.0560   53.7740 O   0  0  0  0  0  0  0  0  0  0  0  0
   58.8300   31.5970   53.1250 C   0  0  0  0  0  0  0  0  0  0  0  0
   59.4867   30.7778   52.7967 H   0  0  0  0  0  0  0  0  0  0  0  0
   59.3684   32.2507   53.8270 H   0  0  0  0  0  0  0  0  0  0  0  0
   59.9800   31.0950   50.5090 N   0  0  0  0  0  0  0  0  0  0  0  0
   60.8820   30.8670   49.5160 C   0  0  0  0  0  0  0  0  0  0  0  0
   61.3250   29.6500   49.3600 N   0  0  0  0  0  0  0  0  0  0  0  0
   60.6020   28.4090   49.3330 C   0  0  0  0  0  0  0  0  0  0  0  0
   60.3250   27.8500   50.4270 O   0  0  0  0  0  0  0  0  0  0  0  0
   60.2390   27.7880   48.0930 N   0  0  0  0  0  0  0  0  0  0  0  0
   59.1130   28.1170   47.2690 C   0  0  0  0  0  0  0  0  0  0  0  0
   58.1900   27.1290   46.8310 C   0  0  0  0  0  0  0  0  0  0  0  0
   58.3173   26.0843   47.1509 H   0  0  0  0  0  0  0  0  0  0  0  0
   57.1150   27.4750   45.9920 C   0  0  0  0  0  0  0  0  0  0  0  0
   56.3988   26.7158   45.6447 H   0  0  0  0  0  0  0  0  0  0  0  0
   56.9870   28.8070   45.6160 C   0  0  0  0  0  0  0  0  0  0  0  0
   56.0680   29.3390   44.7920 N   0  0  0  0  0  0  0  0  0  0  0  0
   56.3410   30.6360   44.6820 N   0  0  0  0  0  0  0  0  0  0  0  0
   57.4280   30.9310   45.4360 C   0  0  0  0  0  0  0  0  0  0  0  0
   57.9960   32.2910   45.5510 C   0  0  0  0  0  0  0  0  0  0  0  0
   58.4930   32.9370   44.4060 C   0  0  0  0  0  0  0  0  0  0  0  0
   58.4698   32.4217   43.4344 H   0  0  0  0  0  0  0  0  0  0  0  0
   59.0170   34.2310   44.4940 C   0  0  0  0  0  0  0  0  0  0  0  0
   59.4114   34.7263   43.5945 H   0  0  0  0  0  0  0  0  0  0  0  0
   59.0400   34.8950   45.7230 C   0  0  0  0  0  0  0  0  0  0  0  0
   59.4596   35.9095   45.7927 H   0  0  0  0  0  0  0  0  0  0  0  0
   58.5300   34.2700   46.8630 C   0  0  0  0  0  0  0  0  0  0  0  0
   58.5418   34.7960   47.8290 H   0  0  0  0  0  0  0  0  0  0  0  0
   58.0040   32.9760   46.7790 C   0  0  0  0  0  0  0  0  0  0  0  0
   57.5947   32.4922   47.6781 H   0  0  0  0  0  0  0  0  0  0  0  0
   57.8660   29.7650   46.0370 C   0  0  0  0  0  0  0  0  0  0  0  0
   58.9640   29.4520   46.8390 C   0  0  0  0  0  0  0  0  0  0  0  0
   59.6924   30.2241   47.1276 H   0  0  0  0  0  0  0  0  0  0  0  0
   61.2560   31.9390   48.6830 C   0  0  0  0  0  0  0  0  0  0  0  0
   61.9607   31.7786   47.8537 H   0  0  0  0  0  0  0  0  0  0  0  0
   60.7240   33.2060   48.9200 C   0  0  0  0  0  0  0  0  0  0  0  0
   61.0187   34.0516   48.2812 H   0  0  0  0  0  0  0  0  0  0  0  0
  1  2  1  0
  2  3  2  0
  3  4  1  0
  4  5  1  1
  5  6  1  0
  5  7  1  0
  5  8  1  0
  4  9  1  0
  9 10  1  0
  9 11  1  0
  9 12  1  0
 12 13  1  0
 13 14  1  0
 14 15  2  0
 14 16  1  0
 16 17  1  0
 16 18  1  0
 13 19  1  1
 19 20  1  0
 19 21  1  0
 19 22  1  0
 13 23  1  0
 23 24  1  0
 24 25  1  0
 24 26  1  0
  3 27  1  0
 27 28  1  0
 28 29  2  0
 29 30  1  0
 30 31  2  0
 30 32  1  0
 32 33  1  0
 33 34  2  0
 34 35  1  0
 34 36  1  0
 36 37  1  0
 36 38  2  0
 38 39  1  0
 39 40  1  0
 40 41  2  0
 41 42  1  0
 42 43  2  0
 43 44  1  0
 43 45  1  0
 45 46  1  0
 45 47  2  0
 47 48  1  0
 47 49  1  0
 49 50  1  0
 49 51  2  0
 51 52  1  0
 41 53  1  0
 53 54  2  0
 54 55  1  0
 28 56  1  0
 56 57  1  0
 56 58  2  0
 58 59  1  0
 58  2  1  0
 24  4  1  0
 54 33  1  0
 53 38  1  0
 51 42  1  0
M  CHG  3  27  -1  32  -1  39  -1
M  END
>  <UniqueID>  (51) 
48

>  <SMILES>  (51) 
CC1(C(N)=O)OCC(C)(c2ccc/c(=N\C(=O)[N-]c3ccc4[n-]nc(-c5ccccc5)c4c3)[n-]2)CO1

>  <Energy>  (51) 
131.64468640021406

>  <Genealogy>  (51) 
CC1(C(N)=O)OCC(C)(c2cccc(=NC(=O)[N-]c3ccc4[n-]nc(-c5ccccc5)c4c3)[n-]2)CO1 (protonated)
CC1(C(N)=O)OCC(C)(c2ccc/c(=N\C(=O)[N-]c3ccc4[n-]nc(-c5ccccc5)c4c3)[n-]2)CO1 (cis-trans isomerization)
CC1(C(N)=O)OCC(C)(c2ccc/c(=N\C(=O)[N-]c3ccc4[n-]nc(-c5ccccc5)c4c3)[n-]2)CO1 (3D coordinates assigned)
CC1(C(N)=O)OCC(C)(c2ccc/c(=N\C(=O)[N-]c3ccc4[n-]nc(-c5ccccc5)c4c3)[n-]2)CO1 (nonaromatic ring conformer: 131.64468640021406 kcal/mol)

>  <smiles>  (51) 
CC1(C(N)=O)OCC(C)(c2cccc(=NC(=O)Nc3ccc4[nH]nc(-c5ccccc5)c4c3)[nH]2)CO1

>  <score_type>  (51) 
oracle

>  <origin>  (51) 
adg

>  <m_score__min__energy>  (51) 
-13.6

>  <m_primary>  (51) 
energy

$$$$
51:0
     RDKit          3D

 55 58  0  0  0  0  0  0  0  0999 V2000
   57.7690   26.3740   43.1830 C   0  0  0  0  0  0  0  0  0  0  0  0
   58.0660   26.2640   44.4870 C   0  0  0  0  0  0  0  0  0  0  0  0
   57.5060   25.3600   45.4030 C   0  0  0  0  0  0  0  0  0  0  0  0
   56.7450   24.2640   45.2130 C   0  0  0  0  0  0  0  0  0  0  0  0
   55.2720   24.2310   45.2180 C   0  0  0  0  0  0  0  0  0  0  0  0
   54.5290   23.1310   44.9950 N   0  0  0  0  0  0  0  0  0  0  0  0
   53.2690   23.5530   45.2400 C   0  0  0  0  0  0  0  0  0  0  0  0
   52.2670   22.8000   45.1210 O   0  0  0  0  0  0  0  0  0  0  0  0
   53.1680   24.8410   45.6300 N   0  0  0  0  0  0  0  0  0  0  0  0
   54.4470   25.2500   45.6250 C   0  0  0  0  0  0  0  0  0  0  0  0
   54.8530   26.5270   45.9890 O   0  0  0  0  0  0  0  0  0  0  0  0
   57.8980   25.7890   46.6580 C   0  0  0  0  0  0  0  0  0  0  0  0
   58.7160   26.8850   46.4730 C   0  0  0  0  0  0  0  0  0  0  0  0
   59.3270   27.6470   47.5810 C   0  0  0  0  0  0  0  0  0  0  0  0
   60.4840   27.3350   47.9740 O   0  0  0  0  0  0  0  0  0  0  0  0
   58.5830   28.6620   48.2720 N   0  0  0  0  0  0  0  0  0  0  0  0
   59.1900   29.6850   49.0810 C   0  0  0  0  0  0  0  0  0  0  0  0
   59.5780   29.3850   50.3950 C   0  0  0  0  0  0  0  0  0  0  0  0
   60.1620   30.3650   51.2010 C   0  0  0  0  0  0  0  0  0  0  0  0
   60.3530   31.6570   50.7050 C   0  0  0  0  0  0  0  0  0  0  0  0
   59.9490   31.9790   49.4030 C   0  0  0  0  0  0  0  0  0  0  0  0
   60.1860   33.6110   48.7720 S   0  0  0  0  0  0  0  0  0  0  0  0
   61.6590   33.9090   48.6980 O   0  0  0  0  0  0  0  0  0  0  0  0
   59.5580   34.5990   49.7140 O   0  0  0  0  0  0  0  0  0  0  0  0
   59.4770   33.7930   47.1850 N   0  0  0  0  0  0  0  0  0  0  0  0
   59.6700   35.1660   46.6920 C   0  0  0  0  0  0  0  0  0  0  0  0
   59.2750   35.2610   45.2060 C   0  0  0  0  0  0  0  0  0  0  0  0
   58.2670   34.1730   44.7960 C   0  0  0  0  0  0  0  0  0  0  0  0
   57.2960   33.8620   45.9390 C   0  0  0  0  0  0  0  0  0  0  0  0
   58.0420   33.4420   47.2250 C   0  0  0  0  0  0  0  0  0  0  0  0
   59.3600   30.9950   48.5980 C   0  0  0  0  0  0  0  0  0  0  0  0
   58.8520   27.1520   45.1510 N   0  0  0  0  0  0  0  0  0  0  0  0
   59.6720   28.2130   44.5540 C   0  0  0  0  0  0  0  0  0  0  0  0
   58.2794   27.1268   42.5643 H   0  0  0  0  0  0  0  0  0  0  0  0
   57.0151   25.7114   42.7328 H   0  0  0  0  0  0  0  0  0  0  0  0
   57.2686   23.3123   45.0393 H   0  0  0  0  0  0  0  0  0  0  0  0
   57.6119   25.3414   47.6212 H   0  0  0  0  0  0  0  0  0  0  0  0
   57.5400   28.5940   48.2640 H   0  0  0  0  0  0  0  0  0  0  0  0
   59.4214   28.3717   50.7933 H   0  0  0  0  0  0  0  0  0  0  0  0
   60.4719   30.1192   52.2274 H   0  0  0  0  0  0  0  0  0  0  0  0
   60.8221   32.4238   51.3389 H   0  0  0  0  0  0  0  0  0  0  0  0
   59.0433   35.8537   47.2787 H   0  0  0  0  0  0  0  0  0  0  0  0
   60.7303   35.4387   46.7985 H   0  0  0  0  0  0  0  0  0  0  0  0
   58.8240   36.2474   45.0228 H   0  0  0  0  0  0  0  0  0  0  0  0
   60.1862   35.1167   44.6070 H   0  0  0  0  0  0  0  0  0  0  0  0
   57.6951   34.5233   43.9241 H   0  0  0  0  0  0  0  0  0  0  0  0
   58.8230   33.2561   44.5507 H   0  0  0  0  0  0  0  0  0  0  0  0
   56.6967   34.7596   46.1517 H   0  0  0  0  0  0  0  0  0  0  0  0
   56.6550   33.0247   45.6258 H   0  0  0  0  0  0  0  0  0  0  0  0
   57.5782   33.9492   48.0839 H   0  0  0  0  0  0  0  0  0  0  0  0
   57.9670   32.3482   47.3137 H   0  0  0  0  0  0  0  0  0  0  0  0
   59.0280   31.2489   47.5805 H   0  0  0  0  0  0  0  0  0  0  0  0
   60.1348   28.8118   45.3523 H   0  0  0  0  0  0  0  0  0  0  0  0
   60.4585   27.7619   43.9312 H   0  0  0  0  0  0  0  0  0  0  0  0
   59.0372   28.8604   43.9312 H   0  0  0  0  0  0  0  0  0  0  0  0
  1  2  2  0
  2  3  1  0
  3  4  2  3
  4  5  1  0
  5  6  1  0
  6  7  1  0
  7  8  2  0
  7  9  1  0
  9 10  1  0
 10 11  1  0
  3 12  1  0
 12 13  2  0
 13 14  1  0
 14 15  2  0
 14 16  1  0
 16 17  1  0
 17 18  2  0
 18 19  1  0
 19 20  2  0
 20 21  1  0
 21 22  1  0
 22 23  2  0
 22 24  2  0
 22 25  1  0
 25 26  1  0
 26 27  1  0
 27 28  1  0
 28 29  1  0
 29 30  1  0
 21 31  2  0
 13 32  1  0
 32 33  1  0
 32  2  1  0
 10  5  2  0
 31 17  1  0
 30 25  1  0
  1 34  1  0
  1 35  1  0
  4 36  1  0
 12 37  1  0
 16 38  1  0
 18 39  1  0
 19 40  1  0
 20 41  1  0
 26 42  1  0
 26 43  1  0
 27 44  1  0
 27 45  1  0
 28 46  1  0
 28 47  1  0
 29 48  1  0
 29 49  1  0
 30 50  1  0
 30 51  1  0
 31 52  1  0
 33 53  1  0
 33 54  1  0
 33 55  1  0
M  CHG  3   6  -1   9  -1  11  -1
M  END
>  <UniqueID>  (52) 
49

>  <SMILES>  (52) 
C=c1c(=Cc2[n-]c(=O)[n-]c2[O-])cc(C(=O)Nc2cccc(S(=O)(=O)N3CCCCC3)c2)n1C

>  <Energy>  (52) 
135.85431070326482

>  <Genealogy>  (52) 
C=c1c(=Cc2[n-]c(=O)[n-]c2[O-])cc(C(=O)Nc2cccc(S(=O)(=O)N3CCCCC3)c2)n1C (protonated)
C=c1c(=Cc2[n-]c(=O)[n-]c2[O-])cc(C(=O)Nc2cccc(S(=O)(=O)N3CCCCC3)c2)n1C (3D coordinates assigned)
C=c1c(=Cc2[n-]c(=O)[n-]c2[O-])cc(C(=O)Nc2cccc(S(=O)(=O)N3CCCCC3)c2)n1C (nonaromatic ring conformer: 135.85431070326482 kcal/mol)

>  <smiles>  (52) 
C=c1c(=Cc2[nH]c(=O)[nH]c2O)cc(C(=O)Nc2cccc(S(=O)(=O)N3CCCCC3)c2)n1C

>  <score_type>  (52) 
oracle

>  <origin>  (52) 
adg

>  <m_score__min__energy>  (52) 
-20.030000000000001

>  <m_primary>  (52) 
energy

$$$$
52:0
     RDKit          3D

 65 68  0  0  0  0  0  0  0  0999 V2000
   55.3319   21.3064   49.6536 H   0  0  0  0  0  0  0  0  0  0  0  0
   55.0330   21.9270   48.7960 C   0  0  0  0  0  0  0  0  0  0  0  0
   55.8790   22.9440   48.3450 C   0  0  0  0  0  0  0  0  0  0  0  0
   56.8378   23.1232   48.8534 H   0  0  0  0  0  0  0  0  0  0  0  0
   55.5110   23.7410   47.2430 C   0  0  0  0  0  0  0  0  0  0  0  0
   56.3720   24.8560   46.7650 C   0  0  0  0  0  0  0  0  0  0  0  0
   55.7780   25.9530   46.2240 N   0  0  0  0  0  0  0  0  0  0  0  0
   56.4810   27.0150   45.7480 C   0  0  0  0  0  0  0  0  0  0  0  0
   55.8690   28.0530   45.2510 N   0  0  0  0  0  0  0  0  0  0  0  0
   56.5020   29.2740   44.8290 C   0  0  0  0  0  0  0  0  0  0  0  0
   57.3810   29.9780   45.6730 C   0  0  0  0  0  0  0  0  0  0  0  0
   57.5788   29.6074   46.6896 H   0  0  0  0  0  0  0  0  0  0  0  0
   58.0030   31.1450   45.2250 C   0  0  0  0  0  0  0  0  0  0  0  0
   58.7075   31.6764   45.8817 H   0  0  0  0  0  0  0  0  0  0  0  0
   57.7340   31.6430   43.9420 C   0  0  0  0  0  0  0  0  0  0  0  0
   58.4550   32.8660   43.4420 C   0  0  0  0  0  0  0  0  0  0  0  0
   57.9287   33.2641   42.5620 H   0  0  0  0  0  0  0  0  0  0  0  0
   59.4846   32.5905   43.1698 H   0  0  0  0  0  0  0  0  0  0  0  0
   58.4960   33.9460   44.5440 C   0  0  0  0  0  0  0  0  0  0  0  0
   57.4616   34.1861   44.8310 H   0  0  0  0  0  0  0  0  0  0  0  0
   59.0312   34.8095   44.1222 H   0  0  0  0  0  0  0  0  0  0  0  0
   59.2330   33.5400   45.7600 N   0  0  0  0  0  0  0  0  0  0  0  0
   60.6660   33.9020   45.7370 C   0  0  0  0  0  0  0  0  0  0  0  0
   60.7689   34.9602   45.4549 H   0  0  0  0  0  0  0  0  0  0  0  0
   61.1851   33.2659   45.0050 H   0  0  0  0  0  0  0  0  0  0  0  0
   61.2890   33.6840   47.1190 C   0  0  0  0  0  0  0  0  0  0  0  0
   62.3671   33.8950   47.0633 H   0  0  0  0  0  0  0  0  0  0  0  0
   61.1115   32.6407   47.4191 H   0  0  0  0  0  0  0  0  0  0  0  0
   60.6750   34.5730   48.1330 N   0  0  0  0  0  0  0  0  0  0  0  0
   60.8450   34.0140   49.4830 C   0  0  0  0  0  0  0  0  0  0  0  0
   60.6104   34.7853   50.2314 H   0  0  0  0  0  0  0  0  0  0  0  0
   60.1666   33.1580   49.6135 H   0  0  0  0  0  0  0  0  0  0  0  0
   61.8851   33.6807   49.6135 H   0  0  0  0  0  0  0  0  0  0  0  0
   59.2570   34.9160   47.8590 C   0  0  0  0  0  0  0  0  0  0  0  0
   59.2255   35.8644   47.3026 H   0  0  0  0  0  0  0  0  0  0  0  0
   58.7412   34.9952   48.8273 H   0  0  0  0  0  0  0  0  0  0  0  0
   58.5340   33.8370   47.0340 C   0  0  0  0  0  0  0  0  0  0  0  0
   57.5169   34.1885   46.8059 H   0  0  0  0  0  0  0  0  0  0  0  0
   58.5154   32.9132   47.6309 H   0  0  0  0  0  0  0  0  0  0  0  0
   56.8310   30.9590   43.1130 C   0  0  0  0  0  0  0  0  0  0  0  0
   56.6124   31.3440   42.1060 H   0  0  0  0  0  0  0  0  0  0  0  0
   56.2080   29.7900   43.5620 C   0  0  0  0  0  0  0  0  0  0  0  0
   55.4831   29.2735   42.9157 H   0  0  0  0  0  0  0  0  0  0  0  0
   57.8760   27.0080   45.8330 C   0  0  0  0  0  0  0  0  0  0  0  0
   58.4542   27.8704   45.4698 H   0  0  0  0  0  0  0  0  0  0  0  0
   58.5390   25.8980   46.3830 C   0  0  0  0  0  0  0  0  0  0  0  0
   60.0200   25.8810   46.4540 C   0  0  0  0  0  0  0  0  0  0  0  0
   60.6570   24.9010   45.9800 O   0  0  0  0  0  0  0  0  0  0  0  0
   60.7540   26.9640   47.0350 N   0  0  0  0  0  0  0  0  0  0  0  0
   61.7940   26.9070   47.1090 H   0  0  0  0  0  0  0  0  0  0  0  0
   60.2930   27.8620   47.2990 H   0  0  0  0  0  0  0  0  0  0  0  0
   57.7750   24.8070   46.8360 C   0  0  0  0  0  0  0  0  0  0  0  0
   58.2749   23.9167   47.2452 H   0  0  0  0  0  0  0  0  0  0  0  0
   54.2730   23.5010   46.6170 C   0  0  0  0  0  0  0  0  0  0  0  0
   53.9664   24.1230   45.7632 H   0  0  0  0  0  0  0  0  0  0  0  0
   53.4270   22.4800   47.0680 C   0  0  0  0  0  0  0  0  0  0  0  0
   51.8760   22.2170   46.2760 S   0  0  0  0  0  0  0  0  0  0  0  0
   50.8020   22.9820   47.0010 O   0  0  0  0  0  0  0  0  0  0  0  0
   51.9390   22.7000   44.8540 O   0  0  0  0  0  0  0  0  0  0  0  0
   51.4870   20.4800   46.2970 C   0  0  0  0  0  0  0  0  0  0  0  0
   51.4095   20.1342   47.3383 H   0  0  0  0  0  0  0  0  0  0  0  0
   50.5291   20.3125   45.7828 H   0  0  0  0  0  0  0  0  0  0  0  0
   52.2820   19.9200   45.7828 H   0  0  0  0  0  0  0  0  0  0  0  0
   53.8100   21.6950   48.1630 C   0  0  0  0  0  0  0  0  0  0  0  0
   53.1470   20.8952   48.5246 H   0  0  0  0  0  0  0  0  0  0  0  0
  1  2  1  0
  2  3  2  0
  3  4  1  0
  3  5  1  0
  5  6  1  0
  6  7  1  0
  7  8  1  0
  8  9  2  0
  9 10  1  0
 10 11  2  0
 11 12  1  0
 11 13  1  0
 13 14  1  0
 13 15  2  0
 15 16  1  0
 16 17  1  0
 16 18  1  0
 16 19  1  0
 19 20  1  0
 19 21  1  0
 19 22  1  0
 22 23  1  0
 23 24  1  0
 23 25  1  0
 23 26  1  0
 26 27  1  0
 26 28  1  0
 26 29  1  0
 29 30  1  0
 30 31  1  0
 30 32  1  0
 30 33  1  0
 29 34  1  0
 34 35  1  0
 34 36  1  0
 34 37  1  0
 37 38  1  0
 37 39  1  0
 15 40  1  0
 40 41  1  0
 40 42  2  0
 42 43  1  0
  8 44  1  0
 44 45  1  0
 44 46  2  0
 46 47  1  0
 47 48  2  0
 47 49  1  0
 49 50  1  0
 49 51  1  0
 46 52  1  0
 52 53  1  0
  5 54  2  0
 54 55  1  0
 54 56  1  0
 56 57  1  0
 57 58  2  0
 57 59  2  0
 57 60  1  0
 60 61  1  0
 60 62  1  0
 60 63  1  0
 56 64  2  0
 64 65  1  0
 64  2  1  0
 52  6  2  0
 42 10  1  0
 37 22  1  0
M  CHG  1   7  -1
M  END
>  <UniqueID>  (53) 
50

>  <SMILES>  (53) 
CN1CCN(CCc2ccc(/N=c3/cc(C(N)=O)cc(-c4cccc(S(C)(=O)=O)c4)[n-]3)cc2)CC1

>  <Energy>  (53) 
88.33088421594255

>  <Genealogy>  (53) 
CN1CCN(CCc2ccc(N=c3cc(C(N)=O)cc(-c4cccc(S(C)(=O)=O)c4)[n-]3)cc2)CC1 (protonated)
CN1CCN(CCc2ccc(/N=c3/cc(C(N)=O)cc(-c4cccc(S(C)(=O)=O)c4)[n-]3)cc2)CC1 (cis-trans isomerization)
CN1CCN(CCc2ccc(/N=c3/cc(C(N)=O)cc(-c4cccc(S(C)(=O)=O)c4)[n-]3)cc2)CC1 (3D coordinates assigned)
CN1CCN(CCc2ccc(/N=c3/cc(C(N)=O)cc(-c4cccc(S(C)(=O)=O)c4)[n-]3)cc2)CC1 (nonaromatic ring conformer: 88.33088421594255 kcal/mol)

>  <smiles>  (53) 
CN1CCN(CCc2ccc(N=c3cc(C(N)=O)cc(-c4cccc(S(C)(=O)=O)c4)[nH]3)cc2)CC1

>  <score_type>  (53) 
oracle

>  <origin>  (53) 
adg

>  <m_score__min__energy>  (53) 
-10.83

>  <m_primary>  (53) 
energy

$$$$
53:0
     RDKit          3D

 42 44  0  0  0  0  0  0  0  0999 V2000
   57.8670   26.5660   44.0130 O   0  0  0  0  0  0  0  0  0  0  0  0
   57.4830   26.1540   45.1410 C   0  0  0  0  0  0  0  0  0  0  0  0
   58.0830   26.7250   46.3680 C   0  0  0  0  0  0  0  0  0  0  0  0
   58.1130   26.0440   47.4290 O   0  0  0  0  0  0  0  0  0  0  0  0
   58.6370   28.0510   46.3660 N   0  0  0  0  0  0  0  0  0  0  0  0
   59.9090   28.2890   47.0630 C   0  0  0  0  0  0  0  0  0  0  0  0
   60.6830   29.4160   46.3730 C   0  0  0  0  0  0  0  0  0  0  0  0
   59.7920   30.5620   46.1600 N   0  0  0  0  0  0  0  0  0  0  0  0
   59.9350   31.7620   46.9450 C   0  0  0  0  0  0  0  0  0  0  0  0
   58.9110   32.3000   47.4480 O   0  0  0  0  0  0  0  0  0  0  0  0
   61.2630   32.3740   47.1870 C   0  0  0  0  0  0  0  0  0  0  0  0
   61.6710   33.4720   46.4080 C   0  0  0  0  0  0  0  0  0  0  0  0
   62.9160   34.0690   46.6230 C   0  0  0  0  0  0  0  0  0  0  0  0
   63.7710   33.5720   47.6080 C   0  0  0  0  0  0  0  0  0  0  0  0
   63.3860   32.4710   48.3760 C   0  0  0  0  0  0  0  0  0  0  0  0
   62.1420   31.8640   48.1650 C   0  0  0  0  0  0  0  0  0  0  0  0
   61.8030   30.7440   48.9180 O   0  0  0  0  0  0  0  0  0  0  0  0
   58.5600   30.3090   45.4080 C   0  0  0  0  0  0  0  0  0  0  0  0
   57.7640   29.2020   46.1020 C   0  0  0  0  0  0  0  0  0  0  0  0
   56.4290   25.1200   45.2000 C   0  0  0  0  0  0  0  0  0  0  0  0
   56.7510   23.7930   44.8710 C   0  0  0  0  0  0  0  0  0  0  0  0
   55.7740   22.7950   44.9180 C   0  0  0  0  0  0  0  0  0  0  0  0
   54.4710   23.1090   45.3060 C   0  0  0  0  0  0  0  0  0  0  0  0
   54.1420   24.4210   45.6580 C   0  0  0  0  0  0  0  0  0  0  0  0
   55.1160   25.4250   45.6180 C   0  0  0  0  0  0  0  0  0  0  0  0
   54.7770   26.7130   46.0200 O   0  0  0  0  0  0  0  0  0  0  0  0
   59.7050   28.5730   48.1060 H   0  0  0  0  0  0  0  0  0  0  0  0
   60.5118   27.3693   47.0371 H   0  0  0  0  0  0  0  0  0  0  0  0
   61.5284   29.7217   47.0069 H   0  0  0  0  0  0  0  0  0  0  0  0
   61.0615   29.0606   45.4033 H   0  0  0  0  0  0  0  0  0  0  0  0
   61.0055   33.8632   45.6244 H   0  0  0  0  0  0  0  0  0  0  0  0
   63.2229   34.9325   46.0146 H   0  0  0  0  0  0  0  0  0  0  0  0
   64.7480   34.0475   47.7793 H   0  0  0  0  0  0  0  0  0  0  0  0
   64.0627   32.0791   49.1497 H   0  0  0  0  0  0  0  0  0  0  0  0
   57.9565   31.2279   45.3710 H   0  0  0  0  0  0  0  0  0  0  0  0
   58.8105   29.9967   44.3835 H   0  0  0  0  0  0  0  0  0  0  0  0
   57.3634   29.5820   47.0533 H   0  0  0  0  0  0  0  0  0  0  0  0
   56.9359   28.8872   45.4499 H   0  0  0  0  0  0  0  0  0  0  0  0
   57.7790   23.5377   44.5744 H   0  0  0  0  0  0  0  0  0  0  0  0
   56.0325   21.7603   44.6487 H   0  0  0  0  0  0  0  0  0  0  0  0
   53.7019   22.3231   45.3349 H   0  0  0  0  0  0  0  0  0  0  0  0
   53.1149   24.6650   45.9672 H   0  0  0  0  0  0  0  0  0  0  0  0
  1  2  2  0
  2  3  1  0
  3  4  2  0
  3  5  1  0
  5  6  1  0
  6  7  1  0
  7  8  1  0
  8  9  1  0
  9 10  2  0
  9 11  1  0
 11 12  2  0
 12 13  1  0
 13 14  2  0
 14 15  1  0
 15 16  2  0
 16 17  1  0
  8 18  1  0
 18 19  1  0
  2 20  1  0
 20 21  2  0
 21 22  1  0
 22 23  2  0
 23 24  1  0
 24 25  2  0
 25 26  1  0
 19  5  1  0
 25 20  1  0
 16 11  1  0
  6 27  1  0
  6 28  1  0
  7 29  1  0
  7 30  1  0
 12 31  1  0
 13 32  1  0
 14 33  1  0
 15 34  1  0
 18 35  1  0
 18 36  1  0
 19 37  1  0
 19 38  1  0
 21 39  1  0
 22 40  1  0
 23 41  1  0
 24 42  1  0
M  CHG  2  17  -1  26  -1
M  END
>  <UniqueID>  (54) 
51

>  <SMILES>  (54) 
O=C(C(=O)N1CCN(C(=O)c2ccccc2[O-])CC1)c1ccccc1[O-]

>  <Energy>  (54) 
59.312173536483236

>  <Genealogy>  (54) 
O=C(C(=O)N1CCN(C(=O)c2ccccc2[O-])CC1)c1ccccc1[O-] (protonated)
O=C(C(=O)N1CCN(C(=O)c2ccccc2[O-])CC1)c1ccccc1[O-] (3D coordinates assigned)
O=C(C(=O)N1CCN(C(=O)c2ccccc2[O-])CC1)c1ccccc1[O-] (nonaromatic ring conformer: 59.312173536483236 kcal/mol)

>  <smiles>  (54) 
O=C(C(=O)N1CCN(C(=O)c2ccccc2O)CC1)c1ccccc1O

>  <score_type>  (54) 
oracle

>  <origin>  (54) 
adg

>  <m_score__min__energy>  (54) 
-12.06

>  <m_primary>  (54) 
energy

$$$$
54:0
     RDKit          3D

 31 32  0  0  0  0  0  0  0  0999 V2000
   55.1380   27.5100   45.4200 H   0  0  0  0  0  0  0  0  0  0  0  0
   54.9940   26.6840   45.9890 O   0  0  0  0  0  0  0  0  0  0  0  0
   56.0490   25.8180   46.2580 C   0  0  0  0  0  0  0  0  0  0  0  0
   55.9310   24.6920   46.9820 N   0  0  0  0  0  0  0  0  0  0  0  0
   57.1820   24.1840   46.9440 C   0  0  0  0  0  0  0  0  0  0  0  0
   57.4920   23.1070   47.5130 O   0  0  0  0  0  0  0  0  0  0  0  0
   58.0700   24.9190   46.2410 N   0  0  0  0  0  0  0  0  0  0  0  0
   57.3440   25.9750   45.8290 C   0  0  0  0  0  0  0  0  0  0  0  0
   57.8260   27.0170   44.9070 C   0  0  0  0  0  0  0  0  0  0  0  0
   57.8037   26.7871   43.8315 H   0  0  0  0  0  0  0  0  0  0  0  0
   58.2920   28.2280   45.2690 C   0  0  0  0  0  0  0  0  0  0  0  0
   59.5440   28.4100   45.8350 C   0  0  0  0  0  0  0  0  0  0  0  0
   60.3093   27.6365   45.9964 H   0  0  0  0  0  0  0  0  0  0  0  0
   59.6460   29.7470   46.1570 C   0  0  0  0  0  0  0  0  0  0  0  0
   60.8430   30.3760   46.8050 C   0  0  0  0  0  0  0  0  0  0  0  0
   60.7390   30.3213   47.8987 H   0  0  0  0  0  0  0  0  0  0  0  0
   61.7519   29.8390   46.4958 H   0  0  0  0  0  0  0  0  0  0  0  0
   60.9163   31.4291   46.4958 H   0  0  0  0  0  0  0  0  0  0  0  0
   58.5320   30.4100   45.7760 N   0  0  0  0  0  0  0  0  0  0  0  0
   58.3140   31.8240   45.9120 C   0  0  0  0  0  0  0  0  0  0  0  0
   58.1520   32.4700   47.4150 S   0  0  0  0  0  0  0  0  0  0  0  0
   58.3260   32.6590   44.7430 N   0  0  0  0  0  0  0  0  0  0  0  0
   58.3970   32.2040   43.8060 H   0  0  0  0  0  0  0  0  0  0  0  0
   58.2230   34.1130   44.7970 C   0  0  0  0  0  0  0  0  0  0  0  0
   58.1998   34.4402   45.8470 H   0  0  0  0  0  0  0  0  0  0  0  0
   59.0917   34.5611   44.2924 H   0  0  0  0  0  0  0  0  0  0  0  0
   57.2999   34.4342   44.2924 H   0  0  0  0  0  0  0  0  0  0  0  0
   57.7050   29.5020   45.1960 C   0  0  0  0  0  0  0  0  0  0  0  0
   56.6020   29.8430   44.5120 C   0  0  0  0  0  0  0  0  0  0  0  0
   56.2401   30.8815   44.5344 H   0  0  0  0  0  0  0  0  0  0  0  0
   56.0598   29.0840   43.9289 H   0  0  0  0  0  0  0  0  0  0  0  0
  1  2  1  0
  2  3  1  0
  3  4  1  0
  4  5  1  0
  5  6  2  0
  5  7  1  0
  7  8  1  0
  8  9  1  0
  9 10  1  0
  9 11  2  0
 11 12  1  0
 12 13  1  0
 12 14  2  0
 14 15  1  0
 15 16  1  0
 15 17  1  0
 15 18  1  0
 14 19  1  0
 19 20  1  0
 20 21  2  0
 20 22  1  0
 22 23  1  0
 22 24  1  0
 24 25  1  0
 24 26  1  0
 24 27  1  0
 19 28  1  0
 28 29  2  0
 29 30  1  0
 29 31  1  0
  8  3  2  0
 28 11  1  0
M  CHG  2   4  -1   7  -1
M  END
>  <UniqueID>  (55) 
52

>  <SMILES>  (55) 
C=c1/c(=C\c2[n-]c(=O)[n-]c2O)cc(C)n1C(=S)NC

>  <Energy>  (55) 
102.12734609759879

>  <Genealogy>  (55) 
C=c1c(=Cc2[n-]c(=O)[n-]c2O)cc(C)n1C(=S)NC (protonated)
C=c1/c(=C\c2[n-]c(=O)[n-]c2O)cc(C)n1C(=S)NC (cis-trans isomerization)
C=c1/c(=C\c2[n-]c(=O)[n-]c2O)cc(C)n1C(=S)NC (3D coordinates assigned)
C=c1/c(=C\c2[n-]c(=O)[n-]c2O)cc(C)n1C(=S)NC (optimized conformer: 102.12734609759879 kcal/mol)

>  <smiles>  (55) 
C=c1c(=Cc2[nH]c(=O)[nH]c2O)cc(C)n1C(=S)NC

>  <score_type>  (55) 
oracle

>  <origin>  (55) 
adg

>  <m_score__min__energy>  (55) 
-11.32

>  <m_primary>  (55) 
energy

$$$$
55:0
     RDKit          3D

 44 46  0  0  0  0  0  0  0  0999 V2000
   54.2990   23.8370   45.7280 C   0  0  0  0  0  0  0  0  0  0  0  0
   55.1990   25.0260   45.7620 C   0  0  0  0  0  0  0  0  0  0  0  0
   56.5720   25.0040   45.6540 C   0  0  0  0  0  0  0  0  0  0  0  0
   56.9320   26.3250   45.8120 C   0  0  0  0  0  0  0  0  0  0  0  0
   58.3210   26.8740   45.7170 C   0  0  0  0  0  0  0  0  0  0  0  0
   58.3020   28.2770   45.1080 C   0  0  0  0  0  0  0  0  0  0  0  0
   57.3900   28.3120   43.9620 N   0  0  0  0  0  0  0  0  0  0  0  0
   56.4490   29.7720   44.0050 S   0  0  0  0  0  0  0  0  0  0  0  0
   55.9880   30.1060   42.6140 O   0  0  0  0  0  0  0  0  0  0  0  0
   55.2390   29.5730   44.8740 O   0  0  0  0  0  0  0  0  0  0  0  0
   57.4280   31.1030   44.6180 C   0  0  0  0  0  0  0  0  0  0  0  0
   57.7720   32.1780   43.7880 C   0  0  0  0  0  0  0  0  0  0  0  0
   58.5310   33.2400   44.2900 C   0  0  0  0  0  0  0  0  0  0  0  0
   58.9630   33.2370   45.6290 C   0  0  0  0  0  0  0  0  0  0  0  0
   59.7520   34.3650   46.1790 C   0  0  0  0  0  0  0  0  0  0  0  0
   59.3640   35.5440   45.9510 O   0  0  0  0  0  0  0  0  0  0  0  0
   60.9790   34.1590   46.9860 C   0  0  0  0  0  0  0  0  0  0  0  0
   62.2070   33.8500   46.3700 C   0  0  0  0  0  0  0  0  0  0  0  0
   63.3530   33.6400   47.1450 C   0  0  0  0  0  0  0  0  0  0  0  0
   63.2820   33.7250   48.5370 C   0  0  0  0  0  0  0  0  0  0  0  0
   62.0660   34.0150   49.1590 C   0  0  0  0  0  0  0  0  0  0  0  0
   60.9180   34.2260   48.3890 C   0  0  0  0  0  0  0  0  0  0  0  0
   58.5960   32.1650   46.4610 C   0  0  0  0  0  0  0  0  0  0  0  0
   57.8370   31.1040   45.9570 C   0  0  0  0  0  0  0  0  0  0  0  0
   55.8330   27.0820   45.9980 N   0  0  0  0  0  0  0  0  0  0  0  0
   54.7750   26.2860   45.9810 N   0  0  0  0  0  0  0  0  0  0  0  0
   54.0635   23.5259   46.7565 H   0  0  0  0  0  0  0  0  0  0  0  0
   53.3688   24.0962   45.2012 H   0  0  0  0  0  0  0  0  0  0  0  0
   54.8010   23.0121   45.2012 H   0  0  0  0  0  0  0  0  0  0  0  0
   57.2266   24.1368   45.4822 H   0  0  0  0  0  0  0  0  0  0  0  0
   58.7608   26.9225   46.7241 H   0  0  0  0  0  0  0  0  0  0  0  0
   58.9209   26.2145   45.0726 H   0  0  0  0  0  0  0  0  0  0  0  0
   57.9631   28.9988   45.8658 H   0  0  0  0  0  0  0  0  0  0  0  0
   59.3160   28.5389   44.7714 H   0  0  0  0  0  0  0  0  0  0  0  0
   56.7150   27.5180   44.0570 H   0  0  0  0  0  0  0  0  0  0  0  0
   57.4440   32.1868   42.7381 H   0  0  0  0  0  0  0  0  0  0  0  0
   58.7920   34.0832   43.6336 H   0  0  0  0  0  0  0  0  0  0  0  0
   62.2657   33.7733   45.2742 H   0  0  0  0  0  0  0  0  0  0  0  0
   64.3111   33.4077   46.6571 H   0  0  0  0  0  0  0  0  0  0  0  0
   64.1849   33.5633   49.1441 H   0  0  0  0  0  0  0  0  0  0  0  0
   62.0111   34.0775   50.2558 H   0  0  0  0  0  0  0  0  0  0  0  0
   59.9608   34.4459   48.8843 H   0  0  0  0  0  0  0  0  0  0  0  0
   58.9080   32.1607   47.5158 H   0  0  0  0  0  0  0  0  0  0  0  0
   57.5603   30.2671   46.6151 H   0  0  0  0  0  0  0  0  0  0  0  0
  1  2  1  0
  2  3  2  0
  3  4  1  0
  4  5  1  0
  5  6  1  0
  6  7  1  0
  7  8  1  0
  8  9  2  0
  8 10  2  0
  8 11  1  0
 11 12  2  0
 12 13  1  0
 13 14  2  0
 14 15  1  0
 15 16  2  0
 15 17  1  0
 17 18  2  0
 18 19  1  0
 19 20  2  0
 20 21  1  0
 21 22  2  0
 14 23  1  0
 23 24  2  0
  4 25  2  0
 25 26  1  0
 26  2  1  0
 24 11  1  0
 22 17  1  0
  1 27  1  0
  1 28  1  0
  1 29  1  0
  3 30  1  0
  5 31  1  0
  5 32  1  0
  6 33  1  0
  6 34  1  0
  7 35  1  0
 12 36  1  0
 13 37  1  0
 18 38  1  0
 19 39  1  0
 20 40  1  0
 21 41  1  0
 22 42  1  0
 23 43  1  0
 24 44  1  0
M  CHG  1  26  -1
M  END
>  <UniqueID>  (56) 
53

>  <SMILES>  (56) 
Cc1cc(CCNS(=O)(=O)c2ccc(C(=O)c3ccccc3)cc2)n[n-]1

>  <Energy>  (56) 
74.56022033761754

>  <Genealogy>  (56) 
Cc1cc(CCNS(=O)(=O)c2ccc(C(=O)c3ccccc3)cc2)n[n-]1 (protonated)
Cc1cc(CCNS(=O)(=O)c2ccc(C(=O)c3ccccc3)cc2)n[n-]1 (3D coordinates assigned)
Cc1cc(CCNS(=O)(=O)c2ccc(C(=O)c3ccccc3)cc2)n[n-]1 (optimized conformer: 74.56022033761754 kcal/mol)

>  <smiles>  (56) 
Cc1cc(CCNS(=O)(=O)c2ccc(C(=O)c3ccccc3)cc2)n[nH]1

>  <score_type>  (56) 
oracle

>  <origin>  (56) 
adg

>  <m_score__min__energy>  (56) 
-13.67

>  <m_primary>  (56) 
energy

$$$$
56:0
     RDKit          3D

 66 68  0  0  0  0  0  0  0  0999 V2000
   61.3950   30.6380   47.7840 C   0  0  0  0  0  0  0  0  0  0  0  0
   60.3630   29.5980   48.2260 C   0  0  0  0  0  0  0  0  0  0  0  0
   58.9750   30.2260   48.3660 C   0  0  0  0  0  0  0  0  0  0  0  0
   60.3150   28.5100   47.2460 N   0  0  0  0  0  0  0  0  0  0  0  0
   60.2600   27.1240   47.6130 C   0  0  0  0  0  0  0  0  0  0  0  0
   60.0900   26.7880   48.8160 O   0  0  0  0  0  0  0  0  0  0  0  0
   60.4600   26.0650   46.5770 C   0  0  0  0  0  0  0  0  0  0  0  0
   58.8270   25.4710   46.0090 S   0  0  0  0  0  0  0  0  0  0  0  0
   58.2360   27.0820   45.4550 C   0  0  0  0  0  0  0  0  0  0  0  0
   59.1560   27.9640   44.9950 N   0  0  0  0  0  0  0  0  0  0  0  0
   58.8030   29.1870   44.5340 C   0  0  0  0  0  0  0  0  0  0  0  0
   59.7000   29.9930   44.1660 O   0  0  0  0  0  0  0  0  0  0  0  0
   57.4520   29.5510   44.4940 C   0  0  0  0  0  0  0  0  0  0  0  0
   57.0210   30.8670   43.9760 C   0  0  0  0  0  0  0  0  0  0  0  0
   57.0150   31.0640   42.7330 O   0  0  0  0  0  0  0  0  0  0  0  0
   56.6540   31.9400   44.8500 N   0  0  0  0  0  0  0  0  0  0  0  0
   57.4300   32.3640   46.0110 C   0  0  0  0  0  0  0  0  0  0  0  0
   58.3510   33.5280   45.6400 C   0  0  0  0  0  0  0  0  0  0  0  0
   59.5170   33.6380   46.5890 C   0  0  0  0  0  0  0  0  0  0  0  0
   60.8270   33.7400   46.0940 C   0  0  0  0  0  0  0  0  0  0  0  0
   61.9110   33.8170   46.9740 C   0  0  0  0  0  0  0  0  0  0  0  0
   61.6960   33.7930   48.3600 C   0  0  0  0  0  0  0  0  0  0  0  0
   63.0480   33.8830   49.4850 S   0  0  0  0  0  0  0  0  0  0  0  0
   64.3440   33.7560   48.7340 O   0  0  0  0  0  0  0  0  0  0  0  0
   63.0150   35.2250   50.1630 O   0  0  0  0  0  0  0  0  0  0  0  0
   62.8850   32.5990   50.6660 N   0  0  0  0  0  0  0  0  0  0  0  0
   63.6010   31.3730   50.2460 C   0  0  0  0  0  0  0  0  0  0  0  0
   64.9870   31.2380   50.9070 C   0  0  0  0  0  0  0  0  0  0  0  0
   65.5470   32.5120   51.1390 O   0  0  0  0  0  0  0  0  0  0  0  0
   64.8180   33.1920   52.1490 C   0  0  0  0  0  0  0  0  0  0  0  0
   63.2850   33.0410   52.0140 C   0  0  0  0  0  0  0  0  0  0  0  0
   60.3920   33.6720   48.8560 C   0  0  0  0  0  0  0  0  0  0  0  0
   59.3090   33.5930   47.9760 C   0  0  0  0  0  0  0  0  0  0  0  0
   56.5070   28.6410   44.9910 C   0  0  0  0  0  0  0  0  0  0  0  0
   55.1550   28.9800   44.9570 O   0  0  0  0  0  0  0  0  0  0  0  0
   56.9050   27.4260   45.4910 N   0  0  0  0  0  0  0  0  0  0  0  0
   55.8920   26.4840   45.9920 C   0  0  0  0  0  0  0  0  0  0  0  0
   61.8532   31.0998   48.6710 H   0  0  0  0  0  0  0  0  0  0  0  0
   62.1743   30.1482   47.1817 H   0  0  0  0  0  0  0  0  0  0  0  0
   60.8992   31.4135   47.1817 H   0  0  0  0  0  0  0  0  0  0  0  0
   60.6642   29.2041   49.2079 H   0  0  0  0  0  0  0  0  0  0  0  0
   58.7288   30.3374   49.4323 H   0  0  0  0  0  0  0  0  0  0  0  0
   58.9693   31.2144   47.8832 H   0  0  0  0  0  0  0  0  0  0  0  0
   58.2289   29.5778   47.8832 H   0  0  0  0  0  0  0  0  0  0  0  0
   60.2900   28.7590   46.2300 H   0  0  0  0  0  0  0  0  0  0  0  0
   61.0170   26.4828   45.7254 H   0  0  0  0  0  0  0  0  0  0  0  0
   61.0307   25.2284   47.0065 H   0  0  0  0  0  0  0  0  0  0  0  0
   56.7435   32.6848   46.8084 H   0  0  0  0  0  0  0  0  0  0  0  0
   58.0437   31.5196   46.3580 H   0  0  0  0  0  0  0  0  0  0  0  0
   58.7339   33.3693   44.6211 H   0  0  0  0  0  0  0  0  0  0  0  0
   57.7692   34.4596   45.7007 H   0  0  0  0  0  0  0  0  0  0  0  0
   61.0015   33.7594   45.0081 H   0  0  0  0  0  0  0  0  0  0  0  0
   62.9344   33.8966   46.5786 H   0  0  0  0  0  0  0  0  0  0  0  0
   62.9931   30.4986   50.5213 H   0  0  0  0  0  0  0  0  0  0  0  0
   63.7559   31.4345   49.1587 H   0  0  0  0  0  0  0  0  0  0  0  0
   64.8816   30.7084   51.8653 H   0  0  0  0  0  0  0  0  0  0  0  0
   65.6498   30.6738   50.2345 H   0  0  0  0  0  0  0  0  0  0  0  0
   65.1221   32.7910   53.1271 H   0  0  0  0  0  0  0  0  0  0  0  0
   65.0469   34.2630   52.0464 H   0  0  0  0  0  0  0  0  0  0  0  0
   62.9362   32.2995   52.7478 H   0  0  0  0  0  0  0  0  0  0  0  0
   62.8317   34.0269   52.1942 H   0  0  0  0  0  0  0  0  0  0  0  0
   60.2195   33.6390   49.9419 H   0  0  0  0  0  0  0  0  0  0  0  0
   58.2878   33.4950   48.3730 H   0  0  0  0  0  0  0  0  0  0  0  0
   55.8982   26.4897   47.0920 H   0  0  0  0  0  0  0  0  0  0  0  0
   54.8986   26.7867   45.6293 H   0  0  0  0  0  0  0  0  0  0  0  0
   56.1218   25.4713   45.6293 H   0  0  0  0  0  0  0  0  0  0  0  0
  1  2  1  0
  2  3  1  0
  2  4  1  0
  4  5  1  0
  5  6  2  0
  5  7  1  0
  7  8  1  0
  8  9  1  0
  9 10  2  0
 10 11  1  0
 11 12  2  0
 11 13  1  0
 13 14  1  0
 14 15  2  0
 14 16  1  0
 16 17  1  0
 17 18  1  0
 18 19  1  0
 19 20  2  0
 20 21  1  0
 21 22  2  0
 22 23  1  0
 23 24  2  0
 23 25  2  0
 23 26  1  0
 26 27  1  0
 27 28  1  0
 28 29  1  0
 29 30  1  0
 30 31  1  0
 22 32  1  0
 32 33  2  0
 13 34  2  0
 34 35  1  0
 34 36  1  0
 36 37  1  0
 36  9  1  0
 33 19  1  0
 31 26  1  0
  1 38  1  0
  1 39  1  0
  1 40  1  0
  2 41  1  0
  3 42  1  0
  3 43  1  0
  3 44  1  0
  4 45  1  0
  7 46  1  0
  7 47  1  0
 17 48  1  0
 17 49  1  0
 18 50  1  0
 18 51  1  0
 20 52  1  0
 21 53  1  0
 27 54  1  0
 27 55  1  0
 28 56  1  0
 28 57  1  0
 30 58  1  0
 30 59  1  0
 31 60  1  0
 31 61  1  0
 32 62  1  0
 33 63  1  0
 37 64  1  0
 37 65  1  0
 37 66  1  0
M  CHG  2  16  -1  35  -1
M  END
>  <UniqueID>  (57) 
54

>  <SMILES>  (57) 
CC(C)NC(=O)CSc1nc(=O)c(C(=O)[N-]CCc2ccc(S(=O)(=O)N3CCOCC3)cc2)c([O-])n1C

>  <Energy>  (57) 
74.90122376670881

>  <Genealogy>  (57) 
CC(C)NC(=O)CSc1nc(=O)c(C(=O)[N-]CCc2ccc(S(=O)(=O)N3CCOCC3)cc2)c([O-])n1C (protonated)
CC(C)NC(=O)CSc1nc(=O)c(C(=O)[N-]CCc2ccc(S(=O)(=O)N3CCOCC3)cc2)c([O-])n1C (3D coordinates assigned)
CC(C)NC(=O)CSc1nc(=O)c(C(=O)[N-]CCc2ccc(S(=O)(=O)N3CCOCC3)cc2)c([O-])n1C (nonaromatic ring conformer: 74.90122376670881 kcal/mol)

>  <smiles>  (57) 
CC(C)NC(=O)CSc1nc(=O)c(C(=O)NCCc2ccc(S(=O)(=O)N3CCOCC3)cc2)c(O)n1C

>  <score_type>  (57) 
oracle

>  <origin>  (57) 
adg

>  <m_score__min__energy>  (57) 
-14.550000000000001

>  <m_primary>  (57) 
energy

$$$$
57:0
     RDKit          3D

 74 78  0  0  0  0  0  0  0  0999 V2000
   58.7980   29.7270   51.4090 C   0  0  0  0  0  0  0  0  0  0  0  0
   58.7990   31.0330   50.6970 C   0  0  0  0  0  0  0  0  0  0  0  0
   59.0230   32.2280   51.3060 C   0  0  0  0  0  0  0  0  0  0  0  0
   58.9440   33.1650   50.3470 N   0  0  0  0  0  0  0  0  0  0  0  0
   58.6740   32.5780   49.1450 C   0  0  0  0  0  0  0  0  0  0  0  0
   58.4980   33.2930   47.8710 C   0  0  0  0  0  0  0  0  0  0  0  0
   59.6400   33.6740   47.1560 N   0  0  0  0  0  0  0  0  0  0  0  0
   59.5740   33.1720   45.7990 C   0  0  0  0  0  0  0  0  0  0  0  0
   59.0560   31.7820   45.7210 C   0  0  0  0  0  0  0  0  0  0  0  0
   59.6610   30.8620   46.5840 C   0  0  0  0  0  0  0  0  0  0  0  0
   59.2450   29.5350   46.5820 C   0  0  0  0  0  0  0  0  0  0  0  0
   58.2360   29.1400   45.7280 C   0  0  0  0  0  0  0  0  0  0  0  0
   57.8300   27.7400   45.7590 C   0  0  0  0  0  0  0  0  0  0  0  0
   57.8970   27.1370   46.8620 O   0  0  0  0  0  0  0  0  0  0  0  0
   57.3710   27.0200   44.6420 N   0  0  0  0  0  0  0  0  0  0  0  0
   57.0130   25.6480   44.8510 C   0  0  0  0  0  0  0  0  0  0  0  0
   57.7340   24.6130   44.2640 C   0  0  0  0  0  0  0  0  0  0  0  0
   57.3900   23.2890   44.4630 C   0  0  0  0  0  0  0  0  0  0  0  0
   56.3040   22.9860   45.2640 C   0  0  0  0  0  0  0  0  0  0  0  0
   55.5680   23.9930   45.8620 C   0  0  0  0  0  0  0  0  0  0  0  0
   55.9330   25.3160   45.6460 C   0  0  0  0  0  0  0  0  0  0  0  0
   55.2050   26.3940   46.2410 N   0  0  0  0  0  0  0  0  0  0  0  0
   57.6560   30.0620   44.8870 C   0  0  0  0  0  0  0  0  0  0  0  0
   58.0470   31.3980   44.8610 C   0  0  0  0  0  0  0  0  0  0  0  0
   60.9330   33.4760   47.6660 C   0  0  0  0  0  0  0  0  0  0  0  0
   61.3080   34.3900   48.8140 C   0  0  0  0  0  0  0  0  0  0  0  0
   62.5280   33.8560   49.5160 C   0  0  0  0  0  0  0  0  0  0  0  0
   63.5430   33.3730   48.6790 N   0  0  0  0  0  0  0  0  0  0  0  0
   64.8060   33.1140   49.2510 C   0  0  0  0  0  0  0  0  0  0  0  0
   64.6250   32.2080   50.4330 C   0  0  0  0  0  0  0  0  0  0  0  0
   65.3340   32.3750   51.6040 C   0  0  0  0  0  0  0  0  0  0  0  0
   65.1160   31.5030   52.6530 C   0  0  0  0  0  0  0  0  0  0  0  0
   64.2130   30.4580   52.5870 C   0  0  0  0  0  0  0  0  0  0  0  0
   63.5040   30.2930   51.4150 C   0  0  0  0  0  0  0  0  0  0  0  0
   63.7160   31.1570   50.3670 C   0  0  0  0  0  0  0  0  0  0  0  0
   63.1980   32.6960   47.4810 C   0  0  0  0  0  0  0  0  0  0  0  0
   62.0760   33.4260   46.7150 C   0  0  0  0  0  0  0  0  0  0  0  0
   58.5910   31.2400   49.4050 N   0  0  0  0  0  0  0  0  0  0  0  0
   58.7981   29.9015   52.4951 H   0  0  0  0  0  0  0  0  0  0  0  0
   57.8994   29.1575   51.1292 H   0  0  0  0  0  0  0  0  0  0  0  0
   59.6957   29.1562   51.1292 H   0  0  0  0  0  0  0  0  0  0  0  0
   59.2284   32.3945   52.3737 H   0  0  0  0  0  0  0  0  0  0  0  0
   59.0710   34.1830   50.5030 H   0  0  0  0  0  0  0  0  0  0  0  0
   57.9046   32.6418   47.2123 H   0  0  0  0  0  0  0  0  0  0  0  0
   58.0300   34.2459   48.1591 H   0  0  0  0  0  0  0  0  0  0  0  0
   58.9111   33.8269   45.2145 H   0  0  0  0  0  0  0  0  0  0  0  0
   60.5989   33.1650   45.3996 H   0  0  0  0  0  0  0  0  0  0  0  0
   60.4635   31.1874   47.2623 H   0  0  0  0  0  0  0  0  0  0  0  0
   59.7171   28.8055   47.2565 H   0  0  0  0  0  0  0  0  0  0  0  0
   57.3070   27.4930   43.7210 H   0  0  0  0  0  0  0  0  0  0  0  0
   58.5977   24.8538   43.6268 H   0  0  0  0  0  0  0  0  0  0  0  0
   57.9734   22.4855   43.9896 H   0  0  0  0  0  0  0  0  0  0  0  0
   56.0231   21.9350   45.4269 H   0  0  0  0  0  0  0  0  0  0  0  0
   54.7055   23.7496   46.4999 H   0  0  0  0  0  0  0  0  0  0  0  0
   54.1670   26.3170   46.3630 H   0  0  0  0  0  0  0  0  0  0  0  0
   55.7330   27.2260   46.5340 H   0  0  0  0  0  0  0  0  0  0  0  0
   56.8541   29.7313   44.2105 H   0  0  0  0  0  0  0  0  0  0  0  0
   57.5702   32.1196   44.1813 H   0  0  0  0  0  0  0  0  0  0  0  0
   60.7952   32.4440   48.0210 H   0  0  0  0  0  0  0  0  0  0  0  0
   61.5224   35.3961   48.4243 H   0  0  0  0  0  0  0  0  0  0  0  0
   60.4717   34.4381   49.5269 H   0  0  0  0  0  0  0  0  0  0  0  0
   62.9500   34.6678   50.1267 H   0  0  0  0  0  0  0  0  0  0  0  0
   62.1843   32.9918   50.1033 H   0  0  0  0  0  0  0  0  0  0  0  0
   65.4554   32.6275   48.5083 H   0  0  0  0  0  0  0  0  0  0  0  0
   65.2717   34.0576   49.5713 H   0  0  0  0  0  0  0  0  0  0  0  0
   66.0639   33.1922   51.7015 H   0  0  0  0  0  0  0  0  0  0  0  0
   65.6864   31.6464   53.5825 H   0  0  0  0  0  0  0  0  0  0  0  0
   64.0648   29.7805   53.4408 H   0  0  0  0  0  0  0  0  0  0  0  0
   62.7740   29.4756   51.3198 H   0  0  0  0  0  0  0  0  0  0  0  0
   63.1438   31.0115   49.4389 H   0  0  0  0  0  0  0  0  0  0  0  0
   64.0878   32.6353   46.8371 H   0  0  0  0  0  0  0  0  0  0  0  0
   62.8342   31.6926   47.7472 H   0  0  0  0  0  0  0  0  0  0  0  0
   62.3940   34.4420   46.4383 H   0  0  0  0  0  0  0  0  0  0  0  0
   61.8129   32.9133   45.7780 H   0  0  0  0  0  0  0  0  0  0  0  0
  1  2  1  0
  2  3  2  0
  3  4  1  0
  4  5  1  0
  5  6  1  0
  6  7  1  0
  7  8  1  0
  8  9  1  0
  9 10  2  0
 10 11  1  0
 11 12  2  0
 12 13  1  0
 13 14  2  0
 13 15  1  0
 15 16  1  0
 16 17  2  0
 17 18  1  0
 18 19  2  0
 19 20  1  0
 20 21  2  0
 21 22  1  0
 12 23  1  0
 23 24  2  0
  7 25  1  0
 25 26  1  0
 26 27  1  0
 27 28  1  0
 28 29  1  0
 29 30  1  0
 30 31  2  0
 31 32  1  0
 32 33  2  0
 33 34  1  0
 34 35  2  0
 28 36  1  0
 36 37  1  0
  5 38  2  0
 38  2  1  0
 24  9  1  0
 37 25  1  0
 21 16  1  0
 35 30  1  0
  1 39  1  0
  1 40  1  0
  1 41  1  0
  3 42  1  0
  4 43  1  0
  6 44  1  0
  6 45  1  0
  8 46  1  0
  8 47  1  0
 10 48  1  0
 11 49  1  0
 15 50  1  0
 17 51  1  0
 18 52  1  0
 19 53  1  0
 20 54  1  0
 22 55  1  0
 22 56  1  0
 23 57  1  0
 24 58  1  0
 25 59  1  0
 26 60  1  0
 26 61  1  0
 27 62  1  0
 27 63  1  0
 29 64  1  0
 29 65  1  0
 31 66  1  0
 32 67  1  0
 33 68  1  0
 34 69  1  0
 35 70  1  0
 36 71  1  0
 36 72  1  0
 37 73  1  0
 37 74  1  0
M  END
>  <smiles>  (58) 
Cc1c[nH]c(CN(Cc2ccc(C(=O)Nc3ccccc3N)cc2)C2CCN(Cc3ccccc3)CC2)n1

>  <score_type>  (58) 
oracle

>  <origin>  (58) 
adg

>  <m_score__min__energy>  (58) 
-9.7699999999999996

>  <m_primary>  (58) 
energy

$$$$
58:0
     RDKit          3D

 41 42  0  0  0  0  0  0  0  0999 V2000
   54.2677   24.5533   44.0616 H   0  0  0  0  0  0  0  0  0  0  0  0
   54.8580   24.0850   44.8630 C   0  0  0  0  0  0  0  0  0  0  0  0
   55.2440   24.9260   46.0140 C   0  0  0  0  0  0  0  0  0  0  0  0
   55.4530   24.3750   47.1260 O   0  0  0  0  0  0  0  0  0  0  0  0
   55.3710   26.3510   45.9110 N   0  0  0  0  0  0  0  0  0  0  0  0
   56.6060   27.0800   45.8100 C   0  0  0  0  0  0  0  0  0  0  0  0
   56.5770   28.4040   45.3480 C   0  0  0  0  0  0  0  0  0  0  0  0
   55.3630   28.9680   44.9670 O   0  0  0  0  0  0  0  0  0  0  0  0
   57.7670   29.1520   45.2700 C   0  0  0  0  0  0  0  0  0  0  0  0
   57.7640   30.5710   44.8410 C   0  0  0  0  0  0  0  0  0  0  0  0
   57.7170   30.9040   43.4750 C   0  0  0  0  0  0  0  0  0  0  0  0
   57.6919   30.1065   42.7178 H   0  0  0  0  0  0  0  0  0  0  0  0
   57.7020   32.2440   43.0750 C   0  0  0  0  0  0  0  0  0  0  0  0
   57.6681   32.4974   42.0051 H   0  0  0  0  0  0  0  0  0  0  0  0
   57.7300   33.2610   44.0320 C   0  0  0  0  0  0  0  0  0  0  0  0
   57.7206   34.3145   43.7156 H   0  0  0  0  0  0  0  0  0  0  0  0
   57.7700   32.9400   45.3920 C   0  0  0  0  0  0  0  0  0  0  0  0
   57.7905   33.7414   46.1452 H   0  0  0  0  0  0  0  0  0  0  0  0
   57.7840   31.6020   45.7960 C   0  0  0  0  0  0  0  0  0  0  0  0
   57.8108   31.3545   46.8675 H   0  0  0  0  0  0  0  0  0  0  0  0
   58.9750   28.5290   45.6200 C   0  0  0  0  0  0  0  0  0  0  0  0
   59.9171   29.0944   45.5684 H   0  0  0  0  0  0  0  0  0  0  0  0
   58.9870   27.2320   46.0220 N   0  0  0  0  0  0  0  0  0  0  0  0
   57.8490   26.4960   46.1190 C   0  0  0  0  0  0  0  0  0  0  0  0
   57.9290   25.2860   46.4580 O   0  0  0  0  0  0  0  0  0  0  0  0
   55.1790   22.7840   44.7270 C   0  0  0  0  0  0  0  0  0  0  0  0
   56.0740   22.3700   43.6190 C   0  0  0  0  0  0  0  0  0  0  0  0
   55.5980   22.2550   42.4550 O   0  0  0  0  0  0  0  0  0  0  0  0
   57.4690   22.0850   43.8410 N   0  0  0  0  0  0  0  0  0  0  0  0
   58.1360   21.0850   43.0070 C   0  0  0  0  0  0  0  0  0  0  0  0
   58.6312   20.3426   43.6501 H   0  0  0  0  0  0  0  0  0  0  0  0
   57.3920   20.5819   42.3719 H   0  0  0  0  0  0  0  0  0  0  0  0
   58.8863   21.5787   42.3719 H   0  0  0  0  0  0  0  0  0  0  0  0
   58.2310   22.7750   44.8860 C   0  0  0  0  0  0  0  0  0  0  0  0
   57.8736   22.4513   45.8747 H   0  0  0  0  0  0  0  0  0  0  0  0
   59.2985   22.5300   44.7838 H   0  0  0  0  0  0  0  0  0  0  0  0
   58.0928   23.8615   44.7838 H   0  0  0  0  0  0  0  0  0  0  0  0
   54.6100   21.7180   45.6320 C   0  0  0  0  0  0  0  0  0  0  0  0
   54.7646   22.0076   46.6819 H   0  0  0  0  0  0  0  0  0  0  0  0
   53.5331   21.6078   45.4368 H   0  0  0  0  0  0  0  0  0  0  0  0
   55.1178   20.7619   45.4368 H   0  0  0  0  0  0  0  0  0  0  0  0
  1  2  1  0
  2  3  1  0
  3  4  2  0
  3  5  1  0
  5  6  1  0
  6  7  2  0
  7  8  1  0
  7  9  1  0
  9 10  1  0
 10 11  2  0
 11 12  1  0
 11 13  1  0
 13 14  1  0
 13 15  2  0
 15 16  1  0
 15 17  1  0
 17 18  1  0
 17 19  2  0
 19 20  1  0
  9 21  2  0
 21 22  1  0
 21 23  1  0
 23 24  1  0
 24 25  2  0
  2 26  2  0
 26 27  1  0
 27 28  2  0
 27 29  1  0
 29 30  1  0
 30 31  1  0
 30 32  1  0
 30 33  1  0
 29 34  1  0
 34 35  1  0
 34 36  1  0
 34 37  1  0
 26 38  1  0
 38 39  1  0
 38 40  1  0
 38 41  1  0
 24  6  1  0
 19 10  1  0
M  CHG  3   5  -1   8  -1  23  -1
M  END
>  <UniqueID>  (59) 
55

>  <SMILES>  (59) 
C/C(=C\C(=O)[N-]c1c([O-])c(-c2ccccc2)c[n-]c1=O)C(=O)N(C)C

>  <Energy>  (59) 
60.91162010669236

>  <Genealogy>  (59) 
CC(=CC(=O)[N-]c1c([O-])c(-c2ccccc2)c[n-]c1=O)C(=O)N(C)C (protonated)
C/C(=C\C(=O)[N-]c1c([O-])c(-c2ccccc2)c[n-]c1=O)C(=O)N(C)C (cis-trans isomerization)
C/C(=C\C(=O)[N-]c1c([O-])c(-c2ccccc2)c[n-]c1=O)C(=O)N(C)C (3D coordinates assigned)
C/C(=C\C(=O)[N-]c1c([O-])c(-c2ccccc2)c[n-]c1=O)C(=O)N(C)C (optimized conformer: 60.91162010669236 kcal/mol)

>  <smiles>  (59) 
CC(=CC(=O)Nc1c(O)c(-c2ccccc2)c[nH]c1=O)C(=O)N(C)C

>  <score_type>  (59) 
oracle

>  <origin>  (59) 
adg

>  <m_score__min__energy>  (59) 
-15.01

>  <m_primary>  (59) 
energy

$$$$
59:0
     RDKit          3D

 60 63  0  0  0  0  0  0  0  0999 V2000
   57.7280   20.6160   46.3490 C   0  0  0  0  0  0  0  0  0  0  0  0
   57.0220   20.4880   45.0040 C   0  0  0  0  0  0  0  0  0  0  0  0
   56.9100   21.7970   44.3660 N   0  0  0  0  0  0  0  0  0  0  0  0
   57.3700   22.9590   44.8690 C   0  0  0  0  0  0  0  0  0  0  0  0
   57.0190   23.9570   43.9840 C   0  0  0  0  0  0  0  0  0  0  0  0
   57.2740   25.3650   44.0870 N   0  0  0  0  0  0  0  0  0  0  0  0
   58.0250   25.9560   45.1600 C   0  0  0  0  0  0  0  0  0  0  0  0
   58.7630   25.2320   45.8800 O   0  0  0  0  0  0  0  0  0  0  0  0
   58.0350   27.4180   45.3880 C   0  0  0  0  0  0  0  0  0  0  0  0
   57.1370   28.2840   44.7880 C   0  0  0  0  0  0  0  0  0  0  0  0
   57.4520   29.5400   45.2640 C   0  0  0  0  0  0  0  0  0  0  0  0
   56.7700   30.7590   44.9550 N   0  0  0  0  0  0  0  0  0  0  0  0
   57.4510   31.9360   44.5030 C   0  0  0  0  0  0  0  0  0  0  0  0
   57.4430   32.2160   43.2750 O   0  0  0  0  0  0  0  0  0  0  0  0
   58.1270   32.8380   45.4600 C   0  0  0  0  0  0  0  0  0  0  0  0
   58.6750   34.0510   45.0140 C   0  0  0  0  0  0  0  0  0  0  0  0
   59.3290   34.8990   45.9090 C   0  0  0  0  0  0  0  0  0  0  0  0
   59.4200   34.5570   47.2600 C   0  0  0  0  0  0  0  0  0  0  0  0
   58.8480   33.3680   47.7280 C   0  0  0  0  0  0  0  0  0  0  0  0
   58.8850   33.0980   49.1340 N   0  0  0  0  0  0  0  0  0  0  0  0
   59.4170   31.6060   49.8360 S   0  0  0  0  0  0  0  0  0  0  0  0
   59.9130   31.8470   51.2340 O   0  0  0  0  0  0  0  0  0  0  0  0
   58.2540   30.6560   49.8910 O   0  0  0  0  0  0  0  0  0  0  0  0
   60.7100   30.8740   48.8410 C   0  0  0  0  0  0  0  0  0  0  0  0
   61.7600   31.8970   48.5010 C   0  0  0  0  0  0  0  0  0  0  0  0
   62.4430   31.8290   47.2750 C   0  0  0  0  0  0  0  0  0  0  0  0
   63.4020   32.7940   46.9490 C   0  0  0  0  0  0  0  0  0  0  0  0
   63.6770   33.8390   47.8380 C   0  0  0  0  0  0  0  0  0  0  0  0
   62.9920   33.9210   49.0520 C   0  0  0  0  0  0  0  0  0  0  0  0
   62.0360   32.9550   49.3840 C   0  0  0  0  0  0  0  0  0  0  0  0
   58.2240   32.4940   46.8180 C   0  0  0  0  0  0  0  0  0  0  0  0
   58.5160   29.4120   46.1270 C   0  0  0  0  0  0  0  0  0  0  0  0
   58.8910   28.1160   46.1800 N   0  0  0  0  0  0  0  0  0  0  0  0
   60.0370   27.6200   46.9370 C   0  0  0  0  0  0  0  0  0  0  0  0
   56.3200   23.3330   42.9700 C   0  0  0  0  0  0  0  0  0  0  0  0
   56.2660   22.0110   43.2270 N   0  0  0  0  0  0  0  0  0  0  0  0
   56.9975   20.4836   47.1606 H   0  0  0  0  0  0  0  0  0  0  0  0
   58.5082   19.8447   46.4284 H   0  0  0  0  0  0  0  0  0  0  0  0
   58.1878   21.6121   46.4284 H   0  0  0  0  0  0  0  0  0  0  0  0
   57.5995   19.8149   44.3532 H   0  0  0  0  0  0  0  0  0  0  0  0
   56.0132   20.0803   45.1658 H   0  0  0  0  0  0  0  0  0  0  0  0
   57.9231   23.0880   45.8110 H   0  0  0  0  0  0  0  0  0  0  0  0
   57.0040   25.9620   43.2750 H   0  0  0  0  0  0  0  0  0  0  0  0
   56.3376   28.0244   44.0784 H   0  0  0  0  0  0  0  0  0  0  0  0
   58.5886   34.3343   43.9546 H   0  0  0  0  0  0  0  0  0  0  0  0
   59.7737   35.8387   45.5496 H   0  0  0  0  0  0  0  0  0  0  0  0
   59.9436   35.2250   47.9597 H   0  0  0  0  0  0  0  0  0  0  0  0
   61.1758   30.0507   49.4023 H   0  0  0  0  0  0  0  0  0  0  0  0
   60.2679   30.4958   47.9074 H   0  0  0  0  0  0  0  0  0  0  0  0
   62.2230   31.0144   46.5693 H   0  0  0  0  0  0  0  0  0  0  0  0
   63.9408   32.7311   45.9921 H   0  0  0  0  0  0  0  0  0  0  0  0
   64.4327   34.5958   47.5805 H   0  0  0  0  0  0  0  0  0  0  0  0
   63.2042   34.7459   49.7480 H   0  0  0  0  0  0  0  0  0  0  0  0
   61.4977   33.0239   50.3408 H   0  0  0  0  0  0  0  0  0  0  0  0
   57.8108   31.5380   47.1720 H   0  0  0  0  0  0  0  0  0  0  0  0
   58.9864   30.2349   46.6851 H   0  0  0  0  0  0  0  0  0  0  0  0
   59.8314   27.7090   48.0139 H   0  0  0  0  0  0  0  0  0  0  0  0
   60.2147   26.5644   46.6837 H   0  0  0  0  0  0  0  0  0  0  0  0
   60.9282   28.2129   46.6837 H   0  0  0  0  0  0  0  0  0  0  0  0
   55.8791   23.8332   42.0951 H   0  0  0  0  0  0  0  0  0  0  0  0
  1  2  1  0
  2  3  1  0
  3  4  1  0
  4  5  2  0
  5  6  1  0
  6  7  1  0
  7  8  2  0
  7  9  1  0
  9 10  2  0
 10 11  1  0
 11 12  1  0
 12 13  1  0
 13 14  2  0
 13 15  1  0
 15 16  2  0
 16 17  1  0
 17 18  2  0
 18 19  1  0
 19 20  1  0
 20 21  1  0
 21 22  2  0
 21 23  2  0
 21 24  1  0
 24 25  1  0
 25 26  2  0
 26 27  1  0
 27 28  2  0
 28 29  1  0
 29 30  2  0
 19 31  2  0
 11 32  2  0
 32 33  1  0
 33 34  1  0
  5 35  1  0
 35 36  2  0
 36  3  1  0
 33  9  1  0
 31 15  1  0
 30 25  1  0
  1 37  1  0
  1 38  1  0
  1 39  1  0
  2 40  1  0
  2 41  1  0
  4 42  1  0
  6 43  1  0
 10 44  1  0
 16 45  1  0
 17 46  1  0
 18 47  1  0
 24 48  1  0
 24 49  1  0
 26 50  1  0
 27 51  1  0
 28 52  1  0
 29 53  1  0
 30 54  1  0
 31 55  1  0
 32 56  1  0
 34 57  1  0
 34 58  1  0
 34 59  1  0
 35 60  1  0
M  CHG  2  12  -1  20  -1
M  END
>  <UniqueID>  (60) 
56

>  <SMILES>  (60) 
CCn1cc(NC(=O)c2cc([N-]C(=O)c3cccc([N-]S(=O)(=O)Cc4ccccc4)c3)cn2C)cn1

>  <Energy>  (60) 
124.05569053378515

>  <Genealogy>  (60) 
CCn1cc(NC(=O)c2cc([N-]C(=O)c3cccc([N-]S(=O)(=O)Cc4ccccc4)c3)cn2C)cn1 (protonated)
CCn1cc(NC(=O)c2cc([N-]C(=O)c3cccc([N-]S(=O)(=O)Cc4ccccc4)c3)cn2C)cn1 (3D coordinates assigned)
CCn1cc(NC(=O)c2cc([N-]C(=O)c3cccc([N-]S(=O)(=O)Cc4ccccc4)c3)cn2C)cn1 (optimized conformer: 124.05569053378515 kcal/mol)

>  <smiles>  (60) 
CCn1cc(NC(=O)c2cc(NC(=O)c3cccc(NS(=O)(=O)Cc4ccccc4)c3)cn2C)cn1

>  <score_type>  (60) 
oracle

>  <origin>  (60) 
adg

>  <m_score__min__energy>  (60) 
-11.869999999999999

>  <m_primary>  (60) 
energy

$$$$
60:0
     RDKit          3D

 27 28  0  0  0  0  0  0  0  0999 V2000
   56.6440   19.7900   43.0550 H   0  0  0  0  0  0  0  0  0  0  0  0
   56.2660   20.7300   43.0910 O   0  0  0  0  0  0  0  0  0  0  0  0
   56.9420   21.7610   43.7410 C   0  0  0  0  0  0  0  0  0  0  0  0
   56.7210   23.0990   43.3810 C   0  0  0  0  0  0  0  0  0  0  0  0
   56.0088   23.3416   42.5786 H   0  0  0  0  0  0  0  0  0  0  0  0
   57.4050   24.1240   44.0410 C   0  0  0  0  0  0  0  0  0  0  0  0
   57.2330   25.1721   43.7550 H   0  0  0  0  0  0  0  0  0  0  0  0
   58.3090   23.8180   45.0660 C   0  0  0  0  0  0  0  0  0  0  0  0
   59.1770   25.1330   45.9200 S   0  0  0  0  0  0  0  0  0  0  0  0
   57.8090   26.2700   45.7360 C   0  0  0  0  0  0  0  0  0  0  0  0
   57.8980   27.7760   44.9910 S   0  0  0  0  0  0  0  0  0  0  0  0
   56.2650   28.0790   45.2490 C   0  0  0  0  0  0  0  0  0  0  0  0
   55.6750   29.1780   44.8920 N   0  0  0  0  0  0  0  0  0  0  0  0
   56.3260   30.2420   44.1860 C   0  0  0  0  0  0  0  0  0  0  0  0
   56.4050   30.1870   42.9310 O   0  0  0  0  0  0  0  0  0  0  0  0
   56.8300   31.3940   44.8690 N   0  0  0  0  0  0  0  0  0  0  0  0
   57.8470   32.2830   44.3270 C   0  0  0  0  0  0  0  0  0  0  0  0
   58.3940   32.7611   45.1530 H   0  0  0  0  0  0  0  0  0  0  0  0
   58.5489   31.7037   43.7092 H   0  0  0  0  0  0  0  0  0  0  0  0
   57.3667   33.0561   43.7092 H   0  0  0  0  0  0  0  0  0  0  0  0
   55.6480   27.0670   45.9030 N   0  0  0  0  0  0  0  0  0  0  0  0
   56.5100   26.0520   46.1730 C   0  0  0  0  0  0  0  0  0  0  0  0
   56.2035   25.1334   46.6948 H   0  0  0  0  0  0  0  0  0  0  0  0
   58.5310   22.4830   45.4240 C   0  0  0  0  0  0  0  0  0  0  0  0
   59.2439   22.2404   46.2258 H   0  0  0  0  0  0  0  0  0  0  0  0
   57.8470   21.4570   44.7630 C   0  0  0  0  0  0  0  0  0  0  0  0
   58.0214   20.4089   45.0478 H   0  0  0  0  0  0  0  0  0  0  0  0
  1  2  1  0
  2  3  1  0
  3  4  2  0
  4  5  1  0
  4  6  1  0
  6  7  1  0
  6  8  2  0
  8  9  1  0
  9 10  1  0
 10 11  1  0
 11 12  1  0
 12 13  2  0
 13 14  1  0
 14 15  2  0
 14 16  1  0
 16 17  1  0
 17 18  1  0
 17 19  1  0
 17 20  1  0
 12 21  1  0
 21 22  1  0
 22 23  1  0
  8 24  1  0
 24 25  1  0
 24 26  2  0
 26 27  1  0
 26  3  1  0
 22 10  2  0
M  CHG  2  16  -1  21  -1
M  END
>  <UniqueID>  (61) 
57

>  <SMILES>  (61) 
C[N-]C(=O)/N=c1\[n-]cc(Sc2ccc(O)cc2)s1

>  <Energy>  (61) 
58.120427914045365

>  <Genealogy>  (61) 
C[N-]C(=O)N=c1[n-]cc(Sc2ccc(O)cc2)s1 (protonated)
C[N-]C(=O)/N=c1\[n-]cc(Sc2ccc(O)cc2)s1 (cis-trans isomerization)
C[N-]C(=O)/N=c1\[n-]cc(Sc2ccc(O)cc2)s1 (3D coordinates assigned)
C[N-]C(=O)/N=c1\[n-]cc(Sc2ccc(O)cc2)s1 (optimized conformer: 58.120427914045365 kcal/mol)

>  <smiles>  (61) 
CNC(=O)N=c1[nH]cc(Sc2ccc(O)cc2)s1

>  <score_type>  (61) 
oracle

>  <origin>  (61) 
adg

>  <m_score__min__energy>  (61) 
-9.9700000000000006

>  <m_primary>  (61) 
energy

$$$$
61:0
     RDKit          3D

 40 42  0  0  0  0  0  0  0  0999 V2000
   63.2110   32.5665   50.3024 H   0  0  0  0  0  0  0  0  0  0  0  0
   62.4500   32.1390   49.6330 C   0  0  0  0  0  0  0  0  0  0  0  0
   62.1690   30.8710   49.7450 N   0  0  0  0  0  0  0  0  0  0  0  0
   61.1690   30.1460   49.0070 C   0  0  0  0  0  0  0  0  0  0  0  0
   60.2340   29.3700   49.7030 C   0  0  0  0  0  0  0  0  0  0  0  0
   60.2714   29.3226   50.8013 H   0  0  0  0  0  0  0  0  0  0  0  0
   59.2530   28.6550   49.0090 C   0  0  0  0  0  0  0  0  0  0  0  0
   58.5128   28.0591   49.5632 H   0  0  0  0  0  0  0  0  0  0  0  0
   59.2110   28.6960   47.6110 C   0  0  0  0  0  0  0  0  0  0  0  0
   57.9740   27.8080   46.7410 Cl  0  0  0  0  0  0  0  0  0  0  0  0
   60.1650   29.4380   46.9060 C   0  0  0  0  0  0  0  0  0  0  0  0
   60.1401   29.4622   45.8065 H   0  0  0  0  0  0  0  0  0  0  0  0
   61.1490   30.1480   47.5980 C   0  0  0  0  0  0  0  0  0  0  0  0
   61.9118   30.7113   47.0405 H   0  0  0  0  0  0  0  0  0  0  0  0
   61.7990   33.0290   48.6540 C   0  0  0  0  0  0  0  0  0  0  0  0
   60.6610   33.7740   49.0070 C   0  0  0  0  0  0  0  0  0  0  0  0
   60.3076   33.7744   50.0487 H   0  0  0  0  0  0  0  0  0  0  0  0
   59.9780   34.5130   48.0410 C   0  0  0  0  0  0  0  0  0  0  0  0
   59.0886   35.0960   48.3220 H   0  0  0  0  0  0  0  0  0  0  0  0
   60.4240   34.5130   46.7140 C   0  0  0  0  0  0  0  0  0  0  0  0
   59.4320   35.2850   45.4380 S   0  0  0  0  0  0  0  0  0  0  0  0
   58.6880   33.7140   45.0050 C   0  0  0  0  0  0  0  0  0  0  0  0
   58.4180   33.4360   43.7000 N   0  0  0  0  0  0  0  0  0  0  0  0
   57.7880   32.2900   43.3280 C   0  0  0  0  0  0  0  0  0  0  0  0
   57.5920   32.0917   42.2639 H   0  0  0  0  0  0  0  0  0  0  0  0
   57.3880   31.3610   44.2980 C   0  0  0  0  0  0  0  0  0  0  0  0
   56.5520   29.8830   43.8390 S   0  0  0  0  0  0  0  0  0  0  0  0
   55.9020   30.0740   42.4970 O   0  0  0  0  0  0  0  0  0  0  0  0
   55.4990   29.5490   44.8590 O   0  0  0  0  0  0  0  0  0  0  0  0
   57.6830   28.5790   43.7540 N   0  0  0  0  0  0  0  0  0  0  0  0
   58.3330   28.7880   42.9630 H   0  0  0  0  0  0  0  0  0  0  0  0
   57.1450   27.7240   43.4840 H   0  0  0  0  0  0  0  0  0  0  0  0
   57.6710   31.6230   45.6440 C   0  0  0  0  0  0  0  0  0  0  0  0
   57.3791   30.8989   46.4189 H   0  0  0  0  0  0  0  0  0  0  0  0
   58.3240   32.8040   46.0020 C   0  0  0  0  0  0  0  0  0  0  0  0
   58.5497   33.0163   47.0575 H   0  0  0  0  0  0  0  0  0  0  0  0
   61.5980   33.8300   46.3730 C   0  0  0  0  0  0  0  0  0  0  0  0
   61.9754   33.8680   45.3405 H   0  0  0  0  0  0  0  0  0  0  0  0
   62.2910   33.1000   47.3430 C   0  0  0  0  0  0  0  0  0  0  0  0
   63.2236   32.5806   47.0774 H   0  0  0  0  0  0  0  0  0  0  0  0
  1  2  1  0
  2  3  2  0
  3  4  1  0
  4  5  2  0
  5  6  1  0
  5  7  1  0
  7  8  1  0
  7  9  2  0
  9 10  1  0
  9 11  1  0
 11 12  1  0
 11 13  2  0
 13 14  1  0
  2 15  1  0
 15 16  2  0
 16 17  1  0
 16 18  1  0
 18 19  1  0
 18 20  2  0
 20 21  1  0
 21 22  1  0
 22 23  2  0
 23 24  1  0
 24 25  1  0
 24 26  2  0
 26 27  1  0
 27 28  2  0
 27 29  2  0
 27 30  1  0
 30 31  1  0
 30 32  1  0
 26 33  1  0
 33 34  1  0
 33 35  2  0
 35 36  1  0
 20 37  1  0
 37 38  1  0
 37 39  2  0
 39 40  1  0
 13  4  1  0
 39 15  1  0
 35 22  1  0
M  END
>  <UniqueID>  (62) 
58

>  <SMILES>  (62) 
NS(=O)(=O)c1ccc(Sc2ccc(/C=N\c3ccc(Cl)cc3)cc2)nc1

>  <Energy>  (62) 
47.1341720373519

>  <Genealogy>  (62) 
NS(=O)(=O)c1ccc(Sc2ccc(/C=N\c3ccc(Cl)cc3)cc2)nc1 (cis-trans isomerization)
NS(=O)(=O)c1ccc(Sc2ccc(/C=N\c3ccc(Cl)cc3)cc2)nc1 (3D coordinates assigned)
NS(=O)(=O)c1ccc(Sc2ccc(/C=N\c3ccc(Cl)cc3)cc2)nc1 (optimized conformer: 47.1341720373519 kcal/mol)

>  <smiles>  (62) 
NS(=O)(=O)c1ccc(Sc2ccc(C=Nc3ccc(Cl)cc3)cc2)nc1

>  <score_type>  (62) 
oracle

>  <origin>  (62) 
adg

>  <m_score__min__energy>  (62) 
-9.7300000000000004

>  <m_primary>  (62) 
energy

$$$$
62:0
     RDKit          3D

 59 62  0  0  0  0  0  0  0  0999 V2000
   52.5050   23.1100   45.2020 O   0  0  0  0  0  0  0  0  0  0  0  0
   53.7580   23.2480   45.1430 C   0  0  0  0  0  0  0  0  0  0  0  0
   54.5760   22.9710   46.3750 C   0  0  0  0  0  0  0  0  0  0  0  0
   55.5450   24.0510   46.5920 N   0  0  0  0  0  0  0  0  0  0  0  0
   55.3100   25.2350   46.0190 N   0  0  0  0  0  0  0  0  0  0  0  0
   56.1380   26.3010   46.1760 C   0  0  0  0  0  0  0  0  0  0  0  0
   55.8260   27.4000   45.6440 O   0  0  0  0  0  0  0  0  0  0  0  0
   57.3020   26.1670   46.9530 C   0  0  0  0  0  0  0  0  0  0  0  0
   58.2690   27.2760   47.1590 C   0  0  0  0  0  0  0  0  0  0  0  0
   59.4220   27.0050   47.6040 O   0  0  0  0  0  0  0  0  0  0  0  0
   57.9310   28.6380   46.8260 N   0  0  0  0  0  0  0  0  0  0  0  0
   58.8110   29.7910   47.0690 C   0  0  0  0  0  0  0  0  0  0  0  0
   60.1560   29.6090   46.3460 C   0  0  0  0  0  0  0  0  0  0  0  0
   61.1030   30.8010   46.6040 C   0  0  0  0  0  0  0  0  0  0  0  0
   60.9680   31.4040   47.9610 N   0  0  0  0  0  0  0  0  0  0  0  0
   62.2690   31.9350   48.4320 C   0  0  0  0  0  0  0  0  0  0  0  0
   62.3440   33.4630   48.3740 C   0  0  0  0  0  0  0  0  0  0  0  0
   63.4840   33.3740   47.3720 C   0  0  0  0  0  0  0  0  0  0  0  0
   63.3850   31.8580   47.3860 C   0  0  0  0  0  0  0  0  0  0  0  0
   60.4320   30.4360   48.9420 C   0  0  0  0  0  0  0  0  0  0  0  0
   58.9830   30.0770   48.5840 C   0  0  0  0  0  0  0  0  0  0  0  0
   57.5300   24.9370   47.5860 C   0  0  0  0  0  0  0  0  0  0  0  0
   56.6380   23.8820   47.4010 C   0  0  0  0  0  0  0  0  0  0  0  0
   56.8510   22.7820   47.9820 O   0  0  0  0  0  0  0  0  0  0  0  0
   54.3420   23.7190   43.9200 N   0  0  0  0  0  0  0  0  0  0  0  0
   55.2670   22.9750   43.0680 C   0  0  0  0  0  0  0  0  0  0  0  0
   56.6180   22.8470   43.7220 C   0  0  0  0  0  0  0  0  0  0  0  0
   57.2530   21.5940   43.7960 C   0  0  0  0  0  0  0  0  0  0  0  0
   58.5110   21.4770   44.3950 C   0  0  0  0  0  0  0  0  0  0  0  0
   59.1530   22.6120   44.9080 C   0  0  0  0  0  0  0  0  0  0  0  0
   60.3710   22.4940   45.4900 F   0  0  0  0  0  0  0  0  0  0  0  0
   58.5390   23.8650   44.8180 C   0  0  0  0  0  0  0  0  0  0  0  0
   57.2800   23.9840   44.2220 C   0  0  0  0  0  0  0  0  0  0  0  0
   53.9084   22.9010   47.2465 H   0  0  0  0  0  0  0  0  0  0  0  0
   55.1182   22.0233   46.2408 H   0  0  0  0  0  0  0  0  0  0  0  0
   57.0440   28.8260   46.3090 H   0  0  0  0  0  0  0  0  0  0  0  0
   58.3294   30.6842   46.6445 H   0  0  0  0  0  0  0  0  0  0  0  0
   60.6347   28.6873   46.7083 H   0  0  0  0  0  0  0  0  0  0  0  0
   59.9615   29.5504   45.2649 H   0  0  0  0  0  0  0  0  0  0  0  0
   62.1389   30.4515   46.4829 H   0  0  0  0  0  0  0  0  0  0  0  0
   60.8312   31.5840   45.8808 H   0  0  0  0  0  0  0  0  0  0  0  0
   62.3609   31.3939   49.3853 H   0  0  0  0  0  0  0  0  0  0  0  0
   61.4360   33.9418   47.9787 H   0  0  0  0  0  0  0  0  0  0  0  0
   62.4614   34.0484   49.2978 H   0  0  0  0  0  0  0  0  0  0  0  0
   63.2595   33.8289   46.3960 H   0  0  0  0  0  0  0  0  0  0  0  0
   64.4442   33.8694   47.5784 H   0  0  0  0  0  0  0  0  0  0  0  0
   63.0710   31.4204   46.4269 H   0  0  0  0  0  0  0  0  0  0  0  0
   64.2792   31.2452   47.5727 H   0  0  0  0  0  0  0  0  0  0  0  0
   61.0475   29.5244   48.9286 H   0  0  0  0  0  0  0  0  0  0  0  0
   60.4561   30.8863   49.9453 H   0  0  0  0  0  0  0  0  0  0  0  0
   58.6893   29.1807   49.1499 H   0  0  0  0  0  0  0  0  0  0  0  0
   58.3471   30.9369   48.8412 H   0  0  0  0  0  0  0  0  0  0  0  0
   58.4128   24.8045   48.2287 H   0  0  0  0  0  0  0  0  0  0  0  0
   54.8589   21.9700   42.8854 H   0  0  0  0  0  0  0  0  0  0  0  0
   55.3864   23.5201   42.1200 H   0  0  0  0  0  0  0  0  0  0  0  0
   56.7583   20.7033   43.3813 H   0  0  0  0  0  0  0  0  0  0  0  0
   58.9973   20.4927   44.4636 H   0  0  0  0  0  0  0  0  0  0  0  0
   59.0462   24.7564   45.2158 H   0  0  0  0  0  0  0  0  0  0  0  0
   56.8038   24.9724   44.1433 H   0  0  0  0  0  0  0  0  0  0  0  0
  1  2  2  0
  2  3  1  0
  3  4  1  0
  4  5  1  0
  5  6  1  0
  6  7  2  0
  6  8  1  0
  8  9  1  0
  9 10  2  0
  9 11  1  0
 11 12  1  0
 12 13  1  0
 13 14  1  0
 14 15  1  0
 15 16  1  0
 16 17  1  0
 17 18  1  0
 18 19  1  0
 15 20  1  0
 20 21  1  0
  8 22  2  0
 22 23  1  0
 23 24  2  0
  2 25  1  0
 25 26  1  0
 26 27  1  0
 27 28  2  0
 28 29  1  0
 29 30  2  0
 30 31  1  0
 30 32  1  0
 32 33  2  0
 23  4  1  0
 33 27  1  0
 21 12  1  0
 19 16  1  0
  3 34  1  0
  3 35  1  0
 11 36  1  0
 12 37  1  0
 13 38  1  0
 13 39  1  0
 14 40  1  0
 14 41  1  0
 16 42  1  0
 17 43  1  0
 17 44  1  0
 18 45  1  0
 18 46  1  0
 19 47  1  0
 19 48  1  0
 20 49  1  0
 20 50  1  0
 21 51  1  0
 21 52  1  0
 22 53  1  0
 26 54  1  0
 26 55  1  0
 28 56  1  0
 29 57  1  0
 32 58  1  0
 33 59  1  0
M  CHG  2   5  -1  25  -1
M  END
>  <UniqueID>  (63) 
59

>  <SMILES>  (63) 
O=C(Cn1[n-]c(=O)c(C(=O)NC2CCN(C3CCC3)CC2)cc1=O)[N-]Cc1ccc(F)cc1

>  <Energy>  (63) 
132.49904863881622

>  <Genealogy>  (63) 
O=C(Cn1[n-]c(=O)c(C(=O)NC2CCN(C3CCC3)CC2)cc1=O)[N-]Cc1ccc(F)cc1 (protonated)
O=C(Cn1[n-]c(=O)c(C(=O)NC2CCN(C3CCC3)CC2)cc1=O)[N-]Cc1ccc(F)cc1 (3D coordinates assigned)
O=C(Cn1[n-]c(=O)c(C(=O)NC2CCN(C3CCC3)CC2)cc1=O)[N-]Cc1ccc(F)cc1 (nonaromatic ring conformer: 132.49904863881622 kcal/mol)

>  <smiles>  (63) 
O=C(Cn1[nH]c(=O)c(C(=O)NC2CCN(C3CCC3)CC2)cc1=O)NCc1ccc(F)cc1

>  <score_type>  (63) 
oracle

>  <origin>  (63) 
adg

>  <m_score__min__energy>  (63) 
-12.33

>  <m_primary>  (63) 
energy

$$$$
63:0
     RDKit          3D

 59 62  0  0  0  0  0  0  0  0999 V2000
   60.6100   29.3300   49.7630 C   0  0  0  0  0  0  0  0  0  0  0  0
   59.5690   28.9820   48.7410 C   0  0  0  0  0  0  0  0  0  0  0  0
   58.5410   29.7100   48.6600 O   0  0  0  0  0  0  0  0  0  0  0  0
   59.7190   27.8120   47.8320 C   0  0  0  0  0  0  0  0  0  0  0  0
   60.7570   27.7870   46.8830 C   0  0  0  0  0  0  0  0  0  0  0  0
   60.9210   26.6870   46.0380 C   0  0  0  0  0  0  0  0  0  0  0  0
   60.0490   25.6020   46.1220 C   0  0  0  0  0  0  0  0  0  0  0  0
   58.9940   25.6110   47.0410 C   0  0  0  0  0  0  0  0  0  0  0  0
   58.1360   24.4630   47.1140 N   0  0  0  0  0  0  0  0  0  0  0  0
   56.9290   24.2560   46.3680 C   0  0  0  0  0  0  0  0  0  0  0  0
   56.4430   23.0990   46.2560 O   0  0  0  0  0  0  0  0  0  0  0  0
   56.2620   25.4130   45.7430 C   0  0  0  0  0  0  0  0  0  0  0  0
   55.0040   25.4220   45.6770 O   0  0  0  0  0  0  0  0  0  0  0  0
   57.0040   26.5790   45.2200 C   0  0  0  0  0  0  0  0  0  0  0  0
   57.7700   26.6430   44.0560 C   0  0  0  0  0  0  0  0  0  0  0  0
   58.3290   27.9060   43.8240 C   0  0  0  0  0  0  0  0  0  0  0  0
   58.0050   28.8440   44.8000 C   0  0  0  0  0  0  0  0  0  0  0  0
   58.4350   30.2530   44.8520 C   0  0  0  0  0  0  0  0  0  0  0  0
   58.5630   30.8920   43.7720 O   0  0  0  0  0  0  0  0  0  0  0  0
   58.6490   30.9130   46.1110 N   0  0  0  0  0  0  0  0  0  0  0  0
   59.3310   32.1730   46.2500 C   0  0  0  0  0  0  0  0  0  0  0  0
   58.6050   33.3660   46.1160 C   0  0  0  0  0  0  0  0  0  0  0  0
   59.2420   34.6020   46.2560 C   0  0  0  0  0  0  0  0  0  0  0  0
   60.6080   34.6580   46.5430 C   0  0  0  0  0  0  0  0  0  0  0  0
   61.3450   33.4760   46.6950 C   0  0  0  0  0  0  0  0  0  0  0  0
   63.0710   33.5500   47.0540 S   0  0  0  0  0  0  0  0  0  0  0  0
   63.6840   32.2070   46.7670 O   0  0  0  0  0  0  0  0  0  0  0  0
   63.7240   34.5540   46.1440 O   0  0  0  0  0  0  0  0  0  0  0  0
   63.3910   33.9900   48.7200 N   0  0  0  0  0  0  0  0  0  0  0  0
   62.1560   34.1540   49.5070 C   0  0  0  0  0  0  0  0  0  0  0  0
   61.5990   32.8150   50.0490 C   0  0  0  0  0  0  0  0  0  0  0  0
   62.4820   31.7260   49.8710 O   0  0  0  0  0  0  0  0  0  0  0  0
   63.7700   32.0840   50.3130 C   0  0  0  0  0  0  0  0  0  0  0  0
   64.3970   33.1160   49.3620 C   0  0  0  0  0  0  0  0  0  0  0  0
   60.7020   32.2360   46.5640 C   0  0  0  0  0  0  0  0  0  0  0  0
   57.0090   28.1010   45.9360 S   0  0  0  0  0  0  0  0  0  0  0  0
   58.8440   26.7080   47.9080 C   0  0  0  0  0  0  0  0  0  0  0  0
   60.1942   29.1910   50.7719 H   0  0  0  0  0  0  0  0  0  0  0  0
   61.4844   28.6753   49.6334 H   0  0  0  0  0  0  0  0  0  0  0  0
   60.9149   30.3789   49.6334 H   0  0  0  0  0  0  0  0  0  0  0  0
   61.4456   28.6413   46.8057 H   0  0  0  0  0  0  0  0  0  0  0  0
   61.7404   26.6765   45.3041 H   0  0  0  0  0  0  0  0  0  0  0  0
   60.1914   24.7338   45.4618 H   0  0  0  0  0  0  0  0  0  0  0  0
   57.9205   25.7844   43.3851 H   0  0  0  0  0  0  0  0  0  0  0  0
   58.9628   28.1346   42.9545 H   0  0  0  0  0  0  0  0  0  0  0  0
   58.1720   30.5270   46.9560 H   0  0  0  0  0  0  0  0  0  0  0  0
   57.5272   33.3283   45.8993 H   0  0  0  0  0  0  0  0  0  0  0  0
   58.6668   35.5324   46.1400 H   0  0  0  0  0  0  0  0  0  0  0  0
   61.1065   35.6327   46.6500 H   0  0  0  0  0  0  0  0  0  0  0  0
   62.3695   34.8152   50.3598 H   0  0  0  0  0  0  0  0  0  0  0  0
   61.3941   34.5790   48.8370 H   0  0  0  0  0  0  0  0  0  0  0  0
   61.4000   32.9302   51.1247 H   0  0  0  0  0  0  0  0  0  0  0  0
   60.6859   32.5889   49.4788 H   0  0  0  0  0  0  0  0  0  0  0  0
   63.6994   32.5170   51.3217 H   0  0  0  0  0  0  0  0  0  0  0  0
   64.4033   31.1848   50.3303 H   0  0  0  0  0  0  0  0  0  0  0  0
   65.0937   33.7448   49.9358 H   0  0  0  0  0  0  0  0  0  0  0  0
   64.9110   32.5609   48.5635 H   0  0  0  0  0  0  0  0  0  0  0  0
   61.2728   31.3067   46.7076 H   0  0  0  0  0  0  0  0  0  0  0  0
   58.0354   26.7052   48.6538 H   0  0  0  0  0  0  0  0  0  0  0  0
  1  2  1  0
  2  3  2  0
  2  4  1  0
  4  5  2  0
  5  6  1  0
  6  7  2  0
  7  8  1  0
  8  9  1  0
  9 10  1  0
 10 11  2  0
 10 12  1  0
 12 13  2  0
 12 14  1  0
 14 15  2  0
 15 16  1  0
 16 17  2  0
 17 18  1  0
 18 19  2  0
 18 20  1  0
 20 21  1  0
 21 22  2  0
 22 23  1  0
 23 24  2  0
 24 25  1  0
 25 26  1  0
 26 27  2  0
 26 28  2  0
 26 29  1  0
 29 30  1  0
 30 31  1  0
 31 32  1  0
 32 33  1  0
 33 34  1  0
 25 35  2  0
 17 36  1  0
  8 37  2  0
 37  4  1  0
 36 14  1  0
 35 21  1  0
 34 29  1  0
  1 38  1  0
  1 39  1  0
  1 40  1  0
  5 41  1  0
  6 42  1  0
  7 43  1  0
 15 44  1  0
 16 45  1  0
 20 46  1  0
 22 47  1  0
 23 48  1  0
 24 49  1  0
 30 50  1  0
 30 51  1  0
 31 52  1  0
 31 53  1  0
 33 54  1  0
 33 55  1  0
 34 56  1  0
 34 57  1  0
 35 58  1  0
 37 59  1  0
M  CHG  1   9  -1
M  END
>  <UniqueID>  (64) 
60

>  <SMILES>  (64) 
CC(=O)c1cccc([N-]C(=O)C(=O)c2ccc(C(=O)Nc3cccc(S(=O)(=O)N4CCOCC4)c3)s2)c1

>  <Energy>  (64) 
107.48199142895832

>  <Genealogy>  (64) 
CC(=O)c1cccc([N-]C(=O)C(=O)c2ccc(C(=O)Nc3cccc(S(=O)(=O)N4CCOCC4)c3)s2)c1 (protonated)
CC(=O)c1cccc([N-]C(=O)C(=O)c2ccc(C(=O)Nc3cccc(S(=O)(=O)N4CCOCC4)c3)s2)c1 (3D coordinates assigned)
CC(=O)c1cccc([N-]C(=O)C(=O)c2ccc(C(=O)Nc3cccc(S(=O)(=O)N4CCOCC4)c3)s2)c1 (nonaromatic ring conformer: 107.48199142895832 kcal/mol)

>  <smiles>  (64) 
CC(=O)c1cccc(NC(=O)C(=O)c2ccc(C(=O)Nc3cccc(S(=O)(=O)N4CCOCC4)c3)s2)c1

>  <score_type>  (64) 
oracle

>  <origin>  (64) 
adg

>  <m_score__min__energy>  (64) 
-11.130000000000001

>  <m_primary>  (64) 
energy

$$$$
64:0
     RDKit          3D

 54 57  0  0  0  0  0  0  0  0999 V2000
   57.5460   28.0670   42.9800 C   0  0  0  0  0  0  0  0  0  0  0  0
   57.0550   29.3640   43.5240 C   0  0  0  0  0  0  0  0  0  0  0  0
   55.7790   29.6570   43.9640 C   0  0  0  0  0  0  0  0  0  0  0  0
   55.7730   30.8910   44.5080 N   0  0  0  0  0  0  0  0  0  0  0  0
   57.0050   31.3700   44.4240 N   0  0  0  0  0  0  0  0  0  0  0  0
   57.4050   32.6810   44.9250 C   0  0  0  0  0  0  0  0  0  0  0  0
   57.9590   32.5800   46.3580 C   0  0  2  0  0  0  0  0  0  0  0  0
   58.2870   33.9660   46.9180 C   0  0  0  0  0  0  0  0  0  0  0  0
   59.7850   34.1540   46.6940 C   0  0  0  0  0  0  0  0  0  0  0  0
   60.3660   32.7490   46.6000 C   0  0  0  0  0  0  0  0  0  0  0  0
   59.2330   31.8690   46.3610 N   0  0  0  0  0  0  0  0  0  0  0  0
   59.3680   30.4380   46.3500 C   0  0  0  0  0  0  0  0  0  0  0  0
   60.4250   29.8410   45.6500 C   0  0  0  0  0  0  0  0  0  0  0  0
   60.5960   28.4560   45.6750 C   0  0  0  0  0  0  0  0  0  0  0  0
   59.7230   27.6370   46.4130 C   0  0  0  0  0  0  0  0  0  0  0  0
   59.9940   26.1780   46.5000 C   0  0  0  0  0  0  0  0  0  0  0  0
   61.1640   25.7680   46.2750 O   0  0  0  0  0  0  0  0  0  0  0  0
   58.9900   25.2020   46.8160 N   0  0  0  0  0  0  0  0  0  0  0  0
   57.8430   24.8560   46.0320 C   0  0  0  0  0  0  0  0  0  0  0  0
   56.6460   25.5440   46.2810 C   0  0  0  0  0  0  0  0  0  0  0  0
   55.4720   25.1930   45.6160 C   0  0  0  0  0  0  0  0  0  0  0  0
   55.4690   24.1230   44.7240 C   0  0  0  0  0  0  0  0  0  0  0  0
   56.6410   23.3960   44.5010 C   0  0  0  0  0  0  0  0  0  0  0  0
   57.8420   23.7460   45.1470 C   0  0  0  0  0  0  0  0  0  0  0  0
   59.0500   22.9150   44.9150 C   0  0  0  0  0  0  0  0  0  0  0  0
   60.2890   23.2340   45.5530 N   0  0  0  0  0  0  0  0  0  0  0  0
   58.9950   21.9060   44.1670 O   0  0  0  0  0  0  0  0  0  0  0  0
   58.6720   28.2410   47.1260 C   0  0  0  0  0  0  0  0  0  0  0  0
   58.4870   29.6260   47.0810 C   0  0  0  0  0  0  0  0  0  0  0  0
   57.8140   30.4700   43.8350 C   0  0  0  0  0  0  0  0  0  0  0  0
   57.8009   27.3936   43.8116 H   0  0  0  0  0  0  0  0  0  0  0  0
   56.7598   27.6069   42.3634 H   0  0  0  0  0  0  0  0  0  0  0  0
   58.4398   28.2428   42.3634 H   0  0  0  0  0  0  0  0  0  0  0  0
   54.9075   28.9907   43.8836 H   0  0  0  0  0  0  0  0  0  0  0  0
   58.1832   33.0951   44.2671 H   0  0  0  0  0  0  0  0  0  0  0  0
   56.5211   33.3356   44.9369 H   0  0  0  0  0  0  0  0  0  0  0  0
   57.1889   32.0679   46.9535 H   0  0  0  0  0  0  0  0  0  0  0  0
   57.7183   34.7409   46.3831 H   0  0  0  0  0  0  0  0  0  0  0  0
   58.0205   34.0491   47.9820 H   0  0  0  0  0  0  0  0  0  0  0  0
   59.9670   34.7077   45.7611 H   0  0  0  0  0  0  0  0  0  0  0  0
   60.2483   34.7319   47.5073 H   0  0  0  0  0  0  0  0  0  0  0  0
   61.0830   32.6855   45.7682 H   0  0  0  0  0  0  0  0  0  0  0  0
   60.9085   32.4722   47.5160 H   0  0  0  0  0  0  0  0  0  0  0  0
   61.1243   30.4678   45.0772 H   0  0  0  0  0  0  0  0  0  0  0  0
   61.4230   27.9999   45.1110 H   0  0  0  0  0  0  0  0  0  0  0  0
   56.6336   26.3690   47.0085 H   0  0  0  0  0  0  0  0  0  0  0  0
   54.5475   25.7613   45.7958 H   0  0  0  0  0  0  0  0  0  0  0  0
   54.5438   23.8505   44.1952 H   0  0  0  0  0  0  0  0  0  0  0  0
   56.6252   22.5389   43.8117 H   0  0  0  0  0  0  0  0  0  0  0  0
   61.1180   22.6110   45.4260 H   0  0  0  0  0  0  0  0  0  0  0  0
   60.4080   24.1140   46.1020 H   0  0  0  0  0  0  0  0  0  0  0  0
   57.9900   27.6186   47.7239 H   0  0  0  0  0  0  0  0  0  0  0  0
   57.6452   30.0825   47.6222 H   0  0  0  0  0  0  0  0  0  0  0  0
   58.8888   30.5955   43.6375 H   0  0  0  0  0  0  0  0  0  0  0  0
  1  2  1  0
  2  3  1  0
  3  4  2  0
  4  5  1  0
  5  6  1  0
  6  7  1  0
  7  8  1  0
  8  9  1  0
  9 10  1  0
 10 11  1  0
 11 12  1  0
 12 13  2  0
 13 14  1  0
 14 15  2  0
 15 16  1  0
 16 17  2  0
 16 18  1  0
 18 19  1  0
 19 20  2  0
 20 21  1  0
 21 22  2  0
 22 23  1  0
 23 24  2  0
 24 25  1  0
 25 26  1  0
 25 27  2  0
 15 28  1  0
 28 29  2  0
  5 30  1  0
 30  2  2  0
 11  7  1  0
 29 12  1  0
 24 19  1  0
  1 31  1  0
  1 32  1  0
  1 33  1  0
  3 34  1  0
  6 35  1  0
  6 36  1  0
  7 37  1  1
  8 38  1  0
  8 39  1  0
  9 40  1  0
  9 41  1  0
 10 42  1  0
 10 43  1  0
 13 44  1  0
 14 45  1  0
 20 46  1  0
 21 47  1  0
 22 48  1  0
 23 49  1  0
 26 50  1  0
 26 51  1  0
 28 52  1  0
 29 53  1  0
 30 54  1  0
M  CHG  1  18  -1
M  END
>  <UniqueID>  (65) 
61

>  <SMILES>  (65) 
Cc1cnn(C[C@@H]2CCCN2c2ccc(C(=O)[N-]c3ccccc3C(N)=O)cc2)c1

>  <Energy>  (65) 
99.82786304071593

>  <Genealogy>  (65) 
Cc1cnn(CC2CCCN2c2ccc(C(=O)[N-]c3ccccc3C(N)=O)cc2)c1 (protonated)
Cc1cnn(C[C@@H]2CCCN2c2ccc(C(=O)[N-]c3ccccc3C(N)=O)cc2)c1 (chirality)
Cc1cnn(C[C@@H]2CCCN2c2ccc(C(=O)[N-]c3ccccc3C(N)=O)cc2)c1 (3D coordinates assigned)
Cc1cnn(C[C@@H]2CCCN2c2ccc(C(=O)[N-]c3ccccc3C(N)=O)cc2)c1 (nonaromatic ring conformer: 99.82786304071593 kcal/mol)

>  <smiles>  (65) 
Cc1cnn(CC2CCCN2c2ccc(C(=O)Nc3ccccc3C(N)=O)cc2)c1

>  <score_type>  (65) 
oracle

>  <origin>  (65) 
adg

>  <m_score__min__energy>  (65) 
-10.56

>  <m_primary>  (65) 
energy

$$$$
65:0
     RDKit          3D

 35 36  0  0  0  0  0  0  0  0999 V2000
   61.0100   33.7360   47.6280 C   0  0  0  0  0  0  0  0  0  0  0  0
   61.5100   32.7360   46.8960 C   0  0  0  0  0  0  0  0  0  0  0  0
   62.4220   31.7110   47.4960 C   0  0  0  0  0  0  0  0  0  0  0  0
   61.7060   30.4950   47.7050 O   0  0  0  0  0  0  0  0  0  0  0  0
   60.5980   30.0880   46.9490 C   0  0  0  0  0  0  0  0  0  0  0  0
   60.7270   29.4850   45.6830 C   0  0  0  0  0  0  0  0  0  0  0  0
   59.5900   29.0940   44.9690 C   0  0  0  0  0  0  0  0  0  0  0  0
   58.3080   29.2870   45.5080 C   0  0  0  0  0  0  0  0  0  0  0  0
   57.1100   28.8860   44.7300 C   0  0  0  0  0  0  0  0  0  0  0  0
   56.2730   28.1060   45.2610 O   0  0  0  0  0  0  0  0  0  0  0  0
   56.8550   29.3420   43.3480 C   0  0  0  0  0  0  0  0  0  0  0  0
   56.6290   30.6270   43.0410 C   0  0  0  0  0  0  0  0  0  0  0  0
   57.1720   31.7690   43.8120 C   0  0  0  0  0  0  0  0  0  0  0  0
   58.2320   32.5710   43.3460 C   0  0  0  0  0  0  0  0  0  0  0  0
   58.6970   33.6220   44.1400 C   0  0  0  0  0  0  0  0  0  0  0  0
   58.1200   33.8630   45.3860 C   0  0  0  0  0  0  0  0  0  0  0  0
   57.0810   33.0420   45.8260 C   0  0  0  0  0  0  0  0  0  0  0  0
   56.6390   32.0240   45.0400 N   0  0  0  0  0  0  0  0  0  0  0  0
   58.1830   29.9050   46.7640 C   0  0  0  0  0  0  0  0  0  0  0  0
   59.3200   30.2940   47.4780 C   0  0  0  0  0  0  0  0  0  0  0  0
   60.3420   34.4766   47.1640 H   0  0  0  0  0  0  0  0  0  0  0  0
   61.2664   33.8185   48.6945 H   0  0  0  0  0  0  0  0  0  0  0  0
   61.2461   32.6643   45.8305 H   0  0  0  0  0  0  0  0  0  0  0  0
   63.2646   31.5267   46.8133 H   0  0  0  0  0  0  0  0  0  0  0  0
   62.8021   32.0806   48.4598 H   0  0  0  0  0  0  0  0  0  0  0  0
   61.7265   29.3208   45.2539 H   0  0  0  0  0  0  0  0  0  0  0  0
   59.7009   28.6315   43.9771 H   0  0  0  0  0  0  0  0  0  0  0  0
   56.8504   28.5971   42.5386 H   0  0  0  0  0  0  0  0  0  0  0  0
   56.0027   30.8466   42.1638 H   0  0  0  0  0  0  0  0  0  0  0  0
   58.6895   32.3715   42.3657 H   0  0  0  0  0  0  0  0  0  0  0  0
   59.5187   34.2597   43.7820 H   0  0  0  0  0  0  0  0  0  0  0  0
   58.4796   34.6907   46.0150 H   0  0  0  0  0  0  0  0  0  0  0  0
   56.6194   33.2182   46.8088 H   0  0  0  0  0  0  0  0  0  0  0  0
   57.1839   30.0838   47.1880 H   0  0  0  0  0  0  0  0  0  0  0  0
   59.2084   30.7665   48.4651 H   0  0  0  0  0  0  0  0  0  0  0  0
  1  2  2  0
  2  3  1  0
  3  4  1  0
  4  5  1  0
  5  6  2  0
  6  7  1  0
  7  8  2  0
  8  9  1  0
  9 10  2  0
  9 11  1  0
 11 12  2  3
 12 13  1  0
 13 14  2  0
 14 15  1  0
 15 16  2  0
 16 17  1  0
 17 18  2  0
  8 19  1  0
 19 20  2  0
 20  5  1  0
 18 13  1  0
  1 21  1  0
  1 22  1  0
  2 23  1  0
  3 24  1  0
  3 25  1  0
  6 26  1  0
  7 27  1  0
 11 28  1  0
 12 29  1  0
 14 30  1  0
 15 31  1  0
 16 32  1  0
 17 33  1  0
 19 34  1  0
 20 35  1  0
M  END
>  <UniqueID>  (66) 
62

>  <SMILES>  (66) 
C=CCOc1ccc(C(=O)C=Cc2ccccn2)cc1

>  <Energy>  (66) 
39.140488553214865

>  <Genealogy>  (66) 
C=CCOc1ccc(C(=O)C=Cc2ccccn2)cc1 (3D coordinates assigned)
C=CCOc1ccc(C(=O)C=Cc2ccccn2)cc1 (optimized conformer: 39.140488553214865 kcal/mol)

>  <smiles>  (66) 
C=CCOc1ccc(C(=O)C=Cc2ccccn2)cc1

>  <score_type>  (66) 
oracle

>  <origin>  (66) 
adg

>  <m_score__min__energy>  (66) 
-7.0899999999999999

>  <m_primary>  (66) 
energy

$$$$
66:0
     RDKit          3D

 45 47  0  0  0  0  0  0  0  0999 V2000
   63.9120   33.5750   47.5110 C   0  0  0  0  0  0  0  0  0  0  0  0
   62.8540   32.8200   47.8550 C   0  0  0  0  0  0  0  0  0  0  0  0
   62.6060   31.6480   47.1160 C   0  0  0  0  0  0  0  0  0  0  0  0
   61.5340   30.8150   47.4310 C   0  0  0  0  0  0  0  0  0  0  0  0
   60.6860   31.1560   48.4870 C   0  0  0  0  0  0  0  0  0  0  0  0
   59.5540   30.2850   48.8730 C   0  0  0  0  0  0  0  0  0  0  0  0
   58.5150   30.7920   49.3720 O   0  0  0  0  0  0  0  0  0  0  0  0
   59.5870   28.8740   48.6250 N   0  0  0  0  0  0  0  0  0  0  0  0
   58.9550   28.2260   47.5150 C   0  0  0  0  0  0  0  0  0  0  0  0
   59.0760   26.8400   47.3700 C   0  0  0  0  0  0  0  0  0  0  0  0
   58.4810   26.1910   46.2870 C   0  0  0  0  0  0  0  0  0  0  0  0
   57.7760   26.9240   45.3280 C   0  0  0  0  0  0  0  0  0  0  0  0
   57.6590   28.3170   45.4500 C   0  0  0  0  0  0  0  0  0  0  0  0
   56.9700   29.1200   44.3780 C   0  0  0  0  0  0  0  0  0  0  0  0
   56.5950   30.4120   44.8580 O   0  0  0  0  0  0  0  0  0  0  0  0
   57.3840   31.5700   44.7710 C   0  0  0  0  0  0  0  0  0  0  0  0
   57.7910   32.0050   43.5080 C   0  0  0  0  0  0  0  0  0  0  0  0
   58.5290   33.1370   43.3760 N   0  0  0  0  0  0  0  0  0  0  0  0
   58.9080   33.8740   44.4530 C   0  0  0  0  0  0  0  0  0  0  0  0
   58.5530   33.4730   45.7490 C   0  0  0  0  0  0  0  0  0  0  0  0
   58.9930   34.2640   46.9230 C   0  0  0  0  0  0  0  0  0  0  0  0
   59.0160   33.7000   48.2370 N   0  0  0  0  0  0  0  0  0  0  0  0
   59.3750   35.4550   46.7640 O   0  0  0  0  0  0  0  0  0  0  0  0
   57.7710   32.3150   45.8990 C   0  0  0  0  0  0  0  0  0  0  0  0
   58.2630   28.9660   46.5400 C   0  0  0  0  0  0  0  0  0  0  0  0
   60.9280   32.2910   49.1940 N   0  0  0  0  0  0  0  0  0  0  0  0
   61.9660   33.1320   48.9290 C   0  0  0  0  0  0  0  0  0  0  0  0
   62.0900   34.2110   49.7160 C   0  0  0  0  0  0  0  0  0  0  0  0
   64.1340   34.4972   48.0680 H   0  0  0  0  0  0  0  0  0  0  0  0
   64.5556   33.2705   46.6725 H   0  0  0  0  0  0  0  0  0  0  0  0
   63.2680   31.3857   46.2776 H   0  0  0  0  0  0  0  0  0  0  0  0
   61.3572   29.8963   46.8525 H   0  0  0  0  0  0  0  0  0  0  0  0
   59.6425   26.2591   48.1127 H   0  0  0  0  0  0  0  0  0  0  0  0
   58.5672   25.0989   46.1878 H   0  0  0  0  0  0  0  0  0  0  0  0
   57.3116   26.4073   44.4752 H   0  0  0  0  0  0  0  0  0  0  0  0
   57.6536   29.2393   43.5245 H   0  0  0  0  0  0  0  0  0  0  0  0
   56.0585   28.5842   44.0745 H   0  0  0  0  0  0  0  0  0  0  0  0
   57.5120   31.4270   42.6146 H   0  0  0  0  0  0  0  0  0  0  0  0
   59.4973   34.7913   44.3072 H   0  0  0  0  0  0  0  0  0  0  0  0
   59.2770   34.2940   49.0540 H   0  0  0  0  0  0  0  0  0  0  0  0
   58.8670   32.6800   48.3990 H   0  0  0  0  0  0  0  0  0  0  0  0
   57.4604   31.9901   46.9030 H   0  0  0  0  0  0  0  0  0  0  0  0
   58.1941   30.0600   46.6312 H   0  0  0  0  0  0  0  0  0  0  0  0
   62.9105   34.9238   49.5467 H   0  0  0  0  0  0  0  0  0  0  0  0
   61.3712   34.3831   50.5307 H   0  0  0  0  0  0  0  0  0  0  0  0
  1  2  2  0
  2  3  1  0
  3  4  2  0
  4  5  1  0
  5  6  1  0
  6  7  2  0
  6  8  1  0
  8  9  1  0
  9 10  2  0
 10 11  1  0
 11 12  2  0
 12 13  1  0
 13 14  1  0
 14 15  1  0
 15 16  1  0
 16 17  2  0
 17 18  1  0
 18 19  2  0
 19 20  1  0
 20 21  1  0
 21 22  1  0
 21 23  2  0
 20 24  2  0
 13 25  2  0
  5 26  2  0
 26 27  1  0
 27 28  2  0
 27  2  1  0
 25  9  1  0
 24 16  1  0
  1 29  1  0
  1 30  1  0
  3 31  1  0
  4 32  1  0
 10 33  1  0
 11 34  1  0
 12 35  1  0
 14 36  1  0
 14 37  1  0
 17 38  1  0
 19 39  1  0
 22 40  1  0
 22 41  1  0
 24 42  1  0
 25 43  1  0
 28 44  1  0
 28 45  1  0
M  CHG  1   8  -1
M  END
>  <UniqueID>  (67) 
63

>  <SMILES>  (67) 
C=c1ccc(C(=O)[N-]c2cccc(COc3cncc(C(N)=O)c3)c2)nc1=C

>  <Energy>  (67) 
55.60352453957107

>  <Genealogy>  (67) 
C=c1ccc(C(=O)[N-]c2cccc(COc3cncc(C(N)=O)c3)c2)nc1=C (protonated)
C=c1ccc(C(=O)[N-]c2cccc(COc3cncc(C(N)=O)c3)c2)nc1=C (3D coordinates assigned)
C=c1ccc(C(=O)[N-]c2cccc(COc3cncc(C(N)=O)c3)c2)nc1=C (optimized conformer: 55.60352453957107 kcal/mol)

>  <smiles>  (67) 
C=c1ccc(C(=O)Nc2cccc(COc3cncc(C(N)=O)c3)c2)nc1=C

>  <score_type>  (67) 
oracle

>  <origin>  (67) 
adg

>  <m_score__min__energy>  (67) 
-10.890000000000001

>  <m_primary>  (67) 
energy

$$$$
67:0
     RDKit          3D

 56 59  0  0  0  0  0  0  0  0999 V2000
   57.1460   31.1820   42.7690 C   0  0  0  0  0  0  0  0  0  0  0  0
   57.4220   31.0920   44.0800 C   0  0  0  0  0  0  0  0  0  0  0  0
   57.4490   29.9240   44.8600 C   0  0  0  0  0  0  0  0  0  0  0  0
   57.0420   28.6690   44.5910 C   0  0  0  0  0  0  0  0  0  0  0  0
   57.4010   27.4680   45.3630 C   0  0  0  0  0  0  0  0  0  0  0  0
   58.6520   26.9820   45.4750 N   0  0  0  0  0  0  0  0  0  0  0  0
   58.4770   25.8190   46.1390 C   0  0  0  0  0  0  0  0  0  0  0  0
   59.4360   25.0670   46.4510 O   0  0  0  0  0  0  0  0  0  0  0  0
   57.1930   25.5220   46.4310 N   0  0  0  0  0  0  0  0  0  0  0  0
   56.5220   26.5670   45.9230 C   0  0  0  0  0  0  0  0  0  0  0  0
   55.1360   26.6880   45.9730 O   0  0  0  0  0  0  0  0  0  0  0  0
   57.9840   30.2900   46.0830 C   0  0  0  0  0  0  0  0  0  0  0  0
   58.1850   31.6530   46.0420 C   0  0  0  0  0  0  0  0  0  0  0  0
   58.6730   32.4430   47.1920 C   0  0  0  0  0  0  0  0  0  0  0  0
   58.0730   33.5110   47.4900 O   0  0  0  0  0  0  0  0  0  0  0  0
   59.8400   32.0480   47.9390 N   0  0  0  0  0  0  0  0  0  0  0  0
   60.9680   31.3600   47.2940 C   0  0  0  0  0  0  0  0  0  0  0  0
   62.2520   32.1660   47.5070 C   0  0  0  0  0  0  0  0  0  0  0  0
   62.3780   32.5210   48.9240 N   0  0  0  0  0  0  0  0  0  0  0  0
   63.5110   32.0800   49.6890 C   0  0  0  0  0  0  0  0  0  0  0  0
   64.7280   32.7690   49.5720 C   0  0  0  0  0  0  0  0  0  0  0  0
   65.8430   32.3860   50.3300 C   0  0  0  0  0  0  0  0  0  0  0  0
   67.1480   33.1090   50.1740 C   0  0  0  0  0  0  0  0  0  0  0  0
   65.7440   31.2840   51.1910 C   0  0  0  0  0  0  0  0  0  0  0  0
   64.5390   30.5880   51.3090 C   0  0  0  0  0  0  0  0  0  0  0  0
   63.4190   30.9660   50.5530 C   0  0  0  0  0  0  0  0  0  0  0  0
   62.1360   30.1920   50.6940 C   0  0  0  0  0  0  0  0  0  0  0  0
   61.2540   33.2010   49.5750 C   0  0  0  0  0  0  0  0  0  0  0  0
   59.9740   32.3930   49.3610 C   0  0  0  0  0  0  0  0  0  0  0  0
   57.8600   32.1430   44.8220 N   0  0  0  0  0  0  0  0  0  0  0  0
   58.0740   33.5160   44.3430 C   0  0  0  0  0  0  0  0  0  0  0  0
   57.1576   32.1625   42.2706 H   0  0  0  0  0  0  0  0  0  0  0  0
   56.9083   30.2752   42.1935 H   0  0  0  0  0  0  0  0  0  0  0  0
   56.3851   28.5292   43.7199 H   0  0  0  0  0  0  0  0  0  0  0  0
   54.5570   25.9570   46.3680 H   0  0  0  0  0  0  0  0  0  0  0  0
   58.2064   29.6205   46.9270 H   0  0  0  0  0  0  0  0  0  0  0  0
   61.0867   30.3593   47.7350 H   0  0  0  0  0  0  0  0  0  0  0  0
   60.7703   31.2667   46.2159 H   0  0  0  0  0  0  0  0  0  0  0  0
   63.1190   31.5615   47.2021 H   0  0  0  0  0  0  0  0  0  0  0  0
   62.2131   33.0836   46.9016 H   0  0  0  0  0  0  0  0  0  0  0  0
   64.8077   33.6187   48.8780 H   0  0  0  0  0  0  0  0  0  0  0  0
   67.5613   33.3380   51.1673 H   0  0  0  0  0  0  0  0  0  0  0  0
   67.8551   32.4740   49.6201 H   0  0  0  0  0  0  0  0  0  0  0  0
   66.9846   34.0452   49.6201 H   0  0  0  0  0  0  0  0  0  0  0  0
   66.6194   30.9661   51.7763 H   0  0  0  0  0  0  0  0  0  0  0  0
   64.4673   29.7358   52.0008 H   0  0  0  0  0  0  0  0  0  0  0  0
   61.9066   30.0536   51.7609 H   0  0  0  0  0  0  0  0  0  0  0  0
   61.3179   30.7474   50.2121 H   0  0  0  0  0  0  0  0  0  0  0  0
   62.2458   29.2093   50.2121 H   0  0  0  0  0  0  0  0  0  0  0  0
   61.4547   33.2907   50.6528 H   0  0  0  0  0  0  0  0  0  0  0  0
   61.1310   34.2035   49.1393 H   0  0  0  0  0  0  0  0  0  0  0  0
   60.0192   31.4706   49.9587 H   0  0  0  0  0  0  0  0  0  0  0  0
   59.1069   32.9930   49.6743 H   0  0  0  0  0  0  0  0  0  0  0  0
   58.1794   34.1925   45.2040 H   0  0  0  0  0  0  0  0  0  0  0  0
   58.9888   33.5532   43.7333 H   0  0  0  0  0  0  0  0  0  0  0  0
   57.2139   33.8299   43.7333 H   0  0  0  0  0  0  0  0  0  0  0  0
  1  2  2  0
  2  3  1  0
  3  4  2  3
  4  5  1  0
  5  6  1  0
  6  7  1  0
  7  8  2  0
  7  9  1  0
  9 10  1  0
 10 11  1  0
  3 12  1  0
 12 13  2  0
 13 14  1  0
 14 15  2  0
 14 16  1  0
 16 17  1  0
 17 18  1  0
 18 19  1  0
 19 20  1  0
 20 21  2  0
 21 22  1  0
 22 23  1  0
 22 24  2  0
 24 25  1  0
 25 26  2  0
 26 27  1  0
 19 28  1  0
 28 29  1  0
 13 30  1  0
 30 31  1  0
 30  2  1  0
 10  5  2  0
 29 16  1  0
 26 20  1  0
  1 32  1  0
  1 33  1  0
  4 34  1  0
 11 35  1  0
 12 36  1  0
 17 37  1  0
 17 38  1  0
 18 39  1  0
 18 40  1  0
 21 41  1  0
 23 42  1  0
 23 43  1  0
 23 44  1  0
 24 45  1  0
 25 46  1  0
 27 47  1  0
 27 48  1  0
 27 49  1  0
 28 50  1  0
 28 51  1  0
 29 52  1  0
 29 53  1  0
 31 54  1  0
 31 55  1  0
 31 56  1  0
M  CHG  2   6  -1   9  -1
M  END
>  <UniqueID>  (68) 
64

>  <SMILES>  (68) 
C=c1c(=Cc2[n-]c(=O)[n-]c2O)cc(C(=O)N2CCN(c3cc(C)ccc3C)CC2)n1C

>  <Energy>  (68) 
136.7073855402506

>  <Genealogy>  (68) 
C=c1c(=Cc2[n-]c(=O)[n-]c2O)cc(C(=O)N2CCN(c3cc(C)ccc3C)CC2)n1C (protonated)
C=c1c(=Cc2[n-]c(=O)[n-]c2O)cc(C(=O)N2CCN(c3cc(C)ccc3C)CC2)n1C (3D coordinates assigned)
C=c1c(=Cc2[n-]c(=O)[n-]c2O)cc(C(=O)N2CCN(c3cc(C)ccc3C)CC2)n1C (nonaromatic ring conformer: 136.7073855402506 kcal/mol)

>  <smiles>  (68) 
C=c1c(=Cc2[nH]c(=O)[nH]c2O)cc(C(=O)N2CCN(c3cc(C)ccc3C)CC2)n1C

>  <score_type>  (68) 
oracle

>  <origin>  (68) 
adg

>  <m_score__min__energy>  (68) 
-13.66

>  <m_primary>  (68) 
energy

$$$$
68:0
     RDKit          3D

 37 38  0  0  0  0  0  0  0  0999 V2000
   54.9940   23.6980   43.7530 C   0  0  0  0  0  0  0  0  0  0  0  0
   56.0080   22.6050   43.5930 C   0  0  0  0  0  0  0  0  0  0  0  0
   55.9210   21.8330   42.6500 O   0  0  0  0  0  0  0  0  0  0  0  0
   57.0770   22.4030   44.6310 C   0  0  0  0  0  0  0  0  0  0  0  0
   58.1350   23.5280   44.6550 C   0  0  0  0  0  0  0  0  0  0  0  0
   58.0370   24.5760   45.8070 C   0  0  2  0  0  0  0  0  0  0  0  0
   59.4040   24.9880   46.3810 C   0  0  0  0  0  0  0  0  0  0  0  0
   57.1170   24.1070   46.9120 C   0  0  0  0  0  0  0  0  0  0  0  0
   57.3940   23.1930   47.7320 O   0  0  0  0  0  0  0  0  0  0  0  0
   55.9100   24.8520   47.0030 N   0  0  0  0  0  0  0  0  0  0  0  0
   56.0750   25.8410   46.0060 C   0  0  0  0  0  0  0  0  0  0  0  0
   55.1890   26.6990   45.7490 O   0  0  0  0  0  0  0  0  0  0  0  0
   57.3200   25.7650   45.3190 N   0  0  0  0  0  0  0  0  0  0  0  0
   57.7380   26.6560   44.2290 C   0  0  0  0  0  0  0  0  0  0  0  0
   57.7690   28.0900   44.6910 C   0  0  0  0  0  0  0  0  0  0  0  0
   58.5140   28.4520   45.8250 C   0  0  0  0  0  0  0  0  0  0  0  0
   58.5250   29.7800   46.2670 C   0  0  0  0  0  0  0  0  0  0  0  0
   57.7940   30.7520   45.5800 C   0  0  0  0  0  0  0  0  0  0  0  0
   57.0520   30.4010   44.4500 C   0  0  0  0  0  0  0  0  0  0  0  0
   57.0380   29.0760   44.0050 C   0  0  0  0  0  0  0  0  0  0  0  0
   54.8213   23.8841   44.8233 H   0  0  0  0  0  0  0  0  0  0  0  0
   55.3668   24.6167   43.2765 H   0  0  0  0  0  0  0  0  0  0  0  0
   54.0500   23.3950   43.2765 H   0  0  0  0  0  0  0  0  0  0  0  0
   56.5973   22.3554   45.6197 H   0  0  0  0  0  0  0  0  0  0  0  0
   57.6025   21.4709   44.3761 H   0  0  0  0  0  0  0  0  0  0  0  0
   59.1236   23.0508   44.7252 H   0  0  0  0  0  0  0  0  0  0  0  0
   57.9582   24.1026   43.7338 H   0  0  0  0  0  0  0  0  0  0  0  0
   59.3593   24.9745   47.4800 H   0  0  0  0  0  0  0  0  0  0  0  0
   60.1741   24.2821   46.0367 H   0  0  0  0  0  0  0  0  0  0  0  0
   59.6558   26.0019   46.0367 H   0  0  0  0  0  0  0  0  0  0  0  0
   58.7432   26.3645   43.8905 H   0  0  0  0  0  0  0  0  0  0  0  0
   57.0152   26.5671   43.4046 H   0  0  0  0  0  0  0  0  0  0  0  0
   59.0911   27.6890   46.3680 H   0  0  0  0  0  0  0  0  0  0  0  0
   59.1098   30.0585   47.1561 H   0  0  0  0  0  0  0  0  0  0  0  0
   57.8027   31.7950   45.9293 H   0  0  0  0  0  0  0  0  0  0  0  0
   56.4780   31.1681   43.9096 H   0  0  0  0  0  0  0  0  0  0  0  0
   56.4527   28.8035   43.1144 H   0  0  0  0  0  0  0  0  0  0  0  0
  1  2  1  0
  2  3  2  0
  2  4  1  0
  4  5  1  0
  6  5  1  6
  6  7  1  0
  6  8  1  0
  8  9  2  0
  8 10  1  0
 10 11  1  0
 11 12  2  0
 11 13  1  0
 13 14  1  0
 14 15  1  0
 15 16  2  0
 16 17  1  0
 17 18  2  0
 18 19  1  0
 19 20  2  0
 13  6  1  0
 20 15  1  0
  1 21  1  0
  1 22  1  0
  1 23  1  0
  4 24  1  0
  4 25  1  0
  5 26  1  0
  5 27  1  0
  7 28  1  0
  7 29  1  0
  7 30  1  0
 14 31  1  0
 14 32  1  0
 16 33  1  0
 17 34  1  0
 18 35  1  0
 19 36  1  0
 20 37  1  0
M  CHG  1  10  -1
M  END
>  <UniqueID>  (69) 
65

>  <SMILES>  (69) 
CC(=O)CC[C@]1(C)C(=O)[N-]C(=O)N1Cc1ccccc1

>  <Energy>  (69) 
49.20430348983689

>  <Genealogy>  (69) 
CC(=O)CCC1(C)C(=O)[N-]C(=O)N1Cc1ccccc1 (protonated)
CC(=O)CC[C@]1(C)C(=O)[N-]C(=O)N1Cc1ccccc1 (chirality)
CC(=O)CC[C@]1(C)C(=O)[N-]C(=O)N1Cc1ccccc1 (3D coordinates assigned)
CC(=O)CC[C@]1(C)C(=O)[N-]C(=O)N1Cc1ccccc1 (nonaromatic ring conformer: 49.20430348983689 kcal/mol)

>  <smiles>  (69) 
CC(=O)CCC1(C)C(=O)NC(=O)N1Cc1ccccc1

>  <score_type>  (69) 
oracle

>  <origin>  (69) 
adg

>  <m_score__min__energy>  (69) 
-8.9299999999999997

>  <m_primary>  (69) 
energy

$$$$
69:0
     RDKit          3D

 43 45  0  0  0  0  0  0  0  0999 V2000
   58.4980   30.3190   54.1690 C   0  0  0  0  0  0  0  0  0  0  0  0
   58.8830   30.1140   52.7290 C   0  0  0  0  0  0  0  0  0  0  0  0
   60.2370   30.1290   52.3580 C   0  0  0  0  0  0  0  0  0  0  0  0
   60.6080   29.9490   51.0250 C   0  0  0  0  0  0  0  0  0  0  0  0
   59.6390   29.7280   50.0440 C   0  0  0  0  0  0  0  0  0  0  0  0
   60.0650   29.5470   48.6850 N   0  0  0  0  0  0  0  0  0  0  0  0
   60.0000   28.3320   47.9240 C   0  0  0  0  0  0  0  0  0  0  0  0
   60.5590   27.2870   48.3550 O   0  0  0  0  0  0  0  0  0  0  0  0
   59.3220   28.3180   46.6050 C   0  0  0  0  0  0  0  0  0  0  0  0
   59.8140   27.5190   45.5600 C   0  0  0  0  0  0  0  0  0  0  0  0
   59.1780   27.5090   44.3180 C   0  0  0  0  0  0  0  0  0  0  0  0
   58.0440   28.2940   44.0970 C   0  0  0  0  0  0  0  0  0  0  0  0
   57.4550   28.2490   42.8760 F   0  0  0  0  0  0  0  0  0  0  0  0
   57.5300   29.1060   45.1290 C   0  0  0  0  0  0  0  0  0  0  0  0
   56.3600   29.9260   44.9190 N   0  0  0  0  0  0  0  0  0  0  0  0
   56.4710   31.1600   44.7660 O   0  0  0  0  0  0  0  0  0  0  0  0
   55.1040   29.3690   44.8670 O   0  0  0  0  0  0  0  0  0  0  0  0
   58.1800   29.1080   46.3790 C   0  0  0  0  0  0  0  0  0  0  0  0
   58.2790   29.7470   50.4000 C   0  0  0  0  0  0  0  0  0  0  0  0
   57.8920   29.9580   51.7370 C   0  0  0  0  0  0  0  0  0  0  0  0
   56.5070   29.9650   52.1230 N   0  0  0  0  0  0  0  0  0  0  0  0
   55.6040   31.0780   52.0540 C   0  0  0  0  0  0  0  0  0  0  0  0
   56.0450   32.2560   52.1360 O   0  0  0  0  0  0  0  0  0  0  0  0
   54.1460   30.8410   51.9410 C   0  0  0  0  0  0  0  0  0  0  0  0
   53.6140   29.5540   52.1430 C   0  0  0  0  0  0  0  0  0  0  0  0
   52.2370   29.3310   52.0360 C   0  0  0  0  0  0  0  0  0  0  0  0
   51.3780   30.3870   51.7270 C   0  0  0  0  0  0  0  0  0  0  0  0
   51.8930   31.6690   51.5240 C   0  0  0  0  0  0  0  0  0  0  0  0
   51.0360   32.7200   51.2180 O   0  0  0  0  0  0  0  0  0  0  0  0
   53.2690   31.8980   51.6300 C   0  0  0  0  0  0  0  0  0  0  0  0
   59.2803   29.9025   54.8206 H   0  0  0  0  0  0  0  0  0  0  0  0
   58.3883   31.3950   54.3696 H   0  0  0  0  0  0  0  0  0  0  0  0
   57.5440   29.8094   54.3696 H   0  0  0  0  0  0  0  0  0  0  0  0
   61.0112   30.2838   53.1240 H   0  0  0  0  0  0  0  0  0  0  0  0
   61.6712   29.9814   50.7449 H   0  0  0  0  0  0  0  0  0  0  0  0
   60.7067   26.8969   45.7217 H   0  0  0  0  0  0  0  0  0  0  0  0
   59.5724   26.8786   43.5074 H   0  0  0  0  0  0  0  0  0  0  0  0
   57.7882   29.7375   47.1915 H   0  0  0  0  0  0  0  0  0  0  0  0
   57.5108   29.5957   49.6273 H   0  0  0  0  0  0  0  0  0  0  0  0
   54.2855   28.7175   52.3867 H   0  0  0  0  0  0  0  0  0  0  0  0
   51.8304   28.3215   52.1957 H   0  0  0  0  0  0  0  0  0  0  0  0
   50.2957   30.2093   51.6434 H   0  0  0  0  0  0  0  0  0  0  0  0
   53.6685   32.9102   51.4694 H   0  0  0  0  0  0  0  0  0  0  0  0
  1  2  1  0
  2  3  2  0
  3  4  1  0
  4  5  2  0
  5  6  1  0
  6  7  1  0
  7  8  2  0
  7  9  1  0
  9 10  2  0
 10 11  1  0
 11 12  2  0
 12 13  1  0
 12 14  1  0
 14 15  1  0
 15 16  2  0
 15 17  1  0
 14 18  2  0
  5 19  1  0
 19 20  2  0
 20 21  1  0
 21 22  1  0
 22 23  2  0
 22 24  1  0
 24 25  2  0
 25 26  1  0
 26 27  2  0
 27 28  1  0
 28 29  1  0
 28 30  2  0
 20  2  1  0
 30 24  1  0
 18  9  1  0
  1 31  1  0
  1 32  1  0
  1 33  1  0
  3 34  1  0
  4 35  1  0
 10 36  1  0
 11 37  1  0
 18 38  1  0
 19 39  1  0
 25 40  1  0
 26 41  1  0
 27 42  1  0
 30 43  1  0
M  CHG  5   6  -1  15   1  17  -1  21  -1  29  -1
M  END
>  <UniqueID>  (70) 
66

>  <SMILES>  (70) 
Cc1ccc([N-]C(=O)c2ccc(F)c([N+](=O)[O-])c2)cc1[N-]C(=O)c1cccc([O-])c1

>  <Energy>  (70) 
57.48533318258149

>  <Genealogy>  (70) 
Cc1ccc([N-]C(=O)c2ccc(F)c([N+](=O)[O-])c2)cc1[N-]C(=O)c1cccc([O-])c1 (protonated)
Cc1ccc([N-]C(=O)c2ccc(F)c([N+](=O)[O-])c2)cc1[N-]C(=O)c1cccc([O-])c1 (3D coordinates assigned)
Cc1ccc([N-]C(=O)c2ccc(F)c([N+](=O)[O-])c2)cc1[N-]C(=O)c1cccc([O-])c1 (optimized conformer: 57.48533318258149 kcal/mol)

>  <smiles>  (70) 
Cc1ccc(NC(=O)c2ccc(F)c([N+](=O)[O-])c2)cc1NC(=O)c1cccc(O)c1

>  <score_type>  (70) 
oracle

>  <origin>  (70) 
adg

>  <m_score__min__energy>  (70) 
-14.9

>  <m_primary>  (70) 
energy

$$$$
70:0
     RDKit          3D

 54 57  0  0  0  0  0  0  0  0999 V2000
   63.0240   30.8790   46.7520 O   0  0  0  0  0  0  0  0  0  0  0  0
   61.9150   30.8810   47.3580 C   0  0  0  0  0  0  0  0  0  0  0  0
   61.8830   31.0790   48.7810 N   0  0  0  0  0  0  0  0  0  0  0  0
   62.9550   31.7010   49.5090 C   0  0  0  0  0  0  0  0  0  0  0  0
   63.4840   31.0750   50.6520 C   0  0  0  0  0  0  0  0  0  0  0  0
   64.5640   31.6410   51.3330 C   0  0  0  0  0  0  0  0  0  0  0  0
   65.1300   32.8340   50.8800 C   0  0  0  0  0  0  0  0  0  0  0  0
   64.6200   33.4610   49.7400 C   0  0  0  0  0  0  0  0  0  0  0  0
   63.5420   32.8980   49.0390 C   0  0  0  0  0  0  0  0  0  0  0  0
   62.9840   33.6110   47.8700 C   0  0  0  0  0  0  0  0  0  0  0  0
   63.7660   33.9640   46.9460 O   0  0  0  0  0  0  0  0  0  0  0  0
   61.5770   33.9020   47.7660 N   0  0  0  0  0  0  0  0  0  0  0  0
   60.6610   33.8890   48.8960 C   0  0  0  0  0  0  0  0  0  0  0  0
   59.3100   34.3250   48.3420 C   0  0  0  0  0  0  0  0  0  0  0  0
   59.5990   34.9630   46.9840 C   0  0  0  0  0  0  0  0  0  0  0  0
   60.9730   34.4530   46.5650 C   0  0  0  0  0  0  0  0  0  0  0  0
   60.6670   30.6190   46.6010 C   0  0  0  0  0  0  0  0  0  0  0  0
   59.5070   31.3770   46.8420 C   0  0  0  0  0  0  0  0  0  0  0  0
   58.3270   31.1110   46.1410 C   0  0  0  0  0  0  0  0  0  0  0  0
   58.2880   30.0850   45.1890 C   0  0  0  0  0  0  0  0  0  0  0  0
   56.7770   29.6830   44.3770 S   0  0  0  0  0  0  0  0  0  0  0  0
   57.0950   29.1730   42.9940 O   0  0  0  0  0  0  0  0  0  0  0  0
   55.9200   30.9140   44.2420 O   0  0  0  0  0  0  0  0  0  0  0  0
   55.8870   28.4620   45.2400 N   0  0  0  0  0  0  0  0  0  0  0  0
   56.4340   27.2010   45.6580 C   0  0  0  0  0  0  0  0  0  0  0  0
   57.8230   26.9850   45.7040 C   0  0  0  0  0  0  0  0  0  0  0  0
   58.3310   25.7470   46.1220 C   0  0  0  0  0  0  0  0  0  0  0  0
   57.4580   24.7140   46.4830 C   0  0  0  0  0  0  0  0  0  0  0  0
   56.0730   24.9120   46.4210 C   0  0  0  0  0  0  0  0  0  0  0  0
   55.5620   26.1500   46.0030 C   0  0  0  0  0  0  0  0  0  0  0  0
   54.1850   26.3350   45.9470 O   0  0  0  0  0  0  0  0  0  0  0  0
   59.4430   29.3410   44.9270 C   0  0  0  0  0  0  0  0  0  0  0  0
   60.6280   29.6110   45.6210 C   0  0  0  0  0  0  0  0  0  0  0  0
   61.0710   30.7030   49.3210 H   0  0  0  0  0  0  0  0  0  0  0  0
   63.0441   30.1332   51.0120 H   0  0  0  0  0  0  0  0  0  0  0  0
   64.9693   31.1459   52.2278 H   0  0  0  0  0  0  0  0  0  0  0  0
   65.9776   33.2806   51.4205 H   0  0  0  0  0  0  0  0  0  0  0  0
   65.0668   34.4030   49.3893 H   0  0  0  0  0  0  0  0  0  0  0  0
   60.5918   32.8768   49.3211 H   0  0  0  0  0  0  0  0  0  0  0  0
   61.0024   34.5565   49.7010 H   0  0  0  0  0  0  0  0  0  0  0  0
   58.6470   33.4554   48.2226 H   0  0  0  0  0  0  0  0  0  0  0  0
   58.8046   35.0293   49.0192 H   0  0  0  0  0  0  0  0  0  0  0  0
   58.8383   34.6599   46.2495 H   0  0  0  0  0  0  0  0  0  0  0  0
   59.5769   36.0613   47.0416 H   0  0  0  0  0  0  0  0  0  0  0  0
   60.8733   33.6739   45.7949 H   0  0  0  0  0  0  0  0  0  0  0  0
   61.5886   35.2574   46.1361 H   0  0  0  0  0  0  0  0  0  0  0  0
   59.5284   32.1853   47.5878 H   0  0  0  0  0  0  0  0  0  0  0  0
   57.4257   31.7101   46.3381 H   0  0  0  0  0  0  0  0  0  0  0  0
   58.5130   27.7900   45.4110 H   0  0  0  0  0  0  0  0  0  0  0  0
   59.4184   25.5870   46.1664 H   0  0  0  0  0  0  0  0  0  0  0  0
   57.8603   23.7458   46.8157 H   0  0  0  0  0  0  0  0  0  0  0  0
   55.3871   24.0984   46.6995 H   0  0  0  0  0  0  0  0  0  0  0  0
   59.4199   28.5407   44.1727 H   0  0  0  0  0  0  0  0  0  0  0  0
   61.5355   29.0306   45.3983 H   0  0  0  0  0  0  0  0  0  0  0  0
  1  2  2  0
  2  3  1  0
  3  4  1  0
  4  5  2  0
  5  6  1  0
  6  7  2  0
  7  8  1  0
  8  9  2  0
  9 10  1  0
 10 11  2  0
 10 12  1  0
 12 13  1  0
 13 14  1  0
 14 15  1  0
 15 16  1  0
  2 17  1  0
 17 18  2  0
 18 19  1  0
 19 20  2  0
 20 21  1  0
 21 22  2  0
 21 23  2  0
 21 24  1  0
 24 25  1  0
 25 26  2  0
 26 27  1  0
 27 28  2  0
 28 29  1  0
 29 30  2  0
 30 31  1  0
 20 32  1  0
 32 33  2  0
  9  4  1  0
 16 12  1  0
 33 17  1  0
 30 25  1  0
  3 34  1  0
  5 35  1  0
  6 36  1  0
  7 37  1  0
  8 38  1  0
 13 39  1  0
 13 40  1  0
 14 41  1  0
 14 42  1  0
 15 43  1  0
 15 44  1  0
 16 45  1  0
 16 46  1  0
 18 47  1  0
 19 48  1  0
 26 49  1  0
 27 50  1  0
 28 51  1  0
 29 52  1  0
 32 53  1  0
 33 54  1  0
M  CHG  2  24  -1  31  -1
M  END
>  <UniqueID>  (71) 
67

>  <SMILES>  (71) 
O=C(Nc1ccccc1C(=O)N1CCCC1)c1ccc(S(=O)(=O)[N-]c2ccccc2[O-])cc1

>  <Energy>  (71) 
77.66087846026859

>  <Genealogy>  (71) 
O=C(Nc1ccccc1C(=O)N1CCCC1)c1ccc(S(=O)(=O)[N-]c2ccccc2[O-])cc1 (protonated)
O=C(Nc1ccccc1C(=O)N1CCCC1)c1ccc(S(=O)(=O)[N-]c2ccccc2[O-])cc1 (3D coordinates assigned)
O=C(Nc1ccccc1C(=O)N1CCCC1)c1ccc(S(=O)(=O)[N-]c2ccccc2[O-])cc1 (nonaromatic ring conformer: 77.66087846026859 kcal/mol)

>  <smiles>  (71) 
O=C(Nc1ccccc1C(=O)N1CCCC1)c1ccc(S(=O)(=O)Nc2ccccc2O)cc1

>  <score_type>  (71) 
oracle

>  <origin>  (71) 
adg

>  <m_score__min__energy>  (71) 
-16.199999999999999

>  <m_primary>  (71) 
energy

$$$$
71:0
     RDKit          3D

 41 42  0  0  0  0  0  0  0  0999 V2000
   62.3400   33.5870   46.7980 C   0  0  0  0  0  0  0  0  0  0  0  0
   60.9840   34.2190   47.1050 C   0  0  0  0  0  0  0  0  0  0  0  0
   60.0360   34.1960   45.8950 C   0  0  0  0  0  0  0  0  0  0  0  0
   58.9390   33.2300   46.0780 N   0  0  0  0  0  0  0  0  0  0  0  0
   57.7880   33.2230   45.2060 C   0  0  0  0  0  0  0  0  0  0  0  0
   56.9990   34.2080   45.2140 O   0  0  0  0  0  0  0  0  0  0  0  0
   57.4350   32.0350   44.3620 C   0  0  0  0  0  0  0  0  0  0  0  0
   56.9850   30.9910   45.2110 O   0  0  0  0  0  0  0  0  0  0  0  0
   56.3960   29.8190   44.7300 C   0  0  0  0  0  0  0  0  0  0  0  0
   55.1470   29.6570   44.7880 O   0  0  0  0  0  0  0  0  0  0  0  0
   57.2640   28.7260   44.1870 C   0  0  0  0  0  0  0  0  0  0  0  0
   57.7020   27.8370   45.2720 N   0  0  0  0  0  0  0  0  0  0  0  0
   56.8440   27.0620   45.9990 C   0  0  0  0  0  0  0  0  0  0  0  0
   55.4670   27.0910   45.8100 O   0  0  0  0  0  0  0  0  0  0  0  0
   57.4420   26.2310   46.9400 C   0  0  0  0  0  0  0  0  0  0  0  0
   59.1060   26.4630   46.8460 S   0  0  0  0  0  0  0  0  0  0  0  0
   58.9950   27.6090   45.6240 C   0  0  0  0  0  0  0  0  0  0  0  0
   60.3010   28.3360   44.9490 S   0  0  0  0  0  0  0  0  0  0  0  0
   59.0100   32.2540   47.1360 C   0  0  0  0  0  0  0  0  0  0  0  0
   59.5750   30.9930   46.8870 C   0  0  0  0  0  0  0  0  0  0  0  0
   59.6630   30.0440   47.9110 C   0  0  0  0  0  0  0  0  0  0  0  0
   59.1760   30.3420   49.1870 C   0  0  0  0  0  0  0  0  0  0  0  0
   58.6000   31.5900   49.4390 C   0  0  0  0  0  0  0  0  0  0  0  0
   58.5180   32.5450   48.4200 C   0  0  0  0  0  0  0  0  0  0  0  0
   62.8545   33.3472   47.7402 H   0  0  0  0  0  0  0  0  0  0  0  0
   62.1917   32.6652   46.2163 H   0  0  0  0  0  0  0  0  0  0  0  0
   62.9505   34.2934   46.2163 H   0  0  0  0  0  0  0  0  0  0  0  0
   60.5151   33.6641   47.9310 H   0  0  0  0  0  0  0  0  0  0  0  0
   61.1588   35.2716   47.3725 H   0  0  0  0  0  0  0  0  0  0  0  0
   59.6075   35.2000   45.7593 H   0  0  0  0  0  0  0  0  0  0  0  0
   60.6163   33.8912   45.0116 H   0  0  0  0  0  0  0  0  0  0  0  0
   56.6372   32.3071   43.6552 H   0  0  0  0  0  0  0  0  0  0  0  0
   58.3171   31.7028   43.7950 H   0  0  0  0  0  0  0  0  0  0  0  0
   56.6944   28.1434   43.4480 H   0  0  0  0  0  0  0  0  0  0  0  0
   58.1491   29.1742   43.7119 H   0  0  0  0  0  0  0  0  0  0  0  0
   56.9206   25.5448   47.6235 H   0  0  0  0  0  0  0  0  0  0  0  0
   59.9503   30.7501   45.8819 H   0  0  0  0  0  0  0  0  0  0  0  0
   60.1162   29.0617   47.7118 H   0  0  0  0  0  0  0  0  0  0  0  0
   59.2461   29.5952   49.9916 H   0  0  0  0  0  0  0  0  0  0  0  0
   58.2101   31.8220   50.4411 H   0  0  0  0  0  0  0  0  0  0  0  0
   58.0668   33.5272   48.6244 H   0  0  0  0  0  0  0  0  0  0  0  0
  1  2  1  0
  2  3  1  0
  3  4  1  0
  4  5  1  0
  5  6  2  0
  5  7  1  0
  7  8  1  0
  8  9  1  0
  9 10  2  0
  9 11  1  0
 11 12  1  0
 12 13  1  0
 13 14  1  0
 13 15  2  0
 15 16  1  0
 16 17  1  0
 17 18  2  0
  4 19  1  0
 19 20  2  0
 20 21  1  0
 21 22  2  0
 22 23  1  0
 23 24  2  0
 17 12  1  0
 24 19  1  0
  1 25  1  0
  1 26  1  0
  1 27  1  0
  2 28  1  0
  2 29  1  0
  3 30  1  0
  3 31  1  0
  7 32  1  0
  7 33  1  0
 11 34  1  0
 11 35  1  0
 15 36  1  0
 20 37  1  0
 21 38  1  0
 22 39  1  0
 23 40  1  0
 24 41  1  0
M  CHG  1  14  -1
M  END
>  <UniqueID>  (72) 
68

>  <SMILES>  (72) 
CCCN(C(=O)COC(=O)Cn1c([O-])csc1=S)c1ccccc1

>  <Energy>  (72) 
67.57215339789707

>  <Genealogy>  (72) 
CCCN(C(=O)COC(=O)Cn1c([O-])csc1=S)c1ccccc1 (protonated)
CCCN(C(=O)COC(=O)Cn1c([O-])csc1=S)c1ccccc1 (3D coordinates assigned)
CCCN(C(=O)COC(=O)Cn1c([O-])csc1=S)c1ccccc1 (optimized conformer: 67.57215339789707 kcal/mol)

>  <smiles>  (72) 
CCCN(C(=O)COC(=O)Cn1c(O)csc1=S)c1ccccc1

>  <score_type>  (72) 
oracle

>  <origin>  (72) 
adg

>  <m_score__min__energy>  (72) 
-11.26

>  <m_primary>  (72) 
energy

$$$$
72:0
     RDKit          3D

 52 55  0  0  0  0  0  0  0  0999 V2000
   57.3760   28.3440   43.0190 C   0  0  0  0  0  0  0  0  0  0  0  0
   57.4710   29.5060   43.6890 C   0  0  0  0  0  0  0  0  0  0  0  0
   57.1550   30.6840   42.9830 C   0  0  0  0  0  0  0  0  0  0  0  0
   57.4650   31.9370   43.5040 C   0  0  0  0  0  0  0  0  0  0  0  0
   58.1300   32.0460   44.7280 C   0  0  0  0  0  0  0  0  0  0  0  0
   58.4560   33.3690   45.2950 C   0  0  0  0  0  0  0  0  0  0  0  0
   58.6180   33.6240   46.6080 C   0  0  0  0  0  0  0  0  0  0  0  0
   57.7120   33.0850   47.6880 C   0  0  0  0  0  0  0  0  0  0  0  0
   58.5370   32.5060   48.8540 C   0  0  0  0  0  0  0  0  0  0  0  0
   59.8070   33.2350   49.1390 N   0  0  0  0  0  0  0  0  0  0  0  0
   61.0040   32.4480   48.7710 C   0  0  0  0  0  0  0  0  0  0  0  0
   60.7380   30.9780   48.9520 C   0  0  0  0  0  0  0  0  0  0  0  0
   60.4680   30.4500   50.2260 C   0  0  0  0  0  0  0  0  0  0  0  0
   60.2340   29.0800   50.3850 C   0  0  0  0  0  0  0  0  0  0  0  0
   60.2700   28.2300   49.2770 C   0  0  0  0  0  0  0  0  0  0  0  0
   60.5390   28.7480   48.0060 C   0  0  0  0  0  0  0  0  0  0  0  0
   60.5750   27.9220   46.9310 F   0  0  0  0  0  0  0  0  0  0  0  0
   60.7720   30.1170   47.8430 C   0  0  0  0  0  0  0  0  0  0  0  0
   59.8440   34.5990   48.5650 C   0  0  0  0  0  0  0  0  0  0  0  0
   59.7020   34.5780   47.0350 C   0  0  0  0  0  0  0  0  0  0  0  0
   58.3720   30.8950   45.4850 C   0  0  0  0  0  0  0  0  0  0  0  0
   57.9900   29.6150   45.0220 C   0  0  0  0  0  0  0  0  0  0  0  0
   58.1270   28.5850   45.8970 C   0  0  0  0  0  0  0  0  0  0  0  0
   57.1490   27.5090   46.1380 C   0  0  0  0  0  0  0  0  0  0  0  0
   55.9200   27.4890   45.5910 N   0  0  0  0  0  0  0  0  0  0  0  0
   55.4210   26.2970   45.9850 C   0  0  0  0  0  0  0  0  0  0  0  0
   54.2630   25.9120   45.6770 O   0  0  0  0  0  0  0  0  0  0  0  0
   56.2640   25.5450   46.7250 N   0  0  0  0  0  0  0  0  0  0  0  0
   57.3590   26.3200   46.8010 C   0  0  0  0  0  0  0  0  0  0  0  0
   58.5350   25.9360   47.4380 O   0  0  0  0  0  0  0  0  0  0  0  0
   57.6119   27.3963   43.5253 H   0  0  0  0  0  0  0  0  0  0  0  0
   57.0624   28.3411   41.9646 H   0  0  0  0  0  0  0  0  0  0  0  0
   56.6558   30.6122   42.0054 H   0  0  0  0  0  0  0  0  0  0  0  0
   57.1853   32.8451   42.9498 H   0  0  0  0  0  0  0  0  0  0  0  0
   58.5755   34.2084   44.5942 H   0  0  0  0  0  0  0  0  0  0  0  0
   57.0761   33.8994   48.0653 H   0  0  0  0  0  0  0  0  0  0  0  0
   57.0923   32.2826   47.2612 H   0  0  0  0  0  0  0  0  0  0  0  0
   57.9150   32.5331   49.7609 H   0  0  0  0  0  0  0  0  0  0  0  0
   58.8231   31.4862   48.5570 H   0  0  0  0  0  0  0  0  0  0  0  0
   61.2579   32.6440   47.7188 H   0  0  0  0  0  0  0  0  0  0  0  0
   61.8404   32.7432   49.4216 H   0  0  0  0  0  0  0  0  0  0  0  0
   60.4406   31.1161   51.1010 H   0  0  0  0  0  0  0  0  0  0  0  0
   60.0213   28.6715   51.3839 H   0  0  0  0  0  0  0  0  0  0  0  0
   60.0867   27.1529   49.4042 H   0  0  0  0  0  0  0  0  0  0  0  0
   60.9828   30.5213   46.8420 H   0  0  0  0  0  0  0  0  0  0  0  0
   59.0180   35.1873   48.9913 H   0  0  0  0  0  0  0  0  0  0  0  0
   60.8174   35.0478   48.8120 H   0  0  0  0  0  0  0  0  0  0  0  0
   59.4507   35.5894   46.6829 H   0  0  0  0  0  0  0  0  0  0  0  0
   60.6550   34.2445   46.5986 H   0  0  0  0  0  0  0  0  0  0  0  0
   58.8701   30.9877   46.4614 H   0  0  0  0  0  0  0  0  0  0  0  0
   59.0578   28.5507   46.4822 H   0  0  0  0  0  0  0  0  0  0  0  0
   59.4190   26.3650   47.1910 H   0  0  0  0  0  0  0  0  0  0  0  0
  1  2  2  0
  2  3  1  0
  3  4  2  0
  4  5  1  0
  5  6  1  0
  6  7  2  3
  7  8  1  0
  8  9  1  0
  9 10  1  0
 10 11  1  0
 11 12  1  0
 12 13  2  0
 13 14  1  0
 14 15  2  0
 15 16  1  0
 16 17  1  0
 16 18  2  0
 10 19  1  0
 19 20  1  0
  5 21  2  0
 21 22  1  0
 22 23  2  3
 23 24  1  0
 24 25  1  0
 25 26  1  0
 26 27  2  0
 26 28  1  0
 28 29  1  0
 29 30  1  0
 22  2  1  0
 29 24  2  0
 20  7  1  0
 18 12  1  0
  1 31  1  0
  1 32  1  0
  3 33  1  0
  4 34  1  0
  6 35  1  0
  8 36  1  0
  8 37  1  0
  9 38  1  0
  9 39  1  0
 11 40  1  0
 11 41  1  0
 13 42  1  0
 14 43  1  0
 15 44  1  0
 18 45  1  0
 19 46  1  0
 19 47  1  0
 20 48  1  0
 20 49  1  0
 21 50  1  0
 23 51  1  0
 30 52  1  0
M  CHG  2  25  -1  28  -1
M  END
>  <UniqueID>  (73) 
69

>  <SMILES>  (73) 
C=c1ccc(C=C2CCN(Cc3cccc(F)c3)CC2)cc1=Cc1[n-]c(=O)[n-]c1O

>  <Energy>  (73) 
119.86775503186867

>  <Genealogy>  (73) 
C=c1ccc(C=C2CCN(Cc3cccc(F)c3)CC2)cc1=Cc1[n-]c(=O)[n-]c1O (protonated)
C=c1ccc(C=C2CCN(Cc3cccc(F)c3)CC2)cc1=Cc1[n-]c(=O)[n-]c1O (3D coordinates assigned)
C=c1ccc(C=C2CCN(Cc3cccc(F)c3)CC2)cc1=Cc1[n-]c(=O)[n-]c1O (nonaromatic ring conformer: 119.86775503186867 kcal/mol)

>  <smiles>  (73) 
C=c1ccc(C=C2CCN(Cc3cccc(F)c3)CC2)cc1=Cc1[nH]c(=O)[nH]c1O

>  <score_type>  (73) 
oracle

>  <origin>  (73) 
adg

>  <m_score__min__energy>  (73) 
-14.44

>  <m_primary>  (73) 
energy

$$$$
73:0
     RDKit          3D

 39 41  0  0  0  0  0  0  0  0999 V2000
   59.0753   30.4207   49.2184 H   0  0  0  0  0  0  0  0  0  0  0  0
   58.9390   29.7620   48.3480 C   0  0  0  0  0  0  0  0  0  0  0  0
   59.0584   28.6740   48.4575 H   0  0  0  0  0  0  0  0  0  0  0  0
   58.6270   30.2860   47.1520 C   0  0  0  0  0  0  0  0  0  0  0  0
   58.4250   29.5730   45.9650 C   0  0  0  0  0  0  0  0  0  0  0  0
   58.5310   28.2430   45.7830 C   0  0  0  0  0  0  0  0  0  0  0  0
   59.5115   27.8382   45.4920 H   0  0  0  0  0  0  0  0  0  0  0  0
   57.4130   27.2960   45.9500 C   0  0  0  0  0  0  0  0  0  0  0  0
   57.5360   26.1140   46.5800 N   0  0  0  0  0  0  0  0  0  0  0  0
   56.2780   25.6250   46.5780 C   0  0  0  0  0  0  0  0  0  0  0  0
   55.9850   24.5070   47.0760 O   0  0  0  0  0  0  0  0  0  0  0  0
   55.3570   26.4310   46.0100 N   0  0  0  0  0  0  0  0  0  0  0  0
   56.0880   27.4910   45.6280 C   0  0  0  0  0  0  0  0  0  0  0  0
   55.5440   28.6280   45.0440 O   0  0  0  0  0  0  0  0  0  0  0  0
   58.1550   30.5170   44.9840 C   0  0  0  0  0  0  0  0  0  0  0  0
   57.9492   30.3199   43.9216 H   0  0  0  0  0  0  0  0  0  0  0  0
   58.1950   31.7520   45.6010 C   0  0  0  0  0  0  0  0  0  0  0  0
   57.9750   33.0570   44.8990 C   0  0  0  0  0  0  0  0  0  0  0  0
   57.8404   33.8556   45.6434 H   0  0  0  0  0  0  0  0  0  0  0  0
   58.8472   33.2861   44.2691 H   0  0  0  0  0  0  0  0  0  0  0  0
   57.0759   32.9875   44.2691 H   0  0  0  0  0  0  0  0  0  0  0  0
   58.4630   31.6160   46.9210 N   0  0  0  0  0  0  0  0  0  0  0  0
   58.6250   32.7180   47.8800 C   0  0  0  0  0  0  0  0  0  0  0  0
   57.6494   33.1963   48.0514 H   0  0  0  0  0  0  0  0  0  0  0  0
   59.0182   32.3152   48.8250 H   0  0  0  0  0  0  0  0  0  0  0  0
   59.6080   33.7570   47.3340 C   0  0  0  0  0  0  0  0  0  0  0  0
   59.3315   34.0075   46.2992 H   0  0  0  0  0  0  0  0  0  0  0  0
   59.5632   34.6550   47.9678 H   0  0  0  0  0  0  0  0  0  0  0  0
   61.0120   33.2190   47.3540 C   0  0  0  0  0  0  0  0  0  0  0  0
   61.3300   32.0960   48.1300 C   0  0  0  0  0  0  0  0  0  0  0  0
   60.5480   31.5837   48.7097 H   0  0  0  0  0  0  0  0  0  0  0  0
   62.6470   31.6320   48.1620 C   0  0  0  0  0  0  0  0  0  0  0  0
   62.9016   30.7465   48.7628 H   0  0  0  0  0  0  0  0  0  0  0  0
   63.6170   32.2720   47.4520 N   0  0  0  0  0  0  0  0  0  0  0  0
   64.5960   31.9130   47.4860 H   0  0  0  0  0  0  0  0  0  0  0  0
   63.3360   33.3730   46.7020 C   0  0  0  0  0  0  0  0  0  0  0  0
   64.1385   33.8734   46.1402 H   0  0  0  0  0  0  0  0  0  0  0  0
   62.0310   33.8690   46.6440 C   0  0  0  0  0  0  0  0  0  0  0  0
   61.8048   34.7636   46.0452 H   0  0  0  0  0  0  0  0  0  0  0  0
  1  2  1  0
  2  3  1  0
  2  4  2  0
  4  5  1  0
  5  6  2  0
  6  7  1  0
  6  8  1  0
  8  9  1  0
  9 10  1  0
 10 11  2  0
 10 12  1  0
 12 13  1  0
 13 14  1  0
  5 15  1  0
 15 16  1  0
 15 17  2  0
 17 18  1  0
 18 19  1  0
 18 20  1  0
 18 21  1  0
 17 22  1  0
 22 23  1  0
 23 24  1  0
 23 25  1  0
 23 26  1  0
 26 27  1  0
 26 28  1  0
 26 29  1  0
 29 30  2  0
 30 31  1  0
 30 32  1  0
 32 33  1  0
 32 34  2  0
 34 35  1  0
 34 36  1  0
 36 37  1  0
 36 38  2  0
 38 39  1  0
 22  4  1  0
 38 29  1  0
 13  8  2  0
M  CHG  4   9  -1  12  -1  14  -1  34   1
M  END
>  <UniqueID>  (74) 
70

>  <SMILES>  (74) 
C=c1/c(=C/c2[n-]c(=O)[n-]c2[O-])cc(C)n1CCc1cc[nH+]cc1

>  <Energy>  (74) 
102.34828610906203

>  <Genealogy>  (74) 
C=c1c(=Cc2[n-]c(=O)[n-]c2[O-])cc(C)n1CCc1cc[nH+]cc1 (protonated)
C=c1/c(=C/c2[n-]c(=O)[n-]c2[O-])cc(C)n1CCc1cc[nH+]cc1 (cis-trans isomerization)
C=c1/c(=C/c2[n-]c(=O)[n-]c2[O-])cc(C)n1CCc1cc[nH+]cc1 (3D coordinates assigned)
C=c1/c(=C/c2[n-]c(=O)[n-]c2[O-])cc(C)n1CCc1cc[nH+]cc1 (optimized conformer: 102.34828610906203 kcal/mol)

>  <smiles>  (74) 
C=c1c(=Cc2[nH]c(=O)[nH]c2O)cc(C)n1CCc1ccncc1

>  <score_type>  (74) 
oracle

>  <origin>  (74) 
adg

>  <m_score__min__energy>  (74) 
-14.210000000000001

>  <m_primary>  (74) 
energy

$$$$
74:0
     RDKit          3D

 57 60  0  0  0  0  0  0  0  0999 V2000
   57.8040   33.5580   47.3340 O   0  0  0  0  0  0  0  0  0  0  0  0
   58.9240   33.8800   47.8160 C   0  0  0  0  0  0  0  0  0  0  0  0
   59.2770   33.4710   49.2130 C   0  0  0  0  0  0  0  0  0  0  0  0
   59.2640   31.9760   49.3650 C   0  0  0  0  0  0  0  0  0  0  0  0
   59.5660   31.0810   48.3570 C   0  0  0  0  0  0  0  0  0  0  0  0
   59.3590   29.8230   48.8930 C   0  0  0  0  0  0  0  0  0  0  0  0
   59.5640   28.5270   48.2210 C   0  0  0  0  0  0  0  0  0  0  0  0
   60.0720   27.5760   48.8750 O   0  0  0  0  0  0  0  0  0  0  0  0
   59.1710   28.3210   46.8520 N   0  0  0  0  0  0  0  0  0  0  0  0
   57.8380   28.7710   46.4100 C   0  0  0  0  0  0  0  0  0  0  0  0
   57.3680   28.0000   45.1710 C   0  0  0  0  0  0  0  0  0  0  0  0
   57.6990   26.5750   45.3170 N   0  0  0  0  0  0  0  0  0  0  0  0
   56.6430   25.6000   45.4040 C   0  0  0  0  0  0  0  0  0  0  0  0
   55.5880   25.8840   46.0340 O   0  0  0  0  0  0  0  0  0  0  0  0
   56.7740   24.2660   44.7770 C   0  0  0  0  0  0  0  0  0  0  0  0
   57.4640   23.2350   45.4410 C   0  0  0  0  0  0  0  0  0  0  0  0
   57.5530   21.9620   44.8670 C   0  0  0  0  0  0  0  0  0  0  0  0
   56.9610   21.7070   43.6280 C   0  0  0  0  0  0  0  0  0  0  0  0
   56.2680   22.7230   42.9630 C   0  0  0  0  0  0  0  0  0  0  0  0
   56.1700   23.9950   43.5360 C   0  0  0  0  0  0  0  0  0  0  0  0
   59.0780   26.1800   45.6590 C   0  0  0  0  0  0  0  0  0  0  0  0
   59.9370   27.4020   46.0000 C   0  0  0  0  0  0  0  0  0  0  0  0
   58.9440   30.0040   50.1980 C   0  0  0  0  0  0  0  0  0  0  0  0
   58.8690   31.3170   50.4730 N   0  0  0  0  0  0  0  0  0  0  0  0
   59.8840   34.5840   47.0220 N   0  0  0  0  0  0  0  0  0  0  0  0
   61.0130   33.9400   46.3610 C   0  0  0  0  0  0  0  0  0  0  0  0
   62.0080   33.4700   47.3850 C   0  0  0  0  0  0  0  0  0  0  0  0
   62.2690   34.2350   48.5340 C   0  0  0  0  0  0  0  0  0  0  0  0
   63.2480   33.8250   49.4460 C   0  0  0  0  0  0  0  0  0  0  0  0
   63.9760   32.6530   49.2150 C   0  0  0  0  0  0  0  0  0  0  0  0
   65.2110   32.1460   50.3540 Cl  0  0  0  0  0  0  0  0  0  0  0  0
   63.7160   31.8840   48.0750 C   0  0  0  0  0  0  0  0  0  0  0  0
   62.7380   32.2900   47.1620 C   0  0  0  0  0  0  0  0  0  0  0  0
   60.2827   33.8467   49.4529 H   0  0  0  0  0  0  0  0  0  0  0  0
   58.5287   33.8958   49.8983 H   0  0  0  0  0  0  0  0  0  0  0  0
   59.9022   31.3199   47.3372 H   0  0  0  0  0  0  0  0  0  0  0  0
   57.1177   28.6104   47.2257 H   0  0  0  0  0  0  0  0  0  0  0  0
   57.9023   29.8377   46.1494 H   0  0  0  0  0  0  0  0  0  0  0  0
   56.2793   28.1128   45.0617 H   0  0  0  0  0  0  0  0  0  0  0  0
   57.8731   28.4011   44.2799 H   0  0  0  0  0  0  0  0  0  0  0  0
   57.9354   23.4306   46.4154 H   0  0  0  0  0  0  0  0  0  0  0  0
   58.0909   21.1596   45.3932 H   0  0  0  0  0  0  0  0  0  0  0  0
   57.0399   20.7074   43.1756 H   0  0  0  0  0  0  0  0  0  0  0  0
   55.7995   22.5217   41.9883 H   0  0  0  0  0  0  0  0  0  0  0  0
   55.6169   24.7888   43.0127 H   0  0  0  0  0  0  0  0  0  0  0  0
   59.0529   25.5056   46.5277 H   0  0  0  0  0  0  0  0  0  0  0  0
   59.5214   25.6751   44.7881 H   0  0  0  0  0  0  0  0  0  0  0  0
   60.8417   27.0759   46.5341 H   0  0  0  0  0  0  0  0  0  0  0  0
   60.2231   27.9178   45.0715 H   0  0  0  0  0  0  0  0  0  0  0  0
   58.7101   29.1949   50.9056 H   0  0  0  0  0  0  0  0  0  0  0  0
   58.5580   31.7350   51.3780 H   0  0  0  0  0  0  0  0  0  0  0  0
   60.6522   33.0778   45.7810 H   0  0  0  0  0  0  0  0  0  0  0  0
   61.4994   34.6634   45.6901 H   0  0  0  0  0  0  0  0  0  0  0  0
   61.7018   35.1595   48.7174 H   0  0  0  0  0  0  0  0  0  0  0  0
   63.4455   34.4255   50.3463 H   0  0  0  0  0  0  0  0  0  0  0  0
   64.2824   30.9580   47.8968 H   0  0  0  0  0  0  0  0  0  0  0  0
   62.5392   31.6837   46.2660 H   0  0  0  0  0  0  0  0  0  0  0  0
  1  2  2  0
  2  3  1  0
  3  4  1  0
  4  5  2  0
  5  6  1  0
  6  7  1  0
  7  8  2  0
  7  9  1  0
  9 10  1  0
 10 11  1  0
 11 12  1  0
 12 13  1  0
 13 14  2  0
 13 15  1  0
 15 16  2  0
 16 17  1  0
 17 18  2  0
 18 19  1  0
 19 20  2  0
 12 21  1  0
 21 22  1  0
  6 23  2  0
 23 24  1  0
  2 25  1  0
 25 26  1  0
 26 27  1  0
 27 28  2  0
 28 29  1  0
 29 30  2  0
 30 31  1  0
 30 32  1  0
 32 33  2  0
 24  4  1  0
 33 27  1  0
 22  9  1  0
 20 15  1  0
  3 34  1  0
  3 35  1  0
  5 36  1  0
 10 37  1  0
 10 38  1  0
 11 39  1  0
 11 40  1  0
 16 41  1  0
 17 42  1  0
 18 43  1  0
 19 44  1  0
 20 45  1  0
 21 46  1  0
 21 47  1  0
 22 48  1  0
 22 49  1  0
 23 50  1  0
 24 51  1  0
 26 52  1  0
 26 53  1  0
 28 54  1  0
 29 55  1  0
 32 56  1  0
 33 57  1  0
M  CHG  1  25  -1
M  END
>  <UniqueID>  (75) 
71

>  <SMILES>  (75) 
O=C(Cc1cc(C(=O)N2CCN(C(=O)c3ccccc3)CC2)c[nH]1)[N-]Cc1ccc(Cl)cc1

>  <Energy>  (75) 
91.3161322146227

>  <Genealogy>  (75) 
O=C(Cc1cc(C(=O)N2CCN(C(=O)c3ccccc3)CC2)c[nH]1)[N-]Cc1ccc(Cl)cc1 (protonated)
O=C(Cc1cc(C(=O)N2CCN(C(=O)c3ccccc3)CC2)c[nH]1)[N-]Cc1ccc(Cl)cc1 (3D coordinates assigned)
O=C(Cc1cc(C(=O)N2CCN(C(=O)c3ccccc3)CC2)c[nH]1)[N-]Cc1ccc(Cl)cc1 (nonaromatic ring conformer: 91.3161322146227 kcal/mol)

>  <smiles>  (75) 
O=C(Cc1cc(C(=O)N2CCN(C(=O)c3ccccc3)CC2)c[nH]1)NCc1ccc(Cl)cc1

>  <score_type>  (75) 
oracle

>  <origin>  (75) 
adg

>  <m_score__min__energy>  (75) 
-10.220000000000001

>  <m_primary>  (75) 
energy

$$$$
75:0
     RDKit          3D

 46 48  0  0  0  0  0  0  0  0999 V2000
   56.5570   32.4580   52.3630 O   0  0  0  0  0  0  0  0  0  0  0  0
   56.9180   31.3920   51.7960 C   0  0  0  0  0  0  0  0  0  0  0  0
   55.9410   30.3530   51.6210 N   0  0  0  0  0  0  0  0  0  0  0  0
   54.5600   30.3910   52.0080 C   0  0  0  0  0  0  0  0  0  0  0  0
   54.1100   29.5070   52.9950 C   0  0  0  0  0  0  0  0  0  0  0  0
   52.7810   29.5430   53.4200 C   0  0  0  0  0  0  0  0  0  0  0  0
   51.8860   30.4530   52.8530 C   0  0  0  0  0  0  0  0  0  0  0  0
   52.3080   31.3240   51.8330 C   0  0  0  0  0  0  0  0  0  0  0  0
   51.3670   32.2930   51.2300 C   0  0  0  0  0  0  0  0  0  0  0  0
   51.1990   32.3290   49.9810 O   0  0  0  0  0  0  0  0  0  0  0  0
   50.6510   33.1730   52.0320 O   0  0  0  0  0  0  0  0  0  0  0  0
   53.6450   31.2700   51.3990 C   0  0  0  0  0  0  0  0  0  0  0  0
   58.3040   31.2750   51.2740 C   0  0  0  0  0  0  0  0  0  0  0  0
   58.6300   30.1720   50.2830 C   0  0  0  0  0  0  0  0  0  0  0  0
   59.0370   30.7140   48.9320 C   0  0  0  0  0  0  0  0  0  0  0  0
   59.9080   29.9930   48.0930 C   0  0  0  0  0  0  0  0  0  0  0  0
   60.2450   30.4870   46.8300 C   0  0  0  0  0  0  0  0  0  0  0  0
   59.7030   31.6950   46.3820 C   0  0  0  0  0  0  0  0  0  0  0  0
   58.8170   32.4050   47.1950 C   0  0  0  0  0  0  0  0  0  0  0  0
   58.4770   31.9140   48.4590 C   0  0  0  0  0  0  0  0  0  0  0  0
   59.1940   32.1300   51.6990 N   0  0  0  0  0  0  0  0  0  0  0  0
   59.7020   33.3280   51.0880 C   0  0  0  0  0  0  0  0  0  0  0  0
   59.1980   34.4530   51.3460 O   0  0  0  0  0  0  0  0  0  0  0  0
   60.8710   33.2470   50.1800 C   0  0  0  0  0  0  0  0  0  0  0  0
   61.9180   32.3550   50.4790 C   0  0  0  0  0  0  0  0  0  0  0  0
   63.0070   32.2180   49.6150 C   0  0  0  0  0  0  0  0  0  0  0  0
   63.0680   32.9720   48.4430 C   0  0  0  0  0  0  0  0  0  0  0  0
   62.0460   33.8720   48.1370 C   0  0  0  0  0  0  0  0  0  0  0  0
   60.9510   34.0230   49.0010 C   0  0  0  0  0  0  0  0  0  0  0  0
   59.9620   34.9560   48.6940 O   0  0  0  0  0  0  0  0  0  0  0  0
   54.8069   28.7803   53.4380 H   0  0  0  0  0  0  0  0  0  0  0  0
   52.4374   28.8523   54.2041 H   0  0  0  0  0  0  0  0  0  0  0  0
   50.8449   30.4885   53.2064 H   0  0  0  0  0  0  0  0  0  0  0  0
   53.9781   31.9203   50.5767 H   0  0  0  0  0  0  0  0  0  0  0  0
   59.4570   29.5685   50.6854 H   0  0  0  0  0  0  0  0  0  0  0  0
   57.7217   29.5677   50.1425 H   0  0  0  0  0  0  0  0  0  0  0  0
   60.3260   29.0344   48.4340 H   0  0  0  0  0  0  0  0  0  0  0  0
   60.9380   29.9242   46.1873 H   0  0  0  0  0  0  0  0  0  0  0  0
   59.9741   32.0859   45.3902 H   0  0  0  0  0  0  0  0  0  0  0  0
   58.3857   33.3526   46.8401 H   0  0  0  0  0  0  0  0  0  0  0  0
   57.7664   32.4703   49.0880 H   0  0  0  0  0  0  0  0  0  0  0  0
   61.8782   31.7594   51.4030 H   0  0  0  0  0  0  0  0  0  0  0  0
   63.8171   31.5150   49.8590 H   0  0  0  0  0  0  0  0  0  0  0  0
   63.9222   32.8572   47.7595 H   0  0  0  0  0  0  0  0  0  0  0  0
   62.0994   34.4664   47.2130 H   0  0  0  0  0  0  0  0  0  0  0  0
   59.4300   35.4260   49.4180 H   0  0  0  0  0  0  0  0  0  0  0  0
  1  2  2  0
  2  3  1  0
  3  4  1  0
  4  5  2  0
  5  6  1  0
  6  7  2  0
  7  8  1  0
  8  9  1  0
  9 10  2  0
  9 11  1  0
  8 12  2  0
  2 13  1  0
 13 14  1  0
 14 15  1  0
 15 16  2  0
 16 17  1  0
 17 18  2  0
 18 19  1  0
 19 20  2  0
 13 21  2  3
 21 22  1  0
 22 23  2  0
 22 24  1  0
 24 25  2  0
 25 26  1  0
 26 27  2  0
 27 28  1  0
 28 29  2  0
 29 30  1  0
 12  4  1  0
 20 15  1  0
 29 24  1  0
  5 31  1  0
  6 32  1  0
  7 33  1  0
 12 34  1  0
 14 35  1  0
 14 36  1  0
 16 37  1  0
 17 38  1  0
 18 39  1  0
 19 40  1  0
 20 41  1  0
 25 42  1  0
 26 43  1  0
 27 44  1  0
 28 45  1  0
 30 46  1  0
M  CHG  2   3  -1  11  -1
M  END
>  <UniqueID>  (76) 
72

>  <SMILES>  (76) 
O=C([N-]c1cccc(C(=O)[O-])c1)C(Cc1ccccc1)=NC(=O)c1ccccc1O

>  <Energy>  (76) 
59.511145643679534

>  <Genealogy>  (76) 
O=C([N-]c1cccc(C(=O)[O-])c1)C(Cc1ccccc1)=NC(=O)c1ccccc1O (protonated)
O=C([N-]c1cccc(C(=O)[O-])c1)C(Cc1ccccc1)=NC(=O)c1ccccc1O (3D coordinates assigned)
O=C([N-]c1cccc(C(=O)[O-])c1)C(Cc1ccccc1)=NC(=O)c1ccccc1O (optimized conformer: 59.511145643679534 kcal/mol)

>  <smiles>  (76) 
O=C(Nc1cccc(C(=O)O)c1)C(Cc1ccccc1)=NC(=O)c1ccccc1O

>  <score_type>  (76) 
oracle

>  <origin>  (76) 
adg

>  <m_score__min__energy>  (76) 
-12.75

>  <m_primary>  (76) 
energy

$$$$
76:0
     RDKit          3D

 80 85  0  0  0  0  0  0  0  0999 V2000
   55.6778   25.3868   46.2977 H   0  0  0  0  0  0  0  0  0  0  0  0
   56.2890   26.3010   46.3240 C   0  0  0  0  0  0  0  0  0  0  0  0
   55.9020   27.3960   45.6220 N   0  0  0  0  0  0  0  0  0  0  0  0
   56.6240   28.5520   45.6060 C   0  0  0  0  0  0  0  0  0  0  0  0
   56.1770   29.5370   44.8770 N   0  0  0  0  0  0  0  0  0  0  0  0
   56.8310   30.7100   44.3510 C   0  0  0  0  0  0  0  0  0  0  0  0
   56.6250   31.1030   43.1710 O   0  0  0  0  0  0  0  0  0  0  0  0
   57.7950   31.4470   45.2000 C   0  0  0  0  0  0  0  0  0  0  0  0
   57.3920   32.5970   45.8990 C   0  0  0  0  0  0  0  0  0  0  0  0
   56.3588   32.9611   45.7995 H   0  0  0  0  0  0  0  0  0  0  0  0
   58.2920   33.2830   46.7200 C   0  0  0  0  0  0  0  0  0  0  0  0
   57.9600   34.1819   47.2602 H   0  0  0  0  0  0  0  0  0  0  0  0
   59.6180   32.8350   46.8620 C   0  0  0  0  0  0  0  0  0  0  0  0
   60.5770   33.5440   47.7430 C   0  0  0  0  0  0  0  0  0  0  0  0
   60.3500   34.7430   48.0640 O   0  0  0  0  0  0  0  0  0  0  0  0
   61.7740   32.9000   48.2090 N   0  0  0  0  0  0  0  0  0  0  0  0
   61.9740   31.9220   47.8970 H   0  0  0  0  0  0  0  0  0  0  0  0
   62.7530   33.5700   49.0740 C   0  0  0  0  0  0  0  0  0  0  0  0
   62.6896   34.6549   48.9041 H   0  0  0  0  0  0  0  0  0  0  0  0
   64.1860   33.1130   48.7280 C   0  0  0  0  0  0  0  0  0  0  0  0
   64.1388   32.0939   48.3167 H   0  0  0  0  0  0  0  0  0  0  0  0
   64.5932   33.8316   48.0015 H   0  0  0  0  0  0  0  0  0  0  0  0
   65.1260   33.1070   49.9430 C   0  0  0  0  0  0  0  0  0  0  0  0
   65.0291   32.1468   50.4708 H   0  0  0  0  0  0  0  0  0  0  0  0
   66.1598   33.2453   49.5934 H   0  0  0  0  0  0  0  0  0  0  0  0
   64.7830   34.2090   50.8700 N   0  0  0  0  0  0  0  0  0  0  0  0
   65.8620   34.4340   51.8840 C   0  0  0  0  0  0  0  0  0  0  0  0
   65.6505   33.7523   52.7210 H   0  0  0  0  0  0  0  0  0  0  0  0
   67.2610   34.1160   51.2780 C   0  0  0  0  0  0  0  0  0  0  0  0
   67.4807   33.0507   51.4416 H   0  0  0  0  0  0  0  0  0  0  0  0
   67.2220   34.3656   50.2074 H   0  0  0  0  0  0  0  0  0  0  0  0
   68.3870   34.9510   51.9060 C   0  0  0  0  0  0  0  0  0  0  0  0
   69.3370   34.4029   51.8224 H   0  0  0  0  0  0  0  0  0  0  0  0
   68.4627   35.9118   51.3758 H   0  0  0  0  0  0  0  0  0  0  0  0
   68.1060   35.1940   53.2670 O   0  0  0  0  0  0  0  0  0  0  0  0
   67.0550   36.1360   53.3910 C   0  0  0  0  0  0  0  0  0  0  0  0
   66.6783   36.0998   54.4239 H   0  0  0  0  0  0  0  0  0  0  0  0
   67.4753   37.1177   53.1271 H   0  0  0  0  0  0  0  0  0  0  0  0
   65.8660   35.8850   52.4300 C   0  0  0  0  0  0  0  0  0  0  0  0
   64.9260   36.0636   52.9727 H   0  0  0  0  0  0  0  0  0  0  0  0
   65.9666   36.5709   51.5760 H   0  0  0  0  0  0  0  0  0  0  0  0
   63.4670   33.9310   51.5060 C   0  0  0  0  0  0  0  0  0  0  0  0
   63.6291   33.2503   52.3547 H   0  0  0  0  0  0  0  0  0  0  0  0
   63.0506   34.9005   51.8169 H   0  0  0  0  0  0  0  0  0  0  0  0
   62.4350   33.2830   50.5510 C   0  0  0  0  0  0  0  0  0  0  0  0
   62.4396   32.1945   50.7097 H   0  0  0  0  0  0  0  0  0  0  0  0
   61.4485   33.7151   50.7750 H   0  0  0  0  0  0  0  0  0  0  0  0
   60.0280   31.7000   46.1410 C   0  0  0  0  0  0  0  0  0  0  0  0
   61.0690   31.3526   46.2161 H   0  0  0  0  0  0  0  0  0  0  0  0
   59.1230   31.0090   45.3290 C   0  0  0  0  0  0  0  0  0  0  0  0
   59.4551   30.1123   44.7853 H   0  0  0  0  0  0  0  0  0  0  0  0
   57.8250   28.6100   46.3450 C   0  0  0  0  0  0  0  0  0  0  0  0
   58.4414   29.5208   46.3249 H   0  0  0  0  0  0  0  0  0  0  0  0
   58.2310   27.5020   47.1060 C   0  0  0  0  0  0  0  0  0  0  0  0
   59.4800   27.5620   47.8960 C   0  0  0  0  0  0  0  0  0  0  0  0
   60.2970   26.6020   47.7980 O   0  0  0  0  0  0  0  0  0  0  0  0
   59.7750   28.6590   48.7900 N   0  0  0  0  0  0  0  0  0  0  0  0
   59.2920   30.0200   48.5270 C   0  0  0  0  0  0  0  0  0  0  0  0
   60.1123   30.6190   48.1047 H   0  0  0  0  0  0  0  0  0  0  0  0
   58.4536   29.9667   47.8169 H   0  0  0  0  0  0  0  0  0  0  0  0
   58.7990   30.6830   49.8260 C   0  0  0  0  0  0  0  0  0  0  0  0
   58.9212   31.7721   49.7312 H   0  0  0  0  0  0  0  0  0  0  0  0
   57.7456   30.3963   49.9607 H   0  0  0  0  0  0  0  0  0  0  0  0
   59.5400   30.2270   51.0330 N   0  0  0  0  0  0  0  0  0  0  0  0
   59.5520   31.0810   52.2510 C   0  0  0  0  0  0  0  0  0  0  0  0
   60.2161   30.3944   52.7965 H   0  0  0  0  0  0  0  0  0  0  0  0
   59.4790   32.5870   52.0110 C   0  0  0  0  0  0  0  0  0  0  0  0
   60.0820   33.2722   52.6248 H   0  0  0  0  0  0  0  0  0  0  0  0
   59.6189   33.2449   51.1406 H   0  0  0  0  0  0  0  0  0  0  0  0
   58.2890   31.8460   52.6320 C   0  0  0  0  0  0  0  0  0  0  0  0
   58.0373   31.9997   53.6917 H   0  0  0  0  0  0  0  0  0  0  0  0
   57.2196   31.7517   52.3921 H   0  0  0  0  0  0  0  0  0  0  0  0
   60.8880   29.7160   50.7370 C   0  0  0  0  0  0  0  0  0  0  0  0
   61.4656   30.4866   50.2054 H   0  0  0  0  0  0  0  0  0  0  0  0
   61.4022   29.4611   51.6754 H   0  0  0  0  0  0  0  0  0  0  0  0
   60.7680   28.4640   49.8560 C   0  0  0  0  0  0  0  0  0  0  0  0
   61.7463   28.2502   49.4007 H   0  0  0  0  0  0  0  0  0  0  0  0
   60.4425   27.6235   50.4866 H   0  0  0  0  0  0  0  0  0  0  0  0
   57.4600   26.3340   47.0780 C   0  0  0  0  0  0  0  0  0  0  0  0
   57.7767   25.4479   47.6477 H   0  0  0  0  0  0  0  0  0  0  0  0
  1  2  1  0
  2  3  1  0
  3  4  1  0
  4  5  2  0
  5  6  1  0
  6  7  2  0
  6  8  1  0
  8  9  2  0
  9 10  1  0
  9 11  1  0
 11 12  1  0
 11 13  2  0
 13 14  1  0
 14 15  2  0
 14 16  1  0
 16 17  1  0
 16 18  1  0
 18 19  1  0
 18 20  1  0
 20 21  1  0
 20 22  1  0
 20 23  1  0
 23 24  1  0
 23 25  1  0
 23 26  1  0
 26 27  1  0
 27 28  1  0
 27 29  1  0
 29 30  1  0
 29 31  1  0
 29 32  1  0
 32 33  1  0
 32 34  1  0
 32 35  1  0
 35 36  1  0
 36 37  1  0
 36 38  1  0
 36 39  1  0
 39 40  1  0
 39 41  1  0
 26 42  1  0
 42 43  1  0
 42 44  1  0
 42 45  1  0
 45 46  1  0
 45 47  1  0
 13 48  1  0
 48 49  1  0
 48 50  2  0
 50 51  1  0
  4 52  1  0
 52 53  1  0
 52 54  2  0
 54 55  1  0
 55 56  2  0
 55 57  1  0
 57 58  1  0
 58 59  1  0
 58 60  1  0
 58 61  1  0
 61 62  1  0
 61 63  1  0
 61 64  1  0
 64 65  1  0
 65 66  1  0
 65 67  1  0
 67 68  1  0
 67 69  1  0
 67 70  1  0
 70 71  1  0
 70 72  1  0
 64 73  1  0
 73 74  1  0
 73 75  1  0
 73 76  1  0
 76 77  1  0
 76 78  1  0
 54 79  1  0
 79 80  1  0
 79  2  2  0
 50  8  1  0
 76 57  1  0
 45 18  1  0
 70 65  1  0
 39 27  1  0
M  CHG  1   3  -1
M  END
>  <UniqueID>  (77) 
73

>  <SMILES>  (77) 
O=C(/N=c1\cc(C(=O)N2CCN(C3CC3)CC2)cc[n-]1)c1ccc(C(=O)NC2CCN(C3CCOCC3)CC2)cc1

>  <Energy>  (77) 
399.3789807889409

>  <Genealogy>  (77) 
O=C(N=c1cc(C(=O)N2CCN(C3CC3)CC2)cc[n-]1)c1ccc(C(=O)NC2CCN(C3CCOCC3)CC2)cc1 (protonated)
O=C(/N=c1\cc(C(=O)N2CCN(C3CC3)CC2)cc[n-]1)c1ccc(C(=O)NC2CCN(C3CCOCC3)CC2)cc1 (cis-trans isomerization)
O=C(/N=c1\cc(C(=O)N2CCN(C3CC3)CC2)cc[n-]1)c1ccc(C(=O)NC2CCN(C3CCOCC3)CC2)cc1 (3D coordinates assigned)
O=C(/N=c1\cc(C(=O)N2CCN(C3CC3)CC2)cc[n-]1)c1ccc(C(=O)NC2CCN(C3CCOCC3)CC2)cc1 (nonaromatic ring conformer: 399.3789807889409 kcal/mol)

>  <smiles>  (77) 
O=C(N=c1cc(C(=O)N2CCN(C3CC3)CC2)cc[nH]1)c1ccc(C(=O)NC2CCN(C3CCOCC3)CC2)cc1

>  <score_type>  (77) 
oracle

>  <origin>  (77) 
adg

>  <m_score__min__energy>  (77) 
-11.44

>  <m_primary>  (77) 
energy

$$$$
77:0
     RDKit          3D

 51 53  0  0  0  0  0  0  0  0999 V2000
   61.7515   27.6388   46.6337 H   0  0  0  0  0  0  0  0  0  0  0  0
   60.7270   27.4620   46.9930 C   0  0  0  0  0  0  0  0  0  0  0  0
   60.1310   28.4180   47.9410 C   0  0  0  0  0  0  0  0  0  0  0  0
   60.2630   28.2550   49.1850 O   0  0  0  0  0  0  0  0  0  0  0  0
   59.3510   29.5060   47.4300 N   0  0  0  0  0  0  0  0  0  0  0  0
   59.4320   30.8750   47.8560 C   0  0  0  0  0  0  0  0  0  0  0  0
   60.1330   31.7880   47.0590 C   0  0  0  0  0  0  0  0  0  0  0  0
   60.5969   31.4515   46.1201 H   0  0  0  0  0  0  0  0  0  0  0  0
   60.2460   33.1230   47.4500 C   0  0  0  0  0  0  0  0  0  0  0  0
   60.7920   33.8369   46.8158 H   0  0  0  0  0  0  0  0  0  0  0  0
   59.6660   33.5540   48.6470 C   0  0  0  0  0  0  0  0  0  0  0  0
   59.7585   34.6074   48.9501 H   0  0  0  0  0  0  0  0  0  0  0  0
   58.9690   32.6560   49.4620 C   0  0  0  0  0  0  0  0  0  0  0  0
   58.4230   33.1380   50.7000 N   0  0  0  0  0  0  0  0  0  0  0  0
   58.3090   32.4260   51.9390 C   0  0  0  0  0  0  0  0  0  0  0  0
   58.7050   32.9380   53.0210 O   0  0  0  0  0  0  0  0  0  0  0  0
   57.7880   31.0230   51.9360 C   0  0  0  0  0  0  0  0  0  0  0  0
   57.9931   30.5633   50.9579 H   0  0  0  0  0  0  0  0  0  0  0  0
   58.2890   30.4570   52.7351 H   0  0  0  0  0  0  0  0  0  0  0  0
   56.2750   31.0080   52.1930 C   0  0  0  0  0  0  0  0  0  0  0  0
   56.0592   31.6061   53.0906 H   0  0  0  0  0  0  0  0  0  0  0  0
   55.7713   31.4294   51.3105 H   0  0  0  0  0  0  0  0  0  0  0  0
   55.7640   29.6080   52.4040 C   0  0  0  0  0  0  0  0  0  0  0  0
   56.5930   28.6820   52.6070 O   0  0  0  0  0  0  0  0  0  0  0  0
   54.3630   29.3140   52.5110 N   0  0  0  0  0  0  0  0  0  0  0  0
   53.2760   30.2430   52.4060 C   0  0  0  0  0  0  0  0  0  0  0  0
   52.9710   30.7910   51.1530 C   0  0  0  0  0  0  0  0  0  0  0  0
   53.5418   30.4786   50.2661 H   0  0  0  0  0  0  0  0  0  0  0  0
   51.9450   31.7330   51.0230 C   0  0  0  0  0  0  0  0  0  0  0  0
   51.6998   32.1462   50.0335 H   0  0  0  0  0  0  0  0  0  0  0  0
   51.2300   32.1500   52.1530 C   0  0  0  0  0  0  0  0  0  0  0  0
   50.2150   33.0900   52.0250 O   0  0  0  0  0  0  0  0  0  0  0  0
   51.5470   31.6290   53.4120 C   0  0  0  0  0  0  0  0  0  0  0  0
   50.9906   31.9614   54.3007 H   0  0  0  0  0  0  0  0  0  0  0  0
   52.5730   30.6840   53.5410 C   0  0  0  0  0  0  0  0  0  0  0  0
   52.8296   30.2856   54.5337 H   0  0  0  0  0  0  0  0  0  0  0  0
   58.8760   31.3040   49.0760 C   0  0  0  0  0  0  0  0  0  0  0  0
   58.3670   30.5811   49.7305 H   0  0  0  0  0  0  0  0  0  0  0  0
   60.0640   26.3840   46.5530 C   0  0  0  0  0  0  0  0  0  0  0  0
   60.6469   25.4879   46.2936 H   0  0  0  0  0  0  0  0  0  0  0  0
   58.5890   26.3280   46.3950 C   0  0  0  0  0  0  0  0  0  0  0  0
   57.9330   27.4290   45.8160 C   0  0  0  0  0  0  0  0  0  0  0  0
   58.5159   28.3074   45.5020 H   0  0  0  0  0  0  0  0  0  0  0  0
   56.5470   27.4170   45.6360 C   0  0  0  0  0  0  0  0  0  0  0  0
   56.0431   28.2879   45.1915 H   0  0  0  0  0  0  0  0  0  0  0  0
   55.8010   26.3000   46.0200 C   0  0  0  0  0  0  0  0  0  0  0  0
   54.4230   26.2860   45.8350 O   0  0  0  0  0  0  0  0  0  0  0  0
   56.4410   25.1940   46.5860 C   0  0  0  0  0  0  0  0  0  0  0  0
   55.8524   24.3151   46.8877 H   0  0  0  0  0  0  0  0  0  0  0  0
   57.8270   25.2010   46.7700 C   0  0  0  0  0  0  0  0  0  0  0  0
   58.3256   24.3242   47.2090 H   0  0  0  0  0  0  0  0  0  0  0  0
  1  2  1  0
  2  3  1  0
  3  4  2  0
  3  5  1  0
  5  6  1  0
  6  7  2  0
  7  8  1  0
  7  9  1  0
  9 10  1  0
  9 11  2  0
 11 12  1  0
 11 13  1  0
 13 14  1  0
 14 15  1  0
 15 16  2  0
 15 17  1  0
 17 18  1  0
 17 19  1  0
 17 20  1  0
 20 21  1  0
 20 22  1  0
 20 23  1  0
 23 24  2  0
 23 25  1  0
 25 26  1  0
 26 27  2  0
 27 28  1  0
 27 29  1  0
 29 30  1  0
 29 31  2  0
 31 32  1  0
 31 33  1  0
 33 34  1  0
 33 35  2  0
 35 36  1  0
 13 37  2  0
 37 38  1  0
  2 39  2  0
 39 40  1  0
 39 41  1  0
 41 42  2  0
 42 43  1  0
 42 44  1  0
 44 45  1  0
 44 46  2  0
 46 47  1  0
 46 48  1  0
 48 49  1  0
 48 50  2  0
 50 51  1  0
 37  6  1  0
 50 41  1  0
 35 26  1  0
M  CHG  5   5  -1  14  -1  25  -1  32  -1  47  -1
M  END
>  <UniqueID>  (78) 
74

>  <SMILES>  (78) 
O=C(/C=C/c1ccc([O-])cc1)[N-]c1cccc([N-]C(=O)CCC(=O)[N-]c2ccc([O-])cc2)c1

>  <Energy>  (78) 
63.62953446008283

>  <Genealogy>  (78) 
O=C(C=Cc1ccc([O-])cc1)[N-]c1cccc([N-]C(=O)CCC(=O)[N-]c2ccc([O-])cc2)c1 (protonated)
O=C(/C=C/c1ccc([O-])cc1)[N-]c1cccc([N-]C(=O)CCC(=O)[N-]c2ccc([O-])cc2)c1 (cis-trans isomerization)
O=C(/C=C/c1ccc([O-])cc1)[N-]c1cccc([N-]C(=O)CCC(=O)[N-]c2ccc([O-])cc2)c1 (3D coordinates assigned)
O=C(/C=C/c1ccc([O-])cc1)[N-]c1cccc([N-]C(=O)CCC(=O)[N-]c2ccc([O-])cc2)c1 (optimized conformer: 63.62953446008283 kcal/mol)

>  <smiles>  (78) 
O=C(C=Cc1ccc(O)cc1)Nc1cccc(NC(=O)CCC(=O)Nc2ccc(O)cc2)c1

>  <score_type>  (78) 
oracle

>  <origin>  (78) 
adg

>  <m_score__min__energy>  (78) 
-19.149999999999999

>  <m_primary>  (78) 
energy

$$$$
78:0
     RDKit          3D

 41 43  0  0  0  0  0  0  0  0999 V2000
   57.6729   30.5263   54.1957 H   0  0  0  0  0  0  0  0  0  0  0  0
   56.6010   30.4790   54.4380 C   0  0  0  0  0  0  0  0  0  0  0  0
   56.2777   30.3732   55.4841 H   0  0  0  0  0  0  0  0  0  0  0  0
   55.6920   30.5500   53.4620 C   0  0  0  0  0  0  0  0  0  0  0  0
   55.9390   30.6140   52.0940 C   0  0  0  0  0  0  0  0  0  0  0  0
   57.2290   30.7170   51.3870 C   0  0  0  0  0  0  0  0  0  0  0  0
   57.9120   29.6720   51.2060 O   0  0  0  0  0  0  0  0  0  0  0  0
   57.6820   31.9710   50.8570 N   0  0  0  0  0  0  0  0  0  0  0  0
   57.0290   32.7870   50.8430 H   0  0  0  0  0  0  0  0  0  0  0  0
   58.9920   32.1300   50.2300 C   0  0  0  0  0  0  0  0  0  0  0  0
   59.3712   33.1425   50.4327 H   0  0  0  0  0  0  0  0  0  0  0  0
   59.6816   31.3803   50.6451 H   0  0  0  0  0  0  0  0  0  0  0  0
   58.8850   31.9280   48.7430 C   0  0  0  0  0  0  0  0  0  0  0  0
   59.2100   30.6860   48.1780 C   0  0  0  0  0  0  0  0  0  0  0  0
   59.5274   29.8565   48.8269 H   0  0  0  0  0  0  0  0  0  0  0  0
   59.1330   30.4960   46.7950 C   0  0  0  0  0  0  0  0  0  0  0  0
   59.3882   29.5178   46.3613 H   0  0  0  0  0  0  0  0  0  0  0  0
   58.7300   31.5520   45.9550 C   0  0  0  0  0  0  0  0  0  0  0  0
   58.6380   31.4130   44.5630 O   0  0  0  0  0  0  0  0  0  0  0  0
   57.4350   31.5680   43.8170 C   0  0  0  0  0  0  0  0  0  0  0  0
   56.5864   31.6773   44.5083 H   0  0  0  0  0  0  0  0  0  0  0  0
   57.5094   32.4640   43.1832 H   0  0  0  0  0  0  0  0  0  0  0  0
   57.2799   30.6824   43.1832 H   0  0  0  0  0  0  0  0  0  0  0  0
   58.4110   32.7910   46.5220 C   0  0  0  0  0  0  0  0  0  0  0  0
   58.0968   33.6223   45.8737 H   0  0  0  0  0  0  0  0  0  0  0  0
   58.4880   32.9820   47.9050 C   0  0  0  0  0  0  0  0  0  0  0  0
   58.2366   33.9615   48.3379 H   0  0  0  0  0  0  0  0  0  0  0  0
   54.7050   30.5720   51.4740 C   0  0  0  0  0  0  0  0  0  0  0  0
   54.5125   30.5871   50.3911 H   0  0  0  0  0  0  0  0  0  0  0  0
   53.7560   30.5070   52.4840 C   0  0  0  0  0  0  0  0  0  0  0  0
   52.4310   30.4690   52.2550 C   0  0  0  0  0  0  0  0  0  0  0  0
   51.7915   30.1340   53.0850 H   0  0  0  0  0  0  0  0  0  0  0  0
   51.7530   30.8350   50.9930 C   0  0  0  0  0  0  0  0  0  0  0  0
   51.6800   30.0790   49.8840 N   0  0  0  0  0  0  0  0  0  0  0  0
   51.0030   30.8580   49.0120 C   0  0  0  0  0  0  0  0  0  0  0  0
   50.7280   30.4860   47.8420 O   0  0  0  0  0  0  0  0  0  0  0  0
   50.6450   32.0670   49.4940 N   0  0  0  0  0  0  0  0  0  0  0  0
   51.1310   32.0370   50.7450 C   0  0  0  0  0  0  0  0  0  0  0  0
   51.0080   33.0890   51.6440 O   0  0  0  0  0  0  0  0  0  0  0  0
   54.3640   30.4980   53.6920 N   0  0  0  0  0  0  0  0  0  0  0  0
   53.9250   30.4560   54.6360 H   0  0  0  0  0  0  0  0  0  0  0  0
  1  2  1  0
  2  3  1  0
  2  4  2  0
  4  5  1  0
  5  6  1  0
  6  7  2  0
  6  8  1  0
  8  9  1  0
  8 10  1  0
 10 11  1  0
 10 12  1  0
 10 13  1  0
 13 14  2  0
 14 15  1  0
 14 16  1  0
 16 17  1  0
 16 18  2  0
 18 19  1  0
 19 20  1  0
 20 21  1  0
 20 22  1  0
 20 23  1  0
 18 24  1  0
 24 25  1  0
 24 26  2  0
 26 27  1  0
  5 28  2  0
 28 29  1  0
 28 30  1  0
 30 31  2  0
 31 32  1  0
 31 33  1  0
 33 34  1  0
 34 35  1  0
 35 36  2  0
 35 37  1  0
 37 38  1  0
 38 39  1  0
 30 40  1  0
 40 41  1  0
 40  4  1  0
 26 13  1  0
 38 33  2  0
M  CHG  3  34  -1  37  -1  39  -1
M  END
>  <UniqueID>  (79) 
75

>  <SMILES>  (79) 
C=c1[nH]/c(=C\c2[n-]c(=O)[n-]c2[O-])cc1C(=O)NCc1ccc(OC)cc1

>  <Energy>  (79) 
102.860441283

>  <Genealogy>  (79) 
C=c1[nH]c(=Cc2[n-]c(=O)[n-]c2[O-])cc1C(=O)NCc1ccc(OC)cc1 (protonated)
C=c1[nH]/c(=C\c2[n-]c(=O)[n-]c2[O-])cc1C(=O)NCc1ccc(OC)cc1 (cis-trans isomerization)
C=c1[nH]/c(=C\c2[n-]c(=O)[n-]c2[O-])cc1C(=O)NCc1ccc(OC)cc1 (3D coordinates assigned)
C=c1[nH]/c(=C\c2[n-]c(=O)[n-]c2[O-])cc1C(=O)NCc1ccc(OC)cc1 (optimized conformer: 102.860441283 kcal/mol)

>  <smiles>  (79) 
C=c1[nH]c(=Cc2[nH]c(=O)[nH]c2O)cc1C(=O)NCc1ccc(OC)cc1

>  <score_type>  (79) 
oracle

>  <origin>  (79) 
adg

>  <m_score__min__energy>  (79) 
-17.239999999999998

>  <m_primary>  (79) 
energy

$$$$
79:0
     RDKit          3D

 53 55  0  0  0  0  0  0  0  0999 V2000
   56.5170   29.4170   52.7540 C   0  0  0  0  0  0  0  0  0  0  0  0
   57.2370   29.8450   51.6040 O   0  0  0  0  0  0  0  0  0  0  0  0
   57.8780   31.0910   51.4810 C   0  0  0  0  0  0  0  0  0  0  0  0
   57.7990   32.0730   52.4890 C   0  0  0  0  0  0  0  0  0  0  0  0
   58.4470   33.3000   52.3300 C   0  0  0  0  0  0  0  0  0  0  0  0
   59.1800   33.5620   51.1700 C   0  0  0  0  0  0  0  0  0  0  0  0
   59.2660   32.5960   50.1650 C   0  0  0  0  0  0  0  0  0  0  0  0
   58.6180   31.3640   50.3150 C   0  0  0  0  0  0  0  0  0  0  0  0
   58.7300   30.3700   49.2790 C   0  0  0  0  0  0  0  0  0  0  0  0
   58.7920   29.5290   48.4200 C   0  0  0  0  0  0  0  0  0  0  0  0
   58.8680   28.3690   47.1480 S   0  0  0  0  0  0  0  0  0  0  0  0
   60.0820   27.5050   47.3470 O   0  0  0  0  0  0  0  0  0  0  0  0
   57.6310   27.5160   47.1670 O   0  0  0  0  0  0  0  0  0  0  0  0
   58.9580   29.2380   45.6450 N   0  0  0  0  0  0  0  0  0  0  0  0
   57.8660   28.8770   44.7450 C   0  0  0  0  0  0  0  0  0  0  0  0
   56.6910   29.8050   44.9030 C   0  0  0  0  0  0  0  0  0  0  0  0
   55.5330   29.3140   44.9510 O   0  0  0  0  0  0  0  0  0  0  0  0
   56.8440   31.2220   45.0720 N   0  0  0  0  0  0  0  0  0  0  0  0
   58.0180   31.9000   45.6200 C   0  0  2  0  0  0  0  0  0  0  0  0
   57.7430   32.4170   47.0220 C   0  0  0  0  0  0  0  0  0  0  0  0
   58.3130   33.8330   47.0650 C   0  0  0  0  0  0  0  0  0  0  0  0
   58.8960   34.1400   45.7510 N   0  0  0  0  0  0  0  0  0  0  0  0
   60.3790   34.2310   45.7540 C   0  0  0  0  0  0  0  0  0  0  0  0
   61.0610   33.4180   46.8380 C   0  0  0  0  0  0  0  0  0  0  0  0
   61.6470   34.0630   47.9430 C   0  0  0  0  0  0  0  0  0  0  0  0
   62.3080   33.3230   48.9270 C   0  0  0  0  0  0  0  0  0  0  0  0
   62.3730   31.9310   48.8290 C   0  0  0  0  0  0  0  0  0  0  0  0
   61.7680   31.2770   47.7530 C   0  0  0  0  0  0  0  0  0  0  0  0
   61.1090   32.0140   46.7650 C   0  0  0  0  0  0  0  0  0  0  0  0
   58.3540   33.1490   44.8130 C   0  0  0  0  0  0  0  0  0  0  0  0
   57.0520   29.7350   53.6610 H   0  0  0  0  0  0  0  0  0  0  0  0
   55.5122   29.8646   52.7451 H   0  0  0  0  0  0  0  0  0  0  0  0
   56.4301   28.3205   52.7451 H   0  0  0  0  0  0  0  0  0  0  0  0
   57.2243   31.8721   53.4052 H   0  0  0  0  0  0  0  0  0  0  0  0
   58.3800   34.0621   53.1203 H   0  0  0  0  0  0  0  0  0  0  0  0
   59.6895   34.5292   51.0481 H   0  0  0  0  0  0  0  0  0  0  0  0
   59.8446   32.8037   49.2528 H   0  0  0  0  0  0  0  0  0  0  0  0
   58.2261   28.9298   43.7069 H   0  0  0  0  0  0  0  0  0  0  0  0
   57.5364   27.8575   44.9938 H   0  0  0  0  0  0  0  0  0  0  0  0
   58.8308   31.1591   45.6002 H   0  0  0  0  0  0  0  0  0  0  0  0
   56.6608   32.4340   47.2181 H   0  0  0  0  0  0  0  0  0  0  0  0
   58.2018   31.7735   47.7871 H   0  0  0  0  0  0  0  0  0  0  0  0
   57.5099   34.5498   47.2915 H   0  0  0  0  0  0  0  0  0  0  0  0
   59.0839   33.9059   47.8462 H   0  0  0  0  0  0  0  0  0  0  0  0
   60.7460   33.8783   44.7789 H   0  0  0  0  0  0  0  0  0  0  0  0
   60.6256   35.2843   45.9536 H   0  0  0  0  0  0  0  0  0  0  0  0
   61.5843   35.1575   48.0328 H   0  0  0  0  0  0  0  0  0  0  0  0
   62.7773   33.8367   49.7790 H   0  0  0  0  0  0  0  0  0  0  0  0
   62.9008   31.3497   49.5994 H   0  0  0  0  0  0  0  0  0  0  0  0
   61.8103   30.1800   47.6832 H   0  0  0  0  0  0  0  0  0  0  0  0
   60.6251   31.4932   45.9256 H   0  0  0  0  0  0  0  0  0  0  0  0
   57.4462   33.5424   44.3322 H   0  0  0  0  0  0  0  0  0  0  0  0
   59.0845   32.9186   44.0235 H   0  0  0  0  0  0  0  0  0  0  0  0
  1  2  1  0
  2  3  1  0
  3  4  2  0
  4  5  1  0
  5  6  2  0
  6  7  1  0
  7  8  2  0
  8  9  1  0
  9 10  3  0
 10 11  1  0
 11 12  2  0
 11 13  2  0
 11 14  1  0
 14 15  1  0
 15 16  1  0
 16 17  2  0
 16 18  1  0
 18 19  1  0
 19 20  1  0
 20 21  1  0
 21 22  1  0
 22 23  1  0
 23 24  1  0
 24 25  2  0
 25 26  1  0
 26 27  2  0
 27 28  1  0
 28 29  2  0
 22 30  1  0
  8  3  1  0
 30 19  1  0
 29 24  1  0
  1 31  1  0
  1 32  1  0
  1 33  1  0
  4 34  1  0
  5 35  1  0
  6 36  1  0
  7 37  1  0
 15 38  1  0
 15 39  1  0
 19 40  1  1
 20 41  1  0
 20 42  1  0
 21 43  1  0
 21 44  1  0
 23 45  1  0
 23 46  1  0
 25 47  1  0
 26 48  1  0
 27 49  1  0
 28 50  1  0
 29 51  1  0
 30 52  1  0
 30 53  1  0
M  CHG  2  14  -1  18  -1
M  END
>  <UniqueID>  (80) 
76

>  <SMILES>  (80) 
COc1ccccc1C#CS(=O)(=O)[N-]CC(=O)[N-][C@@H]1CCN(Cc2ccccc2)C1

>  <Energy>  (80) 
48.20611361655379

>  <Genealogy>  (80) 
COc1ccccc1C#CS(=O)(=O)[N-]CC(=O)[N-]C1CCN(Cc2ccccc2)C1 (protonated)
COc1ccccc1C#CS(=O)(=O)[N-]CC(=O)[N-][C@@H]1CCN(Cc2ccccc2)C1 (chirality)
COc1ccccc1C#CS(=O)(=O)[N-]CC(=O)[N-][C@@H]1CCN(Cc2ccccc2)C1 (3D coordinates assigned)
COc1ccccc1C#CS(=O)(=O)[N-]CC(=O)[N-][C@@H]1CCN(Cc2ccccc2)C1 (nonaromatic ring conformer: 48.20611361655379 kcal/mol)

>  <smiles>  (80) 
COc1ccccc1C#CS(=O)(=O)NCC(=O)NC1CCN(Cc2ccccc2)C1

>  <score_type>  (80) 
oracle

>  <origin>  (80) 
adg

>  <m_score__min__energy>  (80) 
-11.52

>  <m_primary>  (80) 
energy

$$$$
80:0
     RDKit          3D

 63 66  0  0  0  0  0  0  0  0999 V2000
   55.5040   29.4130   44.8750 O   0  0  0  0  0  0  0  0  0  0  0  0
   56.7210   29.1630   45.0620 C   0  0  0  0  0  0  0  0  0  0  0  0
   57.7300   30.1370   44.7480 N   0  0  0  0  0  0  0  0  0  0  0  0
   57.9200   31.4760   45.2320 C   0  0  0  0  0  0  0  0  0  0  0  0
   57.3980   32.5220   44.4590 C   0  0  0  0  0  0  0  0  0  0  0  0
   57.5120   33.8480   44.8810 C   0  0  0  0  0  0  0  0  0  0  0  0
   58.1530   34.1460   46.0820 C   0  0  0  0  0  0  0  0  0  0  0  0
   58.6860   33.1180   46.8690 C   0  0  0  0  0  0  0  0  0  0  0  0
   59.4960   33.5150   48.3850 S   0  0  0  0  0  0  0  0  0  0  0  0
   59.2810   34.9740   48.6760 O   0  0  0  0  0  0  0  0  0  0  0  0
   58.9090   32.7050   49.5080 O   0  0  0  0  0  0  0  0  0  0  0  0
   61.2080   33.1820   48.2580 N   0  0  0  0  0  0  0  0  0  0  0  0
   61.9060   33.6410   49.4860 C   0  0  0  0  0  0  0  0  0  0  0  0
   63.4240   33.8410   49.2860 C   0  0  0  0  0  0  0  0  0  0  0  0
   63.9510   33.0260   48.1040 C   0  0  0  0  0  0  0  0  0  0  0  0
   63.2160   33.3980   46.8030 C   0  0  0  0  0  0  0  0  0  0  0  0
   61.7520   33.8210   47.0450 C   0  0  0  0  0  0  0  0  0  0  0  0
   58.5680   31.7840   46.4460 C   0  0  0  0  0  0  0  0  0  0  0  0
   57.1180   27.8510   45.6250 C   0  0  0  0  0  0  0  0  0  0  0  0
   58.4750   27.5490   45.8430 C   0  0  0  0  0  0  0  0  0  0  0  0
   58.8490   26.3060   46.3590 C   0  0  0  0  0  0  0  0  0  0  0  0
   57.8800   25.3470   46.6560 C   0  0  0  0  0  0  0  0  0  0  0  0
   56.5170   25.6280   46.4410 C   0  0  0  0  0  0  0  0  0  0  0  0
   55.5000   24.6950   46.7050 O   0  0  0  0  0  0  0  0  0  0  0  0
   55.6650   23.4850   47.4480 C   0  0  0  0  0  0  0  0  0  0  0  0
   56.5260   22.4910   46.7080 C   0  0  0  0  0  0  0  0  0  0  0  0
   57.3440   21.7850   47.3620 O   0  0  0  0  0  0  0  0  0  0  0  0
   56.4600   22.3570   45.2710 N   0  0  0  0  0  0  0  0  0  0  0  0
   55.8320   23.4220   44.4680 C   0  0  0  0  0  0  0  0  0  0  0  0
   55.5680   22.9620   43.0320 C   0  0  0  0  0  0  0  0  0  0  0  0
   56.7140   22.3460   42.4840 O   0  0  0  0  0  0  0  0  0  0  0  0
   56.9540   21.1350   43.1640 C   0  0  0  0  0  0  0  0  0  0  0  0
   57.3650   21.3990   44.6160 C   0  0  0  0  0  0  0  0  0  0  0  0
   56.1480   26.8810   45.9360 C   0  0  0  0  0  0  0  0  0  0  0  0
   56.8925   32.2956   43.5086 H   0  0  0  0  0  0  0  0  0  0  0  0
   57.0954   34.6584   44.2648 H   0  0  0  0  0  0  0  0  0  0  0  0
   58.2404   35.1915   46.4125 H   0  0  0  0  0  0  0  0  0  0  0  0
   61.3140   32.1420   48.1670 H   0  0  0  0  0  0  0  0  0  0  0  0
   61.4659   34.5988   49.8006 H   0  0  0  0  0  0  0  0  0  0  0  0
   61.7777   32.8567   50.2466 H   0  0  0  0  0  0  0  0  0  0  0  0
   63.6217   34.9070   49.1004 H   0  0  0  0  0  0  0  0  0  0  0  0
   63.9380   33.4974   50.1958 H   0  0  0  0  0  0  0  0  0  0  0  0
   65.0254   33.2267   47.9797 H   0  0  0  0  0  0  0  0  0  0  0  0
   63.7784   31.9594   48.3102 H   0  0  0  0  0  0  0  0  0  0  0  0
   63.7488   34.2329   46.3244 H   0  0  0  0  0  0  0  0  0  0  0  0
   63.2015   32.5036   46.1628 H   0  0  0  0  0  0  0  0  0  0  0  0
   61.7088   34.9136   47.1644 H   0  0  0  0  0  0  0  0  0  0  0  0
   61.1491   33.5022   46.1819 H   0  0  0  0  0  0  0  0  0  0  0  0
   58.9833   30.9751   47.0650 H   0  0  0  0  0  0  0  0  0  0  0  0
   59.2462   28.2966   45.6055 H   0  0  0  0  0  0  0  0  0  0  0  0
   59.9120   26.0822   46.5319 H   0  0  0  0  0  0  0  0  0  0  0  0
   58.1816   24.3690   47.0591 H   0  0  0  0  0  0  0  0  0  0  0  0
   56.1396   23.7201   48.4121 H   0  0  0  0  0  0  0  0  0  0  0  0
   54.6723   23.0355   47.5978 H   0  0  0  0  0  0  0  0  0  0  0  0
   54.8764   23.7044   44.9340 H   0  0  0  0  0  0  0  0  0  0  0  0
   56.5203   24.2793   44.4341 H   0  0  0  0  0  0  0  0  0  0  0  0
   54.7364   22.2420   43.0311 H   0  0  0  0  0  0  0  0  0  0  0  0
   55.3142   23.8410   42.4213 H   0  0  0  0  0  0  0  0  0  0  0  0
   56.0370   20.5276   43.1535 H   0  0  0  0  0  0  0  0  0  0  0  0
   57.7720   20.6020   42.6572 H   0  0  0  0  0  0  0  0  0  0  0  0
   57.3422   20.4498   45.1714 H   0  0  0  0  0  0  0  0  0  0  0  0
   58.3773   21.8294   44.6136 H   0  0  0  0  0  0  0  0  0  0  0  0
   55.0835   27.1101   45.7802 H   0  0  0  0  0  0  0  0  0  0  0  0
  1  2  2  0
  2  3  1  0
  3  4  1  0
  4  5  2  0
  5  6  1  0
  6  7  2  0
  7  8  1  0
  8  9  1  0
  9 10  2  0
  9 11  2  0
  9 12  1  0
 12 13  1  0
 13 14  1  0
 14 15  1  0
 15 16  1  0
 16 17  1  0
  8 18  2  0
  2 19  1  0
 19 20  2  0
 20 21  1  0
 21 22  2  0
 22 23  1  0
 23 24  1  0
 24 25  1  0
 25 26  1  0
 26 27  2  0
 26 28  1  0
 28 29  1  0
 29 30  1  0
 30 31  1  0
 31 32  1  0
 32 33  1  0
 23 34  2  0
 18  4  1  0
 34 19  1  0
 17 12  1  0
 33 28  1  0
  5 35  1  0
  6 36  1  0
  7 37  1  0
 12 38  1  0
 13 39  1  0
 13 40  1  0
 14 41  1  0
 14 42  1  0
 15 43  1  0
 15 44  1  0
 16 45  1  0
 16 46  1  0
 17 47  1  0
 17 48  1  0
 18 49  1  0
 20 50  1  0
 21 51  1  0
 22 52  1  0
 25 53  1  0
 25 54  1  0
 29 55  1  0
 29 56  1  0
 30 57  1  0
 30 58  1  0
 32 59  1  0
 32 60  1  0
 33 61  1  0
 33 62  1  0
 34 63  1  0
M  CHG  2   3  -1  12   1
M  END
>  <UniqueID>  (81) 
77

>  <SMILES>  (81) 
O=C([N-]c1cccc(S(=O)(=O)[NH+]2CCCCC2)c1)c1cccc(OCC(=O)N2CCOCC2)c1

>  <Energy>  (81) 
76.41890653642675

>  <Genealogy>  (81) 
O=C([N-]c1cccc(S(=O)(=O)[NH+]2CCCCC2)c1)c1cccc(OCC(=O)N2CCOCC2)c1 (protonated)
O=C([N-]c1cccc(S(=O)(=O)[NH+]2CCCCC2)c1)c1cccc(OCC(=O)N2CCOCC2)c1 (3D coordinates assigned)
O=C([N-]c1cccc(S(=O)(=O)[NH+]2CCCCC2)c1)c1cccc(OCC(=O)N2CCOCC2)c1 (nonaromatic ring conformer: 76.41890653642675 kcal/mol)

>  <smiles>  (81) 
O=C(Nc1cccc(S(=O)(=O)N2CCCCC2)c1)c1cccc(OCC(=O)N2CCOCC2)c1

>  <score_type>  (81) 
oracle

>  <origin>  (81) 
adg

>  <m_score__min__energy>  (81) 
-11.9

>  <m_primary>  (81) 
energy

$$$$
81:0
     RDKit          3D

 43 45  0  0  0  0  0  0  0  0999 V2000
   59.6100   29.6520   47.0820 C   0  0  0  0  0  0  0  0  0  0  0  0
   58.3570   30.3150   46.9460 O   0  0  0  0  0  0  0  0  0  0  0  0
   58.1650   31.5220   46.2540 C   0  0  0  0  0  0  0  0  0  0  0  0
   58.1260   32.7640   46.9220 C   0  0  0  0  0  0  0  0  0  0  0  0
   57.9140   33.9450   46.2080 C   0  0  0  0  0  0  0  0  0  0  0  0
   57.7350   33.9060   44.8250 C   0  0  0  0  0  0  0  0  0  0  0  0
   57.7730   32.6850   44.1500 C   0  0  0  0  0  0  0  0  0  0  0  0
   58.0010   31.4890   44.8520 C   0  0  0  0  0  0  0  0  0  0  0  0
   58.0070   30.1750   44.1020 C   0  0  0  0  0  0  0  0  0  0  0  0
   56.6920   29.4380   44.2150 C   0  0  0  0  0  0  0  0  0  0  0  0
   55.8960   29.4350   43.2390 O   0  0  0  0  0  0  0  0  0  0  0  0
   56.3030   28.7230   45.4020 N   0  0  0  0  0  0  0  0  0  0  0  0
   56.3110   27.4390   45.6140 C   0  0  0  0  0  0  0  0  0  0  0  0
   55.2390   26.7120   45.9990 N   0  0  0  0  0  0  0  0  0  0  0  0
   55.5140   25.4170   46.1450 N   0  0  0  0  0  0  0  0  0  0  0  0
   56.8040   25.1180   45.8800 C   0  0  0  0  0  0  0  0  0  0  0  0
   57.4590   23.4940   45.9680 S   0  0  0  0  0  0  0  0  0  0  0  0
   58.9060   23.5190   45.5550 O   0  0  0  0  0  0  0  0  0  0  0  0
   57.3710   23.0110   47.3890 O   0  0  0  0  0  0  0  0  0  0  0  0
   56.5420   22.4320   44.9310 N   0  0  0  0  0  0  0  0  0  0  0  0
   56.4340   21.0850   45.4920 C   0  0  0  0  0  0  0  0  0  0  0  0
   56.2690   20.1310   44.3170 C   0  0  0  0  0  0  0  0  0  0  0  0
   56.7460   20.9050   43.0950 C   0  0  0  0  0  0  0  0  0  0  0  0
   57.1770   22.2670   43.6200 C   0  0  0  0  0  0  0  0  0  0  0  0
   57.6830   26.4830   45.4330 S   0  0  0  0  0  0  0  0  0  0  0  0
   59.8451   29.5276   48.1494 H   0  0  0  0  0  0  0  0  0  0  0  0
   59.5563   28.6643   46.6008 H   0  0  0  0  0  0  0  0  0  0  0  0
   60.3964   30.2520   46.6008 H   0  0  0  0  0  0  0  0  0  0  0  0
   58.2635   32.8022   48.0127 H   0  0  0  0  0  0  0  0  0  0  0  0
   57.8881   34.9089   46.7374 H   0  0  0  0  0  0  0  0  0  0  0  0
   57.5638   34.8380   44.2663 H   0  0  0  0  0  0  0  0  0  0  0  0
   57.6234   32.6586   43.0605 H   0  0  0  0  0  0  0  0  0  0  0  0
   58.2085   30.3762   43.0395 H   0  0  0  0  0  0  0  0  0  0  0  0
   58.7859   29.5391   44.5480 H   0  0  0  0  0  0  0  0  0  0  0  0
   55.5820   22.8340   44.8030 H   0  0  0  0  0  0  0  0  0  0  0  0
   57.3444   20.8360   46.0570 H   0  0  0  0  0  0  0  0  0  0  0  0
   55.5807   21.0122   46.1823 H   0  0  0  0  0  0  0  0  0  0  0  0
   56.8819   19.2296   44.4646 H   0  0  0  0  0  0  0  0  0  0  0  0
   55.2273   19.7954   44.2067 H   0  0  0  0  0  0  0  0  0  0  0  0
   57.5941   20.3898   42.6204 H   0  0  0  0  0  0  0  0  0  0  0  0
   55.9573   20.9919   42.3332 H   0  0  0  0  0  0  0  0  0  0  0  0
   58.2717   22.3055   43.7212 H   0  0  0  0  0  0  0  0  0  0  0  0
   56.8774   23.0702   42.9308 H   0  0  0  0  0  0  0  0  0  0  0  0
  1  2  1  0
  2  3  1  0
  3  4  2  0
  4  5  1  0
  5  6  2  0
  6  7  1  0
  7  8  2  0
  8  9  1  0
  9 10  1  0
 10 11  2  0
 10 12  1  0
 12 13  2  3
 13 14  1  0
 14 15  1  0
 15 16  2  0
 16 17  1  0
 17 18  2  0
 17 19  2  0
 17 20  1  0
 20 21  1  0
 21 22  1  0
 22 23  1  0
 23 24  1  0
 16 25  1  0
  8  3  1  0
 25 13  1  0
 24 20  1  0
  1 26  1  0
  1 27  1  0
  1 28  1  0
  4 29  1  0
  5 30  1  0
  6 31  1  0
  7 32  1  0
  9 33  1  0
  9 34  1  0
 20 35  1  0
 21 36  1  0
 21 37  1  0
 22 38  1  0
 22 39  1  0
 23 40  1  0
 23 41  1  0
 24 42  1  0
 24 43  1  0
M  CHG  2  14  -1  20   1
M  END
>  <UniqueID>  (82) 
78

>  <SMILES>  (82) 
COc1ccccc1CC(=O)N=c1[n-]nc(S(=O)(=O)[NH+]2CCCC2)s1

>  <Energy>  (82) 
82.61514222305647

>  <Genealogy>  (82) 
COc1ccccc1CC(=O)N=c1[n-]nc(S(=O)(=O)[NH+]2CCCC2)s1 (protonated)
COc1ccccc1CC(=O)N=c1[n-]nc(S(=O)(=O)[NH+]2CCCC2)s1 (3D coordinates assigned)
COc1ccccc1CC(=O)N=c1[n-]nc(S(=O)(=O)[NH+]2CCCC2)s1 (nonaromatic ring conformer: 82.61514222305647 kcal/mol)

>  <smiles>  (82) 
COc1ccccc1CC(=O)N=c1[nH]nc(S(=O)(=O)N2CCCC2)s1

>  <score_type>  (82) 
oracle

>  <origin>  (82) 
adg

>  <m_score__min__energy>  (82) 
-9.1500000000000004

>  <m_primary>  (82) 
energy

$$$$
82:0
     RDKit          3D

 56 58  0  0  0  0  0  0  0  0999 V2000
   56.8500   24.5352   46.5066 H   0  0  0  0  0  0  0  0  0  0  0  0
   56.2220   25.4180   46.3160 C   0  0  0  0  0  0  0  0  0  0  0  0
   55.1395   25.3744   46.5065 H   0  0  0  0  0  0  0  0  0  0  0  0
   56.7730   26.5410   45.8540 C   0  0  0  0  0  0  0  0  0  0  0  0
   56.0730   27.6260   45.6080 O   0  0  0  0  0  0  0  0  0  0  0  0
   56.8860   28.5610   45.1690 C   0  0  0  0  0  0  0  0  0  0  0  0
   56.4680   29.9260   44.8200 C   0  0  0  0  0  0  0  0  0  0  0  0
   55.3080   30.1130   44.3620 O   0  0  0  0  0  0  0  0  0  0  0  0
   57.3630   31.0410   44.9710 N   0  0  0  0  0  0  0  0  0  0  0  0
   57.3950   32.0820   43.9330 C   0  0  0  0  0  0  0  0  0  0  0  0
   58.0744   31.7642   43.1284 H   0  0  0  0  0  0  0  0  0  0  0  0
   56.3732   32.2200   43.5497 H   0  0  0  0  0  0  0  0  0  0  0  0
   57.8830   33.4210   44.4980 C   0  0  0  0  0  0  0  0  0  0  0  0
   57.9767   34.1424   43.6729 H   0  0  0  0  0  0  0  0  0  0  0  0
   57.1502   33.7644   45.2431 H   0  0  0  0  0  0  0  0  0  0  0  0
   59.2560   33.2840   45.2020 C   0  0  0  0  0  0  0  0  0  0  0  0
   60.0107   33.2046   44.4057 H   0  0  0  0  0  0  0  0  0  0  0  0
   59.5740   34.5360   46.0540 C   0  0  0  0  0  0  0  0  0  0  0  0
   59.9038   35.3451   45.3857 H   0  0  0  0  0  0  0  0  0  0  0  0
   58.6602   34.8152   46.5990 H   0  0  0  0  0  0  0  0  0  0  0  0
   60.6590   34.2720   47.0710 C   0  0  0  0  0  0  0  0  0  0  0  0
   61.9360   33.8520   46.6570 C   0  0  0  0  0  0  0  0  0  0  0  0
   62.1598   33.7545   45.5844 H   0  0  0  0  0  0  0  0  0  0  0  0
   62.9220   33.5580   47.6040 C   0  0  0  0  0  0  0  0  0  0  0  0
   63.9200   33.2337   47.2742 H   0  0  0  0  0  0  0  0  0  0  0  0
   62.6430   33.6750   48.9670 C   0  0  0  0  0  0  0  0  0  0  0  0
   63.4187   33.4377   49.7099 H   0  0  0  0  0  0  0  0  0  0  0  0
   61.3770   34.0940   49.3870 C   0  0  0  0  0  0  0  0  0  0  0  0
   61.1585   34.1897   50.4608 H   0  0  0  0  0  0  0  0  0  0  0  0
   60.3870   34.3920   48.4430 C   0  0  0  0  0  0  0  0  0  0  0  0
   59.3923   34.7214   48.7776 H   0  0  0  0  0  0  0  0  0  0  0  0
   59.3650   31.9850   46.0570 C   0  0  0  0  0  0  0  0  0  0  0  0
   60.0500   31.2901   45.5492 H   0  0  0  0  0  0  0  0  0  0  0  0
   59.7329   32.2807   47.0506 H   0  0  0  0  0  0  0  0  0  0  0  0
   58.0210   31.2770   46.2650 C   0  0  0  0  0  0  0  0  0  0  0  0
   58.1924   30.3129   46.7662 H   0  0  0  0  0  0  0  0  0  0  0  0
   57.3731   31.9140   46.8851 H   0  0  0  0  0  0  0  0  0  0  0  0
   58.1810   28.0830   45.1120 C   0  0  0  0  0  0  0  0  0  0  0  0
   59.0767   28.6302   44.7829 H   0  0  0  0  0  0  0  0  0  0  0  0
   58.1180   26.7720   45.5550 C   0  0  0  0  0  0  0  0  0  0  0  0
   59.1490   25.9120   45.6520 C   0  0  0  0  0  0  0  0  0  0  0  0
   59.0568   24.9145   45.1976 H   0  0  0  0  0  0  0  0  0  0  0  0
   60.4260   26.2760   46.3650 C   0  0  0  0  0  0  0  0  0  0  0  0
   60.9639   25.3514   46.6214 H   0  0  0  0  0  0  0  0  0  0  0  0
   61.0186   26.9116   45.6906 H   0  0  0  0  0  0  0  0  0  0  0  0
   60.1730   27.0550   47.6280 C   0  0  0  0  0  0  0  0  0  0  0  0
   59.8680   26.4130   48.6730 O   0  0  0  0  0  0  0  0  0  0  0  0
   60.2100   28.5010   47.6580 N   0  0  0  0  0  0  0  0  0  0  0  0
   59.6920   29.2070   48.8370 C   0  0  0  0  0  0  0  0  0  0  0  0
   60.0552   28.7120   49.7497 H   0  0  0  0  0  0  0  0  0  0  0  0
   60.0406   30.2502   48.8222 H   0  0  0  0  0  0  0  0  0  0  0  0
   58.5923   29.1876   48.8222 H   0  0  0  0  0  0  0  0  0  0  0  0
   60.7580   29.2680   46.5310 C   0  0  0  0  0  0  0  0  0  0  0  0
   61.3572   30.1067   46.9151 H   0  0  0  0  0  0  0  0  0  0  0  0
   61.3943   28.6136   45.9171 H   0  0  0  0  0  0  0  0  0  0  0  0
   59.9327   29.6579   45.9171 H   0  0  0  0  0  0  0  0  0  0  0  0
  1  2  1  0
  2  3  1  0
  2  4  2  0
  4  5  1  0
  5  6  1  0
  6  7  1  0
  7  8  2  0
  7  9  1  0
  9 10  1  0
 10 11  1  0
 10 12  1  0
 10 13  1  0
 13 14  1  0
 13 15  1  0
 13 16  1  0
 16 17  1  0
 16 18  1  0
 18 19  1  0
 18 20  1  0
 18 21  1  0
 21 22  2  0
 22 23  1  0
 22 24  1  0
 24 25  1  0
 24 26  2  0
 26 27  1  0
 26 28  1  0
 28 29  1  0
 28 30  2  0
 30 31  1  0
 16 32  1  0
 32 33  1  0
 32 34  1  0
 32 35  1  0
 35 36  1  0
 35 37  1  0
  6 38  2  0
 38 39  1  0
 38 40  1  0
 40 41  2  0
 41 42  1  0
 41 43  1  0
 43 44  1  0
 43 45  1  0
 43 46  1  0
 46 47  2  0
 46 48  1  0
 48 49  1  0
 49 50  1  0
 49 51  1  0
 49 52  1  0
 48 53  1  0
 53 54  1  0
 53 55  1  0
 53 56  1  0
 40  4  1  0
 35  9  1  0
 30 21  1  0
M  END
>  <UniqueID>  (83) 
79

>  <SMILES>  (83) 
C=c1oc(C(=O)N2CCC(Cc3ccccc3)CC2)c/c1=C\CC(=O)N(C)C

>  <Energy>  (83) 
85.81608508502545

>  <Genealogy>  (83) 
C=c1oc(C(=O)N2CCC(Cc3ccccc3)CC2)c/c1=C\CC(=O)N(C)C (cis-trans isomerization)
C=c1oc(C(=O)N2CCC(Cc3ccccc3)CC2)c/c1=C\CC(=O)N(C)C (3D coordinates assigned)
C=c1oc(C(=O)N2CCC(Cc3ccccc3)CC2)c/c1=C\CC(=O)N(C)C (nonaromatic ring conformer: 85.81608508502545 kcal/mol)

>  <smiles>  (83) 
C=c1oc(C(=O)N2CCC(Cc3ccccc3)CC2)cc1=CCC(=O)N(C)C

>  <score_type>  (83) 
oracle

>  <origin>  (83) 
adg

>  <m_score__min__energy>  (83) 
-9.8399999999999999

>  <m_primary>  (83) 
energy

$$$$
83:0
     RDKit          3D

 52 54  0  0  0  0  0  0  0  0999 V2000
   59.5481   28.4628   47.9221 H   0  0  0  0  0  0  0  0  0  0  0  0
   59.0330   27.9740   47.0820 C   0  0  0  0  0  0  0  0  0  0  0  0
   58.9747   26.8765   47.0361 H   0  0  0  0  0  0  0  0  0  0  0  0
   58.4740   28.7190   46.1100 C   0  0  0  0  0  0  0  0  0  0  0  0
   57.7950   28.2110   44.9960 C   0  0  0  0  0  0  0  0  0  0  0  0
   57.5860   26.9170   44.6810 C   0  0  0  0  0  0  0  0  0  0  0  0
   57.7770   26.6025   43.6444 H   0  0  0  0  0  0  0  0  0  0  0  0
   57.1170   25.8940   45.6380 C   0  0  0  0  0  0  0  0  0  0  0  0
   55.8760   25.8520   46.2330 C   0  0  0  0  0  0  0  0  0  0  0  0
   54.8200   26.7140   45.9660 O   0  0  0  0  0  0  0  0  0  0  0  0
   55.8150   24.8490   47.1300 N   0  0  0  0  0  0  0  0  0  0  0  0
   57.0520   24.3140   47.0640 C   0  0  0  0  0  0  0  0  0  0  0  0
   57.4150   23.3430   47.7780 O   0  0  0  0  0  0  0  0  0  0  0  0
   57.8700   24.9230   46.1830 N   0  0  0  0  0  0  0  0  0  0  0  0
   58.8800   24.7170   46.0170 H   0  0  0  0  0  0  0  0  0  0  0  0
   57.3070   29.3060   44.3100 C   0  0  0  0  0  0  0  0  0  0  0  0
   56.7152   29.2865   43.3830 H   0  0  0  0  0  0  0  0  0  0  0  0
   57.7020   30.4280   45.0070 C   0  0  0  0  0  0  0  0  0  0  0  0
   57.3120   31.8160   44.5900 C   0  0  0  0  0  0  0  0  0  0  0  0
   57.1388   32.4325   45.4844 H   0  0  0  0  0  0  0  0  0  0  0  0
   58.1204   32.2593   43.9900 H   0  0  0  0  0  0  0  0  0  0  0  0
   56.3910   31.7734   43.9900 H   0  0  0  0  0  0  0  0  0  0  0  0
   58.4560   30.0860   46.0880 N   0  0  0  0  0  0  0  0  0  0  0  0
   59.0490   30.9890   47.1070 C   0  0  1  0  0  0  0  0  0  0  0  0
   58.4868   31.9345   47.1032 H   0  0  0  0  0  0  0  0  0  0  0  0
   58.8900   30.4470   48.5360 C   0  0  0  0  0  0  0  0  0  0  0  0
   59.1236   31.2431   49.2582 H   0  0  0  0  0  0  0  0  0  0  0  0
   57.8545   30.1078   48.6864 H   0  0  0  0  0  0  0  0  0  0  0  0
   59.5781   29.6021   48.6864 H   0  0  0  0  0  0  0  0  0  0  0  0
   60.5110   31.3200   46.7350 C   0  0  0  0  0  0  0  0  0  0  0  0
   61.1674   30.9205   47.5221 H   0  0  0  0  0  0  0  0  0  0  0  0
   60.7015   30.8625   45.7529 H   0  0  0  0  0  0  0  0  0  0  0  0
   60.7940   32.8340   46.5870 C   0  0  0  0  0  0  0  0  0  0  0  0
   61.1914   33.0148   45.5774 H   0  0  0  0  0  0  0  0  0  0  0  0
   59.8422   33.3554   46.7664 H   0  0  0  0  0  0  0  0  0  0  0  0
   61.8100   33.3870   47.6170 C   0  0  0  0  0  0  0  0  0  0  0  0
   62.0955   34.3999   47.2968 H   0  0  0  0  0  0  0  0  0  0  0  0
   63.0700   32.4980   47.6500 C   0  0  0  0  0  0  0  0  0  0  0  0
   62.7909   31.4986   48.0152 H   0  0  0  0  0  0  0  0  0  0  0  0
   63.4786   32.4471   46.6300 H   0  0  0  0  0  0  0  0  0  0  0  0
   64.1590   33.0800   48.5730 C   0  0  0  0  0  0  0  0  0  0  0  0
   64.7655   32.2492   48.9628 H   0  0  0  0  0  0  0  0  0  0  0  0
   64.7527   33.7827   47.9700 H   0  0  0  0  0  0  0  0  0  0  0  0
   63.5930   33.8730   49.7670 C   0  0  0  0  0  0  0  0  0  0  0  0
   64.2797   33.7717   50.6204 H   0  0  0  0  0  0  0  0  0  0  0  0
   63.4943   34.9260   49.4646 H   0  0  0  0  0  0  0  0  0  0  0  0
   62.2100   33.3620   50.1790 C   0  0  0  0  0  0  0  0  0  0  0  0
   62.2876   32.2983   50.4483 H   0  0  0  0  0  0  0  0  0  0  0  0
   61.8628   33.9585   51.0355 H   0  0  0  0  0  0  0  0  0  0  0  0
   61.1870   33.5160   49.0360 C   0  0  0  0  0  0  0  0  0  0  0  0
   60.4190   32.7368   49.1501 H   0  0  0  0  0  0  0  0  0  0  0  0
   60.7701   34.5310   49.1127 H   0  0  0  0  0  0  0  0  0  0  0  0
  1  2  1  0
  2  3  1  0
  2  4  2  0
  4  5  1  0
  5  6  2  0
  6  7  1  0
  6  8  1  0
  8  9  2  0
  9 10  1  0
  9 11  1  0
 11 12  1  0
 12 13  2  0
 12 14  1  0
 14 15  1  0
  5 16  1  0
 16 17  1  0
 16 18  2  0
 18 19  1  0
 19 20  1  0
 19 21  1  0
 19 22  1  0
 18 23  1  0
 23 24  1  0
 24 25  1  1
 24 26  1  0
 26 27  1  0
 26 28  1  0
 26 29  1  0
 24 30  1  0
 30 31  1  0
 30 32  1  0
 30 33  1  0
 33 34  1  0
 33 35  1  0
 33 36  1  0
 36 37  1  0
 36 38  1  0
 38 39  1  0
 38 40  1  0
 38 41  1  0
 41 42  1  0
 41 43  1  0
 41 44  1  0
 44 45  1  0
 44 46  1  0
 44 47  1  0
 47 48  1  0
 47 49  1  0
 47 50  1  0
 50 51  1  0
 50 52  1  0
 23  4  1  0
 50 36  1  0
 14  8  1  0
M  CHG  2  10  -1  11  -1
M  END
>  <UniqueID>  (84) 
80

>  <SMILES>  (84) 
C=c1/c(=C/c2[nH]c(=O)[n-]c2[O-])cc(C)n1[C@@H](C)CCC1CCCCC1

>  <Energy>  (84) 
121.05894818742755

>  <Genealogy>  (84) 
C=c1c(=Cc2[nH]c(=O)[n-]c2[O-])cc(C)n1C(C)CCC1CCCCC1 (protonated)
C=c1c(=Cc2[nH]c(=O)[n-]c2[O-])cc(C)n1[C@@H](C)CCC1CCCCC1 (chirality)
C=c1/c(=C/c2[nH]c(=O)[n-]c2[O-])cc(C)n1[C@@H](C)CCC1CCCCC1 (cis-trans isomerization)
C=c1/c(=C/c2[nH]c(=O)[n-]c2[O-])cc(C)n1[C@@H](C)CCC1CCCCC1 (3D coordinates assigned)
C=c1/c(=C/c2[nH]c(=O)[n-]c2[O-])cc(C)n1[C@@H](C)CCC1CCCCC1 (nonaromatic ring conformer: 121.05894818742755 kcal/mol)

>  <smiles>  (84) 
C=c1c(=Cc2[nH]c(=O)[nH]c2O)cc(C)n1C(C)CCC1CCCCC1

>  <score_type>  (84) 
oracle

>  <origin>  (84) 
adg

>  <m_score__min__energy>  (84) 
-14.94

>  <m_primary>  (84) 
energy

$$$$
84:0
     RDKit          3D

 37 39  0  0  0  0  0  0  0  0999 V2000
   54.4150   30.1470   44.8850 H   0  0  0  0  0  0  0  0  0  0  0  0
   55.1690   29.5730   44.4490 N   0  0  0  0  0  0  0  0  0  0  0  0
   56.3320   29.3510   44.9780 C   0  0  0  0  0  0  0  0  0  0  0  0
   56.5340   28.1720   45.6220 N   0  0  0  0  0  0  0  0  0  0  0  0
   57.7110   27.8750   46.2240 C   0  0  0  0  0  0  0  0  0  0  0  0
   57.8466   26.9064   46.7274 H   0  0  0  0  0  0  0  0  0  0  0  0
   58.7520   28.8080   46.2010 C   0  0  0  0  0  0  0  0  0  0  0  0
   60.0710   28.4970   46.8510 C   0  0  0  0  0  0  0  0  0  0  0  0
   59.9041   27.8442   47.7205 H   0  0  0  0  0  0  0  0  0  0  0  0
   60.7220   27.9892   46.1241 H   0  0  0  0  0  0  0  0  0  0  0  0
   60.7280   29.7620   47.3000 C   0  0  0  0  0  0  0  0  0  0  0  0
   61.0970   30.7550   46.4720 N   0  0  0  0  0  0  0  0  0  0  0  0
   61.7010   31.6440   47.2890 C   0  0  0  0  0  0  0  0  0  0  0  0
   62.1209   32.5974   46.9359 H   0  0  0  0  0  0  0  0  0  0  0  0
   61.7410   31.2520   48.5810 N   0  0  0  0  0  0  0  0  0  0  0  0
   61.1280   30.0560   48.5820 C   0  0  0  0  0  0  0  0  0  0  0  0
   60.9719   29.4172   49.4638 H   0  0  0  0  0  0  0  0  0  0  0  0
   58.5720   29.9850   45.5380 N   0  0  0  0  0  0  0  0  0  0  0  0
   59.3590   30.6740   45.5160 H   0  0  0  0  0  0  0  0  0  0  0  0
   57.3940   30.2890   44.9170 C   0  0  0  0  0  0  0  0  0  0  0  0
   57.2560   31.6430   44.2520 C   0  0  0  0  0  0  0  0  0  0  0  0
   58.2327   31.9403   43.8426 H   0  0  0  0  0  0  0  0  0  0  0  0
   56.5035   31.5581   43.4542 H   0  0  0  0  0  0  0  0  0  0  0  0
   56.7840   32.7170   45.2430 C   0  0  0  0  0  0  0  0  0  0  0  0
   56.2399   33.4978   44.6913 H   0  0  0  0  0  0  0  0  0  0  0  0
   56.1322   32.2365   45.9875 H   0  0  0  0  0  0  0  0  0  0  0  0
   57.9450   33.3490   45.9690 C   0  0  0  0  0  0  0  0  0  0  0  0
   58.1710   33.0630   47.3250 C   0  0  0  0  0  0  0  0  0  0  0  0
   57.5266   32.3405   47.8473 H   0  0  0  0  0  0  0  0  0  0  0  0
   59.2120   33.6930   48.0140 C   0  0  0  0  0  0  0  0  0  0  0  0
   59.3887   33.4612   49.0747 H   0  0  0  0  0  0  0  0  0  0  0  0
   60.0290   34.6180   47.3550 C   0  0  0  0  0  0  0  0  0  0  0  0
   60.8479   35.1131   47.8976 H   0  0  0  0  0  0  0  0  0  0  0  0
   59.8050   34.9130   46.0080 C   0  0  0  0  0  0  0  0  0  0  0  0
   60.4469   35.6417   45.4914 H   0  0  0  0  0  0  0  0  0  0  0  0
   58.7670   34.2840   45.3160 C   0  0  0  0  0  0  0  0  0  0  0  0
   58.5923   34.5213   44.2562 H   0  0  0  0  0  0  0  0  0  0  0  0
  1  2  1  0
  2  3  2  0
  3  4  1  0
  4  5  1  0
  5  6  1  0
  5  7  2  0
  7  8  1  0
  8  9  1  0
  8 10  1  0
  8 11  1  0
 11 12  1  0
 12 13  2  0
 13 14  1  0
 13 15  1  0
 15 16  1  0
 16 17  1  0
  7 18  1  0
 18 19  1  0
 18 20  2  0
 20 21  1  0
 21 22  1  0
 21 23  1  0
 21 24  1  0
 24 25  1  0
 24 26  1  0
 24 27  1  0
 27 28  2  0
 28 29  1  0
 28 30  1  0
 30 31  1  0
 30 32  2  0
 32 33  1  0
 32 34  1  0
 34 35  1  0
 34 36  2  0
 36 37  1  0
 20  3  1  0
 36 27  1  0
 16 11  2  0
M  CHG  3   4  -1  15  -1  18   1
M  END
>  <UniqueID>  (85) 
81

>  <SMILES>  (85) 
[H]/N=c1/[n-]cc(Cc2c[n-]cn2)[nH+]c1CCc1ccccc1

>  <Energy>  (85) 
64.5883129930959

>  <Genealogy>  (85) 
N=c1[n-]cc(Cc2c[n-]cn2)[nH+]c1CCc1ccccc1 (protonated)
[H]/N=c1/[n-]cc(Cc2c[n-]cn2)[nH+]c1CCc1ccccc1 (cis-trans isomerization)
[H]/N=c1/[n-]cc(Cc2c[n-]cn2)[nH+]c1CCc1ccccc1 (3D coordinates assigned)
[H]/N=c1/[n-]cc(Cc2c[n-]cn2)[nH+]c1CCc1ccccc1 (optimized conformer: 64.5883129930959 kcal/mol)

>  <smiles>  (85) 
N=c1[nH]cc(Cc2c[nH]cn2)nc1CCc1ccccc1

>  <score_type>  (85) 
oracle

>  <origin>  (85) 
adg

>  <m_score__min__energy>  (85) 
-7.9100000000000001

>  <m_primary>  (85) 
energy

$$$$
85:0
     RDKit          3D

 30 31  0  0  0  0  0  0  0  0999 V2000
   58.0750   22.9760   44.8480 C   0  0  0  0  0  0  0  0  0  0  0  0
   56.7990   23.6790   45.2420 C   0  0  0  0  0  0  0  0  0  0  0  0
   56.8010   24.7800   46.1340 C   0  0  0  0  0  0  0  0  0  0  0  0
   58.0600   25.3280   46.7600 C   0  0  0  0  0  0  0  0  0  0  0  0
   58.4900   26.6090   46.0940 C   0  0  0  0  0  0  0  0  0  0  0  0
   59.8530   26.9250   45.9660 C   0  0  0  0  0  0  0  0  0  0  0  0
   60.2450   28.1110   45.3410 C   0  0  0  0  0  0  0  0  0  0  0  0
   59.2830   28.9960   44.8460 C   0  0  0  0  0  0  0  0  0  0  0  0
   57.9210   28.7020   44.9830 C   0  0  0  0  0  0  0  0  0  0  0  0
   56.7080   29.8080   44.3480 S   0  0  0  0  0  0  0  0  0  0  0  0
   55.1430   29.3260   44.8980 N   0  0  0  0  0  0  0  0  0  0  0  0
   56.7390   29.7930   42.8450 O   0  0  0  0  0  0  0  0  0  0  0  0
   56.9960   31.2050   44.8220 O   0  0  0  0  0  0  0  0  0  0  0  0
   57.5270   27.5080   45.6040 C   0  0  0  0  0  0  0  0  0  0  0  0
   55.6240   25.4000   46.4190 N   0  0  0  0  0  0  0  0  0  0  0  0
   54.4690   25.0090   45.8850 N   0  0  0  0  0  0  0  0  0  0  0  0
   54.4070   23.9710   45.0170 C   0  0  0  0  0  0  0  0  0  0  0  0
   53.2990   23.6320   44.5250 O   0  0  0  0  0  0  0  0  0  0  0  0
   55.5740   23.2900   44.6700 C   0  0  0  0  0  0  0  0  0  0  0  0
   55.5120   22.2380   43.7600 O   0  0  0  0  0  0  0  0  0  0  0  0
   58.6222   22.6746   45.7534 H   0  0  0  0  0  0  0  0  0  0  0  0
   57.8330   22.0839   44.2517 H   0  0  0  0  0  0  0  0  0  0  0  0
   58.6998   23.6572   44.2517 H   0  0  0  0  0  0  0  0  0  0  0  0
   57.8741   25.5235   47.8264 H   0  0  0  0  0  0  0  0  0  0  0  0
   58.8617   24.5854   46.6343 H   0  0  0  0  0  0  0  0  0  0  0  0
   60.6145   26.2356   46.3596 H   0  0  0  0  0  0  0  0  0  0  0  0
   61.3139   28.3493   45.2380 H   0  0  0  0  0  0  0  0  0  0  0  0
   59.5966   29.9252   44.3479 H   0  0  0  0  0  0  0  0  0  0  0  0
   54.7140   28.7550   44.1340 H   0  0  0  0  0  0  0  0  0  0  0  0
   56.4574   27.2734   45.7083 H   0  0  0  0  0  0  0  0  0  0  0  0
  1  2  1  0
  2  3  1  0
  3  4  1  0
  4  5  1  0
  5  6  2  0
  6  7  1  0
  7  8  2  0
  8  9  1  0
  9 10  1  0
 10 11  1  0
 10 12  2  0
 10 13  2  0
  9 14  2  0
  3 15  2  0
 15 16  1  0
 16 17  1  0
 17 18  2  0
 17 19  1  0
 19 20  1  0
 19  2  2  0
 14  5  1  0
  1 21  1  0
  1 22  1  0
  1 23  1  0
  4 24  1  0
  4 25  1  0
  6 26  1  0
  7 27  1  0
  8 28  1  0
 11 29  1  0
 14 30  1  0
M  CHG  3  11  -1  16  -1  20  -1
M  END
>  <UniqueID>  (86) 
82

>  <SMILES>  (86) 
Cc1c(Cc2cccc(S([NH-])(=O)=O)c2)n[n-]c(=O)c1[O-]

>  <Energy>  (86) 
32.583422094301426

>  <Genealogy>  (86) 
Cc1c(Cc2cccc(S([NH-])(=O)=O)c2)n[n-]c(=O)c1[O-] (protonated)
Cc1c(Cc2cccc(S([NH-])(=O)=O)c2)n[n-]c(=O)c1[O-] (3D coordinates assigned)
Cc1c(Cc2cccc(S([NH-])(=O)=O)c2)n[n-]c(=O)c1[O-] (optimized conformer: 32.583422094301426 kcal/mol)

>  <smiles>  (86) 
Cc1c(Cc2cccc(S(N)(=O)=O)c2)n[nH]c(=O)c1O

>  <score_type>  (86) 
oracle

>  <origin>  (86) 
adg

>  <m_score__min__energy>  (86) 
-15.1

>  <m_primary>  (86) 
energy

$$$$
86:0
     RDKit          3D

 58 61  0  0  0  0  0  0  0  0999 V2000
   55.7770   29.6830   44.3860 C   0  0  0  0  0  0  0  0  0  0  0  0
   56.5970   30.8990   44.1230 C   0  0  0  0  0  0  0  0  0  0  0  0
   57.2720   30.9500   42.9070 C   0  0  0  0  0  0  0  0  0  0  0  0
   58.0570   32.0600   42.6020 C   0  0  0  0  0  0  0  0  0  0  0  0
   58.1390   33.0960   43.5430 C   0  0  0  0  0  0  0  0  0  0  0  0
   57.4400   33.0020   44.7550 C   0  0  0  0  0  0  0  0  0  0  0  0
   57.5930   34.1410   45.6810 C   0  0  0  0  0  0  0  0  0  0  0  0
   58.8300   34.1100   46.4790 C   0  0  0  0  0  0  0  0  0  0  0  0
   59.7030   33.0160   46.5160 C   0  0  0  0  0  0  0  0  0  0  0  0
   60.7470   33.3580   47.3780 C   0  0  0  0  0  0  0  0  0  0  0  0
   61.9060   32.5140   47.7410 C   0  0  0  0  0  0  0  0  0  0  0  0
   62.5540   32.0780   46.7590 O   0  0  0  0  0  0  0  0  0  0  0  0
   62.2050   32.2550   49.0980 N   0  0  0  0  0  0  0  0  0  0  0  0
   61.3620   31.2860   49.7870 C   0  0  0  0  0  0  0  0  0  0  0  0
   60.4780   30.5640   48.8460 C   0  0  0  0  0  0  0  0  0  0  0  0
   59.2580   30.5200   49.1200 O   0  0  0  0  0  0  0  0  0  0  0  0
   61.0460   29.9710   47.7050 N   0  0  0  0  0  0  0  0  0  0  0  0
   60.3470   29.2450   46.7100 C   0  0  0  0  0  0  0  0  0  0  0  0
   59.9890   29.7020   45.4860 C   0  0  0  0  0  0  0  0  0  0  0  0
   59.2980   28.9320   44.5390 C   0  0  0  0  0  0  0  0  0  0  0  0
   58.9500   27.6320   44.8420 C   0  0  0  0  0  0  0  0  0  0  0  0
   59.3120   27.1660   46.0870 C   0  0  0  0  0  0  0  0  0  0  0  0
   59.9920   27.9270   47.0170 C   0  0  0  0  0  0  0  0  0  0  0  0
   60.3470   27.3310   48.3500 C   0  0  0  0  0  0  0  0  0  0  0  0
   63.2440   32.8630   49.8450 C   0  0  0  0  0  0  0  0  0  0  0  0
   63.0490   33.8340   50.8020 C   0  0  0  0  0  0  0  0  0  0  0  0
   64.1110   34.4160   51.5020 C   0  0  0  0  0  0  0  0  0  0  0  0
   65.4040   34.0260   51.2490 C   0  0  0  0  0  0  0  0  0  0  0  0
   65.6280   33.0660   50.3070 C   0  0  0  0  0  0  0  0  0  0  0  0
   64.5690   32.4940   49.6170 C   0  0  0  0  0  0  0  0  0  0  0  0
   60.4530   34.5970   47.7950 N   0  0  0  0  0  0  0  0  0  0  0  0
   59.3490   35.0650   47.2940 N   0  0  0  0  0  0  0  0  0  0  0  0
   56.6970   31.9140   45.0080 N   0  0  0  0  0  0  0  0  0  0  0  0
   55.6776   29.5355   45.4715 H   0  0  0  0  0  0  0  0  0  0  0  0
   54.7794   29.8100   43.9403 H   0  0  0  0  0  0  0  0  0  0  0  0
   56.2687   28.8057   43.9403 H   0  0  0  0  0  0  0  0  0  0  0  0
   57.1863   30.1192   42.1912 H   0  0  0  0  0  0  0  0  0  0  0  0
   58.5989   32.1219   41.6467 H   0  0  0  0  0  0  0  0  0  0  0  0
   58.7525   33.9839   43.3303 H   0  0  0  0  0  0  0  0  0  0  0  0
   57.5872   35.0688   45.0901 H   0  0  0  0  0  0  0  0  0  0  0  0
   56.7567   34.0831   46.3932 H   0  0  0  0  0  0  0  0  0  0  0  0
   59.5883   32.0679   45.9701 H   0  0  0  0  0  0  0  0  0  0  0  0
   62.0046   30.5574   50.3029 H   0  0  0  0  0  0  0  0  0  0  0  0
   60.7291   31.8299   50.5037 H   0  0  0  0  0  0  0  0  0  0  0  0
   62.0880   30.0820   47.5930 H   0  0  0  0  0  0  0  0  0  0  0  0
   60.2553   30.7355   45.2197 H   0  0  0  0  0  0  0  0  0  0  0  0
   59.0353   29.3619   43.5612 H   0  0  0  0  0  0  0  0  0  0  0  0
   58.4094   26.9978   44.1240 H   0  0  0  0  0  0  0  0  0  0  0  0
   59.0451   26.1329   46.3543 H   0  0  0  0  0  0  0  0  0  0  0  0
   59.9628   27.9760   49.1540 H   0  0  0  0  0  0  0  0  0  0  0  0
   59.8974   26.3308   48.4359 H   0  0  0  0  0  0  0  0  0  0  0  0
   61.4406   27.2500   48.4359 H   0  0  0  0  0  0  0  0  0  0  0  0
   62.0230   34.1631   51.0235 H   0  0  0  0  0  0  0  0  0  0  0  0
   63.9102   35.1892   52.2582 H   0  0  0  0  0  0  0  0  0  0  0  0
   66.2432   34.4800   51.7965 H   0  0  0  0  0  0  0  0  0  0  0  0
   66.6571   32.7423   50.0923 H   0  0  0  0  0  0  0  0  0  0  0  0
   64.7824   31.7218   48.8632 H   0  0  0  0  0  0  0  0  0  0  0  0
   58.9410   35.9920   47.4830 H   0  0  0  0  0  0  0  0  0  0  0  0
  1  2  1  0
  2  3  2  0
  3  4  1  0
  4  5  2  0
  5  6  1  0
  6  7  1  0
  7  8  1  0
  8  9  2  0
  9 10  1  0
 10 11  1  0
 11 12  2  0
 11 13  1  0
 13 14  1  0
 14 15  1  0
 15 16  2  0
 15 17  1  0
 17 18  1  0
 18 19  2  0
 19 20  1  0
 20 21  2  0
 21 22  1  0
 22 23  2  0
 23 24  1  0
 13 25  1  0
 25 26  2  0
 26 27  1  0
 27 28  2  0
 28 29  1  0
 29 30  2  0
 10 31  2  0
 31 32  1  0
  6 33  2  0
 33  2  1  0
 32  8  1  0
 23 18  1  0
 30 25  1  0
  1 34  1  0
  1 35  1  0
  1 36  1  0
  3 37  1  0
  4 38  1  0
  5 39  1  0
  7 40  1  0
  7 41  1  0
  9 42  1  0
 14 43  1  0
 14 44  1  0
 17 45  1  0
 19 46  1  0
 20 47  1  0
 21 48  1  0
 22 49  1  0
 24 50  1  0
 24 51  1  0
 24 52  1  0
 26 53  1  0
 27 54  1  0
 28 55  1  0
 29 56  1  0
 30 57  1  0
 32 58  1  0
M  END
>  <smiles>  (87) 
Cc1cccc(Cc2cc(C(=O)N(CC(=O)Nc3ccccc3C)c3ccccc3)n[nH]2)n1

>  <score_type>  (87) 
oracle

>  <origin>  (87) 
adg

>  <m_score__min__energy>  (87) 
-9.2200000000000006

>  <m_primary>  (87) 
energy

$$$$
87:0
     RDKit          3D

 41 43  0  0  0  0  0  0  0  0999 V2000
   55.1440   27.4910   45.4410 H   0  0  0  0  0  0  0  0  0  0  0  0
   55.1140   26.6360   45.9820 O   0  0  0  0  0  0  0  0  0  0  0  0
   56.2640   25.8900   46.2370 C   0  0  0  0  0  0  0  0  0  0  0  0
   57.5070   26.3810   46.5910 C   0  0  0  0  0  0  0  0  0  0  0  0
   57.9070   27.7900   46.7470 C   0  0  0  0  0  0  0  0  0  0  0  0
   58.4548   28.0762   47.6570 H   0  0  0  0  0  0  0  0  0  0  0  0
   57.6410   28.7440   45.8420 C   0  0  0  0  0  0  0  0  0  0  0  0
   58.0840   30.0610   45.8670 C   0  0  0  0  0  0  0  0  0  0  0  0
   58.7379   30.5243   46.6205 H   0  0  0  0  0  0  0  0  0  0  0  0
   57.5370   30.6710   44.7540 C   0  0  0  0  0  0  0  0  0  0  0  0
   57.7310   32.1000   44.3510 C   0  0  0  0  0  0  0  0  0  0  0  0
   57.8161   32.7265   45.2511 H   0  0  0  0  0  0  0  0  0  0  0  0
   58.6497   32.1908   43.7529 H   0  0  0  0  0  0  0  0  0  0  0  0
   56.8697   32.4325   43.7529 H   0  0  0  0  0  0  0  0  0  0  0  0
   56.7800   29.7080   44.1040 C   0  0  0  0  0  0  0  0  0  0  0  0
   56.0770   29.8790   42.9830 C   0  0  0  0  0  0  0  0  0  0  0  0
   56.0668   30.8594   42.4844 H   0  0  0  0  0  0  0  0  0  0  0  0
   55.5076   29.0395   42.5574 H   0  0  0  0  0  0  0  0  0  0  0  0
   56.8430   28.5400   44.7730 N   0  0  0  0  0  0  0  0  0  0  0  0
   56.3650   27.6460   44.5120 H   0  0  0  0  0  0  0  0  0  0  0  0
   58.3330   25.3480   46.8600 N   0  0  0  0  0  0  0  0  0  0  0  0
   57.5730   24.2580   46.6230 C   0  0  0  0  0  0  0  0  0  0  0  0
   58.0070   23.0840   46.7700 O   0  0  0  0  0  0  0  0  0  0  0  0
   56.3120   24.5440   46.2290 N   0  0  0  0  0  0  0  0  0  0  0  0
   55.2250   23.5910   45.9560 C   0  0  0  0  0  0  0  0  0  0  0  0
   55.6598   22.6394   45.6161 H   0  0  0  0  0  0  0  0  0  0  0  0
   54.4420   23.2880   47.2490 C   0  0  0  0  0  0  0  0  0  0  0  0
   55.0800   22.7051   47.9296 H   0  0  0  0  0  0  0  0  0  0  0  0
   54.1528   24.2394   47.7194 H   0  0  0  0  0  0  0  0  0  0  0  0
   53.1740   22.4860   46.9370 C   0  0  0  0  0  0  0  0  0  0  0  0
   53.4675   21.5230   46.4937 H   0  0  0  0  0  0  0  0  0  0  0  0
   52.6270   22.3506   47.8817 H   0  0  0  0  0  0  0  0  0  0  0  0
   52.2310   23.2150   45.9540 C   0  0  0  0  0  0  0  0  0  0  0  0
   51.8915   22.4916   45.1980 H   0  0  0  0  0  0  0  0  0  0  0  0
   51.4006   23.6227   46.5491 H   0  0  0  0  0  0  0  0  0  0  0  0
   52.8880   24.4020   45.2290 C   0  0  0  0  0  0  0  0  0  0  0  0
   52.2903   24.6506   44.3396 H   0  0  0  0  0  0  0  0  0  0  0  0
   52.9281   25.2496   45.9290 H   0  0  0  0  0  0  0  0  0  0  0  0
   54.3220   24.0800   44.7890 C   0  0  0  0  0  0  0  0  0  0  0  0
   54.2840   23.2920   44.0225 H   0  0  0  0  0  0  0  0  0  0  0  0
   54.7624   25.0110   44.4027 H   0  0  0  0  0  0  0  0  0  0  0  0
  1  2  1  0
  2  3  1  0
  3  4  2  0
  4  5  1  0
  5  6  1  0
  5  7  2  0
  7  8  1  0
  8  9  1  0
  8 10  2  0
 10 11  1  0
 11 12  1  0
 11 13  1  0
 11 14  1  0
 10 15  1  0
 15 16  2  0
 16 17  1  0
 16 18  1  0
 15 19  1  0
 19 20  1  0
  4 21  1  0
 21 22  1  0
 22 23  2  0
 22 24  1  0
 24 25  1  0
 25 26  1  0
 25 27  1  0
 27 28  1  0
 27 29  1  0
 27 30  1  0
 30 31  1  0
 30 32  1  0
 30 33  1  0
 33 34  1  0
 33 35  1  0
 33 36  1  0
 36 37  1  0
 36 38  1  0
 36 39  1  0
 39 40  1  0
 39 41  1  0
 24  3  1  0
 39 25  1  0
 19  7  1  0
M  CHG  1  21  -1
M  END
>  <UniqueID>  (88) 
83

>  <SMILES>  (88) 
C=c1[nH]/c(=C/c2[n-]c(=O)n(C3CCCCC3)c2O)cc1C

>  <Energy>  (88) 
107.32213022957137

>  <Genealogy>  (88) 
C=c1[nH]c(=Cc2[n-]c(=O)n(C3CCCCC3)c2O)cc1C (protonated)
C=c1[nH]/c(=C/c2[n-]c(=O)n(C3CCCCC3)c2O)cc1C (cis-trans isomerization)
C=c1[nH]/c(=C/c2[n-]c(=O)n(C3CCCCC3)c2O)cc1C (3D coordinates assigned)
C=c1[nH]/c(=C/c2[n-]c(=O)n(C3CCCCC3)c2O)cc1C (nonaromatic ring conformer: 107.32213022957137 kcal/mol)

>  <smiles>  (88) 
C=c1[nH]c(=Cc2[nH]c(=O)n(C3CCCCC3)c2O)cc1C

>  <score_type>  (88) 
oracle

>  <origin>  (88) 
adg

>  <m_score__min__energy>  (88) 
-10

>  <m_primary>  (88) 
energy

$$$$
88:0
     RDKit          3D

 58 61  0  0  0  0  0  0  0  0999 V2000
   56.6250   26.7942   46.5871 H   0  0  0  0  0  0  0  0  0  0  0  0
   56.9550   26.4830   45.5850 C   0  0  0  0  0  0  0  0  0  0  0  0
   56.6170   25.2540   45.1130 N   0  0  0  0  0  0  0  0  0  0  0  0
   57.0100   24.8170   43.8830 C   0  0  0  0  0  0  0  0  0  0  0  0
   56.6640   23.6420   43.4410 N   0  0  0  0  0  0  0  0  0  0  0  0
   56.3050   22.4990   44.2350 C   0  0  0  0  0  0  0  0  0  0  0  0
   56.3010   21.3650   43.6880 O   0  0  0  0  0  0  0  0  0  0  0  0
   56.0240   22.5990   45.6870 C   0  0  0  0  0  0  0  0  0  0  0  0
   57.0670   22.3830   46.6050 C   0  0  0  0  0  0  0  0  0  0  0  0
   58.0910   22.2189   46.2382 H   0  0  0  0  0  0  0  0  0  0  0  0
   56.8140   22.3750   47.9790 C   0  0  0  0  0  0  0  0  0  0  0  0
   57.6399   22.2211   48.6890 H   0  0  0  0  0  0  0  0  0  0  0  0
   55.5150   22.5620   48.4510 C   0  0  0  0  0  0  0  0  0  0  0  0
   55.3155   22.5433   49.5326 H   0  0  0  0  0  0  0  0  0  0  0  0
   54.4670   22.7730   47.5520 C   0  0  0  0  0  0  0  0  0  0  0  0
   53.4424   22.9064   47.9294 H   0  0  0  0  0  0  0  0  0  0  0  0
   54.7110   22.8160   46.1740 C   0  0  0  0  0  0  0  0  0  0  0  0
   53.6310   23.0670   45.3190 O   0  0  0  0  0  0  0  0  0  0  0  0
   53.0500   24.3300   45.1540 C   0  0  0  0  0  0  0  0  0  0  0  0
   53.6210   25.3660   45.5920 O   0  0  0  0  0  0  0  0  0  0  0  0
   51.7140   24.4470   44.5040 C   0  0  0  0  0  0  0  0  0  0  0  0
   50.9347   24.5152   45.2773 H   0  0  0  0  0  0  0  0  0  0  0  0
   51.6890   25.3508   43.8775 H   0  0  0  0  0  0  0  0  0  0  0  0
   51.5322   23.5613   43.8775 H   0  0  0  0  0  0  0  0  0  0  0  0
   57.7690   25.6600   43.0660 C   0  0  0  0  0  0  0  0  0  0  0  0
   58.0831   25.3252   42.0664 H   0  0  0  0  0  0  0  0  0  0  0  0
   58.1260   26.9280   43.5250 C   0  0  0  0  0  0  0  0  0  0  0  0
   58.7250   27.5938   42.8863 H   0  0  0  0  0  0  0  0  0  0  0  0
   57.7230   27.3570   44.8000 C   0  0  0  0  0  0  0  0  0  0  0  0
   58.0820   28.6670   45.2860 N   0  0  0  0  0  0  0  0  0  0  0  0
   58.6050   29.6790   44.3560 C   0  0  0  0  0  0  0  0  0  0  0  0
   59.7029   29.6131   44.3400 H   0  0  0  0  0  0  0  0  0  0  0  0
   58.1800   29.4786   43.3614 H   0  0  0  0  0  0  0  0  0  0  0  0
   58.1970   31.1110   44.7700 C   0  0  0  0  0  0  0  0  0  0  0  0
   59.0227   31.7937   44.5205 H   0  0  0  0  0  0  0  0  0  0  0  0
   57.2737   31.3540   44.2237 H   0  0  0  0  0  0  0  0  0  0  0  0
   57.8960   31.2480   46.2150 N   0  0  0  0  0  0  0  0  0  0  0  0
   57.9310   32.6680   46.6580 C   0  0  0  0  0  0  0  0  0  0  0  0
   57.1890   32.7453   47.4664 H   0  0  0  0  0  0  0  0  0  0  0  0
   59.3180   33.0370   47.2200 C   0  0  0  0  0  0  0  0  0  0  0  0
   59.4237   32.6218   48.2331 H   0  0  0  0  0  0  0  0  0  0  0  0
   60.0976   32.6203   46.5654 H   0  0  0  0  0  0  0  0  0  0  0  0
   59.4670   34.5660   47.2770 C   0  0  0  0  0  0  0  0  0  0  0  0
   58.6883   34.9600   47.9466 H   0  0  0  0  0  0  0  0  0  0  0  0
   60.4892   34.7621   47.6327 H   0  0  0  0  0  0  0  0  0  0  0  0
   59.3480   35.2300   46.0220 O   0  0  0  0  0  0  0  0  0  0  0  0
   58.6450   34.4940   45.0270 C   0  0  0  0  0  0  0  0  0  0  0  0
   58.2611   35.2014   44.2772 H   0  0  0  0  0  0  0  0  0  0  0  0
   59.3554   33.7732   44.5959 H   0  0  0  0  0  0  0  0  0  0  0  0
   57.4620   33.6850   45.5830 C   0  0  0  0  0  0  0  0  0  0  0  0
   56.7363   34.3764   46.0360 H   0  0  0  0  0  0  0  0  0  0  0  0
   57.0022   33.1272   44.7539 H   0  0  0  0  0  0  0  0  0  0  0  0
   58.6710   30.3030   47.0410 C   0  0  0  0  0  0  0  0  0  0  0  0
   59.7405   30.3855   46.7972 H   0  0  0  0  0  0  0  0  0  0  0  0
   58.5354   30.5314   48.1085 H   0  0  0  0  0  0  0  0  0  0  0  0
   58.1790   28.8900   46.7370 C   0  0  0  0  0  0  0  0  0  0  0  0
   58.8843   28.1632   47.1664 H   0  0  0  0  0  0  0  0  0  0  0  0
   57.1796   28.7639   47.1788 H   0  0  0  0  0  0  0  0  0  0  0  0
  1  2  1  0
  2  3  1  0
  3  4  1  0
  4  5  2  0
  5  6  1  0
  6  7  2  0
  6  8  1  0
  8  9  2  0
  9 10  1  0
  9 11  1  0
 11 12  1  0
 11 13  2  0
 13 14  1  0
 13 15  1  0
 15 16  1  0
 15 17  2  0
 17 18  1  0
 18 19  1  0
 19 20  2  0
 19 21  1  0
 21 22  1  0
 21 23  1  0
 21 24  1  0
  4 25  1  0
 25 26  1  0
 25 27  2  0
 27 28  1  0
 27 29  1  0
 29 30  1  0
 30 31  1  0
 31 32  1  0
 31 33  1  0
 31 34  1  0
 34 35  1  0
 34 36  1  0
 34 37  1  0
 37 38  1  0
 38 39  1  0
 38 40  1  0
 40 41  1  0
 40 42  1  0
 40 43  1  0
 43 44  1  0
 43 45  1  0
 43 46  1  0
 46 47  1  0
 47 48  1  0
 47 49  1  0
 47 50  1  0
 50 51  1  0
 50 52  1  0
 37 53  1  0
 53 54  1  0
 53 55  1  0
 53 56  1  0
 56 57  1  0
 56 58  1  0
 29  2  2  0
 56 30  1  0
 17  8  1  0
 50 38  1  0
M  CHG  1   3  -1
M  END
>  <UniqueID>  (89) 
84

>  <SMILES>  (89) 
CC(=O)Oc1ccccc1C(=O)/N=c1/ccc(N2CCN(C3CCOCC3)CC2)c[n-]1

>  <Energy>  (89) 
99.21945882606576

>  <Genealogy>  (89) 
CC(=O)Oc1ccccc1C(=O)N=c1ccc(N2CCN(C3CCOCC3)CC2)c[n-]1 (protonated)
CC(=O)Oc1ccccc1C(=O)/N=c1/ccc(N2CCN(C3CCOCC3)CC2)c[n-]1 (cis-trans isomerization)
CC(=O)Oc1ccccc1C(=O)/N=c1/ccc(N2CCN(C3CCOCC3)CC2)c[n-]1 (3D coordinates assigned)
CC(=O)Oc1ccccc1C(=O)/N=c1/ccc(N2CCN(C3CCOCC3)CC2)c[n-]1 (nonaromatic ring conformer: 99.21945882606576 kcal/mol)

>  <smiles>  (89) 
CC(=O)Oc1ccccc1C(=O)N=c1ccc(N2CCN(C3CCOCC3)CC2)c[nH]1

>  <score_type>  (89) 
oracle

>  <origin>  (89) 
adg

>  <m_score__min__energy>  (89) 
-10.48

>  <m_primary>  (89) 
energy

$$$$
89:0
     RDKit          3D

 60 63  0  0  1  0  0  0  0  0999 V2000
   51.6780   31.8130   51.4850 C   0  0  0  0  0  0  0  0  0  0  0  0
   52.3370   31.1170   52.3870 C   0  0  0  0  0  0  0  0  0  0  0  0
   53.7150   30.7320   52.0620 C   0  0  0  0  0  0  0  0  0  0  0  0
   53.9370   30.3070   50.9140 O   0  0  0  0  0  0  0  0  0  0  0  0
   54.7610   30.8380   53.0150 N   0  0  0  0  0  0  0  0  0  0  0  0
   56.0670   30.4390   52.6070 C   0  0  0  0  0  0  0  0  0  0  0  0
   56.7240   29.3500   53.1380 C   0  0  0  0  0  0  0  0  0  0  0  0
   58.0020   29.0360   52.6750 C   0  0  0  0  0  0  0  0  0  0  0  0
   58.6230   29.7910   51.6990 C   0  0  0  0  0  0  0  0  0  0  0  0
   60.2330   29.4640   51.0600 S   0  0  0  0  0  0  0  0  0  0  0  0
   60.5060   30.2520   49.4790 C   0  0  0  0  0  0  0  0  0  0  0  0
   60.2460   29.5840   48.3490 N   0  0  0  0  0  0  0  0  0  0  0  0
   60.4430   30.1510   47.1510 C   0  0  0  0  0  0  0  0  0  0  0  0
   60.1940   29.5150   46.0580 N   0  0  0  0  0  0  0  0  0  0  0  0
   58.8570   29.4440   45.5210 C   0  0  0  0  0  0  0  0  0  0  0  0
   58.4090   30.4910   44.7320 C   0  0  0  0  0  0  0  0  0  0  0  0
   57.1290   30.4530   44.1990 C   0  0  0  0  0  0  0  0  0  0  0  0
   56.3030   29.3680   44.4580 C   0  0  0  0  0  0  0  0  0  0  0  0
   55.0250   29.3310   43.9260 O   0  0  0  0  0  0  0  0  0  0  0  0
   56.7840   28.3380   45.2510 C   0  0  0  0  0  0  0  0  0  0  0  0
   58.0470   28.3480   45.7920 C   0  0  0  0  0  0  0  0  0  0  0  0
   60.9080   31.4050   47.1280 N   0  0  0  0  0  0  0  0  0  0  0  0
   61.1870   32.1250   48.2470 C   0  0  0  0  0  0  0  0  0  0  0  0
   61.6240   33.2990   48.0540 N   0  0  0  0  0  0  0  0  0  0  0  0
   60.7640   34.4090   47.8880 C   0  0  0  0  0  0  0  0  0  0  0  0
   59.5920   34.2170   47.0090 C   0  0  0  0  0  0  0  0  0  0  0  0
   59.6120   34.6810   45.7000 C   0  0  0  0  0  0  0  0  0  0  0  0
   58.5250   34.4900   44.8380 C   0  0  0  0  0  0  0  0  0  0  0  0
   57.3890   33.8400   45.2420 C   0  0  0  0  0  0  0  0  0  0  0  0
   57.3510   33.3750   46.5350 C   0  0  0  0  0  0  0  0  0  0  0  0
   58.4230   33.5670   47.3700 C   0  0  0  0  0  0  0  0  0  0  0  0
   60.9940   31.5660   49.4950 C   0  0  0  0  0  0  0  0  0  0  0  0
   61.2790   32.2830   50.7350 C   0  0  0  0  0  0  0  0  0  0  0  0
   57.9230   30.8780   51.1950 C   0  0  0  0  0  0  0  0  0  0  0  0
   56.6650   31.2170   51.6250 C   0  0  0  0  0  0  0  0  0  0  0  0
   50.6418   32.1259   51.6810 H   0  0  0  0  0  0  0  0  0  0  0  0
   52.1634   32.0817   50.5352 H   0  0  0  0  0  0  0  0  0  0  0  0
   51.8741   30.8357   53.3444 H   0  0  0  0  0  0  0  0  0  0  0  0
   54.5260   31.1940   53.9500 H   0  0  0  0  0  0  0  0  0  0  0  0
   56.2470   28.7366   53.9166 H   0  0  0  0  0  0  0  0  0  0  0  0
   58.5276   28.1667   53.0971 H   0  0  0  0  0  0  0  0  0  0  0  0
   59.8810   28.6020   48.3610 H   0  0  0  0  0  0  0  0  0  0  0  0
   59.0661   31.3495   44.5289 H   0  0  0  0  0  0  0  0  0  0  0  0
   56.7689   31.2818   43.5718 H   0  0  0  0  0  0  0  0  0  0  0  0
   54.7950   29.0870   42.9810 H   0  0  0  0  0  0  0  0  0  0  0  0
   56.1286   27.4785   45.4553 H   0  0  0  0  0  0  0  0  0  0  0  0
   58.4045   27.5171   46.4180 H   0  0  0  0  0  0  0  0  0  0  0  0
   61.0510   31.8190   46.1590 H   0  0  0  0  0  0  0  0  0  0  0  0
   60.3909   34.6929   48.8831 H   0  0  0  0  0  0  0  0  0  0  0  0
   61.3756   35.1755   47.3896 H   0  0  0  0  0  0  0  0  0  0  0  0
   60.5027   35.2110   45.3317 H   0  0  0  0  0  0  0  0  0  0  0  0
   58.5851   34.8724   43.8084 H   0  0  0  0  0  0  0  0  0  0  0  0
   56.5397   33.6957   44.5580 H   0  0  0  0  0  0  0  0  0  0  0  0
   56.4583   32.8472   46.9017 H   0  0  0  0  0  0  0  0  0  0  0  0
   58.3490   33.1781   48.3963 H   0  0  0  0  0  0  0  0  0  0  0  0
   61.0253   31.6447   51.5942 H   0  0  0  0  0  0  0  0  0  0  0  0
   62.3478   32.5404   50.7724 H   0  0  0  0  0  0  0  0  0  0  0  0
   60.6786   33.2039   50.7724 H   0  0  0  0  0  0  0  0  0  0  0  0
   58.3972   31.4945   50.4171 H   0  0  0  0  0  0  0  0  0  0  0  0
   56.1415   32.0865   51.2008 H   0  0  0  0  0  0  0  0  0  0  0  0
  1  2  2  0
  2  3  1  0
  3  4  2  0
  3  5  1  0
  5  6  1  0
  6  7  2  0
  7  8  1  0
  8  9  2  0
  9 10  1  0
 10 11  1  0
 11 12  1  0
 12 13  1  0
 13 14  2  0
 14 15  1  0
 15 16  2  0
 16 17  1  0
 17 18  2  0
 18 19  1  0
 18 20  1  0
 20 21  2  0
 13 22  1  0
 22 23  1  0
 23 24  2  0
 24 25  1  0
 25 26  1  0
 26 27  2  0
 27 28  1  0
 28 29  2  0
 29 30  1  0
 30 31  2  0
 23 32  1  0
 32 33  1  0
  9 34  1  0
 34 35  2  0
 35  6  1  0
 32 11  2  0
 21 15  1  0
 31 26  1  0
  1 36  1  0
  1 37  1  0
  2 38  1  0
  5 39  1  0
  7 40  1  0
  8 41  1  0
 12 42  1  0
 16 43  1  0
 17 44  1  0
 19 45  1  0
 20 46  1  0
 21 47  1  0
 22 48  1  0
 25 49  1  0
 25 50  1  0
 27 51  1  0
 28 52  1  0
 29 53  1  0
 30 54  1  0
 31 55  1  0
 33 56  1  0
 33 57  1  0
 33 58  1  0
 34 59  1  0
 35 60  1  0
M  END
>  <smiles>  (90) 
C=CC(=O)Nc1ccc(Sc2[nH]c(=Nc3ccc(O)cc3)[nH]c(=NCc3ccccc3)c2C)cc1

>  <score_type>  (90) 
oracle

>  <origin>  (90) 
adg

>  <m_score__min__energy>  (90) 
-9.9499999999999993

>  <m_primary>  (90) 
energy

$$$$
90:0
     RDKit          3D

 45 48  0  0  0  0  0  0  0  0999 V2000
   59.8060   30.8200   46.0960 C   0  0  0  0  0  0  0  0  0  0  0  0
   58.9750   29.9050   45.6000 C   0  0  0  0  0  0  0  0  0  0  0  0
   59.3260   28.2630   45.5070 S   0  0  0  0  0  0  0  0  0  0  0  0
   57.9010   27.8130   44.7300 C   0  0  0  0  0  0  0  0  0  0  0  0
   57.6140   26.5570   44.3690 C   0  0  0  0  0  0  0  0  0  0  0  0
   57.1480   25.5160   45.3010 C   0  0  0  0  0  0  0  0  0  0  0  0
   58.0610   24.1760   45.7550 S   0  0  0  0  0  0  0  0  0  0  0  0
   56.8950   23.6450   46.8430 C   0  0  0  0  0  0  0  0  0  0  0  0
   56.9980   22.6020   47.5380 O   0  0  0  0  0  0  0  0  0  0  0  0
   55.8280   24.4680   46.9050 N   0  0  0  0  0  0  0  0  0  0  0  0
   55.9740   25.5210   46.0560 C   0  0  0  0  0  0  0  0  0  0  0  0
   55.0300   26.5410   45.9890 O   0  0  0  0  0  0  0  0  0  0  0  0
   57.1340   28.9590   44.5090 C   0  0  0  0  0  0  0  0  0  0  0  0
   57.7200   30.1220   45.0200 C   0  0  0  0  0  0  0  0  0  0  0  0
   57.0640   31.3930   44.9340 N   0  0  0  0  0  0  0  0  0  0  0  0
   57.7370   32.6270   44.6560 C   0  0  0  0  0  0  0  0  0  0  0  0
   57.6680   33.1120   43.4960 O   0  0  0  0  0  0  0  0  0  0  0  0
   58.4800   33.3170   45.6770 N   0  0  0  0  0  0  0  0  0  0  0  0
   57.9120   33.4990   47.0210 C   0  0  0  0  0  0  0  0  0  0  0  0
   58.9450   33.1560   48.1080 C   0  0  0  0  0  0  0  0  0  0  0  0
   60.4060   33.4180   47.6660 C   0  0  0  0  0  0  0  0  0  0  0  0
   61.2350   33.7950   48.8170 N   0  0  0  0  0  0  0  0  0  0  0  0
   62.5220   34.1800   48.7830 C   0  0  0  0  0  0  0  0  0  0  0  0
   62.9300   34.4060   50.0780 C   0  0  0  0  0  0  0  0  0  0  0  0
   61.9110   34.1560   50.9250 N   0  0  0  0  0  0  0  0  0  0  0  0
   60.8920   33.7840   50.1220 C   0  0  0  0  0  0  0  0  0  0  0  0
   60.4870   34.4860   46.5620 C   0  0  0  0  0  0  0  0  0  0  0  0
   59.7220   34.0140   45.3150 C   0  0  0  0  0  0  0  0  0  0  0  0
   59.5060   31.8779   46.1239 H   0  0  0  0  0  0  0  0  0  0  0  0
   60.7924   30.5178   46.4777 H   0  0  0  0  0  0  0  0  0  0  0  0
   57.7335   26.2848   43.3099 H   0  0  0  0  0  0  0  0  0  0  0  0
   54.3920   26.7080   46.7570 H   0  0  0  0  0  0  0  0  0  0  0  0
   56.1665   28.9482   43.9858 H   0  0  0  0  0  0  0  0  0  0  0  0
   57.5990   34.5468   47.1402 H   0  0  0  0  0  0  0  0  0  0  0  0
   57.0504   32.8241   47.1313 H   0  0  0  0  0  0  0  0  0  0  0  0
   58.7335   33.7685   48.9969 H   0  0  0  0  0  0  0  0  0  0  0  0
   58.8547   32.0797   48.3166 H   0  0  0  0  0  0  0  0  0  0  0  0
   60.7967   32.4803   47.2441 H   0  0  0  0  0  0  0  0  0  0  0  0
   63.1400   34.2943   47.8802 H   0  0  0  0  0  0  0  0  0  0  0  0
   63.9347   34.7398   50.3766 H   0  0  0  0  0  0  0  0  0  0  0  0
   59.8941   33.5034   50.4900 H   0  0  0  0  0  0  0  0  0  0  0  0
   60.0426   35.4231   46.9287 H   0  0  0  0  0  0  0  0  0  0  0  0
   61.5417   34.6512   46.2969 H   0  0  0  0  0  0  0  0  0  0  0  0
   59.4737   34.8885   44.6957 H   0  0  0  0  0  0  0  0  0  0  0  0
   60.3632   33.3119   44.7619 H   0  0  0  0  0  0  0  0  0  0  0  0
  1  2  2  0
  2  3  1  0
  3  4  1  0
  4  5  2  3
  5  6  1  0
  6  7  1  0
  7  8  1  0
  8  9  2  0
  8 10  1  0
 10 11  1  0
 11 12  1  0
  4 13  1  0
 13 14  2  0
 14 15  1  0
 15 16  1  0
 16 17  2  0
 16 18  1  0
 18 19  1  0
 19 20  1  0
 20 21  1  0
 21 22  1  0
 22 23  1  0
 23 24  2  0
 24 25  1  0
 25 26  2  0
 21 27  1  0
 27 28  1  0
 14  2  1  0
 28 18  1  0
 11  6  2  0
 26 22  1  0
  1 29  1  0
  1 30  1  0
  5 31  1  0
 12 32  1  0
 13 33  1  0
 19 34  1  0
 19 35  1  0
 20 36  1  0
 20 37  1  0
 21 38  1  0
 23 39  1  0
 24 40  1  0
 26 41  1  0
 27 42  1  0
 27 43  1  0
 28 44  1  0
 28 45  1  0
M  CHG  2  10  -1  15  -1
M  END
>  <UniqueID>  (91) 
85

>  <SMILES>  (91) 
C=c1sc(=Cc2sc(=O)[n-]c2O)cc1[N-]C(=O)N1CCC(n2ccnc2)CC1

>  <Energy>  (91) 
147.190469181063

>  <Genealogy>  (91) 
C=c1sc(=Cc2sc(=O)[n-]c2O)cc1[N-]C(=O)N1CCC(n2ccnc2)CC1 (protonated)
C=c1sc(=Cc2sc(=O)[n-]c2O)cc1[N-]C(=O)N1CCC(n2ccnc2)CC1 (3D coordinates assigned)
C=c1sc(=Cc2sc(=O)[n-]c2O)cc1[N-]C(=O)N1CCC(n2ccnc2)CC1 (nonaromatic ring conformer: 147.190469181063 kcal/mol)

>  <smiles>  (91) 
C=c1sc(=Cc2sc(=O)[nH]c2O)cc1NC(=O)N1CCC(n2ccnc2)CC1

>  <score_type>  (91) 
oracle

>  <origin>  (91) 
adg

>  <m_score__min__energy>  (91) 
-13.699999999999999

>  <m_primary>  (91) 
energy

$$$$
91:0
     RDKit          3D

 62 65  0  0  0  0  0  0  0  0999 V2000
   59.7620   29.5850   44.1590 O   0  0  0  0  0  0  0  0  0  0  0  0
   58.7060   29.8020   44.8140 C   0  0  0  0  0  0  0  0  0  0  0  0
   57.7180   30.8110   44.3050 C   0  0  0  0  0  0  0  0  0  0  0  0
   58.2350   32.1240   44.5140 O   0  0  0  0  0  0  0  0  0  0  0  0
   58.5710   32.6570   45.7680 C   0  0  0  0  0  0  0  0  0  0  0  0
   59.3300   33.8320   45.8070 C   0  0  0  0  0  0  0  0  0  0  0  0
   59.6800   34.4120   47.0290 C   0  0  0  0  0  0  0  0  0  0  0  0
   59.3050   33.8040   48.2330 C   0  0  0  0  0  0  0  0  0  0  0  0
   59.6510   34.4410   49.4690 N   0  0  0  0  0  0  0  0  0  0  0  0
   59.6080   33.8510   50.7750 C   0  0  0  0  0  0  0  0  0  0  0  0
   59.1500   34.5330   51.7290 O   0  0  0  0  0  0  0  0  0  0  0  0
   60.1540   32.4760   51.0460 C   0  0  0  0  0  0  0  0  0  0  0  0
   61.5560   32.4260   50.7820 O   0  0  0  0  0  0  0  0  0  0  0  0
   62.1670   32.6140   49.5270 C   0  0  0  0  0  0  0  0  0  0  0  0
   62.9390   33.7560   49.2220 C   0  0  0  0  0  0  0  0  0  0  0  0
   63.5280   33.8960   47.9600 C   0  0  0  0  0  0  0  0  0  0  0  0
   63.3460   32.9100   46.9870 C   0  0  0  0  0  0  0  0  0  0  0  0
   62.5780   31.7790   47.2750 C   0  0  0  0  0  0  0  0  0  0  0  0
   61.9890   31.6300   48.5380 C   0  0  0  0  0  0  0  0  0  0  0  0
   61.0260   30.1980   48.8720 Cl  0  0  0  0  0  0  0  0  0  0  0  0
   58.5310   32.6320   48.2030 C   0  0  0  0  0  0  0  0  0  0  0  0
   58.1690   32.0590   46.9780 C   0  0  0  0  0  0  0  0  0  0  0  0
   58.5000   29.1020   46.0470 N   0  0  0  0  0  0  0  0  0  0  0  0
   58.0210   27.7570   46.1930 C   0  0  0  0  0  0  0  0  0  0  0  0
   58.7990   26.7600   46.8080 C   0  0  0  0  0  0  0  0  0  0  0  0
   58.2800   25.4760   46.9970 C   0  0  0  0  0  0  0  0  0  0  0  0
   56.9730   25.1760   46.5890 C   0  0  0  0  0  0  0  0  0  0  0  0
   56.3090   23.5640   46.8540 S   0  0  0  0  0  0  0  0  0  0  0  0
   54.9320   23.6940   47.4430 O   0  0  0  0  0  0  0  0  0  0  0  0
   57.1750   22.8180   47.8340 O   0  0  0  0  0  0  0  0  0  0  0  0
   56.2220   22.7000   45.3400 N   0  0  0  0  0  0  0  0  0  0  0  0
   55.6770   23.5800   44.2910 C   0  0  0  0  0  0  0  0  0  0  0  0
   55.9010   22.9740   42.8910 C   0  0  0  0  0  0  0  0  0  0  0  0
   56.2320   21.6040   42.9820 O   0  0  0  0  0  0  0  0  0  0  0  0
   57.4870   21.4560   43.6200 C   0  0  0  0  0  0  0  0  0  0  0  0
   57.5590   22.2170   44.9620 C   0  0  0  0  0  0  0  0  0  0  0  0
   56.1950   26.1690   45.9780 C   0  0  0  0  0  0  0  0  0  0  0  0
   56.7130   27.4560   45.7940 C   0  0  0  0  0  0  0  0  0  0  0  0
   57.5486   30.6496   43.2302 H   0  0  0  0  0  0  0  0  0  0  0  0
   56.7661   30.6995   44.8449 H   0  0  0  0  0  0  0  0  0  0  0  0
   59.6539   34.3032   44.8673 H   0  0  0  0  0  0  0  0  0  0  0  0
   60.2530   35.3509   47.0451 H   0  0  0  0  0  0  0  0  0  0  0  0
   59.9763   32.2188   52.1006 H   0  0  0  0  0  0  0  0  0  0  0  0
   59.6452   31.7582   50.3858 H   0  0  0  0  0  0  0  0  0  0  0  0
   63.0784   34.5403   49.9806 H   0  0  0  0  0  0  0  0  0  0  0  0
   64.1357   34.7845   47.7337 H   0  0  0  0  0  0  0  0  0  0  0  0
   63.8071   33.0241   45.9948 H   0  0  0  0  0  0  0  0  0  0  0  0
   62.4352   31.0033   46.5083 H   0  0  0  0  0  0  0  0  0  0  0  0
   58.2085   32.1633   49.1445 H   0  0  0  0  0  0  0  0  0  0  0  0
   57.5681   31.1378   46.9605 H   0  0  0  0  0  0  0  0  0  0  0  0
   59.8211   26.9918   47.1420 H   0  0  0  0  0  0  0  0  0  0  0  0
   58.8994   24.6983   47.4676 H   0  0  0  0  0  0  0  0  0  0  0  0
   54.5977   23.7125   44.4573 H   0  0  0  0  0  0  0  0  0  0  0  0
   56.1960   24.5486   44.3411 H   0  0  0  0  0  0  0  0  0  0  0  0
   54.9800   23.0835   42.2996 H   0  0  0  0  0  0  0  0  0  0  0  0
   56.7337   23.5054   42.4071 H   0  0  0  0  0  0  0  0  0  0  0  0
   57.6626   20.3869   43.8103 H   0  0  0  0  0  0  0  0  0  0  0  0
   58.2537   21.8782   42.9537 H   0  0  0  0  0  0  0  0  0  0  0  0
   57.9366   21.5415   45.7438 H   0  0  0  0  0  0  0  0  0  0  0  0
   58.2357   23.0773   44.8529 H   0  0  0  0  0  0  0  0  0  0  0  0
   55.1738   25.9359   45.6420 H   0  0  0  0  0  0  0  0  0  0  0  0
   56.0889   28.2358   45.3332 H   0  0  0  0  0  0  0  0  0  0  0  0
  1  2  2  0
  2  3  1  0
  3  4  1  0
  4  5  1  0
  5  6  2  0
  6  7  1  0
  7  8  2  0
  8  9  1  0
  9 10  1  0
 10 11  2  0
 10 12  1  0
 12 13  1  0
 13 14  1  0
 14 15  2  0
 15 16  1  0
 16 17  2  0
 17 18  1  0
 18 19  2  0
 19 20  1  0
  8 21  1  0
 21 22  2  0
  2 23  1  0
 23 24  1  0
 24 25  2  0
 25 26  1  0
 26 27  2  0
 27 28  1  0
 28 29  2  0
 28 30  2  0
 28 31  1  0
 31 32  1  0
 32 33  1  0
 33 34  1  0
 34 35  1  0
 35 36  1  0
 27 37  1  0
 37 38  2  0
 22  5  1  0
 38 24  1  0
 19 14  1  0
 36 31  1  0
  3 39  1  0
  3 40  1  0
  6 41  1  0
  7 42  1  0
 12 43  1  0
 12 44  1  0
 15 45  1  0
 16 46  1  0
 17 47  1  0
 18 48  1  0
 21 49  1  0
 22 50  1  0
 25 51  1  0
 26 52  1  0
 32 53  1  0
 32 54  1  0
 33 55  1  0
 33 56  1  0
 35 57  1  0
 35 58  1  0
 36 59  1  0
 36 60  1  0
 37 61  1  0
 38 62  1  0
M  CHG  2   9  -1  23  -1
M  END
>  <UniqueID>  (92) 
86

>  <SMILES>  (92) 
O=C(COc1ccc([N-]C(=O)COc2ccccc2Cl)cc1)[N-]c1ccc(S(=O)(=O)N2CCOCC2)cc1

>  <Energy>  (92) 
81.7740200203006

>  <Genealogy>  (92) 
O=C(COc1ccc([N-]C(=O)COc2ccccc2Cl)cc1)[N-]c1ccc(S(=O)(=O)N2CCOCC2)cc1 (protonated)
O=C(COc1ccc([N-]C(=O)COc2ccccc2Cl)cc1)[N-]c1ccc(S(=O)(=O)N2CCOCC2)cc1 (3D coordinates assigned)
O=C(COc1ccc([N-]C(=O)COc2ccccc2Cl)cc1)[N-]c1ccc(S(=O)(=O)N2CCOCC2)cc1 (nonaromatic ring conformer: 81.7740200203006 kcal/mol)

>  <smiles>  (92) 
O=C(COc1ccc(NC(=O)COc2ccccc2Cl)cc1)Nc1ccc(S(=O)(=O)N2CCOCC2)cc1

>  <score_type>  (92) 
oracle

>  <origin>  (92) 
adg

>  <m_score__min__energy>  (92) 
-12

>  <m_primary>  (92) 
energy

$$$$
92:0
     RDKit          3D

 54 56  0  0  0  0  0  0  0  0999 V2000
   55.8600   24.4350   44.8700 C   0  0  0  0  0  0  0  0  0  0  0  0
   55.3820   25.5600   45.7270 C   0  0  0  0  0  0  0  0  0  0  0  0
   54.1830   25.9400   45.6450 O   0  0  0  0  0  0  0  0  0  0  0  0
   56.2880   26.2040   46.6260 N   0  0  0  0  0  0  0  0  0  0  0  0
   57.6100   26.6630   46.2210 C   0  0  0  0  0  0  0  0  0  0  0  0
   57.7890   28.1260   46.6180 C   0  0  0  0  0  0  0  0  0  0  0  0
   57.5070   29.0430   45.4470 C   0  0  0  0  0  0  0  0  0  0  0  0
   56.2310   29.0240   44.8580 C   0  0  0  0  0  0  0  0  0  0  0  0
   55.9200   29.8900   43.8060 C   0  0  0  0  0  0  0  0  0  0  0  0
   56.8760   30.7870   43.3310 C   0  0  0  0  0  0  0  0  0  0  0  0
   58.1450   30.8270   43.9120 C   0  0  0  0  0  0  0  0  0  0  0  0
   58.4680   29.9750   44.9810 C   0  0  0  0  0  0  0  0  0  0  0  0
   59.8270   30.0300   45.5560 C   0  0  0  0  0  0  0  0  0  0  0  0
   60.1920   30.8750   46.4790 N   0  0  0  0  0  0  0  0  0  0  0  0
   60.2730   30.6560   47.8970 C   0  0  0  0  0  0  0  0  0  0  0  0
   61.3520   30.2920   48.4410 O   0  0  0  0  0  0  0  0  0  0  0  0
   59.0440   30.9000   48.7450 C   0  0  1  0  0  0  0  0  0  0  0  0
   58.8860   29.7940   49.7830 C   0  0  0  0  0  0  0  0  0  0  0  0
   59.5430   30.3410   51.0440 C   0  0  0  0  0  0  0  0  0  0  0  0
   59.7490   31.8340   50.7930 C   0  0  0  0  0  0  0  0  0  0  0  0
   59.0900   32.1480   49.5240 N   0  0  0  0  0  0  0  0  0  0  0  0
   59.7920   33.5280   48.7080 S   0  0  0  0  0  0  0  0  0  0  0  0
   61.2600   33.2900   48.4820 O   0  0  0  0  0  0  0  0  0  0  0  0
   59.6270   34.7810   49.5240 O   0  0  0  0  0  0  0  0  0  0  0  0
   58.9890   33.7410   47.1560 C   0  0  0  0  0  0  0  0  0  0  0  0
   59.6550   34.3860   46.1050 C   0  0  0  0  0  0  0  0  0  0  0  0
   59.0110   34.5800   44.8780 C   0  0  0  0  0  0  0  0  0  0  0  0
   57.6980   34.1340   44.6980 C   0  0  0  0  0  0  0  0  0  0  0  0
   57.0270   33.4980   45.7480 C   0  0  0  0  0  0  0  0  0  0  0  0
   57.6690   33.3030   46.9750 C   0  0  0  0  0  0  0  0  0  0  0  0
   56.2102   23.6107   45.5087 H   0  0  0  0  0  0  0  0  0  0  0  0
   55.0344   24.0814   44.2349 H   0  0  0  0  0  0  0  0  0  0  0  0
   56.6876   24.7839   44.2349 H   0  0  0  0  0  0  0  0  0  0  0  0
   58.3777   26.0523   46.7186 H   0  0  0  0  0  0  0  0  0  0  0  0
   57.7116   26.5659   45.1300 H   0  0  0  0  0  0  0  0  0  0  0  0
   57.0945   28.3642   47.4371 H   0  0  0  0  0  0  0  0  0  0  0  0
   58.8299   28.2775   46.9397 H   0  0  0  0  0  0  0  0  0  0  0  0
   55.4702   28.3211   45.2284 H   0  0  0  0  0  0  0  0  0  0  0  0
   54.9186   29.8639   43.3516 H   0  0  0  0  0  0  0  0  0  0  0  0
   56.6305   31.4630   42.4987 H   0  0  0  0  0  0  0  0  0  0  0  0
   58.8981   31.5316   43.5294 H   0  0  0  0  0  0  0  0  0  0  0  0
   60.5758   29.3155   45.1833 H   0  0  0  0  0  0  0  0  0  0  0  0
   58.2179   30.9431   48.0200 H   0  0  0  0  0  0  0  0  0  0  0  0
   57.8218   29.5812   49.9625 H   0  0  0  0  0  0  0  0  0  0  0  0
   59.3445   28.8497   49.4542 H   0  0  0  0  0  0  0  0  0  0  0  0
   58.8889   30.1858   51.9147 H   0  0  0  0  0  0  0  0  0  0  0  0
   60.4943   29.8318   51.2580 H   0  0  0  0  0  0  0  0  0  0  0  0
   59.2989   32.4200   51.6079 H   0  0  0  0  0  0  0  0  0  0  0  0
   60.8200   32.0817   50.7518 H   0  0  0  0  0  0  0  0  0  0  0  0
   60.6868   34.7407   46.2451 H   0  0  0  0  0  0  0  0  0  0  0  0
   59.5381   35.0838   44.0543 H   0  0  0  0  0  0  0  0  0  0  0  0
   57.1933   34.2830   43.7320 H   0  0  0  0  0  0  0  0  0  0  0  0
   55.9927   33.1507   45.6082 H   0  0  0  0  0  0  0  0  0  0  0  0
   57.1378   32.8052   47.7996 H   0  0  0  0  0  0  0  0  0  0  0  0
  1  2  1  0
  2  3  2  0
  2  4  1  0
  4  5  1  0
  5  6  1  0
  6  7  1  0
  7  8  2  0
  8  9  1  0
  9 10  2  0
 10 11  1  0
 11 12  2  0
 12 13  1  0
 13 14  2  3
 14 15  1  0
 15 16  2  0
 15 17  1  0
 17 18  1  0
 18 19  1  0
 19 20  1  0
 20 21  1  0
 21 22  1  0
 22 23  2  0
 22 24  2  0
 22 25  1  0
 25 26  2  0
 26 27  1  0
 27 28  2  0
 28 29  1  0
 29 30  2  0
 12  7  1  0
 21 17  1  0
 30 25  1  0
  1 31  1  0
  1 32  1  0
  1 33  1  0
  5 34  1  0
  5 35  1  0
  6 36  1  0
  6 37  1  0
  8 38  1  0
  9 39  1  0
 10 40  1  0
 11 41  1  0
 13 42  1  0
 17 43  1  6
 18 44  1  0
 18 45  1  0
 19 46  1  0
 19 47  1  0
 20 48  1  0
 20 49  1  0
 26 50  1  0
 27 51  1  0
 28 52  1  0
 29 53  1  0
 30 54  1  0
M  CHG  1   4  -1
M  END
>  <UniqueID>  (93) 
87

>  <SMILES>  (93) 
CC(=O)[N-]CCc1ccccc1C=NC(=O)[C@H]1CCCN1S(=O)(=O)c1ccccc1

>  <Energy>  (93) 
63.44838585516376

>  <Genealogy>  (93) 
CC(=O)[N-]CCc1ccccc1C=NC(=O)C1CCCN1S(=O)(=O)c1ccccc1 (protonated)
CC(=O)[N-]CCc1ccccc1C=NC(=O)[C@H]1CCCN1S(=O)(=O)c1ccccc1 (chirality)
CC(=O)[N-]CCc1ccccc1C=NC(=O)[C@H]1CCCN1S(=O)(=O)c1ccccc1 (3D coordinates assigned)
CC(=O)[N-]CCc1ccccc1C=NC(=O)[C@H]1CCCN1S(=O)(=O)c1ccccc1 (nonaromatic ring conformer: 63.44838585516376 kcal/mol)

>  <smiles>  (93) 
CC(=O)NCCc1ccccc1C=NC(=O)C1CCCN1S(=O)(=O)c1ccccc1

>  <score_type>  (93) 
oracle

>  <origin>  (93) 
adg

>  <m_score__min__energy>  (93) 
-11.710000000000001

>  <m_primary>  (93) 
energy

$$$$
