0:0
     RDKit          3D

 47 50  0  0  0  0  0  0  0  0999 V2000
   58.2730   34.1790   45.0970 C   0  0  0  0  0  0  0  0  0  0  0  0
   58.0840   32.7050   44.8430 C   0  0  0  0  0  0  0  0  0  0  0  0
   57.7690   32.2870   43.5400 C   0  0  0  0  0  0  0  0  0  0  0  0
   57.5430   30.9410   43.2560 C   0  0  0  0  0  0  0  0  0  0  0  0
   57.6410   29.9770   44.2620 C   0  0  0  0  0  0  0  0  0  0  0  0
   57.3770   28.5990   43.9490 N   0  0  0  0  0  0  0  0  0  0  0  0
   58.1730   27.5040   44.4330 C   0  0  0  0  0  0  0  0  0  0  0  0
   59.3610   27.7120   44.8040 O   0  0  0  0  0  0  0  0  0  0  0  0
   57.6330   26.1220   44.4550 C   0  0  0  0  0  0  0  0  0  0  0  0
   57.4940   25.4000   43.2570 C   0  0  0  0  0  0  0  0  0  0  0  0
   56.9910   24.0980   43.2710 C   0  0  0  0  0  0  0  0  0  0  0  0
   56.6260   23.4970   44.4770 C   0  0  0  0  0  0  0  0  0  0  0  0
   56.7660   24.1940   45.6890 C   0  0  0  0  0  0  0  0  0  0  0  0
   56.3880   23.5540   46.9690 C   0  0  0  0  0  0  0  0  0  0  0  0
   55.1600   23.6650   47.5200 N   0  0  0  0  0  0  0  0  0  0  0  0
   55.2440   22.9470   48.6530 C   0  0  0  0  0  0  0  0  0  0  0  0
   56.5080   22.4220   48.7630 C   0  0  0  0  0  0  0  0  0  0  0  0
   57.2390   22.8020   47.7010 N   0  0  0  0  0  0  0  0  0  0  0  0
   57.2730   25.5060   45.6690 C   0  0  0  0  0  0  0  0  0  0  0  0
   57.9470   30.3830   45.5720 C   0  0  0  0  0  0  0  0  0  0  0  0
   58.1950   31.7350   45.8760 C   0  0  0  0  0  0  0  0  0  0  0  0
   58.5550   32.0840   47.2730 C   0  0  0  0  0  0  0  0  0  0  0  0
   57.7650   32.7920   47.9560 O   0  0  0  0  0  0  0  0  0  0  0  0
   59.7880   31.6280   47.8440 N   0  0  0  0  0  0  0  0  0  0  0  0
   61.1040   32.1190   47.5520 C   0  0  0  0  0  0  0  0  0  0  0  0
   61.3290   33.3970   47.0120 C   0  0  0  0  0  0  0  0  0  0  0  0
   62.6340   33.8320   46.7710 C   0  0  0  0  0  0  0  0  0  0  0  0
   63.7040   32.9930   47.0850 C   0  0  0  0  0  0  0  0  0  0  0  0
   63.4710   31.7690   47.6290 N   0  0  0  0  0  0  0  0  0  0  0  0
   62.2100   31.3230   47.8730 C   0  0  0  0  0  0  0  0  0  0  0  0
   58.2967   34.3642   46.1810 H   0  0  0  0  0  0  0  0  0  0  0  0
   59.2209   34.5099   44.6476 H   0  0  0  0  0  0  0  0  0  0  0  0
   57.4392   34.7384   44.6476 H   0  0  0  0  0  0  0  0  0  0  0  0
   57.6997   33.0312   42.7329 H   0  0  0  0  0  0  0  0  0  0  0  0
   57.2854   30.6356   42.2311 H   0  0  0  0  0  0  0  0  0  0  0  0
   56.6400   28.3910   43.2380 H   0  0  0  0  0  0  0  0  0  0  0  0
   57.7834   25.8639   42.3025 H   0  0  0  0  0  0  0  0  0  0  0  0
   56.8817   23.5430   42.3276 H   0  0  0  0  0  0  0  0  0  0  0  0
   56.2266   22.4721   44.4785 H   0  0  0  0  0  0  0  0  0  0  0  0
   54.4290   22.8027   49.3776 H   0  0  0  0  0  0  0  0  0  0  0  0
   56.8657   21.7904   49.5895 H   0  0  0  0  0  0  0  0  0  0  0  0
   57.3897   26.0576   46.6135 H   0  0  0  0  0  0  0  0  0  0  0  0
   57.9936   29.6314   46.3738 H   0  0  0  0  0  0  0  0  0  0  0  0
   60.4779   34.0540   46.7794 H   0  0  0  0  0  0  0  0  0  0  0  0
   62.8167   34.8265   46.3378 H   0  0  0  0  0  0  0  0  0  0  0  0
   64.7358   33.3219   46.8924 H   0  0  0  0  0  0  0  0  0  0  0  0
   62.0580   30.3317   48.3249 H   0  0  0  0  0  0  0  0  0  0  0  0
  1  2  1  0
  2  3  2  0
  3  4  1  0
  4  5  2  0
  5  6  1  0
  6  7  1  0
  7  8  2  0
  7  9  1  0
  9 10  2  0
 10 11  1  0
 11 12  2  0
 12 13  1  0
 13 14  1  0
 14 15  2  0
 15 16  1  0
 16 17  2  0
 17 18  1  0
 13 19  2  0
  5 20  1  0
 20 21  2  0
 21 22  1  0
 22 23  2  0
 22 24  1  0
 24 25  1  0
 25 26  2  0
 26 27  1  0
 27 28  2  0
 28 29  1  0
 29 30  2  0
 21  2  1  0
 30 25  1  0
 19  9  1  0
 18 14  1  0
  1 31  1  0
  1 32  1  0
  1 33  1  0
  3 34  1  0
  4 35  1  0
  6 36  1  0
 10 37  1  0
 11 38  1  0
 12 39  1  0
 16 40  1  0
 17 41  1  0
 19 42  1  0
 20 43  1  0
 26 44  1  0
 27 45  1  0
 28 46  1  0
 30 47  1  0
M  CHG  2  18  -1  24  -1
M  END
>  <UniqueID>  (1) 
1

>  <SMILES>  (1) 
Cc1ccc(NC(=O)c2cccc(-c3ncc[n-]3)c2)cc1C(=O)[N-]c1cccnc1

>  <Energy>  (1) 
94.50679061285423

>  <Genealogy>  (1) 
Cc1ccc(NC(=O)c2cccc(-c3ncc[n-]3)c2)cc1C(=O)[N-]c1cccnc1 (protonated)
Cc1ccc(NC(=O)c2cccc(-c3ncc[n-]3)c2)cc1C(=O)[N-]c1cccnc1 (3D coordinates assigned)
Cc1ccc(NC(=O)c2cccc(-c3ncc[n-]3)c2)cc1C(=O)[N-]c1cccnc1 (optimized conformer: 94.50679061285423 kcal/mol)

>  <smiles>  (1) 
Cc1ccc(NC(=O)c2cccc(-c3ncc[nH]3)c2)cc1C(=O)Nc1cccnc1

>  <score_type>  (1) 
oracle

>  <origin>  (1) 
adg

>  <m_score__min__energy>  (1) 
-11.779999999999999

>  <m_primary>  (1) 
energy

$$$$
1:0
     RDKit          3D

 55 58  0  0  0  0  0  0  0  0999 V2000
   63.0410   33.7140   51.6460 C   0  0  0  0  0  0  0  0  0  0  0  0
   61.5670   33.4000   51.5720 C   0  0  0  0  0  0  0  0  0  0  0  0
   60.7990   33.4760   52.7430 C   0  0  0  0  0  0  0  0  0  0  0  0
   59.4400   33.1780   52.7190 C   0  0  0  0  0  0  0  0  0  0  0  0
   58.8200   32.8070   51.5270 C   0  0  0  0  0  0  0  0  0  0  0  0
   57.4860   32.5560   51.5440 F   0  0  0  0  0  0  0  0  0  0  0  0
   59.5560   32.7380   50.3280 C   0  0  0  0  0  0  0  0  0  0  0  0
   58.8500   32.3720   49.0720 C   0  0  0  0  0  0  0  0  0  0  0  0
   58.5320   31.1720   48.8530 O   0  0  0  0  0  0  0  0  0  0  0  0
   58.4950   33.3950   48.1330 N   0  0  0  0  0  0  0  0  0  0  0  0
   58.3560   33.2450   46.7120 C   0  0  0  0  0  0  0  0  0  0  0  0
   58.7870   34.2880   45.8830 C   0  0  0  0  0  0  0  0  0  0  0  0
   58.6790   34.1780   44.4950 C   0  0  0  0  0  0  0  0  0  0  0  0
   58.1540   33.0180   43.9210 C   0  0  0  0  0  0  0  0  0  0  0  0
   57.7480   31.9530   44.7370 C   0  0  0  0  0  0  0  0  0  0  0  0
   57.0860   30.4810   44.0300 S   0  0  0  0  0  0  0  0  0  0  0  0
   56.6390   30.7860   42.6270 O   0  0  0  0  0  0  0  0  0  0  0  0
   55.8900   30.0310   44.8240 O   0  0  0  0  0  0  0  0  0  0  0  0
   58.3240   29.2400   44.0140 N   0  0  0  0  0  0  0  0  0  0  0  0
   59.4600   29.5850   44.9040 C   0  0  0  0  0  0  0  0  0  0  0  0
   59.3720   28.8940   46.2770 C   0  0  0  0  0  0  0  0  0  0  0  0
   58.0260   28.7230   46.6560 O   0  0  0  0  0  0  0  0  0  0  0  0
   57.3990   27.7630   45.8230 C   0  0  0  0  0  0  0  0  0  0  0  0
   57.7610   27.9110   44.3250 C   0  0  0  0  0  0  0  0  0  0  0  0
   57.8550   32.0650   46.1310 C   0  0  0  0  0  0  0  0  0  0  0  0
   60.9470   33.0400   50.3500 C   0  0  0  0  0  0  0  0  0  0  0  0
   61.7640   32.9300   49.1190 C   0  0  0  0  0  0  0  0  0  0  0  0
   61.6900   33.9270   48.1320 C   0  0  0  0  0  0  0  0  0  0  0  0
   62.4660   33.8260   46.9730 C   0  0  0  0  0  0  0  0  0  0  0  0
   63.3160   32.7310   46.7940 C   0  0  0  0  0  0  0  0  0  0  0  0
   63.3940   31.7370   47.7730 C   0  0  0  0  0  0  0  0  0  0  0  0
   62.6200   31.8340   48.9340 C   0  0  0  0  0  0  0  0  0  0  0  0
   63.3494   33.7797   52.6998 H   0  0  0  0  0  0  0  0  0  0  0  0
   63.6112   32.9172   51.1461 H   0  0  0  0  0  0  0  0  0  0  0  0
   63.2369   34.6740   51.1461 H   0  0  0  0  0  0  0  0  0  0  0  0
   61.2752   33.7738   53.6888 H   0  0  0  0  0  0  0  0  0  0  0  0
   58.8513   33.2356   53.6464 H   0  0  0  0  0  0  0  0  0  0  0  0
   59.2132   35.1994   46.3277 H   0  0  0  0  0  0  0  0  0  0  0  0
   59.0084   35.0074   43.8519 H   0  0  0  0  0  0  0  0  0  0  0  0
   58.0591   32.9401   42.8279 H   0  0  0  0  0  0  0  0  0  0  0  0
   58.6840   29.2040   43.0310 H   0  0  0  0  0  0  0  0  0  0  0  0
   60.3960   29.2774   44.4148 H   0  0  0  0  0  0  0  0  0  0  0  0
   59.4282   30.6709   45.0766 H   0  0  0  0  0  0  0  0  0  0  0  0
   59.8600   27.9099   46.2193 H   0  0  0  0  0  0  0  0  0  0  0  0
   59.8761   29.5229   47.0256 H   0  0  0  0  0  0  0  0  0  0  0  0
   57.7043   26.7604   46.1571 H   0  0  0  0  0  0  0  0  0  0  0  0
   56.3138   27.9206   45.9096 H   0  0  0  0  0  0  0  0  0  0  0  0
   58.5027   27.1422   44.0625 H   0  0  0  0  0  0  0  0  0  0  0  0
   56.8361   27.7921   43.7416 H   0  0  0  0  0  0  0  0  0  0  0  0
   57.5460   31.2269   46.7730 H   0  0  0  0  0  0  0  0  0  0  0  0
   61.0205   34.7886   48.2711 H   0  0  0  0  0  0  0  0  0  0  0  0
   62.4074   34.6085   46.2021 H   0  0  0  0  0  0  0  0  0  0  0  0
   63.9245   32.6516   45.8811 H   0  0  0  0  0  0  0  0  0  0  0  0
   64.0650   30.8771   47.6304 H   0  0  0  0  0  0  0  0  0  0  0  0
   62.6825   31.0499   49.7030 H   0  0  0  0  0  0  0  0  0  0  0  0
  1  2  1  0
  2  3  2  0
  3  4  1  0
  4  5  2  0
  5  6  1  0
  5  7  1  0
  7  8  1  0
  8  9  2  0
  8 10  1  0
 10 11  1  0
 11 12  2  0
 12 13  1  0
 13 14  2  0
 14 15  1  0
 15 16  1  0
 16 17  2  0
 16 18  2  0
 16 19  1  0
 19 20  1  0
 20 21  1  0
 21 22  1  0
 22 23  1  0
 23 24  1  0
 15 25  2  0
  7 26  2  0
 26 27  1  0
 27 28  2  0
 28 29  1  0
 29 30  2  0
 30 31  1  0
 31 32  2  0
 26  2  1  0
 32 27  1  0
 25 11  1  0
 24 19  1  0
  1 33  1  0
  1 34  1  0
  1 35  1  0
  3 36  1  0
  4 37  1  0
 12 38  1  0
 13 39  1  0
 14 40  1  0
 19 41  1  0
 20 42  1  0
 20 43  1  0
 21 44  1  0
 21 45  1  0
 23 46  1  0
 23 47  1  0
 24 48  1  0
 24 49  1  0
 25 50  1  0
 28 51  1  0
 29 52  1  0
 30 53  1  0
 31 54  1  0
 32 55  1  0
M  CHG  2  10  -1  19   1
M  END
>  <UniqueID>  (2) 
2

>  <SMILES>  (2) 
Cc1ccc(F)c(C(=O)[N-]c2cccc(S(=O)(=O)[NH+]3CCOCC3)c2)c1-c1ccccc1

>  <Energy>  (2) 
85.65975303003525

>  <Genealogy>  (2) 
Cc1ccc(F)c(C(=O)[N-]c2cccc(S(=O)(=O)[NH+]3CCOCC3)c2)c1-c1ccccc1 (protonated)
Cc1ccc(F)c(C(=O)[N-]c2cccc(S(=O)(=O)[NH+]3CCOCC3)c2)c1-c1ccccc1 (3D coordinates assigned)
Cc1ccc(F)c(C(=O)[N-]c2cccc(S(=O)(=O)[NH+]3CCOCC3)c2)c1-c1ccccc1 (nonaromatic ring conformer: 85.65975303003525 kcal/mol)

>  <smiles>  (2) 
Cc1ccc(F)c(C(=O)Nc2cccc(S(=O)(=O)N3CCOCC3)c2)c1-c1ccccc1

>  <score_type>  (2) 
oracle

>  <origin>  (2) 
adg

>  <m_score__min__energy>  (2) 
-9.3499999999999996

>  <m_primary>  (2) 
energy

$$$$
2:0
     RDKit          3D

 38 39  0  0  0  0  0  0  0  0999 V2000
   55.2400   23.7230   44.1190 C   0  0  0  0  0  0  0  0  0  0  0  0
   54.7440   23.9670   45.3340 C   0  0  0  0  0  0  0  0  0  0  0  0
   53.9100   25.1850   45.6200 C   0  0  0  0  0  0  0  0  0  0  0  0
   54.7620   26.3110   45.9940 N   0  0  0  0  0  0  0  0  0  0  0  0
   56.1650   26.2380   46.2830 C   0  0  0  0  0  0  0  0  0  0  0  0
   56.5430   25.6430   47.3240 O   0  0  0  0  0  0  0  0  0  0  0  0
   57.1430   26.8800   45.4560 N   0  0  0  0  0  0  0  0  0  0  0  0
   57.3570   28.2950   45.3740 C   0  0  0  0  0  0  0  0  0  0  0  0
   56.4860   29.0700   44.6000 C   0  0  0  0  0  0  0  0  0  0  0  0
   56.6700   30.4510   44.5000 C   0  0  0  0  0  0  0  0  0  0  0  0
   57.7250   31.0740   45.1800 C   0  0  0  0  0  0  0  0  0  0  0  0
   57.9940   32.8090   45.0100 S   0  0  0  0  0  0  0  0  0  0  0  0
   57.9350   33.1770   43.5530 O   0  0  0  0  0  0  0  0  0  0  0  0
   56.8940   33.5510   45.7170 O   0  0  0  0  0  0  0  0  0  0  0  0
   59.5370   33.3020   45.6770 N   0  0  0  0  0  0  0  0  0  0  0  0
   59.6980   34.7580   45.6120 C   0  0  0  0  0  0  0  0  0  0  0  0
   59.3140   35.3410   46.9630 C   0  0  0  0  0  0  0  0  0  0  0  0
   59.3510   34.1780   47.9340 C   0  0  0  0  0  0  0  0  0  0  0  0
   59.6450   32.9400   47.0960 C   0  0  0  0  0  0  0  0  0  0  0  0
   58.5770   30.3040   45.9860 C   0  0  0  0  0  0  0  0  0  0  0  0
   58.3900   28.9230   46.0890 C   0  0  0  0  0  0  0  0  0  0  0  0
   55.8466   22.8223   43.9432 H   0  0  0  0  0  0  0  0  0  0  0  0
   55.0422   24.4226   43.2935 H   0  0  0  0  0  0  0  0  0  0  0  0
   54.9511   23.2574   46.1486 H   0  0  0  0  0  0  0  0  0  0  0  0
   53.3346   25.4493   44.7205 H   0  0  0  0  0  0  0  0  0  0  0  0
   53.2281   24.9620   46.4538 H   0  0  0  0  0  0  0  0  0  0  0  0
   55.6521   28.5891   44.0676 H   0  0  0  0  0  0  0  0  0  0  0  0
   55.9840   31.0519   43.8850 H   0  0  0  0  0  0  0  0  0  0  0  0
   60.7448   35.0067   45.3834 H   0  0  0  0  0  0  0  0  0  0  0  0
   59.0561   35.1757   44.8224 H   0  0  0  0  0  0  0  0  0  0  0  0
   60.0333   36.1165   47.2651 H   0  0  0  0  0  0  0  0  0  0  0  0
   58.3222   35.8160   46.9343 H   0  0  0  0  0  0  0  0  0  0  0  0
   60.1429   34.3299   48.6822 H   0  0  0  0  0  0  0  0  0  0  0  0
   58.4012   34.0786   48.4798 H   0  0  0  0  0  0  0  0  0  0  0  0
   60.6618   32.5794   47.3107 H   0  0  0  0  0  0  0  0  0  0  0  0
   58.9272   32.1421   47.3373 H   0  0  0  0  0  0  0  0  0  0  0  0
   59.3950   30.7891   46.5388 H   0  0  0  0  0  0  0  0  0  0  0  0
   59.0537   28.3261   46.7318 H   0  0  0  0  0  0  0  0  0  0  0  0
  1  2  2  0
  2  3  1  0
  3  4  1  0
  4  5  1  0
  5  6  2  0
  5  7  1  0
  7  8  1  0
  8  9  2  0
  9 10  1  0
 10 11  2  0
 11 12  1  0
 12 13  2  0
 12 14  2  0
 12 15  1  0
 15 16  1  0
 16 17  1  0
 17 18  1  0
 18 19  1  0
 11 20  1  0
 20 21  2  0
 21  8  1  0
 19 15  1  0
  1 22  1  0
  1 23  1  0
  2 24  1  0
  3 25  1  0
  3 26  1  0
  9 27  1  0
 10 28  1  0
 16 29  1  0
 16 30  1  0
 17 31  1  0
 17 32  1  0
 18 33  1  0
 18 34  1  0
 19 35  1  0
 19 36  1  0
 20 37  1  0
 21 38  1  0
M  CHG  2   4  -1   7  -1
M  END
>  <UniqueID>  (3) 
3

>  <SMILES>  (3) 
C=CC[N-]C(=O)[N-]c1ccc(S(=O)(=O)N2CCCC2)cc1

>  <Energy>  (3) 
37.99927684885296

>  <Genealogy>  (3) 
C=CC[N-]C(=O)[N-]c1ccc(S(=O)(=O)N2CCCC2)cc1 (protonated)
C=CC[N-]C(=O)[N-]c1ccc(S(=O)(=O)N2CCCC2)cc1 (3D coordinates assigned)
C=CC[N-]C(=O)[N-]c1ccc(S(=O)(=O)N2CCCC2)cc1 (nonaromatic ring conformer: 37.99927684885296 kcal/mol)

>  <smiles>  (3) 
C=CCNC(=O)Nc1ccc(S(=O)(=O)N2CCCC2)cc1

>  <score_type>  (3) 
oracle

>  <origin>  (3) 
adg

>  <m_score__min__energy>  (3) 
-10.800000000000001

>  <m_primary>  (3) 
energy

$$$$
3:0
     RDKit          3D

 63 66  0  0  0  0  0  0  0  0999 V2000
   56.5610   21.5340   48.1190 H   0  0  0  0  0  0  0  0  0  0  0  0
   57.3590   21.8440   47.5760 O   0  0  0  0  0  0  0  0  0  0  0  0
   57.4120   21.6790   46.1920 C   0  0  0  0  0  0  0  0  0  0  0  0
   58.5600   22.0580   45.4820 C   0  0  0  0  0  0  0  0  0  0  0  0
   59.4093   22.5116   46.0139 H   0  0  0  0  0  0  0  0  0  0  0  0
   58.6280   21.8610   44.1010 C   0  0  0  0  0  0  0  0  0  0  0  0
   59.5294   22.1618   43.5469 H   0  0  0  0  0  0  0  0  0  0  0  0
   57.5520   21.2820   43.4220 C   0  0  0  0  0  0  0  0  0  0  0  0
   57.6122   21.1186   42.3359 H   0  0  0  0  0  0  0  0  0  0  0  0
   56.3990   20.9100   44.1210 C   0  0  0  0  0  0  0  0  0  0  0  0
   55.5534   20.4555   43.5839 H   0  0  0  0  0  0  0  0  0  0  0  0
   56.3200   21.1160   45.5060 C   0  0  0  0  0  0  0  0  0  0  0  0
   55.1020   20.7360   46.2370 C   0  0  0  0  0  0  0  0  0  0  0  0
   55.2050   20.2340   47.3880 O   0  0  0  0  0  0  0  0  0  0  0  0
   53.8020   20.9700   45.6880 N   0  0  0  0  0  0  0  0  0  0  0  0
   52.7660   21.7490   46.3580 C   0  0  0  0  0  0  0  0  0  0  0  0
   53.0371   21.8830   47.4156 H   0  0  0  0  0  0  0  0  0  0  0  0
   51.8071   21.2151   46.2847 H   0  0  0  0  0  0  0  0  0  0  0  0
   52.6340   23.0970   45.7020 C   0  0  0  0  0  0  0  0  0  0  0  0
   51.5760   23.7570   45.8840 O   0  0  0  0  0  0  0  0  0  0  0  0
   53.6070   23.6000   44.7690 N   0  0  0  0  0  0  0  0  0  0  0  0
   54.6140   24.3820   45.0320 C   0  0  0  0  0  0  0  0  0  0  0  0
   54.4770   25.4600   45.8500 N   0  0  0  0  0  0  0  0  0  0  0  0
   55.5120   26.2470   46.1520 N   0  0  0  0  0  0  0  0  0  0  0  0
   56.7570   26.0120   45.6590 C   0  0  0  0  0  0  0  0  0  0  0  0
   57.9150   26.8990   46.0390 C   0  0  0  0  0  0  0  0  0  0  0  0
   57.8412   27.1383   47.1101 H   0  0  0  0  0  0  0  0  0  0  0  0
   58.8445   26.3559   45.8130 H   0  0  0  0  0  0  0  0  0  0  0  0
   57.9290   28.2120   45.2380 C   0  0  0  0  0  0  0  0  0  0  0  0
   57.1011   28.8456   45.5889 H   0  0  0  0  0  0  0  0  0  0  0  0
   58.9074   28.6872   45.4018 H   0  0  0  0  0  0  0  0  0  0  0  0
   57.7710   27.9930   43.7220 C   0  0  0  0  0  0  0  0  0  0  0  0
   58.7743   27.9614   43.2721 H   0  0  0  0  0  0  0  0  0  0  0  0
   57.2160   27.0517   43.5959 H   0  0  0  0  0  0  0  0  0  0  0  0
   56.9570   29.0830   43.0070 C   0  0  0  0  0  0  0  0  0  0  0  0
   57.3410   29.1970   41.9825 H   0  0  0  0  0  0  0  0  0  0  0  0
   55.9022   28.7710   43.0073 H   0  0  0  0  0  0  0  0  0  0  0  0
   57.0450   30.4060   43.7050 C   0  0  0  0  0  0  0  0  0  0  0  0
   56.2550   30.7600   44.7450 N   0  0  0  0  0  0  0  0  0  0  0  0
   56.5440   31.9620   45.2380 N   0  0  0  0  0  0  0  0  0  0  0  0
   57.5740   32.5620   44.5990 C   0  0  0  0  0  0  0  0  0  0  0  0
   58.0200   33.7540   44.8690 N   0  0  0  0  0  0  0  0  0  0  0  0
   58.7160   34.1770   46.0530 C   0  0  0  0  0  0  0  0  0  0  0  0
   58.0890   34.1740   47.1470 O   0  0  0  0  0  0  0  0  0  0  0  0
   60.1570   34.6260   46.0230 C   0  0  0  0  0  0  0  0  0  0  0  0
   60.4389   34.8444   44.9824 H   0  0  0  0  0  0  0  0  0  0  0  0
   60.2463   35.5206   46.6569 H   0  0  0  0  0  0  0  0  0  0  0  0
   61.0900   33.5750   46.5690 C   0  0  0  0  0  0  0  0  0  0  0  0
   62.4590   33.8530   46.7120 C   0  0  0  0  0  0  0  0  0  0  0  0
   62.8511   34.8389   46.4218 H   0  0  0  0  0  0  0  0  0  0  0  0
   63.3260   32.8810   47.2220 C   0  0  0  0  0  0  0  0  0  0  0  0
   64.3983   33.1025   47.3273 H   0  0  0  0  0  0  0  0  0  0  0  0
   62.8320   31.6290   47.5980 C   0  0  0  0  0  0  0  0  0  0  0  0
   63.5159   30.8636   47.9936 H   0  0  0  0  0  0  0  0  0  0  0  0
   61.4680   31.3500   47.4710 C   0  0  0  0  0  0  0  0  0  0  0  0
   61.0785   30.3666   47.7731 H   0  0  0  0  0  0  0  0  0  0  0  0
   60.5980   32.3180   46.9610 C   0  0  0  0  0  0  0  0  0  0  0  0
   59.5250   32.0953   46.8661 H   0  0  0  0  0  0  0  0  0  0  0  0
   58.1760   31.6070   43.3520 S   0  0  0  0  0  0  0  0  0  0  0  0
   56.9410   24.9490   44.7690 C   0  0  0  0  0  0  0  0  0  0  0  0
   57.9297   24.7605   44.3251 H   0  0  0  0  0  0  0  0  0  0  0  0
   55.8570   24.1300   44.4500 C   0  0  0  0  0  0  0  0  0  0  0  0
   55.9812   23.2936   43.7464 H   0  0  0  0  0  0  0  0  0  0  0  0
  1  2  1  0
  2  3  1  0
  3  4  2  0
  4  5  1  0
  4  6  1  0
  6  7  1  0
  6  8  2  0
  8  9  1  0
  8 10  1  0
 10 11  1  0
 10 12  2  0
 12 13  1  0
 13 14  2  0
 13 15  1  0
 15 16  1  0
 16 17  1  0
 16 18  1  0
 16 19  1  0
 19 20  2  0
 19 21  1  0
 21 22  2  3
 22 23  1  0
 23 24  1  0
 24 25  2  0
 25 26  1  0
 26 27  1  0
 26 28  1  0
 26 29  1  0
 29 30  1  0
 29 31  1  0
 29 32  1  0
 32 33  1  0
 32 34  1  0
 32 35  1  0
 35 36  1  0
 35 37  1  0
 35 38  1  0
 38 39  2  0
 39 40  1  0
 40 41  1  0
 41 42  2  0
 42 43  1  0
 43 44  2  0
 43 45  1  0
 45 46  1  0
 45 47  1  0
 45 48  1  0
 48 49  2  0
 49 50  1  0
 49 51  1  0
 51 52  1  0
 51 53  2  0
 53 54  1  0
 53 55  1  0
 55 56  1  0
 55 57  2  0
 57 58  1  0
 41 59  1  0
 25 60  1  0
 60 61  1  0
 60 62  2  0
 62 63  1  0
 12  3  1  0
 62 22  1  0
 59 38  1  0
 57 48  1  0
M  CHG  3  15  -1  23  -1  40  -1
M  END
>  <UniqueID>  (4) 
4

>  <SMILES>  (4) 
O=C(C[N-]C(=O)c1ccccc1O)N=c1ccc(CCCCc2n[n-]/c(=N\C(=O)Cc3ccccc3)s2)n[n-]1

>  <Energy>  (4) 
109.92091227890427

>  <Genealogy>  (4) 
O=C(C[N-]C(=O)c1ccccc1O)N=c1ccc(CCCCc2n[n-]c(=NC(=O)Cc3ccccc3)s2)n[n-]1 (protonated)
O=C(C[N-]C(=O)c1ccccc1O)N=c1ccc(CCCCc2n[n-]/c(=N\C(=O)Cc3ccccc3)s2)n[n-]1 (cis-trans isomerization)
O=C(C[N-]C(=O)c1ccccc1O)N=c1ccc(CCCCc2n[n-]/c(=N\C(=O)Cc3ccccc3)s2)n[n-]1 (3D coordinates assigned)
O=C(C[N-]C(=O)c1ccccc1O)N=c1ccc(CCCCc2n[n-]/c(=N\C(=O)Cc3ccccc3)s2)n[n-]1 (optimized conformer: 109.92091227890427 kcal/mol)

>  <smiles>  (4) 
O=C(CNC(=O)c1ccccc1O)N=c1ccc(CCCCc2n[nH]c(=NC(=O)Cc3ccccc3)s2)n[nH]1

>  <score_type>  (4) 
oracle

>  <origin>  (4) 
adg

>  <m_score__min__energy>  (4) 
-14.949999999999999

>  <m_primary>  (4) 
energy

$$$$
4:0
     RDKit          3D

 63 67  0  0  0  0  0  0  0  0999 V2000
   58.7630   29.8230   44.9780 O   0  0  0  0  0  0  0  0  0  0  0  0
   57.5220   29.6150   44.8800 C   0  0  0  0  0  0  0  0  0  0  0  0
   56.6220   30.7150   44.7160 N   0  0  0  0  0  0  0  0  0  0  0  0
   57.0150   31.9610   44.0680 C   0  0  0  0  0  0  0  0  0  0  0  0
   57.7110   32.8420   45.0710 C   0  0  0  0  0  0  0  0  0  0  0  0
   58.3760   34.0050   44.6510 C   0  0  0  0  0  0  0  0  0  0  0  0
   59.1370   34.7470   45.5580 C   0  0  0  0  0  0  0  0  0  0  0  0
   59.2570   34.3280   46.8840 C   0  0  0  0  0  0  0  0  0  0  0  0
   58.5950   33.1690   47.3240 C   0  0  0  0  0  0  0  0  0  0  0  0
   58.7820   32.6850   48.7120 C   0  0  0  0  0  0  0  0  0  0  0  0
   57.7770   32.3240   49.3790 O   0  0  0  0  0  0  0  0  0  0  0  0
   60.0620   32.6960   49.3570 N   0  0  0  0  0  0  0  0  0  0  0  0
   61.3430   32.7280   48.7100 C   0  0  0  0  0  0  0  0  0  0  0  0
   62.0950   33.9150   48.6450 C   0  0  0  0  0  0  0  0  0  0  0  0
   63.3340   33.9330   48.0000 C   0  0  0  0  0  0  0  0  0  0  0  0
   63.8310   32.7710   47.4100 C   0  0  0  0  0  0  0  0  0  0  0  0
   63.0890   31.5900   47.4590 C   0  0  0  0  0  0  0  0  0  0  0  0
   61.8400   31.5610   48.0960 C   0  0  0  0  0  0  0  0  0  0  0  0
   61.1160   30.3240   48.1720 N   0  0  0  0  0  0  0  0  0  0  0  0
   60.7490   29.8290   49.5050 C   0  0  0  0  0  0  0  0  0  0  0  0
   60.0110   28.4850   49.4630 C   0  0  0  0  0  0  0  0  0  0  0  0
   59.2060   28.3720   48.3110 O   0  0  0  0  0  0  0  0  0  0  0  0
   60.0410   28.3150   47.1780 C   0  0  0  0  0  0  0  0  0  0  0  0
   60.6850   29.6770   46.9230 C   0  0  0  0  0  0  0  0  0  0  0  0
   57.8170   32.4350   46.4110 C   0  0  0  0  0  0  0  0  0  0  0  0
   57.0120   28.2780   44.8910 N   0  0  0  0  0  0  0  0  0  0  0  0
   57.8910   27.1290   44.6520 C   0  0  2  0  0  0  0  0  0  0  0  0
   57.7700   26.6300   43.1920 C   0  0  0  0  0  0  0  0  0  0  0  0
   57.4330   25.1290   43.2410 C   0  0  0  0  0  0  0  0  0  0  0  0
   57.2360   24.8530   44.6820 C   0  0  0  0  0  0  0  0  0  0  0  0
   56.8690   23.6320   45.2520 C   0  0  0  0  0  0  0  0  0  0  0  0
   56.7390   23.5490   46.6460 C   0  0  0  0  0  0  0  0  0  0  0  0
   56.9820   24.6780   47.4450 C   0  0  0  0  0  0  0  0  0  0  0  0
   57.3600   25.8930   46.8540 C   0  0  0  0  0  0  0  0  0  0  0  0
   57.4750   25.9560   45.4620 C   0  0  0  0  0  0  0  0  0  0  0  0
   57.6978   31.7425   43.2338 H   0  0  0  0  0  0  0  0  0  0  0  0
   56.1222   32.4744   43.6816 H   0  0  0  0  0  0  0  0  0  0  0  0
   58.2976   34.3333   43.6040 H   0  0  0  0  0  0  0  0  0  0  0  0
   59.6436   35.6651   45.2257 H   0  0  0  0  0  0  0  0  0  0  0  0
   59.8725   34.9075   47.5878 H   0  0  0  0  0  0  0  0  0  0  0  0
   61.7049   34.8349   49.1050 H   0  0  0  0  0  0  0  0  0  0  0  0
   63.9180   34.8642   47.9574 H   0  0  0  0  0  0  0  0  0  0  0  0
   64.8085   32.7854   46.9057 H   0  0  0  0  0  0  0  0  0  0  0  0
   63.4867   30.6755   46.9947 H   0  0  0  0  0  0  0  0  0  0  0  0
   61.6671   29.7064   50.0984 H   0  0  0  0  0  0  0  0  0  0  0  0
   60.0658   30.5656   49.9529 H   0  0  0  0  0  0  0  0  0  0  0  0
   60.7509   27.6710   49.4630 H   0  0  0  0  0  0  0  0  0  0  0  0
   59.3589   28.4222   50.3466 H   0  0  0  0  0  0  0  0  0  0  0  0
   60.8296   27.5668   47.3460 H   0  0  0  0  0  0  0  0  0  0  0  0
   59.4364   28.0362   46.3024 H   0  0  0  0  0  0  0  0  0  0  0  0
   61.5618   29.5394   46.2731 H   0  0  0  0  0  0  0  0  0  0  0  0
   59.9345   30.3243   46.4458 H   0  0  0  0  0  0  0  0  0  0  0  0
   57.2862   31.5331   46.7497 H   0  0  0  0  0  0  0  0  0  0  0  0
   55.9760   28.1470   44.8710 H   0  0  0  0  0  0  0  0  0  0  0  0
   58.9045   27.4769   44.9006 H   0  0  0  0  0  0  0  0  0  0  0  0
   56.9694   27.1777   42.6733 H   0  0  0  0  0  0  0  0  0  0  0  0
   58.7105   26.7977   42.6467 H   0  0  0  0  0  0  0  0  0  0  0  0
   56.5155   24.9155   42.6730 H   0  0  0  0  0  0  0  0  0  0  0  0
   58.2198   24.5036   42.7939 H   0  0  0  0  0  0  0  0  0  0  0  0
   56.6852   22.7513   44.6191 H   0  0  0  0  0  0  0  0  0  0  0  0
   56.4461   22.5978   47.1144 H   0  0  0  0  0  0  0  0  0  0  0  0
   56.8756   24.6095   48.5377 H   0  0  0  0  0  0  0  0  0  0  0  0
   57.5620   26.7790   47.4739 H   0  0  0  0  0  0  0  0  0  0  0  0
  1  2  2  0
  2  3  1  0
  3  4  1  0
  4  5  1  0
  5  6  2  0
  6  7  1  0
  7  8  2  0
  8  9  1  0
  9 10  1  0
 10 11  2  0
 10 12  1  0
 12 13  1  0
 13 14  2  0
 14 15  1  0
 15 16  2  0
 16 17  1  0
 17 18  2  0
 18 19  1  0
 19 20  1  0
 20 21  1  0
 21 22  1  0
 22 23  1  0
 23 24  1  0
  9 25  2  0
  2 26  1  0
 26 27  1  0
 27 28  1  0
 28 29  1  0
 29 30  1  0
 30 31  2  0
 31 32  1  0
 32 33  2  0
 33 34  1  0
 34 35  2  0
 25  5  1  0
 35 27  1  0
 18 13  1  0
 24 19  1  0
 35 30  1  0
  4 36  1  0
  4 37  1  0
  6 38  1  0
  7 39  1  0
  8 40  1  0
 14 41  1  0
 15 42  1  0
 16 43  1  0
 17 44  1  0
 20 45  1  0
 20 46  1  0
 21 47  1  0
 21 48  1  0
 23 49  1  0
 23 50  1  0
 24 51  1  0
 24 52  1  0
 25 53  1  0
 26 54  1  0
 27 55  1  1
 28 56  1  0
 28 57  1  0
 29 58  1  0
 29 59  1  0
 31 60  1  0
 32 61  1  0
 33 62  1  0
 34 63  1  0
M  CHG  2   3  -1  12  -1
M  END
>  <UniqueID>  (5) 
5

>  <SMILES>  (5) 
O=C([N-]Cc1cccc(C(=O)[N-]c2ccccc2N2CCOCC2)c1)N[C@@H]1CCc2ccccc21

>  <Energy>  (5) 
85.98798761892346

>  <Genealogy>  (5) 
O=C([N-]Cc1cccc(C(=O)[N-]c2ccccc2N2CCOCC2)c1)NC1CCc2ccccc21 (protonated)
O=C([N-]Cc1cccc(C(=O)[N-]c2ccccc2N2CCOCC2)c1)N[C@@H]1CCc2ccccc21 (chirality)
O=C([N-]Cc1cccc(C(=O)[N-]c2ccccc2N2CCOCC2)c1)N[C@@H]1CCc2ccccc21 (3D coordinates assigned)
O=C([N-]Cc1cccc(C(=O)[N-]c2ccccc2N2CCOCC2)c1)N[C@@H]1CCc2ccccc21 (nonaromatic ring conformer: 85.98798761892346 kcal/mol)

>  <smiles>  (5) 
O=C(NCc1cccc(C(=O)Nc2ccccc2N2CCOCC2)c1)NC1CCc2ccccc21

>  <score_type>  (5) 
oracle

>  <origin>  (5) 
adg

>  <m_score__min__energy>  (5) 
-12.69

>  <m_primary>  (5) 
energy

$$$$
5:0
     RDKit          3D

 51 53  0  0  0  0  0  0  0  0999 V2000
   60.1890   29.6090   50.5160 C   0  0  0  0  0  0  0  0  0  0  0  0
   59.2940   29.7680   49.4210 O   0  0  0  0  0  0  0  0  0  0  0  0
   59.5720   29.3740   48.1020 C   0  0  0  0  0  0  0  0  0  0  0  0
   58.9420   28.2650   47.5040 C   0  0  0  0  0  0  0  0  0  0  0  0
   59.2400   27.9100   46.1860 C   0  0  0  0  0  0  0  0  0  0  0  0
   60.1560   28.6600   45.4490 C   0  0  0  0  0  0  0  0  0  0  0  0
   60.7870   29.7610   46.0310 C   0  0  0  0  0  0  0  0  0  0  0  0
   60.5160   30.1130   47.3660 C   0  0  0  0  0  0  0  0  0  0  0  0
   61.1360   31.2510   47.9820 N   0  0  0  0  0  0  0  0  0  0  0  0
   62.3330   31.9030   47.5410 C   0  0  0  0  0  0  0  0  0  0  0  0
   63.3160   31.2180   47.1470 O   0  0  0  0  0  0  0  0  0  0  0  0
   62.4610   33.4110   47.6640 C   0  0  2  0  0  0  0  0  0  0  0  0
   63.1230   33.9280   46.3670 C   0  0  0  0  0  0  0  0  0  0  0  0
   63.4020   33.7870   48.8400 C   0  0  0  0  0  0  0  0  0  0  0  0
   62.9120   33.0990   50.4710 S   0  0  0  0  0  0  0  0  0  0  0  0
   61.1020   32.9820   50.2380 C   0  0  0  0  0  0  0  0  0  0  0  0
   60.5830   33.9760   49.2490 C   0  0  0  0  0  0  0  0  0  0  0  0
   59.6420   34.7420   49.5910 O   0  0  0  0  0  0  0  0  0  0  0  0
   61.1300   34.0360   47.9110 N   0  0  0  0  0  0  0  0  0  0  0  0
   60.3010   34.6360   46.8390 C   0  0  0  0  0  0  0  0  0  0  0  0
   59.3530   33.6200   46.2540 C   0  0  0  0  0  0  0  0  0  0  0  0
   58.6750   32.7140   47.0840 C   0  0  0  0  0  0  0  0  0  0  0  0
   57.7740   31.7960   46.5400 C   0  0  0  0  0  0  0  0  0  0  0  0
   57.5460   31.7630   45.1580 C   0  0  0  0  0  0  0  0  0  0  0  0
   56.6360   30.8520   44.6220 O   0  0  0  0  0  0  0  0  0  0  0  0
   58.2380   32.6500   44.3120 C   0  0  0  0  0  0  0  0  0  0  0  0
   57.9900   32.6310   42.8300 C   0  0  0  0  0  0  0  0  0  0  0  0
   59.1380   33.5740   44.8670 C   0  0  0  0  0  0  0  0  0  0  0  0
   59.6339   29.7076   51.4605 H   0  0  0  0  0  0  0  0  0  0  0  0
   60.6553   28.6139   50.4669 H   0  0  0  0  0  0  0  0  0  0  0  0
   60.9695   30.3825   50.4669 H   0  0  0  0  0  0  0  0  0  0  0  0
   58.2117   27.6755   48.0777 H   0  0  0  0  0  0  0  0  0  0  0  0
   58.7511   27.0371   45.7287 H   0  0  0  0  0  0  0  0  0  0  0  0
   60.3815   28.3839   44.4084 H   0  0  0  0  0  0  0  0  0  0  0  0
   61.5002   30.3568   45.4424 H   0  0  0  0  0  0  0  0  0  0  0  0
   63.9661   34.5865   46.6230 H   0  0  0  0  0  0  0  0  0  0  0  0
   63.4899   33.0749   45.7774 H   0  0  0  0  0  0  0  0  0  0  0  0
   62.3842   34.4906   45.7774 H   0  0  0  0  0  0  0  0  0  0  0  0
   64.4106   33.4180   48.6023 H   0  0  0  0  0  0  0  0  0  0  0  0
   63.3515   34.8814   48.9385 H   0  0  0  0  0  0  0  0  0  0  0  0
   60.8575   31.9704   49.8818 H   0  0  0  0  0  0  0  0  0  0  0  0
   60.6273   33.1975   51.2066 H   0  0  0  0  0  0  0  0  0  0  0  0
   59.7196   35.4702   47.2587 H   0  0  0  0  0  0  0  0  0  0  0  0
   60.9675   34.9931   46.0400 H   0  0  0  0  0  0  0  0  0  0  0  0
   58.8542   32.7270   48.1692 H   0  0  0  0  0  0  0  0  0  0  0  0
   57.2408   31.0956   47.1997 H   0  0  0  0  0  0  0  0  0  0  0  0
   56.8280   30.3570   43.7580 H   0  0  0  0  0  0  0  0  0  0  0  0
   56.9097   32.5482   42.6401 H   0  0  0  0  0  0  0  0  0  0  0  0
   58.3708   33.5610   42.3826 H   0  0  0  0  0  0  0  0  0  0  0  0
   58.5080   31.7699   42.3826 H   0  0  0  0  0  0  0  0  0  0  0  0
   59.6801   34.2688   44.2087 H   0  0  0  0  0  0  0  0  0  0  0  0
  1  2  1  0
  2  3  1  0
  3  4  2  0
  4  5  1  0
  5  6  2  0
  6  7  1  0
  7  8  2  0
  8  9  1  0
  9 10  1  0
 10 11  2  0
 10 12  1  0
 12 13  1  6
 12 14  1  0
 14 15  1  0
 15 16  1  0
 16 17  1  0
 17 18  2  0
 17 19  1  0
 19 20  1  0
 20 21  1  0
 21 22  2  0
 22 23  1  0
 23 24  2  0
 24 25  1  0
 24 26  1  0
 26 27  1  0
 26 28  2  0
  8  3  1  0
 19 12  1  0
 28 21  1  0
  1 29  1  0
  1 30  1  0
  1 31  1  0
  4 32  1  0
  5 33  1  0
  6 34  1  0
  7 35  1  0
 13 36  1  0
 13 37  1  0
 13 38  1  0
 14 39  1  0
 14 40  1  0
 16 41  1  0
 16 42  1  0
 20 43  1  0
 20 44  1  0
 22 45  1  0
 23 46  1  0
 25 47  1  0
 27 48  1  0
 27 49  1  0
 27 50  1  0
 28 51  1  0
M  CHG  1   9  -1
M  END
>  <UniqueID>  (6) 
6

>  <SMILES>  (6) 
COc1ccccc1[N-]C(=O)[C@]1(C)CSCC(=O)N1Cc1ccc(O)c(C)c1

>  <Energy>  (6) 
60.12045591799327

>  <Genealogy>  (6) 
COc1ccccc1[N-]C(=O)C1(C)CSCC(=O)N1Cc1ccc(O)c(C)c1 (protonated)
COc1ccccc1[N-]C(=O)[C@]1(C)CSCC(=O)N1Cc1ccc(O)c(C)c1 (chirality)
COc1ccccc1[N-]C(=O)[C@]1(C)CSCC(=O)N1Cc1ccc(O)c(C)c1 (3D coordinates assigned)
COc1ccccc1[N-]C(=O)[C@]1(C)CSCC(=O)N1Cc1ccc(O)c(C)c1 (nonaromatic ring conformer: 60.12045591799327 kcal/mol)

>  <smiles>  (6) 
COc1ccccc1NC(=O)C1(C)CSCC(=O)N1Cc1ccc(O)c(C)c1

>  <score_type>  (6) 
oracle

>  <origin>  (6) 
adg

>  <m_score__min__energy>  (6) 
-8.9199999999999999

>  <m_primary>  (6) 
energy

$$$$
6:0
     RDKit          3D

 25 26  0  0  0  0  0  0  0  0999 V2000
   52.4180   31.9280   54.4690 H   0  0  0  0  0  0  0  0  0  0  0  0
   51.5720   31.8940   53.9160 O   0  0  0  0  0  0  0  0  0  0  0  0
   51.5990   31.7600   52.5300 C   0  0  0  0  0  0  0  0  0  0  0  0
   50.7080   32.3770   51.7290 N   0  0  0  0  0  0  0  0  0  0  0  0
   51.0180   31.9600   50.4870 C   0  0  0  0  0  0  0  0  0  0  0  0
   50.3290   32.3700   49.3530 O   0  0  0  0  0  0  0  0  0  0  0  0
   52.0870   31.0900   50.4790 C   0  0  0  0  0  0  0  0  0  0  0  0
   52.5360   30.5957   49.6049 H   0  0  0  0  0  0  0  0  0  0  0  0
   52.4760   30.9690   51.7980 C   0  0  0  0  0  0  0  0  0  0  0  0
   53.6150   30.1660   52.2890 C   0  0  0  0  0  0  0  0  0  0  0  0
   54.9370   30.5310   52.0000 C   0  0  0  0  0  0  0  0  0  0  0  0
   55.1392   31.4394   51.4136 H   0  0  0  0  0  0  0  0  0  0  0  0
   55.9700   29.7660   52.4420 N   0  0  0  0  0  0  0  0  0  0  0  0
   55.7850   28.6250   53.1590 C   0  0  0  0  0  0  0  0  0  0  0  0
   56.8420   27.9670   53.5500 N   0  0  0  0  0  0  0  0  0  0  0  0
   57.7930   28.3030   54.5740 C   0  0  0  0  0  0  0  0  0  0  0  0
   58.6480   27.4660   54.9720 O   0  0  0  0  0  0  0  0  0  0  0  0
   57.8690   29.7100   55.0610 C   0  0  0  0  0  0  0  0  0  0  0  0
   57.8694   29.7178   56.1610 H   0  0  0  0  0  0  0  0  0  0  0  0
   58.7937   30.1767   54.6907 H   0  0  0  0  0  0  0  0  0  0  0  0
   57.0000   30.2736   54.6907 H   0  0  0  0  0  0  0  0  0  0  0  0
   54.4690   28.2260   53.4710 C   0  0  0  0  0  0  0  0  0  0  0  0
   54.2920   27.3167   54.0641 H   0  0  0  0  0  0  0  0  0  0  0  0
   53.3920   28.9930   53.0220 C   0  0  0  0  0  0  0  0  0  0  0  0
   52.3630   28.6746   53.2450 H   0  0  0  0  0  0  0  0  0  0  0  0
  1  2  1  0
  2  3  1  0
  3  4  1  0
  4  5  1  0
  5  6  1  0
  5  7  2  0
  7  8  1  0
  7  9  1  0
  9 10  1  0
 10 11  2  0
 11 12  1  0
 11 13  1  0
 13 14  1  0
 14 15  2  0
 15 16  1  0
 16 17  2  0
 16 18  1  0
 18 19  1  0
 18 20  1  0
 18 21  1  0
 14 22  1  0
 22 23  1  0
 22 24  2  0
 24 25  1  0
  9  3  2  0
 24 10  1  0
M  CHG  3   4  -1   6  -1  13  -1
M  END
>  <UniqueID>  (7) 
7

>  <SMILES>  (7) 
CC(=O)/N=c1\ccc(-c2cc([O-])[n-]c2O)c[n-]1

>  <Energy>  (7) 
62.73319919624217

>  <Genealogy>  (7) 
CC(=O)N=c1ccc(-c2cc([O-])[n-]c2O)c[n-]1 (protonated)
CC(=O)/N=c1\ccc(-c2cc([O-])[n-]c2O)c[n-]1 (cis-trans isomerization)
CC(=O)/N=c1\ccc(-c2cc([O-])[n-]c2O)c[n-]1 (3D coordinates assigned)
CC(=O)/N=c1\ccc(-c2cc([O-])[n-]c2O)c[n-]1 (optimized conformer: 62.73319919624217 kcal/mol)

>  <smiles>  (7) 
CC(=O)N=c1ccc(-c2cc(O)[nH]c2O)c[nH]1

>  <score_type>  (7) 
oracle

>  <origin>  (7) 
adg

>  <m_score__min__energy>  (7) 
-12.779999999999999

>  <m_primary>  (7) 
energy

$$$$
7:0
     RDKit          3D

 63 67  0  0  0  0  0  0  0  0999 V2000
   67.1680   29.8850   51.5380 C   0  0  0  0  0  0  0  0  0  0  0  0
   65.6890   29.8020   51.7170 C   0  0  0  0  0  0  0  0  0  0  0  0
   65.0920   28.9980   52.6860 C   0  0  0  0  0  0  0  0  0  0  0  0
   63.4300   29.1660   52.5470 S   0  0  0  0  0  0  0  0  0  0  0  0
   63.5440   30.2160   51.2440 C   0  0  0  0  0  0  0  0  0  0  0  0
   62.5150   30.7620   50.6730 N   0  0  0  0  0  0  0  0  0  0  0  0
   61.6210   31.7080   51.2780 C   0  0  0  0  0  0  0  0  0  0  0  0
   62.0660   32.7540   51.8270 O   0  0  0  0  0  0  0  0  0  0  0  0
   60.1670   31.4380   51.2700 C   0  0  0  0  0  0  0  0  0  0  0  0
   59.3930   31.8370   52.3790 C   0  0  0  0  0  0  0  0  0  0  0  0
   58.0110   31.6570   52.3750 C   0  0  0  0  0  0  0  0  0  0  0  0
   57.3990   31.0670   51.2640 C   0  0  0  0  0  0  0  0  0  0  0  0
   58.1530   30.6650   50.2090 N   0  0  0  0  0  0  0  0  0  0  0  0
   59.5070   30.8160   50.1830 C   0  0  0  0  0  0  0  0  0  0  0  0
   60.4000   30.1000   48.7910 S   0  0  0  0  0  0  0  0  0  0  0  0
   58.9120   29.4380   47.9560 C   0  0  0  0  0  0  0  0  0  0  0  0
   58.6060   30.2060   46.6970 C   0  0  0  0  0  0  0  0  0  0  0  0
   58.0040   29.5580   45.6060 C   0  0  0  0  0  0  0  0  0  0  0  0
   57.5880   30.2920   44.4960 C   0  0  0  0  0  0  0  0  0  0  0  0
   57.7630   31.6780   44.4660 C   0  0  0  0  0  0  0  0  0  0  0  0
   58.3850   32.3310   45.5370 C   0  0  0  0  0  0  0  0  0  0  0  0
   58.5920   34.1110   45.5230 S   0  0  0  0  0  0  0  0  0  0  0  0
   59.8850   34.0710   46.7670 C   0  0  0  0  0  0  0  0  0  0  0  0
   61.2070   33.8310   46.3800 C   0  0  0  0  0  0  0  0  0  0  0  0
   62.2180   33.7780   47.3430 C   0  0  0  0  0  0  0  0  0  0  0  0
   61.9260   33.9770   48.6980 C   0  0  0  0  0  0  0  0  0  0  0  0
   62.9920   33.8940   49.6600 N   0  0  0  0  0  0  0  0  0  0  0  0
   64.1870   33.1120   49.4910 C   0  0  0  0  0  0  0  0  0  0  0  0
   64.1840   32.0680   48.7040 N   0  0  0  0  0  0  0  0  0  0  0  0
   65.3760   33.4540   50.3120 C   0  0  0  0  0  0  0  0  0  0  0  0
   66.6560   32.9330   50.0380 C   0  0  0  0  0  0  0  0  0  0  0  0
   67.7380   33.3020   50.8460 C   0  0  0  0  0  0  0  0  0  0  0  0
   67.5470   34.1830   51.9070 C   0  0  0  0  0  0  0  0  0  0  0  0
   66.2690   34.6940   52.1440 C   0  0  0  0  0  0  0  0  0  0  0  0
   65.2270   34.3250   51.3470 N   0  0  0  0  0  0  0  0  0  0  0  0
   60.5870   34.1850   49.0900 C   0  0  0  0  0  0  0  0  0  0  0  0
   60.2550   34.2760   50.4020 F   0  0  0  0  0  0  0  0  0  0  0  0
   59.5760   34.2530   48.1220 C   0  0  0  0  0  0  0  0  0  0  0  0
   58.8150   31.5950   46.6450 C   0  0  0  0  0  0  0  0  0  0  0  0
   64.8240   30.4710   50.9080 N   0  0  0  0  0  0  0  0  0  0  0  0
   67.6557   29.9124   52.5236 H   0  0  0  0  0  0  0  0  0  0  0  0
   67.5197   29.0052   50.9792 H   0  0  0  0  0  0  0  0  0  0  0  0
   67.4190   30.7986   50.9792 H   0  0  0  0  0  0  0  0  0  0  0  0
   65.6190   28.3642   53.4144 H   0  0  0  0  0  0  0  0  0  0  0  0
   59.8827   32.2929   53.2522 H   0  0  0  0  0  0  0  0  0  0  0  0
   57.4071   31.9759   53.2374 H   0  0  0  0  0  0  0  0  0  0  0  0
   56.3079   30.9289   51.2452 H   0  0  0  0  0  0  0  0  0  0  0  0
   59.0846   28.3824   47.6992 H   0  0  0  0  0  0  0  0  0  0  0  0
   58.0563   29.5362   48.6402 H   0  0  0  0  0  0  0  0  0  0  0  0
   57.8602   28.4676   45.6273 H   0  0  0  0  0  0  0  0  0  0  0  0
   57.1211   29.7790   43.6422 H   0  0  0  0  0  0  0  0  0  0  0  0
   57.4114   32.2571   43.5994 H   0  0  0  0  0  0  0  0  0  0  0  0
   61.4511   33.6839   45.3176 H   0  0  0  0  0  0  0  0  0  0  0  0
   63.2544   33.5778   47.0334 H   0  0  0  0  0  0  0  0  0  0  0  0
   62.8420   34.3610   50.5800 H   0  0  0  0  0  0  0  0  0  0  0  0
   64.5410   32.1000   47.7240 H   0  0  0  0  0  0  0  0  0  0  0  0
   63.8710   31.1280   49.0480 H   0  0  0  0  0  0  0  0  0  0  0  0
   66.8041   32.2415   49.1955 H   0  0  0  0  0  0  0  0  0  0  0  0
   68.7397   32.8956   50.6425 H   0  0  0  0  0  0  0  0  0  0  0  0
   68.3912   34.4727   52.5499 H   0  0  0  0  0  0  0  0  0  0  0  0
   66.1033   35.3953   52.9751 H   0  0  0  0  0  0  0  0  0  0  0  0
   58.5374   34.4497   48.4263 H   0  0  0  0  0  0  0  0  0  0  0  0
   59.3189   32.1048   47.4794 H   0  0  0  0  0  0  0  0  0  0  0  0
  1  2  1  0
  2  3  2  0
  3  4  1  0
  4  5  1  0
  5  6  2  3
  6  7  1  0
  7  8  2  0
  7  9  1  0
  9 10  2  0
 10 11  1  0
 11 12  2  0
 12 13  1  0
 13 14  2  0
 14 15  1  0
 15 16  1  0
 16 17  1  0
 17 18  2  0
 18 19  1  0
 19 20  2  0
 20 21  1  0
 21 22  1  0
 22 23  1  0
 23 24  2  0
 24 25  1  0
 25 26  2  0
 26 27  1  0
 27 28  1  0
 28 29  2  0
 28 30  1  0
 30 31  2  0
 31 32  1  0
 32 33  2  0
 33 34  1  0
 34 35  2  0
 26 36  1  0
 36 37  1  0
 36 38  2  0
 21 39  2  0
  5 40  1  0
 40  2  1  0
 14  9  1  0
 39 17  1  0
 38 23  1  0
 35 30  1  0
  1 41  1  0
  1 42  1  0
  1 43  1  0
  3 44  1  0
 10 45  1  0
 11 46  1  0
 12 47  1  0
 16 48  1  0
 16 49  1  0
 18 50  1  0
 19 51  1  0
 20 52  1  0
 24 53  1  0
 25 54  1  0
 27 55  1  0
 29 56  1  0
 29 57  1  0
 31 58  1  0
 32 59  1  0
 33 60  1  0
 34 61  1  0
 38 62  1  0
 39 63  1  0
M  CHG  2  29   1  40  -1
M  END
>  <UniqueID>  (8) 
8

>  <SMILES>  (8) 
Cc1csc(=NC(=O)c2cccnc2SCc2cccc(Sc3ccc(NC(=[NH2+])c4ccccn4)c(F)c3)c2)[n-]1

>  <Energy>  (8) 
106.83118027784806

>  <Genealogy>  (8) 
Cc1csc(=NC(=O)c2cccnc2SCc2cccc(Sc3ccc(NC(=[NH2+])c4ccccn4)c(F)c3)c2)[n-]1 (protonated)
Cc1csc(=NC(=O)c2cccnc2SCc2cccc(Sc3ccc(NC(=[NH2+])c4ccccn4)c(F)c3)c2)[n-]1 (3D coordinates assigned)
Cc1csc(=NC(=O)c2cccnc2SCc2cccc(Sc3ccc(NC(=[NH2+])c4ccccn4)c(F)c3)c2)[n-]1 (optimized conformer: 106.83118027784806 kcal/mol)

>  <smiles>  (8) 
Cc1csc(=NC(=O)c2cccnc2SCc2cccc(Sc3ccc(NC(=N)c4ccccn4)c(F)c3)c2)[nH]1

>  <score_type>  (8) 
oracle

>  <origin>  (8) 
adg

>  <m_score__min__energy>  (8) 
-10.76

>  <m_primary>  (8) 
energy

$$$$
8:0
     RDKit          3D

 49 52  0  0  0  0  0  0  0  0999 V2000
   60.6730   29.5560   45.9140 C   0  0  0  0  0  0  0  0  0  0  0  0
   60.0080   29.0180   44.8960 C   0  0  0  0  0  0  0  0  0  0  0  0
   58.6870   28.4880   45.0710 N   0  0  0  0  0  0  0  0  0  0  0  0
   57.4940   29.1030   44.8360 C   0  0  0  0  0  0  0  0  0  0  0  0
   57.3260   30.4890   44.3480 C   0  0  0  0  0  0  0  0  0  0  0  0
   57.4170   30.7370   43.1190 O   0  0  0  0  0  0  0  0  0  0  0  0
   56.9860   31.5580   45.2420 N   0  0  0  0  0  0  0  0  0  0  0  0
   57.8400   32.6470   45.6220 C   0  0  0  0  0  0  0  0  0  0  0  0
   58.3490   33.5570   44.6750 C   0  0  0  0  0  0  0  0  0  0  0  0
   59.1410   34.6330   45.0880 C   0  0  0  0  0  0  0  0  0  0  0  0
   59.4130   34.8220   46.4450 C   0  0  0  0  0  0  0  0  0  0  0  0
   58.8960   33.9350   47.3910 C   0  0  0  0  0  0  0  0  0  0  0  0
   58.1090   32.8530   46.9820 C   0  0  0  0  0  0  0  0  0  0  0  0
   56.4370   28.2950   45.2530 C   0  0  0  0  0  0  0  0  0  0  0  0
   57.0270   27.1680   45.7780 C   0  0  0  0  0  0  0  0  0  0  0  0
   56.4540   26.0500   46.3760 C   0  0  0  0  0  0  0  0  0  0  0  0
   57.3120   25.0760   46.9230 C   0  0  0  0  0  0  0  0  0  0  0  0
   56.7580   23.9000   47.6120 C   0  0  0  0  0  0  0  0  0  0  0  0
   55.6720   24.0160   48.2380 O   0  0  0  0  0  0  0  0  0  0  0  0
   57.3920   22.6160   47.5540 N   0  0  0  0  0  0  0  0  0  0  0  0
   57.5730   21.8050   46.3510 C   0  0  0  0  0  0  0  0  0  0  0  0
   56.7690   22.3550   45.2000 C   0  0  0  0  0  0  0  0  0  0  0  0
   57.4070   22.7360   44.0080 C   0  0  0  0  0  0  0  0  0  0  0  0
   56.6550   23.2220   42.9370 C   0  0  0  0  0  0  0  0  0  0  0  0
   55.2750   23.3540   43.0740 C   0  0  0  0  0  0  0  0  0  0  0  0
   54.6710   23.0130   44.2430 N   0  0  0  0  0  0  0  0  0  0  0  0
   55.3750   22.5260   45.3000 C   0  0  0  0  0  0  0  0  0  0  0  0
   54.7070   22.2010   46.4790 O   0  0  0  0  0  0  0  0  0  0  0  0
   58.7150   25.2200   46.7950 C   0  0  0  0  0  0  0  0  0  0  0  0
   59.2650   26.3520   46.1670 C   0  0  0  0  0  0  0  0  0  0  0  0
   58.3840   27.3200   45.6720 C   0  0  0  0  0  0  0  0  0  0  0  0
   61.6855   29.9571   45.7590 H   0  0  0  0  0  0  0  0  0  0  0  0
   60.2107   29.6000   46.9112 H   0  0  0  0  0  0  0  0  0  0  0  0
   60.4791   28.9788   43.9028 H   0  0  0  0  0  0  0  0  0  0  0  0
   58.1228   33.4208   43.6072 H   0  0  0  0  0  0  0  0  0  0  0  0
   59.5503   35.3314   44.3433 H   0  0  0  0  0  0  0  0  0  0  0  0
   60.0347   35.6699   46.7683 H   0  0  0  0  0  0  0  0  0  0  0  0
   59.1077   34.0871   48.4597 H   0  0  0  0  0  0  0  0  0  0  0  0
   57.6992   32.1603   47.7318 H   0  0  0  0  0  0  0  0  0  0  0  0
   55.3612   28.5120   45.1783 H   0  0  0  0  0  0  0  0  0  0  0  0
   55.3615   25.9301   46.4204 H   0  0  0  0  0  0  0  0  0  0  0  0
   58.6382   21.8023   46.0764 H   0  0  0  0  0  0  0  0  0  0  0  0
   57.2260   20.7829   46.5630 H   0  0  0  0  0  0  0  0  0  0  0  0
   58.5001   22.6513   43.9184 H   0  0  0  0  0  0  0  0  0  0  0  0
   57.1478   23.4983   41.9932 H   0  0  0  0  0  0  0  0  0  0  0  0
   54.6735   23.7346   42.2353 H   0  0  0  0  0  0  0  0  0  0  0  0
   55.1910   22.1990   47.3680 H   0  0  0  0  0  0  0  0  0  0  0  0
   59.3811   24.4390   47.1905 H   0  0  0  0  0  0  0  0  0  0  0  0
   60.3539   26.4726   46.0680 H   0  0  0  0  0  0  0  0  0  0  0  0
  1  2  2  0
  2  3  1  0
  3  4  1  0
  4  5  1  0
  5  6  2  0
  5  7  1  0
  7  8  1  0
  8  9  2  0
  9 10  1  0
 10 11  2  0
 11 12  1  0
 12 13  2  0
  4 14  2  0
 14 15  1  0
 15 16  2  0
 16 17  1  0
 17 18  1  0
 18 19  2  0
 18 20  1  0
 20 21  1  0
 21 22  1  0
 22 23  2  0
 23 24  1  0
 24 25  2  0
 25 26  1  0
 26 27  2  0
 27 28  1  0
 17 29  2  0
 29 30  1  0
 30 31  2  0
 31  3  1  0
 13  8  1  0
 31 15  1  0
 27 22  1  0
  1 32  1  0
  1 33  1  0
  2 34  1  0
  9 35  1  0
 10 36  1  0
 11 37  1  0
 12 38  1  0
 13 39  1  0
 14 40  1  0
 16 41  1  0
 21 42  1  0
 21 43  1  0
 23 44  1  0
 24 45  1  0
 25 46  1  0
 28 47  1  0
 29 48  1  0
 30 49  1  0
M  CHG  2   7  -1  20  -1
M  END
>  <UniqueID>  (9) 
9

>  <SMILES>  (9) 
C=Cn1c(C(=O)[N-]c2ccccc2)cc2cc(C(=O)[N-]Cc3cccnc3O)ccc21

>  <Energy>  (9) 
102.55407945329183

>  <Genealogy>  (9) 
C=Cn1c(C(=O)[N-]c2ccccc2)cc2cc(C(=O)[N-]Cc3cccnc3O)ccc21 (protonated)
C=Cn1c(C(=O)[N-]c2ccccc2)cc2cc(C(=O)[N-]Cc3cccnc3O)ccc21 (3D coordinates assigned)
C=Cn1c(C(=O)[N-]c2ccccc2)cc2cc(C(=O)[N-]Cc3cccnc3O)ccc21 (optimized conformer: 102.55407945329183 kcal/mol)

>  <smiles>  (9) 
C=Cn1c(C(=O)Nc2ccccc2)cc2cc(C(=O)NCc3cccnc3O)ccc21

>  <score_type>  (9) 
oracle

>  <origin>  (9) 
adg

>  <m_score__min__energy>  (9) 
-12.24

>  <m_primary>  (9) 
energy

$$$$
9:0
     RDKit          3D

 45 48  0  0  0  0  0  0  0  0999 V2000
   56.4970   20.7140   42.9930 N   0  0  0  0  0  0  0  0  0  0  0  0
   56.9580   21.7340   43.6570 C   0  0  0  0  0  0  0  0  0  0  0  0
   56.3620   22.9410   43.5990 N   0  0  0  0  0  0  0  0  0  0  0  0
   56.8220   24.0140   44.2780 C   0  0  0  0  0  0  0  0  0  0  0  0
   57.9560   23.8630   45.0700 C   0  0  0  0  0  0  0  0  0  0  0  0
   58.4630   25.0010   45.8050 C   0  0  0  0  0  0  0  0  0  0  0  0
   59.8040   25.2520   46.0100 C   0  0  0  0  0  0  0  0  0  0  0  0
   60.2370   26.3700   46.7310 C   0  0  0  0  0  0  0  0  0  0  0  0
   59.3180   27.2640   47.2630 C   0  0  0  0  0  0  0  0  0  0  0  0
   59.7290   28.4420   48.0200 C   0  0  0  0  0  0  0  0  0  0  0  0
   60.0510   28.2980   49.3720 C   0  0  0  0  0  0  0  0  0  0  0  0
   60.4520   29.4040   50.1310 C   0  0  0  0  0  0  0  0  0  0  0  0
   60.5340   30.6610   49.5500 C   0  0  0  0  0  0  0  0  0  0  0  0
   60.2150   30.8150   48.2080 C   0  0  0  0  0  0  0  0  0  0  0  0
   59.8160   29.7030   47.4580 C   0  0  0  0  0  0  0  0  0  0  0  0
   59.4080   29.9300   45.7290 S   0  0  0  0  0  0  0  0  0  0  0  0
   58.7480   31.6040   45.5800 C   0  0  0  0  0  0  0  0  0  0  0  0
   59.4540   32.6870   46.0630 C   0  0  0  0  0  0  0  0  0  0  0  0
   58.9780   33.9850   45.9680 C   0  0  0  0  0  0  0  0  0  0  0  0
   57.7420   34.1890   45.3600 C   0  0  0  0  0  0  0  0  0  0  0  0
   57.0150   33.1280   44.8690 C   0  0  0  0  0  0  0  0  0  0  0  0
   57.5400   31.8450   44.9920 C   0  0  0  0  0  0  0  0  0  0  0  0
   56.8080   30.7290   44.4930 N   0  0  0  0  0  0  0  0  0  0  0  0
   56.2470   29.8990   45.2450 O   0  0  0  0  0  0  0  0  0  0  0  0
   56.7490   30.6070   43.1110 O   0  0  0  0  0  0  0  0  0  0  0  0
   57.9610   26.9970   47.0480 C   0  0  0  0  0  0  0  0  0  0  0  0
   57.5450   25.8900   46.3340 C   0  0  0  0  0  0  0  0  0  0  0  0
   58.5660   22.6360   45.1330 C   0  0  0  0  0  0  0  0  0  0  0  0
   58.0610   21.5980   44.4300 N   0  0  0  0  0  0  0  0  0  0  0  0
   56.9770   19.8170   43.1200 H   0  0  0  0  0  0  0  0  0  0  0  0
   56.3115   24.9857   44.2065 H   0  0  0  0  0  0  0  0  0  0  0  0
   60.5500   24.5570   45.5970 H   0  0  0  0  0  0  0  0  0  0  0  0
   61.3136   26.5419   46.8774 H   0  0  0  0  0  0  0  0  0  0  0  0
   59.9889   27.3065   49.8444 H   0  0  0  0  0  0  0  0  0  0  0  0
   60.7035   29.2755   51.1941 H   0  0  0  0  0  0  0  0  0  0  0  0
   60.8493   31.5287   50.1480 H   0  0  0  0  0  0  0  0  0  0  0  0
   60.2756   31.8068   47.7361 H   0  0  0  0  0  0  0  0  0  0  0  0
   60.4296   32.5137   46.5406 H   0  0  0  0  0  0  0  0  0  0  0  0
   59.5605   34.8308   46.3620 H   0  0  0  0  0  0  0  0  0  0  0  0
   57.3418   35.2098   45.2710 H   0  0  0  0  0  0  0  0  0  0  0  0
   56.0387   33.2911   44.3891 H   0  0  0  0  0  0  0  0  0  0  0  0
   57.2073   27.6855   47.4576 H   0  0  0  0  0  0  0  0  0  0  0  0
   56.4697   25.7133   46.1842 H   0  0  0  0  0  0  0  0  0  0  0  0
   59.4634   22.4973   45.7538 H   0  0  0  0  0  0  0  0  0  0  0  0
   58.5140   20.6450   44.4640 H   0  0  0  0  0  0  0  0  0  0  0  0
  1  2  2  3
  2  3  1  0
  3  4  2  0
  4  5  1  0
  5  6  1  0
  6  7  2  0
  7  8  1  0
  8  9  2  0
  9 10  1  0
 10 11  2  0
 11 12  1  0
 12 13  2  0
 13 14  1  0
 14 15  2  0
 15 16  1  0
 16 17  1  0
 17 18  2  0
 18 19  1  0
 19 20  2  0
 20 21  1  0
 21 22  2  0
 22 23  1  0
 23 24  2  0
 23 25  1  0
  9 26  1  0
 26 27  2  0
  5 28  2  0
 28 29  1  0
 29  2  1  0
 27  6  1  0
 15 10  1  0
 22 17  1  0
  1 30  1  0
  4 31  1  0
  7 32  1  0
  8 33  1  0
 11 34  1  0
 12 35  1  0
 13 36  1  0
 14 37  1  0
 18 38  1  0
 19 39  1  0
 20 40  1  0
 21 41  1  0
 26 42  1  0
 27 43  1  0
 28 44  1  0
 29 45  1  0
M  CHG  2  23   1  25  -1
M  END
>  <smiles>  (10) 
N=c1ncc(-c2ccc(-c3ccccc3Sc3ccccc3[N+](=O)[O-])cc2)c[nH]1

>  <score_type>  (10) 
oracle

>  <origin>  (10) 
adg

>  <m_score__min__energy>  (10) 
-10.140000000000001

>  <m_primary>  (10) 
energy

$$$$
10:0
     RDKit          3D

 49 52  0  0  0  0  0  0  0  0999 V2000
   57.6990   24.8470   48.6120 O   0  0  0  0  0  0  0  0  0  0  0  0
   58.3100   25.4260   47.6750 C   0  0  0  0  0  0  0  0  0  0  0  0
   57.7560   25.3850   46.2850 C   0  0  0  0  0  0  0  0  0  0  0  0
   57.5600   26.7390   45.7670 N   0  0  0  0  0  0  0  0  0  0  0  0
   56.3850   27.3890   45.6180 C   0  0  0  0  0  0  0  0  0  0  0  0
   55.1490   26.8630   45.9810 O   0  0  0  0  0  0  0  0  0  0  0  0
   56.5910   28.6320   45.0570 C   0  0  0  0  0  0  0  0  0  0  0  0
   57.9410   28.7470   44.8430 C   0  0  0  0  0  0  0  0  0  0  0  0
   58.5110   27.5650   45.2800 C   0  0  0  0  0  0  0  0  0  0  0  0
   59.8660   27.2460   45.2300 O   0  0  0  0  0  0  0  0  0  0  0  0
   58.5890   29.9280   44.1960 C   0  0  0  0  0  0  0  0  0  0  0  0
   57.5910   31.0370   43.9250 C   0  0  0  0  0  0  0  0  0  0  0  0
   56.2610   30.9280   44.1470 C   0  0  0  0  0  0  0  0  0  0  0  0
   55.5950   29.6930   44.7180 C   0  0  0  0  0  0  0  0  0  0  0  0
   59.5350   26.1280   47.9240 N   0  0  0  0  0  0  0  0  0  0  0  0
   59.6590   27.4710   48.4150 C   0  0  0  0  0  0  0  0  0  0  0  0
   58.7050   28.4610   48.1220 C   0  0  0  0  0  0  0  0  0  0  0  0
   58.8410   29.7470   48.6510 C   0  0  0  0  0  0  0  0  0  0  0  0
   59.9200   30.0580   49.4860 C   0  0  0  0  0  0  0  0  0  0  0  0
   60.0640   31.6820   50.1510 S   0  0  0  0  0  0  0  0  0  0  0  0
   59.9450   31.6680   51.6500 O   0  0  0  0  0  0  0  0  0  0  0  0
   61.4130   32.2360   49.7880 O   0  0  0  0  0  0  0  0  0  0  0  0
   58.8330   32.6990   49.4750 N   0  0  0  0  0  0  0  0  0  0  0  0
   58.8830   33.3210   48.1830 C   0  0  0  0  0  0  0  0  0  0  0  0
   59.9100   34.2360   47.9200 C   0  0  0  0  0  0  0  0  0  0  0  0
   59.9890   34.8770   46.6800 C   0  0  0  0  0  0  0  0  0  0  0  0
   59.0410   34.6030   45.6900 C   0  0  0  0  0  0  0  0  0  0  0  0
   59.1070   35.2380   44.4930 F   0  0  0  0  0  0  0  0  0  0  0  0
   58.0180   33.6820   45.9370 C   0  0  0  0  0  0  0  0  0  0  0  0
   57.9390   33.0390   47.1760 C   0  0  0  0  0  0  0  0  0  0  0  0
   60.8610   29.0670   49.7980 C   0  0  0  0  0  0  0  0  0  0  0  0
   60.7260   27.7790   49.2700 C   0  0  0  0  0  0  0  0  0  0  0  0
   58.4585   24.8466   45.6319 H   0  0  0  0  0  0  0  0  0  0  0  0
   56.7842   24.8701   46.3064 H   0  0  0  0  0  0  0  0  0  0  0  0
   60.3330   26.8180   46.0190 H   0  0  0  0  0  0  0  0  0  0  0  0
   59.3763   30.3117   44.8616 H   0  0  0  0  0  0  0  0  0  0  0  0
   59.0104   29.6032   43.2332 H   0  0  0  0  0  0  0  0  0  0  0  0
   57.9716   31.9878   43.5235 H   0  0  0  0  0  0  0  0  0  0  0  0
   55.6238   31.7893   43.8975 H   0  0  0  0  0  0  0  0  0  0  0  0
   55.0484   29.9730   45.6306 H   0  0  0  0  0  0  0  0  0  0  0  0
   54.9118   29.2897   43.9560 H   0  0  0  0  0  0  0  0  0  0  0  0
   57.8486   28.2225   47.4741 H   0  0  0  0  0  0  0  0  0  0  0  0
   58.0958   30.5193   48.4098 H   0  0  0  0  0  0  0  0  0  0  0  0
   60.6602   34.4520   48.6949 H   0  0  0  0  0  0  0  0  0  0  0  0
   60.7971   35.5969   46.4835 H   0  0  0  0  0  0  0  0  0  0  0  0
   57.2750   33.4633   45.1559 H   0  0  0  0  0  0  0  0  0  0  0  0
   57.1369   32.3104   47.3652 H   0  0  0  0  0  0  0  0  0  0  0  0
   61.7075   29.3029   50.4596 H   0  0  0  0  0  0  0  0  0  0  0  0
   61.4618   27.0029   49.5273 H   0  0  0  0  0  0  0  0  0  0  0  0
  1  2  2  0
  2  3  1  0
  3  4  1  0
  4  5  1  0
  5  6  1  0
  5  7  2  0
  7  8  1  0
  8  9  2  0
  9 10  1  0
  8 11  1  0
 11 12  1  0
 12 13  2  0
 13 14  1  0
  2 15  1  0
 15 16  1  0
 16 17  2  0
 17 18  1  0
 18 19  2  0
 19 20  1  0
 20 21  2  0
 20 22  2  0
 20 23  1  0
 23 24  1  0
 24 25  2  0
 25 26  1  0
 26 27  2  0
 27 28  1  0
 27 29  1  0
 29 30  2  0
 19 31  1  0
 31 32  2  0
  9  4  1  0
 32 16  1  0
 14  7  1  0
 30 24  1  0
  3 33  1  0
  3 34  1  0
 10 35  1  0
 11 36  1  0
 11 37  1  0
 12 38  1  0
 13 39  1  0
 14 40  1  0
 14 41  1  0
 17 42  1  0
 18 43  1  0
 25 44  1  0
 26 45  1  0
 29 46  1  0
 30 47  1  0
 31 48  1  0
 32 49  1  0
M  CHG  3   6  -1  15  -1  23  -1
M  END
>  <UniqueID>  (11) 
10

>  <SMILES>  (11) 
O=C(Cn1c([O-])c2c(c1O)CC=CC2)[N-]c1ccc(S(=O)(=O)[N-]c2ccc(F)cc2)cc1

>  <Energy>  (11) 
90.56889666319074

>  <Genealogy>  (11) 
O=C(Cn1c([O-])c2c(c1O)CC=CC2)[N-]c1ccc(S(=O)(=O)[N-]c2ccc(F)cc2)cc1 (protonated)
O=C(Cn1c([O-])c2c(c1O)CC=CC2)[N-]c1ccc(S(=O)(=O)[N-]c2ccc(F)cc2)cc1 (3D coordinates assigned)
O=C(Cn1c([O-])c2c(c1O)CC=CC2)[N-]c1ccc(S(=O)(=O)[N-]c2ccc(F)cc2)cc1 (nonaromatic ring conformer: 90.56889666319074 kcal/mol)

>  <smiles>  (11) 
O=C(Cn1c(O)c2c(c1O)CC=CC2)Nc1ccc(S(=O)(=O)Nc2ccc(F)cc2)cc1

>  <score_type>  (11) 
oracle

>  <origin>  (11) 
adg

>  <m_score__min__energy>  (11) 
-13.83

>  <m_primary>  (11) 
energy

$$$$
11:0
     RDKit          3D

 53 55  0  0  0  0  0  0  0  0999 V2000
   63.5840   33.4620   47.0850 C   0  0  0  0  0  0  0  0  0  0  0  0
   63.0120   32.7800   48.2600 N   0  0  0  0  0  0  0  0  0  0  0  0
   63.8310   32.3580   49.2730 C   0  0  0  0  0  0  0  0  0  0  0  0
   65.0730   32.5790   49.2370 O   0  0  0  0  0  0  0  0  0  0  0  0
   63.3040   31.6670   50.3580 C   0  0  0  0  0  0  0  0  0  0  0  0
   61.9420   31.4020   50.3870 C   0  0  0  0  0  0  0  0  0  0  0  0
   61.1360   31.8080   49.3660 N   0  0  0  0  0  0  0  0  0  0  0  0
   59.7060   31.4560   49.4110 C   0  0  0  0  0  0  0  0  0  0  0  0
   59.4800   30.0430   48.9330 C   0  0  0  0  0  0  0  0  0  0  0  0
   58.7280   29.2720   49.5880 O   0  0  0  0  0  0  0  0  0  0  0  0
   60.1580   29.5220   47.7810 N   0  0  0  0  0  0  0  0  0  0  0  0
   60.1680   30.1350   46.4560 C   0  0  0  0  0  0  0  0  0  0  0  0
   59.6000   29.1840   45.4370 C   0  0  0  0  0  0  0  0  0  0  0  0
   59.8040   29.3940   44.2120 O   0  0  0  0  0  0  0  0  0  0  0  0
   58.7880   28.0120   45.8430 C   0  0  0  0  0  0  0  0  0  0  0  0
   59.4570   26.9010   46.3820 C   0  0  0  0  0  0  0  0  0  0  0  0
   58.7500   25.7520   46.7420 C   0  0  0  0  0  0  0  0  0  0  0  0
   57.3670   25.7030   46.5800 C   0  0  0  0  0  0  0  0  0  0  0  0
   56.6720   26.8060   46.0730 C   0  0  0  0  0  0  0  0  0  0  0  0
   55.2810   26.7150   45.9680 O   0  0  0  0  0  0  0  0  0  0  0  0
   57.3780   27.9750   45.7010 C   0  0  0  0  0  0  0  0  0  0  0  0
   56.6290   29.1600   45.2340 C   0  0  0  0  0  0  0  0  0  0  0  0
   55.5560   28.9990   44.5940 O   0  0  0  0  0  0  0  0  0  0  0  0
   57.0710   30.4890   45.5280 N   0  0  0  0  0  0  0  0  0  0  0  0
   57.1220   31.5700   44.5490 C   0  0  0  0  0  0  0  0  0  0  0  0
   57.8060   32.7590   45.1570 C   0  0  0  0  0  0  0  0  0  0  0  0
   58.6200   33.5810   44.3590 C   0  0  0  0  0  0  0  0  0  0  0  0
   59.2870   34.6720   44.9240 C   0  0  0  0  0  0  0  0  0  0  0  0
   59.1530   34.9450   46.2900 C   0  0  0  0  0  0  0  0  0  0  0  0
   58.3550   34.1230   47.0930 C   0  0  0  0  0  0  0  0  0  0  0  0
   57.6860   33.0300   46.5310 C   0  0  0  0  0  0  0  0  0  0  0  0
   61.6710   32.4780   48.2940 C   0  0  0  0  0  0  0  0  0  0  0  0
   60.9280   32.8060   47.3250 O   0  0  0  0  0  0  0  0  0  0  0  0
   64.2575   34.2650   47.4190 H   0  0  0  0  0  0  0  0  0  0  0  0
   64.1488   32.7378   46.4796 H   0  0  0  0  0  0  0  0  0  0  0  0
   62.7725   33.8921   46.4796 H   0  0  0  0  0  0  0  0  0  0  0  0
   63.9557   31.3357   51.1799 H   0  0  0  0  0  0  0  0  0  0  0  0
   61.5097   30.8599   51.2410 H   0  0  0  0  0  0  0  0  0  0  0  0
   59.3458   31.5471   50.4464 H   0  0  0  0  0  0  0  0  0  0  0  0
   59.1562   32.1413   48.7491 H   0  0  0  0  0  0  0  0  0  0  0  0
   59.5602   31.0516   46.4755 H   0  0  0  0  0  0  0  0  0  0  0  0
   61.2053   30.3768   46.1811 H   0  0  0  0  0  0  0  0  0  0  0  0
   60.5475   26.9363   46.5218 H   0  0  0  0  0  0  0  0  0  0  0  0
   59.2857   24.8842   47.1541 H   0  0  0  0  0  0  0  0  0  0  0  0
   56.8175   24.7900   46.8529 H   0  0  0  0  0  0  0  0  0  0  0  0
   54.7630   27.0700   45.1750 H   0  0  0  0  0  0  0  0  0  0  0  0
   57.6826   31.2370   43.6631 H   0  0  0  0  0  0  0  0  0  0  0  0
   56.0995   31.8458   44.2516 H   0  0  0  0  0  0  0  0  0  0  0  0
   58.7327   33.3652   43.2863 H   0  0  0  0  0  0  0  0  0  0  0  0
   59.9178   35.3165   44.2942 H   0  0  0  0  0  0  0  0  0  0  0  0
   59.6752   35.8061   46.7325 H   0  0  0  0  0  0  0  0  0  0  0  0
   58.2534   34.3361   48.1674 H   0  0  0  0  0  0  0  0  0  0  0  0
   57.0647   32.3813   47.1660 H   0  0  0  0  0  0  0  0  0  0  0  0
  1  2  1  0
  2  3  1  0
  3  4  2  0
  3  5  1  0
  5  6  2  0
  6  7  1  0
  7  8  1  0
  8  9  1  0
  9 10  2  0
  9 11  1  0
 11 12  1  0
 12 13  1  0
 13 14  2  0
 13 15  1  0
 15 16  2  0
 16 17  1  0
 17 18  2  0
 18 19  1  0
 19 20  1  0
 19 21  2  0
 21 22  1  0
 22 23  2  0
 22 24  1  0
 24 25  1  0
 25 26  1  0
 26 27  2  0
 27 28  1  0
 28 29  2  0
 29 30  1  0
 30 31  2  0
  7 32  1  0
 32 33  2  0
 32  2  1  0
 21 15  1  0
 31 26  1  0
  1 34  1  0
  1 35  1  0
  1 36  1  0
  5 37  1  0
  6 38  1  0
  8 39  1  0
  8 40  1  0
 12 41  1  0
 12 42  1  0
 16 43  1  0
 17 44  1  0
 18 45  1  0
 20 46  1  0
 25 47  1  0
 25 48  1  0
 27 49  1  0
 28 50  1  0
 29 51  1  0
 30 52  1  0
 31 53  1  0
M  CHG  2  11  -1  24  -1
M  END
>  <UniqueID>  (12) 
11

>  <SMILES>  (12) 
Cn1c(=O)ccn(CC(=O)[N-]CC(=O)c2cccc(O)c2C(=O)[N-]Cc2ccccc2)c1=O

>  <Energy>  (12) 
71.40590674502918

>  <Genealogy>  (12) 
Cn1c(=O)ccn(CC(=O)[N-]CC(=O)c2cccc(O)c2C(=O)[N-]Cc2ccccc2)c1=O (protonated)
Cn1c(=O)ccn(CC(=O)[N-]CC(=O)c2cccc(O)c2C(=O)[N-]Cc2ccccc2)c1=O (3D coordinates assigned)
Cn1c(=O)ccn(CC(=O)[N-]CC(=O)c2cccc(O)c2C(=O)[N-]Cc2ccccc2)c1=O (optimized conformer: 71.40590674502918 kcal/mol)

>  <smiles>  (12) 
Cn1c(=O)ccn(CC(=O)NCC(=O)c2cccc(O)c2C(=O)NCc2ccccc2)c1=O

>  <score_type>  (12) 
oracle

>  <origin>  (12) 
adg

>  <m_score__min__energy>  (12) 
-12.539999999999999

>  <m_primary>  (12) 
energy

$$$$
12:0
     RDKit          3D

 63 66  0  0  0  0  0  0  0  0999 V2000
   57.2790   22.4790   47.6390 O   0  0  0  0  0  0  0  0  0  0  0  0
   56.8030   23.7690   47.9110 C   0  0  0  0  0  0  0  0  0  0  0  0
   56.5350   24.5450   46.6110 C   0  0  1  0  0  0  0  0  0  0  0  0
   57.4100   24.0300   45.6100 O   0  0  0  0  0  0  0  0  0  0  0  0
   57.0830   24.5100   44.3170 C   0  0  2  0  0  0  0  0  0  0  0  0
   57.0490   25.9440   44.3140 O   0  0  0  0  0  0  0  0  0  0  0  0
   57.8000   26.7940   45.1420 C   0  0  0  0  0  0  0  0  0  0  0  0
   59.1350   26.5230   45.4990 C   0  0  0  0  0  0  0  0  0  0  0  0
   59.8370   27.4020   46.3280 C   0  0  0  0  0  0  0  0  0  0  0  0
   59.2260   28.5710   46.8050 C   0  0  0  0  0  0  0  0  0  0  0  0
   59.9620   29.4890   47.7460 C   0  0  0  0  0  0  0  0  0  0  0  0
   59.6660   30.8940   47.4550 N   0  0  0  0  0  0  0  0  0  0  0  0
   60.6670   31.9000   47.1790 C   0  0  0  0  0  0  0  0  0  0  0  0
   62.0290   31.6670   47.4710 C   0  0  0  0  0  0  0  0  0  0  0  0
   62.9920   32.6440   47.2110 C   0  0  0  0  0  0  0  0  0  0  0  0
   62.6170   33.8640   46.6510 C   0  0  0  0  0  0  0  0  0  0  0  0
   61.2780   34.1130   46.3500 C   0  0  0  0  0  0  0  0  0  0  0  0
   60.3000   33.1440   46.6080 C   0  0  0  0  0  0  0  0  0  0  0  0
   58.6340   33.5050   46.1650 S   0  0  0  0  0  0  0  0  0  0  0  0
   57.5740   33.3760   47.4620 O   0  0  0  0  0  0  0  0  0  0  0  0
   58.0780   32.6340   44.7470 C   0  0  0  0  0  0  0  0  0  0  0  0
   58.4070   33.0880   43.4630 C   0  0  0  0  0  0  0  0  0  0  0  0
   57.9640   32.3880   42.3350 C   0  0  0  0  0  0  0  0  0  0  0  0
   57.1880   31.2340   42.4900 C   0  0  0  0  0  0  0  0  0  0  0  0
   56.8620   30.7750   43.7730 C   0  0  0  0  0  0  0  0  0  0  0  0
   57.3070   31.4730   44.9020 C   0  0  0  0  0  0  0  0  0  0  0  0
   57.8900   28.8340   46.4640 C   0  0  0  0  0  0  0  0  0  0  0  0
   57.1840   27.9550   45.6320 C   0  0  0  0  0  0  0  0  0  0  0  0
   55.8620   28.2310   45.2820 O   0  0  0  0  0  0  0  0  0  0  0  0
   55.7320   23.9070   43.8370 C   0  0  1  0  0  0  0  0  0  0  0  0
   55.9670   22.7790   43.0340 O   0  0  0  0  0  0  0  0  0  0  0  0
   54.8510   23.4830   45.0330 C   0  0  2  0  0  0  0  0  0  0  0  0
   53.4990   23.4330   44.6530 O   0  0  0  0  0  0  0  0  0  0  0  0
   55.0270   24.4590   46.2060 C   0  0  2  0  0  0  0  0  0  0  0  0
   54.5700   25.7390   45.8410 O   0  0  0  0  0  0  0  0  0  0  0  0
   58.1150   22.5890   47.1140 H   0  0  0  0  0  0  0  0  0  0  0  0
   55.8670   23.6933   48.4838 H   0  0  0  0  0  0  0  0  0  0  0  0
   57.5672   24.3090   48.4893 H   0  0  0  0  0  0  0  0  0  0  0  0
   56.7403   25.6173   46.7455 H   0  0  0  0  0  0  0  0  0  0  0  0
   57.8613   24.1884   43.6094 H   0  0  0  0  0  0  0  0  0  0  0  0
   59.6280   25.6143   45.1232 H   0  0  0  0  0  0  0  0  0  0  0  0
   60.8762   27.1755   46.6085 H   0  0  0  0  0  0  0  0  0  0  0  0
   59.6565   29.2644   48.7786 H   0  0  0  0  0  0  0  0  0  0  0  0
   61.0423   29.3267   47.6171 H   0  0  0  0  0  0  0  0  0  0  0  0
   58.6550   31.1440   47.4090 H   0  0  0  0  0  0  0  0  0  0  0  0
   62.3346   30.7050   47.9082 H   0  0  0  0  0  0  0  0  0  0  0  0
   64.0485   32.4505   47.4485 H   0  0  0  0  0  0  0  0  0  0  0  0
   63.3780   34.6314   46.4462 H   0  0  0  0  0  0  0  0  0  0  0  0
   60.9880   35.0771   45.9069 H   0  0  0  0  0  0  0  0  0  0  0  0
   56.9450   34.1310   47.3450 H   0  0  0  0  0  0  0  0  0  0  0  0
   59.0149   33.9967   43.3412 H   0  0  0  0  0  0  0  0  0  0  0  0
   58.2255   32.7446   41.3278 H   0  0  0  0  0  0  0  0  0  0  0  0
   56.8337   30.6868   41.6040 H   0  0  0  0  0  0  0  0  0  0  0  0
   56.2557   29.8651   43.8933 H   0  0  0  0  0  0  0  0  0  0  0  0
   57.0523   31.1113   45.9091 H   0  0  0  0  0  0  0  0  0  0  0  0
   57.3942   29.7358   46.8524 H   0  0  0  0  0  0  0  0  0  0  0  0
   55.1570   27.5050   45.2560 H   0  0  0  0  0  0  0  0  0  0  0  0
   55.2076   24.6840   43.2614 H   0  0  0  0  0  0  0  0  0  0  0  0
   55.1730   22.1910   43.1190 H   0  0  0  0  0  0  0  0  0  0  0  0
   55.1689   22.4804   45.3552 H   0  0  0  0  0  0  0  0  0  0  0  0
   53.1130   24.3270   44.8480 H   0  0  0  0  0  0  0  0  0  0  0  0
   54.4399   24.0909   47.0603 H   0  0  0  0  0  0  0  0  0  0  0  0
   55.2340   26.1180   45.2060 H   0  0  0  0  0  0  0  0  0  0  0  0
  1  2  1  0
  2  3  1  0
  3  4  1  0
  4  5  1  0
  5  6  1  0
  6  7  1  0
  7  8  2  0
  8  9  1  0
  9 10  2  0
 10 11  1  0
 11 12  1  0
 12 13  1  0
 13 14  2  0
 14 15  1  0
 15 16  2  0
 16 17  1  0
 17 18  2  0
 18 19  1  0
 19 20  1  1
 19 21  1  0
 21 22  2  0
 22 23  1  0
 23 24  2  0
 24 25  1  0
 25 26  2  0
 10 27  1  0
 27 28  2  0
 28 29  1  0
  5 30  1  0
 30 31  1  0
 30 32  1  0
 32 33  1  0
 32 34  1  0
 34 35  1  0
 34  3  1  0
 28  7  1  0
 18 13  1  0
 26 21  1  0
  1 36  1  0
  2 37  1  0
  2 38  1  0
  3 39  1  1
  5 40  1  6
  8 41  1  0
  9 42  1  0
 11 43  1  0
 11 44  1  0
 12 45  1  0
 14 46  1  0
 15 47  1  0
 16 48  1  0
 17 49  1  0
 20 50  1  0
 22 51  1  0
 23 52  1  0
 24 53  1  0
 25 54  1  0
 26 55  1  0
 27 56  1  0
 29 57  1  0
 30 58  1  6
 31 59  1  0
 32 60  1  1
 33 61  1  0
 34 62  1  1
 35 63  1  0
M  CHG  1  19   1
M  END
>  <UniqueID>  (13) 
12

>  <SMILES>  (13) 
OC[C@H]1O[C@H](Oc2ccc(CNc3ccccc3[S+](O)c3ccccc3)cc2O)C(O)C(O)C1O

>  <Energy>  (13) 
75.13507542247883

>  <Genealogy>  (13) 
OCC1OC(Oc2ccc(CNc3ccccc3[S+](O)c3ccccc3)cc2O)C(O)C(O)C1O (protonated)
OC[C@H]1O[C@H](Oc2ccc(CNc3ccccc3[S+](O)c3ccccc3)cc2O)C(O)C(O)C1O (chirality)
OC[C@H]1O[C@H](Oc2ccc(CNc3ccccc3[S+](O)c3ccccc3)cc2O)C(O)C(O)C1O (3D coordinates assigned)
OC[C@H]1O[C@H](Oc2ccc(CNc3ccccc3[S+](O)c3ccccc3)cc2O)C(O)C(O)C1O (nonaromatic ring conformer: 75.13507542247883 kcal/mol)

>  <smiles>  (13) 
[O-][S+](c1ccccc1)c1ccccc1NCc1ccc(OC2OC(CO)C(O)C(O)C2O)c(O)c1

>  <score_type>  (13) 
oracle

>  <origin>  (13) 
adg

>  <m_score__min__energy>  (13) 
-9.2100000000000009

>  <m_primary>  (13) 
energy

$$$$
13:0
     RDKit          3D

 54 56  0  0  0  0  0  0  0  0999 V2000
   62.7610   33.5510   46.7980 C   0  0  0  0  0  0  0  0  0  0  0  0
   61.6710   32.8210   47.5450 C   0  0  0  0  0  0  0  0  0  0  0  0
   61.5000   31.3380   47.3440 C   0  0  0  0  0  0  0  0  0  0  0  0
   60.8340   33.4540   48.3980 C   0  0  0  0  0  0  0  0  0  0  0  0
   59.3300   33.3320   48.3800 C   0  0  0  0  0  0  0  0  0  0  0  0
   58.8290   33.4140   46.9610 C   0  0  0  0  0  0  0  0  0  0  0  0
   58.2160   32.2960   46.3700 C   0  0  0  0  0  0  0  0  0  0  0  0
   57.7520   32.3470   45.0460 C   0  0  0  0  0  0  0  0  0  0  0  0
   57.0990   31.1620   44.4400 C   0  0  0  0  0  0  0  0  0  0  0  0
   56.8000   31.1790   43.2150 O   0  0  0  0  0  0  0  0  0  0  0  0
   56.7440   30.0100   45.2160 N   0  0  0  0  0  0  0  0  0  0  0  0
   57.6150   28.9190   45.5520 C   0  0  0  0  0  0  0  0  0  0  0  0
   59.0140   29.0420   45.4770 C   0  0  0  0  0  0  0  0  0  0  0  0
   59.8330   27.9590   45.8040 C   0  0  0  0  0  0  0  0  0  0  0  0
   59.2650   26.7420   46.1910 C   0  0  0  0  0  0  0  0  0  0  0  0
   57.8720   26.6010   46.2440 C   0  0  0  0  0  0  0  0  0  0  0  0
   57.1720   25.0620   46.7340 S   0  0  0  0  0  0  0  0  0  0  0  0
   57.3880   24.8770   48.2110 O   0  0  0  0  0  0  0  0  0  0  0  0
   55.6990   25.0510   46.4320 O   0  0  0  0  0  0  0  0  0  0  0  0
   57.9460   23.7860   45.8540 N   0  0  0  0  0  0  0  0  0  0  0  0
   57.4490   23.2170   44.7980 C   0  0  0  0  0  0  0  0  0  0  0  0
   57.9910   21.9680   44.2280 C   0  0  0  0  0  0  0  0  0  0  0  0
   57.1030   21.7170   42.9990 C   0  0  0  0  0  0  0  0  0  0  0  0
   56.0460   22.8380   42.9580 C   0  0  0  0  0  0  0  0  0  0  0  0
   56.3400   23.7160   44.0730 N   0  0  0  0  0  0  0  0  0  0  0  0
   57.0520   27.6910   45.9200 C   0  0  0  0  0  0  0  0  0  0  0  0
   57.9430   33.5210   44.2990 C   0  0  0  0  0  0  0  0  0  0  0  0
   58.5660   34.6300   44.8740 C   0  0  0  0  0  0  0  0  0  0  0  0
   59.0130   34.5840   46.2010 C   0  0  0  0  0  0  0  0  0  0  0  0
   59.6450   35.6930   46.7610 O   0  0  0  0  0  0  0  0  0  0  0  0
   63.4521   34.0139   47.5178 H   0  0  0  0  0  0  0  0  0  0  0  0
   63.3123   32.8393   46.1660 H   0  0  0  0  0  0  0  0  0  0  0  0
   62.3128   34.3318   46.1660 H   0  0  0  0  0  0  0  0  0  0  0  0
   61.4425   30.8395   48.3229 H   0  0  0  0  0  0  0  0  0  0  0  0
   60.5741   31.1486   46.7812 H   0  0  0  0  0  0  0  0  0  0  0  0
   62.3585   30.9429   46.7812 H   0  0  0  0  0  0  0  0  0  0  0  0
   61.2828   34.1062   49.1616 H   0  0  0  0  0  0  0  0  0  0  0  0
   59.0366   32.3655   48.8158 H   0  0  0  0  0  0  0  0  0  0  0  0
   58.8917   34.1517   48.9683 H   0  0  0  0  0  0  0  0  0  0  0  0
   58.0983   31.3699   46.9518 H   0  0  0  0  0  0  0  0  0  0  0  0
   59.4645   29.9941   45.1598 H   0  0  0  0  0  0  0  0  0  0  0  0
   60.9270   28.0640   45.7569 H   0  0  0  0  0  0  0  0  0  0  0  0
   59.9130   25.8931   46.4545 H   0  0  0  0  0  0  0  0  0  0  0  0
   59.0431   22.0949   43.9331 H   0  0  0  0  0  0  0  0  0  0  0  0
   57.9790   21.1315   44.9422 H   0  0  0  0  0  0  0  0  0  0  0  0
   57.7124   21.7410   42.0835 H   0  0  0  0  0  0  0  0  0  0  0  0
   56.6208   20.7304   43.0630 H   0  0  0  0  0  0  0  0  0  0  0  0
   56.1141   23.3911   42.0096 H   0  0  0  0  0  0  0  0  0  0  0  0
   55.0272   22.4294   43.0290 H   0  0  0  0  0  0  0  0  0  0  0  0
   55.7940   24.5770   44.2940 H   0  0  0  0  0  0  0  0  0  0  0  0
   55.9581   27.5806   45.9552 H   0  0  0  0  0  0  0  0  0  0  0  0
   57.5997   33.5668   43.2549 H   0  0  0  0  0  0  0  0  0  0  0  0
   58.7069   35.5459   44.2814 H   0  0  0  0  0  0  0  0  0  0  0  0
   59.1160   36.4710   47.1390 H   0  0  0  0  0  0  0  0  0  0  0  0
  1  2  1  0
  2  3  1  0
  2  4  2  3
  4  5  1  0
  5  6  1  0
  6  7  2  0
  7  8  1  0
  8  9  1  0
  9 10  2  0
  9 11  1  0
 11 12  1  0
 12 13  2  0
 13 14  1  0
 14 15  2  0
 15 16  1  0
 16 17  1  0
 17 18  2  0
 17 19  2  0
 17 20  1  0
 20 21  2  3
 21 22  1  0
 22 23  1  0
 23 24  1  0
 24 25  1  0
 16 26  2  0
  8 27  2  0
 27 28  1  0
 28 29  2  0
 29 30  1  0
 29  6  1  0
 26 12  1  0
 25 21  1  0
  1 31  1  0
  1 32  1  0
  1 33  1  0
  3 34  1  0
  3 35  1  0
  3 36  1  0
  4 37  1  0
  5 38  1  0
  5 39  1  0
  7 40  1  0
 13 41  1  0
 14 42  1  0
 15 43  1  0
 22 44  1  0
 22 45  1  0
 23 46  1  0
 23 47  1  0
 24 48  1  0
 24 49  1  0
 25 50  1  0
 26 51  1  0
 27 52  1  0
 28 53  1  0
 30 54  1  0
M  CHG  1  11  -1
M  END
>  <UniqueID>  (14) 
13

>  <SMILES>  (14) 
CC(C)=CCc1cc(C(=O)[N-]c2cccc(S(=O)(=O)N=C3CCCN3)c2)ccc1O

>  <Energy>  (14) 
67.11852344322102

>  <Genealogy>  (14) 
CC(C)=CCc1cc(C(=O)[N-]c2cccc(S(=O)(=O)N=C3CCCN3)c2)ccc1O (protonated)
CC(C)=CCc1cc(C(=O)[N-]c2cccc(S(=O)(=O)N=C3CCCN3)c2)ccc1O (3D coordinates assigned)
CC(C)=CCc1cc(C(=O)[N-]c2cccc(S(=O)(=O)N=C3CCCN3)c2)ccc1O (nonaromatic ring conformer: 67.11852344322102 kcal/mol)

>  <smiles>  (14) 
CC(C)=CCc1cc(C(=O)Nc2cccc(S(=O)(=O)N=C3CCCN3)c2)ccc1O

>  <score_type>  (14) 
oracle

>  <origin>  (14) 
adg

>  <m_score__min__energy>  (14) 
-11.130000000000001

>  <m_primary>  (14) 
energy

$$$$
14:0
     RDKit          3D

 47 50  0  0  1  0  0  0  0  0999 V2000
   57.7640   27.9040   44.1350 C   0  0  0  0  0  0  0  0  0  0  0  0
   57.0650   29.5200   43.8410 S   0  0  0  0  0  0  0  0  0  0  0  0
   56.0820   29.8870   44.9150 O   0  0  0  0  0  0  0  0  0  0  0  0
   56.3160   29.5360   42.5440 O   0  0  0  0  0  0  0  0  0  0  0  0
   58.3420   30.6510   43.8150 N   0  0  0  0  0  0  0  0  0  0  0  0
   58.2860   31.8780   44.5320 C   0  0  0  0  0  0  0  0  0  0  0  0
   57.7630   33.0160   43.9600 C   0  0  0  0  0  0  0  0  0  0  0  0
   57.7030   34.2210   44.6500 C   0  0  0  0  0  0  0  0  0  0  0  0
   58.1880   34.2510   45.9410 C   0  0  0  0  0  0  0  0  0  0  0  0
   58.7220   33.1410   46.5610 C   0  0  0  0  0  0  0  0  0  0  0  0
   59.2380   33.1530   47.9250 C   0  0  0  0  0  0  0  0  0  0  0  0
   58.6150   32.5120   48.9720 C   0  0  0  0  0  0  0  0  0  0  0  0
   59.1080   32.5250   50.2690 C   0  0  0  0  0  0  0  0  0  0  0  0
   58.3850   31.8150   51.3390 C   0  0  0  0  0  0  0  0  0  0  0  0
   59.0450   31.4640   52.5020 C   0  0  0  0  0  0  0  0  0  0  0  0
   58.3590   30.7900   53.5180 C   0  0  0  0  0  0  0  0  0  0  0  0
   57.0120   30.4740   53.3560 C   0  0  0  0  0  0  0  0  0  0  0  0
   56.4250   29.8610   54.3050 N   0  0  0  0  0  0  0  0  0  0  0  0
   55.4390   28.8850   54.0230 C   0  0  0  0  0  0  0  0  0  0  0  0
   55.0850   27.8760   54.9250 C   0  0  0  0  0  0  0  0  0  0  0  0
   54.0980   27.1250   54.3000 C   0  0  0  0  0  0  0  0  0  0  0  0
   53.8760   27.6640   53.0760 N   0  0  0  0  0  0  0  0  0  0  0  0
   54.6790   28.7100   52.9230 N   0  0  0  0  0  0  0  0  0  0  0  0
   56.4080   30.8290   52.2220 N   0  0  0  0  0  0  0  0  0  0  0  0
   57.0500   31.4820   51.2230 C   0  0  0  0  0  0  0  0  0  0  0  0
   60.2810   33.2110   50.5240 C   0  0  0  0  0  0  0  0  0  0  0  0
   60.8760   33.8390   49.4500 C   0  0  0  0  0  0  0  0  0  0  0  0
   60.3750   33.8120   48.2030 N   0  0  0  0  0  0  0  0  0  0  0  0
   58.7560   31.9740   45.8300 C   0  0  0  0  0  0  0  0  0  0  0  0
   59.4200   30.5430   46.5660 Cl  0  0  0  0  0  0  0  0  0  0  0  0
   57.8398   27.7288   45.2183 H   0  0  0  0  0  0  0  0  0  0  0  0
   57.1172   27.1371   43.6839 H   0  0  0  0  0  0  0  0  0  0  0  0
   58.7658   27.8502   43.6839 H   0  0  0  0  0  0  0  0  0  0  0  0
   59.2040   30.4460   43.2530 H   0  0  0  0  0  0  0  0  0  0  0  0
   57.3823   32.9702   42.9290 H   0  0  0  0  0  0  0  0  0  0  0  0
   57.2819   35.1226   44.1812 H   0  0  0  0  0  0  0  0  0  0  0  0
   58.1472   35.1985   46.4984 H   0  0  0  0  0  0  0  0  0  0  0  0
   57.6827   31.9638   48.7710 H   0  0  0  0  0  0  0  0  0  0  0  0
   60.1086   31.7145   52.6284 H   0  0  0  0  0  0  0  0  0  0  0  0
   58.8827   30.5099   54.4439 H   0  0  0  0  0  0  0  0  0  0  0  0
   55.5044   27.7106   55.9284 H   0  0  0  0  0  0  0  0  0  0  0  0
   53.5867   26.2478   54.7233 H   0  0  0  0  0  0  0  0  0  0  0  0
   53.2000   27.3340   52.3650 H   0  0  0  0  0  0  0  0  0  0  0  0
   55.4000   30.5890   52.1070 H   0  0  0  0  0  0  0  0  0  0  0  0
   56.5008   31.7501   50.3084 H   0  0  0  0  0  0  0  0  0  0  0  0
   60.7177   33.2537   51.5327 H   0  0  0  0  0  0  0  0  0  0  0  0
   61.8111   34.3919   49.6232 H   0  0  0  0  0  0  0  0  0  0  0  0
  1  2  1  0
  2  3  2  0
  2  4  2  0
  2  5  1  0
  5  6  1  0
  6  7  2  0
  7  8  1  0
  8  9  2  0
  9 10  1  0
 10 11  1  0
 11 12  2  0
 12 13  1  0
 13 14  1  0
 14 15  1  0
 15 16  2  0
 16 17  1  0
 17 18  2  0
 18 19  1  0
 19 20  1  0
 20 21  2  0
 21 22  1  0
 22 23  1  0
 17 24  1  0
 24 25  1  0
 13 26  2  0
 26 27  1  0
 27 28  2  0
 10 29  2  0
 29 30  1  0
 29  6  1  0
 28 11  1  0
 25 14  2  0
 23 19  2  0
  1 31  1  0
  1 32  1  0
  1 33  1  0
  5 34  1  0
  7 35  1  0
  8 36  1  0
  9 37  1  0
 12 38  1  0
 15 39  1  0
 16 40  1  0
 20 41  1  0
 21 42  1  0
 22 43  1  0
 24 44  1  0
 25 45  1  0
 26 46  1  0
 27 47  1  0
M  END
>  <smiles>  (15) 
CS(=O)(=O)Nc1cccc(-c2cc(-c3ccc(=Nc4cc[nH]n4)[nH]c3)ccn2)c1Cl

>  <score_type>  (15) 
oracle

>  <origin>  (15) 
adg

>  <m_score__min__energy>  (15) 
-9.9900000000000002

>  <m_primary>  (15) 
energy

$$$$
15:0
     RDKit          3D

 40 42  0  0  0  0  0  0  0  0999 V2000
   59.9590   26.3130   45.9750 O   0  0  0  0  0  0  0  0  0  0  0  0
   59.2360   27.0250   46.7250 C   0  0  0  0  0  0  0  0  0  0  0  0
   59.4310   26.9250   48.2180 C   0  0  0  0  0  0  0  0  0  0  0  0
   60.6060   27.7740   48.7300 C   0  0  0  0  0  0  0  0  0  0  0  0
   60.1970   29.1970   49.0190 C   0  0  0  0  0  0  0  0  0  0  0  0
   61.0860   30.2550   48.7600 C   0  0  0  0  0  0  0  0  0  0  0  0
   60.6980   31.5770   49.0020 C   0  0  0  0  0  0  0  0  0  0  0  0
   59.4230   31.8520   49.5040 C   0  0  0  0  0  0  0  0  0  0  0  0
   58.5350   30.8070   49.7670 C   0  0  0  0  0  0  0  0  0  0  0  0
   58.9180   29.4830   49.5270 C   0  0  0  0  0  0  0  0  0  0  0  0
   58.2490   27.9500   46.1090 C   0  0  0  0  0  0  0  0  0  0  0  0
   56.9750   27.5130   45.7130 C   0  0  0  0  0  0  0  0  0  0  0  0
   56.6080   26.1780   45.8370 O   0  0  0  0  0  0  0  0  0  0  0  0
   56.0910   28.3940   45.1810 N   0  0  0  0  0  0  0  0  0  0  0  0
   56.4090   29.7040   45.0140 C   0  0  0  0  0  0  0  0  0  0  0  0
   55.5470   30.4910   44.5340 O   0  0  0  0  0  0  0  0  0  0  0  0
   57.6480   30.1650   45.3740 N   0  0  0  0  0  0  0  0  0  0  0  0
   57.9740   31.5610   45.2070 C   0  0  0  0  0  0  0  0  0  0  0  0
   58.1780   32.3810   46.3290 C   0  0  0  0  0  0  0  0  0  0  0  0
   58.4920   33.7340   46.1640 C   0  0  0  0  0  0  0  0  0  0  0  0
   58.6060   34.2750   44.8800 C   0  0  0  0  0  0  0  0  0  0  0  0
   58.4050   33.4650   43.7590 C   0  0  0  0  0  0  0  0  0  0  0  0
   58.0900   32.1120   43.9200 C   0  0  0  0  0  0  0  0  0  0  0  0
   58.5710   29.3050   45.9090 C   0  0  0  0  0  0  0  0  0  0  0  0
   59.7160   29.7300   46.2370 O   0  0  0  0  0  0  0  0  0  0  0  0
   58.5105   27.2650   48.7150 H   0  0  0  0  0  0  0  0  0  0  0  0
   59.6596   25.8743   48.4497 H   0  0  0  0  0  0  0  0  0  0  0  0
   60.9932   27.3218   49.6550 H   0  0  0  0  0  0  0  0  0  0  0  0
   61.3746   27.7965   47.9434 H   0  0  0  0  0  0  0  0  0  0  0  0
   62.0906   30.0424   48.3655 H   0  0  0  0  0  0  0  0  0  0  0  0
   61.3972   32.4011   48.7970 H   0  0  0  0  0  0  0  0  0  0  0  0
   59.1189   32.8923   49.6920 H   0  0  0  0  0  0  0  0  0  0  0  0
   57.5325   31.0252   50.1636 H   0  0  0  0  0  0  0  0  0  0  0  0
   58.2156   28.6628   49.7366 H   0  0  0  0  0  0  0  0  0  0  0  0
   55.1450   28.0540   44.8950 H   0  0  0  0  0  0  0  0  0  0  0  0
   58.0906   31.9578   47.3406 H   0  0  0  0  0  0  0  0  0  0  0  0
   58.6494   34.3730   47.0454 H   0  0  0  0  0  0  0  0  0  0  0  0
   58.8541   35.3390   44.7519 H   0  0  0  0  0  0  0  0  0  0  0  0
   58.4946   33.8920   42.7492 H   0  0  0  0  0  0  0  0  0  0  0  0
   57.9325   31.4770   43.0357 H   0  0  0  0  0  0  0  0  0  0  0  0
  1  2  2  0
  2  3  1  0
  3  4  1  0
  4  5  1  0
  5  6  2  0
  6  7  1  0
  7  8  2  0
  8  9  1  0
  9 10  2  0
  2 11  1  0
 11 12  2  0
 12 13  1  0
 12 14  1  0
 14 15  1  0
 15 16  2  0
 15 17  1  0
 17 18  1  0
 18 19  2  0
 19 20  1  0
 20 21  2  0
 21 22  1  0
 22 23  2  0
 17 24  1  0
 24 25  2  0
 10  5  1  0
 24 11  1  0
 23 18  1  0
  3 26  1  0
  3 27  1  0
  4 28  1  0
  4 29  1  0
  6 30  1  0
  7 31  1  0
  8 32  1  0
  9 33  1  0
 10 34  1  0
 14 35  1  0
 19 36  1  0
 20 37  1  0
 21 38  1  0
 22 39  1  0
 23 40  1  0
M  CHG  1  13  -1
M  END
>  <UniqueID>  (16) 
14

>  <SMILES>  (16) 
O=C(CCc1ccccc1)c1c([O-])[nH]c(=O)n(-c2ccccc2)c1=O

>  <Energy>  (16) 
55.494458893892784

>  <Genealogy>  (16) 
O=C(CCc1ccccc1)c1c([O-])[nH]c(=O)n(-c2ccccc2)c1=O (protonated)
O=C(CCc1ccccc1)c1c([O-])[nH]c(=O)n(-c2ccccc2)c1=O (3D coordinates assigned)
O=C(CCc1ccccc1)c1c([O-])[nH]c(=O)n(-c2ccccc2)c1=O (optimized conformer: 55.494458893892784 kcal/mol)

>  <smiles>  (16) 
O=C(CCc1ccccc1)c1c(O)[nH]c(=O)n(-c2ccccc2)c1=O

>  <score_type>  (16) 
oracle

>  <origin>  (16) 
adg

>  <m_score__min__energy>  (16) 
-9.9800000000000004

>  <m_primary>  (16) 
energy

$$$$
16:0
     RDKit          3D

 48 51  0  0  0  0  0  0  0  0999 V2000
   58.0520   34.4977   47.9413 H   0  0  0  0  0  0  0  0  0  0  0  0
   58.8360   34.1570   47.2490 C   0  0  0  0  0  0  0  0  0  0  0  0
   60.0080   34.8110   47.2680 C   0  0  0  0  0  0  0  0  0  0  0  0
   60.0013   35.8716   46.9764 H   0  0  0  0  0  0  0  0  0  0  0  0
   61.3070   34.2180   47.6500 C   0  0  0  0  0  0  0  0  0  0  0  0
   61.7280   34.1870   48.9920 C   0  0  0  0  0  0  0  0  0  0  0  0
   61.0719   34.5817   49.7818 H   0  0  0  0  0  0  0  0  0  0  0  0
   62.9780   33.6560   49.3250 C   0  0  0  0  0  0  0  0  0  0  0  0
   63.2959   33.6175   50.3774 H   0  0  0  0  0  0  0  0  0  0  0  0
   63.8240   33.1740   48.3220 C   0  0  0  0  0  0  0  0  0  0  0  0
   64.8045   32.7507   48.5856 H   0  0  0  0  0  0  0  0  0  0  0  0
   63.4240   33.2300   46.9850 C   0  0  0  0  0  0  0  0  0  0  0  0
   64.0936   32.8572   46.1959 H   0  0  0  0  0  0  0  0  0  0  0  0
   62.1740   33.7590   46.6470 C   0  0  0  0  0  0  0  0  0  0  0  0
   61.8698   33.8153   45.5914 H   0  0  0  0  0  0  0  0  0  0  0  0
   58.5200   33.0140   46.3680 C   0  0  0  0  0  0  0  0  0  0  0  0
   57.5940   33.0510   45.3670 N   0  0  0  0  0  0  0  0  0  0  0  0
   57.5990   31.7770   44.9340 C   0  0  0  0  0  0  0  0  0  0  0  0
   56.7470   31.0180   43.6920 S   0  0  0  0  0  0  0  0  0  0  0  0
   57.5430   29.5450   44.0370 C   0  0  0  0  0  0  0  0  0  0  0  0
   57.4050   28.3240   43.3820 C   0  0  0  0  0  0  0  0  0  0  0  0
   56.6933   28.2059   42.5516 H   0  0  0  0  0  0  0  0  0  0  0  0
   58.1990   27.2470   43.8100 C   0  0  0  0  0  0  0  0  0  0  0  0
   58.1042   26.2691   43.3153 H   0  0  0  0  0  0  0  0  0  0  0  0
   59.1160   27.4090   44.8680 C   0  0  0  0  0  0  0  0  0  0  0  0
   59.7357   26.5580   45.1870 H   0  0  0  0  0  0  0  0  0  0  0  0
   59.2460   28.6470   45.5190 C   0  0  0  0  0  0  0  0  0  0  0  0
   59.9669   28.7795   46.3392 H   0  0  0  0  0  0  0  0  0  0  0  0
   58.4370   29.7060   45.0990 C   0  0  0  0  0  0  0  0  0  0  0  0
   58.4260   30.9710   45.5810 N   0  0  0  0  0  0  0  0  0  0  0  0
   59.0310   31.7210   46.5140 C   0  0  0  0  0  0  0  0  0  0  0  0
   59.9860   31.2450   47.5270 C   0  0  0  0  0  0  0  0  0  0  0  0
   61.1520   30.9370   47.1600 O   0  0  0  0  0  0  0  0  0  0  0  0
   59.6000   31.0950   48.9100 N   0  0  0  0  0  0  0  0  0  0  0  0
   58.5180   31.9090   49.4880 C   0  0  0  0  0  0  0  0  0  0  0  0
   57.7023   31.2453   49.8106 H   0  0  0  0  0  0  0  0  0  0  0  0
   58.1633   32.6135   48.7213 H   0  0  0  0  0  0  0  0  0  0  0  0
   59.0140   32.7100   50.6900 C   0  0  0  0  0  0  0  0  0  0  0  0
   58.7034   32.2083   51.6184 H   0  0  0  0  0  0  0  0  0  0  0  0
   60.1115   32.7765   50.6587 H   0  0  0  0  0  0  0  0  0  0  0  0
   58.5843   33.7221   50.6587 H   0  0  0  0  0  0  0  0  0  0  0  0
   60.3480   30.1710   49.7730 C   0  0  0  0  0  0  0  0  0  0  0  0
   59.8162   30.0594   50.7294 H   0  0  0  0  0  0  0  0  0  0  0  0
   60.4276   29.1984   49.2653 H   0  0  0  0  0  0  0  0  0  0  0  0
   61.7530   30.7020   50.0400 C   0  0  0  0  0  0  0  0  0  0  0  0
   61.9209   30.7655   51.1253 H   0  0  0  0  0  0  0  0  0  0  0  0
   62.4931   30.0216   49.5936 H   0  0  0  0  0  0  0  0  0  0  0  0
   61.8581   31.7019   49.5936 H   0  0  0  0  0  0  0  0  0  0  0  0
  1  2  1  0
  2  3  2  0
  3  4  1  0
  3  5  1  0
  5  6  2  0
  6  7  1  0
  6  8  1  0
  8  9  1  0
  8 10  2  0
 10 11  1  0
 10 12  1  0
 12 13  1  0
 12 14  2  0
 14 15  1  0
  2 16  1  0
 16 17  1  0
 17 18  2  0
 18 19  1  0
 19 20  1  0
 20 21  2  0
 21 22  1  0
 21 23  1  0
 23 24  1  0
 23 25  2  0
 25 26  1  0
 25 27  1  0
 27 28  1  0
 27 29  2  0
 29 30  1  0
 30 31  1  0
 31 32  1  0
 32 33  2  0
 32 34  1  0
 34 35  1  0
 35 36  1  0
 35 37  1  0
 35 38  1  0
 38 39  1  0
 38 40  1  0
 38 41  1  0
 34 42  1  0
 42 43  1  0
 42 44  1  0
 42 45  1  0
 45 46  1  0
 45 47  1  0
 45 48  1  0
 14  5  1  0
 31 16  2  0
 30 18  1  0
 29 20  1  0
M  END
>  <UniqueID>  (17) 
15

>  <SMILES>  (17) 
CCN(CC)C(=O)c1c(/C=C\c2ccccc2)nc2sc3ccccc3n12

>  <Energy>  (17) 
141.43761173206744

>  <Genealogy>  (17) 
CCN(CC)C(=O)c1c(/C=C\c2ccccc2)nc2sc3ccccc3n12 (cis-trans isomerization)
CCN(CC)C(=O)c1c(/C=C\c2ccccc2)nc2sc3ccccc3n12 (3D coordinates assigned)
CCN(CC)C(=O)c1c(/C=C\c2ccccc2)nc2sc3ccccc3n12 (optimized conformer: 141.43761173206744 kcal/mol)

>  <smiles>  (17) 
CCN(CC)C(=O)c1c(C=Cc2ccccc2)nc2sc3ccccc3n12

>  <score_type>  (17) 
oracle

>  <origin>  (17) 
adg

>  <m_score__min__energy>  (17) 
-7.9299999999999997

>  <m_primary>  (17) 
energy

$$$$
17:0
     RDKit          3D

 44 46  0  0  0  0  0  0  0  0999 V2000
   57.7518   35.4262   45.0279 H   0  0  0  0  0  0  0  0  0  0  0  0
   58.3410   34.5870   45.4260 C   0  0  0  0  0  0  0  0  0  0  0  0
   59.4570   34.8370   46.2260 C   0  0  0  0  0  0  0  0  0  0  0  0
   59.7401   35.8739   46.4597 H   0  0  0  0  0  0  0  0  0  0  0  0
   60.2170   33.7800   46.7320 C   0  0  0  0  0  0  0  0  0  0  0  0
   61.3590   34.0860   47.5450 N   0  0  0  0  0  0  0  0  0  0  0  0
   62.9130   33.3300   47.4130 S   0  0  0  0  0  0  0  0  0  0  0  0
   62.7460   31.8620   47.1340 O   0  0  0  0  0  0  0  0  0  0  0  0
   63.7040   33.9750   46.3100 O   0  0  0  0  0  0  0  0  0  0  0  0
   63.7860   33.5330   48.9480 C   0  0  0  0  0  0  0  0  0  0  0  0
   63.0938   33.3720   49.7876 H   0  0  0  0  0  0  0  0  0  0  0  0
   64.6057   32.8015   49.0032 H   0  0  0  0  0  0  0  0  0  0  0  0
   64.1988   34.5511   49.0032 H   0  0  0  0  0  0  0  0  0  0  0  0
   59.8450   32.4570   46.4330 C   0  0  0  0  0  0  0  0  0  0  0  0
   60.4438   31.6217   46.8250 H   0  0  0  0  0  0  0  0  0  0  0  0
   58.7140   32.1900   45.6370 C   0  0  0  0  0  0  0  0  0  0  0  0
   58.3420   30.7860   45.3270 C   0  0  0  0  0  0  0  0  0  0  0  0
   58.9820   29.7660   45.9630 N   0  0  0  0  0  0  0  0  0  0  0  0
   58.6850   28.4880   45.7260 N   0  0  0  0  0  0  0  0  0  0  0  0
   57.7250   28.1250   44.8360 C   0  0  0  0  0  0  0  0  0  0  0  0
   57.4910   26.8550   44.6550 N   0  0  0  0  0  0  0  0  0  0  0  0
   58.1320   25.7280   45.3360 C   0  0  0  0  0  0  0  0  0  0  0  0
   58.2317   24.8895   44.6310 H   0  0  0  0  0  0  0  0  0  0  0  0
   59.1226   26.0471   45.6921 H   0  0  0  0  0  0  0  0  0  0  0  0
   57.2980   25.2770   46.5390 C   0  0  0  0  0  0  0  0  0  0  0  0
   57.8923   24.5828   47.1513 H   0  0  0  0  0  0  0  0  0  0  0  0
   57.0197   26.1621   47.1299 H   0  0  0  0  0  0  0  0  0  0  0  0
   56.0400   24.5820   46.0810 C   0  0  0  0  0  0  0  0  0  0  0  0
   56.0250   23.1830   45.9510 C   0  0  0  0  0  0  0  0  0  0  0  0
   56.9364   22.6040   46.1610 H   0  0  0  0  0  0  0  0  0  0  0  0
   54.8570   22.5230   45.5560 C   0  0  0  0  0  0  0  0  0  0  0  0
   54.8547   21.4284   45.4475 H   0  0  0  0  0  0  0  0  0  0  0  0
   53.6930   23.2520   45.2990 C   0  0  0  0  0  0  0  0  0  0  0  0
   52.5330   22.5940   44.9070 O   0  0  0  0  0  0  0  0  0  0  0  0
   53.6950   24.6430   45.4390 C   0  0  0  0  0  0  0  0  0  0  0  0
   52.7774   25.2153   45.2379 H   0  0  0  0  0  0  0  0  0  0  0  0
   54.8600   25.3100   45.8340 C   0  0  0  0  0  0  0  0  0  0  0  0
   54.8340   26.6930   45.9800 O   0  0  0  0  0  0  0  0  0  0  0  0
   57.0210   29.1360   44.1580 C   0  0  0  0  0  0  0  0  0  0  0  0
   56.2318   28.8752   43.4375 H   0  0  0  0  0  0  0  0  0  0  0  0
   57.3320   30.4700   44.4070 C   0  0  0  0  0  0  0  0  0  0  0  0
   56.7886   31.2714   43.8851 H   0  0  0  0  0  0  0  0  0  0  0  0
   57.9710   33.2730   45.1300 C   0  0  0  0  0  0  0  0  0  0  0  0
   57.0924   33.0830   44.4960 H   0  0  0  0  0  0  0  0  0  0  0  0
  1  2  1  0
  2  3  2  0
  3  4  1  0
  3  5  1  0
  5  6  1  0
  6  7  1  0
  7  8  2  0
  7  9  2  0
  7 10  1  0
 10 11  1  0
 10 12  1  0
 10 13  1  0
  5 14  2  0
 14 15  1  0
 14 16  1  0
 16 17  1  0
 17 18  2  0
 18 19  1  0
 19 20  1  0
 20 21  2  0
 21 22  1  0
 22 23  1  0
 22 24  1  0
 22 25  1  0
 25 26  1  0
 25 27  1  0
 25 28  1  0
 28 29  2  0
 29 30  1  0
 29 31  1  0
 31 32  1  0
 31 33  2  0
 33 34  1  0
 33 35  1  0
 35 36  1  0
 35 37  2  0
 37 38  1  0
 20 39  1  0
 39 40  1  0
 39 41  2  0
 41 42  1  0
 16 43  2  0
 43 44  1  0
 43  2  1  0
 41 17  1  0
 37 28  1  0
M  CHG  4   6  -1  19  -1  34  -1  38  -1
M  END
>  <UniqueID>  (18) 
16

>  <SMILES>  (18) 
CS(=O)(=O)[N-]c1cccc(-c2cc/c(=N\CCc3ccc([O-])cc3[O-])[n-]n2)c1

>  <Energy>  (18) 
50.871822717270916

>  <Genealogy>  (18) 
CS(=O)(=O)[N-]c1cccc(-c2ccc(=NCCc3ccc([O-])cc3[O-])[n-]n2)c1 (protonated)
CS(=O)(=O)[N-]c1cccc(-c2cc/c(=N\CCc3ccc([O-])cc3[O-])[n-]n2)c1 (cis-trans isomerization)
CS(=O)(=O)[N-]c1cccc(-c2cc/c(=N\CCc3ccc([O-])cc3[O-])[n-]n2)c1 (3D coordinates assigned)
CS(=O)(=O)[N-]c1cccc(-c2cc/c(=N\CCc3ccc([O-])cc3[O-])[n-]n2)c1 (optimized conformer: 50.871822717270916 kcal/mol)

>  <smiles>  (18) 
CS(=O)(=O)Nc1cccc(-c2ccc(=NCCc3ccc(O)cc3O)[nH]n2)c1

>  <score_type>  (18) 
oracle

>  <origin>  (18) 
adg

>  <m_score__min__energy>  (18) 
-17.16

>  <m_primary>  (18) 
energy

$$$$
18:0
     RDKit          3D

 43 45  0  0  0  0  0  0  0  0999 V2000
   61.1620   28.5750   48.7040 O   0  0  0  0  0  0  0  0  0  0  0  0
   60.2880   29.4800   48.6240 C   0  0  0  0  0  0  0  0  0  0  0  0
   58.9720   29.1820   47.9730 C   0  0  0  0  0  0  0  0  0  0  0  0
   59.1090   28.1440   46.9390 N   0  0  0  0  0  0  0  0  0  0  0  0
   59.0950   26.7140   47.3000 C   0  0  0  0  0  0  0  0  0  0  0  0
   57.9770   25.9720   46.6160 C   0  0  0  0  0  0  0  0  0  0  0  0
   58.2170   24.7200   46.0260 C   0  0  0  0  0  0  0  0  0  0  0  0
   57.1740   24.0210   45.4120 C   0  0  0  0  0  0  0  0  0  0  0  0
   55.8860   24.5610   45.3870 C   0  0  0  0  0  0  0  0  0  0  0  0
   55.6370   25.8050   45.9770 C   0  0  0  0  0  0  0  0  0  0  0  0
   54.3560   26.3420   45.9550 O   0  0  0  0  0  0  0  0  0  0  0  0
   56.6780   26.5090   46.5900 C   0  0  0  0  0  0  0  0  0  0  0  0
   58.8990   28.5110   45.5640 C   0  0  0  0  0  0  0  0  0  0  0  0
   59.3690   27.7860   44.6460 O   0  0  0  0  0  0  0  0  0  0  0  0
   58.1140   29.7090   45.2100 C   0  0  0  0  0  0  0  0  0  0  0  0
   58.7000   30.9200   44.8360 C   0  0  0  0  0  0  0  0  0  0  0  0
   57.4060   31.9210   44.5150 S   0  0  0  0  0  0  0  0  0  0  0  0
   56.1820   30.8500   44.8320 N   0  0  0  0  0  0  0  0  0  0  0  0
   56.7460   29.7000   45.1920 N   0  0  0  0  0  0  0  0  0  0  0  0
   60.5560   30.7910   49.1320 N   0  0  0  0  0  0  0  0  0  0  0  0
   61.4190   31.7540   48.4570 C   0  0  0  0  0  0  0  0  0  0  0  0
   60.5840   32.7410   47.6770 C   0  0  0  0  0  0  0  0  0  0  0  0
   59.1860   32.7040   47.8310 C   0  0  0  0  0  0  0  0  0  0  0  0
   58.3740   33.6290   47.1730 C   0  0  0  0  0  0  0  0  0  0  0  0
   58.9440   34.6010   46.3520 C   0  0  0  0  0  0  0  0  0  0  0  0
   60.3290   34.6480   46.1820 C   0  0  0  0  0  0  0  0  0  0  0  0
   61.1560   33.7270   46.8370 C   0  0  0  0  0  0  0  0  0  0  0  0
   62.8920   33.8480   46.5700 Cl  0  0  0  0  0  0  0  0  0  0  0  0
   58.2642   28.8330   48.7393 H   0  0  0  0  0  0  0  0  0  0  0  0
   58.6056   30.1021   47.4944 H   0  0  0  0  0  0  0  0  0  0  0  0
   60.0539   26.2633   47.0042 H   0  0  0  0  0  0  0  0  0  0  0  0
   58.9391   26.6386   48.3863 H   0  0  0  0  0  0  0  0  0  0  0  0
   59.2286   24.2885   46.0473 H   0  0  0  0  0  0  0  0  0  0  0  0
   57.3679   23.0431   44.9472 H   0  0  0  0  0  0  0  0  0  0  0  0
   55.0673   24.0081   44.9033 H   0  0  0  0  0  0  0  0  0  0  0  0
   56.4798   27.4866   47.0536 H   0  0  0  0  0  0  0  0  0  0  0  0
   59.7716   31.1591   44.7685 H   0  0  0  0  0  0  0  0  0  0  0  0
   62.0165   32.2946   49.2058 H   0  0  0  0  0  0  0  0  0  0  0  0
   62.0840   31.2178   47.7639 H   0  0  0  0  0  0  0  0  0  0  0  0
   58.7288   31.9391   48.4759 H   0  0  0  0  0  0  0  0  0  0  0  0
   57.2823   33.5911   47.3024 H   0  0  0  0  0  0  0  0  0  0  0  0
   58.3021   35.3314   45.8378 H   0  0  0  0  0  0  0  0  0  0  0  0
   60.7736   35.4136   45.5292 H   0  0  0  0  0  0  0  0  0  0  0  0
  1  2  2  0
  2  3  1  0
  3  4  1  0
  4  5  1  0
  5  6  1  0
  6  7  2  0
  7  8  1  0
  8  9  2  0
  9 10  1  0
 10 11  1  0
 10 12  2  0
  4 13  1  0
 13 14  2  0
 13 15  1  0
 15 16  2  0
 16 17  1  0
 17 18  1  0
 18 19  2  0
  2 20  1  0
 20 21  1  0
 21 22  1  0
 22 23  2  0
 23 24  1  0
 24 25  2  0
 25 26  1  0
 26 27  2  0
 27 28  1  0
 12  6  1  0
 19 15  1  0
 27 22  1  0
  3 29  1  0
  3 30  1  0
  5 31  1  0
  5 32  1  0
  7 33  1  0
  8 34  1  0
  9 35  1  0
 12 36  1  0
 16 37  1  0
 21 38  1  0
 21 39  1  0
 23 40  1  0
 24 41  1  0
 25 42  1  0
 26 43  1  0
M  CHG  2  11  -1  20  -1
M  END
>  <UniqueID>  (19) 
17

>  <SMILES>  (19) 
O=C(CN(Cc1cccc([O-])c1)C(=O)c1csnn1)[N-]Cc1ccccc1Cl

>  <Energy>  (19) 
80.98077279259107

>  <Genealogy>  (19) 
O=C(CN(Cc1cccc([O-])c1)C(=O)c1csnn1)[N-]Cc1ccccc1Cl (protonated)
O=C(CN(Cc1cccc([O-])c1)C(=O)c1csnn1)[N-]Cc1ccccc1Cl (3D coordinates assigned)
O=C(CN(Cc1cccc([O-])c1)C(=O)c1csnn1)[N-]Cc1ccccc1Cl (optimized conformer: 80.98077279259107 kcal/mol)

>  <smiles>  (19) 
O=C(CN(Cc1cccc(O)c1)C(=O)c1csnn1)NCc1ccccc1Cl

>  <score_type>  (19) 
oracle

>  <origin>  (19) 
adg

>  <m_score__min__energy>  (19) 
-14.01

>  <m_primary>  (19) 
energy

$$$$
19:0
     RDKit          3D

 44 46  0  0  0  0  0  0  0  0999 V2000
   56.8770   29.9970   42.9900 O   0  0  0  0  0  0  0  0  0  0  0  0
   56.7060   30.1330   44.4760 S   0  0  0  0  0  0  0  0  0  0  0  0
   55.4590   29.3970   44.8840 O   0  0  0  0  0  0  0  0  0  0  0  0
   56.5410   31.8120   44.8800 N   0  0  0  0  0  0  0  0  0  0  0  0
   57.6080   32.6570   45.3310 C   0  0  0  0  0  0  0  0  0  0  0  0
   58.1960   33.5420   44.4200 C   0  0  0  0  0  0  0  0  0  0  0  0
   59.2170   34.4040   44.8300 C   0  0  0  0  0  0  0  0  0  0  0  0
   59.6550   34.3930   46.1540 C   0  0  0  0  0  0  0  0  0  0  0  0
   59.0710   33.5180   47.0810 C   0  0  0  0  0  0  0  0  0  0  0  0
   59.5830   33.5350   48.7720 S   0  0  0  0  0  0  0  0  0  0  0  0
   59.5140   34.9420   49.2940 O   0  0  0  0  0  0  0  0  0  0  0  0
   58.6390   32.6920   49.5830 O   0  0  0  0  0  0  0  0  0  0  0  0
   61.2060   32.9120   48.9560 N   0  0  0  0  0  0  0  0  0  0  0  0
   61.2960   31.4930   48.5280 C   0  0  0  0  0  0  0  0  0  0  0  0
   61.9570   31.3220   47.1520 C   0  0  0  0  0  0  0  0  0  0  0  0
   63.3780   31.9140   47.1410 C   0  0  0  0  0  0  0  0  0  0  0  0
   63.5310   33.1180   48.0900 C   0  0  0  0  0  0  0  0  0  0  0  0
   62.1850   33.8160   48.3110 C   0  0  0  0  0  0  0  0  0  0  0  0
   58.0600   32.6440   46.6620 C   0  0  0  0  0  0  0  0  0  0  0  0
   58.1270   29.4670   45.2750 C   0  0  0  0  0  0  0  0  0  0  0  0
   59.2750   29.1900   44.5200 C   0  0  0  0  0  0  0  0  0  0  0  0
   60.4190   28.6760   45.1420 C   0  0  0  0  0  0  0  0  0  0  0  0
   60.4200   28.4420   46.5190 C   0  0  0  0  0  0  0  0  0  0  0  0
   59.2780   28.7180   47.2780 C   0  0  0  0  0  0  0  0  0  0  0  0
   58.1310   29.2290   46.6580 C   0  0  0  0  0  0  0  0  0  0  0  0
   57.8526   33.5593   43.3751 H   0  0  0  0  0  0  0  0  0  0  0  0
   59.6765   35.0932   44.1062 H   0  0  0  0  0  0  0  0  0  0  0  0
   60.4601   35.0720   46.4716 H   0  0  0  0  0  0  0  0  0  0  0  0
   61.8872   30.9392   49.2722 H   0  0  0  0  0  0  0  0  0  0  0  0
   60.2689   31.1071   48.4499 H   0  0  0  0  0  0  0  0  0  0  0  0
   62.0127   30.2501   46.9112 H   0  0  0  0  0  0  0  0  0  0  0  0
   61.3509   31.8557   46.4051 H   0  0  0  0  0  0  0  0  0  0  0  0
   64.0870   31.1315   47.4490 H   0  0  0  0  0  0  0  0  0  0  0  0
   63.5806   32.2695   46.1199 H   0  0  0  0  0  0  0  0  0  0  0  0
   63.9174   32.7664   49.0581 H   0  0  0  0  0  0  0  0  0  0  0  0
   64.2286   33.8368   47.6354 H   0  0  0  0  0  0  0  0  0  0  0  0
   62.3391   34.6944   48.9550 H   0  0  0  0  0  0  0  0  0  0  0  0
   61.7857   34.1152   47.3307 H   0  0  0  0  0  0  0  0  0  0  0  0
   57.6154   31.9406   47.3814 H   0  0  0  0  0  0  0  0  0  0  0  0
   59.2770   29.3770   43.4360 H   0  0  0  0  0  0  0  0  0  0  0  0
   61.3172   28.4564   44.5462 H   0  0  0  0  0  0  0  0  0  0  0  0
   61.3201   28.0401   47.0072 H   0  0  0  0  0  0  0  0  0  0  0  0
   59.2809   28.5336   48.3624 H   0  0  0  0  0  0  0  0  0  0  0  0
   57.2327   29.4439   47.2554 H   0  0  0  0  0  0  0  0  0  0  0  0
  1  2  2  0
  2  3  2  0
  2  4  1  0
  4  5  1  0
  5  6  2  0
  6  7  1  0
  7  8  2  0
  8  9  1  0
  9 10  1  0
 10 11  2  0
 10 12  2  0
 10 13  1  0
 13 14  1  0
 14 15  1  0
 15 16  1  0
 16 17  1  0
 17 18  1  0
  9 19  2  0
  2 20  1  0
 20 21  2  0
 21 22  1  0
 22 23  2  0
 23 24  1  0
 24 25  2  0
 19  5  1  0
 25 20  1  0
 18 13  1  0
  6 26  1  0
  7 27  1  0
  8 28  1  0
 14 29  1  0
 14 30  1  0
 15 31  1  0
 15 32  1  0
 16 33  1  0
 16 34  1  0
 17 35  1  0
 17 36  1  0
 18 37  1  0
 18 38  1  0
 19 39  1  0
 21 40  1  0
 22 41  1  0
 23 42  1  0
 24 43  1  0
 25 44  1  0
M  CHG  1   4  -1
M  END
>  <UniqueID>  (20) 
18

>  <SMILES>  (20) 
O=S(=O)([N-]c1cccc(S(=O)(=O)N2CCCCC2)c1)c1ccccc1

>  <Energy>  (20) 
52.10523856407734

>  <Genealogy>  (20) 
O=S(=O)([N-]c1cccc(S(=O)(=O)N2CCCCC2)c1)c1ccccc1 (protonated)
O=S(=O)([N-]c1cccc(S(=O)(=O)N2CCCCC2)c1)c1ccccc1 (3D coordinates assigned)
O=S(=O)([N-]c1cccc(S(=O)(=O)N2CCCCC2)c1)c1ccccc1 (nonaromatic ring conformer: 52.10523856407734 kcal/mol)

>  <smiles>  (20) 
O=S(=O)(Nc1cccc(S(=O)(=O)N2CCCCC2)c1)c1ccccc1

>  <score_type>  (20) 
oracle

>  <origin>  (20) 
adg

>  <m_score__min__energy>  (20) 
-11.65

>  <m_primary>  (20) 
energy

$$$$
20:0
     RDKit          3D

 40 41  0  0  0  0  0  0  0  0999 V2000
   57.8180   27.4940   43.0160 C   0  0  0  0  0  0  0  0  0  0  0  0
   57.8050   28.2990   44.2370 N   0  0  0  0  0  0  0  0  0  0  0  0
   58.3190   27.7350   45.4530 C   0  0  0  0  0  0  0  0  0  0  0  0
   57.6060   26.6970   46.0730 C   0  0  0  0  0  0  0  0  0  0  0  0
   58.0680   26.1310   47.2620 C   0  0  0  0  0  0  0  0  0  0  0  0
   59.2450   26.5960   47.8460 C   0  0  0  0  0  0  0  0  0  0  0  0
   59.9640   27.6310   47.2440 C   0  0  0  0  0  0  0  0  0  0  0  0
   59.5130   28.2150   46.0460 C   0  0  0  0  0  0  0  0  0  0  0  0
   60.3100   29.3420   45.4350 C   0  0  0  0  0  0  0  0  0  0  0  0
   59.9250   30.6270   46.0120 N   0  0  0  0  0  0  0  0  0  0  0  0
   60.7930   31.3790   46.8710 C   0  0  0  0  0  0  0  0  0  0  0  0
   61.9560   30.9610   47.1250 O   0  0  0  0  0  0  0  0  0  0  0  0
   60.3330   32.6800   47.4520 C   0  0  0  0  0  0  0  0  0  0  0  0
   59.2060   33.2360   46.6420 C   0  0  0  0  0  0  0  0  0  0  0  0
   57.8550   33.1160   46.9370 C   0  0  0  0  0  0  0  0  0  0  0  0
   57.0270   33.6780   45.9590 C   0  0  0  0  0  0  0  0  0  0  0  0
   57.7220   34.2300   44.8900 C   0  0  0  0  0  0  0  0  0  0  0  0
   59.3670   34.0140   45.1610 S   0  0  0  0  0  0  0  0  0  0  0  0
   56.7830   29.7020   44.3320 S   0  0  0  0  0  0  0  0  0  0  0  0
   56.6230   30.4740   42.7340 C   0  0  0  0  0  0  0  0  0  0  0  0
   55.4240   29.2990   44.8320 O   0  0  0  0  0  0  0  0  0  0  0  0
   57.3840   30.6970   45.2840 O   0  0  0  0  0  0  0  0  0  0  0  0
   57.8352   26.4265   43.2808 H   0  0  0  0  0  0  0  0  0  0  0  0
   56.9162   27.7105   42.4244 H   0  0  0  0  0  0  0  0  0  0  0  0
   58.7123   27.7395   42.4244 H   0  0  0  0  0  0  0  0  0  0  0  0
   56.6755   26.3267   45.6180 H   0  0  0  0  0  0  0  0  0  0  0  0
   57.5025   25.3169   47.7389 H   0  0  0  0  0  0  0  0  0  0  0  0
   59.6081   26.1472   48.7823 H   0  0  0  0  0  0  0  0  0  0  0  0
   60.8918   27.9931   47.7110 H   0  0  0  0  0  0  0  0  0  0  0  0
   61.3800   29.1692   45.6229 H   0  0  0  0  0  0  0  0  0  0  0  0
   60.1084   29.3684   44.3540 H   0  0  0  0  0  0  0  0  0  0  0  0
   58.9970   31.0290   45.7500 H   0  0  0  0  0  0  0  0  0  0  0  0
   59.9923   32.5166   48.4851 H   0  0  0  0  0  0  0  0  0  0  0  0
   61.1696   33.3941   47.4417 H   0  0  0  0  0  0  0  0  0  0  0  0
   57.4741   32.6288   47.8467 H   0  0  0  0  0  0  0  0  0  0  0  0
   55.9293   33.6824   46.0298 H   0  0  0  0  0  0  0  0  0  0  0  0
   57.2727   34.7239   44.0158 H   0  0  0  0  0  0  0  0  0  0  0  0
   56.4013   31.5436   42.8640 H   0  0  0  0  0  0  0  0  0  0  0  0
   57.5639   30.3598   42.1757 H   0  0  0  0  0  0  0  0  0  0  0  0
   55.8050   29.9952   42.1757 H   0  0  0  0  0  0  0  0  0  0  0  0
  1  2  1  0
  2  3  1  0
  3  4  2  0
  4  5  1  0
  5  6  2  0
  6  7  1  0
  7  8  2  0
  8  9  1  0
  9 10  1  0
 10 11  1  0
 11 12  2  0
 11 13  1  0
 13 14  1  0
 14 15  2  0
 15 16  1  0
 16 17  2  0
 17 18  1  0
  2 19  1  0
 19 20  1  0
 19 21  2  0
 19 22  2  0
  8  3  1  0
 18 14  1  0
  1 23  1  0
  1 24  1  0
  1 25  1  0
  4 26  1  0
  5 27  1  0
  6 28  1  0
  7 29  1  0
  9 30  1  0
  9 31  1  0
 10 32  1  0
 13 33  1  0
 13 34  1  0
 15 35  1  0
 16 36  1  0
 17 37  1  0
 20 38  1  0
 20 39  1  0
 20 40  1  0
M  END
>  <UniqueID>  (21) 
19

>  <SMILES>  (21) 
CN(c1ccccc1CNC(=O)Cc1cccs1)S(C)(=O)=O

>  <Energy>  (21) 
61.145318479306425

>  <Genealogy>  (21) 
CN(c1ccccc1CNC(=O)Cc1cccs1)S(C)(=O)=O (3D coordinates assigned)
CN(c1ccccc1CNC(=O)Cc1cccs1)S(C)(=O)=O (optimized conformer: 61.145318479306425 kcal/mol)

>  <smiles>  (21) 
CN(c1ccccc1CNC(=O)Cc1cccs1)S(C)(=O)=O

>  <score_type>  (21) 
oracle

>  <origin>  (21) 
adg

>  <m_score__min__energy>  (21) 
-8.6699999999999999

>  <m_primary>  (21) 
energy

$$$$
21:0
     RDKit          3D

 67 70  0  0  0  0  0  0  0  0999 V2000
   60.6750   28.5860   44.5270 C   0  0  0  0  0  0  0  0  0  0  0  0
   59.5220   27.8310   45.1450 C   0  0  0  0  0  0  0  0  0  0  0  0
   59.7210   26.5240   45.6180 C   0  0  0  0  0  0  0  0  0  0  0  0
   58.6520   25.7680   46.1000 C   0  0  0  0  0  0  0  0  0  0  0  0
   57.3630   26.3100   46.1310 C   0  0  0  0  0  0  0  0  0  0  0  0
   56.2240   25.5090   46.6180 C   0  0  0  0  0  0  0  0  0  0  0  0
   55.1860   25.3950   45.9120 O   0  0  0  0  0  0  0  0  0  0  0  0
   56.3140   24.8260   47.8730 N   0  0  0  0  0  0  0  0  0  0  0  0
   56.5670   23.1150   47.9850 S   0  0  0  0  0  0  0  0  0  0  0  0
   57.4360   22.8500   49.1800 O   0  0  0  0  0  0  0  0  0  0  0  0
   57.2710   22.6520   46.7420 O   0  0  0  0  0  0  0  0  0  0  0  0
   55.0270   22.2430   48.1160 C   0  0  0  0  0  0  0  0  0  0  0  0
   54.0400   22.7250   48.9960 C   0  0  0  0  0  0  0  0  0  0  0  0
   52.8100   22.0730   49.1170 C   0  0  0  0  0  0  0  0  0  0  0  0
   52.5400   20.9460   48.3360 C   0  0  0  0  0  0  0  0  0  0  0  0
   53.4990   20.4710   47.4380 C   0  0  0  0  0  0  0  0  0  0  0  0
   54.7440   21.1100   47.3150 C   0  0  0  0  0  0  0  0  0  0  0  0
   55.7000   20.5940   46.3150 C   0  0  0  0  0  0  0  0  0  0  0  0
   56.3220   19.5200   46.5730 O   0  0  0  0  0  0  0  0  0  0  0  0
   55.8830   21.2550   45.0380 N   0  0  0  0  0  0  0  0  0  0  0  0
   56.5240   20.5190   43.9380 C   0  0  0  0  0  0  0  0  0  0  0  0
   57.1360   21.4920   42.9190 C   0  0  0  0  0  0  0  0  0  0  0  0
   56.1910   22.4690   42.5260 O   0  0  0  0  0  0  0  0  0  0  0  0
   55.8580   23.2820   43.6320 C   0  0  0  0  0  0  0  0  0  0  0  0
   55.1250   22.4680   44.7030 C   0  0  0  0  0  0  0  0  0  0  0  0
   57.1580   27.6230   45.6750 C   0  0  0  0  0  0  0  0  0  0  0  0
   58.2260   28.3910   45.1940 C   0  0  0  0  0  0  0  0  0  0  0  0
   57.9220   29.6970   44.5730 C   0  0  0  0  0  0  0  0  0  0  0  0
   56.9070   29.7390   43.8180 O   0  0  0  0  0  0  0  0  0  0  0  0
   58.8090   30.8510   44.6340 N   0  0  2  0  0  0  0  0  0  0  0  0
   59.3610   31.1660   45.9760 C   0  0  0  0  0  0  0  0  0  0  0  0
   58.3220   31.7650   46.9410 C   0  0  0  0  0  0  0  0  0  0  0  0
   57.5720   32.9600   46.3360 C   0  0  1  0  0  0  0  0  0  0  0  0
   58.4190   34.2430   46.3450 C   0  0  0  0  0  0  0  0  0  0  0  0
   57.0600   32.6210   44.9240 C   0  0  0  0  0  0  0  0  0  0  0  0
   58.1760   32.0470   44.0320 C   0  0  0  0  0  0  0  0  0  0  0  0
   61.3099   29.0017   45.3233 H   0  0  0  0  0  0  0  0  0  0  0  0
   61.2694   27.9017   43.9038 H   0  0  0  0  0  0  0  0  0  0  0  0
   60.2854   29.4044   43.9038 H   0  0  0  0  0  0  0  0  0  0  0  0
   60.7321   26.0908   45.6084 H   0  0  0  0  0  0  0  0  0  0  0  0
   58.8236   24.7418   46.4570 H   0  0  0  0  0  0  0  0  0  0  0  0
   54.2392   23.6255   49.5955 H   0  0  0  0  0  0  0  0  0  0  0  0
   52.0558   22.4461   49.8255 H   0  0  0  0  0  0  0  0  0  0  0  0
   51.5716   20.4325   48.4284 H   0  0  0  0  0  0  0  0  0  0  0  0
   53.2770   19.5878   46.8211 H   0  0  0  0  0  0  0  0  0  0  0  0
   57.3184   19.8775   44.3472 H   0  0  0  0  0  0  0  0  0  0  0  0
   55.7634   19.9072   43.4308 H   0  0  0  0  0  0  0  0  0  0  0  0
   58.0036   21.9921   43.3742 H   0  0  0  0  0  0  0  0  0  0  0  0
   57.4448   20.9228   42.0298 H   0  0  0  0  0  0  0  0  0  0  0  0
   56.7798   23.6991   44.0637 H   0  0  0  0  0  0  0  0  0  0  0  0
   55.1963   24.0910   43.2890 H   0  0  0  0  0  0  0  0  0  0  0  0
   55.0081   23.0828   45.6076 H   0  0  0  0  0  0  0  0  0  0  0  0
   54.1392   22.1744   44.3131 H   0  0  0  0  0  0  0  0  0  0  0  0
   56.1459   28.0533   45.6960 H   0  0  0  0  0  0  0  0  0  0  0  0
   59.6300   30.6080   44.0310 H   0  0  0  0  0  0  0  0  0  0  0  0
   59.7528   30.2381   46.4181 H   0  0  0  0  0  0  0  0  0  0  0  0
   60.1458   31.9236   45.8339 H   0  0  0  0  0  0  0  0  0  0  0  0
   57.5909   30.9849   47.1996 H   0  0  0  0  0  0  0  0  0  0  0  0
   58.8621   32.1263   47.8286 H   0  0  0  0  0  0  0  0  0  0  0  0
   56.6993   33.1625   46.9743 H   0  0  0  0  0  0  0  0  0  0  0  0
   58.6177   34.5439   47.3842 H   0  0  0  0  0  0  0  0  0  0  0  0
   59.3722   34.0567   45.8286 H   0  0  0  0  0  0  0  0  0  0  0  0
   57.8731   35.0464   45.8286 H   0  0  0  0  0  0  0  0  0  0  0  0
   56.2533   31.8778   45.0070 H   0  0  0  0  0  0  0  0  0  0  0  0
   56.6966   33.5501   44.4606 H   0  0  0  0  0  0  0  0  0  0  0  0
   57.7448   31.7686   43.0591 H   0  0  0  0  0  0  0  0  0  0  0  0
   58.9505   32.8198   43.9182 H   0  0  0  0  0  0  0  0  0  0  0  0
  1  2  1  0
  2  3  2  0
  3  4  1  0
  4  5  2  0
  5  6  1  0
  6  7  2  0
  6  8  1  0
  8  9  1  0
  9 10  2  0
  9 11  2  0
  9 12  1  0
 12 13  2  0
 13 14  1  0
 14 15  2  0
 15 16  1  0
 16 17  2  0
 17 18  1  0
 18 19  2  0
 18 20  1  0
 20 21  1  0
 21 22  1  0
 22 23  1  0
 23 24  1  0
 24 25  1  0
  5 26  1  0
 26 27  2  0
 27 28  1  0
 28 29  2  0
 28 30  1  0
 30 31  1  0
 31 32  1  0
 32 33  1  0
 33 34  1  0
 33 35  1  0
 35 36  1  0
 27  2  1  0
 36 30  1  0
 17 12  1  0
 25 20  1  0
  1 37  1  0
  1 38  1  0
  1 39  1  0
  3 40  1  0
  4 41  1  0
 13 42  1  0
 14 43  1  0
 15 44  1  0
 16 45  1  0
 21 46  1  0
 21 47  1  0
 22 48  1  0
 22 49  1  0
 24 50  1  0
 24 51  1  0
 25 52  1  0
 25 53  1  0
 26 54  1  0
 30 55  1  6
 31 56  1  0
 31 57  1  0
 32 58  1  0
 32 59  1  0
 33 60  1  1
 34 61  1  0
 34 62  1  0
 34 63  1  0
 35 64  1  0
 35 65  1  0
 36 66  1  0
 36 67  1  0
M  CHG  2   8  -1  30   1
M  END
>  <UniqueID>  (22) 
20

>  <SMILES>  (22) 
Cc1ccc(C(=O)[N-]S(=O)(=O)c2ccccc2C(=O)N2CCOCC2)cc1C(=O)[NH+]1CCC(C)CC1

>  <Energy>  (22) 
96.52001618182892

>  <Genealogy>  (22) 
Cc1ccc(C(=O)[N-]S(=O)(=O)c2ccccc2C(=O)N2CCOCC2)cc1C(=O)[NH+]1CCC(C)CC1 (protonated)
Cc1ccc(C(=O)[N-]S(=O)(=O)c2ccccc2C(=O)N2CCOCC2)cc1C(=O)[NH+]1CCC(C)CC1 (3D coordinates assigned)
Cc1ccc(C(=O)[N-]S(=O)(=O)c2ccccc2C(=O)N2CCOCC2)cc1C(=O)[NH+]1CCC(C)CC1 (nonaromatic ring conformer: 96.52001618182892 kcal/mol)

>  <smiles>  (22) 
Cc1ccc(C(=O)NS(=O)(=O)c2ccccc2C(=O)N2CCOCC2)cc1C(=O)N1CCC(C)CC1

>  <score_type>  (22) 
oracle

>  <origin>  (22) 
adg

>  <m_score__min__energy>  (22) 
-10.85

>  <m_primary>  (22) 
energy

$$$$
22:0
     RDKit          3D

 44 46  0  0  0  0  0  0  0  0999 V2000
   55.9620   28.4730   45.2600 O   0  0  0  0  0  0  0  0  0  0  0  0
   57.1290   28.0190   45.4320 C   0  0  0  0  0  0  0  0  0  0  0  0
   58.2890   28.9380   45.4630 C   0  0  0  0  0  0  0  0  0  0  0  0
   58.5130   30.0140   44.2390 S   0  0  0  0  0  0  0  0  0  0  0  0
   59.0180   29.1200   46.6850 N   0  0  0  0  0  0  0  0  0  0  0  0
   58.3940   29.8230   47.8050 C   0  0  0  0  0  0  0  0  0  0  0  0
   59.3350   30.9000   48.3830 C   0  0  0  0  0  0  0  0  0  0  0  0
   60.7780   30.6520   48.1530 N   0  0  0  0  0  0  0  0  0  0  0  0
   61.3070   31.4280   47.0110 C   0  0  0  0  0  0  0  0  0  0  0  0
   60.5130   32.6980   46.8150 C   0  0  0  0  0  0  0  0  0  0  0  0
   60.7500   33.8170   47.6150 C   0  0  0  0  0  0  0  0  0  0  0  0
   59.9490   34.9560   47.4800 C   0  0  0  0  0  0  0  0  0  0  0  0
   58.9090   34.9740   46.5460 C   0  0  0  0  0  0  0  0  0  0  0  0
   58.6740   33.8690   45.7390 C   0  0  0  0  0  0  0  0  0  0  0  0
   59.4690   32.7340   45.8760 C   0  0  0  0  0  0  0  0  0  0  0  0
   61.0830   29.2120   48.0320 C   0  0  0  0  0  0  0  0  0  0  0  0
   60.3900   28.6040   46.8040 C   0  0  0  0  0  0  0  0  0  0  0  0
   57.3160   26.5680   45.5950 C   0  0  0  0  0  0  0  0  0  0  0  0
   58.6020   26.0160   45.4540 C   0  0  0  0  0  0  0  0  0  0  0  0
   58.7910   24.6380   45.5860 C   0  0  0  0  0  0  0  0  0  0  0  0
   57.7010   23.7980   45.8470 C   0  0  0  0  0  0  0  0  0  0  0  0
   56.4180   24.3380   45.9570 C   0  0  0  0  0  0  0  0  0  0  0  0
   56.2200   25.7220   45.8380 C   0  0  0  0  0  0  0  0  0  0  0  0
   54.9450   26.2590   45.9810 O   0  0  0  0  0  0  0  0  0  0  0  0
   57.4692   30.3051   47.4553 H   0  0  0  0  0  0  0  0  0  0  0  0
   58.1752   29.0912   48.5966 H   0  0  0  0  0  0  0  0  0  0  0  0
   59.0756   31.8644   47.9218 H   0  0  0  0  0  0  0  0  0  0  0  0
   59.1882   30.8871   49.4731 H   0  0  0  0  0  0  0  0  0  0  0  0
   62.3584   31.6859   47.2058 H   0  0  0  0  0  0  0  0  0  0  0  0
   61.2265   30.8164   46.1002 H   0  0  0  0  0  0  0  0  0  0  0  0
   61.5667   33.8033   48.3517 H   0  0  0  0  0  0  0  0  0  0  0  0
   60.1377   35.8382   48.1093 H   0  0  0  0  0  0  0  0  0  0  0  0
   58.2743   35.8673   46.4501 H   0  0  0  0  0  0  0  0  0  0  0  0
   57.8639   33.8900   44.9952 H   0  0  0  0  0  0  0  0  0  0  0  0
   59.2773   31.8559   45.2418 H   0  0  0  0  0  0  0  0  0  0  0  0
   62.1707   29.0818   47.9324 H   0  0  0  0  0  0  0  0  0  0  0  0
   60.7143   28.6988   48.9324 H   0  0  0  0  0  0  0  0  0  0  0  0
   60.9570   28.8685   45.8992 H   0  0  0  0  0  0  0  0  0  0  0  0
   60.3525   27.5107   46.9188 H   0  0  0  0  0  0  0  0  0  0  0  0
   59.4600   26.6701   45.2395 H   0  0  0  0  0  0  0  0  0  0  0  0
   59.7997   24.2111   45.4846 H   0  0  0  0  0  0  0  0  0  0  0  0
   57.8553   22.7153   45.9651 H   0  0  0  0  0  0  0  0  0  0  0  0
   55.5587   23.6755   46.1377 H   0  0  0  0  0  0  0  0  0  0  0  0
   54.7810   27.2490   45.9200 H   0  0  0  0  0  0  0  0  0  0  0  0
  1  2  2  0
  2  3  1  0
  3  4  2  0
  3  5  1  0
  5  6  1  0
  6  7  1  0
  7  8  1  0
  8  9  1  0
  9 10  1  0
 10 11  2  0
 11 12  1  0
 12 13  2  0
 13 14  1  0
 14 15  2  0
  8 16  1  0
 16 17  1  0
  2 18  1  0
 18 19  2  0
 19 20  1  0
 20 21  2  0
 21 22  1  0
 22 23  2  0
 23 24  1  0
 17  5  1  0
 23 18  1  0
 15 10  1  0
  6 25  1  0
  6 26  1  0
  7 27  1  0
  7 28  1  0
  9 29  1  0
  9 30  1  0
 11 31  1  0
 12 32  1  0
 13 33  1  0
 14 34  1  0
 15 35  1  0
 16 36  1  0
 16 37  1  0
 17 38  1  0
 17 39  1  0
 19 40  1  0
 20 41  1  0
 21 42  1  0
 22 43  1  0
 24 44  1  0
M  END
>  <UniqueID>  (23) 
21

>  <SMILES>  (23) 
O=C(C(=S)N1CCN(Cc2ccccc2)CC1)c1ccccc1O

>  <Energy>  (23) 
64.6615699348249

>  <Genealogy>  (23) 
O=C(C(=S)N1CCN(Cc2ccccc2)CC1)c1ccccc1O (3D coordinates assigned)
O=C(C(=S)N1CCN(Cc2ccccc2)CC1)c1ccccc1O (nonaromatic ring conformer: 64.6615699348249 kcal/mol)

>  <smiles>  (23) 
O=C(C(=S)N1CCN(Cc2ccccc2)CC1)c1ccccc1O

>  <score_type>  (23) 
oracle

>  <origin>  (23) 
adg

>  <m_score__min__energy>  (23) 
-9.1799999999999997

>  <m_primary>  (23) 
energy

$$$$
23:0
     RDKit          3D

 48 50  0  0  0  0  0  0  0  0999 V2000
   57.5727   27.3126   43.4452 H   0  0  0  0  0  0  0  0  0  0  0  0
   57.5290   27.7100   44.4700 C   0  0  0  0  0  0  0  0  0  0  0  0
   57.4190   29.1700   44.6560 C   0  0  0  0  0  0  0  0  0  0  0  0
   56.3730   29.6310   45.1860 O   0  0  0  0  0  0  0  0  0  0  0  0
   58.4510   30.0670   44.2140 N   0  0  0  0  0  0  0  0  0  0  0  0
   59.0440   29.7820   43.4030 H   0  0  0  0  0  0  0  0  0  0  0  0
   58.4910   31.4460   44.6110 C   0  0  0  0  0  0  0  0  0  0  0  0
   58.8600   31.7660   45.9250 C   0  0  0  0  0  0  0  0  0  0  0  0
   59.1192   30.9614   46.6289 H   0  0  0  0  0  0  0  0  0  0  0  0
   58.9020   33.1000   46.3510 C   0  0  0  0  0  0  0  0  0  0  0  0
   59.3580   33.4900   48.0120 S   0  0  0  0  0  0  0  0  0  0  0  0
   58.3910   32.8350   48.9580 O   0  0  0  0  0  0  0  0  0  0  0  0
   59.2690   34.9770   48.2140 O   0  0  0  0  0  0  0  0  0  0  0  0
   60.9790   32.9460   48.3750 N   0  0  0  0  0  0  0  0  0  0  0  0
   61.6820   32.4710   47.1580 C   0  0  0  0  0  0  0  0  0  0  0  0
   62.2068   31.5348   47.3993 H   0  0  0  0  0  0  0  0  0  0  0  0
   60.9230   32.3264   46.3750 H   0  0  0  0  0  0  0  0  0  0  0  0
   62.7070   33.4830   46.6230 C   0  0  0  0  0  0  0  0  0  0  0  0
   63.2048   33.0568   45.7395 H   0  0  0  0  0  0  0  0  0  0  0  0
   62.1768   34.4101   46.3595 H   0  0  0  0  0  0  0  0  0  0  0  0
   63.7690   33.8140   47.6870 C   0  0  0  0  0  0  0  0  0  0  0  0
   64.6006   33.1008   47.5877 H   0  0  0  0  0  0  0  0  0  0  0  0
   64.0981   34.8496   47.5164 H   0  0  0  0  0  0  0  0  0  0  0  0
   63.2190   33.7320   49.1220 C   0  0  0  0  0  0  0  0  0  0  0  0
   63.4272   32.7319   49.5301 H   0  0  0  0  0  0  0  0  0  0  0  0
   63.7096   34.5067   49.7295 H   0  0  0  0  0  0  0  0  0  0  0  0
   61.7080   33.9780   49.1470 C   0  0  0  0  0  0  0  0  0  0  0  0
   61.3594   33.9573   50.1901 H   0  0  0  0  0  0  0  0  0  0  0  0
   61.5095   34.9578   48.6881 H   0  0  0  0  0  0  0  0  0  0  0  0
   58.5700   34.1230   45.4530 C   0  0  0  0  0  0  0  0  0  0  0  0
   58.6196   35.1735   45.7754 H   0  0  0  0  0  0  0  0  0  0  0  0
   58.1760   33.8120   44.1490 C   0  0  0  0  0  0  0  0  0  0  0  0
   57.9036   34.6189   43.4528 H   0  0  0  0  0  0  0  0  0  0  0  0
   58.1260   32.4800   43.7240 C   0  0  0  0  0  0  0  0  0  0  0  0
   57.5220   32.1410   42.1060 Cl  0  0  0  0  0  0  0  0  0  0  0  0
   57.5780   26.8470   45.4940 C   0  0  0  0  0  0  0  0  0  0  0  0
   58.1835   27.1137   46.3728 H   0  0  0  0  0  0  0  0  0  0  0  0
   56.8560   25.5480   45.5030 C   0  0  0  0  0  0  0  0  0  0  0  0
   57.5150   24.3310   45.2330 C   0  0  0  0  0  0  0  0  0  0  0  0
   58.5943   24.3304   45.0207 H   0  0  0  0  0  0  0  0  0  0  0  0
   56.8080   23.1260   45.2330 C   0  0  0  0  0  0  0  0  0  0  0  0
   57.3336   22.1814   45.0293 H   0  0  0  0  0  0  0  0  0  0  0  0
   55.4360   23.1180   45.4910 C   0  0  0  0  0  0  0  0  0  0  0  0
   54.8826   22.1673   45.4956 H   0  0  0  0  0  0  0  0  0  0  0  0
   54.7670   24.3160   45.7430 C   0  0  0  0  0  0  0  0  0  0  0  0
   53.6846   24.3077   45.9387 H   0  0  0  0  0  0  0  0  0  0  0  0
   55.4660   25.5280   45.7480 C   0  0  0  0  0  0  0  0  0  0  0  0
   54.7740   26.7060   46.0060 O   0  0  0  0  0  0  0  0  0  0  0  0
  1  2  1  0
  2  3  1  0
  3  4  2  0
  3  5  1  0
  5  6  1  0
  5  7  1  0
  7  8  2  0
  8  9  1  0
  8 10  1  0
 10 11  1  0
 11 12  2  0
 11 13  2  0
 11 14  1  0
 14 15  1  0
 15 16  1  0
 15 17  1  0
 15 18  1  0
 18 19  1  0
 18 20  1  0
 18 21  1  0
 21 22  1  0
 21 23  1  0
 21 24  1  0
 24 25  1  0
 24 26  1  0
 24 27  1  0
 27 28  1  0
 27 29  1  0
 10 30  2  0
 30 31  1  0
 30 32  1  0
 32 33  1  0
 32 34  2  0
 34 35  1  0
  2 36  2  0
 36 37  1  0
 36 38  1  0
 38 39  2  0
 39 40  1  0
 39 41  1  0
 41 42  1  0
 41 43  2  0
 43 44  1  0
 43 45  1  0
 45 46  1  0
 45 47  2  0
 47 48  1  0
 34  7  1  0
 47 38  1  0
 27 14  1  0
M  CHG  1  48  -1
M  END
>  <UniqueID>  (24) 
22

>  <SMILES>  (24) 
O=C(/C=C/c1ccccc1[O-])Nc1cc(S(=O)(=O)N2CCCCC2)ccc1Cl

>  <Energy>  (24) 
63.46216027739117

>  <Genealogy>  (24) 
O=C(C=Cc1ccccc1[O-])Nc1cc(S(=O)(=O)N2CCCCC2)ccc1Cl (protonated)
O=C(/C=C/c1ccccc1[O-])Nc1cc(S(=O)(=O)N2CCCCC2)ccc1Cl (cis-trans isomerization)
O=C(/C=C/c1ccccc1[O-])Nc1cc(S(=O)(=O)N2CCCCC2)ccc1Cl (3D coordinates assigned)
O=C(/C=C/c1ccccc1[O-])Nc1cc(S(=O)(=O)N2CCCCC2)ccc1Cl (nonaromatic ring conformer: 63.46216027739117 kcal/mol)

>  <smiles>  (24) 
O=C(C=Cc1ccccc1O)Nc1cc(S(=O)(=O)N2CCCCC2)ccc1Cl

>  <score_type>  (24) 
oracle

>  <origin>  (24) 
adg

>  <m_score__min__energy>  (24) 
-14.4

>  <m_primary>  (24) 
energy

$$$$
24:0
     RDKit          3D

 42 44  0  0  0  0  0  0  0  0999 V2000
   56.6000   32.8850   45.2190 O   0  0  0  0  0  0  0  0  0  0  0  0
   57.5240   32.0630   44.9780 C   0  0  0  0  0  0  0  0  0  0  0  0
   57.2650   30.9280   44.0340 C   0  0  0  0  0  0  0  0  0  0  0  0
   57.4600   29.6540   44.7220 N   0  0  0  0  0  0  0  0  0  0  0  0
   58.6410   29.0750   45.0300 C   0  0  0  0  0  0  0  0  0  0  0  0
   59.8810   29.6510   44.7810 O   0  0  0  0  0  0  0  0  0  0  0  0
   58.4350   27.8360   45.6010 C   0  0  0  0  0  0  0  0  0  0  0  0
   57.0780   27.6400   45.6290 C   0  0  0  0  0  0  0  0  0  0  0  0
   56.5050   28.7670   45.0750 C   0  0  0  0  0  0  0  0  0  0  0  0
   55.1430   28.9660   44.8860 O   0  0  0  0  0  0  0  0  0  0  0  0
   56.4240   26.3850   46.1100 C   0  0  0  0  0  0  0  0  0  0  0  0
   57.4300   25.4360   46.7330 C   0  0  0  0  0  0  0  0  0  0  0  0
   58.7680   25.6300   46.7060 C   0  0  0  0  0  0  0  0  0  0  0  0
   59.4370   26.8190   46.0460 C   0  0  0  0  0  0  0  0  0  0  0  0
   58.7970   32.1730   45.6340 N   0  0  0  0  0  0  0  0  0  0  0  0
   59.1020   33.1570   46.6350 C   0  0  0  0  0  0  0  0  0  0  0  0
   58.2120   33.9530   47.0420 O   0  0  0  0  0  0  0  0  0  0  0  0
   60.4280   33.2240   47.1790 N   0  0  0  0  0  0  0  0  0  0  0  0
   60.8140   34.2030   48.1920 C   0  0  0  0  0  0  0  0  0  0  0  0
   62.1230   33.8120   48.8240 C   0  0  0  0  0  0  0  0  0  0  0  0
   62.4110   34.1700   50.1520 C   0  0  0  0  0  0  0  0  0  0  0  0
   63.6380   33.8210   50.7230 C   0  0  0  0  0  0  0  0  0  0  0  0
   64.5860   33.1190   49.9740 C   0  0  0  0  0  0  0  0  0  0  0  0
   64.3060   32.7610   48.6520 C   0  0  0  0  0  0  0  0  0  0  0  0
   63.0810   33.1080   48.0770 C   0  0  0  0  0  0  0  0  0  0  0  0
   56.2303   30.9889   43.6657 H   0  0  0  0  0  0  0  0  0  0  0  0
   57.9654   30.9936   43.1883 H   0  0  0  0  0  0  0  0  0  0  0  0
   55.6639   26.6438   46.8619 H   0  0  0  0  0  0  0  0  0  0  0  0
   55.9655   25.8823   45.2457 H   0  0  0  0  0  0  0  0  0  0  0  0
   57.0482   24.5359   47.2370 H   0  0  0  0  0  0  0  0  0  0  0  0
   59.4092   24.8800   47.1921 H   0  0  0  0  0  0  0  0  0  0  0  0
   60.1251   27.2866   46.7656 H   0  0  0  0  0  0  0  0  0  0  0  0
   59.9807   26.4602   45.1596 H   0  0  0  0  0  0  0  0  0  0  0  0
   59.5440   31.4920   45.3730 H   0  0  0  0  0  0  0  0  0  0  0  0
   61.1450   32.5390   46.8510 H   0  0  0  0  0  0  0  0  0  0  0  0
   60.9196   35.1910   47.7202 H   0  0  0  0  0  0  0  0  0  0  0  0
   60.0372   34.2382   48.9701 H   0  0  0  0  0  0  0  0  0  0  0  0
   61.6689   34.7263   50.7436 H   0  0  0  0  0  0  0  0  0  0  0  0
   63.8579   34.0995   51.7642 H   0  0  0  0  0  0  0  0  0  0  0  0
   65.5523   32.8482   50.4245 H   0  0  0  0  0  0  0  0  0  0  0  0
   65.0512   32.2054   48.0638 H   0  0  0  0  0  0  0  0  0  0  0  0
   62.8662   32.8286   47.0350 H   0  0  0  0  0  0  0  0  0  0  0  0
  1  2  2  0
  2  3  1  0
  3  4  1  0
  4  5  1  0
  5  6  1  0
  5  7  2  0
  7  8  1  0
  8  9  2  0
  9 10  1  0
  8 11  1  0
 11 12  1  0
 12 13  2  0
 13 14  1  0
  2 15  1  0
 15 16  1  0
 16 17  2  0
 16 18  1  0
 18 19  1  0
 19 20  1  0
 20 21  2  0
 21 22  1  0
 22 23  2  0
 23 24  1  0
 24 25  2  0
  9  4  1  0
 25 20  1  0
 14  7  1  0
  3 26  1  0
  3 27  1  0
 11 28  1  0
 11 29  1  0
 12 30  1  0
 13 31  1  0
 14 32  1  0
 14 33  1  0
 15 34  1  0
 18 35  1  0
 19 36  1  0
 19 37  1  0
 21 38  1  0
 22 39  1  0
 23 40  1  0
 24 41  1  0
 25 42  1  0
M  CHG  2   6  -1  10  -1
M  END
>  <UniqueID>  (25) 
23

>  <SMILES>  (25) 
O=C(Cn1c([O-])c2c(c1[O-])CC=CC2)NC(=O)NCc1ccccc1

>  <Energy>  (25) 
71.24528489833678

>  <Genealogy>  (25) 
O=C(Cn1c([O-])c2c(c1[O-])CC=CC2)NC(=O)NCc1ccccc1 (protonated)
O=C(Cn1c([O-])c2c(c1[O-])CC=CC2)NC(=O)NCc1ccccc1 (3D coordinates assigned)
O=C(Cn1c([O-])c2c(c1[O-])CC=CC2)NC(=O)NCc1ccccc1 (nonaromatic ring conformer: 71.24528489833678 kcal/mol)

>  <smiles>  (25) 
O=C(Cn1c(O)c2c(c1O)CC=CC2)NC(=O)NCc1ccccc1

>  <score_type>  (25) 
oracle

>  <origin>  (25) 
adg

>  <m_score__min__energy>  (25) 
-11.68

>  <m_primary>  (25) 
energy

$$$$
25:0
     RDKit          3D

 44 46  0  0  0  0  0  0  0  0999 V2000
   63.8150   32.6950   46.9710 N   0  0  0  0  0  0  0  0  0  0  0  0
   62.7600   33.4860   47.5240 C   0  0  0  0  0  0  0  0  0  0  0  0
   63.0240   34.2750   48.4710 O   0  0  0  0  0  0  0  0  0  0  0  0
   61.3750   33.4090   46.9980 C   0  0  0  0  0  0  0  0  0  0  0  0
   60.6550   34.5890   46.7450 C   0  0  0  0  0  0  0  0  0  0  0  0
   59.3490   34.5310   46.2550 C   0  0  0  0  0  0  0  0  0  0  0  0
   58.7420   33.2980   46.0160 C   0  0  0  0  0  0  0  0  0  0  0  0
   59.4360   32.1030   46.2670 C   0  0  0  0  0  0  0  0  0  0  0  0
   58.7600   30.7660   46.0170 C   0  0  0  0  0  0  0  0  0  0  0  0
   59.7790   29.6810   45.5950 C   0  0  0  0  0  0  0  0  0  0  0  0
   59.1800   28.6510   44.6170 C   0  0  0  0  0  0  0  0  0  0  0  0
   57.7570   28.3510   44.8950 N   0  0  0  0  0  0  0  0  0  0  0  0
   57.5630   27.5550   46.1290 C   0  0  0  0  0  0  0  0  0  0  0  0
   57.1370   26.1440   45.7970 C   0  0  0  0  0  0  0  0  0  0  0  0
   58.1200   25.1760   45.5300 C   0  0  0  0  0  0  0  0  0  0  0  0
   57.7550   23.8580   45.2350 C   0  0  0  0  0  0  0  0  0  0  0  0
   59.1020   22.5530   44.8750 Br  0  0  0  0  0  0  0  0  0  0  0  0
   56.4060   23.4970   45.2070 C   0  0  0  0  0  0  0  0  0  0  0  0
   55.4210   24.4510   45.4730 C   0  0  0  0  0  0  0  0  0  0  0  0
   55.7780   25.7710   45.7690 C   0  0  0  0  0  0  0  0  0  0  0  0
   54.7760   26.6990   46.0370 O   0  0  0  0  0  0  0  0  0  0  0  0
   56.8780   29.5520   44.8370 C   0  0  0  0  0  0  0  0  0  0  0  0
   57.6260   30.8920   44.9910 C   0  0  0  0  0  0  0  0  0  0  0  0
   60.7520   32.1680   46.7650 C   0  0  0  0  0  0  0  0  0  0  0  0
   64.7670   32.7260   47.3990 H   0  0  0  0  0  0  0  0  0  0  0  0
   63.6900   32.1510   46.0890 H   0  0  0  0  0  0  0  0  0  0  0  0
   61.1240   35.5658   46.9345 H   0  0  0  0  0  0  0  0  0  0  0  0
   58.7965   35.4612   46.0566 H   0  0  0  0  0  0  0  0  0  0  0  0
   57.7132   33.2614   45.6285 H   0  0  0  0  0  0  0  0  0  0  0  0
   58.3128   30.4458   46.9696 H   0  0  0  0  0  0  0  0  0  0  0  0
   60.6347   30.1720   45.1085 H   0  0  0  0  0  0  0  0  0  0  0  0
   60.0831   29.1395   46.5029 H   0  0  0  0  0  0  0  0  0  0  0  0
   59.2614   29.0492   43.5948 H   0  0  0  0  0  0  0  0  0  0  0  0
   59.7442   27.7145   44.7381 H   0  0  0  0  0  0  0  0  0  0  0  0
   58.5087   27.5234   46.6900 H   0  0  0  0  0  0  0  0  0  0  0  0
   56.7746   28.0280   46.7329 H   0  0  0  0  0  0  0  0  0  0  0  0
   59.1834   25.4563   45.5531 H   0  0  0  0  0  0  0  0  0  0  0  0
   56.1191   22.4607   44.9753 H   0  0  0  0  0  0  0  0  0  0  0  0
   54.3596   24.1631   45.4496 H   0  0  0  0  0  0  0  0  0  0  0  0
   56.3618   29.5549   43.8656 H   0  0  0  0  0  0  0  0  0  0  0  0
   56.1851   29.4776   45.6881 H   0  0  0  0  0  0  0  0  0  0  0  0
   58.0498   31.1827   44.0184 H   0  0  0  0  0  0  0  0  0  0  0  0
   56.9155   31.6551   45.3415 H   0  0  0  0  0  0  0  0  0  0  0  0
   61.2999   31.2375   46.9745 H   0  0  0  0  0  0  0  0  0  0  0  0
  1  2  1  0
  2  3  2  0
  2  4  1  0
  4  5  2  0
  5  6  1  0
  6  7  2  0
  7  8  1  0
  8  9  1  0
  9 10  1  0
 10 11  1  0
 11 12  1  0
 12 13  1  0
 13 14  1  0
 14 15  2  0
 15 16  1  0
 16 17  1  0
 16 18  2  0
 18 19  1  0
 19 20  2  0
 20 21  1  0
 12 22  1  0
 22 23  1  0
  8 24  2  0
 24  4  1  0
 23  9  1  0
 20 14  1  0
  1 25  1  0
  1 26  1  0
  5 27  1  0
  6 28  1  0
  7 29  1  0
  9 30  1  0
 10 31  1  0
 10 32  1  0
 11 33  1  0
 11 34  1  0
 13 35  1  0
 13 36  1  0
 15 37  1  0
 18 38  1  0
 19 39  1  0
 22 40  1  0
 22 41  1  0
 23 42  1  0
 23 43  1  0
 24 44  1  0
M  CHG  1  21  -1
M  END
>  <UniqueID>  (26) 
24

>  <SMILES>  (26) 
NC(=O)c1cccc(C2CCN(Cc3cc(Br)ccc3[O-])CC2)c1

>  <Energy>  (26) 
57.85498767612554

>  <Genealogy>  (26) 
NC(=O)c1cccc(C2CCN(Cc3cc(Br)ccc3[O-])CC2)c1 (protonated)
NC(=O)c1cccc(C2CCN(Cc3cc(Br)ccc3[O-])CC2)c1 (3D coordinates assigned)
NC(=O)c1cccc(C2CCN(Cc3cc(Br)ccc3[O-])CC2)c1 (nonaromatic ring conformer: 57.85498767612554 kcal/mol)

>  <smiles>  (26) 
NC(=O)c1cccc(C2CCN(Cc3cc(Br)ccc3O)CC2)c1

>  <score_type>  (26) 
oracle

>  <origin>  (26) 
adg

>  <m_score__min__energy>  (26) 
-12.949999999999999

>  <m_primary>  (26) 
energy

$$$$
26:0
     RDKit          3D

 55 59  0  0  0  0  0  0  0  0999 V2000
   59.9770   27.6730   46.8590 C   0  0  0  0  0  0  0  0  0  0  0  0
   59.0110   28.3280   46.1950 C   0  0  0  0  0  0  0  0  0  0  0  0
   58.0940   27.7890   45.2770 C   0  0  0  0  0  0  0  0  0  0  0  0
   57.8100   26.5130   44.9530 C   0  0  0  0  0  0  0  0  0  0  0  0
   57.2380   25.5020   45.8570 C   0  0  0  0  0  0  0  0  0  0  0  0
   57.9530   24.5700   46.5130 N   0  0  0  0  0  0  0  0  0  0  0  0
   57.0380   23.9810   47.3110 C   0  0  0  0  0  0  0  0  0  0  0  0
   57.3230   23.0280   48.0810 O   0  0  0  0  0  0  0  0  0  0  0  0
   55.7930   24.4980   47.2240 N   0  0  0  0  0  0  0  0  0  0  0  0
   55.9430   25.4710   46.3110 C   0  0  0  0  0  0  0  0  0  0  0  0
   54.9200   26.3190   45.9040 O   0  0  0  0  0  0  0  0  0  0  0  0
   57.4370   28.8690   44.7080 C   0  0  0  0  0  0  0  0  0  0  0  0
   57.9150   30.0030   45.3300 C   0  0  0  0  0  0  0  0  0  0  0  0
   57.4730   31.4020   45.0210 C   0  0  0  0  0  0  0  0  0  0  0  0
   58.8620   29.6770   46.2370 N   0  0  0  0  0  0  0  0  0  0  0  0
   59.6130   30.6180   47.0230 C   0  0  0  0  0  0  0  0  0  0  0  0
   59.5000   30.6130   48.4180 C   0  0  0  0  0  0  0  0  0  0  0  0
   60.2120   31.5390   49.1870 C   0  0  0  0  0  0  0  0  0  0  0  0
   61.0350   32.4930   48.5670 C   0  0  0  0  0  0  0  0  0  0  0  0
   61.7910   33.4660   49.3880 C   0  0  0  0  0  0  0  0  0  0  0  0
   61.3290   34.6320   49.5330 O   0  0  0  0  0  0  0  0  0  0  0  0
   63.0320   33.1150   50.0300 N   0  0  0  0  0  0  0  0  0  0  0  0
   63.9930   32.2170   49.3640 C   0  0  0  0  0  0  0  0  0  0  0  0
   65.4090   32.7890   49.4540 C   0  0  0  0  0  0  0  0  0  0  0  0
   65.7610   33.1210   50.9150 C   0  0  0  0  0  0  0  0  0  0  0  0
   64.6260   33.1500   51.9520 C   0  0  0  0  0  0  0  0  0  0  0  0
   63.3540   33.7360   51.3280 C   0  0  0  0  0  0  0  0  0  0  0  0
   67.1120   32.6360   51.4290 C   0  0  0  0  0  0  0  0  0  0  0  0
   66.9050   34.1120   51.1130 C   0  0  0  0  0  0  0  0  0  0  0  0
   61.1570   32.4850   47.1670 C   0  0  0  0  0  0  0  0  0  0  0  0
   60.4440   31.5570   46.4000 C   0  0  0  0  0  0  0  0  0  0  0  0
   60.6325   28.2174   47.5547 H   0  0  0  0  0  0  0  0  0  0  0  0
   60.1128   26.5920   46.7073 H   0  0  0  0  0  0  0  0  0  0  0  0
   58.0246   26.1984   43.9210 H   0  0  0  0  0  0  0  0  0  0  0  0
   54.0400   26.3430   46.4040 H   0  0  0  0  0  0  0  0  0  0  0  0
   56.6788   28.8289   43.9120 H   0  0  0  0  0  0  0  0  0  0  0  0
   57.3005   31.9479   45.9603 H   0  0  0  0  0  0  0  0  0  0  0  0
   58.2535   31.9128   44.4380 H   0  0  0  0  0  0  0  0  0  0  0  0
   56.5407   31.3716   44.4380 H   0  0  0  0  0  0  0  0  0  0  0  0
   58.8481   29.8773   48.9118 H   0  0  0  0  0  0  0  0  0  0  0  0
   60.1269   31.5199   50.2835 H   0  0  0  0  0  0  0  0  0  0  0  0
   63.9682   31.2324   49.8538 H   0  0  0  0  0  0  0  0  0  0  0  0
   63.7145   32.1196   48.3043 H   0  0  0  0  0  0  0  0  0  0  0  0
   66.1245   32.0480   49.0681 H   0  0  0  0  0  0  0  0  0  0  0  0
   65.4604   33.7108   48.8560 H   0  0  0  0  0  0  0  0  0  0  0  0
   64.4228   32.1255   52.2971 H   0  0  0  0  0  0  0  0  0  0  0  0
   64.9317   33.7785   52.8014 H   0  0  0  0  0  0  0  0  0  0  0  0
   62.5130   33.5712   52.0176 H   0  0  0  0  0  0  0  0  0  0  0  0
   63.5265   34.8086   51.1551 H   0  0  0  0  0  0  0  0  0  0  0  0
   67.2169   32.3069   52.4733 H   0  0  0  0  0  0  0  0  0  0  0  0
   67.8331   31.8674   51.1139 H   0  0  0  0  0  0  0  0  0  0  0  0
   66.8600   34.8482   51.9291 H   0  0  0  0  0  0  0  0  0  0  0  0
   67.4141   34.8499   50.4755 H   0  0  0  0  0  0  0  0  0  0  0  0
   61.8167   33.2124   46.6714 H   0  0  0  0  0  0  0  0  0  0  0  0
   60.5366   31.5652   45.3039 H   0  0  0  0  0  0  0  0  0  0  0  0
  1  2  2  0
  2  3  1  0
  3  4  2  3
  4  5  1  0
  5  6  1  0
  6  7  1  0
  7  8  2  0
  7  9  1  0
  9 10  1  0
 10 11  1  0
  3 12  1  0
 12 13  2  0
 13 14  1  0
 13 15  1  0
 15 16  1  0
 16 17  2  0
 17 18  1  0
 18 19  2  0
 19 20  1  0
 20 21  2  0
 20 22  1  0
 22 23  1  0
 23 24  1  0
 24 25  1  0
 25 26  1  0
 26 27  1  0
 25 28  1  0
 28 29  1  0
 19 30  1  0
 30 31  2  0
 15  2  1  0
 31 16  1  0
 10  5  2  0
 27 22  1  0
 29 25  1  0
  1 32  1  0
  1 33  1  0
  4 34  1  0
 11 35  1  0
 12 36  1  0
 14 37  1  0
 14 38  1  0
 14 39  1  0
 17 40  1  0
 18 41  1  0
 23 42  1  0
 23 43  1  0
 24 44  1  0
 24 45  1  0
 26 46  1  0
 26 47  1  0
 27 48  1  0
 27 49  1  0
 28 50  1  0
 28 51  1  0
 29 52  1  0
 29 53  1  0
 30 54  1  0
 31 55  1  0
M  CHG  2   6  -1   9  -1
M  END
>  <UniqueID>  (27) 
25

>  <SMILES>  (27) 
C=c1c(=Cc2[n-]c(=O)[n-]c2O)cc(C)n1-c1ccc(C(=O)N2CCC3(CC2)CC3)cc1

>  <Energy>  (27) 
404.9387871961803

>  <Genealogy>  (27) 
C=c1c(=Cc2[n-]c(=O)[n-]c2O)cc(C)n1-c1ccc(C(=O)N2CCC3(CC2)CC3)cc1 (protonated)
C=c1c(=Cc2[n-]c(=O)[n-]c2O)cc(C)n1-c1ccc(C(=O)N2CCC3(CC2)CC3)cc1 (3D coordinates assigned)
C=c1c(=Cc2[n-]c(=O)[n-]c2O)cc(C)n1-c1ccc(C(=O)N2CCC3(CC2)CC3)cc1 (nonaromatic ring conformer: 404.9387871961803 kcal/mol)

>  <smiles>  (27) 
C=c1c(=Cc2[nH]c(=O)[nH]c2O)cc(C)n1-c1ccc(C(=O)N2CCC3(CC2)CC3)cc1

>  <score_type>  (27) 
oracle

>  <origin>  (27) 
adg

>  <m_score__min__energy>  (27) 
-13.710000000000001

>  <m_primary>  (27) 
energy

$$$$
27:0
     RDKit          3D

 40 42  0  0  0  0  0  0  0  0999 V2000
   59.6050   27.2060   47.2450 O   0  0  0  0  0  0  0  0  0  0  0  0
   58.4490   27.5840   46.9080 C   0  0  0  0  0  0  0  0  0  0  0  0
   57.3130   26.7220   47.1010 N   0  0  0  0  0  0  0  0  0  0  0  0
   56.9720   25.6970   46.3730 C   0  0  0  0  0  0  0  0  0  0  0  0
   57.8350   24.6630   46.1570 N   0  0  0  0  0  0  0  0  0  0  0  0
   57.4940   23.5840   45.4020 C   0  0  0  0  0  0  0  0  0  0  0  0
   56.2270   23.5100   44.8210 C   0  0  0  0  0  0  0  0  0  0  0  0
   55.3220   24.5520   45.0240 C   0  0  0  0  0  0  0  0  0  0  0  0
   55.6900   25.6520   45.8020 C   0  0  0  0  0  0  0  0  0  0  0  0
   54.7860   26.6900   46.0050 O   0  0  0  0  0  0  0  0  0  0  0  0
   58.2620   28.9270   46.3100 C   0  0  0  0  0  0  0  0  0  0  0  0
   58.5800   30.0870   47.0410 C   0  0  0  0  0  0  0  0  0  0  0  0
   58.4270   31.3510   46.4650 C   0  0  0  0  0  0  0  0  0  0  0  0
   57.9580   31.4780   45.1530 C   0  0  0  0  0  0  0  0  0  0  0  0
   57.8730   33.0720   44.4060 S   0  0  0  0  0  0  0  0  0  0  0  0
   57.4830   32.9600   42.9590 O   0  0  0  0  0  0  0  0  0  0  0  0
   56.8330   33.8820   45.1270 O   0  0  0  0  0  0  0  0  0  0  0  0
   59.4060   33.8800   44.5220 N   0  0  0  0  0  0  0  0  0  0  0  0
   59.8440   34.6680   45.6360 C   0  0  0  0  0  0  0  0  0  0  0  0
   59.6580   35.9130   45.6090 O   0  0  0  0  0  0  0  0  0  0  0  0
   60.4860   34.0680   46.8210 C   0  0  0  0  0  0  0  0  0  0  0  0
   61.7760   33.5240   46.7180 C   0  0  0  0  0  0  0  0  0  0  0  0
   62.4070   32.9920   47.8450 C   0  0  0  0  0  0  0  0  0  0  0  0
   61.7480   32.9790   49.0770 C   0  0  0  0  0  0  0  0  0  0  0  0
   60.4520   33.4940   49.1820 C   0  0  0  0  0  0  0  0  0  0  0  0
   59.6230   33.4790   50.7280 Cl  0  0  0  0  0  0  0  0  0  0  0  0
   59.8180   34.0290   48.0540 C   0  0  0  0  0  0  0  0  0  0  0  0
   57.6210   30.3290   44.4260 C   0  0  0  0  0  0  0  0  0  0  0  0
   57.7750   29.0630   44.9980 C   0  0  0  0  0  0  0  0  0  0  0  0
   58.2172   22.7693   45.2493 H   0  0  0  0  0  0  0  0  0  0  0  0
   55.9453   22.6398   44.2099 H   0  0  0  0  0  0  0  0  0  0  0  0
   54.3201   24.5074   44.5720 H   0  0  0  0  0  0  0  0  0  0  0  0
   58.9514   29.9980   48.0726 H   0  0  0  0  0  0  0  0  0  0  0  0
   58.6766   32.2509   47.0462 H   0  0  0  0  0  0  0  0  0  0  0  0
   62.2917   33.5166   45.7464 H   0  0  0  0  0  0  0  0  0  0  0  0
   63.4246   32.5825   47.7624 H   0  0  0  0  0  0  0  0  0  0  0  0
   62.2485   32.5638   49.9642 H   0  0  0  0  0  0  0  0  0  0  0  0
   58.7930   34.4199   48.1349 H   0  0  0  0  0  0  0  0  0  0  0  0
   57.2336   30.4235   43.4008 H   0  0  0  0  0  0  0  0  0  0  0  0
   57.5132   28.1662   44.4173 H   0  0  0  0  0  0  0  0  0  0  0  0
  1  2  2  0
  2  3  1  0
  3  4  2  3
  4  5  1  0
  5  6  1  0
  6  7  2  0
  7  8  1  0
  8  9  2  0
  9 10  1  0
  2 11  1  0
 11 12  2  0
 12 13  1  0
 13 14  2  0
 14 15  1  0
 15 16  2  0
 15 17  2  0
 15 18  1  0
 18 19  1  0
 19 20  2  0
 19 21  1  0
 21 22  2  0
 22 23  1  0
 23 24  2  0
 24 25  1  0
 25 26  1  0
 25 27  2  0
 14 28  1  0
 28 29  2  0
  9  4  1  0
 29 11  1  0
 27 21  1  0
  6 30  1  0
  7 31  1  0
  8 32  1  0
 12 33  1  0
 13 34  1  0
 22 35  1  0
 23 36  1  0
 24 37  1  0
 27 38  1  0
 28 39  1  0
 29 40  1  0
M  CHG  3   5  -1  10  -1  18  -1
M  END
>  <UniqueID>  (28) 
26

>  <SMILES>  (28) 
O=C(N=c1[n-]cccc1[O-])c1ccc(S(=O)(=O)[N-]C(=O)c2cccc(Cl)c2)cc1

>  <Energy>  (28) 
52.450431800575224

>  <Genealogy>  (28) 
O=C(N=c1[n-]cccc1[O-])c1ccc(S(=O)(=O)[N-]C(=O)c2cccc(Cl)c2)cc1 (protonated)
O=C(N=c1[n-]cccc1[O-])c1ccc(S(=O)(=O)[N-]C(=O)c2cccc(Cl)c2)cc1 (3D coordinates assigned)
O=C(N=c1[n-]cccc1[O-])c1ccc(S(=O)(=O)[N-]C(=O)c2cccc(Cl)c2)cc1 (optimized conformer: 52.450431800575224 kcal/mol)

>  <smiles>  (28) 
O=C(N=c1[nH]cccc1O)c1ccc(S(=O)(=O)NC(=O)c2cccc(Cl)c2)cc1

>  <score_type>  (28) 
oracle

>  <origin>  (28) 
adg

>  <m_score__min__energy>  (28) 
-15.57

>  <m_primary>  (28) 
energy

$$$$
28:0
     RDKit          3D

 43 45  0  0  0  0  0  0  0  0999 V2000
   59.5518   29.2054   49.2521 H   0  0  0  0  0  0  0  0  0  0  0  0
   59.2500   28.9220   48.2330 C   0  0  0  0  0  0  0  0  0  0  0  0
   59.3121   27.8714   47.9131 H   0  0  0  0  0  0  0  0  0  0  0  0
   58.8060   29.8580   47.3800 C   0  0  0  0  0  0  0  0  0  0  0  0
   58.3890   29.6550   46.0620 C   0  0  0  0  0  0  0  0  0  0  0  0
   58.3630   28.4910   45.3820 C   0  0  0  0  0  0  0  0  0  0  0  0
   59.0146   28.3874   44.5019 H   0  0  0  0  0  0  0  0  0  0  0  0
   57.5040   27.3450   45.7570 C   0  0  0  0  0  0  0  0  0  0  0  0
   56.1110   27.4430   45.6390 C   0  0  0  0  0  0  0  0  0  0  0  0
   55.5190   28.6240   45.2020 O   0  0  0  0  0  0  0  0  0  0  0  0
   55.3240   26.3840   45.9600 N   0  0  0  0  0  0  0  0  0  0  0  0
   55.8660   25.2130   46.3850 C   0  0  0  0  0  0  0  0  0  0  0  0
   55.1180   24.2460   46.6830 O   0  0  0  0  0  0  0  0  0  0  0  0
   57.2130   25.0830   46.4840 N   0  0  0  0  0  0  0  0  0  0  0  0
   58.0420   26.1130   46.1730 C   0  0  0  0  0  0  0  0  0  0  0  0
   59.2890   25.9420   46.2420 O   0  0  0  0  0  0  0  0  0  0  0  0
   58.0480   30.9050   45.5610 C   0  0  0  0  0  0  0  0  0  0  0  0
   57.6869   31.1309   44.5468 H   0  0  0  0  0  0  0  0  0  0  0  0
   58.2510   31.8080   46.5850 C   0  0  0  0  0  0  0  0  0  0  0  0
   58.0400   33.2870   46.4760 C   0  0  0  0  0  0  0  0  0  0  0  0
   57.9777   33.7237   47.4837 H   0  0  0  0  0  0  0  0  0  0  0  0
   58.8828   33.7385   45.9322 H   0  0  0  0  0  0  0  0  0  0  0  0
   57.1045   33.4848   45.9322 H   0  0  0  0  0  0  0  0  0  0  0  0
   58.7100   31.1760   47.6870 N   0  0  0  0  0  0  0  0  0  0  0  0
   59.0570   31.8080   48.9330 C   0  0  0  0  0  0  0  0  0  0  0  0
   58.1380   31.7710   49.9900 C   0  0  0  0  0  0  0  0  0  0  0  0
   57.1854   31.2349   49.8666 H   0  0  0  0  0  0  0  0  0  0  0  0
   58.4220   32.4090   51.1980 C   0  0  0  0  0  0  0  0  0  0  0  0
   57.6935   32.3756   52.0215 H   0  0  0  0  0  0  0  0  0  0  0  0
   59.6320   33.0910   51.3630 C   0  0  0  0  0  0  0  0  0  0  0  0
   59.9250   33.7440   52.6120 C   0  0  0  0  0  0  0  0  0  0  0  0
   60.1600   34.2690   53.6150 N   0  0  0  0  0  0  0  0  0  0  0  0
   60.5590   33.1290   50.3170 C   0  0  0  0  0  0  0  0  0  0  0  0
   61.5104   33.6642   50.4524 H   0  0  0  0  0  0  0  0  0  0  0  0
   60.2880   32.4900   49.0930 C   0  0  0  0  0  0  0  0  0  0  0  0
   61.3040   32.5150   48.0140 C   0  0  0  0  0  0  0  0  0  0  0  0
   61.6560   31.4360   47.4630 O   0  0  0  0  0  0  0  0  0  0  0  0
   61.8920   33.7530   47.5920 N   0  0  0  0  0  0  0  0  0  0  0  0
   61.5380   34.6560   47.9790 H   0  0  0  0  0  0  0  0  0  0  0  0
   62.9430   33.7960   46.5830 C   0  0  0  0  0  0  0  0  0  0  0  0
   63.9247   33.8362   47.0776 H   0  0  0  0  0  0  0  0  0  0  0  0
   62.8854   32.8948   45.9550 H   0  0  0  0  0  0  0  0  0  0  0  0
   62.8120   34.6895   45.9550 H   0  0  0  0  0  0  0  0  0  0  0  0
  1  2  1  0
  2  3  1  0
  2  4  2  0
  4  5  1  0
  5  6  2  0
  6  7  1  0
  6  8  1  0
  8  9  2  0
  9 10  1  0
  9 11  1  0
 11 12  1  0
 12 13  2  0
 12 14  1  0
 14 15  1  0
 15 16  2  0
  5 17  1  0
 17 18  1  0
 17 19  2  0
 19 20  1  0
 20 21  1  0
 20 22  1  0
 20 23  1  0
 19 24  1  0
 24 25  1  0
 25 26  2  0
 26 27  1  0
 26 28  1  0
 28 29  1  0
 28 30  2  0
 30 31  1  0
 31 32  3  0
 30 33  1  0
 33 34  1  0
 33 35  2  0
 35 36  1  0
 36 37  2  0
 36 38  1  0
 38 39  1  0
 38 40  1  0
 40 41  1  0
 40 42  1  0
 40 43  1  0
 24  4  1  0
 35 25  1  0
 15  8  1  0
M  CHG  3  10  -1  11  -1  14  -1
M  END
>  <UniqueID>  (29) 
27

>  <SMILES>  (29) 
C=c1/c(=C/c2c([O-])[n-]c(=O)[n-]c2=O)cc(C)n1-c1ccc(C#N)cc1C(=O)NC

>  <Energy>  (29) 
90.29989445369672

>  <Genealogy>  (29) 
C=c1c(=Cc2c([O-])[n-]c(=O)[n-]c2=O)cc(C)n1-c1ccc(C#N)cc1C(=O)NC (protonated)
C=c1/c(=C/c2c([O-])[n-]c(=O)[n-]c2=O)cc(C)n1-c1ccc(C#N)cc1C(=O)NC (cis-trans isomerization)
C=c1/c(=C/c2c([O-])[n-]c(=O)[n-]c2=O)cc(C)n1-c1ccc(C#N)cc1C(=O)NC (3D coordinates assigned)
C=c1/c(=C/c2c([O-])[n-]c(=O)[n-]c2=O)cc(C)n1-c1ccc(C#N)cc1C(=O)NC (optimized conformer: 90.29989445369672 kcal/mol)

>  <smiles>  (29) 
C=c1c(=Cc2c(O)[nH]c(=O)[nH]c2=O)cc(C)n1-c1ccc(C#N)cc1C(=O)NC

>  <score_type>  (29) 
oracle

>  <origin>  (29) 
adg

>  <m_score__min__energy>  (29) 
-15.279999999999999

>  <m_primary>  (29) 
energy

$$$$
29:0
     RDKit          3D

 68 71  0  0  0  0  0  0  0  0999 V2000
   58.1570   27.0610   43.2270 C   0  0  0  0  0  0  0  0  0  0  0  0
   57.9590   28.3530   44.0200 C   0  0  0  0  0  0  0  0  0  0  0  0
   56.9860   29.3200   43.3320 C   0  0  0  0  0  0  0  0  0  0  0  0
   56.0870   29.9940   44.3210 C   0  0  0  0  0  0  0  0  0  0  0  0
   55.1820   29.3340   44.8970 O   0  0  0  0  0  0  0  0  0  0  0  0
   56.2820   31.3770   44.6270 N   0  0  0  0  0  0  0  0  0  0  0  0
   57.7490   32.2090   44.2400 S   0  0  0  0  0  0  0  0  0  0  0  0
   58.4660   31.4710   43.1440 O   0  0  0  0  0  0  0  0  0  0  0  0
   57.4320   33.5970   43.7570 O   0  0  0  0  0  0  0  0  0  0  0  0
   58.7730   32.2610   45.6700 C   0  0  0  0  0  0  0  0  0  0  0  0
   59.3790   31.0960   46.1590 C   0  0  0  0  0  0  0  0  0  0  0  0
   60.2120   31.1550   47.2800 C   0  0  0  0  0  0  0  0  0  0  0  0
   60.4450   32.3800   47.9290 C   0  0  0  0  0  0  0  0  0  0  0  0
   61.3030   32.4570   49.0790 N   0  0  0  0  0  0  0  0  0  0  0  0
   62.5260   32.9620   49.0240 N   0  0  0  0  0  0  0  0  0  0  0  0
   63.0800   32.8570   50.2470 C   0  0  0  0  0  0  0  0  0  0  0  0
   64.4370   33.3430   50.5500 C   0  0  0  0  0  0  0  0  0  0  0  0
   64.6090   34.0890   51.5510 O   0  0  0  0  0  0  0  0  0  0  0  0
   65.5480   33.0120   49.7050 N   0  0  0  0  0  0  0  0  0  0  0  0
   66.9340   33.1820   50.1360 C   0  0  0  0  0  0  0  0  0  0  0  0
   67.3340   32.0470   51.0380 C   0  0  0  0  0  0  0  0  0  0  0  0
   66.7320   30.7870   50.8910 C   0  0  0  0  0  0  0  0  0  0  0  0
   67.0780   29.7370   51.7460 C   0  0  0  0  0  0  0  0  0  0  0  0
   68.0210   29.9390   52.7570 C   0  0  0  0  0  0  0  0  0  0  0  0
   68.3550   28.9200   53.5880 F   0  0  0  0  0  0  0  0  0  0  0  0
   68.6210   31.1920   52.9150 C   0  0  0  0  0  0  0  0  0  0  0  0
   68.2770   32.2450   52.0610 C   0  0  0  0  0  0  0  0  0  0  0  0
   62.1640   32.2860   51.1220 C   0  0  0  0  0  0  0  0  0  0  0  0
   62.2940   32.1040   52.6050 C   0  0  0  0  0  0  0  0  0  0  0  0
   61.0460   32.0320   50.3410 C   0  0  0  0  0  0  0  0  0  0  0  0
   59.7480   31.5140   50.8270 C   0  0  0  0  0  0  0  0  0  0  0  0
   58.6630   32.3820   51.0230 C   0  0  0  0  0  0  0  0  0  0  0  0
   57.4370   31.8880   51.4750 C   0  0  0  0  0  0  0  0  0  0  0  0
   57.2750   30.5250   51.7450 C   0  0  0  0  0  0  0  0  0  0  0  0
   56.0250   30.0770   52.1990 O   0  0  0  0  0  0  0  0  0  0  0  0
   54.8000   30.7760   52.0040 C   0  0  0  0  0  0  0  0  0  0  0  0
   58.3640   29.6520   51.5540 C   0  0  0  0  0  0  0  0  0  0  0  0
   59.5900   30.1460   51.0980 C   0  0  0  0  0  0  0  0  0  0  0  0
   59.8590   33.5480   47.4160 C   0  0  0  0  0  0  0  0  0  0  0  0
   59.0270   33.4880   46.2950 C   0  0  0  0  0  0  0  0  0  0  0  0
   58.2860   26.2194   43.9235 H   0  0  0  0  0  0  0  0  0  0  0  0
   57.2760   26.8809   42.5935 H   0  0  0  0  0  0  0  0  0  0  0  0
   59.0515   27.1531   42.5935 H   0  0  0  0  0  0  0  0  0  0  0  0
   57.5614   28.0998   45.0139 H   0  0  0  0  0  0  0  0  0  0  0  0
   58.9352   28.8549   44.0916 H   0  0  0  0  0  0  0  0  0  0  0  0
   57.5643   30.0864   42.7952 H   0  0  0  0  0  0  0  0  0  0  0  0
   56.3600   28.7413   42.6368 H   0  0  0  0  0  0  0  0  0  0  0  0
   59.1988   30.1327   45.6595 H   0  0  0  0  0  0  0  0  0  0  0  0
   60.6879   30.2375   47.6565 H   0  0  0  0  0  0  0  0  0  0  0  0
   65.3710   32.6620   48.7380 H   0  0  0  0  0  0  0  0  0  0  0  0
   67.5910   33.1954   49.2538 H   0  0  0  0  0  0  0  0  0  0  0  0
   67.0281   34.1305   50.6850 H   0  0  0  0  0  0  0  0  0  0  0  0
   65.9851   30.6257   50.0997 H   0  0  0  0  0  0  0  0  0  0  0  0
   66.6074   28.7504   51.6229 H   0  0  0  0  0  0  0  0  0  0  0  0
   69.3636   31.3497   53.7110 H   0  0  0  0  0  0  0  0  0  0  0  0
   68.7462   33.2314   52.1906 H   0  0  0  0  0  0  0  0  0  0  0  0
   61.7297   32.8940   53.1222 H   0  0  0  0  0  0  0  0  0  0  0  0
   61.8930   31.1202   52.8902 H   0  0  0  0  0  0  0  0  0  0  0  0
   63.3547   32.1643   52.8902 H   0  0  0  0  0  0  0  0  0  0  0  0
   58.7784   33.4569   50.8197 H   0  0  0  0  0  0  0  0  0  0  0  0
   56.5916   32.5768   51.6199 H   0  0  0  0  0  0  0  0  0  0  0  0
   54.3612   31.0264   52.9811 H   0  0  0  0  0  0  0  0  0  0  0  0
   54.9913   31.7009   51.4401 H   0  0  0  0  0  0  0  0  0  0  0  0
   54.1011   30.1407   51.4401 H   0  0  0  0  0  0  0  0  0  0  0  0
   58.2495   28.5784   51.7643 H   0  0  0  0  0  0  0  0  0  0  0  0
   60.4358   29.4583   50.9508 H   0  0  0  0  0  0  0  0  0  0  0  0
   60.0560   34.5162   47.8994 H   0  0  0  0  0  0  0  0  0  0  0  0
   58.5699   34.4081   45.9020 H   0  0  0  0  0  0  0  0  0  0  0  0
  1  2  1  0
  2  3  1  0
  3  4  1  0
  4  5  2  0
  4  6  1  0
  6  7  1  0
  7  8  2  0
  7  9  2  0
  7 10  1  0
 10 11  2  0
 11 12  1  0
 12 13  2  0
 13 14  1  0
 14 15  1  0
 15 16  2  0
 16 17  1  0
 17 18  2  0
 17 19  1  0
 19 20  1  0
 20 21  1  0
 21 22  2  0
 22 23  1  0
 23 24  2  0
 24 25  1  0
 24 26  1  0
 26 27  2  0
 16 28  1  0
 28 29  1  0
 28 30  2  0
 30 31  1  0
 31 32  2  0
 32 33  1  0
 33 34  2  0
 34 35  1  0
 35 36  1  0
 34 37  1  0
 37 38  2  0
 13 39  1  0
 39 40  2  0
 40 10  1  0
 30 14  1  0
 38 31  1  0
 27 21  1  0
  1 41  1  0
  1 42  1  0
  1 43  1  0
  2 44  1  0
  2 45  1  0
  3 46  1  0
  3 47  1  0
 11 48  1  0
 12 49  1  0
 19 50  1  0
 20 51  1  0
 20 52  1  0
 22 53  1  0
 23 54  1  0
 26 55  1  0
 27 56  1  0
 29 57  1  0
 29 58  1  0
 29 59  1  0
 32 60  1  0
 33 61  1  0
 36 62  1  0
 36 63  1  0
 36 64  1  0
 37 65  1  0
 38 66  1  0
 39 67  1  0
 40 68  1  0
M  CHG  1   6  -1
M  END
>  <UniqueID>  (30) 
28

>  <SMILES>  (30) 
CCCC(=O)[N-]S(=O)(=O)c1ccc(-n2nc(C(=O)NCc3ccc(F)cc3)c(C)c2-c2ccc(OC)cc2)cc1

>  <Energy>  (30) 
105.14265655857524

>  <Genealogy>  (30) 
CCCC(=O)[N-]S(=O)(=O)c1ccc(-n2nc(C(=O)NCc3ccc(F)cc3)c(C)c2-c2ccc(OC)cc2)cc1 (protonated)
CCCC(=O)[N-]S(=O)(=O)c1ccc(-n2nc(C(=O)NCc3ccc(F)cc3)c(C)c2-c2ccc(OC)cc2)cc1 (3D coordinates assigned)
CCCC(=O)[N-]S(=O)(=O)c1ccc(-n2nc(C(=O)NCc3ccc(F)cc3)c(C)c2-c2ccc(OC)cc2)cc1 (optimized conformer: 105.14265655857524 kcal/mol)

>  <smiles>  (30) 
CCCC(=O)NS(=O)(=O)c1ccc(-n2nc(C(=O)NCc3ccc(F)cc3)c(C)c2-c2ccc(OC)cc2)cc1

>  <score_type>  (30) 
oracle

>  <origin>  (30) 
adg

>  <m_score__min__energy>  (30) 
-11.44

>  <m_primary>  (30) 
energy

$$$$
30:0
     RDKit          3D

 44 47  0  0  0  0  0  0  0  0999 V2000
   63.3890   31.9720   47.1540 N   0  0  0  0  0  0  0  0  0  0  0  0
   62.6700   33.5380   47.0150 S   0  0  0  0  0  0  0  0  0  0  0  0
   62.6250   34.1960   48.3660 O   0  0  0  0  0  0  0  0  0  0  0  0
   63.4990   34.3870   46.0920 O   0  0  0  0  0  0  0  0  0  0  0  0
   61.0360   33.3780   46.3790 C   0  0  0  0  0  0  0  0  0  0  0  0
   60.3900   34.4810   45.8070 C   0  0  0  0  0  0  0  0  0  0  0  0
   59.0990   34.3460   45.2930 C   0  0  0  0  0  0  0  0  0  0  0  0
   58.4470   33.1120   45.3420 C   0  0  0  0  0  0  0  0  0  0  0  0
   59.0830   31.9910   45.9070 C   0  0  0  0  0  0  0  0  0  0  0  0
   58.3940   30.6790   45.9590 C   0  0  0  0  0  0  0  0  0  0  0  0
   59.0070   29.6050   46.5210 N   0  0  0  0  0  0  0  0  0  0  0  0
   58.4070   28.3870   46.5850 C   0  0  0  0  0  0  0  0  0  0  0  0
   59.0790   27.2940   47.1750 C   0  0  0  0  0  0  0  0  0  0  0  0
   60.4900   27.4270   47.6980 C   0  0  0  0  0  0  0  0  0  0  0  0
   60.5630   28.5090   48.7400 C   0  0  0  0  0  0  0  0  0  0  0  0
   60.0180   28.3060   50.0200 C   0  0  0  0  0  0  0  0  0  0  0  0
   60.0580   29.3280   50.9740 C   0  0  0  0  0  0  0  0  0  0  0  0
   60.6350   30.5610   50.6560 C   0  0  0  0  0  0  0  0  0  0  0  0
   61.1730   30.7740   49.3840 C   0  0  0  0  0  0  0  0  0  0  0  0
   61.1350   29.7540   48.4270 C   0  0  0  0  0  0  0  0  0  0  0  0
   58.4450   26.0430   47.2210 C   0  0  0  0  0  0  0  0  0  0  0  0
   57.1600   25.8780   46.7070 C   0  0  0  0  0  0  0  0  0  0  0  0
   56.4840   26.9530   46.1270 C   0  0  0  0  0  0  0  0  0  0  0  0
   55.2030   26.7430   45.6230 O   0  0  0  0  0  0  0  0  0  0  0  0
   57.1030   28.2220   46.0570 C   0  0  0  0  0  0  0  0  0  0  0  0
   56.4860   29.3490   45.4780 C   0  0  0  0  0  0  0  0  0  0  0  0
   55.3280   29.2820   44.9850 O   0  0  0  0  0  0  0  0  0  0  0  0
   57.1440   30.5370   45.4440 N   0  0  0  0  0  0  0  0  0  0  0  0
   60.3860   32.1370   46.4210 C   0  0  0  0  0  0  0  0  0  0  0  0
   62.9330   31.3610   46.4400 H   0  0  0  0  0  0  0  0  0  0  0  0
   64.3900   32.0690   46.8720 H   0  0  0  0  0  0  0  0  0  0  0  0
   60.9002   35.4545   45.7626 H   0  0  0  0  0  0  0  0  0  0  0  0
   58.5932   35.2153   44.8475 H   0  0  0  0  0  0  0  0  0  0  0  0
   57.4292   33.0156   44.9361 H   0  0  0  0  0  0  0  0  0  0  0  0
   60.8024   26.4717   48.1449 H   0  0  0  0  0  0  0  0  0  0  0  0
   61.1566   27.6898   46.8634 H   0  0  0  0  0  0  0  0  0  0  0  0
   59.5581   27.3391   50.2723 H   0  0  0  0  0  0  0  0  0  0  0  0
   59.6350   29.1614   51.9756 H   0  0  0  0  0  0  0  0  0  0  0  0
   60.6655   31.3638   51.4073 H   0  0  0  0  0  0  0  0  0  0  0  0
   61.6268   31.7445   49.1348 H   0  0  0  0  0  0  0  0  0  0  0  0
   61.5547   29.9273   47.4251 H   0  0  0  0  0  0  0  0  0  0  0  0
   58.9674   25.1839   47.6672 H   0  0  0  0  0  0  0  0  0  0  0  0
   56.6744   24.8924   46.7588 H   0  0  0  0  0  0  0  0  0  0  0  0
   60.8987   31.2684   46.8598 H   0  0  0  0  0  0  0  0  0  0  0  0
  1  2  1  0
  2  3  2  0
  2  4  2  0
  2  5  1  0
  5  6  2  0
  6  7  1  0
  7  8  2  0
  8  9  1  0
  9 10  1  0
 10 11  2  0
 11 12  1  0
 12 13  2  0
 13 14  1  0
 14 15  1  0
 15 16  2  0
 16 17  1  0
 17 18  2  0
 18 19  1  0
 19 20  2  0
 13 21  1  0
 21 22  2  0
 22 23  1  0
 23 24  1  0
 23 25  2  0
 25 26  1  0
 26 27  2  0
 26 28  1  0
  9 29  2  0
 29  5  1  0
 28 10  1  0
 25 12  1  0
 20 15  1  0
  1 30  1  0
  1 31  1  0
  6 32  1  0
  7 33  1  0
  8 34  1  0
 14 35  1  0
 14 36  1  0
 16 37  1  0
 17 38  1  0
 18 39  1  0
 19 40  1  0
 20 41  1  0
 21 42  1  0
 22 43  1  0
 29 44  1  0
M  CHG  2  24  -1  28  -1
M  END
>  <UniqueID>  (31) 
29

>  <SMILES>  (31) 
NS(=O)(=O)c1cccc(-c2nc3c(Cc4ccccc4)ccc([O-])c3c(=O)[n-]2)c1

>  <Energy>  (31) 
53.92899106084919

>  <Genealogy>  (31) 
NS(=O)(=O)c1cccc(-c2nc3c(Cc4ccccc4)ccc([O-])c3c(=O)[n-]2)c1 (protonated)
NS(=O)(=O)c1cccc(-c2nc3c(Cc4ccccc4)ccc([O-])c3c(=O)[n-]2)c1 (3D coordinates assigned)
NS(=O)(=O)c1cccc(-c2nc3c(Cc4ccccc4)ccc([O-])c3c(=O)[n-]2)c1 (optimized conformer: 53.92899106084919 kcal/mol)

>  <smiles>  (31) 
NS(=O)(=O)c1cccc(-c2nc3c(Cc4ccccc4)ccc(O)c3c(=O)[nH]2)c1

>  <score_type>  (31) 
oracle

>  <origin>  (31) 
adg

>  <m_score__min__energy>  (31) 
-14.039999999999999

>  <m_primary>  (31) 
energy

$$$$
31:0
     RDKit          3D

 39 41  0  0  0  0  0  0  0  0999 V2000
   56.2739   30.2857   42.7080 H   0  0  0  0  0  0  0  0  0  0  0  0
   56.5860   30.1750   43.7570 C   0  0  0  0  0  0  0  0  0  0  0  0
   56.5330   31.2300   44.5230 N   0  0  0  0  0  0  0  0  0  0  0  0
   57.6120   31.8320   45.2540 C   0  0  0  0  0  0  0  0  0  0  0  0
   57.8000   33.2250   45.2730 C   0  0  0  0  0  0  0  0  0  0  0  0
   57.0963   33.8800   44.7385 H   0  0  0  0  0  0  0  0  0  0  0  0
   58.8770   33.7810   45.9680 C   0  0  0  0  0  0  0  0  0  0  0  0
   59.0045   34.8733   45.9945 H   0  0  0  0  0  0  0  0  0  0  0  0
   59.7980   32.9550   46.6330 C   0  0  0  0  0  0  0  0  0  0  0  0
   60.9010   33.5350   47.3550 N   0  0  0  0  0  0  0  0  0  0  0  0
   60.6640   34.2230   48.6280 C   0  0  0  0  0  0  0  0  0  0  0  0
   60.4273   35.2796   48.4343 H   0  0  0  0  0  0  0  0  0  0  0  0
   59.8210   33.7457   49.1491 H   0  0  0  0  0  0  0  0  0  0  0  0
   61.9180   34.1340   49.5030 C   0  0  0  0  0  0  0  0  0  0  0  0
   61.7784   34.7580   50.3980 H   0  0  0  0  0  0  0  0  0  0  0  0
   62.0745   33.0836   49.7897 H   0  0  0  0  0  0  0  0  0  0  0  0
   63.0570   34.5860   48.7950 O   0  0  0  0  0  0  0  0  0  0  0  0
   63.3190   33.7230   47.7050 C   0  0  0  0  0  0  0  0  0  0  0  0
   64.2561   34.0312   47.2184 H   0  0  0  0  0  0  0  0  0  0  0  0
   63.4041   32.6936   48.0833 H   0  0  0  0  0  0  0  0  0  0  0  0
   62.1810   33.7770   46.6820 C   0  0  0  0  0  0  0  0  0  0  0  0
   62.1628   34.7690   46.2070 H   0  0  0  0  0  0  0  0  0  0  0  0
   62.3422   33.0042   45.9160 H   0  0  0  0  0  0  0  0  0  0  0  0
   59.6230   31.5610   46.5860 C   0  0  0  0  0  0  0  0  0  0  0  0
   60.3386   30.9028   47.1005 H   0  0  0  0  0  0  0  0  0  0  0  0
   58.5460   31.0060   45.8900 C   0  0  0  0  0  0  0  0  0  0  0  0
   58.4314   29.9131   45.8416 H   0  0  0  0  0  0  0  0  0  0  0  0
   57.0380   28.8400   44.2060 C   0  0  0  0  0  0  0  0  0  0  0  0
   56.6690   28.3850   45.4810 C   0  0  0  0  0  0  0  0  0  0  0  0
   56.0665   29.0296   46.1379 H   0  0  0  0  0  0  0  0  0  0  0  0
   57.0620   27.1180   45.9220 C   0  0  0  0  0  0  0  0  0  0  0  0
   56.7818   26.7752   46.9290 H   0  0  0  0  0  0  0  0  0  0  0  0
   57.8120   26.2850   45.0830 C   0  0  0  0  0  0  0  0  0  0  0  0
   58.2180   24.9800   45.5360 C   0  0  0  0  0  0  0  0  0  0  0  0
   58.5440   23.9310   45.8990 N   0  0  0  0  0  0  0  0  0  0  0  0
   58.1580   26.7200   43.7970 C   0  0  0  0  0  0  0  0  0  0  0  0
   58.7401   26.0641   43.1330 H   0  0  0  0  0  0  0  0  0  0  0  0
   57.7640   27.9870   43.3570 C   0  0  0  0  0  0  0  0  0  0  0  0
   58.0236   28.3182   42.3407 H   0  0  0  0  0  0  0  0  0  0  0  0
  1  2  1  0
  2  3  2  0
  3  4  1  0
  4  5  2  0
  5  6  1  0
  5  7  1  0
  7  8  1  0
  7  9  2  0
  9 10  1  0
 10 11  1  0
 11 12  1  0
 11 13  1  0
 11 14  1  0
 14 15  1  0
 14 16  1  0
 14 17  1  0
 17 18  1  0
 18 19  1  0
 18 20  1  0
 18 21  1  0
 21 22  1  0
 21 23  1  0
  9 24  1  0
 24 25  1  0
 24 26  2  0
 26 27  1  0
  2 28  1  0
 28 29  2  0
 29 30  1  0
 29 31  1  0
 31 32  1  0
 31 33  2  0
 33 34  1  0
 34 35  3  0
 33 36  1  0
 36 37  1  0
 36 38  2  0
 38 39  1  0
 26  4  1  0
 38 28  1  0
 21 10  1  0
M  END
>  <UniqueID>  (32) 
30

>  <SMILES>  (32) 
N#Cc1ccc(/C=N\c2ccc(N3CCOCC3)cc2)cc1

>  <Energy>  (32) 
56.11745768462658

>  <Genealogy>  (32) 
N#Cc1ccc(/C=N\c2ccc(N3CCOCC3)cc2)cc1 (cis-trans isomerization)
N#Cc1ccc(/C=N\c2ccc(N3CCOCC3)cc2)cc1 (3D coordinates assigned)
N#Cc1ccc(/C=N\c2ccc(N3CCOCC3)cc2)cc1 (nonaromatic ring conformer: 56.11745768462658 kcal/mol)

>  <smiles>  (32) 
N#Cc1ccc(C=Nc2ccc(N3CCOCC3)cc2)cc1

>  <score_type>  (32) 
oracle

>  <origin>  (32) 
adg

>  <m_score__min__energy>  (32) 
-6.9800000000000004

>  <m_primary>  (32) 
energy

$$$$
32:0
     RDKit          3D

 36 38  0  0  0  0  0  0  0  0999 V2000
   57.9510   29.7210   51.8510 O   0  0  0  0  0  0  0  0  0  0  0  0
   57.4940   30.7660   51.3140 C   0  0  0  0  0  0  0  0  0  0  0  0
   58.4370   31.7140   50.6350 C   0  0  0  0  0  0  0  0  0  0  0  0
   58.1180   31.8100   49.2130 N   0  0  0  0  0  0  0  0  0  0  0  0
   58.8410   31.0720   48.2150 C   0  0  0  0  0  0  0  0  0  0  0  0
   59.8380   30.3770   48.5510 O   0  0  0  0  0  0  0  0  0  0  0  0
   58.4410   31.1090   46.7940 C   0  0  0  0  0  0  0  0  0  0  0  0
   58.7390   32.1240   45.8810 C   0  0  0  0  0  0  0  0  0  0  0  0
   58.1530   31.7230   44.7000 C   0  0  0  0  0  0  0  0  0  0  0  0
   58.1190   32.3390   43.4520 C   0  0  0  0  0  0  0  0  0  0  0  0
   57.4300   31.6840   42.4130 C   0  0  0  0  0  0  0  0  0  0  0  0
   57.3550   32.4120   40.8200 Cl  0  0  0  0  0  0  0  0  0  0  0  0
   56.7970   30.4410   42.6500 C   0  0  0  0  0  0  0  0  0  0  0  0
   56.8490   29.8460   43.9240 C   0  0  0  0  0  0  0  0  0  0  0  0
   57.5400   30.5200   44.9300 C   0  0  0  0  0  0  0  0  0  0  0  0
   57.7070   30.1330   46.2040 N   0  0  0  0  0  0  0  0  0  0  0  0
   56.0860   31.0510   51.3330 N   0  0  0  0  0  0  0  0  0  0  0  0
   55.1010   30.1910   51.9300 C   0  0  0  0  0  0  0  0  0  0  0  0
   55.4470   29.1210   52.5010 O   0  0  0  0  0  0  0  0  0  0  0  0
   53.6730   30.5500   51.8790 C   0  0  0  0  0  0  0  0  0  0  0  0
   52.6260   29.7160   52.2350 C   0  0  0  0  0  0  0  0  0  0  0  0
   51.4720   30.4390   52.0370 C   0  0  0  0  0  0  0  0  0  0  0  0
   51.8800   31.6690   51.5710 C   0  0  0  0  0  0  0  0  0  0  0  0
   51.0250   32.7120   51.2420 O   0  0  0  0  0  0  0  0  0  0  0  0
   53.2190   31.7530   51.4690 N   0  0  0  0  0  0  0  0  0  0  0  0
   58.3466   32.7088   51.0957 H   0  0  0  0  0  0  0  0  0  0  0  0
   59.4653   31.3401   50.7479 H   0  0  0  0  0  0  0  0  0  0  0  0
   57.3480   32.4560   48.9310 H   0  0  0  0  0  0  0  0  0  0  0  0
   59.3155   33.0426   46.0649 H   0  0  0  0  0  0  0  0  0  0  0  0
   58.6145   33.3064   43.2829 H   0  0  0  0  0  0  0  0  0  0  0  0
   56.2607   29.9364   41.8328 H   0  0  0  0  0  0  0  0  0  0  0  0
   56.3602   28.8802   44.1199 H   0  0  0  0  0  0  0  0  0  0  0  0
   57.3430   29.2600   46.6470 H   0  0  0  0  0  0  0  0  0  0  0  0
   55.7660   31.9340   50.8760 H   0  0  0  0  0  0  0  0  0  0  0  0
   52.7018   28.6820   52.6026 H   0  0  0  0  0  0  0  0  0  0  0  0
   50.4392   30.1043   52.2140 H   0  0  0  0  0  0  0  0  0  0  0  0
  1  2  2  0
  2  3  1  0
  3  4  1  0
  4  5  1  0
  5  6  2  0
  5  7  1  0
  7  8  2  0
  8  9  1  0
  9 10  2  0
 10 11  1  0
 11 12  1  0
 11 13  2  0
 13 14  1  0
 14 15  2  0
 15 16  1  0
  2 17  1  0
 17 18  1  0
 18 19  2  0
 18 20  1  0
 20 21  2  0
 21 22  1  0
 22 23  2  0
 23 24  1  0
 23 25  1  0
 16  7  1  0
 25 20  1  0
 15  9  1  0
  3 26  1  0
  3 27  1  0
  4 28  1  0
  8 29  1  0
 10 30  1  0
 13 31  1  0
 14 32  1  0
 16 33  1  0
 17 34  1  0
 21 35  1  0
 22 36  1  0
M  CHG  2  24  -1  25  -1
M  END
>  <UniqueID>  (33) 
31

>  <SMILES>  (33) 
O=C(CNC(=O)c1cc2cc(Cl)ccc2[nH]1)NC(=O)c1ccc([O-])[n-]1

>  <Energy>  (33) 
91.92591296311905

>  <Genealogy>  (33) 
O=C(CNC(=O)c1cc2cc(Cl)ccc2[nH]1)NC(=O)c1ccc([O-])[n-]1 (protonated)
O=C(CNC(=O)c1cc2cc(Cl)ccc2[nH]1)NC(=O)c1ccc([O-])[n-]1 (3D coordinates assigned)
O=C(CNC(=O)c1cc2cc(Cl)ccc2[nH]1)NC(=O)c1ccc([O-])[n-]1 (optimized conformer: 91.92591296311905 kcal/mol)

>  <smiles>  (33) 
O=C(CNC(=O)c1cc2cc(Cl)ccc2[nH]1)NC(=O)c1ccc(O)[nH]1

>  <score_type>  (33) 
oracle

>  <origin>  (33) 
adg

>  <m_score__min__energy>  (33) 
-14.07

>  <m_primary>  (33) 
energy

$$$$
33:0
     RDKit          3D

 58 61  0  0  0  0  0  0  0  0999 V2000
   57.0650   34.1860   45.1420 C   0  0  0  0  0  0  0  0  0  0  0  0
   57.8030   33.6880   46.3130 N   0  0  0  0  0  0  0  0  0  0  0  0
   58.3370   32.3290   46.0500 C   0  0  0  0  0  0  0  0  0  0  0  0
   59.5200   32.0110   46.9710 C   0  0  0  0  0  0  0  0  0  0  0  0
   60.6470   32.9370   46.7180 N   0  0  0  0  0  0  0  0  0  0  0  0
   61.6790   32.9240   47.7820 C   0  0  0  0  0  0  0  0  0  0  0  0
   61.1140   32.7720   49.1810 C   0  0  0  0  0  0  0  0  0  0  0  0
   60.4270   33.8340   49.7940 C   0  0  0  0  0  0  0  0  0  0  0  0
   59.8490   33.6680   51.0550 C   0  0  0  0  0  0  0  0  0  0  0  0
   59.9610   32.4430   51.7260 C   0  0  0  0  0  0  0  0  0  0  0  0
   59.3020   32.2490   53.0320 C   0  0  0  0  0  0  0  0  0  0  0  0
   60.0050   32.5930   54.1990 C   0  0  0  0  0  0  0  0  0  0  0  0
   59.4080   32.4560   55.4530 C   0  0  0  0  0  0  0  0  0  0  0  0
   58.1030   31.9780   55.5550 C   0  0  0  0  0  0  0  0  0  0  0  0
   57.3950   31.6210   54.4060 C   0  0  0  0  0  0  0  0  0  0  0  0
   57.9860   31.7370   53.1360 C   0  0  0  0  0  0  0  0  0  0  0  0
   57.0760   31.1990   51.7120 S   0  0  0  0  0  0  0  0  0  0  0  0
   57.3620   29.7510   51.4150 O   0  0  0  0  0  0  0  0  0  0  0  0
   57.4660   32.0360   50.5240 O   0  0  0  0  0  0  0  0  0  0  0  0
   55.3750   31.3800   51.9840 N   0  0  0  0  0  0  0  0  0  0  0  0
   54.4440   30.3230   51.7400 C   0  0  0  0  0  0  0  0  0  0  0  0
   54.5860   29.2030   52.3010 O   0  0  0  0  0  0  0  0  0  0  0  0
   53.2550   30.5770   50.8740 C   0  0  0  0  0  0  0  0  0  0  0  0
   52.2650   31.4150   51.6190 C   0  0  0  0  0  0  0  0  0  0  0  0
   52.0050   31.2880   52.9320 N   0  0  0  0  0  0  0  0  0  0  0  0
   50.9990   32.1650   53.1360 C   0  0  0  0  0  0  0  0  0  0  0  0
   50.4750   32.3430   54.2660 O   0  0  0  0  0  0  0  0  0  0  0  0
   50.5930   32.8300   52.0330 N   0  0  0  0  0  0  0  0  0  0  0  0
   51.3990   32.3370   51.0800 C   0  0  0  0  0  0  0  0  0  0  0  0
   51.3430   32.7110   49.7420 O   0  0  0  0  0  0  0  0  0  0  0  0
   60.7050   31.4040   51.1520 C   0  0  0  0  0  0  0  0  0  0  0  0
   61.2800   31.5690   49.8880 C   0  0  0  0  0  0  0  0  0  0  0  0
   60.2420   34.2890   46.2650 C   0  0  0  0  0  0  0  0  0  0  0  0
   58.8330   34.6620   46.7570 C   0  0  0  0  0  0  0  0  0  0  0  0
   56.1967   34.7719   45.4778 H   0  0  0  0  0  0  0  0  0  0  0  0
   57.7256   34.8237   44.5363 H   0  0  0  0  0  0  0  0  0  0  0  0
   56.7208   33.3347   44.5363 H   0  0  0  0  0  0  0  0  0  0  0  0
   57.5399   31.5907   46.2218 H   0  0  0  0  0  0  0  0  0  0  0  0
   58.6859   32.2873   45.0076 H   0  0  0  0  0  0  0  0  0  0  0  0
   59.1989   32.1115   48.0183 H   0  0  0  0  0  0  0  0  0  0  0  0
   59.8565   30.9831   46.7706 H   0  0  0  0  0  0  0  0  0  0  0  0
   62.3632   32.0841   47.5912 H   0  0  0  0  0  0  0  0  0  0  0  0
   62.1882   33.8984   47.7463 H   0  0  0  0  0  0  0  0  0  0  0  0
   60.3439   34.8018   49.2777 H   0  0  0  0  0  0  0  0  0  0  0  0
   59.3043   34.5015   51.5225 H   0  0  0  0  0  0  0  0  0  0  0  0
   61.0344   32.9734   54.1236 H   0  0  0  0  0  0  0  0  0  0  0  0
   59.9676   32.7253   56.3609 H   0  0  0  0  0  0  0  0  0  0  0  0
   57.6296   31.8817   56.5432 H   0  0  0  0  0  0  0  0  0  0  0  0
   56.3650   31.2454   54.4954 H   0  0  0  0  0  0  0  0  0  0  0  0
   53.5713   31.1062   49.9630 H   0  0  0  0  0  0  0  0  0  0  0  0
   52.7905   29.6186   50.5989 H   0  0  0  0  0  0  0  0  0  0  0  0
   51.7610   32.1300   49.0270 H   0  0  0  0  0  0  0  0  0  0  0  0
   60.8371   30.4572   51.6962 H   0  0  0  0  0  0  0  0  0  0  0  0
   61.8665   30.7512   49.4440 H   0  0  0  0  0  0  0  0  0  0  0  0
   60.9609   35.0246   46.6549 H   0  0  0  0  0  0  0  0  0  0  0  0
   60.2298   34.2900   45.1651 H   0  0  0  0  0  0  0  0  0  0  0  0
   58.8393   34.6932   47.8565 H   0  0  0  0  0  0  0  0  0  0  0  0
   58.5759   35.6417   46.3280 H   0  0  0  0  0  0  0  0  0  0  0  0
  1  2  1  0
  2  3  1  0
  3  4  1  0
  4  5  1  0
  5  6  1  0
  6  7  1  0
  7  8  2  0
  8  9  1  0
  9 10  2  0
 10 11  1  0
 11 12  2  0
 12 13  1  0
 13 14  2  0
 14 15  1  0
 15 16  2  0
 16 17  1  0
 17 18  2  0
 17 19  2  0
 17 20  1  0
 20 21  1  0
 21 22  2  0
 21 23  1  0
 23 24  1  0
 24 25  1  0
 25 26  1  0
 26 27  2  0
 26 28  1  0
 28 29  1  0
 29 30  1  0
 10 31  1  0
 31 32  2  0
  5 33  1  0
 33 34  1  0
 34  2  1  0
 32  7  1  0
 16 11  1  0
 29 24  2  0
  1 35  1  0
  1 36  1  0
  1 37  1  0
  3 38  1  0
  3 39  1  0
  4 40  1  0
  4 41  1  0
  6 42  1  0
  6 43  1  0
  8 44  1  0
  9 45  1  0
 12 46  1  0
 13 47  1  0
 14 48  1  0
 15 49  1  0
 23 50  1  0
 23 51  1  0
 30 52  1  0
 31 53  1  0
 32 54  1  0
 33 55  1  0
 33 56  1  0
 34 57  1  0
 34 58  1  0
M  CHG  3  20  -1  25  -1  28  -1
M  END
>  <UniqueID>  (34) 
32

>  <SMILES>  (34) 
CN1CCN(Cc2ccc(-c3ccccc3S(=O)(=O)[N-]C(=O)Cc3[n-]c(=O)[n-]c3O)cc2)CC1

>  <Energy>  (34) 
110.34557840058311

>  <Genealogy>  (34) 
CN1CCN(Cc2ccc(-c3ccccc3S(=O)(=O)[N-]C(=O)Cc3[n-]c(=O)[n-]c3O)cc2)CC1 (protonated)
CN1CCN(Cc2ccc(-c3ccccc3S(=O)(=O)[N-]C(=O)Cc3[n-]c(=O)[n-]c3O)cc2)CC1 (3D coordinates assigned)
CN1CCN(Cc2ccc(-c3ccccc3S(=O)(=O)[N-]C(=O)Cc3[n-]c(=O)[n-]c3O)cc2)CC1 (nonaromatic ring conformer: 110.34557840058311 kcal/mol)

>  <smiles>  (34) 
CN1CCN(Cc2ccc(-c3ccccc3S(=O)(=O)NC(=O)Cc3[nH]c(=O)[nH]c3O)cc2)CC1

>  <score_type>  (34) 
oracle

>  <origin>  (34) 
adg

>  <m_score__min__energy>  (34) 
-15.359999999999999

>  <m_primary>  (34) 
energy

$$$$
34:0
     RDKit          3D

 48 52  0  0  0  0  0  0  0  0999 V2000
   59.4650   28.0370   46.7070 C   0  0  0  0  0  0  0  0  0  0  0  0
   58.6670   28.7060   45.8580 C   0  0  0  0  0  0  0  0  0  0  0  0
   57.7760   28.1380   44.9410 C   0  0  0  0  0  0  0  0  0  0  0  0
   57.6070   26.8290   44.6700 C   0  0  0  0  0  0  0  0  0  0  0  0
   57.0940   25.8450   45.6410 C   0  0  0  0  0  0  0  0  0  0  0  0
   57.8550   24.8800   46.1850 N   0  0  0  0  0  0  0  0  0  0  0  0
   57.0200   24.2790   47.0620 C   0  0  0  0  0  0  0  0  0  0  0  0
   57.3720   23.3000   47.7700 O   0  0  0  0  0  0  0  0  0  0  0  0
   55.7840   24.8170   47.1280 N   0  0  0  0  0  0  0  0  0  0  0  0
   55.8490   25.8160   46.2320 C   0  0  0  0  0  0  0  0  0  0  0  0
   54.8090   26.7060   45.9990 O   0  0  0  0  0  0  0  0  0  0  0  0
   57.1290   29.1970   44.3210 C   0  0  0  0  0  0  0  0  0  0  0  0
   57.6420   30.3530   44.8720 C   0  0  0  0  0  0  0  0  0  0  0  0
   57.2350   31.7380   44.4680 C   0  0  0  0  0  0  0  0  0  0  0  0
   58.5710   30.0580   45.8100 N   0  0  0  0  0  0  0  0  0  0  0  0
   59.3350   31.0150   46.5650 C   0  0  0  0  0  0  0  0  0  0  0  0
   60.7230   31.0770   46.6110 C   0  0  0  0  0  0  0  0  0  0  0  0
   61.1920   32.0580   47.4910 C   0  0  0  0  0  0  0  0  0  0  0  0
   60.1730   32.7600   48.1260 C   0  0  0  0  0  0  0  0  0  0  0  0
   60.3590   33.8020   49.1820 C   0  0  0  0  0  0  0  0  0  0  0  0
   61.7770   33.8010   49.6500 C   0  0  0  0  0  0  0  0  0  0  0  0
   62.5340   34.9110   49.7420 N   0  0  0  0  0  0  0  0  0  0  0  0
   63.7010   34.4860   50.1160 O   0  0  0  0  0  0  0  0  0  0  0  0
   63.6810   33.1800   50.2420 C   0  0  0  0  0  0  0  0  0  0  0  0
   64.8480   32.3670   50.6500 C   0  0  0  0  0  0  0  0  0  0  0  0
   66.1440   32.8770   50.4620 C   0  0  0  0  0  0  0  0  0  0  0  0
   67.2630   32.1260   50.8380 C   0  0  0  0  0  0  0  0  0  0  0  0
   67.0990   30.8620   51.4040 C   0  0  0  0  0  0  0  0  0  0  0  0
   65.8160   30.3440   51.5960 C   0  0  0  0  0  0  0  0  0  0  0  0
   64.6920   31.0880   51.2230 C   0  0  0  0  0  0  0  0  0  0  0  0
   63.4610   30.5530   51.4220 F   0  0  0  0  0  0  0  0  0  0  0  0
   62.4640   32.6780   49.9480 N   0  0  0  0  0  0  0  0  0  0  0  0
   58.6860   32.1490   47.6270 S   0  0  0  0  0  0  0  0  0  0  0  0
   60.1295   28.5891   47.3879 H   0  0  0  0  0  0  0  0  0  0  0  0
   59.4538   26.9371   46.7212 H   0  0  0  0  0  0  0  0  0  0  0  0
   57.8677   26.4725   43.6626 H   0  0  0  0  0  0  0  0  0  0  0  0
   56.3564   29.1283   43.5410 H   0  0  0  0  0  0  0  0  0  0  0  0
   57.0566   32.3449   45.3679 H   0  0  0  0  0  0  0  0  0  0  0  0
   58.0366   32.1959   43.8698 H   0  0  0  0  0  0  0  0  0  0  0  0
   56.3131   31.6895   43.8698 H   0  0  0  0  0  0  0  0  0  0  0  0
   61.3818   30.4247   46.0190 H   0  0  0  0  0  0  0  0  0  0  0  0
   62.2604   32.2547   47.6636 H   0  0  0  0  0  0  0  0  0  0  0  0
   60.1122   34.7904   48.7671 H   0  0  0  0  0  0  0  0  0  0  0  0
   59.6962   33.5803   50.0315 H   0  0  0  0  0  0  0  0  0  0  0  0
   66.2796   33.8734   50.0162 H   0  0  0  0  0  0  0  0  0  0  0  0
   68.2736   32.5332   50.6870 H   0  0  0  0  0  0  0  0  0  0  0  0
   67.9799   30.2730   51.6992 H   0  0  0  0  0  0  0  0  0  0  0  0
   65.6892   29.3467   52.0425 H   0  0  0  0  0  0  0  0  0  0  0  0
  1  2  2  0
  2  3  1  0
  3  4  2  3
  4  5  1  0
  5  6  1  0
  6  7  1  0
  7  8  2  0
  7  9  1  0
  9 10  1  0
 10 11  1  0
  3 12  1  0
 12 13  2  0
 13 14  1  0
 13 15  1  0
 15 16  1  0
 16 17  2  0
 17 18  1  0
 18 19  2  0
 19 20  1  0
 20 21  1  0
 21 22  2  0
 22 23  1  0
 23 24  1  0
 24 25  1  0
 25 26  2  0
 26 27  1  0
 27 28  2  0
 28 29  1  0
 29 30  2  0
 30 31  1  0
 24 32  2  0
 19 33  1  0
 15  2  1  0
 33 16  1  0
 10  5  2  0
 32 21  1  0
 30 25  1  0
  1 34  1  0
  1 35  1  0
  4 36  1  0
 12 37  1  0
 14 38  1  0
 14 39  1  0
 14 40  1  0
 17 41  1  0
 18 42  1  0
 20 43  1  0
 20 44  1  0
 26 45  1  0
 27 46  1  0
 28 47  1  0
 29 48  1  0
M  CHG  3   6  -1   9  -1  11  -1
M  END
>  <UniqueID>  (35) 
33

>  <SMILES>  (35) 
C=c1c(=Cc2[n-]c(=O)[n-]c2[O-])cc(C)n1-c1ccc(Cc2noc(-c3ccccc3F)n2)s1

>  <Energy>  (35) 
182.9607834723537

>  <Genealogy>  (35) 
C=c1c(=Cc2[n-]c(=O)[n-]c2[O-])cc(C)n1-c1ccc(Cc2noc(-c3ccccc3F)n2)s1 (protonated)
C=c1c(=Cc2[n-]c(=O)[n-]c2[O-])cc(C)n1-c1ccc(Cc2noc(-c3ccccc3F)n2)s1 (3D coordinates assigned)
C=c1c(=Cc2[n-]c(=O)[n-]c2[O-])cc(C)n1-c1ccc(Cc2noc(-c3ccccc3F)n2)s1 (optimized conformer: 182.9607834723537 kcal/mol)

>  <smiles>  (35) 
C=c1c(=Cc2[nH]c(=O)[nH]c2O)cc(C)n1-c1ccc(Cc2noc(-c3ccccc3F)n2)s1

>  <score_type>  (35) 
oracle

>  <origin>  (35) 
adg

>  <m_score__min__energy>  (35) 
-17.98

>  <m_primary>  (35) 
energy

$$$$
35:0
     RDKit          3D

 68 71  0  0  0  0  0  0  0  0999 V2000
   58.5230   33.8710   52.3720 C   0  0  0  0  0  0  0  0  0  0  0  0
   59.7920   33.3710   51.6580 C   0  0  2  0  0  0  0  0  0  0  0  0
   59.6100   33.3850   50.1280 C   0  0  0  0  0  0  0  0  0  0  0  0
   58.5680   32.3580   49.6430 C   0  0  0  0  0  0  0  0  0  0  0  0
   58.5160   31.0780   50.4990 C   0  0  0  0  0  0  0  0  0  0  0  0
   59.8030   30.8400   51.2960 C   0  0  0  0  0  0  0  0  0  0  0  0
   60.1710   32.0150   52.1090 N   0  0  0  0  0  0  0  0  0  0  0  0
   61.1880   31.8300   53.1220 C   0  0  0  0  0  0  0  0  0  0  0  0
   61.1570   32.5330   54.1710 O   0  0  0  0  0  0  0  0  0  0  0  0
   62.2700   30.7910   52.9890 C   0  0  0  0  0  0  0  0  0  0  0  0
   63.3180   31.2470   52.1320 O   0  0  0  0  0  0  0  0  0  0  0  0
   63.1430   32.0920   51.0220 C   0  0  0  0  0  0  0  0  0  0  0  0
   63.5520   33.4400   51.0240 C   0  0  0  0  0  0  0  0  0  0  0  0
   63.3790   34.2300   49.8870 C   0  0  0  0  0  0  0  0  0  0  0  0
   62.7960   33.6910   48.7400 C   0  0  0  0  0  0  0  0  0  0  0  0
   62.3760   32.3470   48.7130 C   0  0  0  0  0  0  0  0  0  0  0  0
   61.7530   31.7930   47.4820 C   0  0  0  0  0  0  0  0  0  0  0  0
   61.6760   32.5170   46.4500 O   0  0  0  0  0  0  0  0  0  0  0  0
   61.2780   30.4340   47.4310 N   0  0  0  0  0  0  0  0  0  0  0  0
   60.3960   29.9400   46.4060 C   0  0  0  0  0  0  0  0  0  0  0  0
   60.5850   28.6460   45.8990 C   0  0  0  0  0  0  0  0  0  0  0  0
   59.7520   28.1500   44.8940 C   0  0  0  0  0  0  0  0  0  0  0  0
   58.7140   28.9390   44.3930 C   0  0  0  0  0  0  0  0  0  0  0  0
   58.4960   30.2250   44.9040 C   0  0  0  0  0  0  0  0  0  0  0  0
   57.1880   31.2260   44.2650 S   0  0  0  0  0  0  0  0  0  0  0  0
   55.8670   30.6160   44.6460 O   0  0  0  0  0  0  0  0  0  0  0  0
   57.2740   31.2560   42.7640 O   0  0  0  0  0  0  0  0  0  0  0  0
   57.2770   32.8620   44.8770 N   0  0  0  0  0  0  0  0  0  0  0  0
   57.4520   32.8530   46.3470 C   0  0  0  0  0  0  0  0  0  0  0  0
   57.9290   34.2150   46.8600 C   0  0  0  0  0  0  0  0  0  0  0  0
   59.3060   34.5780   46.2710 C   0  0  0  0  0  0  0  0  0  0  0  0
   59.5790   33.8840   44.9250 C   0  0  0  0  0  0  0  0  0  0  0  0
   58.2780   33.6700   44.1370 C   0  0  0  0  0  0  0  0  0  0  0  0
   59.3270   30.7140   45.9220 C   0  0  0  0  0  0  0  0  0  0  0  0
   62.5450   31.5600   49.8710 C   0  0  0  0  0  0  0  0  0  0  0  0
   58.6683   33.8138   53.4609 H   0  0  0  0  0  0  0  0  0  0  0  0
   58.3263   34.9139   52.0826 H   0  0  0  0  0  0  0  0  0  0  0  0
   57.6678   33.2426   52.0826 H   0  0  0  0  0  0  0  0  0  0  0  0
   60.6052   34.0625   51.9237 H   0  0  0  0  0  0  0  0  0  0  0  0
   59.2828   34.3896   49.8218 H   0  0  0  0  0  0  0  0  0  0  0  0
   60.5763   33.1163   49.6762 H   0  0  0  0  0  0  0  0  0  0  0  0
   57.5758   32.8322   49.6666 H   0  0  0  0  0  0  0  0  0  0  0  0
   58.8637   32.0544   48.6279 H   0  0  0  0  0  0  0  0  0  0  0  0
   57.6766   31.1619   51.2050 H   0  0  0  0  0  0  0  0  0  0  0  0
   58.3909   30.2273   49.8129 H   0  0  0  0  0  0  0  0  0  0  0  0
   59.6541   29.9782   51.9632 H   0  0  0  0  0  0  0  0  0  0  0  0
   60.6173   30.6513   50.5809 H   0  0  0  0  0  0  0  0  0  0  0  0
   62.6871   30.5771   53.9841 H   0  0  0  0  0  0  0  0  0  0  0  0
   61.8305   29.8828   52.5508 H   0  0  0  0  0  0  0  0  0  0  0  0
   64.0099   33.8718   51.9261 H   0  0  0  0  0  0  0  0  0  0  0  0
   63.7033   35.2811   49.8951 H   0  0  0  0  0  0  0  0  0  0  0  0
   62.6631   34.3215   47.8485 H   0  0  0  0  0  0  0  0  0  0  0  0
   61.7300   29.7300   48.0560 H   0  0  0  0  0  0  0  0  0  0  0  0
   61.3955   28.0171   46.2960 H   0  0  0  0  0  0  0  0  0  0  0  0
   59.9134   27.1371   44.4966 H   0  0  0  0  0  0  0  0  0  0  0  0
   58.0655   28.5492   43.5945 H   0  0  0  0  0  0  0  0  0  0  0  0
   56.4897   32.6089   46.8207 H   0  0  0  0  0  0  0  0  0  0  0  0
   58.2133   32.1008   46.6010 H   0  0  0  0  0  0  0  0  0  0  0  0
   57.1992   34.9846   46.5682 H   0  0  0  0  0  0  0  0  0  0  0  0
   58.0197   34.1639   47.9551 H   0  0  0  0  0  0  0  0  0  0  0  0
   59.3481   35.6668   46.1202 H   0  0  0  0  0  0  0  0  0  0  0  0
   60.0719   34.2353   46.9823 H   0  0  0  0  0  0  0  0  0  0  0  0
   60.2601   34.5102   44.3300 H   0  0  0  0  0  0  0  0  0  0  0  0
   60.0310   32.9013   45.1249 H   0  0  0  0  0  0  0  0  0  0  0  0
   57.8383   34.6531   43.9130 H   0  0  0  0  0  0  0  0  0  0  0  0
   58.5354   33.1166   43.2218 H   0  0  0  0  0  0  0  0  0  0  0  0
   59.1408   31.7120   46.3456 H   0  0  0  0  0  0  0  0  0  0  0  0
   62.2030   30.5145   49.8711 H   0  0  0  0  0  0  0  0  0  0  0  0
  1  2  1  0
  2  3  1  0
  3  4  1  0
  4  5  1  0
  5  6  1  0
  6  7  1  0
  7  8  1  0
  8  9  2  0
  8 10  1  0
 10 11  1  0
 11 12  1  0
 12 13  2  0
 13 14  1  0
 14 15  2  0
 15 16  1  0
 16 17  1  0
 17 18  2  0
 17 19  1  0
 19 20  1  0
 20 21  2  0
 21 22  1  0
 22 23  2  0
 23 24  1  0
 24 25  1  0
 25 26  2  0
 25 27  2  0
 25 28  1  0
 28 29  1  0
 29 30  1  0
 30 31  1  0
 31 32  1  0
 32 33  1  0
 24 34  2  0
 16 35  2  0
  7  2  1  0
 35 12  1  0
 34 20  1  0
 33 28  1  0
  1 36  1  0
  1 37  1  0
  1 38  1  0
  2 39  1  6
  3 40  1  0
  3 41  1  0
  4 42  1  0
  4 43  1  0
  5 44  1  0
  5 45  1  0
  6 46  1  0
  6 47  1  0
 10 48  1  0
 10 49  1  0
 13 50  1  0
 14 51  1  0
 15 52  1  0
 19 53  1  0
 21 54  1  0
 22 55  1  0
 23 56  1  0
 29 57  1  0
 29 58  1  0
 30 59  1  0
 30 60  1  0
 31 61  1  0
 31 62  1  0
 32 63  1  0
 32 64  1  0
 33 65  1  0
 33 66  1  0
 34 67  1  0
 35 68  1  0
M  END
>  <UniqueID>  (36) 
34

>  <SMILES>  (36) 
C[C@@H]1CCCCN1C(=O)COc1cccc(C(=O)Nc2cccc(S(=O)(=O)N3CCCCC3)c2)c1

>  <Energy>  (36) 
81.90124730537661

>  <Genealogy>  (36) 
C[C@@H]1CCCCN1C(=O)COc1cccc(C(=O)Nc2cccc(S(=O)(=O)N3CCCCC3)c2)c1 (chirality)
C[C@@H]1CCCCN1C(=O)COc1cccc(C(=O)Nc2cccc(S(=O)(=O)N3CCCCC3)c2)c1 (3D coordinates assigned)
C[C@@H]1CCCCN1C(=O)COc1cccc(C(=O)Nc2cccc(S(=O)(=O)N3CCCCC3)c2)c1 (nonaromatic ring conformer: 81.90124730537661 kcal/mol)

>  <smiles>  (36) 
CC1CCCCN1C(=O)COc1cccc(C(=O)Nc2cccc(S(=O)(=O)N3CCCCC3)c2)c1

>  <score_type>  (36) 
oracle

>  <origin>  (36) 
adg

>  <m_score__min__energy>  (36) 
-11.039999999999999

>  <m_primary>  (36) 
energy

$$$$
36:0
     RDKit          3D

 50 53  0  0  0  0  0  0  0  0999 V2000
   58.8230   25.9090   47.0220 O   0  0  0  0  0  0  0  0  0  0  0  0
   57.7180   26.1490   46.4680 C   0  0  0  0  0  0  0  0  0  0  0  0
   57.0570   27.3910   46.7450 N   0  0  0  0  0  0  0  0  0  0  0  0
   57.2730   28.6410   46.0150 C   0  0  0  0  0  0  0  0  0  0  0  0
   58.7160   28.7160   45.5060 C   0  0  0  0  0  0  0  0  0  0  0  0
   58.9650   30.0370   44.7510 C   0  0  0  0  0  0  0  0  0  0  0  0
   57.8100   30.4990   43.9340 N   0  0  0  0  0  0  0  0  0  0  0  0
   57.1240   31.6760   44.5120 C   0  0  0  0  0  0  0  0  0  0  0  0
   58.0530   32.4200   45.4350 C   0  0  0  0  0  0  0  0  0  0  0  0
   58.8860   33.4360   44.9410 C   0  0  0  0  0  0  0  0  0  0  0  0
   59.7350   34.1360   45.8030 C   0  0  0  0  0  0  0  0  0  0  0  0
   59.7620   33.8290   47.1710 C   0  0  0  0  0  0  0  0  0  0  0  0
   60.6100   34.5270   48.0450 C   0  0  0  0  0  0  0  0  0  0  0  0
   60.6260   34.2130   49.4070 C   0  0  0  0  0  0  0  0  0  0  0  0
   59.7990   33.2020   49.9070 C   0  0  0  0  0  0  0  0  0  0  0  0
   59.8200   32.9030   51.2290 F   0  0  0  0  0  0  0  0  0  0  0  0
   58.9490   32.5000   49.0470 C   0  0  0  0  0  0  0  0  0  0  0  0
   58.9230   32.8060   47.6760 C   0  0  0  0  0  0  0  0  0  0  0  0
   58.0740   32.1100   46.8040 C   0  0  0  0  0  0  0  0  0  0  0  0
   56.8680   29.4140   43.5940 C   0  0  0  0  0  0  0  0  0  0  0  0
   56.2710   28.7360   44.8440 C   0  0  0  0  0  0  0  0  0  0  0  0
   57.1340   25.1410   45.5630 C   0  0  0  0  0  0  0  0  0  0  0  0
   57.9810   24.2630   44.8690 C   0  0  0  0  0  0  0  0  0  0  0  0
   57.4470   23.2940   44.0170 C   0  0  0  0  0  0  0  0  0  0  0  0
   56.0640   23.2030   43.8390 C   0  0  0  0  0  0  0  0  0  0  0  0
   55.5340   22.2340   42.9940 O   0  0  0  0  0  0  0  0  0  0  0  0
   55.2130   24.0870   44.5080 C   0  0  0  0  0  0  0  0  0  0  0  0
   55.7420   25.0660   45.3620 C   0  0  0  0  0  0  0  0  0  0  0  0
   54.8920   25.9710   45.9990 O   0  0  0  0  0  0  0  0  0  0  0  0
   57.1066   29.4918   46.6921 H   0  0  0  0  0  0  0  0  0  0  0  0
   59.4036   28.6555   46.3625 H   0  0  0  0  0  0  0  0  0  0  0  0
   58.8889   27.8780   44.8147 H   0  0  0  0  0  0  0  0  0  0  0  0
   59.1995   30.8177   45.4896 H   0  0  0  0  0  0  0  0  0  0  0  0
   59.7930   29.8503   44.0513 H   0  0  0  0  0  0  0  0  0  0  0  0
   56.8059   32.3460   43.6997 H   0  0  0  0  0  0  0  0  0  0  0  0
   56.2481   31.3353   45.0836 H   0  0  0  0  0  0  0  0  0  0  0  0
   58.8706   33.6828   43.8692 H   0  0  0  0  0  0  0  0  0  0  0  0
   60.3843   34.9306   45.4068 H   0  0  0  0  0  0  0  0  0  0  0  0
   61.2632   35.3226   47.6574 H   0  0  0  0  0  0  0  0  0  0  0  0
   61.2917   34.7632   50.0883 H   0  0  0  0  0  0  0  0  0  0  0  0
   58.2993   31.7065   49.4446 H   0  0  0  0  0  0  0  0  0  0  0  0
   57.4204   31.3163   47.1949 H   0  0  0  0  0  0  0  0  0  0  0  0
   56.0469   29.8347   42.9949 H   0  0  0  0  0  0  0  0  0  0  0  0
   57.4270   28.6496   43.0343 H   0  0  0  0  0  0  0  0  0  0  0  0
   55.3985   29.3180   45.1755 H   0  0  0  0  0  0  0  0  0  0  0  0
   55.9961   27.7090   44.5618 H   0  0  0  0  0  0  0  0  0  0  0  0
   59.0709   24.3386   44.9969 H   0  0  0  0  0  0  0  0  0  0  0  0
   58.1160   22.6014   43.4852 H   0  0  0  0  0  0  0  0  0  0  0  0
   54.1248   24.0148   44.3644 H   0  0  0  0  0  0  0  0  0  0  0  0
   55.1110   26.3540   46.9110 H   0  0  0  0  0  0  0  0  0  0  0  0
  1  2  2  0
  2  3  1  0
  3  4  1  0
  4  5  1  0
  5  6  1  0
  6  7  1  0
  7  8  1  0
  8  9  1  0
  9 10  2  0
 10 11  1  0
 11 12  2  0
 12 13  1  0
 13 14  2  0
 14 15  1  0
 15 16  1  0
 15 17  2  0
 17 18  1  0
 18 19  2  0
  7 20  1  0
 20 21  1  0
  2 22  1  0
 22 23  2  0
 23 24  1  0
 24 25  2  0
 25 26  1  0
 25 27  1  0
 27 28  2  0
 28 29  1  0
 21  4  1  0
 28 22  1  0
 19  9  1  0
 18 12  1  0
  4 30  1  0
  5 31  1  0
  5 32  1  0
  6 33  1  0
  6 34  1  0
  8 35  1  0
  8 36  1  0
 10 37  1  0
 11 38  1  0
 13 39  1  0
 14 40  1  0
 17 41  1  0
 19 42  1  0
 20 43  1  0
 20 44  1  0
 21 45  1  0
 21 46  1  0
 23 47  1  0
 24 48  1  0
 27 49  1  0
 29 50  1  0
M  CHG  2   3  -1  26  -1
M  END
>  <UniqueID>  (37) 
35

>  <SMILES>  (37) 
O=C([N-]C1CCN(Cc2ccc3ccc(F)cc3c2)CC1)c1ccc([O-])cc1O

>  <Energy>  (37) 
69.57655404873226

>  <Genealogy>  (37) 
O=C([N-]C1CCN(Cc2ccc3ccc(F)cc3c2)CC1)c1ccc([O-])cc1O (protonated)
O=C([N-]C1CCN(Cc2ccc3ccc(F)cc3c2)CC1)c1ccc([O-])cc1O (3D coordinates assigned)
O=C([N-]C1CCN(Cc2ccc3ccc(F)cc3c2)CC1)c1ccc([O-])cc1O (nonaromatic ring conformer: 69.57655404873226 kcal/mol)

>  <smiles>  (37) 
O=C(NC1CCN(Cc2ccc3ccc(F)cc3c2)CC1)c1ccc(O)cc1O

>  <score_type>  (37) 
oracle

>  <origin>  (37) 
adg

>  <m_score__min__energy>  (37) 
-14.15

>  <m_primary>  (37) 
energy

$$$$
37:0
     RDKit          3D

 49 51  0  0  0  0  0  0  0  0999 V2000
   54.8340   26.3320   45.9900 N   0  0  0  0  0  0  0  0  0  0  0  0
   55.9430   25.0150   45.8390 S   0  0  0  0  0  0  0  0  0  0  0  0
   55.3430   23.9580   44.9540 O   0  0  0  0  0  0  0  0  0  0  0  0
   56.2100   24.4300   47.1970 O   0  0  0  0  0  0  0  0  0  0  0  0
   57.4720   25.5870   45.1180 C   0  0  0  0  0  0  0  0  0  0  0  0
   57.6000   27.0760   45.2720 C   0  0  0  0  0  0  0  0  0  0  0  0
   57.8400   27.6390   46.5340 C   0  0  0  0  0  0  0  0  0  0  0  0
   57.9910   29.0220   46.6740 C   0  0  0  0  0  0  0  0  0  0  0  0
   57.9030   29.8670   45.5540 C   0  0  0  0  0  0  0  0  0  0  0  0
   58.0700   31.3310   45.7180 C   0  0  0  0  0  0  0  0  0  0  0  0
   57.9180   31.8450   46.8600 O   0  0  0  0  0  0  0  0  0  0  0  0
   58.3820   32.1750   44.5970 N   0  0  0  0  0  0  0  0  0  0  0  0
   58.6230   33.6080   44.7420 C   0  0  0  0  0  0  0  0  0  0  0  0
   59.4170   33.8740   45.9820 C   0  0  0  0  0  0  0  0  0  0  0  0
   59.1000   34.7990   46.9710 C   0  0  0  0  0  0  0  0  0  0  0  0
   60.0550   34.8640   47.9910 C   0  0  0  0  0  0  0  0  0  0  0  0
   61.1140   33.9880   47.7990 C   0  0  0  0  0  0  0  0  0  0  0  0
   62.5000   33.8060   48.8620 S   0  0  0  0  0  0  0  0  0  0  0  0
   62.5810   35.0040   49.7660 O   0  0  0  0  0  0  0  0  0  0  0  0
   63.7450   33.7740   48.0210 O   0  0  0  0  0  0  0  0  0  0  0  0
   62.4230   32.3450   49.8260 N   0  0  0  0  0  0  0  0  0  0  0  0
   61.4890   32.4670   50.9610 C   0  0  0  0  0  0  0  0  0  0  0  0
   60.0120   32.2660   50.5490 C   0  0  0  0  0  0  0  0  0  0  0  0
   59.8550   31.7060   49.2580 O   0  0  0  0  0  0  0  0  0  0  0  0
   60.7440   30.6260   49.0910 C   0  0  0  0  0  0  0  0  0  0  0  0
   62.1910   31.1360   49.0070 C   0  0  0  0  0  0  0  0  0  0  0  0
   60.8860   33.1460   46.3620 S   0  0  0  0  0  0  0  0  0  0  0  0
   57.6850   29.2960   44.2870 C   0  0  0  0  0  0  0  0  0  0  0  0
   57.5360   27.9130   44.1490 C   0  0  0  0  0  0  0  0  0  0  0  0
   55.1420   27.0680   45.3170 H   0  0  0  0  0  0  0  0  0  0  0  0
   58.3168   25.0965   45.6237 H   0  0  0  0  0  0  0  0  0  0  0  0
   57.4760   25.3379   44.0466 H   0  0  0  0  0  0  0  0  0  0  0  0
   57.9098   26.9889   47.4186 H   0  0  0  0  0  0  0  0  0  0  0  0
   58.1802   29.4523   47.6685 H   0  0  0  0  0  0  0  0  0  0  0  0
   58.3750   31.7820   43.6290 H   0  0  0  0  0  0  0  0  0  0  0  0
   59.1813   33.9732   43.8674 H   0  0  0  0  0  0  0  0  0  0  0  0
   57.6572   34.1295   44.8146 H   0  0  0  0  0  0  0  0  0  0  0  0
   58.1902   35.4170   46.9529 H   0  0  0  0  0  0  0  0  0  0  0  0
   59.9749   35.5394   48.8555 H   0  0  0  0  0  0  0  0  0  0  0  0
   61.7499   31.7082   51.7134 H   0  0  0  0  0  0  0  0  0  0  0  0
   61.5847   33.4880   51.3591 H   0  0  0  0  0  0  0  0  0  0  0  0
   59.5354   31.5955   51.2793 H   0  0  0  0  0  0  0  0  0  0  0  0
   59.5446   33.2615   50.5279 H   0  0  0  0  0  0  0  0  0  0  0  0
   60.6492   29.9420   49.9472 H   0  0  0  0  0  0  0  0  0  0  0  0
   60.4954   30.0982   48.1585 H   0  0  0  0  0  0  0  0  0  0  0  0
   62.8646   30.3401   49.3573 H   0  0  0  0  0  0  0  0  0  0  0  0
   62.3860   31.4050   47.9584 H   0  0  0  0  0  0  0  0  0  0  0  0
   57.6314   29.9424   43.3986 H   0  0  0  0  0  0  0  0  0  0  0  0
   57.3674   27.4784   43.1526 H   0  0  0  0  0  0  0  0  0  0  0  0
  1  2  1  0
  2  3  2  0
  2  4  2  0
  2  5  1  0
  5  6  1  0
  6  7  2  0
  7  8  1  0
  8  9  2  0
  9 10  1  0
 10 11  2  0
 10 12  1  0
 12 13  1  0
 13 14  1  0
 14 15  2  0
 15 16  1  0
 16 17  2  0
 17 18  1  0
 18 19  2  0
 18 20  2  0
 18 21  1  0
 21 22  1  0
 22 23  1  0
 23 24  1  0
 24 25  1  0
 25 26  1  0
 17 27  1  0
  9 28  1  0
 28 29  2  0
 29  6  1  0
 27 14  1  0
 26 21  1  0
  1 30  1  0
  5 31  1  0
  5 32  1  0
  7 33  1  0
  8 34  1  0
 12 35  1  0
 13 36  1  0
 13 37  1  0
 15 38  1  0
 16 39  1  0
 22 40  1  0
 22 41  1  0
 23 42  1  0
 23 43  1  0
 25 44  1  0
 25 45  1  0
 26 46  1  0
 26 47  1  0
 28 48  1  0
 29 49  1  0
M  CHG  1   1  -1
M  END
>  <UniqueID>  (38) 
36

>  <SMILES>  (38) 
[NH-]S(=O)(=O)Cc1ccc(C(=O)NCc2ccc(S(=O)(=O)N3CCOCC3)s2)cc1

>  <Energy>  (38) 
79.9468912356367

>  <Genealogy>  (38) 
[NH-]S(=O)(=O)Cc1ccc(C(=O)NCc2ccc(S(=O)(=O)N3CCOCC3)s2)cc1 (protonated)
[NH-]S(=O)(=O)Cc1ccc(C(=O)NCc2ccc(S(=O)(=O)N3CCOCC3)s2)cc1 (3D coordinates assigned)
[NH-]S(=O)(=O)Cc1ccc(C(=O)NCc2ccc(S(=O)(=O)N3CCOCC3)s2)cc1 (nonaromatic ring conformer: 79.9468912356367 kcal/mol)

>  <smiles>  (38) 
NS(=O)(=O)Cc1ccc(C(=O)NCc2ccc(S(=O)(=O)N3CCOCC3)s2)cc1

>  <score_type>  (38) 
oracle

>  <origin>  (38) 
adg

>  <m_score__min__energy>  (38) 
-11.99

>  <m_primary>  (38) 
energy

$$$$
38:0
     RDKit          3D

 51 54  0  0  0  0  0  0  0  0999 V2000
   58.9780   26.7410   47.4430 C   0  0  0  0  0  0  0  0  0  0  0  0
   58.8270   27.4870   46.3390 C   0  0  0  0  0  0  0  0  0  0  0  0
   58.3050   27.0920   45.0970 C   0  0  0  0  0  0  0  0  0  0  0  0
   57.6230   25.9850   44.7540 C   0  0  0  0  0  0  0  0  0  0  0  0
   56.9280   25.0790   45.6840 C   0  0  0  0  0  0  0  0  0  0  0  0
   57.4840   23.9950   46.2560 N   0  0  0  0  0  0  0  0  0  0  0  0
   56.5300   23.5740   47.1150 C   0  0  0  0  0  0  0  0  0  0  0  0
   56.6730   22.5540   47.8400 O   0  0  0  0  0  0  0  0  0  0  0  0
   55.4160   24.3360   47.1430 N   0  0  0  0  0  0  0  0  0  0  0  0
   55.6910   25.2920   46.2420 C   0  0  0  0  0  0  0  0  0  0  0  0
   54.8310   26.3390   45.9390 O   0  0  0  0  0  0  0  0  0  0  0  0
   58.5770   28.0500   44.1830 N   0  0  0  0  0  0  0  0  0  0  0  0
   59.2030   29.0150   44.8820 C   0  0  0  0  0  0  0  0  0  0  0  0
   59.5940   30.0920   44.3550 O   0  0  0  0  0  0  0  0  0  0  0  0
   59.3580   28.7240   46.1900 N   0  0  0  0  0  0  0  0  0  0  0  0
   59.9880   29.5560   47.1820 C   0  0  0  0  0  0  0  0  0  0  0  0
   59.6610   29.4100   48.5370 C   0  0  0  0  0  0  0  0  0  0  0  0
   60.2600   30.2240   49.4980 C   0  0  0  0  0  0  0  0  0  0  0  0
   61.1860   31.1970   49.1160 C   0  0  0  0  0  0  0  0  0  0  0  0
   61.5220   31.3680   47.7600 C   0  0  0  0  0  0  0  0  0  0  0  0
   62.5020   32.4030   47.3540 C   0  0  0  0  0  0  0  0  0  0  0  0
   63.7030   32.0840   47.1320 O   0  0  0  0  0  0  0  0  0  0  0  0
   62.0880   33.7670   47.2010 N   0  0  0  0  0  0  0  0  0  0  0  0
   60.8400   34.2990   47.7370 C   0  0  0  0  0  0  0  0  0  0  0  0
   60.0180   34.9530   46.6250 C   0  0  0  0  0  0  0  0  0  0  0  0
   59.1190   33.9400   45.9660 C   0  0  0  0  0  0  0  0  0  0  0  0
   58.5650   32.8900   46.7160 C   0  0  0  0  0  0  0  0  0  0  0  0
   57.7560   31.9310   46.0980 C   0  0  0  0  0  0  0  0  0  0  0  0
   57.5090   31.9980   44.7200 C   0  0  0  0  0  0  0  0  0  0  0  0
   56.6140   30.9860   44.0690 C   0  0  0  0  0  0  0  0  0  0  0  0
   58.0600   33.0480   43.9690 C   0  0  0  0  0  0  0  0  0  0  0  0
   58.8690   34.0070   44.5870 C   0  0  0  0  0  0  0  0  0  0  0  0
   60.9140   30.5400   46.7990 C   0  0  0  0  0  0  0  0  0  0  0  0
   59.4052   27.1864   48.3536 H   0  0  0  0  0  0  0  0  0  0  0  0
   58.6747   25.6836   47.4380 H   0  0  0  0  0  0  0  0  0  0  0  0
   57.5805   25.7339   43.6839 H   0  0  0  0  0  0  0  0  0  0  0  0
   58.9281   28.6494   48.8441 H   0  0  0  0  0  0  0  0  0  0  0  0
   60.0023   30.0992   50.5601 H   0  0  0  0  0  0  0  0  0  0  0  0
   61.6559   31.8339   49.8799 H   0  0  0  0  0  0  0  0  0  0  0  0
   60.2584   33.4789   48.1832 H   0  0  0  0  0  0  0  0  0  0  0  0
   61.0734   35.0558   48.5004 H   0  0  0  0  0  0  0  0  0  0  0  0
   59.4027   35.7570   47.0551 H   0  0  0  0  0  0  0  0  0  0  0  0
   60.7049   35.3627   45.8698 H   0  0  0  0  0  0  0  0  0  0  0  0
   58.7683   32.8214   47.7949 H   0  0  0  0  0  0  0  0  0  0  0  0
   57.3120   31.1212   46.6956 H   0  0  0  0  0  0  0  0  0  0  0  0
   56.0969   30.4013   44.8441 H   0  0  0  0  0  0  0  0  0  0  0  0
   55.8715   31.5022   43.4427 H   0  0  0  0  0  0  0  0  0  0  0  0
   57.2171   30.3122   43.4427 H   0  0  0  0  0  0  0  0  0  0  0  0
   57.8548   33.1169   42.8905 H   0  0  0  0  0  0  0  0  0  0  0  0
   59.3113   34.8175   43.9892 H   0  0  0  0  0  0  0  0  0  0  0  0
   61.1667   30.6646   45.7357 H   0  0  0  0  0  0  0  0  0  0  0  0
  1  2  2  0
  2  3  1  0
  3  4  2  3
  4  5  1  0
  5  6  1  0
  6  7  1  0
  7  8  2  0
  7  9  1  0
  9 10  1  0
 10 11  1  0
  3 12  1  0
 12 13  1  0
 13 14  2  0
 13 15  1  0
 15 16  1  0
 16 17  2  0
 17 18  1  0
 18 19  2  0
 19 20  1  0
 20 21  1  0
 21 22  2  0
 21 23  1  0
 23 24  1  0
 24 25  1  0
 25 26  1  0
 26 27  2  0
 27 28  1  0
 28 29  2  0
 29 30  1  0
 29 31  1  0
 31 32  2  0
 20 33  2  0
 15  2  1  0
 33 16  1  0
 10  5  2  0
 32 26  1  0
  1 34  1  0
  1 35  1  0
  4 36  1  0
 17 37  1  0
 18 38  1  0
 19 39  1  0
 24 40  1  0
 24 41  1  0
 25 42  1  0
 25 43  1  0
 27 44  1  0
 28 45  1  0
 30 46  1  0
 30 47  1  0
 30 48  1  0
 31 49  1  0
 32 50  1  0
 33 51  1  0
M  CHG  5   6  -1   9  -1  11  -1  12  -1  23  -1
M  END
>  <UniqueID>  (39) 
37

>  <SMILES>  (39) 
C=c1c(=Cc2[n-]c(=O)[n-]c2[O-])[n-]c(=O)n1-c1cccc(C(=O)[N-]CCc2ccc(C)cc2)c1

>  <Energy>  (39) 
130.62712974289096

>  <Genealogy>  (39) 
C=c1c(=Cc2[n-]c(=O)[n-]c2[O-])[n-]c(=O)n1-c1cccc(C(=O)[N-]CCc2ccc(C)cc2)c1 (protonated)
C=c1c(=Cc2[n-]c(=O)[n-]c2[O-])[n-]c(=O)n1-c1cccc(C(=O)[N-]CCc2ccc(C)cc2)c1 (3D coordinates assigned)
C=c1c(=Cc2[n-]c(=O)[n-]c2[O-])[n-]c(=O)n1-c1cccc(C(=O)[N-]CCc2ccc(C)cc2)c1 (optimized conformer: 130.62712974289096 kcal/mol)

>  <smiles>  (39) 
C=c1c(=Cc2[nH]c(=O)[nH]c2O)[nH]c(=O)n1-c1cccc(C(=O)NCCc2ccc(C)cc2)c1

>  <score_type>  (39) 
oracle

>  <origin>  (39) 
adg

>  <m_score__min__energy>  (39) 
-19.329999999999998

>  <m_primary>  (39) 
energy

$$$$
39:0
     RDKit          3D

 67 71  0  0  1  0  0  0  0  0999 V2000
   55.9240   29.7470   43.1890 C   0  0  0  0  0  0  0  0  0  0  0  0
   56.0720   30.4790   44.3530 O   0  0  0  0  0  0  0  0  0  0  0  0
   57.1680   31.0870   44.8710 C   0  0  0  0  0  0  0  0  0  0  0  0
   57.1700   32.4890   44.8350 C   0  0  0  0  0  0  0  0  0  0  0  0
   58.2320   33.2060   45.3310 C   0  0  0  0  0  0  0  0  0  0  0  0
   58.2330   34.5460   45.2980 N   0  0  0  0  0  0  0  0  0  0  0  0
   59.3040   35.1870   45.8000 C   0  0  0  0  0  0  0  0  0  0  0  0
   60.3390   34.5050   46.3190 N   0  0  0  0  0  0  0  0  0  0  0  0
   60.3560   33.1600   46.3610 C   0  0  0  0  0  0  0  0  0  0  0  0
   61.3590   32.5220   46.8640 N   0  0  0  0  0  0  0  0  0  0  0  0
   61.9060   32.9900   48.0930 C   0  0  0  0  0  0  0  0  0  0  0  0
   63.2250   33.4290   48.1960 C   0  0  0  0  0  0  0  0  0  0  0  0
   63.6810   33.8710   49.4320 C   0  0  0  0  0  0  0  0  0  0  0  0
   62.8350   33.8670   50.5200 C   0  0  0  0  0  0  0  0  0  0  0  0
   61.5210   33.4280   50.4160 C   0  0  0  0  0  0  0  0  0  0  0  0
   60.6750   33.4240   51.5040 C   0  0  0  0  0  0  0  0  0  0  0  0
   59.3690   32.9950   51.4320 C   0  0  0  0  0  0  0  0  0  0  0  0
   58.8990   32.5490   50.1950 C   0  0  0  0  0  0  0  0  0  0  0  0
   59.7590   32.5550   49.0930 C   0  0  0  0  0  0  0  0  0  0  0  0
   61.0530   32.9840   49.1850 C   0  0  0  0  0  0  0  0  0  0  0  0
   59.2760   32.4800   45.8550 C   0  0  0  0  0  0  0  0  0  0  0  0
   59.2730   31.1080   45.8900 C   0  0  0  0  0  0  0  0  0  0  0  0
   58.1990   30.3550   45.3900 C   0  0  0  0  0  0  0  0  0  0  0  0
   58.3220   28.9680   45.4680 N   0  0  0  0  0  0  0  0  0  0  0  0
   58.4230   28.1480   46.6050 C   0  0  0  0  0  0  0  0  0  0  0  0
   58.4220   28.5850   47.7620 O   0  0  0  0  0  0  0  0  0  0  0  0
   58.5390   26.6600   46.4480 C   0  0  0  0  0  0  0  0  0  0  0  0
   57.3800   25.9680   47.1370 C   0  0  0  0  0  0  0  0  0  0  0  0
   56.3240   25.5820   46.1710 C   0  0  0  0  0  0  0  0  0  0  0  0
   55.2580   26.2270   46.0020 O   0  0  0  0  0  0  0  0  0  0  0  0
   56.5320   24.3970   45.3770 N   0  0  0  0  0  0  0  0  0  0  0  0
   57.7400   23.6020   45.5170 C   0  0  0  0  0  0  0  0  0  0  0  0
   57.4720   22.2840   44.8030 C   0  0  0  0  0  0  0  0  0  0  0  0
   57.1580   22.4540   43.4150 N   0  0  0  0  0  0  0  0  0  0  0  0
   56.7390   21.1650   42.9030 C   0  0  0  0  0  0  0  0  0  0  0  0
   56.2470   23.5220   43.1440 C   0  0  0  0  0  0  0  0  0  0  0  0
   55.5530   23.9600   44.4190 C   0  0  0  0  0  0  0  0  0  0  0  0
   55.7118   28.6974   43.4404 H   0  0  0  0  0  0  0  0  0  0  0  0
   55.0909   30.1587   42.6004 H   0  0  0  0  0  0  0  0  0  0  0  0
   56.8516   29.8027   42.6004 H   0  0  0  0  0  0  0  0  0  0  0  0
   56.3097   33.0219   44.4038 H   0  0  0  0  0  0  0  0  0  0  0  0
   57.4260   35.0840   44.8920 H   0  0  0  0  0  0  0  0  0  0  0  0
   59.3329   36.2865   45.7854 H   0  0  0  0  0  0  0  0  0  0  0  0
   63.8894   33.4256   47.3193 H   0  0  0  0  0  0  0  0  0  0  0  0
   64.7170   34.2240   49.5420 H   0  0  0  0  0  0  0  0  0  0  0  0
   63.2086   34.2194   51.4927 H   0  0  0  0  0  0  0  0  0  0  0  0
   61.0599   33.7789   52.4714 H   0  0  0  0  0  0  0  0  0  0  0  0
   58.7179   33.0032   52.3186 H   0  0  0  0  0  0  0  0  0  0  0  0
   57.8624   32.1965   50.0888 H   0  0  0  0  0  0  0  0  0  0  0  0
   59.3822   32.2033   48.1212 H   0  0  0  0  0  0  0  0  0  0  0  0
   60.1375   30.5831   46.3225 H   0  0  0  0  0  0  0  0  0  0  0  0
   58.3380   28.4290   44.5410 H   0  0  0  0  0  0  0  0  0  0  0  0
   58.5294   26.4059   45.3778 H   0  0  0  0  0  0  0  0  0  0  0  0
   59.4809   26.3236   46.9060 H   0  0  0  0  0  0  0  0  0  0  0  0
   57.7521   25.0632   47.6398 H   0  0  0  0  0  0  0  0  0  0  0  0
   56.9429   26.6689   47.8634 H   0  0  0  0  0  0  0  0  0  0  0  0
   58.5922   24.1198   45.0527 H   0  0  0  0  0  0  0  0  0  0  0  0
   57.9895   23.4386   46.5758 H   0  0  0  0  0  0  0  0  0  0  0  0
   58.3686   21.6521   44.8849 H   0  0  0  0  0  0  0  0  0  0  0  0
   56.5982   21.8203   45.2841 H   0  0  0  0  0  0  0  0  0  0  0  0
   56.5197   20.4903   43.7436 H   0  0  0  0  0  0  0  0  0  0  0  0
   55.8355   21.2907   42.2883 H   0  0  0  0  0  0  0  0  0  0  0  0
   57.5438   20.7354   42.2883 H   0  0  0  0  0  0  0  0  0  0  0  0
   56.8014   24.3733   42.7221 H   0  0  0  0  0  0  0  0  0  0  0  0
   55.4896   23.1721   42.4271 H   0  0  0  0  0  0  0  0  0  0  0  0
   54.8651   24.7886   44.1950 H   0  0  0  0  0  0  0  0  0  0  0  0
   54.9875   23.1135   44.8357 H   0  0  0  0  0  0  0  0  0  0  0  0
  1  2  1  0
  2  3  1  0
  3  4  2  0
  4  5  1  0
  5  6  1  0
  6  7  1  0
  7  8  2  0
  8  9  1  0
  9 10  2  0
 10 11  1  0
 11 12  2  0
 12 13  1  0
 13 14  2  0
 14 15  1  0
 15 16  2  0
 16 17  1  0
 17 18  2  0
 18 19  1  0
 19 20  2  0
  9 21  1  0
 21 22  1  0
 22 23  2  0
 23 24  1  0
 24 25  1  0
 25 26  2  0
 25 27  1  0
 27 28  1  0
 28 29  1  0
 29 30  2  0
 29 31  1  0
 31 32  1  0
 32 33  1  0
 33 34  1  0
 34 35  1  0
 34 36  1  0
 36 37  1  0
 23  3  1  0
 37 31  1  0
 21  5  2  0
 20 11  1  0
 20 15  1  0
  1 38  1  0
  1 39  1  0
  1 40  1  0
  4 41  1  0
  6 42  1  0
  7 43  1  0
 12 44  1  0
 13 45  1  0
 14 46  1  0
 16 47  1  0
 17 48  1  0
 18 49  1  0
 19 50  1  0
 22 51  1  0
 24 52  1  0
 27 53  1  0
 27 54  1  0
 28 55  1  0
 28 56  1  0
 32 57  1  0
 32 58  1  0
 33 59  1  0
 33 60  1  0
 35 61  1  0
 35 62  1  0
 35 63  1  0
 36 64  1  0
 36 65  1  0
 37 66  1  0
 37 67  1  0
M  END
>  <smiles>  (40) 
COc1cc2[nH]cnc(=Nc3cccc4ccccc34)c2cc1NC(=O)CCC(=O)N1CCN(C)CC1

>  <score_type>  (40) 
oracle

>  <origin>  (40) 
adg

>  <m_score__min__energy>  (40) 
-10.23

>  <m_primary>  (40) 
energy

$$$$
40:0
     RDKit          3D

 65 68  0  0  0  0  0  0  0  0999 V2000
   59.0770   25.3690   46.0250 C   0  0  0  0  0  0  0  0  0  0  0  0
   59.2000   26.6190   46.8570 C   0  0  0  0  0  0  0  0  0  0  0  0
   60.2710   26.7330   47.7620 C   0  0  0  0  0  0  0  0  0  0  0  0
   60.4180   27.8810   48.5440 C   0  0  0  0  0  0  0  0  0  0  0  0
   59.5000   28.9250   48.4380 C   0  0  0  0  0  0  0  0  0  0  0  0
   58.4270   28.8250   47.5500 C   0  0  0  0  0  0  0  0  0  0  0  0
   58.2590   27.6770   46.7570 C   0  0  0  0  0  0  0  0  0  0  0  0
   57.0950   27.6010   45.8420 C   0  0  0  0  0  0  0  0  0  0  0  0
   56.0530   26.9930   46.2190 O   0  0  0  0  0  0  0  0  0  0  0  0
   57.1570   28.1700   44.5110 N   0  0  2  0  0  0  0  0  0  0  0  0
   58.5670   28.4550   44.1120 C   0  0  0  0  0  0  0  0  0  0  0  0
   58.9380   29.9370   44.2770 C   0  0  0  0  0  0  0  0  0  0  0  0
   58.0360   30.8260   43.3820 C   0  0  2  0  0  0  0  0  0  0  0  0
   58.0070   32.2630   43.8660 C   0  0  0  0  0  0  0  0  0  0  0  0
   58.3520   33.1820   43.0700 O   0  0  0  0  0  0  0  0  0  0  0  0
   57.6850   32.5950   45.2380 N   0  0  0  0  0  0  0  0  0  0  0  0
   57.4980   33.9980   45.6390 C   0  0  0  0  0  0  0  0  0  0  0  0
   58.6400   34.4370   46.5810 C   0  0  0  0  0  0  0  0  0  0  0  0
   59.3940   33.2750   47.0950 N   0  0  0  0  0  0  0  0  0  0  0  0
   60.4660   33.7680   48.3800 S   0  0  0  0  0  0  0  0  0  0  0  0
   59.8270   34.8610   49.1910 O   0  0  0  0  0  0  0  0  0  0  0  0
   61.7470   34.2870   47.7880 O   0  0  0  0  0  0  0  0  0  0  0  0
   60.7910   32.3960   49.4540 C   0  0  0  0  0  0  0  0  0  0  0  0
   59.9870   32.2220   50.5920 C   0  0  0  0  0  0  0  0  0  0  0  0
   60.2030   31.1460   51.4570 C   0  0  0  0  0  0  0  0  0  0  0  0
   61.2260   30.2350   51.1970 C   0  0  0  0  0  0  0  0  0  0  0  0
   62.0370   30.3950   50.0730 C   0  0  0  0  0  0  0  0  0  0  0  0
   61.8260   31.4630   49.1820 C   0  0  0  0  0  0  0  0  0  0  0  0
   62.7360   31.6040   47.9880 C   0  0  0  0  0  0  0  0  0  0  0  0
   58.4770   32.2160   47.5510 C   0  0  0  0  0  0  0  0  0  0  0  0
   57.7750   31.6040   46.3260 C   0  0  0  0  0  0  0  0  0  0  0  0
   56.5950   30.2590   43.2650 C   0  0  0  0  0  0  0  0  0  0  0  0
   56.2510   29.3460   44.4480 C   0  0  0  0  0  0  0  0  0  0  0  0
   58.9910   24.4948   46.6871 H   0  0  0  0  0  0  0  0  0  0  0  0
   58.1813   25.4377   45.3902 H   0  0  0  0  0  0  0  0  0  0  0  0
   59.9689   25.2618   45.3902 H   0  0  0  0  0  0  0  0  0  0  0  0
   60.9977   25.9124   47.8544 H   0  0  0  0  0  0  0  0  0  0  0  0
   61.2610   27.9617   49.2460 H   0  0  0  0  0  0  0  0  0  0  0  0
   59.6211   29.8281   49.0543 H   0  0  0  0  0  0  0  0  0  0  0  0
   57.7066   29.6524   47.4704 H   0  0  0  0  0  0  0  0  0  0  0  0
   56.7840   27.4660   43.8310 H   0  0  0  0  0  0  0  0  0  0  0  0
   59.2397   27.8512   44.7388 H   0  0  0  0  0  0  0  0  0  0  0  0
   58.6702   28.2016   43.0466 H   0  0  0  0  0  0  0  0  0  0  0  0
   58.8038   30.2287   45.3291 H   0  0  0  0  0  0  0  0  0  0  0  0
   59.9865   30.0768   43.9753 H   0  0  0  0  0  0  0  0  0  0  0  0
   58.4833   30.8148   42.3771 H   0  0  0  0  0  0  0  0  0  0  0  0
   57.4999   34.6359   44.7429 H   0  0  0  0  0  0  0  0  0  0  0  0
   56.5378   34.0969   46.1666 H   0  0  0  0  0  0  0  0  0  0  0  0
   59.3278   35.0931   46.0275 H   0  0  0  0  0  0  0  0  0  0  0  0
   58.1971   34.9674   47.4369 H   0  0  0  0  0  0  0  0  0  0  0  0
   59.1802   32.9389   50.8044 H   0  0  0  0  0  0  0  0  0  0  0  0
   59.5653   31.0176   52.3440 H   0  0  0  0  0  0  0  0  0  0  0  0
   61.3940   29.3886   51.8792 H   0  0  0  0  0  0  0  0  0  0  0  0
   62.8496   29.6788   49.8816 H   0  0  0  0  0  0  0  0  0  0  0  0
   63.7688   31.7640   48.3310 H   0  0  0  0  0  0  0  0  0  0  0  0
   62.6890   30.6879   47.3810 H   0  0  0  0  0  0  0  0  0  0  0  0
   62.4140   32.4630   47.3810 H   0  0  0  0  0  0  0  0  0  0  0  0
   59.0462   31.4363   48.0783 H   0  0  0  0  0  0  0  0  0  0  0  0
   57.7286   32.6403   48.2364 H   0  0  0  0  0  0  0  0  0  0  0  0
   58.3490   30.7331   45.9767 H   0  0  0  0  0  0  0  0  0  0  0  0
   56.7589   31.2959   46.6135 H   0  0  0  0  0  0  0  0  0  0  0  0
   55.8824   31.0966   43.2413 H   0  0  0  0  0  0  0  0  0  0  0  0
   56.5326   29.6646   42.3415 H   0  0  0  0  0  0  0  0  0  0  0  0
   56.3454   29.9201   45.3816 H   0  0  0  0  0  0  0  0  0  0  0  0
   55.2218   28.9815   44.3142 H   0  0  0  0  0  0  0  0  0  0  0  0
  1  2  1  0
  2  3  2  0
  3  4  1  0
  4  5  2  0
  5  6  1  0
  6  7  2  0
  7  8  1  0
  8  9  2  0
  8 10  1  0
 10 11  1  0
 11 12  1  0
 12 13  1  0
 13 14  1  0
 14 15  2  0
 14 16  1  0
 16 17  1  0
 17 18  1  0
 18 19  1  0
 19 20  1  0
 20 21  2  0
 20 22  2  0
 20 23  1  0
 23 24  2  0
 24 25  1  0
 25 26  2  0
 26 27  1  0
 27 28  2  0
 28 29  1  0
 19 30  1  0
 30 31  1  0
 13 32  1  0
 32 33  1  0
  7  2  1  0
 33 10  1  0
 31 16  1  0
 28 23  1  0
  1 34  1  0
  1 35  1  0
  1 36  1  0
  3 37  1  0
  4 38  1  0
  5 39  1  0
  6 40  1  0
 10 41  1  6
 11 42  1  0
 11 43  1  0
 12 44  1  0
 12 45  1  0
 13 46  1  6
 17 47  1  0
 17 48  1  0
 18 49  1  0
 18 50  1  0
 24 51  1  0
 25 52  1  0
 26 53  1  0
 27 54  1  0
 29 55  1  0
 29 56  1  0
 29 57  1  0
 30 58  1  0
 30 59  1  0
 31 60  1  0
 31 61  1  0
 32 62  1  0
 32 63  1  0
 33 64  1  0
 33 65  1  0
M  CHG  1  10   1
M  END
>  <UniqueID>  (41) 
38

>  <SMILES>  (41) 
Cc1ccccc1C(=O)[NH+]1CCC(C(=O)N2CCN(S(=O)(=O)c3ccccc3C)CC2)CC1

>  <Energy>  (41) 
90.50713174629782

>  <Genealogy>  (41) 
Cc1ccccc1C(=O)[NH+]1CCC(C(=O)N2CCN(S(=O)(=O)c3ccccc3C)CC2)CC1 (protonated)
Cc1ccccc1C(=O)[NH+]1CCC(C(=O)N2CCN(S(=O)(=O)c3ccccc3C)CC2)CC1 (3D coordinates assigned)
Cc1ccccc1C(=O)[NH+]1CCC(C(=O)N2CCN(S(=O)(=O)c3ccccc3C)CC2)CC1 (nonaromatic ring conformer: 90.50713174629782 kcal/mol)

>  <smiles>  (41) 
Cc1ccccc1C(=O)N1CCC(C(=O)N2CCN(S(=O)(=O)c3ccccc3C)CC2)CC1

>  <score_type>  (41) 
oracle

>  <origin>  (41) 
adg

>  <m_score__min__energy>  (41) 
-8.6699999999999999

>  <m_primary>  (41) 
energy

$$$$
41:0
     RDKit          3D

 49 52  0  0  0  0  0  0  0  0999 V2000
   57.6420   30.1630   44.8530 C   0  0  0  0  0  0  0  0  0  0  0  0
   57.0270   31.0830   43.7990 C   0  0  0  0  0  0  0  0  0  0  0  0
   57.7820   32.4130   43.6630 C   0  0  0  0  0  0  0  0  0  0  0  0
   57.5850   33.3280   44.8790 C   0  0  0  0  0  0  0  0  0  0  0  0
   58.7290   34.1610   45.0680 O   0  0  0  0  0  0  0  0  0  0  0  0
   59.5390   34.1870   46.2160 C   0  0  0  0  0  0  0  0  0  0  0  0
   59.0550   34.5750   47.4830 C   0  0  0  0  0  0  0  0  0  0  0  0
   59.9040   34.5830   48.5930 C   0  0  0  0  0  0  0  0  0  0  0  0
   61.2440   34.2080   48.4550 C   0  0  0  0  0  0  0  0  0  0  0  0
   62.0700   34.2160   49.5350 N   0  0  0  0  0  0  0  0  0  0  0  0
   63.3820   33.8630   49.4500 C   0  0  0  0  0  0  0  0  0  0  0  0
   64.1540   33.9020   50.6220 O   0  0  0  0  0  0  0  0  0  0  0  0
   65.0260   32.8680   51.0840 C   0  0  2  0  0  0  0  0  0  0  0  0
   66.2680   32.8130   50.1650 C   0  0  0  0  0  0  0  0  0  0  0  0
   67.1260   31.7240   50.5180 O   0  0  0  0  0  0  0  0  0  0  0  0
   66.5680   30.5270   50.9570 C   0  0  0  0  0  0  0  0  0  0  0  0
   67.2440   29.3810   51.1540 N   0  0  0  0  0  0  0  0  0  0  0  0
   66.2960   28.5130   51.5680 C   0  0  0  0  0  0  0  0  0  0  0  0
   66.5490   27.1420   51.8880 N   0  0  0  0  0  0  0  0  0  0  0  0
   67.7010   26.6720   51.7870 O   0  0  0  0  0  0  0  0  0  0  0  0
   65.5230   26.3300   52.3100 O   0  0  0  0  0  0  0  0  0  0  0  0
   65.0630   29.1460   51.6200 C   0  0  0  0  0  0  0  0  0  0  0  0
   65.2620   30.4220   51.2450 N   0  0  0  0  0  0  0  0  0  0  0  0
   64.2950   31.5020   51.0770 C   0  0  0  0  0  0  0  0  0  0  0  0
   63.9080   33.4670   48.2050 C   0  0  0  0  0  0  0  0  0  0  0  0
   63.0820   33.4500   47.0790 C   0  0  0  0  0  0  0  0  0  0  0  0
   61.7390   33.8210   47.1930 C   0  0  0  0  0  0  0  0  0  0  0  0
   60.8840   33.8150   46.0820 C   0  0  0  0  0  0  0  0  0  0  0  0
   57.3921   30.5369   45.8569 H   0  0  0  0  0  0  0  0  0  0  0  0
   57.2416   29.1458   44.7304 H   0  0  0  0  0  0  0  0  0  0  0  0
   58.7350   30.1441   44.7304 H   0  0  0  0  0  0  0  0  0  0  0  0
   57.0445   30.5671   42.8277 H   0  0  0  0  0  0  0  0  0  0  0  0
   55.9997   31.3142   44.1172 H   0  0  0  0  0  0  0  0  0  0  0  0
   58.8554   32.1995   43.5525 H   0  0  0  0  0  0  0  0  0  0  0  0
   57.3808   32.9364   42.7826 H   0  0  0  0  0  0  0  0  0  0  0  0
   56.6996   33.9602   44.7167 H   0  0  0  0  0  0  0  0  0  0  0  0
   57.4466   32.7047   45.7748 H   0  0  0  0  0  0  0  0  0  0  0  0
   58.0025   34.8732   47.5980 H   0  0  0  0  0  0  0  0  0  0  0  0
   59.5173   34.8850   49.5775 H   0  0  0  0  0  0  0  0  0  0  0  0
   65.3378   33.0850   52.1163 H   0  0  0  0  0  0  0  0  0  0  0  0
   65.9380   32.6865   49.1233 H   0  0  0  0  0  0  0  0  0  0  0  0
   66.8300   33.7512   50.2831 H   0  0  0  0  0  0  0  0  0  0  0  0
   68.2630   29.2070   51.0080 H   0  0  0  0  0  0  0  0  0  0  0  0
   64.1051   28.6911   51.9122 H   0  0  0  0  0  0  0  0  0  0  0  0
   63.7683   31.3748   50.1197 H   0  0  0  0  0  0  0  0  0  0  0  0
   63.5716   31.4734   51.9052 H   0  0  0  0  0  0  0  0  0  0  0  0
   64.9644   33.1725   48.1199 H   0  0  0  0  0  0  0  0  0  0  0  0
   63.4879   33.1449   46.1032 H   0  0  0  0  0  0  0  0  0  0  0  0
   61.2717   33.5159   45.0970 H   0  0  0  0  0  0  0  0  0  0  0  0
  1  2  1  0
  2  3  1  0
  3  4  1  0
  4  5  1  0
  5  6  1  0
  6  7  2  0
  7  8  1  0
  8  9  2  0
  9 10  1  0
 10 11  2  0
 11 12  1  0
 12 13  1  0
 13 14  1  0
 14 15  1  0
 15 16  1  0
 16 17  2  0
 17 18  1  0
 18 19  1  0
 19 20  2  0
 19 21  1  0
 18 22  2  0
 22 23  1  0
 23 24  1  0
 11 25  1  0
 25 26  2  0
 26 27  1  0
 27 28  2  0
 28  6  1  0
 27  9  1  0
 24 13  1  0
 23 16  1  0
  1 29  1  0
  1 30  1  0
  1 31  1  0
  2 32  1  0
  2 33  1  0
  3 34  1  0
  3 35  1  0
  4 36  1  0
  4 37  1  0
  7 38  1  0
  8 39  1  0
 13 40  1  1
 14 41  1  0
 14 42  1  0
 17 43  1  0
 22 44  1  0
 24 45  1  0
 24 46  1  0
 25 47  1  0
 26 48  1  0
 28 49  1  0
M  CHG  3  17   1  19   1  21  -1
M  END
>  <UniqueID>  (42) 
39

>  <SMILES>  (42) 
CCCCOc1ccc2nc(O[C@@H]3COc4[nH+]c([N+](=O)[O-])cn4C3)ccc2c1

>  <Energy>  (42) 
83.24504349749064

>  <Genealogy>  (42) 
CCCCOc1ccc2nc(OC3COc4[nH+]c([N+](=O)[O-])cn4C3)ccc2c1 (protonated)
CCCCOc1ccc2nc(O[C@@H]3COc4[nH+]c([N+](=O)[O-])cn4C3)ccc2c1 (chirality)
CCCCOc1ccc2nc(O[C@@H]3COc4[nH+]c([N+](=O)[O-])cn4C3)ccc2c1 (3D coordinates assigned)
CCCCOc1ccc2nc(O[C@@H]3COc4[nH+]c([N+](=O)[O-])cn4C3)ccc2c1 (nonaromatic ring conformer: 83.24504349749064 kcal/mol)

>  <smiles>  (42) 
CCCCOc1ccc2nc(OC3COc4nc([N+](=O)[O-])cn4C3)ccc2c1

>  <score_type>  (42) 
oracle

>  <origin>  (42) 
adg

>  <m_score__min__energy>  (42) 
-5.8099999999999996

>  <m_primary>  (42) 
energy

$$$$
42:0
     RDKit          3D

 66 70  0  0  0  0  0  0  0  0999 V2000
   57.7450   24.2660   48.1290 H   0  0  0  0  0  0  0  0  0  0  0  0
   57.5210   24.1880   47.1450 O   0  0  0  0  0  0  0  0  0  0  0  0
   56.4210   24.8540   46.6150 C   0  0  0  0  0  0  0  0  0  0  0  0
   55.2830   24.2450   46.2420 N   0  0  0  0  0  0  0  0  0  0  0  0
   54.5480   25.2690   45.7600 C   0  0  0  0  0  0  0  0  0  0  0  0
   53.3920   25.1090   45.2840 O   0  0  0  0  0  0  0  0  0  0  0  0
   55.1550   26.4750   45.8030 N   0  0  0  0  0  0  0  0  0  0  0  0
   56.3390   26.2050   46.3840 C   0  0  0  0  0  0  0  0  0  0  0  0
   57.4370   27.1710   46.5340 C   0  0  0  0  0  0  0  0  0  0  0  0
   58.2747   26.8792   47.1845 H   0  0  0  0  0  0  0  0  0  0  0  0
   57.5100   28.3810   45.9470 C   0  0  0  0  0  0  0  0  0  0  0  0
   57.0230   28.6220   44.6730 C   0  0  0  0  0  0  0  0  0  0  0  0
   56.5836   27.8803   43.9898 H   0  0  0  0  0  0  0  0  0  0  0  0
   57.1930   29.9670   44.4230 C   0  0  0  0  0  0  0  0  0  0  0  0
   56.8500   30.6420   43.1300 C   0  0  0  0  0  0  0  0  0  0  0  0
   56.3606   31.6050   43.3377 H   0  0  0  0  0  0  0  0  0  0  0  0
   57.7695   30.8151   42.5516 H   0  0  0  0  0  0  0  0  0  0  0  0
   56.1681   30.0014   42.5516 H   0  0  0  0  0  0  0  0  0  0  0  0
   57.7960   30.5670   45.4730 N   0  0  0  0  0  0  0  0  0  0  0  0
   58.2310   31.9380   45.5030 C   0  0  0  0  0  0  0  0  0  0  0  0
   57.5310   32.9160   44.7830 C   0  0  0  0  0  0  0  0  0  0  0  0
   56.6242   32.6409   44.2245 H   0  0  0  0  0  0  0  0  0  0  0  0
   57.9810   34.2400   44.7720 C   0  0  0  0  0  0  0  0  0  0  0  0
   57.4336   35.0015   44.1971 H   0  0  0  0  0  0  0  0  0  0  0  0
   59.1260   34.5970   45.4910 C   0  0  0  0  0  0  0  0  0  0  0  0
   59.4844   35.6368   45.4710 H   0  0  0  0  0  0  0  0  0  0  0  0
   59.8190   33.6320   46.2380 C   0  0  0  0  0  0  0  0  0  0  0  0
   61.0260   33.9840   47.0080 C   0  0  0  0  0  0  0  0  0  0  0  0
   62.0970   34.1790   46.3720 O   0  0  0  0  0  0  0  0  0  0  0  0
   61.0220   34.0380   48.4570 N   0  0  0  0  0  0  0  0  0  0  0  0
   59.7600   34.0770   49.2130 C   0  0  0  0  0  0  0  0  0  0  0  0
   59.2886   35.0613   49.0753 H   0  0  0  0  0  0  0  0  0  0  0  0
   59.1027   33.2786   48.8383 H   0  0  0  0  0  0  0  0  0  0  0  0
   60.0060   33.8450   50.7040 C   0  0  0  0  0  0  0  0  0  0  0  0
   60.4342   34.7521   51.1555 H   0  0  0  0  0  0  0  0  0  0  0  0
   59.0587   33.6107   51.2116 H   0  0  0  0  0  0  0  0  0  0  0  0
   60.9500   32.7230   50.8500 N   0  0  0  0  0  0  0  0  0  0  0  0
   61.0080   32.2370   52.2410 C   0  0  0  0  0  0  0  0  0  0  0  0
   61.7331   31.4122   52.3038 H   0  0  0  0  0  0  0  0  0  0  0  0
   61.3144   33.0701   52.8906 H   0  0  0  0  0  0  0  0  0  0  0  0
   59.6530   31.7410   52.7000 C   0  0  0  0  0  0  0  0  0  0  0  0
   59.0820   32.3020   53.8560 C   0  0  0  0  0  0  0  0  0  0  0  0
   59.6256   33.0833   54.4074 H   0  0  0  0  0  0  0  0  0  0  0  0
   57.8330   31.8780   54.3110 C   0  0  0  0  0  0  0  0  0  0  0  0
   57.3991   32.3226   55.2188 H   0  0  0  0  0  0  0  0  0  0  0  0
   57.1340   30.8910   53.6160 C   0  0  0  0  0  0  0  0  0  0  0  0
   56.1492   30.5588   53.9763 H   0  0  0  0  0  0  0  0  0  0  0  0
   57.6820   30.3240   52.4640 C   0  0  0  0  0  0  0  0  0  0  0  0
   57.1204   29.5535   51.9154 H   0  0  0  0  0  0  0  0  0  0  0  0
   58.9450   30.7290   51.9990 C   0  0  0  0  0  0  0  0  0  0  0  0
   59.4850   30.1120   50.7360 C   0  0  0  0  0  0  0  0  0  0  0  0
   60.1894   29.3072   50.9932 H   0  0  0  0  0  0  0  0  0  0  0  0
   58.6542   29.6975   50.1461 H   0  0  0  0  0  0  0  0  0  0  0  0
   60.0059   30.8806   50.1461 H   0  0  0  0  0  0  0  0  0  0  0  0
   62.3040   33.0850   50.3640 C   0  0  0  0  0  0  0  0  0  0  0  0
   62.8677   33.5246   51.2000 H   0  0  0  0  0  0  0  0  0  0  0  0
   62.7688   32.1625   49.9859 H   0  0  0  0  0  0  0  0  0  0  0  0
   62.2910   34.0970   49.1980 C   0  0  0  0  0  0  0  0  0  0  0  0
   62.4239   35.1115   49.6019 H   0  0  0  0  0  0  0  0  0  0  0  0
   63.1095   33.8441   48.5080 H   0  0  0  0  0  0  0  0  0  0  0  0
   59.3810   32.3000   46.2200 C   0  0  0  0  0  0  0  0  0  0  0  0
   59.9436   31.5330   46.7725 H   0  0  0  0  0  0  0  0  0  0  0  0
   58.0260   29.6070   46.4060 C   0  0  0  0  0  0  0  0  0  0  0  0
   58.7440   29.8180   47.5190 C   0  0  0  0  0  0  0  0  0  0  0  0
   59.0902   30.8324   47.7661 H   0  0  0  0  0  0  0  0  0  0  0  0
   58.9867   28.9766   48.1847 H   0  0  0  0  0  0  0  0  0  0  0  0
  1  2  1  0
  2  3  1  0
  3  4  1  0
  4  5  1  0
  5  6  2  0
  5  7  1  0
  7  8  1  0
  8  9  1  0
  9 10  1  0
  9 11  2  0
 11 12  1  0
 12 13  1  0
 12 14  2  0
 14 15  1  0
 15 16  1  0
 15 17  1  0
 15 18  1  0
 14 19  1  0
 19 20  1  0
 20 21  2  0
 21 22  1  0
 21 23  1  0
 23 24  1  0
 23 25  2  0
 25 26  1  0
 25 27  1  0
 27 28  1  0
 28 29  2  0
 28 30  1  0
 30 31  1  0
 31 32  1  0
 31 33  1  0
 31 34  1  0
 34 35  1  0
 34 36  1  0
 34 37  1  0
 37 38  1  0
 38 39  1  0
 38 40  1  0
 38 41  1  0
 41 42  2  0
 42 43  1  0
 42 44  1  0
 44 45  1  0
 44 46  2  0
 46 47  1  0
 46 48  1  0
 48 49  1  0
 48 50  2  0
 50 51  1  0
 51 52  1  0
 51 53  1  0
 51 54  1  0
 37 55  1  0
 55 56  1  0
 55 57  1  0
 55 58  1  0
 58 59  1  0
 58 60  1  0
 27 61  2  0
 61 62  1  0
 19 63  1  0
 63 64  2  0
 64 65  1  0
 64 66  1  0
  8  3  2  0
 63 11  1  0
 61 20  1  0
 58 30  1  0
 50 41  1  0
M  CHG  2   4  -1   7  -1
M  END
>  <UniqueID>  (43) 
40

>  <SMILES>  (43) 
C=c1/c(=C\c2[n-]c(=O)[n-]c2O)cc(C)n1-c1cccc(C(=O)N2CCN(Cc3ccccc3C)CC2)c1

>  <Energy>  (43) 
158.5021306087496

>  <Genealogy>  (43) 
C=c1c(=Cc2[n-]c(=O)[n-]c2O)cc(C)n1-c1cccc(C(=O)N2CCN(Cc3ccccc3C)CC2)c1 (protonated)
C=c1/c(=C\c2[n-]c(=O)[n-]c2O)cc(C)n1-c1cccc(C(=O)N2CCN(Cc3ccccc3C)CC2)c1 (cis-trans isomerization)
C=c1/c(=C\c2[n-]c(=O)[n-]c2O)cc(C)n1-c1cccc(C(=O)N2CCN(Cc3ccccc3C)CC2)c1 (3D coordinates assigned)
C=c1/c(=C\c2[n-]c(=O)[n-]c2O)cc(C)n1-c1cccc(C(=O)N2CCN(Cc3ccccc3C)CC2)c1 (nonaromatic ring conformer: 158.5021306087496 kcal/mol)

>  <smiles>  (43) 
C=c1c(=Cc2[nH]c(=O)[nH]c2O)cc(C)n1-c1cccc(C(=O)N2CCN(Cc3ccccc3C)CC2)c1

>  <score_type>  (43) 
oracle

>  <origin>  (43) 
adg

>  <m_score__min__energy>  (43) 
-14.58

>  <m_primary>  (43) 
energy

$$$$
43:0
     RDKit          3D

 57 60  0  0  0  0  0  0  0  0999 V2000
   54.2460   25.9660   45.7290 N   0  0  0  0  0  0  0  0  0  0  0  0
   55.5520   25.4150   45.8860 C   0  0  0  0  0  0  0  0  0  0  0  0
   55.7090   24.1680   45.7780 O   0  0  0  0  0  0  0  0  0  0  0  0
   56.7120   26.2930   46.1730 C   0  0  0  0  0  0  0  0  0  0  0  0
   57.7540   25.8540   47.0090 C   0  0  0  0  0  0  0  0  0  0  0  0
   58.8440   26.7030   47.2690 C   0  0  0  0  0  0  0  0  0  0  0  0
   59.9100   26.3270   48.0940 O   0  0  0  0  0  0  0  0  0  0  0  0
   60.3470   27.0490   49.2430 C   0  0  0  0  0  0  0  0  0  0  0  0
   60.8300   28.4390   48.8280 C   0  0  0  0  0  0  0  0  0  0  0  0
   60.1780   29.5180   49.6620 C   0  0  0  0  0  0  0  0  0  0  0  0
   58.8070   29.7750   49.4910 C   0  0  0  0  0  0  0  0  0  0  0  0
   58.1780   30.7900   50.2160 C   0  0  0  0  0  0  0  0  0  0  0  0
   58.9120   31.5680   51.1140 C   0  0  0  0  0  0  0  0  0  0  0  0
   58.1220   32.8460   52.0190 Cl  0  0  0  0  0  0  0  0  0  0  0  0
   60.2780   31.3320   51.2860 C   0  0  0  0  0  0  0  0  0  0  0  0
   60.9190   30.3170   50.5650 C   0  0  0  0  0  0  0  0  0  0  0  0
   62.6470   30.0860   50.8210 Cl  0  0  0  0  0  0  0  0  0  0  0  0
   58.8730   27.9380   46.7070 N   0  0  0  0  0  0  0  0  0  0  0  0
   57.8870   28.3970   45.8890 C   0  0  0  0  0  0  0  0  0  0  0  0
   57.9300   29.6010   45.3950 N   0  0  0  0  0  0  0  0  0  0  0  0
   58.5810   30.7380   45.9870 C   0  0  0  0  0  0  0  0  0  0  0  0
   57.9140   31.9600   46.1790 C   0  0  0  0  0  0  0  0  0  0  0  0
   58.5780   33.0430   46.7650 C   0  0  0  0  0  0  0  0  0  0  0  0
   59.9150   32.9180   47.1760 C   0  0  0  0  0  0  0  0  0  0  0  0
   60.6170   34.0650   47.7960 C   0  0  0  0  0  0  0  0  0  0  0  0
   60.0570   35.1960   47.8190 O   0  0  0  0  0  0  0  0  0  0  0  0
   61.9140   33.9080   48.3960 N   0  0  0  0  0  0  0  0  0  0  0  0
   62.2080   34.6040   49.6520 C   0  0  0  0  0  0  0  0  0  0  0  0
   63.5850   34.1950   50.1770 C   0  0  0  0  0  0  0  0  0  0  0  0
   63.7800   32.8150   49.9490 O   0  0  0  0  0  0  0  0  0  0  0  0
   64.0100   32.5740   48.5710 C   0  0  0  0  0  0  0  0  0  0  0  0
   63.0120   33.2960   47.6350 C   0  0  0  0  0  0  0  0  0  0  0  0
   60.5630   31.6810   47.0260 C   0  0  0  0  0  0  0  0  0  0  0  0
   59.8960   30.5990   46.4440 C   0  0  0  0  0  0  0  0  0  0  0  0
   56.7860   27.5800   45.6140 C   0  0  0  0  0  0  0  0  0  0  0  0
   53.8980   26.7150   46.3680 H   0  0  0  0  0  0  0  0  0  0  0  0
   57.7164   24.8504   47.4577 H   0  0  0  0  0  0  0  0  0  0  0  0
   59.5112   27.1491   49.9512 H   0  0  0  0  0  0  0  0  0  0  0  0
   61.1746   26.5045   49.7212 H   0  0  0  0  0  0  0  0  0  0  0  0
   61.9207   28.4937   48.9602 H   0  0  0  0  0  0  0  0  0  0  0  0
   60.5573   28.6015   47.7748 H   0  0  0  0  0  0  0  0  0  0  0  0
   58.2239   29.1715   48.7798 H   0  0  0  0  0  0  0  0  0  0  0  0
   57.1026   30.9768   50.0793 H   0  0  0  0  0  0  0  0  0  0  0  0
   60.8540   31.9476   51.9926 H   0  0  0  0  0  0  0  0  0  0  0  0
   56.8645   32.0655   45.8669 H   0  0  0  0  0  0  0  0  0  0  0  0
   58.0499   33.9978   46.9046 H   0  0  0  0  0  0  0  0  0  0  0  0
   62.1946   35.6899   49.4767 H   0  0  0  0  0  0  0  0  0  0  0  0
   61.4462   34.3327   50.3977 H   0  0  0  0  0  0  0  0  0  0  0  0
   64.3635   34.7679   49.6519 H   0  0  0  0  0  0  0  0  0  0  0  0
   63.6449   34.4025   51.2556 H   0  0  0  0  0  0  0  0  0  0  0  0
   65.0260   32.9157   48.3242 H   0  0  0  0  0  0  0  0  0  0  0  0
   63.8774   31.4942   48.4084 H   0  0  0  0  0  0  0  0  0  0  0  0
   63.5453   34.0821   47.0803 H   0  0  0  0  0  0  0  0  0  0  0  0
   62.5847   32.5542   46.9443 H   0  0  0  0  0  0  0  0  0  0  0  0
   61.6016   31.5628   47.3685 H   0  0  0  0  0  0  0  0  0  0  0  0
   60.4090   29.6310   46.3446 H   0  0  0  0  0  0  0  0  0  0  0  0
   55.9791   27.9443   44.9611 H   0  0  0  0  0  0  0  0  0  0  0  0
  1  2  1  0
  2  3  2  0
  2  4  1  0
  4  5  1  0
  5  6  2  0
  6  7  1  0
  7  8  1  0
  8  9  1  0
  9 10  1  0
 10 11  2  0
 11 12  1  0
 12 13  2  0
 13 14  1  0
 13 15  1  0
 15 16  2  0
 16 17  1  0
  6 18  1  0
 18 19  1  0
 19 20  2  3
 20 21  1  0
 21 22  2  0
 22 23  1  0
 23 24  2  0
 24 25  1  0
 25 26  2  0
 25 27  1  0
 27 28  1  0
 28 29  1  0
 29 30  1  0
 30 31  1  0
 31 32  1  0
 24 33  1  0
 33 34  2  0
 19 35  1  0
 35  4  2  0
 16 10  1  0
 34 21  1  0
 32 27  1  0
  1 36  1  0
  5 37  1  0
  8 38  1  0
  8 39  1  0
  9 40  1  0
  9 41  1  0
 11 42  1  0
 12 43  1  0
 15 44  1  0
 22 45  1  0
 23 46  1  0
 28 47  1  0
 28 48  1  0
 29 49  1  0
 29 50  1  0
 31 51  1  0
 31 52  1  0
 32 53  1  0
 32 54  1  0
 33 55  1  0
 34 56  1  0
 35 57  1  0
M  CHG  2   1  -1  18  -1
M  END
>  <UniqueID>  (44) 
41

>  <SMILES>  (44) 
[NH-]C(=O)c1cc(OCCc2ccc(Cl)cc2Cl)[n-]c(=Nc2ccc(C(=O)N3CCOCC3)cc2)c1

>  <Energy>  (44) 
76.32398426600125

>  <Genealogy>  (44) 
[NH-]C(=O)c1cc(OCCc2ccc(Cl)cc2Cl)[n-]c(=Nc2ccc(C(=O)N3CCOCC3)cc2)c1 (protonated)
[NH-]C(=O)c1cc(OCCc2ccc(Cl)cc2Cl)[n-]c(=Nc2ccc(C(=O)N3CCOCC3)cc2)c1 (3D coordinates assigned)
[NH-]C(=O)c1cc(OCCc2ccc(Cl)cc2Cl)[n-]c(=Nc2ccc(C(=O)N3CCOCC3)cc2)c1 (nonaromatic ring conformer: 76.32398426600125 kcal/mol)

>  <smiles>  (44) 
NC(=O)c1cc(OCCc2ccc(Cl)cc2Cl)[nH]c(=Nc2ccc(C(=O)N3CCOCC3)cc2)c1

>  <score_type>  (44) 
oracle

>  <origin>  (44) 
adg

>  <m_score__min__energy>  (44) 
-13.41

>  <m_primary>  (44) 
energy

$$$$
44:0
     RDKit          3D

 58 61  0  0  1  0  0  0  0  0999 V2000
   60.6460   33.4850   50.8900 C   0  0  0  0  0  0  0  0  0  0  0  0
   61.7150   33.8450   49.9250 C   0  0  0  0  0  0  0  0  0  0  0  0
   61.2810   34.0530   48.5530 N   0  0  0  0  0  0  0  0  0  0  0  0
   61.9370   33.1980   47.6360 C   0  0  0  0  0  0  0  0  0  0  0  0
   63.0280   33.7840   46.8080 C   0  0  0  0  0  0  0  0  0  0  0  0
   59.9020   34.2960   48.4350 C   0  0  0  0  0  0  0  0  0  0  0  0
   59.3190   34.1470   47.1000 C   0  0  0  0  0  0  0  0  0  0  0  0
   58.6270   32.9560   46.8420 C   0  0  0  0  0  0  0  0  0  0  0  0
   58.0220   32.6970   45.6330 C   0  0  0  0  0  0  0  0  0  0  0  0
   57.3350   31.4340   45.4480 N   0  0  0  0  0  0  0  0  0  0  0  0
   58.0370   30.3860   45.0990 C   0  0  0  0  0  0  0  0  0  0  0  0
   57.5120   29.3690   44.3290 C   0  0  0  0  0  0  0  0  0  0  0  0
   58.3500   28.3180   44.0250 C   0  0  0  0  0  0  0  0  0  0  0  0
   57.9690   27.1890   43.2610 N   0  0  0  0  0  0  0  0  0  0  0  0
   57.7640   25.8910   43.7750 C   0  0  0  0  0  0  0  0  0  0  0  0
   57.9940   25.7260   45.1450 C   0  0  0  0  0  0  0  0  0  0  0  0
   57.8160   24.5130   45.7750 C   0  0  0  0  0  0  0  0  0  0  0  0
   57.3980   23.4380   45.0120 C   0  0  0  0  0  0  0  0  0  0  0  0
   57.2240   22.2240   45.6800 C   0  0  0  0  0  0  0  0  0  0  0  0
   57.4580   22.1760   46.9290 O   0  0  0  0  0  0  0  0  0  0  0  0
   56.8190   21.1920   44.9560 N   0  0  0  0  0  0  0  0  0  0  0  0
   56.5910   21.3330   43.6260 C   0  0  0  0  0  0  0  0  0  0  0  0
   56.2100   20.3060   43.0180 O   0  0  0  0  0  0  0  0  0  0  0  0
   56.7590   22.5050   42.9830 N   0  0  0  0  0  0  0  0  0  0  0  0
   57.1660   23.5780   43.6630 C   0  0  0  0  0  0  0  0  0  0  0  0
   57.3480   24.8130   43.0300 C   0  0  0  0  0  0  0  0  0  0  0  0
   59.6420   28.3050   44.4800 N   0  0  0  0  0  0  0  0  0  0  0  0
   60.1240   29.3140   45.2330 C   0  0  0  0  0  0  0  0  0  0  0  0
   59.3300   30.3380   45.5360 N   0  0  0  0  0  0  0  0  0  0  0  0
   58.0670   33.6100   44.6050 C   0  0  0  0  0  0  0  0  0  0  0  0
   58.7500   34.8040   44.8350 C   0  0  0  0  0  0  0  0  0  0  0  0
   59.3610   35.0480   46.0740 C   0  0  0  0  0  0  0  0  0  0  0  0
   60.0110   36.2600   46.1860 O   0  0  0  0  0  0  0  0  0  0  0  0
   61.0209   33.6112   51.9164 H   0  0  0  0  0  0  0  0  0  0  0  0
   59.7758   34.1397   50.7343 H   0  0  0  0  0  0  0  0  0  0  0  0
   60.3491   32.4373   50.7343 H   0  0  0  0  0  0  0  0  0  0  0  0
   62.1872   34.7748   50.2749 H   0  0  0  0  0  0  0  0  0  0  0  0
   62.3968   32.9822   49.8966 H   0  0  0  0  0  0  0  0  0  0  0  0
   62.3707   32.3675   48.2124 H   0  0  0  0  0  0  0  0  0  0  0  0
   61.1587   32.9132   46.9127 H   0  0  0  0  0  0  0  0  0  0  0  0
   63.8043   34.2010   47.4663 H   0  0  0  0  0  0  0  0  0  0  0  0
   63.4676   33.0006   46.1731 H   0  0  0  0  0  0  0  0  0  0  0  0
   62.6176   34.5831   46.1731 H   0  0  0  0  0  0  0  0  0  0  0  0
   59.3818   33.5963   49.1057 H   0  0  0  0  0  0  0  0  0  0  0  0
   59.7733   35.3584   48.6893 H   0  0  0  0  0  0  0  0  0  0  0  0
   58.5648   32.1983   47.6370 H   0  0  0  0  0  0  0  0  0  0  0  0
   56.4713   29.3957   43.9736 H   0  0  0  0  0  0  0  0  0  0  0  0
   57.8420   27.3690   42.2250 H   0  0  0  0  0  0  0  0  0  0  0  0
   58.3271   26.5908   45.7376 H   0  0  0  0  0  0  0  0  0  0  0  0
   58.0011   24.4032   46.8537 H   0  0  0  0  0  0  0  0  0  0  0  0
   56.6830   20.2740   45.4300 H   0  0  0  0  0  0  0  0  0  0  0  0
   56.5730   22.5760   41.9620 H   0  0  0  0  0  0  0  0  0  0  0  0
   57.1608   24.9196   41.9513 H   0  0  0  0  0  0  0  0  0  0  0  0
   61.1631   29.2911   45.5933 H   0  0  0  0  0  0  0  0  0  0  0  0
   59.7390   31.1020   46.1210 H   0  0  0  0  0  0  0  0  0  0  0  0
   57.5828   33.4061   43.6386 H   0  0  0  0  0  0  0  0  0  0  0  0
   58.8101   35.5604   44.0386 H   0  0  0  0  0  0  0  0  0  0  0  0
   59.6220   37.0140   46.7460 H   0  0  0  0  0  0  0  0  0  0  0  0
  1  2  1  0
  2  3  1  0
  3  4  1  0
  4  5  1  0
  3  6  1  0
  6  7  1  0
  7  8  2  0
  8  9  1  0
  9 10  1  0
 10 11  2  0
 11 12  1  0
 12 13  2  0
 13 14  1  0
 14 15  1  0
 15 16  2  0
 16 17  1  0
 17 18  2  0
 18 19  1  0
 19 20  2  0
 19 21  1  0
 21 22  1  0
 22 23  2  0
 22 24  1  0
 24 25  1  0
 25 26  2  0
 13 27  1  0
 27 28  2  0
 28 29  1  0
  9 30  2  0
 30 31  1  0
 31 32  2  0
 32 33  1  0
 32  7  1  0
 29 11  1  0
 26 15  1  0
 25 18  1  0
  1 34  1  0
  1 35  1  0
  1 36  1  0
  2 37  1  0
  2 38  1  0
  4 39  1  0
  4 40  1  0
  5 41  1  0
  5 42  1  0
  5 43  1  0
  6 44  1  0
  6 45  1  0
  8 46  1  0
 12 47  1  0
 14 48  1  0
 16 49  1  0
 17 50  1  0
 21 51  1  0
 24 52  1  0
 26 53  1  0
 28 54  1  0
 29 55  1  0
 30 56  1  0
 31 57  1  0
 33 58  1  0
M  END
>  <smiles>  (45) 
CCN(CC)Cc1cc(N=c2cc(Nc3ccc4c(=O)[nH]c(=O)[nH]c4c3)nc[nH]2)ccc1O

>  <score_type>  (45) 
oracle

>  <origin>  (45) 
adg

>  <m_score__min__energy>  (45) 
-9.0999999999999996

>  <m_primary>  (45) 
energy

$$$$
45:0
     RDKit          3D

 30 32  0  0  0  0  0  0  0  0999 V2000
   60.7250   29.2430   48.6940 O   0  0  0  0  0  0  0  0  0  0  0  0
   59.9010   29.7500   47.8900 C   0  0  0  0  0  0  0  0  0  0  0  0
   58.6980   28.9640   47.4560 C   0  0  0  0  0  0  0  0  0  0  0  0
   58.1280   29.4780   46.2020 N   0  0  0  0  0  0  0  0  0  0  0  0
   57.3260   28.5800   45.4240 C   0  0  0  0  0  0  0  0  0  0  0  0
   56.1260   28.8700   45.1720 O   0  0  0  0  0  0  0  0  0  0  0  0
   57.9220   27.3180   44.8820 C   0  0  0  0  0  0  0  0  0  0  0  0
   57.4700   26.1460   45.6970 C   0  0  0  0  0  0  0  0  0  0  0  0
   58.4980   24.9510   46.2960 S   0  0  0  0  0  0  0  0  0  0  0  0
   57.2590   24.1800   47.1270 C   0  0  0  0  0  0  0  0  0  0  0  0
   57.4080   23.1370   47.8140 O   0  0  0  0  0  0  0  0  0  0  0  0
   56.0720   24.8020   46.9840 N   0  0  0  0  0  0  0  0  0  0  0  0
   56.1840   25.9030   46.1960 C   0  0  0  0  0  0  0  0  0  0  0  0
   55.0820   26.7150   45.9360 O   0  0  0  0  0  0  0  0  0  0  0  0
   58.2420   30.8770   45.8430 C   0  0  0  0  0  0  0  0  0  0  0  0
   57.4300   31.4580   44.8470 C   0  0  0  0  0  0  0  0  0  0  0  0
   57.5920   32.8010   44.4970 C   0  0  0  0  0  0  0  0  0  0  0  0
   58.5650   33.5790   45.1300 C   0  0  0  0  0  0  0  0  0  0  0  0
   59.3780   33.0140   46.1140 C   0  0  0  0  0  0  0  0  0  0  0  0
   59.2200   31.6700   46.4710 C   0  0  0  0  0  0  0  0  0  0  0  0
   60.0810   31.0950   47.4520 N   0  0  0  0  0  0  0  0  0  0  0  0
   58.9936   27.9148   47.3081 H   0  0  0  0  0  0  0  0  0  0  0  0
   57.9318   29.0545   48.2400 H   0  0  0  0  0  0  0  0  0  0  0  0
   57.6002   27.1820   43.8390 H   0  0  0  0  0  0  0  0  0  0  0  0
   59.0188   27.3881   44.9283 H   0  0  0  0  0  0  0  0  0  0  0  0
   55.1440   27.5390   45.3520 H   0  0  0  0  0  0  0  0  0  0  0  0
   56.6644   30.8502   44.3426 H   0  0  0  0  0  0  0  0  0  0  0  0
   56.9521   33.2469   43.7213 H   0  0  0  0  0  0  0  0  0  0  0  0
   58.6902   34.6362   44.8530 H   0  0  0  0  0  0  0  0  0  0  0  0
   60.1450   33.6268   46.6102 H   0  0  0  0  0  0  0  0  0  0  0  0
  1  2  2  0
  2  3  1  0
  3  4  1  0
  4  5  1  0
  5  6  2  0
  5  7  1  0
  7  8  1  0
  8  9  1  0
  9 10  1  0
 10 11  2  0
 10 12  1  0
 12 13  1  0
 13 14  1  0
  4 15  1  0
 15 16  2  0
 16 17  1  0
 17 18  2  0
 18 19  1  0
 19 20  2  0
 20 21  1  0
 21  2  1  0
 13  8  2  0
 20 15  1  0
  3 22  1  0
  3 23  1  0
  7 24  1  0
  7 25  1  0
 14 26  1  0
 16 27  1  0
 17 28  1  0
 18 29  1  0
 19 30  1  0
M  CHG  2  12  -1  21  -1
M  END
>  <UniqueID>  (46) 
42

>  <SMILES>  (46) 
O=C1CN(C(=O)Cc2sc(=O)[n-]c2O)c2ccccc2[N-]1

>  <Energy>  (46) 
68.145710515053

>  <Genealogy>  (46) 
O=C1CN(C(=O)Cc2sc(=O)[n-]c2O)c2ccccc2[N-]1 (protonated)
O=C1CN(C(=O)Cc2sc(=O)[n-]c2O)c2ccccc2[N-]1 (3D coordinates assigned)
O=C1CN(C(=O)Cc2sc(=O)[n-]c2O)c2ccccc2[N-]1 (nonaromatic ring conformer: 68.145710515053 kcal/mol)

>  <smiles>  (46) 
O=C1CN(C(=O)Cc2sc(=O)[nH]c2O)c2ccccc2N1

>  <score_type>  (46) 
oracle

>  <origin>  (46) 
adg

>  <m_score__min__energy>  (46) 
-11.720000000000001

>  <m_primary>  (46) 
energy

$$$$
46:0
     RDKit          3D

 38 40  0  0  0  0  0  0  0  0999 V2000
   60.3169   29.6552   48.5090 H   0  0  0  0  0  0  0  0  0  0  0  0
   59.7880   29.1830   47.6680 C   0  0  0  0  0  0  0  0  0  0  0  0
   59.7318   28.0866   47.5995 H   0  0  0  0  0  0  0  0  0  0  0  0
   59.2110   29.9450   46.7250 C   0  0  0  0  0  0  0  0  0  0  0  0
   58.5010   29.5100   45.5920 C   0  0  0  0  0  0  0  0  0  0  0  0
   58.3630   28.2820   45.0490 C   0  0  0  0  0  0  0  0  0  0  0  0
   58.9238   28.0721   44.1262 H   0  0  0  0  0  0  0  0  0  0  0  0
   57.5210   27.1970   45.5920 C   0  0  0  0  0  0  0  0  0  0  0  0
   56.1260   27.3360   45.6280 C   0  0  0  0  0  0  0  0  0  0  0  0
   55.5200   28.5130   45.2030 O   0  0  0  0  0  0  0  0  0  0  0  0
   55.3550   26.3170   46.0900 N   0  0  0  0  0  0  0  0  0  0  0  0
   55.9110   25.1510   46.5070 C   0  0  0  0  0  0  0  0  0  0  0  0
   55.1760   24.2240   46.9350 O   0  0  0  0  0  0  0  0  0  0  0  0
   57.2560   24.9810   46.4560 N   0  0  0  0  0  0  0  0  0  0  0  0
   58.0710   25.9690   46.0010 C   0  0  0  0  0  0  0  0  0  0  0  0
   59.3140   25.7680   45.9450 O   0  0  0  0  0  0  0  0  0  0  0  0
   57.9250   30.6690   45.0840 C   0  0  0  0  0  0  0  0  0  0  0  0
   57.0460   30.7850   43.8760 C   0  0  0  0  0  0  0  0  0  0  0  0
   56.0020   30.9228   44.1940 H   0  0  0  0  0  0  0  0  0  0  0  0
   57.3629   31.6491   43.2736 H   0  0  0  0  0  0  0  0  0  0  0  0
   57.1278   29.8683   43.2736 H   0  0  0  0  0  0  0  0  0  0  0  0
   58.3100   31.7200   45.8270 N   0  0  0  0  0  0  0  0  0  0  0  0
   58.0210   32.7120   45.6740 H   0  0  0  0  0  0  0  0  0  0  0  0
   59.1080   31.3000   46.7990 N   0  0  0  0  0  0  0  0  0  0  0  0
   59.6550   32.1870   47.8390 C   0  0  0  0  0  0  0  0  0  0  0  0
   59.0324   33.0917   47.9020 H   0  0  0  0  0  0  0  0  0  0  0  0
   59.6508   31.6439   48.7956 H   0  0  0  0  0  0  0  0  0  0  0  0
   61.0760   32.5890   47.5260 C   0  0  0  0  0  0  0  0  0  0  0  0
   62.1390   31.7830   47.9720 C   0  0  0  0  0  0  0  0  0  0  0  0
   61.9275   30.8588   48.5297 H   0  0  0  0  0  0  0  0  0  0  0  0
   63.4620   32.1490   47.7110 C   0  0  0  0  0  0  0  0  0  0  0  0
   64.2870   31.5100   48.0590 H   0  0  0  0  0  0  0  0  0  0  0  0
   63.7390   33.3230   47.0100 C   0  0  0  0  0  0  0  0  0  0  0  0
   64.7815   33.6086   46.8060 H   0  0  0  0  0  0  0  0  0  0  0  0
   62.6930   34.1360   46.5670 C   0  0  0  0  0  0  0  0  0  0  0  0
   62.9154   35.0610   46.0148 H   0  0  0  0  0  0  0  0  0  0  0  0
   61.3630   33.7800   46.8220 C   0  0  0  0  0  0  0  0  0  0  0  0
   59.9770   34.9530   46.1990 Br  0  0  0  0  0  0  0  0  0  0  0  0
  1  2  1  0
  2  3  1  0
  2  4  2  0
  4  5  1  0
  5  6  2  0
  6  7  1  0
  6  8  1  0
  8  9  2  0
  9 10  1  0
  9 11  1  0
 11 12  1  0
 12 13  2  0
 12 14  1  0
 14 15  1  0
 15 16  2  0
  5 17  1  0
 17 18  1  0
 18 19  1  0
 18 20  1  0
 18 21  1  0
 17 22  2  0
 22 23  1  0
 22 24  1  0
 24 25  1  0
 25 26  1  0
 25 27  1  0
 25 28  1  0
 28 29  2  0
 29 30  1  0
 29 31  1  0
 31 32  1  0
 31 33  2  0
 33 34  1  0
 33 35  1  0
 35 36  1  0
 35 37  2  0
 37 38  1  0
 24  4  1  0
 37 28  1  0
 15  8  1  0
M  CHG  4  10  -1  11  -1  14  -1  22   1
M  END
>  <UniqueID>  (47) 
43

>  <SMILES>  (47) 
C=c1/c(=C\c2c([O-])[n-]c(=O)[n-]c2=O)c(C)[nH+]n1Cc1ccccc1Br

>  <Energy>  (47) 
89.06373873417557

>  <Genealogy>  (47) 
C=c1c(=Cc2c([O-])[n-]c(=O)[n-]c2=O)c(C)[nH+]n1Cc1ccccc1Br (protonated)
C=c1/c(=C\c2c([O-])[n-]c(=O)[n-]c2=O)c(C)[nH+]n1Cc1ccccc1Br (cis-trans isomerization)
C=c1/c(=C\c2c([O-])[n-]c(=O)[n-]c2=O)c(C)[nH+]n1Cc1ccccc1Br (3D coordinates assigned)
C=c1/c(=C\c2c([O-])[n-]c(=O)[n-]c2=O)c(C)[nH+]n1Cc1ccccc1Br (optimized conformer: 89.06373873417557 kcal/mol)

>  <smiles>  (47) 
C=c1c(=Cc2c(O)[nH]c(=O)[nH]c2=O)c(C)nn1Cc1ccccc1Br

>  <score_type>  (47) 
oracle

>  <origin>  (47) 
adg

>  <m_score__min__energy>  (47) 
-14.76

>  <m_primary>  (47) 
energy

$$$$
47:0
     RDKit          3D

 34 35  0  0  0  0  0  0  0  0999 V2000
   55.1470   28.9660   44.8010 O   0  0  0  0  0  0  0  0  0  0  0  0
   56.3950   28.5580   45.2590 C   0  0  0  0  0  0  0  0  0  0  0  0
   56.5410   27.2660   45.7710 C   0  0  0  0  0  0  0  0  0  0  0  0
   57.7870   26.8200   46.2320 C   0  0  0  0  0  0  0  0  0  0  0  0
   57.9250   25.5290   46.7400 O   0  0  0  0  0  0  0  0  0  0  0  0
   58.9010   27.6700   46.1810 C   0  0  0  0  0  0  0  0  0  0  0  0
   60.1660   27.1820   46.6540 N   0  0  0  0  0  0  0  0  0  0  0  0
   60.4390   26.9830   47.8820 C   0  0  0  0  0  0  0  0  0  0  0  0
   60.7850   26.7290   49.4350 S   0  0  0  0  0  0  0  0  0  0  0  0
   58.7500   28.9740   45.6650 C   0  0  0  0  0  0  0  0  0  0  0  0
   57.5010   29.4260   45.2100 C   0  0  0  0  0  0  0  0  0  0  0  0
   57.3850   30.8200   44.6390 C   0  0  0  0  0  0  0  0  0  0  0  0
   57.5390   31.8410   45.6980 N   0  0  0  0  0  0  0  0  0  0  0  0
   56.9350   33.1400   45.2950 C   0  0  0  0  0  0  0  0  0  0  0  0
   57.9800   34.1700   44.8460 C   0  0  0  0  0  0  0  0  0  0  0  0
   58.9810   34.4700   45.9740 C   0  0  0  0  0  0  0  0  0  0  0  0
   59.2320   33.2540   46.8950 C   0  0  1  0  0  0  0  0  0  0  0  0
   58.4080   33.3200   48.0320 O   0  0  0  0  0  0  0  0  0  0  0  0
   58.9540   31.9420   46.1470 C   0  0  0  0  0  0  0  0  0  0  0  0
   55.6712   26.5939   45.8125 H   0  0  0  0  0  0  0  0  0  0  0  0
   58.8180   25.1820   47.0690 H   0  0  0  0  0  0  0  0  0  0  0  0
   59.6208   29.6445   45.6185 H   0  0  0  0  0  0  0  0  0  0  0  0
   58.1701   30.9653   43.8823 H   0  0  0  0  0  0  0  0  0  0  0  0
   56.3885   30.9317   44.1867 H   0  0  0  0  0  0  0  0  0  0  0  0
   56.2389   32.9603   44.4624 H   0  0  0  0  0  0  0  0  0  0  0  0
   56.4214   33.5529   46.1758 H   0  0  0  0  0  0  0  0  0  0  0  0
   58.5258   33.7730   43.9774 H   0  0  0  0  0  0  0  0  0  0  0  0
   57.4604   35.1030   44.5823 H   0  0  0  0  0  0  0  0  0  0  0  0
   59.9377   34.7721   45.5230 H   0  0  0  0  0  0  0  0  0  0  0  0
   58.5498   35.2700   46.5938 H   0  0  0  0  0  0  0  0  0  0  0  0
   60.2869   33.2777   47.2060 H   0  0  0  0  0  0  0  0  0  0  0  0
   57.5940   32.7900   47.8260 H   0  0  0  0  0  0  0  0  0  0  0  0
   59.6100   31.8907   45.2655 H   0  0  0  0  0  0  0  0  0  0  0  0
   59.1491   31.1100   46.8397 H   0  0  0  0  0  0  0  0  0  0  0  0
  1  2  1  0
  2  3  2  0
  3  4  1  0
  4  5  1  0
  4  6  2  0
  6  7  1  0
  7  8  2  0
  8  9  2  0
  6 10  1  0
 10 11  2  0
 11 12  1  0
 12 13  1  0
 13 14  1  0
 14 15  1  0
 15 16  1  0
 16 17  1  0
 17 18  1  0
 17 19  1  0
 11  2  1  0
 19 13  1  0
  3 20  1  0
  5 21  1  0
 10 22  1  0
 12 23  1  0
 12 24  1  0
 14 25  1  0
 14 26  1  0
 15 27  1  0
 15 28  1  0
 16 29  1  0
 16 30  1  0
 17 31  1  1
 18 32  1  0
 19 33  1  0
 19 34  1  0
M  CHG  1   1  -1
M  END
>  <UniqueID>  (48) 
44

>  <SMILES>  (48) 
[O-]c1cc(O)c(N=C=S)cc1CN1CCC[C@@H](O)C1

>  <Energy>  (48) 
43.17071067490093

>  <Genealogy>  (48) 
[O-]c1cc(O)c(N=C=S)cc1CN1CCCC(O)C1 (protonated)
[O-]c1cc(O)c(N=C=S)cc1CN1CCC[C@@H](O)C1 (chirality)
[O-]c1cc(O)c(N=C=S)cc1CN1CCC[C@@H](O)C1 (3D coordinates assigned)
[O-]c1cc(O)c(N=C=S)cc1CN1CCC[C@@H](O)C1 (nonaromatic ring conformer: 43.17071067490093 kcal/mol)

>  <smiles>  (48) 
Oc1cc(O)c(N=C=S)cc1CN1CCCC(O)C1

>  <score_type>  (48) 
oracle

>  <origin>  (48) 
adg

>  <m_score__min__energy>  (48) 
-9.1699999999999999

>  <m_primary>  (48) 
energy

$$$$
48:0
     RDKit          3D

 50 53  0  0  0  0  0  0  0  0999 V2000
   59.2500   26.8050   47.5360 C   0  0  0  0  0  0  0  0  0  0  0  0
   58.6650   27.2310   46.4040 C   0  0  0  0  0  0  0  0  0  0  0  0
   57.8560   26.4880   45.5260 C   0  0  0  0  0  0  0  0  0  0  0  0
   57.5400   25.1790   45.5000 C   0  0  0  0  0  0  0  0  0  0  0  0
   56.1970   24.6230   45.2470 C   0  0  0  0  0  0  0  0  0  0  0  0
   55.0390   25.3080   45.6520 C   0  0  0  0  0  0  0  0  0  0  0  0
   55.1330   26.5520   46.2670 O   0  0  0  0  0  0  0  0  0  0  0  0
   53.8160   24.7500   45.4440 N   0  0  0  0  0  0  0  0  0  0  0  0
   53.6930   23.5280   44.8650 C   0  0  0  0  0  0  0  0  0  0  0  0
   52.5510   23.0330   44.6800 O   0  0  0  0  0  0  0  0  0  0  0  0
   54.8000   22.8360   44.4910 N   0  0  0  0  0  0  0  0  0  0  0  0
   56.0440   23.3500   44.6760 C   0  0  0  0  0  0  0  0  0  0  0  0
   57.0500   22.6780   44.3230 O   0  0  0  0  0  0  0  0  0  0  0  0
   57.3980   27.3830   44.5710 C   0  0  0  0  0  0  0  0  0  0  0  0
   57.9570   28.6080   44.8680 C   0  0  0  0  0  0  0  0  0  0  0  0
   57.7490   29.8580   44.0680 C   0  0  0  0  0  0  0  0  0  0  0  0
   58.7320   28.5160   45.9700 N   0  0  0  0  0  0  0  0  0  0  0  0
   59.4360   29.6110   46.5840 C   0  0  0  0  0  0  0  0  0  0  0  0
   58.7360   30.5810   47.3130 C   0  0  0  0  0  0  0  0  0  0  0  0
   59.4190   31.6510   47.8970 C   0  0  0  0  0  0  0  0  0  0  0  0
   60.8110   31.7730   47.7500 C   0  0  0  0  0  0  0  0  0  0  0  0
   61.5170   32.8710   48.3620 N   0  0  0  0  0  0  0  0  0  0  0  0
   62.9010   33.1660   47.9720 C   0  0  0  0  0  0  0  0  0  0  0  0
   63.5720   34.0800   49.0080 C   0  0  0  0  0  0  0  0  0  0  0  0
   63.1830   33.6860   50.3680 N   0  0  0  0  0  0  0  0  0  0  0  0
   61.7380   33.8620   50.6180 C   0  0  0  0  0  0  0  0  0  0  0  0
   60.8640   33.7330   49.3540 C   0  0  0  0  0  0  0  0  0  0  0  0
   61.5090   30.7950   47.0190 C   0  0  0  0  0  0  0  0  0  0  0  0
   60.8240   29.7260   46.4360 C   0  0  0  0  0  0  0  0  0  0  0  0
   59.8620   27.4972   48.1330 H   0  0  0  0  0  0  0  0  0  0  0  0
   59.1170   25.7641   47.8658 H   0  0  0  0  0  0  0  0  0  0  0  0
   58.3540   24.4621   45.6833 H   0  0  0  0  0  0  0  0  0  0  0  0
   54.7170   26.7170   47.1760 H   0  0  0  0  0  0  0  0  0  0  0  0
   56.7183   27.1585   43.7357 H   0  0  0  0  0  0  0  0  0  0  0  0
   57.6072   30.7100   44.7492 H   0  0  0  0  0  0  0  0  0  0  0  0
   58.6295   30.0382   43.4338 H   0  0  0  0  0  0  0  0  0  0  0  0
   56.8576   29.7434   43.4338 H   0  0  0  0  0  0  0  0  0  0  0  0
   57.6448   30.5001   47.4261 H   0  0  0  0  0  0  0  0  0  0  0  0
   58.8630   32.4031   48.4759 H   0  0  0  0  0  0  0  0  0  0  0  0
   63.4652   32.2243   47.9016 H   0  0  0  0  0  0  0  0  0  0  0  0
   62.8933   33.6790   46.9990 H   0  0  0  0  0  0  0  0  0  0  0  0
   64.6645   34.0015   48.9066 H   0  0  0  0  0  0  0  0  0  0  0  0
   63.2489   35.1165   48.8311 H   0  0  0  0  0  0  0  0  0  0  0  0
   63.4290   32.6770   50.5040 H   0  0  0  0  0  0  0  0  0  0  0  0
   61.4162   33.0979   51.3409 H   0  0  0  0  0  0  0  0  0  0  0  0
   61.6022   34.8859   50.9965 H   0  0  0  0  0  0  0  0  0  0  0  0
   59.8925   33.2965   49.6289 H   0  0  0  0  0  0  0  0  0  0  0  0
   60.7214   34.7324   48.9172 H   0  0  0  0  0  0  0  0  0  0  0  0
   62.6004   30.8722   46.9057 H   0  0  0  0  0  0  0  0  0  0  0  0
   61.3773   28.9711   45.8581 H   0  0  0  0  0  0  0  0  0  0  0  0
  1  2  2  0
  2  3  1  0
  3  4  2  3
  4  5  1  0
  5  6  2  0
  6  7  1  0
  6  8  1  0
  8  9  1  0
  9 10  2  0
  9 11  1  0
 11 12  1  0
 12 13  2  0
  3 14  1  0
 14 15  2  0
 15 16  1  0
 15 17  1  0
 17 18  1  0
 18 19  2  0
 19 20  1  0
 20 21  2  0
 21 22  1  0
 22 23  1  0
 23 24  1  0
 24 25  1  0
 25 26  1  0
 26 27  1  0
 21 28  1  0
 28 29  2  0
 17  2  1  0
 29 18  1  0
 12  5  1  0
 27 22  1  0
  1 30  1  0
  1 31  1  0
  4 32  1  0
  7 33  1  0
 14 34  1  0
 16 35  1  0
 16 36  1  0
 16 37  1  0
 19 38  1  0
 20 39  1  0
 23 40  1  0
 23 41  1  0
 24 42  1  0
 24 43  1  0
 25 44  1  0
 26 45  1  0
 26 46  1  0
 27 47  1  0
 27 48  1  0
 28 49  1  0
 29 50  1  0
M  CHG  2   8  -1  11  -1
M  END
>  <UniqueID>  (49) 
45

>  <SMILES>  (49) 
C=c1c(=Cc2c(O)[n-]c(=O)[n-]c2=O)cc(C)n1-c1ccc(N2CCNCC2)cc1

>  <Energy>  (49) 
110.20779887822887

>  <Genealogy>  (49) 
C=c1c(=Cc2c(O)[n-]c(=O)[n-]c2=O)cc(C)n1-c1ccc(N2CCNCC2)cc1 (protonated)
C=c1c(=Cc2c(O)[n-]c(=O)[n-]c2=O)cc(C)n1-c1ccc(N2CCNCC2)cc1 (3D coordinates assigned)
C=c1c(=Cc2c(O)[n-]c(=O)[n-]c2=O)cc(C)n1-c1ccc(N2CCNCC2)cc1 (nonaromatic ring conformer: 110.20779887822887 kcal/mol)

>  <smiles>  (49) 
C=c1c(=Cc2c(O)[nH]c(=O)[nH]c2=O)cc(C)n1-c1ccc(N2CCNCC2)cc1

>  <score_type>  (49) 
oracle

>  <origin>  (49) 
adg

>  <m_score__min__energy>  (49) 
-12.539999999999999

>  <m_primary>  (49) 
energy

$$$$
49:0
     RDKit          3D

 68 71  0  0  0  0  0  0  0  0999 V2000
   63.6600   32.7290   47.5230 C   0  0  0  0  0  0  0  0  0  0  0  0
   63.2760   33.6070   48.7140 C   0  0  0  0  0  0  0  0  0  0  0  0
   61.8580   33.7500   48.8010 O   0  0  0  0  0  0  0  0  0  0  0  0
   60.9350   33.4480   47.7810 C   0  0  0  0  0  0  0  0  0  0  0  0
   60.8500   34.2110   46.6000 C   0  0  0  0  0  0  0  0  0  0  0  0
   59.8690   33.9390   45.6470 C   0  0  0  0  0  0  0  0  0  0  0  0
   58.9700   32.8860   45.8400 C   0  0  0  0  0  0  0  0  0  0  0  0
   57.6540   32.6290   44.6950 S   0  0  0  0  0  0  0  0  0  0  0  0
   58.1640   32.6440   43.2820 O   0  0  0  0  0  0  0  0  0  0  0  0
   56.6420   33.7310   44.8410 O   0  0  0  0  0  0  0  0  0  0  0  0
   56.8870   31.1150   45.0580 N   0  0  0  0  0  0  0  0  0  0  0  0
   57.5530   29.8490   44.9840 C   0  0  0  0  0  0  0  0  0  0  0  0
   58.8800   29.7380   44.5310 C   0  0  0  0  0  0  0  0  0  0  0  0
   59.5150   28.4960   44.5170 C   0  0  0  0  0  0  0  0  0  0  0  0
   58.8330   27.3550   44.9510 C   0  0  0  0  0  0  0  0  0  0  0  0
   57.5040   27.4510   45.3860 C   0  0  0  0  0  0  0  0  0  0  0  0
   56.6560   26.0250   45.9770 S   0  0  0  0  0  0  0  0  0  0  0  0
   57.1250   25.6880   47.3690 O   0  0  0  0  0  0  0  0  0  0  0  0
   55.1840   26.3320   46.0130 O   0  0  0  0  0  0  0  0  0  0  0  0
   56.9550   24.6740   44.9110 N   0  0  0  0  0  0  0  0  0  0  0  0
   57.8590   23.7090   45.5590 C   0  0  0  0  0  0  0  0  0  0  0  0
   58.3040   22.6310   44.5520 C   0  0  0  0  0  0  0  0  0  0  0  0
   57.3110   22.4680   43.3890 C   0  0  0  0  0  0  0  0  0  0  0  0
   55.8710   22.6580   43.8690 C   0  0  0  0  0  0  0  0  0  0  0  0
   55.6730   24.0330   44.5480 C   0  0  0  0  0  0  0  0  0  0  0  0
   56.8630   28.6960   45.3840 C   0  0  0  0  0  0  0  0  0  0  0  0
   59.0740   32.0930   46.9880 C   0  0  0  0  0  0  0  0  0  0  0  0
   60.0540   32.3590   47.9580 C   0  0  0  0  0  0  0  0  0  0  0  0
   60.1030   31.5330   49.1870 C   0  0  0  0  0  0  0  0  0  0  0  0
   60.8240   30.4960   49.2060 O   0  0  0  0  0  0  0  0  0  0  0  0
   59.3490   31.8920   50.3590 N   0  0  0  0  0  0  0  0  0  0  0  0
   59.3780   33.2790   50.8480 C   0  0  0  0  0  0  0  0  0  0  0  0
   58.7370   33.3960   52.2360 C   0  0  0  0  0  0  0  0  0  0  0  0
   57.3500   32.7340   52.2640 C   0  0  0  0  0  0  0  0  0  0  0  0
   57.3150   31.3320   51.6110 C   0  0  0  0  0  0  0  0  0  0  0  0
   58.6920   30.8440   51.1460 C   0  0  0  0  0  0  0  0  0  0  0  0
   64.0759   31.7781   47.8875 H   0  0  0  0  0  0  0  0  0  0  0  0
   62.7673   32.5287   46.9123 H   0  0  0  0  0  0  0  0  0  0  0  0
   64.4131   33.2484   46.9123 H   0  0  0  0  0  0  0  0  0  0  0  0
   63.6493   33.1436   49.6391 H   0  0  0  0  0  0  0  0  0  0  0  0
   63.7235   34.6025   48.5774 H   0  0  0  0  0  0  0  0  0  0  0  0
   61.5645   35.0294   46.4278 H   0  0  0  0  0  0  0  0  0  0  0  0
   59.8022   34.5561   44.7388 H   0  0  0  0  0  0  0  0  0  0  0  0
   59.4186   30.6332   44.1868 H   0  0  0  0  0  0  0  0  0  0  0  0
   60.5536   28.4141   44.1641 H   0  0  0  0  0  0  0  0  0  0  0  0
   59.3409   26.3793   44.9510 H   0  0  0  0  0  0  0  0  0  0  0  0
   58.7452   24.2398   45.9371 H   0  0  0  0  0  0  0  0  0  0  0  0
   57.3265   23.2233   46.3900 H   0  0  0  0  0  0  0  0  0  0  0  0
   59.2846   22.9142   44.1419 H   0  0  0  0  0  0  0  0  0  0  0  0
   58.3525   21.6716   45.0880 H   0  0  0  0  0  0  0  0  0  0  0  0
   57.5350   23.2184   42.6165 H   0  0  0  0  0  0  0  0  0  0  0  0
   57.4135   21.4522   42.9796 H   0  0  0  0  0  0  0  0  0  0  0  0
   55.1944   22.5862   43.0047 H   0  0  0  0  0  0  0  0  0  0  0  0
   55.6491   21.8745   44.6085 H   0  0  0  0  0  0  0  0  0  0  0  0
   55.1316   24.6940   43.8553 H   0  0  0  0  0  0  0  0  0  0  0  0
   55.1060   23.8693   45.4763 H   0  0  0  0  0  0  0  0  0  0  0  0
   55.8114   28.7698   45.6983 H   0  0  0  0  0  0  0  0  0  0  0  0
   58.3803   31.2516   47.1324 H   0  0  0  0  0  0  0  0  0  0  0  0
   60.4234   33.6160   50.9070 H   0  0  0  0  0  0  0  0  0  0  0  0
   58.8052   33.9051   50.1481 H   0  0  0  0  0  0  0  0  0  0  0  0
   59.3858   32.9015   52.9739 H   0  0  0  0  0  0  0  0  0  0  0  0
   58.6193   34.4628   52.4771 H   0  0  0  0  0  0  0  0  0  0  0  0
   57.0333   32.6362   53.3129 H   0  0  0  0  0  0  0  0  0  0  0  0
   56.6758   33.3771   51.6793 H   0  0  0  0  0  0  0  0  0  0  0  0
   56.9203   30.6147   52.3456 H   0  0  0  0  0  0  0  0  0  0  0  0
   56.6770   31.4049   50.7179 H   0  0  0  0  0  0  0  0  0  0  0  0
   59.3103   30.6042   52.0236 H   0  0  0  0  0  0  0  0  0  0  0  0
   58.5685   29.9453   50.5238 H   0  0  0  0  0  0  0  0  0  0  0  0
  1  2  1  0
  2  3  1  0
  3  4  1  0
  4  5  2  0
  5  6  1  0
  6  7  2  0
  7  8  1  0
  8  9  2  0
  8 10  2  0
  8 11  1  0
 11 12  1  0
 12 13  2  0
 13 14  1  0
 14 15  2  0
 15 16  1  0
 16 17  1  0
 17 18  2  0
 17 19  2  0
 17 20  1  0
 20 21  1  0
 21 22  1  0
 22 23  1  0
 23 24  1  0
 24 25  1  0
 16 26  2  0
  7 27  1  0
 27 28  2  0
 28 29  1  0
 29 30  2  0
 29 31  1  0
 31 32  1  0
 32 33  1  0
 33 34  1  0
 34 35  1  0
 35 36  1  0
 28  4  1  0
 36 31  1  0
 26 12  1  0
 25 20  1  0
  1 37  1  0
  1 38  1  0
  1 39  1  0
  2 40  1  0
  2 41  1  0
  5 42  1  0
  6 43  1  0
 13 44  1  0
 14 45  1  0
 15 46  1  0
 21 47  1  0
 21 48  1  0
 22 49  1  0
 22 50  1  0
 23 51  1  0
 23 52  1  0
 24 53  1  0
 24 54  1  0
 25 55  1  0
 25 56  1  0
 26 57  1  0
 27 58  1  0
 32 59  1  0
 32 60  1  0
 33 61  1  0
 33 62  1  0
 34 63  1  0
 34 64  1  0
 35 65  1  0
 35 66  1  0
 36 67  1  0
 36 68  1  0
M  CHG  1  11  -1
M  END
>  <UniqueID>  (50) 
46

>  <SMILES>  (50) 
CCOc1ccc(S(=O)(=O)[N-]c2cccc(S(=O)(=O)N3CCCCC3)c2)cc1C(=O)N1CCCCC1

>  <Energy>  (50) 
81.50883043120679

>  <Genealogy>  (50) 
CCOc1ccc(S(=O)(=O)[N-]c2cccc(S(=O)(=O)N3CCCCC3)c2)cc1C(=O)N1CCCCC1 (protonated)
CCOc1ccc(S(=O)(=O)[N-]c2cccc(S(=O)(=O)N3CCCCC3)c2)cc1C(=O)N1CCCCC1 (3D coordinates assigned)
CCOc1ccc(S(=O)(=O)[N-]c2cccc(S(=O)(=O)N3CCCCC3)c2)cc1C(=O)N1CCCCC1 (nonaromatic ring conformer: 81.50883043120679 kcal/mol)

>  <smiles>  (50) 
CCOc1ccc(S(=O)(=O)Nc2cccc(S(=O)(=O)N3CCCCC3)c2)cc1C(=O)N1CCCCC1

>  <score_type>  (50) 
oracle

>  <origin>  (50) 
adg

>  <m_score__min__energy>  (50) 
-12.44

>  <m_primary>  (50) 
energy

$$$$
50:0
     RDKit          3D

 31 32  0  0  0  0  0  0  0  0999 V2000
   59.0522   31.6306   47.8580 H   0  0  0  0  0  0  0  0  0  0  0  0
   58.8960   30.7390   47.2330 C   0  0  0  0  0  0  0  0  0  0  0  0
   59.2309   29.7531   47.5878 H   0  0  0  0  0  0  0  0  0  0  0  0
   58.2970   30.8540   46.0380 C   0  0  0  0  0  0  0  0  0  0  0  0
   58.0160   29.8330   45.1120 C   0  0  0  0  0  0  0  0  0  0  0  0
   58.3760   28.5320   45.0860 C   0  0  0  0  0  0  0  0  0  0  0  0
   59.3536   28.2881   44.6446 H   0  0  0  0  0  0  0  0  0  0  0  0
   57.5680   27.4110   45.6000 C   0  0  0  0  0  0  0  0  0  0  0  0
   56.1690   27.4980   45.6210 C   0  0  0  0  0  0  0  0  0  0  0  0
   55.5270   28.6610   45.2100 O   0  0  0  0  0  0  0  0  0  0  0  0
   55.4300   26.4450   46.0560 N   0  0  0  0  0  0  0  0  0  0  0  0
   56.0220   25.2910   46.4590 C   0  0  0  0  0  0  0  0  0  0  0  0
   55.3170   24.3300   46.8610 O   0  0  0  0  0  0  0  0  0  0  0  0
   57.3740   25.1720   46.4210 N   0  0  0  0  0  0  0  0  0  0  0  0
   58.1580   26.1950   45.9940 C   0  0  0  0  0  0  0  0  0  0  0  0
   59.4080   26.0430   45.9520 O   0  0  0  0  0  0  0  0  0  0  0  0
   57.2410   30.4590   44.1390 C   0  0  0  0  0  0  0  0  0  0  0  0
   56.6560   29.8310   42.9100 C   0  0  0  0  0  0  0  0  0  0  0  0
   55.9333   29.0552   43.2032 H   0  0  0  0  0  0  0  0  0  0  0  0
   56.1455   30.6007   42.3125 H   0  0  0  0  0  0  0  0  0  0  0  0
   57.4599   29.3763   42.3125 H   0  0  0  0  0  0  0  0  0  0  0  0
   57.1110   31.7610   44.4430 N   0  0  0  0  0  0  0  0  0  0  0  0
   56.5820   32.4740   43.8910 H   0  0  0  0  0  0  0  0  0  0  0  0
   57.7540   32.0090   45.5730 N   0  0  0  0  0  0  0  0  0  0  0  0
   57.7440   33.3280   46.2160 C   0  0  0  0  0  0  0  0  0  0  0  0
   56.7405   33.7688   46.1226 H   0  0  0  0  0  0  0  0  0  0  0  0
   58.0082   33.2088   47.2771 H   0  0  0  0  0  0  0  0  0  0  0  0
   58.7610   34.2510   45.5550 C   0  0  0  0  0  0  0  0  0  0  0  0
   59.3387   34.7753   46.3305 H   0  0  0  0  0  0  0  0  0  0  0  0
   59.4427   33.6568   44.9287 H   0  0  0  0  0  0  0  0  0  0  0  0
   58.2355   34.9870   44.9287 H   0  0  0  0  0  0  0  0  0  0  0  0
  1  2  1  0
  2  3  1  0
  2  4  2  0
  4  5  1  0
  5  6  2  0
  6  7  1  0
  6  8  1  0
  8  9  2  0
  9 10  1  0
  9 11  1  0
 11 12  1  0
 12 13  2  0
 12 14  1  0
 14 15  1  0
 15 16  2  0
  5 17  1  0
 17 18  1  0
 18 19  1  0
 18 20  1  0
 18 21  1  0
 17 22  2  0
 22 23  1  0
 22 24  1  0
 24 25  1  0
 25 26  1  0
 25 27  1  0
 25 28  1  0
 28 29  1  0
 28 30  1  0
 28 31  1  0
 24  4  1  0
 15  8  1  0
M  CHG  4  10  -1  11  -1  14  -1  22   1
M  END
>  <UniqueID>  (51) 
47

>  <SMILES>  (51) 
C=c1/c(=C\c2c([O-])[n-]c(=O)[n-]c2=O)c(C)[nH+]n1CC

>  <Energy>  (51) 
75.0441447976928

>  <Genealogy>  (51) 
C=c1c(=Cc2c([O-])[n-]c(=O)[n-]c2=O)c(C)[nH+]n1CC (protonated)
C=c1/c(=C\c2c([O-])[n-]c(=O)[n-]c2=O)c(C)[nH+]n1CC (cis-trans isomerization)
C=c1/c(=C\c2c([O-])[n-]c(=O)[n-]c2=O)c(C)[nH+]n1CC (3D coordinates assigned)
C=c1/c(=C\c2c([O-])[n-]c(=O)[n-]c2=O)c(C)[nH+]n1CC (optimized conformer: 75.0441447976928 kcal/mol)

>  <smiles>  (51) 
C=c1c(=Cc2c(O)[nH]c(=O)[nH]c2=O)c(C)nn1CC

>  <score_type>  (51) 
oracle

>  <origin>  (51) 
adg

>  <m_score__min__energy>  (51) 
-12.699999999999999

>  <m_primary>  (51) 
energy

$$$$
51:0
     RDKit          3D

 42 44  0  0  0  0  0  0  0  0999 V2000
   55.3200   21.7210   49.9890 C   0  0  0  0  0  0  0  0  0  0  0  0
   57.0050   21.8230   49.4250 S   0  0  0  0  0  0  0  0  0  0  0  0
   57.7200   22.8700   50.2320 O   0  0  0  0  0  0  0  0  0  0  0  0
   57.7040   20.5060   49.6170 O   0  0  0  0  0  0  0  0  0  0  0  0
   57.0490   22.2820   47.7530 N   0  0  0  0  0  0  0  0  0  0  0  0
   56.8590   23.6080   47.2420 C   0  0  0  0  0  0  0  0  0  0  0  0
   55.7960   23.8380   46.3620 C   0  0  0  0  0  0  0  0  0  0  0  0
   55.5710   25.1130   45.8350 C   0  0  0  0  0  0  0  0  0  0  0  0
   56.3970   26.1840   46.1950 C   0  0  0  0  0  0  0  0  0  0  0  0
   56.1450   27.4720   45.6160 N   0  0  0  0  0  0  0  0  0  0  0  0
   57.0580   28.2540   44.8350 C   0  0  0  0  0  0  0  0  0  0  0  0
   57.7680   27.7140   43.9450 O   0  0  0  0  0  0  0  0  0  0  0  0
   57.2090   29.6880   45.1090 C   0  0  0  0  0  0  0  0  0  0  0  0
   58.3000   30.2940   45.6960 C   0  0  0  0  0  0  0  0  0  0  0  0
   57.9570   31.6350   45.7320 C   0  0  0  0  0  0  0  0  0  0  0  0
   58.7740   32.7520   46.2680 C   0  0  0  0  0  0  0  0  0  0  0  0
   58.1880   33.9820   46.6210 C   0  0  0  0  0  0  0  0  0  0  0  0
   58.9720   35.0200   47.1290 C   0  0  0  0  0  0  0  0  0  0  0  0
   60.3480   34.8480   47.2890 C   0  0  0  0  0  0  0  0  0  0  0  0
   60.9500   33.6340   46.9360 C   0  0  0  0  0  0  0  0  0  0  0  0
   62.6830   33.4070   47.1490 S   0  0  0  0  0  0  0  0  0  0  0  0
   63.0380   31.7180   47.2280 N   0  0  0  0  0  0  0  0  0  0  0  0
   63.1330   34.0700   48.4210 O   0  0  0  0  0  0  0  0  0  0  0  0
   63.4230   34.0240   45.9960 O   0  0  0  0  0  0  0  0  0  0  0  0
   60.1620   32.5890   46.4340 C   0  0  0  0  0  0  0  0  0  0  0  0
   56.7310   31.7950   45.1950 N   0  0  0  0  0  0  0  0  0  0  0  0
   56.2750   30.6110   44.8160 N   0  0  0  0  0  0  0  0  0  0  0  0
   57.4810   25.9530   47.0610 C   0  0  0  0  0  0  0  0  0  0  0  0
   57.7070   24.6770   47.5860 C   0  0  0  0  0  0  0  0  0  0  0  0
   55.3009   21.7198   51.0888 H   0  0  0  0  0  0  0  0  0  0  0  0
   54.7546   22.5866   49.6134 H   0  0  0  0  0  0  0  0  0  0  0  0
   54.8631   20.7936   49.6134 H   0  0  0  0  0  0  0  0  0  0  0  0
   55.1310   23.0077   46.0822 H   0  0  0  0  0  0  0  0  0  0  0  0
   54.7398   25.2756   45.1331 H   0  0  0  0  0  0  0  0  0  0  0  0
   59.2272   29.8217   46.0527 H   0  0  0  0  0  0  0  0  0  0  0  0
   57.1048   34.1267   46.4958 H   0  0  0  0  0  0  0  0  0  0  0  0
   58.5036   35.9765   47.4040 H   0  0  0  0  0  0  0  0  0  0  0  0
   60.9605   35.6675   47.6931 H   0  0  0  0  0  0  0  0  0  0  0  0
   64.0770   31.6220   47.1630 H   0  0  0  0  0  0  0  0  0  0  0  0
   60.6334   31.6316   46.1670 H   0  0  0  0  0  0  0  0  0  0  0  0
   58.1548   26.7809   47.3267 H   0  0  0  0  0  0  0  0  0  0  0  0
   58.5511   24.5081   48.2707 H   0  0  0  0  0  0  0  0  0  0  0  0
  1  2  1  0
  2  3  2  0
  2  4  2  0
  2  5  1  0
  5  6  1  0
  6  7  2  0
  7  8  1  0
  8  9  2  0
  9 10  1  0
 10 11  1  0
 11 12  2  0
 11 13  1  0
 13 14  1  0
 14 15  2  0
 15 16  1  0
 16 17  2  0
 17 18  1  0
 18 19  2  0
 19 20  1  0
 20 21  1  0
 21 22  1  0
 21 23  2  0
 21 24  2  0
 20 25  2  0
 15 26  1  0
 26 27  1  0
  9 28  1  0
 28 29  2  0
 29  6  1  0
 27 13  2  0
 25 16  1  0
  1 30  1  0
  1 31  1  0
  1 32  1  0
  7 33  1  0
  8 34  1  0
 14 35  1  0
 17 36  1  0
 18 37  1  0
 19 38  1  0
 22 39  1  0
 25 40  1  0
 28 41  1  0
 29 42  1  0
M  CHG  4   5  -1  10  -1  22  -1  26  -1
M  END
>  <UniqueID>  (52) 
48

>  <SMILES>  (52) 
CS(=O)(=O)[N-]c1ccc([N-]C(=O)c2cc(-c3cccc(S([NH-])(=O)=O)c3)[n-]n2)cc1

>  <Energy>  (52) 
76.55352423459739

>  <Genealogy>  (52) 
CS(=O)(=O)[N-]c1ccc([N-]C(=O)c2cc(-c3cccc(S([NH-])(=O)=O)c3)[n-]n2)cc1 (protonated)
CS(=O)(=O)[N-]c1ccc([N-]C(=O)c2cc(-c3cccc(S([NH-])(=O)=O)c3)[n-]n2)cc1 (3D coordinates assigned)
CS(=O)(=O)[N-]c1ccc([N-]C(=O)c2cc(-c3cccc(S([NH-])(=O)=O)c3)[n-]n2)cc1 (optimized conformer: 76.55352423459739 kcal/mol)

>  <smiles>  (52) 
CS(=O)(=O)Nc1ccc(NC(=O)c2cc(-c3cccc(S(N)(=O)=O)c3)[nH]n2)cc1

>  <score_type>  (52) 
oracle

>  <origin>  (52) 
adg

>  <m_score__min__energy>  (52) 
-15.34

>  <m_primary>  (52) 
energy

$$$$
52:0
     RDKit          3D

 35 37  0  0  0  0  0  0  0  0999 V2000
   57.8900   29.5469   42.8837 H   0  0  0  0  0  0  0  0  0  0  0  0
   57.7940   29.6910   43.9700 C   0  0  0  0  0  0  0  0  0  0  0  0
   57.9300   30.9460   44.4490 C   0  0  0  0  0  0  0  0  0  0  0  0
   58.1470   31.2610   45.8980 C   0  0  0  0  0  0  0  0  0  0  0  0
   58.9560   30.3940   46.7880 C   0  0  0  0  0  0  0  0  0  0  0  0
   60.3600   30.4880   46.7850 C   0  0  0  0  0  0  0  0  0  0  0  0
   60.8594   31.2098   46.1220 H   0  0  0  0  0  0  0  0  0  0  0  0
   61.1230   29.6670   47.6220 C   0  0  0  0  0  0  0  0  0  0  0  0
   62.2197   29.7518   47.6231 H   0  0  0  0  0  0  0  0  0  0  0  0
   60.4940   28.7390   48.4570 C   0  0  0  0  0  0  0  0  0  0  0  0
   61.0954   28.0985   49.1189 H   0  0  0  0  0  0  0  0  0  0  0  0
   59.1020   28.6250   48.4510 C   0  0  0  0  0  0  0  0  0  0  0  0
   58.6085   27.8926   49.1068 H   0  0  0  0  0  0  0  0  0  0  0  0
   58.3350   29.4390   47.6140 C   0  0  0  0  0  0  0  0  0  0  0  0
   57.2402   29.3329   47.6006 H   0  0  0  0  0  0  0  0  0  0  0  0
   57.7420   32.4080   46.3630 N   0  0  0  0  0  0  0  0  0  0  0  0
   57.0490   33.3900   45.5330 C   0  0  0  0  0  0  0  0  0  0  0  0
   57.0808   34.3742   46.0232 H   0  0  0  0  0  0  0  0  0  0  0  0
   56.0007   33.0857   45.3974 H   0  0  0  0  0  0  0  0  0  0  0  0
   57.7410   33.4740   44.1700 C   0  0  0  0  0  0  0  0  0  0  0  0
   58.7771   33.8152   44.3116 H   0  0  0  0  0  0  0  0  0  0  0  0
   57.1886   34.1834   43.5363 H   0  0  0  0  0  0  0  0  0  0  0  0
   57.7520   32.0980   43.4790 C   0  0  0  0  0  0  0  0  0  0  0  0
   58.5796   32.0767   42.7547 H   0  0  0  0  0  0  0  0  0  0  0  0
   56.7744   31.9681   42.9917 H   0  0  0  0  0  0  0  0  0  0  0  0
   57.5250   28.4940   44.8000 C   0  0  0  0  0  0  0  0  0  0  0  0
   56.2270   28.1820   45.2460 C   0  0  0  0  0  0  0  0  0  0  0  0
   55.1470   28.9890   44.8990 O   0  0  0  0  0  0  0  0  0  0  0  0
   56.0200   27.0820   46.0160 N   0  0  0  0  0  0  0  0  0  0  0  0
   55.0530   26.8670   46.3520 H   0  0  0  0  0  0  0  0  0  0  0  0
   57.0470   26.2480   46.3370 C   0  0  0  0  0  0  0  0  0  0  0  0
   56.8370   25.2310   47.0480 O   0  0  0  0  0  0  0  0  0  0  0  0
   58.3010   26.5100   45.8870 N   0  0  0  0  0  0  0  0  0  0  0  0
   58.5610   27.6040   45.1240 C   0  0  0  0  0  0  0  0  0  0  0  0
   59.7410   27.8180   44.7310 O   0  0  0  0  0  0  0  0  0  0  0  0
  1  2  1  0
  2  3  2  0
  3  4  1  0
  4  5  1  0
  5  6  2  0
  6  7  1  0
  6  8  1  0
  8  9  1  0
  8 10  2  0
 10 11  1  0
 10 12  1  0
 12 13  1  0
 12 14  2  0
 14 15  1  0
  4 16  2  0
 16 17  1  0
 17 18  1  0
 17 19  1  0
 17 20  1  0
 20 21  1  0
 20 22  1  0
 20 23  1  0
 23 24  1  0
 23 25  1  0
  2 26  1  0
 26 27  2  0
 27 28  1  0
 27 29  1  0
 29 30  1  0
 29 31  1  0
 31 32  2  0
 31 33  1  0
 33 34  1  0
 34 35  2  0
 23  3  1  0
 34 26  1  0
 14  5  1  0
M  CHG  2  28  -1  33  -1
M  END
>  <UniqueID>  (53) 
49

>  <SMILES>  (53) 
O=c1[n-]c(=O)c(/C=C2/CCCN=C2c2ccccc2)c([O-])[nH]1

>  <Energy>  (53) 
52.08199458067407

>  <Genealogy>  (53) 
O=c1[n-]c(=O)c(C=C2CCCN=C2c2ccccc2)c([O-])[nH]1 (protonated)
O=c1[n-]c(=O)c(/C=C2/CCCN=C2c2ccccc2)c([O-])[nH]1 (cis-trans isomerization)
O=c1[n-]c(=O)c(/C=C2/CCCN=C2c2ccccc2)c([O-])[nH]1 (3D coordinates assigned)
O=c1[n-]c(=O)c(/C=C2/CCCN=C2c2ccccc2)c([O-])[nH]1 (nonaromatic ring conformer: 52.08199458067407 kcal/mol)

>  <smiles>  (53) 
O=c1[nH]c(O)c(C=C2CCCN=C2c2ccccc2)c(=O)[nH]1

>  <score_type>  (53) 
oracle

>  <origin>  (53) 
adg

>  <m_score__min__energy>  (53) 
-12.56

>  <m_primary>  (53) 
energy

$$$$
53:0
     RDKit          3D

 60 63  0  0  0  0  0  0  0  0999 V2000
   55.7190   22.4470   43.0370 O   0  0  0  0  0  0  0  0  0  0  0  0
   55.7870   22.6570   44.2790 C   0  0  0  0  0  0  0  0  0  0  0  0
   54.6730   22.3470   45.1280 N   0  0  0  0  0  0  0  0  0  0  0  0
   53.9010   23.3520   45.8530 C   0  0  0  0  0  0  0  0  0  0  0  0
   52.5110   23.4620   45.2860 C   0  0  0  0  0  0  0  0  0  0  0  0
   51.4210   22.9100   45.9840 C   0  0  0  0  0  0  0  0  0  0  0  0
   50.1280   22.9850   45.4520 C   0  0  0  0  0  0  0  0  0  0  0  0
   49.9140   23.6090   44.2180 C   0  0  0  0  0  0  0  0  0  0  0  0
   50.9950   24.1530   43.5120 C   0  0  0  0  0  0  0  0  0  0  0  0
   52.2910   24.0790   44.0410 C   0  0  0  0  0  0  0  0  0  0  0  0
   56.9520   23.2910   44.8210 N   0  0  0  0  0  0  0  0  0  0  0  0
   57.0920   24.7060   44.9840 C   0  0  0  0  0  0  0  0  0  0  0  0
   56.5800   25.3130   46.1350 C   0  0  0  0  0  0  0  0  0  0  0  0
   56.7050   26.6920   46.3180 C   0  0  0  0  0  0  0  0  0  0  0  0
   57.3060   27.4870   45.3340 C   0  0  0  0  0  0  0  0  0  0  0  0
   57.4160   28.8970   45.5740 N   0  0  0  0  0  0  0  0  0  0  0  0
   56.8630   30.1590   44.5220 S   0  0  0  0  0  0  0  0  0  0  0  0
   55.3630   30.2550   44.5720 O   0  0  0  0  0  0  0  0  0  0  0  0
   57.2650   29.8270   43.1130 O   0  0  0  0  0  0  0  0  0  0  0  0
   57.6170   31.6860   44.9760 C   0  0  0  0  0  0  0  0  0  0  0  0
   57.5410   32.8050   44.1370 C   0  0  0  0  0  0  0  0  0  0  0  0
   58.1850   33.9920   44.4950 C   0  0  0  0  0  0  0  0  0  0  0  0
   58.9100   34.0730   45.6890 C   0  0  0  0  0  0  0  0  0  0  0  0
   59.6000   35.2440   45.9860 O   0  0  0  0  0  0  0  0  0  0  0  0
   58.9630   32.9650   46.5580 C   0  0  0  0  0  0  0  0  0  0  0  0
   59.7320   33.0090   47.8230 C   0  0  0  0  0  0  0  0  0  0  0  0
   59.1170   33.2550   48.8960 O   0  0  0  0  0  0  0  0  0  0  0  0
   61.1590   32.7850   47.8580 N   0  0  0  0  0  0  0  0  0  0  0  0
   62.0150   33.2110   46.7390 C   0  0  0  0  0  0  0  0  0  0  0  0
   63.2890   33.8710   47.2750 C   0  0  0  0  0  0  0  0  0  0  0  0
   64.0730   32.9500   48.2330 C   0  0  0  0  0  0  0  0  0  0  0  0
   63.2160   31.8330   48.8590 C   0  0  0  0  0  0  0  0  0  0  0  0
   61.7730   32.2840   49.0990 C   0  0  0  0  0  0  0  0  0  0  0  0
   58.3230   31.7710   46.1820 C   0  0  0  0  0  0  0  0  0  0  0  0
   57.7790   26.8820   44.1550 C   0  0  0  0  0  0  0  0  0  0  0  0
   57.6840   25.4970   43.9880 C   0  0  0  0  0  0  0  0  0  0  0  0
   53.8375   23.0641   46.9128 H   0  0  0  0  0  0  0  0  0  0  0  0
   54.4032   24.3255   45.7529 H   0  0  0  0  0  0  0  0  0  0  0  0
   51.5857   22.4167   46.9533 H   0  0  0  0  0  0  0  0  0  0  0  0
   49.2803   22.5533   46.0042 H   0  0  0  0  0  0  0  0  0  0  0  0
   48.8975   23.6724   43.8024 H   0  0  0  0  0  0  0  0  0  0  0  0
   50.8263   24.6395   42.5400 H   0  0  0  0  0  0  0  0  0  0  0  0
   53.1374   24.5041   43.4817 H   0  0  0  0  0  0  0  0  0  0  0  0
   56.0770   24.7022   46.8991 H   0  0  0  0  0  0  0  0  0  0  0  0
   56.3288   27.1568   47.2413 H   0  0  0  0  0  0  0  0  0  0  0  0
   56.9741   32.7492   43.1960 H   0  0  0  0  0  0  0  0  0  0  0  0
   58.1217   34.8688   43.8338 H   0  0  0  0  0  0  0  0  0  0  0  0
   62.2864   32.3336   46.1336 H   0  0  0  0  0  0  0  0  0  0  0  0
   61.4659   33.9361   46.1203 H   0  0  0  0  0  0  0  0  0  0  0  0
   63.9372   34.1293   46.4246 H   0  0  0  0  0  0  0  0  0  0  0  0
   62.9895   34.7652   47.8412 H   0  0  0  0  0  0  0  0  0  0  0  0
   64.8949   32.4830   47.6706 H   0  0  0  0  0  0  0  0  0  0  0  0
   64.4342   33.5793   49.0598 H   0  0  0  0  0  0  0  0  0  0  0  0
   63.2094   30.9676   48.1800 H   0  0  0  0  0  0  0  0  0  0  0  0
   63.6567   31.5715   49.8323 H   0  0  0  0  0  0  0  0  0  0  0  0
   61.1871   31.4302   49.4700 H   0  0  0  0  0  0  0  0  0  0  0  0
   61.7808   33.0990   49.8378 H   0  0  0  0  0  0  0  0  0  0  0  0
   58.3776   30.8934   46.8430 H   0  0  0  0  0  0  0  0  0  0  0  0
   58.2249   27.5005   43.3622 H   0  0  0  0  0  0  0  0  0  0  0  0
   58.0744   25.0265   43.0735 H   0  0  0  0  0  0  0  0  0  0  0  0
  1  2  2  0
  2  3  1  0
  3  4  1  0
  4  5  1  0
  5  6  2  0
  6  7  1  0
  7  8  2  0
  8  9  1  0
  9 10  2  0
  2 11  1  0
 11 12  1  0
 12 13  2  0
 13 14  1  0
 14 15  2  0
 15 16  1  0
 16 17  1  0
 17 18  2  0
 17 19  2  0
 17 20  1  0
 20 21  2  0
 21 22  1  0
 22 23  2  0
 23 24  1  0
 23 25  1  0
 25 26  1  0
 26 27  2  0
 26 28  1  0
 28 29  1  0
 29 30  1  0
 30 31  1  0
 31 32  1  0
 32 33  1  0
 25 34  2  0
 15 35  1  0
 35 36  2  0
 10  5  1  0
 36 12  1  0
 34 20  1  0
 33 28  1  0
  4 37  1  0
  4 38  1  0
  6 39  1  0
  7 40  1  0
  8 41  1  0
  9 42  1  0
 10 43  1  0
 13 44  1  0
 14 45  1  0
 21 46  1  0
 22 47  1  0
 29 48  1  0
 29 49  1  0
 30 50  1  0
 30 51  1  0
 31 52  1  0
 31 53  1  0
 32 54  1  0
 32 55  1  0
 33 56  1  0
 33 57  1  0
 34 58  1  0
 35 59  1  0
 36 60  1  0
M  CHG  4   3  -1  11  -1  16  -1  24  -1
M  END
>  <UniqueID>  (54) 
50

>  <SMILES>  (54) 
O=C([N-]Cc1ccccc1)[N-]c1ccc([N-]S(=O)(=O)c2ccc([O-])c(C(=O)N3CCCCC3)c2)cc1

>  <Energy>  (54) 
75.98973224570277

>  <Genealogy>  (54) 
O=C([N-]Cc1ccccc1)[N-]c1ccc([N-]S(=O)(=O)c2ccc([O-])c(C(=O)N3CCCCC3)c2)cc1 (protonated)
O=C([N-]Cc1ccccc1)[N-]c1ccc([N-]S(=O)(=O)c2ccc([O-])c(C(=O)N3CCCCC3)c2)cc1 (3D coordinates assigned)
O=C([N-]Cc1ccccc1)[N-]c1ccc([N-]S(=O)(=O)c2ccc([O-])c(C(=O)N3CCCCC3)c2)cc1 (nonaromatic ring conformer: 75.98973224570277 kcal/mol)

>  <smiles>  (54) 
O=C(NCc1ccccc1)Nc1ccc(NS(=O)(=O)c2ccc(O)c(C(=O)N3CCCCC3)c2)cc1

>  <score_type>  (54) 
oracle

>  <origin>  (54) 
adg

>  <m_score__min__energy>  (54) 
-15.369999999999999

>  <m_primary>  (54) 
energy

$$$$
54:0
     RDKit          3D

 43 45  0  0  0  0  0  0  0  0999 V2000
   57.9174   22.4603   46.0035 H   0  0  0  0  0  0  0  0  0  0  0  0
   57.2610   23.3430   45.9980 C   0  0  0  0  0  0  0  0  0  0  0  0
   57.7980   24.5900   46.0780 N   0  0  0  0  0  0  0  0  0  0  0  0
   57.0240   25.7130   46.0750 C   0  0  0  0  0  0  0  0  0  0  0  0
   57.5540   26.9000   46.1520 N   0  0  0  0  0  0  0  0  0  0  0  0
   58.0800   27.6920   45.0730 C   0  0  0  0  0  0  0  0  0  0  0  0
   58.3960   27.1510   43.9790 O   0  0  0  0  0  0  0  0  0  0  0  0
   58.2520   29.1530   45.2460 C   0  0  0  0  0  0  0  0  0  0  0  0
   59.2550   29.8130   45.9480 C   0  0  0  0  0  0  0  0  0  0  0  0
   60.3980   29.1980   46.6890 C   0  0  0  0  0  0  0  0  0  0  0  0
   60.2256   29.2908   47.7714 H   0  0  0  0  0  0  0  0  0  0  0  0
   60.4793   28.1344   46.4205 H   0  0  0  0  0  0  0  0  0  0  0  0
   61.3304   29.7162   46.4205 H   0  0  0  0  0  0  0  0  0  0  0  0
   59.0720   31.1110   45.8780 O   0  0  0  0  0  0  0  0  0  0  0  0
   57.9950   31.3580   45.1670 C   0  0  0  0  0  0  0  0  0  0  0  0
   57.4840   32.7510   44.8630 C   0  0  0  0  0  0  0  0  0  0  0  0
   56.5919   32.6348   44.2301 H   0  0  0  0  0  0  0  0  0  0  0  0
   58.5220   33.5760   44.0600 C   0  0  0  0  0  0  0  0  0  0  0  0
   59.2497   32.8825   43.6132 H   0  0  0  0  0  0  0  0  0  0  0  0
   57.9690   34.1429   43.2966 H   0  0  0  0  0  0  0  0  0  0  0  0
   59.2850   34.5960   44.9240 C   0  0  0  0  0  0  0  0  0  0  0  0
   60.2617   34.7996   44.4607 H   0  0  0  0  0  0  0  0  0  0  0  0
   58.6866   35.5168   44.9867 H   0  0  0  0  0  0  0  0  0  0  0  0
   59.4970   34.0850   46.2840 N   0  0  0  0  0  0  0  0  0  0  0  0
   60.1140   34.7540   46.8020 H   0  0  0  0  0  0  0  0  0  0  0  0
   59.9950   33.1650   46.2380 H   0  0  0  0  0  0  0  0  0  0  0  0
   58.2290   33.9400   47.0260 C   0  0  0  0  0  0  0  0  0  0  0  0
   58.3732   33.1908   47.8184 H   0  0  0  0  0  0  0  0  0  0  0  0
   57.9756   34.9314   47.4296 H   0  0  0  0  0  0  0  0  0  0  0  0
   57.0420   33.4930   46.1400 C   0  0  0  0  0  0  0  0  0  0  0  0
   56.3988   32.8227   46.7291 H   0  0  0  0  0  0  0  0  0  0  0  0
   56.5100   34.4020   45.8227 H   0  0  0  0  0  0  0  0  0  0  0  0
   57.4380   30.1600   44.7380 C   0  0  0  0  0  0  0  0  0  0  0  0
   56.2090   29.9840   43.8940 C   0  0  0  0  0  0  0  0  0  0  0  0
   55.3317   29.8584   44.5455 H   0  0  0  0  0  0  0  0  0  0  0  0
   56.0701   30.8714   43.2590 H   0  0  0  0  0  0  0  0  0  0  0  0
   56.3247   29.0933   43.2590 H   0  0  0  0  0  0  0  0  0  0  0  0
   55.6290   25.5860   45.9870 C   0  0  0  0  0  0  0  0  0  0  0  0
   54.8120   26.7120   45.9810 O   0  0  0  0  0  0  0  0  0  0  0  0
   55.0590   24.3130   45.9030 C   0  0  0  0  0  0  0  0  0  0  0  0
   53.9669   24.2017   45.8323 H   0  0  0  0  0  0  0  0  0  0  0  0
   55.8780   23.1830   45.9090 C   0  0  0  0  0  0  0  0  0  0  0  0
   55.4378   22.1770   45.8443 H   0  0  0  0  0  0  0  0  0  0  0  0
  1  2  1  0
  2  3  1  0
  3  4  1  0
  4  5  2  0
  5  6  1  0
  6  7  2  0
  6  8  1  0
  8  9  2  0
  9 10  1  0
 10 11  1  0
 10 12  1  0
 10 13  1  0
  9 14  1  0
 14 15  1  0
 15 16  1  0
 16 17  1  0
 16 18  1  0
 18 19  1  0
 18 20  1  0
 18 21  1  0
 21 22  1  0
 21 23  1  0
 21 24  1  0
 24 25  1  0
 24 26  1  0
 24 27  1  0
 27 28  1  0
 27 29  1  0
 27 30  1  0
 30 31  1  0
 30 32  1  0
 15 33  2  0
 33 34  1  0
 34 35  1  0
 34 36  1  0
 34 37  1  0
  4 38  1  0
 38 39  1  0
 38 40  2  0
 40 41  1  0
 40 42  1  0
 42 43  1  0
 42  2  2  0
 33  8  1  0
 30 16  1  0
M  CHG  3   3  -1  24   1  39  -1
M  END
>  <UniqueID>  (55) 
51

>  <SMILES>  (55) 
Cc1oc(C2CC[NH2+]CC2)c(C)c1C(=O)/N=c1\[n-]cccc1[O-]

>  <Energy>  (55) 
79.00035471148588

>  <Genealogy>  (55) 
Cc1oc(C2CC[NH2+]CC2)c(C)c1C(=O)N=c1[n-]cccc1[O-] (protonated)
Cc1oc(C2CC[NH2+]CC2)c(C)c1C(=O)/N=c1\[n-]cccc1[O-] (cis-trans isomerization)
Cc1oc(C2CC[NH2+]CC2)c(C)c1C(=O)/N=c1\[n-]cccc1[O-] (3D coordinates assigned)
Cc1oc(C2CC[NH2+]CC2)c(C)c1C(=O)/N=c1\[n-]cccc1[O-] (nonaromatic ring conformer: 79.00035471148588 kcal/mol)

>  <smiles>  (55) 
Cc1oc(C2CCNCC2)c(C)c1C(=O)N=c1[nH]cccc1O

>  <score_type>  (55) 
oracle

>  <origin>  (55) 
adg

>  <m_score__min__energy>  (55) 
-11.26

>  <m_primary>  (55) 
energy

$$$$
55:0
     RDKit          3D

 59 62  0  0  0  0  0  0  0  0999 V2000
   57.1480   31.0650   51.6490 C   0  0  0  0  0  0  0  0  0  0  0  0
   58.4630   30.9500   50.8790 C   0  0  0  0  0  0  0  0  0  0  0  0
   58.5160   31.9860   49.7520 C   0  0  0  0  0  0  0  0  0  0  0  0
   58.5750   29.5980   50.3300 N   0  0  0  0  0  0  0  0  0  0  0  0
   59.5810   29.1530   49.4090 C   0  0  0  0  0  0  0  0  0  0  0  0
   60.7650   29.5510   49.5640 O   0  0  0  0  0  0  0  0  0  0  0  0
   59.2750   28.2380   48.2910 C   0  0  0  0  0  0  0  0  0  0  0  0
   60.1270   27.1560   48.0220 C   0  0  0  0  0  0  0  0  0  0  0  0
   59.8450   26.2850   46.9670 C   0  0  0  0  0  0  0  0  0  0  0  0
   58.7280   26.5040   46.1570 C   0  0  0  0  0  0  0  0  0  0  0  0
   57.8980   27.6100   46.3780 C   0  0  0  0  0  0  0  0  0  0  0  0
   56.7670   27.8000   45.5130 N   0  0  0  0  0  0  0  0  0  0  0  0
   56.3680   29.0220   44.8740 C   0  0  0  0  0  0  0  0  0  0  0  0
   55.1480   29.3410   44.8330 O   0  0  0  0  0  0  0  0  0  0  0  0
   57.3640   29.9170   44.3360 N   0  0  0  0  0  0  0  0  0  0  0  0
   56.9720   31.1320   43.6160 C   0  0  0  0  0  0  0  0  0  0  0  0
   57.0230   32.3190   44.5830 C   0  0  0  0  0  0  0  0  0  0  0  0
   58.2720   32.3050   45.4410 C   0  0  0  0  0  0  0  0  0  0  0  0
   58.6000   33.4480   46.1840 C   0  0  0  0  0  0  0  0  0  0  0  0
   59.7120   33.4280   47.0370 C   0  0  0  0  0  0  0  0  0  0  0  0
   60.0670   34.6370   47.8550 C   0  0  0  0  0  0  0  0  0  0  0  0
   60.6530   34.2520   49.1000 O   0  0  0  0  0  0  0  0  0  0  0  0
   61.8600   33.5480   49.2430 C   0  0  0  0  0  0  0  0  0  0  0  0
   62.9790   33.7800   48.4190 C   0  0  0  0  0  0  0  0  0  0  0  0
   64.1510   33.0350   48.5970 C   0  0  0  0  0  0  0  0  0  0  0  0
   64.2180   32.0590   49.5940 C   0  0  0  0  0  0  0  0  0  0  0  0
   63.1140   31.8290   50.4200 C   0  0  0  0  0  0  0  0  0  0  0  0
   61.9430   32.5740   50.2470 C   0  0  0  0  0  0  0  0  0  0  0  0
   60.4750   32.3060   47.1260 N   0  0  0  0  0  0  0  0  0  0  0  0
   60.1820   31.1800   46.4260 C   0  0  0  0  0  0  0  0  0  0  0  0
   59.0590   31.1390   45.5880 C   0  0  0  0  0  0  0  0  0  0  0  0
   58.7550   29.8880   44.8010 C   0  0  0  0  0  0  0  0  0  0  0  0
   58.1660   28.4680   47.4600 C   0  0  0  0  0  0  0  0  0  0  0  0
   57.3531   31.0471   52.7296 H   0  0  0  0  0  0  0  0  0  0  0  0
   56.6504   32.0101   51.3858 H   0  0  0  0  0  0  0  0  0  0  0  0
   56.4940   30.2206   51.3858 H   0  0  0  0  0  0  0  0  0  0  0  0
   59.3044   31.1434   51.5606 H   0  0  0  0  0  0  0  0  0  0  0  0
   58.5677   32.9961   50.1846 H   0  0  0  0  0  0  0  0  0  0  0  0
   59.4062   31.8071   49.1310 H   0  0  0  0  0  0  0  0  0  0  0  0
   57.6122   31.8989   49.1310 H   0  0  0  0  0  0  0  0  0  0  0  0
   61.0197   26.9932   48.6438 H   0  0  0  0  0  0  0  0  0  0  0  0
   60.5035   25.4253   46.7737 H   0  0  0  0  0  0  0  0  0  0  0  0
   58.4991   25.8033   45.3406 H   0  0  0  0  0  0  0  0  0  0  0  0
   57.6657   31.3062   42.7803 H   0  0  0  0  0  0  0  0  0  0  0  0
   55.9525   31.0178   43.2189 H   0  0  0  0  0  0  0  0  0  0  0  0
   57.0040   33.2518   44.0002 H   0  0  0  0  0  0  0  0  0  0  0  0
   56.1528   32.2472   45.2521 H   0  0  0  0  0  0  0  0  0  0  0  0
   57.9868   34.3571   46.0977 H   0  0  0  0  0  0  0  0  0  0  0  0
   60.7843   35.2542   47.2941 H   0  0  0  0  0  0  0  0  0  0  0  0
   59.1488   35.2075   48.0585 H   0  0  0  0  0  0  0  0  0  0  0  0
   62.9317   34.5487   47.6335 H   0  0  0  0  0  0  0  0  0  0  0  0
   65.0214   33.2188   47.9500 H   0  0  0  0  0  0  0  0  0  0  0  0
   65.1385   31.4721   49.7290 H   0  0  0  0  0  0  0  0  0  0  0  0
   63.1662   31.0617   51.2065 H   0  0  0  0  0  0  0  0  0  0  0  0
   61.0799   32.3938   50.9047 H   0  0  0  0  0  0  0  0  0  0  0  0
   60.8293   30.2953   46.5170 H   0  0  0  0  0  0  0  0  0  0  0  0
   59.4286   29.8301   43.9333 H   0  0  0  0  0  0  0  0  0  0  0  0
   58.9033   29.0092   45.4458 H   0  0  0  0  0  0  0  0  0  0  0  0
   57.5035   29.3238   47.6565 H   0  0  0  0  0  0  0  0  0  0  0  0
  1  2  1  0
  2  3  1  0
  2  4  1  0
  4  5  1  0
  5  6  2  0
  5  7  1  0
  7  8  2  0
  8  9  1  0
  9 10  2  0
 10 11  1  0
 11 12  1  0
 12 13  1  0
 13 14  2  0
 13 15  1  0
 15 16  1  0
 16 17  1  0
 17 18  1  0
 18 19  2  0
 19 20  1  0
 20 21  1  0
 21 22  1  0
 22 23  1  0
 23 24  2  0
 24 25  1  0
 25 26  2  0
 26 27  1  0
 27 28  2  0
 20 29  2  0
 29 30  1  0
 30 31  2  0
 31 32  1  0
 11 33  2  0
 33  7  1  0
 32 15  1  0
 31 18  1  0
 28 23  1  0
  1 34  1  0
  1 35  1  0
  1 36  1  0
  2 37  1  0
  3 38  1  0
  3 39  1  0
  3 40  1  0
  8 41  1  0
  9 42  1  0
 10 43  1  0
 16 44  1  0
 16 45  1  0
 17 46  1  0
 17 47  1  0
 19 48  1  0
 21 49  1  0
 21 50  1  0
 24 51  1  0
 25 52  1  0
 26 53  1  0
 27 54  1  0
 28 55  1  0
 30 56  1  0
 32 57  1  0
 32 58  1  0
 33 59  1  0
M  CHG  2   4  -1  12  -1
M  END
>  <UniqueID>  (56) 
52

>  <SMILES>  (56) 
CC(C)[N-]C(=O)c1cccc([N-]C(=O)N2CCc3cc(COc4ccccc4)ncc3C2)c1

>  <Energy>  (56) 
69.10786200150547

>  <Genealogy>  (56) 
CC(C)[N-]C(=O)c1cccc([N-]C(=O)N2CCc3cc(COc4ccccc4)ncc3C2)c1 (protonated)
CC(C)[N-]C(=O)c1cccc([N-]C(=O)N2CCc3cc(COc4ccccc4)ncc3C2)c1 (3D coordinates assigned)
CC(C)[N-]C(=O)c1cccc([N-]C(=O)N2CCc3cc(COc4ccccc4)ncc3C2)c1 (nonaromatic ring conformer: 69.10786200150547 kcal/mol)

>  <smiles>  (56) 
CC(C)NC(=O)c1cccc(NC(=O)N2CCc3cc(COc4ccccc4)ncc3C2)c1

>  <score_type>  (56) 
oracle

>  <origin>  (56) 
adg

>  <m_score__min__energy>  (56) 
-12.16

>  <m_primary>  (56) 
energy

$$$$
56:0
     RDKit          3D

 49 52  0  0  1  0  0  0  0  0999 V2000
   63.0720   33.8390   46.4260 C   0  0  0  0  0  0  0  0  0  0  0  0
   63.3540   32.7970   47.5180 C   0  0  0  0  0  0  0  0  0  0  0  0
   62.0600   32.5730   48.1540 N   0  0  0  0  0  0  0  0  0  0  0  0
   61.0910   31.9890   47.5770 C   0  0  0  0  0  0  0  0  0  0  0  0
   59.9090   32.5940   47.3680 N   0  0  0  0  0  0  0  0  0  0  0  0
   58.8680   32.0040   46.7640 C   0  0  0  0  0  0  0  0  0  0  0  0
   57.7800   32.6340   46.5980 N   0  0  0  0  0  0  0  0  0  0  0  0
   57.4380   33.4640   45.4640 C   0  0  0  0  0  0  0  0  0  0  0  0
   58.0580   33.1950   44.1300 C   0  0  0  0  0  0  0  0  0  0  0  0
   58.7040   34.2270   44.9460 C   0  0  0  0  0  0  0  0  0  0  0  0
   58.9710   30.7140   46.3180 C   0  0  0  0  0  0  0  0  0  0  0  0
   58.1570   29.8600   45.6990 N   0  0  0  0  0  0  0  0  0  0  0  0
   58.8570   28.6990   45.5210 C   0  0  0  0  0  0  0  0  0  0  0  0
   58.3490   27.4790   44.8770 C   0  0  0  0  0  0  0  0  0  0  0  0
   57.9670   26.3890   45.6010 C   0  0  0  0  0  0  0  0  0  0  0  0
   57.4920   25.2440   44.9930 C   0  0  0  0  0  0  0  0  0  0  0  0
   57.3870   25.1710   43.6210 C   0  0  0  0  0  0  0  0  0  0  0  0
   56.9110   24.0400   42.9200 N   0  0  0  0  0  0  0  0  0  0  0  0
   56.6390   22.5170   43.6520 S   0  0  0  0  0  0  0  0  0  0  0  0
   58.0380   21.8540   44.4790 C   0  0  0  0  0  0  0  0  0  0  0  0
   56.2000   21.5370   42.6050 O   0  0  0  0  0  0  0  0  0  0  0  0
   55.5360   22.7290   44.6760 O   0  0  0  0  0  0  0  0  0  0  0  0
   57.7690   26.2680   42.8630 C   0  0  0  0  0  0  0  0  0  0  0  0
   58.2420   27.3980   43.4950 C   0  0  0  0  0  0  0  0  0  0  0  0
   60.1170   28.8190   46.0310 C   0  0  0  0  0  0  0  0  0  0  0  0
   60.2020   30.0940   46.5390 C   0  0  0  0  0  0  0  0  0  0  0  0
   61.2220   30.7200   47.1500 N   0  0  0  0  0  0  0  0  0  0  0  0
   62.8120   34.7998   46.8943 H   0  0  0  0  0  0  0  0  0  0  0  0
   63.9680   33.9665   45.8007 H   0  0  0  0  0  0  0  0  0  0  0  0
   62.2340   33.4972   45.8007 H   0  0  0  0  0  0  0  0  0  0  0  0
   63.7364   31.8650   47.0763 H   0  0  0  0  0  0  0  0  0  0  0  0
   64.1175   33.1373   48.2330 H   0  0  0  0  0  0  0  0  0  0  0  0
   59.8030   33.5650   47.6940 H   0  0  0  0  0  0  0  0  0  0  0  0
   56.4003   33.6536   45.7759 H   0  0  0  0  0  0  0  0  0  0  0  0
   58.5764   32.2400   43.9593 H   0  0  0  0  0  0  0  0  0  0  0  0
   57.6632   33.1825   43.1034 H   0  0  0  0  0  0  0  0  0  0  0  0
   59.6879   34.0373   45.3998 H   0  0  0  0  0  0  0  0  0  0  0  0
   58.9784   35.2824   44.8016 H   0  0  0  0  0  0  0  0  0  0  0  0
   57.1830   29.9220   45.3640 H   0  0  0  0  0  0  0  0  0  0  0  0
   58.0390   26.4225   46.6981 H   0  0  0  0  0  0  0  0  0  0  0  0
   57.1948   24.3826   45.6092 H   0  0  0  0  0  0  0  0  0  0  0  0
   56.7260   24.1860   41.8840 H   0  0  0  0  0  0  0  0  0  0  0  0
   57.8887   21.9248   45.5665 H   0  0  0  0  0  0  0  0  0  0  0  0
   58.1664   20.7992   44.1944 H   0  0  0  0  0  0  0  0  0  0  0  0
   58.9357   22.4225   44.1944 H   0  0  0  0  0  0  0  0  0  0  0  0
   57.6951   26.2365   41.7659 H   0  0  0  0  0  0  0  0  0  0  0  0
   58.5441   28.2625   42.8855 H   0  0  0  0  0  0  0  0  0  0  0  0
   60.9049   28.0514   46.0349 H   0  0  0  0  0  0  0  0  0  0  0  0
   62.1220   30.2100   47.2910 H   0  0  0  0  0  0  0  0  0  0  0  0
  1  2  1  0
  2  3  1  0
  3  4  2  0
  4  5  1  0
  5  6  1  0
  6  7  2  0
  7  8  1  0
  8  9  1  0
  9 10  1  0
  6 11  1  0
 11 12  1  0
 12 13  1  0
 13 14  1  0
 14 15  2  0
 15 16  1  0
 16 17  2  0
 17 18  1  0
 18 19  1  0
 19 20  1  0
 19 21  2  0
 19 22  2  0
 17 23  1  0
 23 24  2  0
 13 25  2  0
 25 26  1  0
 26 27  1  0
 27  4  1  0
 10  8  1  0
 26 11  2  0
 24 14  1  0
  1 28  1  0
  1 29  1  0
  1 30  1  0
  2 31  1  0
  2 32  1  0
  5 33  1  0
  8 34  1  0
  9 35  1  0
  9 36  1  0
 10 37  1  0
 10 38  1  0
 12 39  1  0
 15 40  1  0
 16 41  1  0
 18 42  1  0
 20 43  1  0
 20 44  1  0
 20 45  1  0
 23 46  1  0
 24 47  1  0
 25 48  1  0
 27 49  1  0
M  END
>  <smiles>  (57) 
CCN=c1[nH]c(=NC2CC2)c2[nH]c(-c3ccc(NS(C)(=O)=O)cc3)cc2[nH]1

>  <score_type>  (57) 
oracle

>  <origin>  (57) 
adg

>  <m_score__min__energy>  (57) 
-8.0500000000000007

>  <m_primary>  (57) 
energy

$$$$
57:0
     RDKit          3D

 65 69  0  0  0  0  0  0  0  0999 V2000
   57.5890   25.5620   47.4100 C   0  0  0  0  0  0  0  0  0  0  0  0
   57.9690   26.2020   46.2930 C   0  0  0  0  0  0  0  0  0  0  0  0
   57.6780   25.8190   44.9790 C   0  0  0  0  0  0  0  0  0  0  0  0
   56.9660   24.7470   44.5790 C   0  0  0  0  0  0  0  0  0  0  0  0
   55.5700   24.4880   44.9720 C   0  0  0  0  0  0  0  0  0  0  0  0
   54.9890   23.2790   44.8650 N   0  0  0  0  0  0  0  0  0  0  0  0
   53.7710   23.4650   45.4180 C   0  0  0  0  0  0  0  0  0  0  0  0
   52.9140   22.5450   45.4980 O   0  0  0  0  0  0  0  0  0  0  0  0
   53.5490   24.7090   45.8950 N   0  0  0  0  0  0  0  0  0  0  0  0
   54.7010   25.3410   45.6180 C   0  0  0  0  0  0  0  0  0  0  0  0
   54.9680   26.6520   45.9960 O   0  0  0  0  0  0  0  0  0  0  0  0
   58.3180   26.7380   44.1570 C   0  0  0  0  0  0  0  0  0  0  0  0
   58.9390   27.6490   44.9870 C   0  0  0  0  0  0  0  0  0  0  0  0
   59.7470   28.8190   44.5100 C   0  0  0  0  0  0  0  0  0  0  0  0
   58.7340   27.3230   46.2830 N   0  0  0  0  0  0  0  0  0  0  0  0
   59.1990   28.0730   47.4210 C   0  0  0  0  0  0  0  0  0  0  0  0
   58.6060   29.3010   47.7470 C   0  0  0  0  0  0  0  0  0  0  0  0
   59.0680   30.0390   48.8400 C   0  0  0  0  0  0  0  0  0  0  0  0
   60.1430   29.5710   49.6090 C   0  0  0  0  0  0  0  0  0  0  0  0
   60.6150   30.3620   50.7970 C   0  0  0  0  0  0  0  0  0  0  0  0
   61.9830   30.8280   50.5730 N   0  0  0  0  0  0  0  0  0  0  0  0
   62.3970   31.6850   49.4890 C   0  0  0  0  0  0  0  0  0  0  0  0
   63.7380   32.0800   49.3110 C   0  0  0  0  0  0  0  0  0  0  0  0
   64.0990   32.8850   48.2270 C   0  0  0  0  0  0  0  0  0  0  0  0
   63.1380   33.2830   47.2970 C   0  0  0  0  0  0  0  0  0  0  0  0
   61.8010   32.8990   47.4510 C   0  0  0  0  0  0  0  0  0  0  0  0
   60.8560   33.3020   46.4500 N   0  0  0  0  0  0  0  0  0  0  0  0
   59.4750   34.3220   46.7060 S   0  0  0  0  0  0  0  0  0  0  0  0
   59.4550   35.3680   45.6270 O   0  0  0  0  0  0  0  0  0  0  0  0
   59.5890   35.0090   48.0410 O   0  0  0  0  0  0  0  0  0  0  0  0
   57.9590   33.3790   46.6200 C   0  0  0  0  0  0  0  0  0  0  0  0
   57.8570   32.6660   45.3000 C   0  0  0  0  0  0  0  0  0  0  0  0
   57.4000   31.3370   45.2460 C   0  0  0  0  0  0  0  0  0  0  0  0
   57.2850   30.6820   44.0150 C   0  0  0  0  0  0  0  0  0  0  0  0
   57.6000   31.3540   42.8310 C   0  0  0  0  0  0  0  0  0  0  0  0
   58.0440   32.6780   42.8760 C   0  0  0  0  0  0  0  0  0  0  0  0
   58.1730   33.3340   44.1050 C   0  0  0  0  0  0  0  0  0  0  0  0
   61.4360   32.1150   48.5590 C   0  0  0  0  0  0  0  0  0  0  0  0
   60.7330   28.3370   49.2870 C   0  0  0  0  0  0  0  0  0  0  0  0
   60.2620   27.5940   48.2020 C   0  0  0  0  0  0  0  0  0  0  0  0
   57.8773   25.9570   48.3953 H   0  0  0  0  0  0  0  0  0  0  0  0
   56.9893   24.6425   47.3401 H   0  0  0  0  0  0  0  0  0  0  0  0
   57.4584   24.0193   43.9172 H   0  0  0  0  0  0  0  0  0  0  0  0
   58.3279   26.7393   43.0570 H   0  0  0  0  0  0  0  0  0  0  0  0
   60.1320   29.3765   45.3766 H   0  0  0  0  0  0  0  0  0  0  0  0
   60.5899   28.4590   43.9018 H   0  0  0  0  0  0  0  0  0  0  0  0
   59.1118   29.4797   43.9018 H   0  0  0  0  0  0  0  0  0  0  0  0
   57.7733   29.6852   47.1396 H   0  0  0  0  0  0  0  0  0  0  0  0
   58.5853   30.9930   49.0987 H   0  0  0  0  0  0  0  0  0  0  0  0
   59.9539   31.2288   50.9441 H   0  0  0  0  0  0  0  0  0  0  0  0
   60.5924   29.7213   51.6908 H   0  0  0  0  0  0  0  0  0  0  0  0
   62.7250   30.3840   51.1560 H   0  0  0  0  0  0  0  0  0  0  0  0
   64.5046   31.7531   50.0289 H   0  0  0  0  0  0  0  0  0  0  0  0
   65.1443   33.2059   48.1066 H   0  0  0  0  0  0  0  0  0  0  0  0
   63.4331   33.9025   46.4373 H   0  0  0  0  0  0  0  0  0  0  0  0
   57.9465   32.6386   47.4334 H   0  0  0  0  0  0  0  0  0  0  0  0
   57.1061   34.0664   46.7201 H   0  0  0  0  0  0  0  0  0  0  0  0
   57.1322   30.8110   46.1742 H   0  0  0  0  0  0  0  0  0  0  0  0
   56.9460   29.6362   43.9792 H   0  0  0  0  0  0  0  0  0  0  0  0
   57.4984   30.8406   41.8635 H   0  0  0  0  0  0  0  0  0  0  0  0
   58.2926   33.2056   41.9434 H   0  0  0  0  0  0  0  0  0  0  0  0
   58.5230   34.3764   44.1358 H   0  0  0  0  0  0  0  0  0  0  0  0
   60.3819   31.8339   48.7000 H   0  0  0  0  0  0  0  0  0  0  0  0
   61.5687   27.9548   49.8915 H   0  0  0  0  0  0  0  0  0  0  0  0
   60.7272   26.6275   47.9582 H   0  0  0  0  0  0  0  0  0  0  0  0
  1  2  2  0
  2  3  1  0
  3  4  2  3
  4  5  1  0
  5  6  1  0
  6  7  1  0
  7  8  2  0
  7  9  1  0
  9 10  1  0
 10 11  1  0
  3 12  1  0
 12 13  2  0
 13 14  1  0
 13 15  1  0
 15 16  1  0
 16 17  2  0
 17 18  1  0
 18 19  2  0
 19 20  1  0
 20 21  1  0
 21 22  1  0
 22 23  2  0
 23 24  1  0
 24 25  2  0
 25 26  1  0
 26 27  1  0
 27 28  1  0
 28 29  2  0
 28 30  2  0
 28 31  1  0
 31 32  1  0
 32 33  2  0
 33 34  1  0
 34 35  2  0
 35 36  1  0
 36 37  2  0
 26 38  2  0
 19 39  1  0
 39 40  2  0
 15  2  1  0
 40 16  1  0
 10  5  2  0
 38 22  1  0
 37 32  1  0
  1 41  1  0
  1 42  1  0
  4 43  1  0
 12 44  1  0
 14 45  1  0
 14 46  1  0
 14 47  1  0
 17 48  1  0
 18 49  1  0
 20 50  1  0
 20 51  1  0
 21 52  1  0
 23 53  1  0
 24 54  1  0
 25 55  1  0
 31 56  1  0
 31 57  1  0
 33 58  1  0
 34 59  1  0
 35 60  1  0
 36 61  1  0
 37 62  1  0
 38 63  1  0
 39 64  1  0
 40 65  1  0
M  CHG  4   6  -1   9  -1  11  -1  27  -1
M  END
>  <UniqueID>  (58) 
53

>  <SMILES>  (58) 
C=c1c(=Cc2[n-]c(=O)[n-]c2[O-])cc(C)n1-c1ccc(CNc2cccc([N-]S(=O)(=O)Cc3ccccc3)c2)cc1

>  <Energy>  (58) 
139.92005068584956

>  <Genealogy>  (58) 
C=c1c(=Cc2[n-]c(=O)[n-]c2[O-])cc(C)n1-c1ccc(CNc2cccc([N-]S(=O)(=O)Cc3ccccc3)c2)cc1 (protonated)
C=c1c(=Cc2[n-]c(=O)[n-]c2[O-])cc(C)n1-c1ccc(CNc2cccc([N-]S(=O)(=O)Cc3ccccc3)c2)cc1 (3D coordinates assigned)
C=c1c(=Cc2[n-]c(=O)[n-]c2[O-])cc(C)n1-c1ccc(CNc2cccc([N-]S(=O)(=O)Cc3ccccc3)c2)cc1 (optimized conformer: 139.92005068584956 kcal/mol)

>  <smiles>  (58) 
C=c1c(=Cc2[nH]c(=O)[nH]c2O)cc(C)n1-c1ccc(CNc2cccc(NS(=O)(=O)Cc3ccccc3)c2)cc1

>  <score_type>  (58) 
oracle

>  <origin>  (58) 
adg

>  <m_score__min__energy>  (58) 
-20.199999999999999

>  <m_primary>  (58) 
energy

$$$$
58:0
     RDKit          3D

 48 51  0  0  1  0  0  0  0  0999 V2000
   59.9900   28.7890   44.8750 C   0  0  0  0  0  0  0  0  0  0  0  0
   59.8040   29.0080   46.3370 C   0  0  0  0  0  0  0  0  0  0  0  0
   59.6100   30.2830   46.8180 C   0  0  0  0  0  0  0  0  0  0  0  0
   59.4360   30.5130   48.1880 C   0  0  0  0  0  0  0  0  0  0  0  0
   59.2310   31.8660   48.6760 C   0  0  0  0  0  0  0  0  0  0  0  0
   59.9610   32.2890   49.6000 O   0  0  0  0  0  0  0  0  0  0  0  0
   58.2040   32.6800   48.0920 N   0  0  0  0  0  0  0  0  0  0  0  0
   58.5100   33.4210   47.0860 C   0  0  0  0  0  0  0  0  0  0  0  0
   59.2990   34.4970   47.2260 N   0  0  0  0  0  0  0  0  0  0  0  0
   59.6090   35.2630   46.1530 C   0  0  0  0  0  0  0  0  0  0  0  0
   59.1290   34.9620   44.9010 C   0  0  0  0  0  0  0  0  0  0  0  0
   58.3130   33.8560   44.7210 C   0  0  0  0  0  0  0  0  0  0  0  0
   58.0180   33.1070   45.8160 C   0  0  0  0  0  0  0  0  0  0  0  0
   57.2030   31.9800   45.7050 O   0  0  0  0  0  0  0  0  0  0  0  0
   59.4590   29.4330   49.0810 C   0  0  0  0  0  0  0  0  0  0  0  0
   59.6550   28.1430   48.5950 C   0  0  0  0  0  0  0  0  0  0  0  0
   59.8240   27.9400   47.2440 C   0  0  0  0  0  0  0  0  0  0  0  0
   60.0770   26.3220   46.5260 S   0  0  0  0  0  0  0  0  0  0  0  0
   58.4980   25.6880   45.9800 C   0  0  0  0  0  0  0  0  0  0  0  0
   58.3860   24.5750   45.2190 N   0  0  0  0  0  0  0  0  0  0  0  0
   57.1690   24.1370   44.8290 C   0  0  0  0  0  0  0  0  0  0  0  0
   56.9750   22.9790   44.0330 N   0  0  0  0  0  0  0  0  0  0  0  0
   57.8840   21.8310   43.9620 C   0  0  0  0  0  0  0  0  0  0  0  0
   57.3040   20.9130   42.9410 C   0  0  0  0  0  0  0  0  0  0  0  0
   56.2700   21.6450   42.3580 O   0  0  0  0  0  0  0  0  0  0  0  0
   55.8880   22.6980   43.1640 C   0  0  0  0  0  0  0  0  0  0  0  0
   54.8080   23.3440   43.1930 O   0  0  0  0  0  0  0  0  0  0  0  0
   56.0460   24.8440   45.2190 C   0  0  0  0  0  0  0  0  0  0  0  0
   56.1450   25.9790   45.9930 C   0  0  0  0  0  0  0  0  0  0  0  0
   55.1450   26.6260   46.3530 O   0  0  0  0  0  0  0  0  0  0  0  0
   57.4020   26.3710   46.3560 N   0  0  0  0  0  0  0  0  0  0  0  0
   60.6945   27.9595   44.7152 H   0  0  0  0  0  0  0  0  0  0  0  0
   59.0218   28.5415   44.4152 H   0  0  0  0  0  0  0  0  0  0  0  0
   60.3910   29.7043   44.4152 H   0  0  0  0  0  0  0  0  0  0  0  0
   59.5915   31.1311   46.1178 H   0  0  0  0  0  0  0  0  0  0  0  0
   59.6860   34.7620   48.1680 H   0  0  0  0  0  0  0  0  0  0  0  0
   60.2568   36.1420   46.2861 H   0  0  0  0  0  0  0  0  0  0  0  0
   59.3920   35.5979   44.0428 H   0  0  0  0  0  0  0  0  0  0  0  0
   57.9186   33.5941   43.7281 H   0  0  0  0  0  0  0  0  0  0  0  0
   57.0150   31.3830   46.4980 H   0  0  0  0  0  0  0  0  0  0  0  0
   59.3230   29.6034   50.1592 H   0  0  0  0  0  0  0  0  0  0  0  0
   59.6747   27.2891   49.2882 H   0  0  0  0  0  0  0  0  0  0  0  0
   58.8891   22.1572   43.6563 H   0  0  0  0  0  0  0  0  0  0  0  0
   57.9860   21.3357   44.9389 H   0  0  0  0  0  0  0  0  0  0  0  0
   58.0595   20.6412   42.1891 H   0  0  0  0  0  0  0  0  0  0  0  0
   56.9506   19.9688   43.3811 H   0  0  0  0  0  0  0  0  0  0  0  0
   55.0524   24.4922   44.9042 H   0  0  0  0  0  0  0  0  0  0  0  0
   57.4440   27.2330   46.9410 H   0  0  0  0  0  0  0  0  0  0  0  0
  1  2  1  0
  2  3  2  0
  3  4  1  0
  4  5  1  0
  5  6  2  0
  5  7  1  0
  7  8  2  0
  8  9  1  0
  9 10  1  0
 10 11  2  0
 11 12  1  0
 12 13  2  0
 13 14  1  0
  4 15  2  0
 15 16  1  0
 16 17  2  0
 17 18  1  0
 18 19  1  0
 19 20  2  0
 20 21  1  0
 21 22  1  0
 22 23  1  0
 23 24  1  0
 24 25  1  0
 25 26  1  0
 26 27  2  0
 21 28  2  0
 28 29  1  0
 29 30  2  0
 29 31  1  0
 17  2  1  0
 31 19  1  0
 13  8  1  0
 26 22  1  0
  1 32  1  0
  1 33  1  0
  1 34  1  0
  3 35  1  0
  9 36  1  0
 10 37  1  0
 11 38  1  0
 12 39  1  0
 14 40  1  0
 15 41  1  0
 16 42  1  0
 23 43  1  0
 23 44  1  0
 24 45  1  0
 24 46  1  0
 28 47  1  0
 31 48  1  0
M  END
>  <smiles>  (59) 
Cc1cc(C(=O)N=c2[nH]cccc2O)ccc1Sc1nc(N2CCOC2=O)cc(=O)[nH]1

>  <score_type>  (59) 
oracle

>  <origin>  (59) 
adg

>  <m_score__min__energy>  (59) 
-9.6099999999999994

>  <m_primary>  (59) 
energy

$$$$
59:0
     RDKit          3D

 46 48  0  0  0  0  0  0  0  0999 V2000
   50.6420   34.3050   51.6120 H   0  0  0  0  0  0  0  0  0  0  0  0
   50.6500   33.4040   52.1410 N   0  0  0  0  0  0  0  0  0  0  0  0
   51.2020   32.3400   51.6540 C   0  0  0  0  0  0  0  0  0  0  0  0
   50.8800   31.9230   50.4050 N   0  0  0  0  0  0  0  0  0  0  0  0
   51.4570   30.8080   49.8900 C   0  0  0  0  0  0  0  0  0  0  0  0
   51.1550   30.4220   48.7310 O   0  0  0  0  0  0  0  0  0  0  0  0
   52.3580   30.1100   50.6250 N   0  0  0  0  0  0  0  0  0  0  0  0
   52.6870   30.5220   51.8760 C   0  0  0  0  0  0  0  0  0  0  0  0
   53.5520   29.8390   52.5650 N   0  0  0  0  0  0  0  0  0  0  0  0
   54.7560   30.3950   53.1920 C   0  0  1  0  0  0  0  0  0  0  0  0
   54.4930   30.8905   54.1382 H   0  0  0  0  0  0  0  0  0  0  0  0
   55.7430   29.2510   53.5070 C   0  0  0  0  0  0  0  0  0  0  0  0
   55.1792   28.3159   53.6403 H   0  0  0  0  0  0  0  0  0  0  0  0
   56.2916   29.5045   54.4261 H   0  0  0  0  0  0  0  0  0  0  0  0
   56.7540   29.0690   52.3690 C   0  0  0  0  0  0  0  0  0  0  0  0
   56.2065   28.8794   51.4340 H   0  0  0  0  0  0  0  0  0  0  0  0
   57.4067   28.2216   52.6256 H   0  0  0  0  0  0  0  0  0  0  0  0
   57.6110   30.2730   52.1890 N   0  0  1  0  0  0  0  0  0  0  0  0
   58.3980   30.1840   52.8770 H   0  0  0  0  0  0  0  0  0  0  0  0
   58.1940   30.2690   50.8230 C   0  0  0  0  0  0  0  0  0  0  0  0
   58.9207   29.4464   50.7508 H   0  0  0  0  0  0  0  0  0  0  0  0
   57.3701   30.1408   50.1056 H   0  0  0  0  0  0  0  0  0  0  0  0
   58.8960   31.5690   50.4950 C   0  0  0  0  0  0  0  0  0  0  0  0
   59.6490   32.2400   51.4720 C   0  0  0  0  0  0  0  0  0  0  0  0
   59.7368   31.8162   52.4833 H   0  0  0  0  0  0  0  0  0  0  0  0
   60.2870   33.4440   51.1640 C   0  0  0  0  0  0  0  0  0  0  0  0
   60.8686   33.9698   51.9355 H   0  0  0  0  0  0  0  0  0  0  0  0
   60.1880   33.9820   49.8780 C   0  0  0  0  0  0  0  0  0  0  0  0
   60.6833   34.9357   49.6432 H   0  0  0  0  0  0  0  0  0  0  0  0
   59.4580   33.3090   48.8840 C   0  0  0  0  0  0  0  0  0  0  0  0
   59.3090   33.8490   47.5650 N   0  0  0  0  0  0  0  0  0  0  0  0
   58.1630   33.7210   46.7110 C   0  0  0  0  0  0  0  0  0  0  0  0
   57.0930   33.2670   47.1940 O   0  0  0  0  0  0  0  0  0  0  0  0
   58.2120   34.0700   45.2550 C   0  0  0  0  0  0  0  0  0  0  0  0
   58.3642   35.1536   45.1426 H   0  0  0  0  0  0  0  0  0  0  0  0
   59.0433   33.5314   44.7766 H   0  0  0  0  0  0  0  0  0  0  0  0
   57.2645   33.7812   44.7766 H   0  0  0  0  0  0  0  0  0  0  0  0
   58.7940   32.1180   49.2070 C   0  0  0  0  0  0  0  0  0  0  0  0
   58.1871   31.6085   48.4441 H   0  0  0  0  0  0  0  0  0  0  0  0
   56.9060   31.5550   52.4880 C   0  0  0  0  0  0  0  0  0  0  0  0
   57.3095   32.3395   51.8309 H   0  0  0  0  0  0  0  0  0  0  0  0
   57.0747   31.7856   53.5502 H   0  0  0  0  0  0  0  0  0  0  0  0
   55.3890   31.4650   52.2700 C   0  0  0  0  0  0  0  0  0  0  0  0
   55.1920   31.1976   51.2213 H   0  0  0  0  0  0  0  0  0  0  0  0
   54.9430   32.4414   52.5104 H   0  0  0  0  0  0  0  0  0  0  0  0
   52.1040   31.6390   52.3900 N   0  0  0  0  0  0  0  0  0  0  0  0
  1  2  1  0
  2  3  2  0
  3  4  1  0
  4  5  1  0
  5  6  2  0
  5  7  1  0
  7  8  1  0
  8  9  2  3
  9 10  1  0
 10 11  1  6
 10 12  1  0
 12 13  1  0
 12 14  1  0
 12 15  1  0
 15 16  1  0
 15 17  1  0
 15 18  1  0
 18 19  1  6
 18 20  1  0
 20 21  1  0
 20 22  1  0
 20 23  1  0
 23 24  2  0
 24 25  1  0
 24 26  1  0
 26 27  1  0
 26 28  2  0
 28 29  1  0
 28 30  1  0
 30 31  1  0
 31 32  1  0
 32 33  2  0
 32 34  1  0
 34 35  1  0
 34 36  1  0
 34 37  1  0
 30 38  2  0
 38 39  1  0
 18 40  1  0
 40 41  1  0
 40 42  1  0
 40 43  1  0
 43 44  1  0
 43 45  1  0
  8 46  1  0
 46  3  1  0
 43 10  1  0
 38 23  1  0
M  CHG  5   4  -1   7  -1  18   1  31  -1  46  -1
M  END
>  <UniqueID>  (60) 
54

>  <SMILES>  (60) 
[H]/N=c1/[n-]c(=O)[n-]c(=NC2CC[NH+](Cc3cccc([N-]C(C)=O)c3)CC2)[n-]1

>  <Energy>  (60) 
60.01593946235553

>  <Genealogy>  (60) 
CC(=O)[N-]c1cccc(C[NH+]2CCC(N=c3[n-]c(=N)[n-]c(=O)[n-]3)CC2)c1 (protonated)
[H]/N=c1/[n-]c(=O)[n-]c(=NC2CC[NH+](Cc3cccc([N-]C(C)=O)c3)CC2)[n-]1 (cis-trans isomerization)
[H]/N=c1/[n-]c(=O)[n-]c(=NC2CC[NH+](Cc3cccc([N-]C(C)=O)c3)CC2)[n-]1 (3D coordinates assigned)
[H]/N=c1/[n-]c(=O)[n-]c(=NC2CC[NH+](Cc3cccc([N-]C(C)=O)c3)CC2)[n-]1 (nonaromatic ring conformer: 60.01593946235553 kcal/mol)

>  <smiles>  (60) 
CC(=O)Nc1cccc(CN2CCC(N=c3[nH]c(=N)[nH]c(=O)[nH]3)CC2)c1

>  <score_type>  (60) 
oracle

>  <origin>  (60) 
adg

>  <m_score__min__energy>  (60) 
-15

>  <m_primary>  (60) 
energy

$$$$
60:0
     RDKit          3D

 38 40  0  0  0  0  0  0  0  0999 V2000
   57.9380   25.1380   47.3170 O   0  0  0  0  0  0  0  0  0  0  0  0
   57.3780   25.2620   46.1940 C   0  0  0  0  0  0  0  0  0  0  0  0
   58.0310   25.9990   45.1500 N   0  0  0  0  0  0  0  0  0  0  0  0
   58.6480   27.2890   45.2690 C   0  0  0  0  0  0  0  0  0  0  0  0
   59.9930   27.4400   45.6490 C   0  0  0  0  0  0  0  0  0  0  0  0
   60.5500   28.7160   45.7670 C   0  0  0  0  0  0  0  0  0  0  0  0
   59.7690   29.8490   45.5310 C   0  0  0  0  0  0  0  0  0  0  0  0
   58.4120   29.7140   45.1960 C   0  0  0  0  0  0  0  0  0  0  0  0
   57.5800   30.9060   44.9360 C   0  0  0  0  0  0  0  0  0  0  0  0
   56.4130   30.7470   44.4850 O   0  0  0  0  0  0  0  0  0  0  0  0
   58.0650   32.2370   45.1950 N   0  0  0  0  0  0  0  0  0  0  0  0
   57.4310   33.4220   44.6420 C   0  0  0  0  0  0  0  0  0  0  0  0
   57.9670   34.5970   45.4500 C   0  0  0  0  0  0  0  0  0  0  0  0
   59.1870   34.0710   46.2010 C   0  0  0  0  0  0  0  0  0  0  0  0
   59.0450   32.5550   46.2220 C   0  0  0  0  0  0  0  0  0  0  0  0
   57.8630   28.4300   45.0570 C   0  0  0  0  0  0  0  0  0  0  0  0
   56.0730   24.6010   45.9290 C   0  0  0  0  0  0  0  0  0  0  0  0
   56.0140   23.2070   45.7520 C   0  0  0  0  0  0  0  0  0  0  0  0
   54.7960   22.5760   45.5010 C   0  0  0  0  0  0  0  0  0  0  0  0
   53.6320   23.3400   45.4250 C   0  0  0  0  0  0  0  0  0  0  0  0
   52.5250   22.7880   45.1990 O   0  0  0  0  0  0  0  0  0  0  0  0
   53.6940   24.6870   45.5930 N   0  0  0  0  0  0  0  0  0  0  0  0
   54.8660   25.3320   45.8400 C   0  0  0  0  0  0  0  0  0  0  0  0
   54.8460   26.7130   45.9990 O   0  0  0  0  0  0  0  0  0  0  0  0
   60.6084   26.5516   45.8539 H   0  0  0  0  0  0  0  0  0  0  0  0
   61.6078   28.8283   46.0469 H   0  0  0  0  0  0  0  0  0  0  0  0
   60.2180   30.8503   45.6077 H   0  0  0  0  0  0  0  0  0  0  0  0
   57.6936   33.5363   43.5799 H   0  0  0  0  0  0  0  0  0  0  0  0
   56.3344   33.3582   44.7003 H   0  0  0  0  0  0  0  0  0  0  0  0
   58.2563   35.4206   44.7807 H   0  0  0  0  0  0  0  0  0  0  0  0
   57.2072   34.9897   46.1417 H   0  0  0  0  0  0  0  0  0  0  0  0
   60.1112   34.3612   45.6798 H   0  0  0  0  0  0  0  0  0  0  0  0
   59.2431   34.4847   47.2187 H   0  0  0  0  0  0  0  0  0  0  0  0
   60.0087   32.0763   45.9938 H   0  0  0  0  0  0  0  0  0  0  0  0
   58.7296   32.1905   47.2108 H   0  0  0  0  0  0  0  0  0  0  0  0
   56.8047   28.3181   44.7785 H   0  0  0  0  0  0  0  0  0  0  0  0
   56.9358   22.6098   45.8120 H   0  0  0  0  0  0  0  0  0  0  0  0
   54.7539   21.4854   45.3642 H   0  0  0  0  0  0  0  0  0  0  0  0
  1  2  2  0
  2  3  1  0
  3  4  1  0
  4  5  2  0
  5  6  1  0
  6  7  2  0
  7  8  1  0
  8  9  1  0
  9 10  2  0
  9 11  1  0
 11 12  1  0
 12 13  1  0
 13 14  1  0
 14 15  1  0
  8 16  2  0
  2 17  1  0
 17 18  1  0
 18 19  2  0
 19 20  1  0
 20 21  2  0
 20 22  1  0
 22 23  1  0
 23 24  1  0
 16  4  1  0
 23 17  2  0
 15 11  1  0
  5 25  1  0
  6 26  1  0
  7 27  1  0
 12 28  1  0
 12 29  1  0
 13 30  1  0
 13 31  1  0
 14 32  1  0
 14 33  1  0
 15 34  1  0
 15 35  1  0
 16 36  1  0
 18 37  1  0
 19 38  1  0
M  CHG  3   3  -1  22  -1  24  -1
M  END
>  <UniqueID>  (61) 
55

>  <SMILES>  (61) 
O=C([N-]c1cccc(C(=O)N2CCCC2)c1)c1ccc(=O)[n-]c1[O-]

>  <Energy>  (61) 
51.079620290060284

>  <Genealogy>  (61) 
O=C([N-]c1cccc(C(=O)N2CCCC2)c1)c1ccc(=O)[n-]c1[O-] (protonated)
O=C([N-]c1cccc(C(=O)N2CCCC2)c1)c1ccc(=O)[n-]c1[O-] (3D coordinates assigned)
O=C([N-]c1cccc(C(=O)N2CCCC2)c1)c1ccc(=O)[n-]c1[O-] (nonaromatic ring conformer: 51.079620290060284 kcal/mol)

>  <smiles>  (61) 
O=C(Nc1cccc(C(=O)N2CCCC2)c1)c1ccc(=O)[nH]c1O

>  <score_type>  (61) 
oracle

>  <origin>  (61) 
adg

>  <m_score__min__energy>  (61) 
-15.859999999999999

>  <m_primary>  (61) 
energy

$$$$
61:0
     RDKit          3D

 49 51  0  0  0  0  0  0  0  0999 V2000
   57.6682   31.2430   46.3833 H   0  0  0  0  0  0  0  0  0  0  0  0
   58.1460   32.1990   46.1230 C   0  0  0  0  0  0  0  0  0  0  0  0
   58.5690   33.0350   47.1050 N   0  0  0  0  0  0  0  0  0  0  0  0
   59.1710   34.2210   46.8090 C   0  0  0  0  0  0  0  0  0  0  0  0
   59.6020   35.0740   47.8280 O   0  0  0  0  0  0  0  0  0  0  0  0
   60.1270   34.5980   49.0620 C   0  0  0  0  0  0  0  0  0  0  0  0
   59.5960   35.0794   49.8964 H   0  0  0  0  0  0  0  0  0  0  0  0
   59.9921   33.5079   49.1217 H   0  0  0  0  0  0  0  0  0  0  0  0
   61.1987   34.8387   49.1217 H   0  0  0  0  0  0  0  0  0  0  0  0
   59.3570   34.5770   45.5100 N   0  0  0  0  0  0  0  0  0  0  0  0
   59.8240   35.4850   45.2850 H   0  0  0  0  0  0  0  0  0  0  0  0
   58.9490   33.7680   44.4970 C   0  0  0  0  0  0  0  0  0  0  0  0
   59.1159   34.0697   43.4524 H   0  0  0  0  0  0  0  0  0  0  0  0
   58.3170   32.5520   44.7800 C   0  0  0  0  0  0  0  0  0  0  0  0
   57.8940   31.6240   43.6750 C   0  0  0  0  0  0  0  0  0  0  0  0
   57.1113   32.1088   43.0731 H   0  0  0  0  0  0  0  0  0  0  0  0
   58.7660   31.3962   43.0443 H   0  0  0  0  0  0  0  0  0  0  0  0
   57.3560   30.3420   44.2500 C   0  0  0  0  0  0  0  0  0  0  0  0
   55.9790   30.1050   44.2980 C   0  0  0  0  0  0  0  0  0  0  0  0
   55.2798   30.8428   43.8776 H   0  0  0  0  0  0  0  0  0  0  0  0
   55.5040   28.9670   44.8620 N   0  0  0  0  0  0  0  0  0  0  0  0
   56.3210   28.0090   45.3880 C   0  0  0  0  0  0  0  0  0  0  0  0
   55.8080   26.9660   45.9680 N   0  0  0  0  0  0  0  0  0  0  0  0
   56.3640   25.6440   45.9750 C   0  0  0  0  0  0  0  0  0  0  0  0
   56.3960   24.8730   47.0800 N   0  0  0  0  0  0  0  0  0  0  0  0
   57.1050   23.7850   46.7010 C   0  0  0  0  0  0  0  0  0  0  0  0
   57.3163   22.9339   47.3651 H   0  0  0  0  0  0  0  0  0  0  0  0
   57.5250   23.8560   45.4210 N   0  0  0  0  0  0  0  0  0  0  0  0
   58.4290   22.9230   44.7560 C   0  0  0  0  0  0  0  0  0  0  0  0
   58.9850   22.3492   45.5121 H   0  0  0  0  0  0  0  0  0  0  0  0
   57.8467   22.2333   44.1273 H   0  0  0  0  0  0  0  0  0  0  0  0
   59.1367   23.4833   44.1273 H   0  0  0  0  0  0  0  0  0  0  0  0
   57.0820   25.0390   44.9600 C   0  0  0  0  0  0  0  0  0  0  0  0
   57.4660   25.6240   43.6990 C   0  0  0  0  0  0  0  0  0  0  0  0
   57.7740   26.0940   42.6870 N   0  0  0  0  0  0  0  0  0  0  0  0
   57.7250   28.2060   45.3590 C   0  0  0  0  0  0  0  0  0  0  0  0
   58.6750   27.2950   45.8640 O   0  0  0  0  0  0  0  0  0  0  0  0
   59.1170   27.1540   47.2170 C   0  0  0  0  0  0  0  0  0  0  0  0
   58.5130   26.3878   47.7251 H   0  0  0  0  0  0  0  0  0  0  0  0
   60.5840   26.7090   47.2600 C   0  0  0  0  0  0  0  0  0  0  0  0
   60.9069   26.6110   48.3070 H   0  0  0  0  0  0  0  0  0  0  0  0
   60.6879   25.7389   46.7519 H   0  0  0  0  0  0  0  0  0  0  0  0
   61.2094   27.4579   46.7519 H   0  0  0  0  0  0  0  0  0  0  0  0
   58.9590   28.5010   47.9200 C   0  0  0  0  0  0  0  0  0  0  0  0
   58.9767   28.3503   49.0095 H   0  0  0  0  0  0  0  0  0  0  0  0
   59.7853   29.1660   47.6284 H   0  0  0  0  0  0  0  0  0  0  0  0
   58.0012   28.9567   47.6284 H   0  0  0  0  0  0  0  0  0  0  0  0
   58.2200   29.3900   44.8020 C   0  0  0  0  0  0  0  0  0  0  0  0
   59.3043   29.5752   44.7980 H   0  0  0  0  0  0  0  0  0  0  0  0
  1  2  1  0
  2  3  2  0
  3  4  1  0
  4  5  1  0
  5  6  1  0
  6  7  1  0
  6  8  1  0
  6  9  1  0
  4 10  2  0
 10 11  1  0
 10 12  1  0
 12 13  1  0
 12 14  2  0
 14 15  1  0
 15 16  1  0
 15 17  1  0
 15 18  1  0
 18 19  2  0
 19 20  1  0
 19 21  1  0
 21 22  1  0
 22 23  2  0
 23 24  1  0
 24 25  1  0
 25 26  2  0
 26 27  1  0
 26 28  1  0
 28 29  1  0
 29 30  1  0
 29 31  1  0
 29 32  1  0
 28 33  1  0
 33 34  1  0
 34 35  3  0
 22 36  1  0
 36 37  1  0
 37 38  1  0
 38 39  1  0
 38 40  1  0
 40 41  1  0
 40 42  1  0
 40 43  1  0
 38 44  1  0
 44 45  1  0
 44 46  1  0
 44 47  1  0
 36 48  2  0
 48 49  1  0
 14  2  1  0
 48 18  1  0
 33 24  2  0
M  CHG  2  10   1  21  -1
M  END
>  <UniqueID>  (62) 
56

>  <SMILES>  (62) 
COc1ncc(Cc2c[n-]/c(=N\c3ncn(C)c3C#N)c(OC(C)C)c2)c[nH+]1

>  <Energy>  (62) 
84.34580013853395

>  <Genealogy>  (62) 
COc1ncc(Cc2c[n-]c(=Nc3ncn(C)c3C#N)c(OC(C)C)c2)c[nH+]1 (protonated)
COc1ncc(Cc2c[n-]/c(=N\c3ncn(C)c3C#N)c(OC(C)C)c2)c[nH+]1 (cis-trans isomerization)
COc1ncc(Cc2c[n-]/c(=N\c3ncn(C)c3C#N)c(OC(C)C)c2)c[nH+]1 (3D coordinates assigned)
COc1ncc(Cc2c[n-]/c(=N\c3ncn(C)c3C#N)c(OC(C)C)c2)c[nH+]1 (optimized conformer: 84.34580013853395 kcal/mol)

>  <smiles>  (62) 
COc1ncc(Cc2c[nH]c(=Nc3ncn(C)c3C#N)c(OC(C)C)c2)cn1

>  <score_type>  (62) 
oracle

>  <origin>  (62) 
adg

>  <m_score__min__energy>  (62) 
-8.1400000000000006

>  <m_primary>  (62) 
energy

$$$$
62:0
     RDKit          3D

 46 49  0  0  1  0  0  0  0  0999 V2000
   57.4720   33.4600   44.7830 C   0  0  0  0  0  0  0  0  0  0  0  0
   57.7290   34.2650   45.9030 O   0  0  0  0  0  0  0  0  0  0  0  0
   58.9280   34.1610   46.5900 C   0  0  0  0  0  0  0  0  0  0  0  0
   60.1020   34.1510   45.8750 C   0  0  0  0  0  0  0  0  0  0  0  0
   61.3090   34.0500   46.5170 C   0  0  0  0  0  0  0  0  0  0  0  0
   61.3280   33.9570   47.9060 C   0  0  0  0  0  0  0  0  0  0  0  0
   62.6670   33.8510   48.5380 C   0  0  0  0  0  0  0  0  0  0  0  0
   63.2090   32.4930   48.4210 N   0  0  0  0  0  0  0  0  0  0  0  0
   62.3960   31.4760   48.3920 C   0  0  0  0  0  0  0  0  0  0  0  0
   61.9400   31.1250   47.1740 N   0  0  0  0  0  0  0  0  0  0  0  0
   61.0930   30.0930   46.9890 C   0  0  0  0  0  0  0  0  0  0  0  0
   60.6350   29.7480   45.7220 C   0  0  0  0  0  0  0  0  0  0  0  0
   59.7820   28.7030   45.5700 C   0  0  0  0  0  0  0  0  0  0  0  0
   59.3640   27.9700   46.6850 C   0  0  0  0  0  0  0  0  0  0  0  0
   58.4470   26.8560   46.4590 C   0  0  0  0  0  0  0  0  0  0  0  0
   58.8870   25.5350   46.3990 C   0  0  0  0  0  0  0  0  0  0  0  0
   57.9850   24.5220   46.1850 C   0  0  0  0  0  0  0  0  0  0  0  0
   56.6220   24.7480   46.0200 C   0  0  0  0  0  0  0  0  0  0  0  0
   56.2120   26.0700   46.0840 C   0  0  0  0  0  0  0  0  0  0  0  0
   54.8500   26.3380   45.9240 O   0  0  0  0  0  0  0  0  0  0  0  0
   57.0950   27.1120   46.2990 C   0  0  0  0  0  0  0  0  0  0  0  0
   59.8270   28.3200   47.9390 C   0  0  0  0  0  0  0  0  0  0  0  0
   60.6890   29.3730   48.1150 C   0  0  0  0  0  0  0  0  0  0  0  0
   61.1820   29.7690   49.3400 C   0  0  0  0  0  0  0  0  0  0  0  0
   62.0280   30.8070   49.4960 N   0  0  0  0  0  0  0  0  0  0  0  0
   60.1620   33.9650   48.6560 C   0  0  0  0  0  0  0  0  0  0  0  0
   58.9700   34.0680   47.9640 C   0  0  0  0  0  0  0  0  0  0  0  0
   57.1531   32.4610   45.1149 H   0  0  0  0  0  0  0  0  0  0  0  0
   56.6751   33.9171   44.1780 H   0  0  0  0  0  0  0  0  0  0  0  0
   58.3863   33.3708   44.1780 H   0  0  0  0  0  0  0  0  0  0  0  0
   60.0727   34.2247   44.7779 H   0  0  0  0  0  0  0  0  0  0  0  0
   62.2478   34.0425   45.9437 H   0  0  0  0  0  0  0  0  0  0  0  0
   63.3530   34.5539   48.0427 H   0  0  0  0  0  0  0  0  0  0  0  0
   62.5651   34.0918   49.6065 H   0  0  0  0  0  0  0  0  0  0  0  0
   60.9639   30.3219   44.8431 H   0  0  0  0  0  0  0  0  0  0  0  0
   59.4189   28.4323   44.5676 H   0  0  0  0  0  0  0  0  0  0  0  0
   59.9553   25.3042   46.5229 H   0  0  0  0  0  0  0  0  0  0  0  0
   58.3559   23.4873   46.1422 H   0  0  0  0  0  0  0  0  0  0  0  0
   55.9118   23.9256   45.8488 H   0  0  0  0  0  0  0  0  0  0  0  0
   54.3740   26.7070   46.7490 H   0  0  0  0  0  0  0  0  0  0  0  0
   56.7232   28.1463   46.3431 H   0  0  0  0  0  0  0  0  0  0  0  0
   59.4975   27.7421   48.8150 H   0  0  0  0  0  0  0  0  0  0  0  0
   60.8696   29.2103   50.2346 H   0  0  0  0  0  0  0  0  0  0  0  0
   62.4130   31.1240   50.3980 H   0  0  0  0  0  0  0  0  0  0  0  0
   60.1845   33.8926   49.7534 H   0  0  0  0  0  0  0  0  0  0  0  0
   58.0255   34.0760   48.5278 H   0  0  0  0  0  0  0  0  0  0  0  0
  1  2  1  0
  2  3  1  0
  3  4  2  0
  4  5  1  0
  5  6  2  0
  6  7  1  0
  7  8  1  0
  8  9  2  0
  9 10  1  0
 10 11  2  0
 11 12  1  0
 12 13  2  0
 13 14  1  0
 14 15  1  0
 15 16  2  0
 16 17  1  0
 17 18  2  0
 18 19  1  0
 19 20  1  0
 19 21  2  0
 14 22  2  0
 22 23  1  0
 23 24  2  0
 24 25  1  0
  6 26  1  0
 26 27  2  0
 27  3  1  0
 25  9  1  0
 23 11  1  0
 21 15  1  0
  1 28  1  0
  1 29  1  0
  1 30  1  0
  4 31  1  0
  5 32  1  0
  7 33  1  0
  7 34  1  0
 12 35  1  0
 13 36  1  0
 16 37  1  0
 17 38  1  0
 18 39  1  0
 20 40  1  0
 21 41  1  0
 22 42  1  0
 24 43  1  0
 25 44  1  0
 26 45  1  0
 27 46  1  0
M  END
>  <smiles>  (63) 
COc1ccc(CN=c2nc3ccc(-c4cccc(O)c4)cc3c[nH]2)cc1

>  <score_type>  (63) 
oracle

>  <origin>  (63) 
adg

>  <m_score__min__energy>  (63) 
-8.9000000000000004

>  <m_primary>  (63) 
energy

$$$$
63:0
     RDKit          3D

 32 33  0  0  0  0  0  0  0  0999 V2000
   61.2670   31.8710   48.7650 C   0  0  0  0  0  0  0  0  0  0  0  0
   61.8340   31.3280   47.1260 S   0  0  0  0  0  0  0  0  0  0  0  0
   60.4340   30.2450   46.8770 C   0  0  0  0  0  0  0  0  0  0  0  0
   59.8000   30.1040   45.6940 N   0  0  0  0  0  0  0  0  0  0  0  0
   58.7770   29.2130   45.7760 C   0  0  0  0  0  0  0  0  0  0  0  0
   57.8770   28.9370   44.6110 C   0  0  0  0  0  0  0  0  0  0  0  0
   57.2530   30.2170   44.1510 C   0  0  0  0  0  0  0  0  0  0  0  0
   56.0710   30.4920   44.4930 O   0  0  0  0  0  0  0  0  0  0  0  0
   58.0190   31.1500   43.3780 N   0  0  0  0  0  0  0  0  0  0  0  0
   57.7670   32.5860   43.4360 C   0  0  0  0  0  0  0  0  0  0  0  0
   58.2920   33.1360   44.7340 C   0  0  0  0  0  0  0  0  0  0  0  0
   59.2190   34.1920   44.7290 C   0  0  0  0  0  0  0  0  0  0  0  0
   59.6620   34.7450   45.9340 C   0  0  0  0  0  0  0  0  0  0  0  0
   59.1850   34.2490   47.1500 C   0  0  0  0  0  0  0  0  0  0  0  0
   59.6170   34.7890   48.3170 F   0  0  0  0  0  0  0  0  0  0  0  0
   58.2560   33.2040   47.1630 C   0  0  0  0  0  0  0  0  0  0  0  0
   57.7820   32.7300   48.3420 F   0  0  0  0  0  0  0  0  0  0  0  0
   57.8020   32.6550   45.9590 C   0  0  0  0  0  0  0  0  0  0  0  0
   58.5800   28.6510   47.0370 C   0  0  0  0  0  0  0  0  0  0  0  0
   59.7430   29.2860   48.0710 S   0  0  0  0  0  0  0  0  0  0  0  0
   61.8281   31.3336   49.5437 H   0  0  0  0  0  0  0  0  0  0  0  0
   61.4360   32.9527   48.8717 H   0  0  0  0  0  0  0  0  0  0  0  0
   60.1936   31.6554   48.8717 H   0  0  0  0  0  0  0  0  0  0  0  0
   58.4634   28.4987   43.7900 H   0  0  0  0  0  0  0  0  0  0  0  0
   57.0889   28.2322   44.9144 H   0  0  0  0  0  0  0  0  0  0  0  0
   58.9360   30.8360   42.9870 H   0  0  0  0  0  0  0  0  0  0  0  0
   58.2752   33.0815   42.5957 H   0  0  0  0  0  0  0  0  0  0  0  0
   56.6846   32.7709   43.3709 H   0  0  0  0  0  0  0  0  0  0  0  0
   59.5973   34.5848   43.7737 H   0  0  0  0  0  0  0  0  0  0  0  0
   60.3873   35.5720   45.9249 H   0  0  0  0  0  0  0  0  0  0  0  0
   57.0589   31.8440   45.9719 H   0  0  0  0  0  0  0  0  0  0  0  0
   57.8019   27.9218   47.3069 H   0  0  0  0  0  0  0  0  0  0  0  0
  1  2  1  0
  2  3  1  0
  3  4  2  0
  4  5  1  0
  5  6  1  0
  6  7  1  0
  7  8  2  0
  7  9  1  0
  9 10  1  0
 10 11  1  0
 11 12  2  0
 12 13  1  0
 13 14  2  0
 14 15  1  0
 14 16  1  0
 16 17  1  0
 16 18  2  0
  5 19  2  0
 19 20  1  0
 20  3  1  0
 18 11  1  0
  1 21  1  0
  1 22  1  0
  1 23  1  0
  6 24  1  0
  6 25  1  0
  9 26  1  0
 10 27  1  0
 10 28  1  0
 12 29  1  0
 13 30  1  0
 18 31  1  0
 19 32  1  0
M  END
>  <UniqueID>  (64) 
57

>  <SMILES>  (64) 
CSc1nc(CC(=O)NCc2ccc(F)c(F)c2)cs1

>  <Energy>  (64) 
49.73864081621732

>  <Genealogy>  (64) 
CSc1nc(CC(=O)NCc2ccc(F)c(F)c2)cs1 (3D coordinates assigned)
CSc1nc(CC(=O)NCc2ccc(F)c(F)c2)cs1 (optimized conformer: 49.73864081621732 kcal/mol)

>  <smiles>  (64) 
CSc1nc(CC(=O)NCc2ccc(F)c(F)c2)cs1

>  <score_type>  (64) 
oracle

>  <origin>  (64) 
adg

>  <m_score__min__energy>  (64) 
-6.4800000000000004

>  <m_primary>  (64) 
energy

$$$$
64:0
     RDKit          3D

 39 41  0  0  0  0  0  0  0  0999 V2000
   54.0790   26.8040   46.5900 H   0  0  0  0  0  0  0  0  0  0  0  0
   59.2010   26.9150   47.0570 N   0  0  0  0  0  0  0  0  0  0  0  0
   58.1480   26.1610   46.9490 C   0  0  0  0  0  0  0  0  0  0  0  0
   58.2230   24.8580   47.3180 N   0  0  0  0  0  0  0  0  0  0  0  0
   57.1290   24.0510   47.2380 C   0  0  0  0  0  0  0  0  0  0  0  0
   57.1890   22.7950   47.5700 N   0  0  0  0  0  0  0  0  0  0  0  0
   56.8870   21.6660   46.7320 C   0  0  0  0  0  0  0  0  0  0  0  0
   56.3850   20.4620   47.2650 C   0  0  0  0  0  0  0  0  0  0  0  0
   56.2436   20.3606   48.3512 H   0  0  0  0  0  0  0  0  0  0  0  0
   56.0660   19.3960   46.4190 C   0  0  0  0  0  0  0  0  0  0  0  0
   55.6879   18.4538   46.8424 H   0  0  0  0  0  0  0  0  0  0  0  0
   56.2260   19.5240   45.0380 C   0  0  0  0  0  0  0  0  0  0  0  0
   55.9838   18.6800   44.3754 H   0  0  0  0  0  0  0  0  0  0  0  0
   56.6940   20.7250   44.4980 C   0  0  0  0  0  0  0  0  0  0  0  0
   56.8093   20.8280   43.4089 H   0  0  0  0  0  0  0  0  0  0  0  0
   57.0170   21.7990   45.3390 C   0  0  0  0  0  0  0  0  0  0  0  0
   57.4730   23.0010   44.8000 O   0  0  0  0  0  0  0  0  0  0  0  0
   57.5020   23.8520   45.3480 H   0  0  0  0  0  0  0  0  0  0  0  0
   55.9610   24.5570   46.7660 N   0  0  0  0  0  0  0  0  0  0  0  0
   55.8780   25.8580   46.3900 C   0  0  0  0  0  0  0  0  0  0  0  0
   54.7580   26.3310   45.9520 N   0  0  0  0  0  0  0  0  0  0  0  0
   60.4050   26.8100   46.2290 C   0  0  0  0  0  0  0  0  0  0  0  0
   61.2788   26.6708   46.8825 H   0  0  0  0  0  0  0  0  0  0  0  0
   60.2873   25.9522   45.5506 H   0  0  0  0  0  0  0  0  0  0  0  0
   60.6090   28.0740   45.3830 C   0  0  0  0  0  0  0  0  0  0  0  0
   61.2885   28.7533   45.9186 H   0  0  0  0  0  0  0  0  0  0  0  0
   61.0313   27.7684   44.4144 H   0  0  0  0  0  0  0  0  0  0  0  0
   59.3130   28.7940   45.1170 C   0  0  0  0  0  0  0  0  0  0  0  0
   58.3980   28.2780   44.1840 C   0  0  0  0  0  0  0  0  0  0  0  0
   58.6501   27.3725   43.6125 H   0  0  0  0  0  0  0  0  0  0  0  0
   57.1680   28.9110   43.9790 C   0  0  0  0  0  0  0  0  0  0  0  0
   56.4561   28.5039   43.2459 H   0  0  0  0  0  0  0  0  0  0  0  0
   56.8420   30.0610   44.7050 C   0  0  0  0  0  0  0  0  0  0  0  0
   55.6170   30.6850   44.5060 O   0  0  0  0  0  0  0  0  0  0  0  0
   57.7480   30.5790   45.6360 C   0  0  0  0  0  0  0  0  0  0  0  0
   57.4908   31.4830   46.2075 H   0  0  0  0  0  0  0  0  0  0  0  0
   58.9790   29.9510   45.8420 C   0  0  0  0  0  0  0  0  0  0  0  0
   59.6891   30.3634   46.5739 H   0  0  0  0  0  0  0  0  0  0  0  0
   56.9720   26.6560   46.4800 N   0  0  0  0  0  0  0  0  0  0  0  0
  1  2  1  0
  2  3  2  0
  3  4  1  0
  4  5  1  0
  5  6  2  3
  6  7  1  0
  7  8  2  0
  8  9  1  0
  8 10  1  0
 10 11  1  0
 10 12  2  0
 12 13  1  0
 12 14  1  0
 14 15  1  0
 14 16  2  0
 16 17  1  0
 17 18  1  0
  5 19  1  0
 19 20  1  0
 20 21  2  0
 21 22  1  0
 22 23  1  0
 22 24  1  0
 22 25  1  0
 25 26  1  0
 25 27  1  0
 25 28  1  0
 28 29  2  0
 29 30  1  0
 29 31  1  0
 31 32  1  0
 31 33  2  0
 33 34  1  0
 33 35  1  0
 35 36  1  0
 35 37  2  0
 37 38  1  0
 20 39  1  0
 39  3  1  0
 16  7  1  0
 37 28  1  0
M  CHG  4   4  -1  19  -1  34  -1  39  -1
M  END
>  <UniqueID>  (65) 
58

>  <SMILES>  (65) 
[H]/N=c1/[n-]c(=Nc2ccccc2O)[n-]/c(=N/CCc2ccc([O-])cc2)[n-]1

>  <Energy>  (65) 
44.52026503676361

>  <Genealogy>  (65) 
N=c1[n-]c(=NCCc2ccc([O-])cc2)[n-]c(=Nc2ccccc2O)[n-]1 (protonated)
[H]/N=c1/[n-]c(=Nc2ccccc2O)[n-]/c(=N/CCc2ccc([O-])cc2)[n-]1 (cis-trans isomerization)
[H]/N=c1/[n-]c(=Nc2ccccc2O)[n-]/c(=N/CCc2ccc([O-])cc2)[n-]1 (3D coordinates assigned)
[H]/N=c1/[n-]c(=Nc2ccccc2O)[n-]/c(=N/CCc2ccc([O-])cc2)[n-]1 (optimized conformer: 44.52026503676361 kcal/mol)

>  <smiles>  (65) 
N=c1[nH]c(=NCCc2ccc(O)cc2)[nH]c(=Nc2ccccc2O)[nH]1

>  <score_type>  (65) 
oracle

>  <origin>  (65) 
adg

>  <m_score__min__energy>  (65) 
-14.35

>  <m_primary>  (65) 
energy

$$$$
65:0
     RDKit          3D

 44 46  0  0  0  0  0  0  0  0999 V2000
   59.4970   35.4760   45.0940 C   0  0  0  0  0  0  0  0  0  0  0  0
   59.0940   34.5920   46.1860 N   0  0  0  0  0  0  0  0  0  0  0  0
   59.4340   34.7530   47.4810 C   0  0  0  0  0  0  0  0  0  0  0  0
   58.9040   33.7300   48.2400 C   0  0  0  0  0  0  0  0  0  0  0  0
   58.2120   32.9100   47.3710 C   0  0  0  0  0  0  0  0  0  0  0  0
   58.3460   33.4660   46.1120 C   0  0  0  0  0  0  0  0  0  0  0  0
   57.7620   32.8900   44.8840 C   0  0  0  0  0  0  0  0  0  0  0  0
   58.1250   33.2990   43.7480 O   0  0  0  0  0  0  0  0  0  0  0  0
   56.7990   31.8800   44.9950 O   0  0  0  0  0  0  0  0  0  0  0  0
   56.4580   31.0020   43.9230 C   0  0  0  0  0  0  0  0  0  0  0  0
   55.9290   29.7110   44.4620 C   0  0  0  0  0  0  0  0  0  0  0  0
   54.7800   29.3170   44.1280 O   0  0  0  0  0  0  0  0  0  0  0  0
   56.7280   28.9490   45.3740 N   0  0  0  0  0  0  0  0  0  0  0  0
   58.1430   29.0940   45.5640 C   0  0  0  0  0  0  0  0  0  0  0  0
   59.0130   28.5060   44.6400 C   0  0  0  0  0  0  0  0  0  0  0  0
   60.3950   28.6060   44.8100 C   0  0  0  0  0  0  0  0  0  0  0  0
   60.9200   29.2870   45.9120 C   0  0  0  0  0  0  0  0  0  0  0  0
   60.0640   29.8740   46.8590 C   0  0  0  0  0  0  0  0  0  0  0  0
   60.6290   30.5610   48.0480 C   0  0  0  0  0  0  0  0  0  0  0  0
   60.1930   30.2530   49.1910 O   0  0  0  0  0  0  0  0  0  0  0  0
   61.6820   31.5990   47.9410 C   0  0  0  0  0  0  0  0  0  0  0  0
   61.7150   32.4890   46.8510 C   0  0  0  0  0  0  0  0  0  0  0  0
   62.7210   33.4560   46.7590 C   0  0  0  0  0  0  0  0  0  0  0  0
   63.7080   33.5380   47.7440 C   0  0  0  0  0  0  0  0  0  0  0  0
   63.6950   32.6470   48.8200 C   0  0  0  0  0  0  0  0  0  0  0  0
   62.6910   31.6790   48.9170 C   0  0  0  0  0  0  0  0  0  0  0  0
   58.6720   29.7520   46.6890 C   0  0  0  0  0  0  0  0  0  0  0  0
   59.9195   36.4028   45.5094 H   0  0  0  0  0  0  0  0  0  0  0  0
   60.2546   34.9727   44.4754 H   0  0  0  0  0  0  0  0  0  0  0  0
   58.6202   35.7178   44.4754 H   0  0  0  0  0  0  0  0  0  0  0  0
   60.0445   35.5790   47.8746 H   0  0  0  0  0  0  0  0  0  0  0  0
   59.0118   33.5941   49.3262 H   0  0  0  0  0  0  0  0  0  0  0  0
   57.6616   31.9934   47.6297 H   0  0  0  0  0  0  0  0  0  0  0  0
   55.6891   31.4762   43.2954 H   0  0  0  0  0  0  0  0  0  0  0  0
   57.3583   30.7993   43.3244 H   0  0  0  0  0  0  0  0  0  0  0  0
   58.6061   27.9619   43.7749 H   0  0  0  0  0  0  0  0  0  0  0  0
   61.0727   28.1476   44.0747 H   0  0  0  0  0  0  0  0  0  0  0  0
   62.0100   29.3638   46.0386 H   0  0  0  0  0  0  0  0  0  0  0  0
   60.9456   32.4235   46.0676 H   0  0  0  0  0  0  0  0  0  0  0  0
   62.7351   34.1538   45.9088 H   0  0  0  0  0  0  0  0  0  0  0  0
   64.4948   34.3034   47.6726 H   0  0  0  0  0  0  0  0  0  0  0  0
   64.4761   32.7072   49.5922 H   0  0  0  0  0  0  0  0  0  0  0  0
   62.6904   30.9753   49.7624 H   0  0  0  0  0  0  0  0  0  0  0  0
   57.9917   30.1751   47.4428 H   0  0  0  0  0  0  0  0  0  0  0  0
  1  2  1  0
  2  3  1  0
  3  4  2  0
  4  5  1  0
  5  6  2  0
  6  7  1  0
  7  8  2  0
  7  9  1  0
  9 10  1  0
 10 11  1  0
 11 12  2  0
 11 13  1  0
 13 14  1  0
 14 15  2  0
 15 16  1  0
 16 17  2  0
 17 18  1  0
 18 19  1  0
 19 20  2  0
 19 21  1  0
 21 22  2  0
 22 23  1  0
 23 24  2  0
 24 25  1  0
 25 26  2  0
 18 27  2  0
  6  2  1  0
 27 14  1  0
 26 21  1  0
  1 28  1  0
  1 29  1  0
  1 30  1  0
  3 31  1  0
  4 32  1  0
  5 33  1  0
 10 34  1  0
 10 35  1  0
 15 36  1  0
 16 37  1  0
 17 38  1  0
 22 39  1  0
 23 40  1  0
 24 41  1  0
 25 42  1  0
 26 43  1  0
 27 44  1  0
M  CHG  1  13  -1
M  END
>  <UniqueID>  (66) 
59

>  <SMILES>  (66) 
Cn1cccc1C(=O)OCC(=O)[N-]c1cccc(C(=O)c2ccccc2)c1

>  <Energy>  (66) 
78.29142536897872

>  <Genealogy>  (66) 
Cn1cccc1C(=O)OCC(=O)[N-]c1cccc(C(=O)c2ccccc2)c1 (protonated)
Cn1cccc1C(=O)OCC(=O)[N-]c1cccc(C(=O)c2ccccc2)c1 (3D coordinates assigned)
Cn1cccc1C(=O)OCC(=O)[N-]c1cccc(C(=O)c2ccccc2)c1 (optimized conformer: 78.29142536897872 kcal/mol)

>  <smiles>  (66) 
Cn1cccc1C(=O)OCC(=O)Nc1cccc(C(=O)c2ccccc2)c1

>  <score_type>  (66) 
oracle

>  <origin>  (66) 
adg

>  <m_score__min__energy>  (66) 
-10.34

>  <m_primary>  (66) 
energy

$$$$
66:0
     RDKit          3D

 66 70  0  0  0  0  0  0  0  0999 V2000
   55.6360   29.0280   52.2510 O   0  0  0  0  0  0  0  0  0  0  0  0
   55.4970   30.2720   52.1090 C   0  0  0  0  0  0  0  0  0  0  0  0
   56.4780   31.2040   52.7480 C   0  0  0  0  0  0  0  0  0  0  0  0
   57.8490   30.8870   52.2990 N   0  0  0  0  0  0  0  0  0  0  0  0
   58.4270   29.6980   52.6490 C   0  0  0  0  0  0  0  0  0  0  0  0
   57.7990   28.8760   53.3770 O   0  0  0  0  0  0  0  0  0  0  0  0
   59.7150   29.3800   52.1970 C   0  0  0  0  0  0  0  0  0  0  0  0
   60.3050   28.1390   52.5110 C   0  0  0  0  0  0  0  0  0  0  0  0
   61.5680   27.8140   52.0210 C   0  0  0  0  0  0  0  0  0  0  0  0
   62.2480   28.7110   51.2050 C   0  0  0  0  0  0  0  0  0  0  0  0
   61.6830   29.9480   50.8920 C   0  0  0  0  0  0  0  0  0  0  0  0
   60.4140   30.3230   51.4070 C   0  0  0  0  0  0  0  0  0  0  0  0
   59.8430   31.5560   51.1550 N   0  0  0  0  0  0  0  0  0  0  0  0
   60.5680   32.6460   50.4600 C   0  0  0  0  0  0  0  0  0  0  0  0
   60.2470   32.6660   48.9920 C   0  0  0  0  0  0  0  0  0  0  0  0
   61.1490   32.3570   48.1700 O   0  0  0  0  0  0  0  0  0  0  0  0
   58.9330   33.0280   48.5310 N   0  0  0  0  0  0  0  0  0  0  0  0
   58.5440   33.0320   47.1470 C   0  0  0  0  0  0  0  0  0  0  0  0
   58.5760   34.2340   46.4260 C   0  0  0  0  0  0  0  0  0  0  0  0
   58.2130   34.2590   45.0760 C   0  0  0  0  0  0  0  0  0  0  0  0
   57.8060   33.0850   44.4370 C   0  0  0  0  0  0  0  0  0  0  0  0
   57.7390   31.8820   45.1520 C   0  0  0  0  0  0  0  0  0  0  0  0
   57.2180   30.3960   44.3520 S   0  0  0  0  0  0  0  0  0  0  0  0
   55.7980   30.0940   44.7480 O   0  0  0  0  0  0  0  0  0  0  0  0
   57.2490   30.6050   42.8630 O   0  0  0  0  0  0  0  0  0  0  0  0
   58.2400   29.0400   44.7630 N   0  0  0  0  0  0  0  0  0  0  0  0
   57.7910   28.4180   46.0200 C   0  0  0  0  0  0  0  0  0  0  0  0
   58.8170   27.3770   46.5100 C   0  0  0  0  0  0  0  0  0  0  0  0
   59.7790   27.0980   45.5100 O   0  0  0  0  0  0  0  0  0  0  0  0
   60.5350   28.2630   45.2330 C   0  0  0  0  0  0  0  0  0  0  0  0
   59.6410   29.4690   44.8750 C   0  0  0  0  0  0  0  0  0  0  0  0
   58.0970   31.8620   46.5080 C   0  0  0  0  0  0  0  0  0  0  0  0
   58.5570   31.8120   51.5750 C   0  0  0  0  0  0  0  0  0  0  0  0
   58.0170   32.9220   51.2940 O   0  0  0  0  0  0  0  0  0  0  0  0
   54.4160   30.8090   51.3350 N   0  0  0  0  0  0  0  0  0  0  0  0
   53.1260   31.2080   51.8200 C   0  0  0  0  0  0  0  0  0  0  0  0
   52.7050   30.7480   53.0720 C   0  0  0  0  0  0  0  0  0  0  0  0
   51.4430   31.0910   53.5570 C   0  0  0  0  0  0  0  0  0  0  0  0
   50.6020   31.8850   52.7730 C   0  0  0  0  0  0  0  0  0  0  0  0
   51.0130   32.3050   51.5460 N   0  0  0  0  0  0  0  0  0  0  0  0
   52.2400   31.9870   51.0550 C   0  0  0  0  0  0  0  0  0  0  0  0
   56.2333   32.2386   52.4658 H   0  0  0  0  0  0  0  0  0  0  0  0
   56.4225   31.0899   53.8407 H   0  0  0  0  0  0  0  0  0  0  0  0
   59.7647   27.4225   53.1471 H   0  0  0  0  0  0  0  0  0  0  0  0
   62.0269   26.8483   52.2796 H   0  0  0  0  0  0  0  0  0  0  0  0
   63.2369   28.4442   50.8039 H   0  0  0  0  0  0  0  0  0  0  0  0
   62.2287   30.6428   50.2367 H   0  0  0  0  0  0  0  0  0  0  0  0
   60.2770   33.6096   50.9036 H   0  0  0  0  0  0  0  0  0  0  0  0
   61.6482   32.4741   50.5769 H   0  0  0  0  0  0  0  0  0  0  0  0
   58.2740   33.4600   49.2150 H   0  0  0  0  0  0  0  0  0  0  0  0
   58.8886   35.1629   46.9254 H   0  0  0  0  0  0  0  0  0  0  0  0
   58.2479   35.2050   44.5157 H   0  0  0  0  0  0  0  0  0  0  0  0
   57.5376   33.1053   43.3704 H   0  0  0  0  0  0  0  0  0  0  0  0
   57.6735   29.1978   46.7869 H   0  0  0  0  0  0  0  0  0  0  0  0
   56.8313   27.9113   45.8406 H   0  0  0  0  0  0  0  0  0  0  0  0
   59.3289   27.7693   47.4011 H   0  0  0  0  0  0  0  0  0  0  0  0
   58.2822   26.4459   46.7490 H   0  0  0  0  0  0  0  0  0  0  0  0
   61.1324   28.5166   46.1211 H   0  0  0  0  0  0  0  0  0  0  0  0
   61.1765   28.0499   44.3652 H   0  0  0  0  0  0  0  0  0  0  0  0
   59.7264   30.2323   45.6624 H   0  0  0  0  0  0  0  0  0  0  0  0
   59.9685   29.8882   43.9122 H   0  0  0  0  0  0  0  0  0  0  0  0
   58.0275   30.9229   47.0765 H   0  0  0  0  0  0  0  0  0  0  0  0
   53.3710   30.1140   53.6758 H   0  0  0  0  0  0  0  0  0  0  0  0
   51.1134   30.7402   54.5461 H   0  0  0  0  0  0  0  0  0  0  0  0
   49.6080   32.1704   53.1478 H   0  0  0  0  0  0  0  0  0  0  0  0
   52.5404   32.3397   50.0573 H   0  0  0  0  0  0  0  0  0  0  0  0
  1  2  2  0
  2  3  1  0
  3  4  1  0
  4  5  1  0
  5  6  2  0
  5  7  1  0
  7  8  2  0
  8  9  1  0
  9 10  2  0
 10 11  1  0
 11 12  2  0
 12 13  1  0
 13 14  1  0
 14 15  1  0
 15 16  2  0
 15 17  1  0
 17 18  1  0
 18 19  2  0
 19 20  1  0
 20 21  2  0
 21 22  1  0
 22 23  1  0
 23 24  2  0
 23 25  2  0
 23 26  1  0
 26 27  1  0
 27 28  1  0
 28 29  1  0
 29 30  1  0
 30 31  1  0
 22 32  2  0
 13 33  1  0
 33 34  2  0
  2 35  1  0
 35 36  1  0
 36 37  2  0
 37 38  1  0
 38 39  2  0
 39 40  1  0
 40 41  2  0
 33  4  1  0
 41 36  1  0
 12  7  1  0
 32 18  1  0
 31 26  1  0
  3 42  1  0
  3 43  1  0
  8 44  1  0
  9 45  1  0
 10 46  1  0
 11 47  1  0
 14 48  1  0
 14 49  1  0
 17 50  1  0
 19 51  1  0
 20 52  1  0
 21 53  1  0
 27 54  1  0
 27 55  1  0
 28 56  1  0
 28 57  1  0
 30 58  1  0
 30 59  1  0
 31 60  1  0
 31 61  1  0
 32 62  1  0
 37 63  1  0
 38 64  1  0
 39 65  1  0
 41 66  1  0
M  CHG  1  35  -1
M  END
>  <UniqueID>  (67) 
60

>  <SMILES>  (67) 
O=C(Cn1c(=O)c2ccccc2n(CC(=O)Nc2cccc(S(=O)(=O)N3CCOCC3)c2)c1=O)[N-]c1cccnc1

>  <Energy>  (67) 
101.28096358095843

>  <Genealogy>  (67) 
O=C(Cn1c(=O)c2ccccc2n(CC(=O)Nc2cccc(S(=O)(=O)N3CCOCC3)c2)c1=O)[N-]c1cccnc1 (protonated)
O=C(Cn1c(=O)c2ccccc2n(CC(=O)Nc2cccc(S(=O)(=O)N3CCOCC3)c2)c1=O)[N-]c1cccnc1 (3D coordinates assigned)
O=C(Cn1c(=O)c2ccccc2n(CC(=O)Nc2cccc(S(=O)(=O)N3CCOCC3)c2)c1=O)[N-]c1cccnc1 (nonaromatic ring conformer: 101.28096358095843 kcal/mol)

>  <smiles>  (67) 
O=C(Cn1c(=O)c2ccccc2n(CC(=O)Nc2cccc(S(=O)(=O)N3CCOCC3)c2)c1=O)Nc1cccnc1

>  <score_type>  (67) 
oracle

>  <origin>  (67) 
adg

>  <m_score__min__energy>  (67) 
-12.27

>  <m_primary>  (67) 
energy

$$$$
67:0
     RDKit          3D

 31 32  0  0  0  0  0  0  0  0999 V2000
   56.9800   30.9390   43.0380 C   0  0  0  0  0  0  0  0  0  0  0  0
   57.8740   31.9050   43.2660 C   0  0  0  0  0  0  0  0  0  0  0  0
   57.5700   33.0290   44.2110 C   0  0  0  0  0  0  0  0  0  0  0  0
   58.7110   33.2740   45.0920 N   0  0  0  0  0  0  0  0  0  0  0  0
   58.6500   33.0670   46.5110 C   0  0  0  0  0  0  0  0  0  0  0  0
   59.2380   34.2190   47.5110 S   0  0  0  0  0  0  0  0  0  0  0  0
   58.0740   31.8850   47.0860 N   0  0  0  0  0  0  0  0  0  0  0  0
   58.2620   30.6760   46.6500 C   0  0  0  0  0  0  0  0  0  0  0  0
   59.3890   29.9790   46.8990 N   0  0  0  0  0  0  0  0  0  0  0  0
   59.1610   28.8000   46.2870 C   0  0  0  0  0  0  0  0  0  0  0  0
   57.9150   28.8360   45.7000 C   0  0  0  0  0  0  0  0  0  0  0  0
   57.2510   27.7430   44.9250 C   0  0  0  0  0  0  0  0  0  0  0  0
   57.1790   26.4870   45.7630 C   0  0  0  0  0  0  0  0  0  0  0  0
   55.9450   26.0120   46.2380 C   0  0  0  0  0  0  0  0  0  0  0  0
   54.7710   26.7150   45.9930 O   0  0  0  0  0  0  0  0  0  0  0  0
   55.8890   24.8510   46.9410 N   0  0  0  0  0  0  0  0  0  0  0  0
   57.0090   24.1260   47.1880 C   0  0  0  0  0  0  0  0  0  0  0  0
   56.9310   23.0530   47.8400 O   0  0  0  0  0  0  0  0  0  0  0  0
   58.2110   24.5550   46.7280 N   0  0  0  0  0  0  0  0  0  0  0  0
   58.3230   25.7080   46.0200 C   0  0  0  0  0  0  0  0  0  0  0  0
   59.4540   26.0620   45.5940 O   0  0  0  0  0  0  0  0  0  0  0  0
   57.3890   30.0130   45.9260 O   0  0  0  0  0  0  0  0  0  0  0  0
   57.2190   30.1216   42.3417 H   0  0  0  0  0  0  0  0  0  0  0  0
   56.0048   30.9609   43.5465 H   0  0  0  0  0  0  0  0  0  0  0  0
   58.8468   31.8756   42.7534 H   0  0  0  0  0  0  0  0  0  0  0  0
   57.3550   33.9403   43.6337 H   0  0  0  0  0  0  0  0  0  0  0  0
   56.6976   32.7560   44.8229 H   0  0  0  0  0  0  0  0  0  0  0  0
   59.4950   33.8530   44.7120 H   0  0  0  0  0  0  0  0  0  0  0  0
   59.8563   27.9480   46.2605 H   0  0  0  0  0  0  0  0  0  0  0  0
   56.2331   28.0571   44.6508 H   0  0  0  0  0  0  0  0  0  0  0  0
   57.8352   27.5381   44.0157 H   0  0  0  0  0  0  0  0  0  0  0  0
  1  2  2  0
  2  3  1  0
  3  4  1  0
  4  5  1  0
  5  6  2  0
  5  7  1  0
  7  8  2  3
  8  9  1  0
  9 10  1  0
 10 11  2  0
 11 12  1  0
 12 13  1  0
 13 14  2  0
 14 15  1  0
 14 16  1  0
 16 17  1  0
 17 18  2  0
 17 19  1  0
 19 20  1  0
 20 21  2  0
 11 22  1  0
 22  8  1  0
 20 13  1  0
  1 23  1  0
  1 24  1  0
  2 25  1  0
  3 26  1  0
  3 27  1  0
  4 28  1  0
 10 29  1  0
 12 30  1  0
 12 31  1  0
M  CHG  4   9  -1  15  -1  16  -1  19  -1
M  END
>  <UniqueID>  (68) 
61

>  <SMILES>  (68) 
C=CCNC(=S)N=c1[n-]cc(Cc2c([O-])[n-]c(=O)[n-]c2=O)o1

>  <Energy>  (68) 
61.68531560800171

>  <Genealogy>  (68) 
C=CCNC(=S)N=c1[n-]cc(Cc2c([O-])[n-]c(=O)[n-]c2=O)o1 (protonated)
C=CCNC(=S)N=c1[n-]cc(Cc2c([O-])[n-]c(=O)[n-]c2=O)o1 (3D coordinates assigned)
C=CCNC(=S)N=c1[n-]cc(Cc2c([O-])[n-]c(=O)[n-]c2=O)o1 (optimized conformer: 61.68531560800171 kcal/mol)

>  <smiles>  (68) 
C=CCNC(=S)N=c1[nH]cc(Cc2c(O)[nH]c(=O)[nH]c2=O)o1

>  <score_type>  (68) 
oracle

>  <origin>  (68) 
adg

>  <m_score__min__energy>  (68) 
-14.890000000000001

>  <m_primary>  (68) 
energy

$$$$
68:0
     RDKit          3D

 58 61  0  0  0  0  0  0  0  0999 V2000
   56.3080   29.4250   44.6940 C   0  0  0  0  0  0  0  0  0  0  0  0
   57.5770   29.1450   45.0360 C   0  0  0  0  0  0  0  0  0  0  0  0
   58.1590   27.8750   45.1740 C   0  0  0  0  0  0  0  0  0  0  0  0
   57.7070   26.6540   44.8260 C   0  0  0  0  0  0  0  0  0  0  0  0
   57.2510   25.6120   45.7690 C   0  0  0  0  0  0  0  0  0  0  0  0
   55.9720   25.6840   46.3380 C   0  0  0  0  0  0  0  0  0  0  0  0
   55.0990   26.7090   45.9900 O   0  0  0  0  0  0  0  0  0  0  0  0
   55.5750   24.7420   47.2330 N   0  0  0  0  0  0  0  0  0  0  0  0
   56.4020   23.7310   47.6010 C   0  0  0  0  0  0  0  0  0  0  0  0
   56.0090   22.8670   48.4270 O   0  0  0  0  0  0  0  0  0  0  0  0
   57.6560   23.6540   47.0850 N   0  0  0  0  0  0  0  0  0  0  0  0
   58.1020   24.5720   46.1890 C   0  0  0  0  0  0  0  0  0  0  0  0
   59.2790   24.4860   45.7500 O   0  0  0  0  0  0  0  0  0  0  0  0
   59.4080   28.0800   45.7390 C   0  0  0  0  0  0  0  0  0  0  0  0
   59.5740   29.4440   45.8570 C   0  0  0  0  0  0  0  0  0  0  0  0
   60.8190   30.1110   46.3580 C   0  0  0  0  0  0  0  0  0  0  0  0
   58.4660   30.0920   45.4330 N   0  0  0  0  0  0  0  0  0  0  0  0
   58.3000   31.5210   45.3740 C   0  0  0  0  0  0  0  0  0  0  0  0
   57.9400   32.1440   44.1730 C   0  0  0  0  0  0  0  0  0  0  0  0
   57.7690   33.5260   44.1290 C   0  0  0  0  0  0  0  0  0  0  0  0
   57.9560   34.2750   45.2920 C   0  0  0  0  0  0  0  0  0  0  0  0
   58.3040   33.6620   46.4560 N   0  0  0  0  0  0  0  0  0  0  0  0
   58.4770   32.3070   46.5250 C   0  0  0  0  0  0  0  0  0  0  0  0
   58.8260   31.6680   47.7220 O   0  0  0  0  0  0  0  0  0  0  0  0
   59.4860   32.2930   48.8170 C   0  0  0  0  0  0  0  0  0  0  0  0
   60.9320   32.5190   48.4490 C   0  0  0  0  0  0  0  0  0  0  0  0
   61.2240   33.4320   47.4190 C   0  0  0  0  0  0  0  0  0  0  0  0
   62.5380   33.6510   47.0100 C   0  0  0  0  0  0  0  0  0  0  0  0
   63.5820   32.9580   47.6160 C   0  0  0  0  0  0  0  0  0  0  0  0
   63.3170   32.0420   48.6330 C   0  0  0  0  0  0  0  0  0  0  0  0
   61.9970   31.8060   49.0740 C   0  0  0  0  0  0  0  0  0  0  0  0
   61.7570   30.7610   50.1630 C   0  0  0  0  0  0  0  0  0  0  0  0
   61.0950   29.5090   49.5770 C   0  0  0  0  0  0  0  0  0  0  0  0
   63.0550   30.4060   50.8990 C   0  0  0  0  0  0  0  0  0  0  0  0
   55.9762   30.4712   44.6206 H   0  0  0  0  0  0  0  0  0  0  0  0
   55.6010   28.6080   44.4874 H   0  0  0  0  0  0  0  0  0  0  0  0
   57.6750   26.4137   43.7530 H   0  0  0  0  0  0  0  0  0  0  0  0
   60.1285   27.3038   46.0362 H   0  0  0  0  0  0  0  0  0  0  0  0
   60.8180   30.1105   47.4580 H   0  0  0  0  0  0  0  0  0  0  0  0
   61.7006   29.5644   45.9919 H   0  0  0  0  0  0  0  0  0  0  0  0
   60.8523   31.1477   45.9919 H   0  0  0  0  0  0  0  0  0  0  0  0
   57.7922   31.5423   43.2641 H   0  0  0  0  0  0  0  0  0  0  0  0
   57.4896   34.0217   43.1876 H   0  0  0  0  0  0  0  0  0  0  0  0
   57.8214   35.3665   45.2674 H   0  0  0  0  0  0  0  0  0  0  0  0
   58.4330   34.2600   47.3010 H   0  0  0  0  0  0  0  0  0  0  0  0
   59.0053   33.2578   49.0365 H   0  0  0  0  0  0  0  0  0  0  0  0
   59.4232   31.6501   49.7073 H   0  0  0  0  0  0  0  0  0  0  0  0
   60.4047   33.9798   46.9305 H   0  0  0  0  0  0  0  0  0  0  0  0
   62.7505   34.3724   46.2072 H   0  0  0  0  0  0  0  0  0  0  0  0
   64.6184   33.1335   47.2918 H   0  0  0  0  0  0  0  0  0  0  0  0
   64.1495   31.4946   49.0991 H   0  0  0  0  0  0  0  0  0  0  0  0
   61.0703   31.1991   50.9022 H   0  0  0  0  0  0  0  0  0  0  0  0
   60.7513   28.8590   50.3951 H   0  0  0  0  0  0  0  0  0  0  0  0
   60.2353   29.8046   48.9577 H   0  0  0  0  0  0  0  0  0  0  0  0
   61.8233   28.9649   48.9577 H   0  0  0  0  0  0  0  0  0  0  0  0
   62.8853   30.4524   51.9848 H   0  0  0  0  0  0  0  0  0  0  0  0
   63.3684   29.3892   50.6200 H   0  0  0  0  0  0  0  0  0  0  0  0
   63.8423   31.1218   50.6200 H   0  0  0  0  0  0  0  0  0  0  0  0
  1  2  2  0
  2  3  1  0
  3  4  2  3
  4  5  1  0
  5  6  2  0
  6  7  1  0
  6  8  1  0
  8  9  1  0
  9 10  2  0
  9 11  1  0
 11 12  1  0
 12 13  2  0
  3 14  1  0
 14 15  2  0
 15 16  1  0
 15 17  1  0
 17 18  1  0
 18 19  2  0
 19 20  1  0
 20 21  2  0
 21 22  1  0
 22 23  2  0
 23 24  1  0
 24 25  1  0
 25 26  1  0
 26 27  2  0
 27 28  1  0
 28 29  2  0
 29 30  1  0
 30 31  2  0
 31 32  1  0
 32 33  1  0
 32 34  1  0
 17  2  1  0
 23 18  1  0
 31 26  1  0
 12  5  1  0
  1 35  1  0
  1 36  1  0
  4 37  1  0
 14 38  1  0
 16 39  1  0
 16 40  1  0
 16 41  1  0
 19 42  1  0
 20 43  1  0
 21 44  1  0
 22 45  1  0
 25 46  1  0
 25 47  1  0
 27 48  1  0
 28 49  1  0
 29 50  1  0
 30 51  1  0
 32 52  1  0
 33 53  1  0
 33 54  1  0
 33 55  1  0
 34 56  1  0
 34 57  1  0
 34 58  1  0
M  CHG  4   7  -1   8  -1  11  -1  22   1
M  END
>  <UniqueID>  (69) 
62

>  <SMILES>  (69) 
C=c1c(=Cc2c([O-])[n-]c(=O)[n-]c2=O)cc(C)n1-c1ccc[nH+]c1OCc1ccccc1C(C)C

>  <Energy>  (69) 
104.2826242702725

>  <Genealogy>  (69) 
C=c1c(=Cc2c([O-])[n-]c(=O)[n-]c2=O)cc(C)n1-c1ccc[nH+]c1OCc1ccccc1C(C)C (protonated)
C=c1c(=Cc2c([O-])[n-]c(=O)[n-]c2=O)cc(C)n1-c1ccc[nH+]c1OCc1ccccc1C(C)C (3D coordinates assigned)
C=c1c(=Cc2c([O-])[n-]c(=O)[n-]c2=O)cc(C)n1-c1ccc[nH+]c1OCc1ccccc1C(C)C (optimized conformer: 104.2826242702725 kcal/mol)

>  <smiles>  (69) 
C=c1c(=Cc2c(O)[nH]c(=O)[nH]c2=O)cc(C)n1-c1cccnc1OCc1ccccc1C(C)C

>  <score_type>  (69) 
oracle

>  <origin>  (69) 
adg

>  <m_score__min__energy>  (69) 
-15.41

>  <m_primary>  (69) 
energy

$$$$
69:0
     RDKit          3D

 40 43  0  0  0  0  0  0  0  0999 V2000
   58.0740   25.3130   47.0150 O   0  0  0  0  0  0  0  0  0  0  0  0
   57.9040   25.7510   45.8390 C   0  0  0  0  0  0  0  0  0  0  0  0
   57.2970   24.8490   44.7870 C   0  0  0  0  0  0  0  0  0  0  0  0
   55.8170   24.6720   44.9720 C   0  0  0  0  0  0  0  0  0  0  0  0
   55.1140   23.6320   44.4910 N   0  0  0  0  0  0  0  0  0  0  0  0
   53.8610   23.8750   44.9360 C   0  0  0  0  0  0  0  0  0  0  0  0
   52.8920   23.1120   44.6790 O   0  0  0  0  0  0  0  0  0  0  0  0
   53.7250   24.9980   45.6760 N   0  0  0  0  0  0  0  0  0  0  0  0
   54.9760   25.4880   45.6910 C   0  0  0  0  0  0  0  0  0  0  0  0
   55.3560   26.6410   46.3740 O   0  0  0  0  0  0  0  0  0  0  0  0
   58.2620   27.1200   45.5330 N   0  0  0  0  0  0  0  0  0  0  0  0
   59.5420   27.6400   46.0710 C   0  0  0  0  0  0  0  0  0  0  0  0
   60.0240   28.9010   45.3430 C   0  0  0  0  0  0  0  0  0  0  0  0
   58.9080   29.8200   45.2010 N   0  0  0  0  0  0  0  0  0  0  0  0
   58.8890   31.1610   45.2620 C   0  0  0  0  0  0  0  0  0  0  0  0
   57.5820   31.5580   45.0500 C   0  0  0  0  0  0  0  0  0  0  0  0
   57.0750   32.9640   45.1250 C   0  0  0  0  0  0  0  0  0  0  0  0
   58.0430   33.8030   45.8260 N   0  0  0  0  0  0  0  0  0  0  0  0
   58.9880   34.5710   45.2510 C   0  0  0  0  0  0  0  0  0  0  0  0
   59.7510   35.1360   46.2510 C   0  0  0  0  0  0  0  0  0  0  0  0
   59.2110   34.6500   47.4270 C   0  0  0  0  0  0  0  0  0  0  0  0
   58.1740   33.8360   47.1450 N   0  0  0  0  0  0  0  0  0  0  0  0
   56.7860   30.4760   44.8830 N   0  0  0  0  0  0  0  0  0  0  0  0
   57.6470   29.4390   44.9760 C   0  0  0  0  0  0  0  0  0  0  0  0
   57.2720   27.9950   44.8620 C   0  0  0  0  0  0  0  0  0  0  0  0
   57.4793   25.2895   43.7957 H   0  0  0  0  0  0  0  0  0  0  0  0
   57.7682   23.8594   44.8801 H   0  0  0  0  0  0  0  0  0  0  0  0
   54.7710   27.4690   46.3580 H   0  0  0  0  0  0  0  0  0  0  0  0
   59.4042   27.8798   47.1357 H   0  0  0  0  0  0  0  0  0  0  0  0
   60.3042   26.8607   45.9236 H   0  0  0  0  0  0  0  0  0  0  0  0
   60.8246   29.3801   45.9257 H   0  0  0  0  0  0  0  0  0  0  0  0
   60.4126   28.6315   44.3498 H   0  0  0  0  0  0  0  0  0  0  0  0
   59.7507   31.8195   45.4459 H   0  0  0  0  0  0  0  0  0  0  0  0
   56.9247   33.3526   44.1070 H   0  0  0  0  0  0  0  0  0  0  0  0
   56.1206   32.9769   45.6717 H   0  0  0  0  0  0  0  0  0  0  0  0
   59.1272   34.7216   44.1703 H   0  0  0  0  0  0  0  0  0  0  0  0
   60.6027   35.8229   46.1377 H   0  0  0  0  0  0  0  0  0  0  0  0
   59.5720   34.8905   48.4378 H   0  0  0  0  0  0  0  0  0  0  0  0
   56.2875   27.8439   45.3289 H   0  0  0  0  0  0  0  0  0  0  0  0
   57.2454   27.7295   43.7949 H   0  0  0  0  0  0  0  0  0  0  0  0
  1  2  2  0
  2  3  1  0
  3  4  1  0
  4  5  1  0
  5  6  1  0
  6  7  2  0
  6  8  1  0
  8  9  1  0
  9 10  1  0
  2 11  1  0
 11 12  1  0
 12 13  1  0
 13 14  1  0
 14 15  1  0
 15 16  2  0
 16 17  1  0
 17 18  1  0
 18 19  1  0
 19 20  2  0
 20 21  1  0
 21 22  2  0
 16 23  1  0
 23 24  2  0
 24 25  1  0
  9  4  2  0
 25 11  1  0
 24 14  1  0
 22 18  1  0
  3 26  1  0
  3 27  1  0
 10 28  1  0
 12 29  1  0
 12 30  1  0
 13 31  1  0
 13 32  1  0
 15 33  1  0
 17 34  1  0
 17 35  1  0
 19 36  1  0
 20 37  1  0
 21 38  1  0
 25 39  1  0
 25 40  1  0
M  CHG  2   5  -1   8  -1
M  END
>  <UniqueID>  (70) 
63

>  <SMILES>  (70) 
O=C(Cc1[n-]c(=O)[n-]c1O)N1CCn2cc(Cn3cccn3)nc2C1

>  <Energy>  (70) 
131.30124458943484

>  <Genealogy>  (70) 
O=C(Cc1[n-]c(=O)[n-]c1O)N1CCn2cc(Cn3cccn3)nc2C1 (protonated)
O=C(Cc1[n-]c(=O)[n-]c1O)N1CCn2cc(Cn3cccn3)nc2C1 (3D coordinates assigned)
O=C(Cc1[n-]c(=O)[n-]c1O)N1CCn2cc(Cn3cccn3)nc2C1 (nonaromatic ring conformer: 131.30124458943484 kcal/mol)

>  <smiles>  (70) 
O=C(Cc1[nH]c(=O)[nH]c1O)N1CCn2cc(Cn3cccn3)nc2C1

>  <score_type>  (70) 
oracle

>  <origin>  (70) 
adg

>  <m_score__min__energy>  (70) 
-12.199999999999999

>  <m_primary>  (70) 
energy

$$$$
71:0
     RDKit          3D

 40 43  0  0  0  0  0  0  0  0999 V2000
   60.9186   22.3893   45.2715 H   0  0  0  0  0  0  0  0  0  0  0  0
   60.0220   21.8970   44.8670 C   0  0  0  0  0  0  0  0  0  0  0  0
   60.1252   21.0301   44.1978 H   0  0  0  0  0  0  0  0  0  0  0  0
   58.8130   22.3500   45.1870 C   0  0  0  0  0  0  0  0  0  0  0  0
   58.6130   23.4140   45.9960 N   0  0  0  0  0  0  0  0  0  0  0  0
   57.2740   23.5610   46.0820 C   0  0  0  0  0  0  0  0  0  0  0  0
   56.7100   24.5420   46.8020 C   0  0  0  0  0  0  0  0  0  0  0  0
   56.1877   24.2646   47.7295 H   0  0  0  0  0  0  0  0  0  0  0  0
   56.7450   25.9650   46.4310 C   0  0  0  0  0  0  0  0  0  0  0  0
   55.6920   26.7180   45.9310 C   0  0  0  0  0  0  0  0  0  0  0  0
   54.3960   26.2470   45.7620 O   0  0  0  0  0  0  0  0  0  0  0  0
   56.0640   27.9810   45.6210 N   0  0  0  0  0  0  0  0  0  0  0  0
   57.3800   28.0150   45.9130 C   0  0  0  0  0  0  0  0  0  0  0  0
   58.2350   29.1030   45.7590 C   0  0  0  0  0  0  0  0  0  0  0  0
   57.8635   30.0628   45.3707 H   0  0  0  0  0  0  0  0  0  0  0  0
   59.5930   28.9410   46.1150 C   0  0  0  0  0  0  0  0  0  0  0  0
   60.5150   30.0370   46.0490 N   0  0  0  0  0  0  0  0  0  0  0  0
   60.9380   30.8340   47.1640 C   0  0  0  0  0  0  0  0  0  0  0  0
   61.7560   30.3470   47.9870 O   0  0  0  0  0  0  0  0  0  0  0  0
   60.4590   32.1710   47.3680 N   0  0  0  0  0  0  0  0  0  0  0  0
   59.4900   32.8490   46.5560 C   0  0  0  0  0  0  0  0  0  0  0  0
   59.8790   33.9900   45.8430 C   0  0  0  0  0  0  0  0  0  0  0  0
   60.9083   34.3673   45.9331 H   0  0  0  0  0  0  0  0  0  0  0  0
   58.9650   34.6520   45.0170 C   0  0  0  0  0  0  0  0  0  0  0  0
   59.2801   35.5397   44.4489 H   0  0  0  0  0  0  0  0  0  0  0  0
   57.6510   34.1860   44.9130 C   0  0  0  0  0  0  0  0  0  0  0  0
   56.9352   34.7012   44.2556 H   0  0  0  0  0  0  0  0  0  0  0  0
   57.2470   33.0660   45.6440 C   0  0  0  0  0  0  0  0  0  0  0  0
   56.2108   32.7049   45.5675 H   0  0  0  0  0  0  0  0  0  0  0  0
   58.1580   32.4030   46.4730 C   0  0  0  0  0  0  0  0  0  0  0  0
   57.8327   31.5319   47.0607 H   0  0  0  0  0  0  0  0  0  0  0  0
   60.0620   27.6800   46.5470 C   0  0  0  0  0  0  0  0  0  0  0  0
   61.1300   27.5446   46.7730 H   0  0  0  0  0  0  0  0  0  0  0  0
   59.1770   26.5960   46.6910 C   0  0  0  0  0  0  0  0  0  0  0  0
   59.5337   25.6127   47.0315 H   0  0  0  0  0  0  0  0  0  0  0  0
   57.8330   26.8090   46.3880 C   0  0  0  0  0  0  0  0  0  0  0  0
   56.6430   22.5960   45.3070 C   0  0  0  0  0  0  0  0  0  0  0  0
   55.2790   22.4540   45.0820 O   0  0  0  0  0  0  0  0  0  0  0  0
   57.6200   21.8140   44.7410 C   0  0  0  0  0  0  0  0  0  0  0  0
   57.4825   20.9483   44.0764 H   0  0  0  0  0  0  0  0  0  0  0  0
  1  2  1  0
  2  3  1  0
  2  4  2  0
  4  5  1  0
  5  6  1  0
  6  7  2  0
  7  8  1  0
  7  9  1  0
  9 10  2  0
 10 11  1  0
 10 12  1  0
 12 13  1  0
 13 14  2  0
 14 15  1  0
 14 16  1  0
 16 17  1  0
 17 18  1  0
 18 19  2  0
 18 20  1  0
 20 21  1  0
 21 22  2  0
 22 23  1  0
 22 24  1  0
 24 25  1  0
 24 26  2  0
 26 27  1  0
 26 28  1  0
 28 29  1  0
 28 30  2  0
 30 31  1  0
 16 32  2  0
 32 33  1  0
 32 34  1  0
 34 35  1  0
 34 36  2  0
  6 37  1  0
 37 38  1  0
 37 39  2  0
 39 40  1  0
 39  4  1  0
 36  9  1  0
 36 13  1  0
 30 21  1  0
M  CHG  6   5  -1  11  -1  12  -1  17  -1  20  -1  38  -1
M  END
>  <UniqueID>  (71) 
64

>  <SMILES>  (71) 
C=c1cc([O-])/c(=C\c2c([O-])[n-]c3cc([N-]C(=O)[N-]c4ccccc4)ccc23)[n-]1

>  <Energy>  (71) 
117.52275155021152

>  <Genealogy>  (71) 
C=c1cc([O-])c(=Cc2c([O-])[n-]c3cc([N-]C(=O)[N-]c4ccccc4)ccc23)[n-]1 (protonated)
C=c1cc([O-])/c(=C\c2c([O-])[n-]c3cc([N-]C(=O)[N-]c4ccccc4)ccc23)[n-]1 (cis-trans isomerization)
C=c1cc([O-])/c(=C\c2c([O-])[n-]c3cc([N-]C(=O)[N-]c4ccccc4)ccc23)[n-]1 (3D coordinates assigned)
C=c1cc([O-])/c(=C\c2c([O-])[n-]c3cc([N-]C(=O)[N-]c4ccccc4)ccc23)[n-]1 (optimized conformer: 117.52275155021152 kcal/mol)

>  <smiles>  (71) 
C=c1cc(O)c(=Cc2c(O)[nH]c3cc(NC(=O)Nc4ccccc4)ccc23)[nH]1

>  <score_type>  (71) 
oracle

>  <origin>  (71) 
adg

>  <m_score__min__energy>  (71) 
-19.02

>  <m_primary>  (71) 
energy

$$$$
72:0
     RDKit          3D

 60 64  0  0  0  0  0  0  0  0999 V2000
   57.5250   25.8210   47.1660 C   0  0  0  0  0  0  0  0  0  0  0  0
   57.4480   25.8380   45.8260 C   0  0  0  0  0  0  0  0  0  0  0  0
   56.9230   24.8330   44.9980 C   0  0  0  0  0  0  0  0  0  0  0  0
   56.1720   23.7520   45.2870 C   0  0  0  0  0  0  0  0  0  0  0  0
   54.7000   23.7120   45.3020 C   0  0  0  0  0  0  0  0  0  0  0  0
   53.9610   22.5880   45.2290 N   0  0  0  0  0  0  0  0  0  0  0  0
   52.6990   23.0340   45.4090 C   0  0  0  0  0  0  0  0  0  0  0  0
   51.7010   22.2680   45.3910 O   0  0  0  0  0  0  0  0  0  0  0  0
   52.5910   24.3640   45.6190 N   0  0  0  0  0  0  0  0  0  0  0  0
   53.8680   24.7730   45.5630 C   0  0  0  0  0  0  0  0  0  0  0  0
   54.2660   26.0910   45.7500 O   0  0  0  0  0  0  0  0  0  0  0  0
   57.3060   25.1560   43.7050 C   0  0  0  0  0  0  0  0  0  0  0  0
   57.9670   26.3650   43.7740 C   0  0  0  0  0  0  0  0  0  0  0  0
   58.5290   27.0950   42.5920 C   0  0  0  0  0  0  0  0  0  0  0  0
   58.0550   26.7800   45.0590 N   0  0  0  0  0  0  0  0  0  0  0  0
   58.6920   27.9900   45.5110 C   0  0  0  0  0  0  0  0  0  0  0  0
   57.9450   28.9930   46.1430 C   0  0  0  0  0  0  0  0  0  0  0  0
   58.5710   30.1590   46.5930 C   0  0  0  0  0  0  0  0  0  0  0  0
   59.9520   30.3430   46.4080 C   0  0  0  0  0  0  0  0  0  0  0  0
   60.6020   31.5330   46.8970 N   0  0  0  0  0  0  0  0  0  0  0  0
   59.7970   32.7350   47.1720 C   0  0  0  0  0  0  0  0  0  0  0  0
   60.5810   33.7480   48.0130 C   0  0  0  0  0  0  0  0  0  0  0  0
   61.3150   33.0410   49.0720 N   0  0  0  0  0  0  0  0  0  0  0  0
   61.1750   33.3980   50.4590 C   0  0  0  0  0  0  0  0  0  0  0  0
   62.1820   33.3430   51.2180 O   0  0  0  0  0  0  0  0  0  0  0  0
   59.8470   33.8190   51.0300 C   0  0  0  0  0  0  0  0  0  0  0  0
   59.0080   32.6160   51.3810 C   0  0  0  0  0  0  0  0  0  0  0  0
   59.0070   32.1200   52.6920 C   0  0  0  0  0  0  0  0  0  0  0  0
   58.2320   31.0540   53.0170 N   0  0  0  0  0  0  0  0  0  0  0  0
   57.4400   30.4560   52.0890 C   0  0  0  0  0  0  0  0  0  0  0  0
   56.7310   29.4680   52.4110 O   0  0  0  0  0  0  0  0  0  0  0  0
   57.4110   30.9260   50.8160 N   0  0  0  0  0  0  0  0  0  0  0  0
   58.1680   31.9890   50.4420 C   0  0  0  0  0  0  0  0  0  0  0  0
   58.1060   32.4060   49.2540 O   0  0  0  0  0  0  0  0  0  0  0  0
   62.2060   31.9260   48.7130 C   0  0  0  0  0  0  0  0  0  0  0  0
   62.0310   31.5250   47.2430 C   0  0  0  0  0  0  0  0  0  0  0  0
   60.6970   29.3320   45.7770 C   0  0  0  0  0  0  0  0  0  0  0  0
   60.0720   28.1660   45.3300 C   0  0  0  0  0  0  0  0  0  0  0  0
   57.9612   26.6764   47.7027 H   0  0  0  0  0  0  0  0  0  0  0  0
   57.1519   24.9517   47.7274 H   0  0  0  0  0  0  0  0  0  0  0  0
   56.7035   22.8207   45.5325 H   0  0  0  0  0  0  0  0  0  0  0  0
   57.1187   24.5622   42.7982 H   0  0  0  0  0  0  0  0  0  0  0  0
   59.1655   27.9218   42.9404 H   0  0  0  0  0  0  0  0  0  0  0  0
   59.1287   26.4016   41.9840 H   0  0  0  0  0  0  0  0  0  0  0  0
   57.7053   27.4974   41.9840 H   0  0  0  0  0  0  0  0  0  0  0  0
   56.8621   28.8624   46.2855 H   0  0  0  0  0  0  0  0  0  0  0  0
   57.9787   30.9379   47.0954 H   0  0  0  0  0  0  0  0  0  0  0  0
   59.5145   33.2035   46.2177 H   0  0  0  0  0  0  0  0  0  0  0  0
   58.9024   32.4329   47.7362 H   0  0  0  0  0  0  0  0  0  0  0  0
   61.2929   34.2859   47.3697 H   0  0  0  0  0  0  0  0  0  0  0  0
   59.8827   34.4663   48.4673 H   0  0  0  0  0  0  0  0  0  0  0  0
   60.0180   34.4164   51.9377 H   0  0  0  0  0  0  0  0  0  0  0  0
   59.3117   34.4134   50.2750 H   0  0  0  0  0  0  0  0  0  0  0  0
   59.6356   32.5957   53.4592 H   0  0  0  0  0  0  0  0  0  0  0  0
   63.2492   32.2330   48.8791 H   0  0  0  0  0  0  0  0  0  0  0  0
   61.9506   31.0606   49.3421 H   0  0  0  0  0  0  0  0  0  0  0  0
   62.5670   32.2404   46.6020 H   0  0  0  0  0  0  0  0  0  0  0  0
   62.4389   30.5152   47.0885 H   0  0  0  0  0  0  0  0  0  0  0  0
   61.7801   29.4601   45.6342 H   0  0  0  0  0  0  0  0  0  0  0  0
   60.6639   27.3826   44.8341 H   0  0  0  0  0  0  0  0  0  0  0  0
  1  2  2  0
  2  3  1  0
  3  4  2  3
  4  5  1  0
  5  6  1  0
  6  7  1  0
  7  8  2  0
  7  9  1  0
  9 10  1  0
 10 11  1  0
  3 12  1  0
 12 13  2  0
 13 14  1  0
 13 15  1  0
 15 16  1  0
 16 17  2  0
 17 18  1  0
 18 19  2  0
 19 20  1  0
 20 21  1  0
 21 22  1  0
 22 23  1  0
 23 24  1  0
 24 25  2  0
 24 26  1  0
 26 27  1  0
 27 28  2  0
 28 29  1  0
 29 30  1  0
 30 31  2  0
 30 32  1  0
 32 33  1  0
 33 34  2  0
 23 35  1  0
 35 36  1  0
 19 37  1  0
 37 38  2  0
 15  2  1  0
 38 16  1  0
 10  5  2  0
 36 20  1  0
 33 27  1  0
  1 39  1  0
  1 40  1  0
  4 41  1  0
 12 42  1  0
 14 43  1  0
 14 44  1  0
 14 45  1  0
 17 46  1  0
 18 47  1  0
 21 48  1  0
 21 49  1  0
 22 50  1  0
 22 51  1  0
 26 52  1  0
 26 53  1  0
 28 54  1  0
 35 55  1  0
 35 56  1  0
 36 57  1  0
 36 58  1  0
 37 59  1  0
 38 60  1  0
M  CHG  5   6  -1   9  -1  11  -1  29  -1  32  -1
M  END
>  <UniqueID>  (72) 
65

>  <SMILES>  (72) 
C=c1c(=Cc2[n-]c(=O)[n-]c2[O-])cc(C)n1-c1ccc(N2CCN(C(=O)Cc3c[n-]c(=O)[n-]c3=O)CC2)cc1

>  <Energy>  (72) 
148.41679279282678

>  <Genealogy>  (72) 
C=c1c(=Cc2[n-]c(=O)[n-]c2[O-])cc(C)n1-c1ccc(N2CCN(C(=O)Cc3c[n-]c(=O)[n-]c3=O)CC2)cc1 (protonated)
C=c1c(=Cc2[n-]c(=O)[n-]c2[O-])cc(C)n1-c1ccc(N2CCN(C(=O)Cc3c[n-]c(=O)[n-]c3=O)CC2)cc1 (3D coordinates assigned)
C=c1c(=Cc2[n-]c(=O)[n-]c2[O-])cc(C)n1-c1ccc(N2CCN(C(=O)Cc3c[n-]c(=O)[n-]c3=O)CC2)cc1 (nonaromatic ring conformer: 148.41679279282678 kcal/mol)

>  <smiles>  (72) 
C=c1c(=Cc2[nH]c(=O)[nH]c2O)cc(C)n1-c1ccc(N2CCN(C(=O)Cc3c[nH]c(=O)[nH]c3=O)CC2)cc1

>  <score_type>  (72) 
oracle

>  <origin>  (72) 
adg

>  <m_score__min__energy>  (72) 
-18.489999999999998

>  <m_primary>  (72) 
energy

$$$$
73:0
     RDKit          3D

 38 40  0  0  0  0  0  0  0  0999 V2000
   55.8300   29.6340   44.8730 O   0  0  0  0  0  0  0  0  0  0  0  0
   57.0560   29.5380   45.1520 C   0  0  0  0  0  0  0  0  0  0  0  0
   57.7140   28.1960   44.9840 C   0  0  0  0  0  0  0  0  0  0  0  0
   56.8820   27.1250   45.6180 C   0  0  0  0  0  0  0  0  0  0  0  0
   55.5360   27.1360   45.6270 N   0  0  0  0  0  0  0  0  0  0  0  0
   55.1550   26.0630   46.2980 N   0  0  0  0  0  0  0  0  0  0  0  0
   56.2800   25.4370   46.6800 C   0  0  0  0  0  0  0  0  0  0  0  0
   56.2920   24.0570   47.5500 S   0  0  0  0  0  0  0  0  0  0  0  0
   57.3990   26.0690   46.2780 N   0  0  0  0  0  0  0  0  0  0  0  0
   57.7830   30.7340   45.6680 C   0  0  0  0  0  0  0  0  0  0  0  0
   57.5120   32.0050   45.1250 C   0  0  0  0  0  0  0  0  0  0  0  0
   58.1710   33.1410   45.6050 C   0  0  0  0  0  0  0  0  0  0  0  0
   59.1130   33.0300   46.6320 C   0  0  0  0  0  0  0  0  0  0  0  0
   59.9320   34.4670   47.2480 S   0  0  0  0  0  0  0  0  0  0  0  0
   59.7890   35.5850   46.2520 O   0  0  0  0  0  0  0  0  0  0  0  0
   59.2710   34.9000   48.5280 O   0  0  0  0  0  0  0  0  0  0  0  0
   61.6270   34.1710   47.5480 N   0  0  0  0  0  0  0  0  0  0  0  0
   61.8030   33.3550   48.7570 C   0  0  0  0  0  0  0  0  0  0  0  0
   63.3060   33.1220   49.0190 C   0  0  0  0  0  0  0  0  0  0  0  0
   64.1170   33.5920   47.9560 O   0  0  0  0  0  0  0  0  0  0  0  0
   63.6760   33.0340   46.7340 C   0  0  0  0  0  0  0  0  0  0  0  0
   62.2470   33.5060   46.3900 C   0  0  0  0  0  0  0  0  0  0  0  0
   59.3980   31.7700   47.1720 C   0  0  0  0  0  0  0  0  0  0  0  0
   58.7420   30.6320   46.6960 C   0  0  0  0  0  0  0  0  0  0  0  0
   57.8278   27.9796   43.9115 H   0  0  0  0  0  0  0  0  0  0  0  0
   58.6999   28.2180   45.4713 H   0  0  0  0  0  0  0  0  0  0  0  0
   56.7744   32.1050   44.3151 H   0  0  0  0  0  0  0  0  0  0  0  0
   57.9471   34.1272   45.1723 H   0  0  0  0  0  0  0  0  0  0  0  0
   61.3594   33.8774   49.6174 H   0  0  0  0  0  0  0  0  0  0  0  0
   61.3054   32.3844   48.6145 H   0  0  0  0  0  0  0  0  0  0  0  0
   63.5903   33.6503   49.9410 H   0  0  0  0  0  0  0  0  0  0  0  0
   63.4672   32.0378   49.1109 H   0  0  0  0  0  0  0  0  0  0  0  0
   64.3598   33.3441   45.9301 H   0  0  0  0  0  0  0  0  0  0  0  0
   63.6672   31.9386   46.8336 H   0  0  0  0  0  0  0  0  0  0  0  0
   62.2928   34.2134   45.5489 H   0  0  0  0  0  0  0  0  0  0  0  0
   61.6403   32.6296   46.1182 H   0  0  0  0  0  0  0  0  0  0  0  0
   60.1429   31.6755   47.9759 H   0  0  0  0  0  0  0  0  0  0  0  0
   58.9760   29.6475   47.1274 H   0  0  0  0  0  0  0  0  0  0  0  0
  1  2  2  0
  2  3  1  0
  3  4  1  0
  4  5  2  0
  5  6  1  0
  6  7  1  0
  7  8  2  0
  7  9  1  0
  2 10  1  0
 10 11  2  0
 11 12  1  0
 12 13  2  0
 13 14  1  0
 14 15  2  0
 14 16  2  0
 14 17  1  0
 17 18  1  0
 18 19  1  0
 19 20  1  0
 20 21  1  0
 21 22  1  0
 13 23  1  0
 23 24  2  0
  9  4  1  0
 24 10  1  0
 22 17  1  0
  3 25  1  0
  3 26  1  0
 11 27  1  0
 12 28  1  0
 18 29  1  0
 18 30  1  0
 19 31  1  0
 19 32  1  0
 21 33  1  0
 21 34  1  0
 22 35  1  0
 22 36  1  0
 23 37  1  0
 24 38  1  0
M  CHG  2   6  -1   9  -1
M  END
>  <UniqueID>  (73) 
66

>  <SMILES>  (73) 
O=C(Cc1n[n-]c(=S)[n-]1)c1ccc(S(=O)(=O)N2CCOCC2)cc1

>  <Energy>  (73) 
78.16117504338962

>  <Genealogy>  (73) 
O=C(Cc1n[n-]c(=S)[n-]1)c1ccc(S(=O)(=O)N2CCOCC2)cc1 (protonated)
O=C(Cc1n[n-]c(=S)[n-]1)c1ccc(S(=O)(=O)N2CCOCC2)cc1 (3D coordinates assigned)
O=C(Cc1n[n-]c(=S)[n-]1)c1ccc(S(=O)(=O)N2CCOCC2)cc1 (nonaromatic ring conformer: 78.16117504338962 kcal/mol)

>  <smiles>  (73) 
O=C(Cc1n[nH]c(=S)[nH]1)c1ccc(S(=O)(=O)N2CCOCC2)cc1

>  <score_type>  (73) 
oracle

>  <origin>  (73) 
adg

>  <m_score__min__energy>  (73) 
-12.65

>  <m_primary>  (73) 
energy

$$$$
74:0
     RDKit          3D

 80 81  0  0  0  0  0  0  0  0999 V2000
   51.0170   32.3420   50.0910 N   0  0  0  0  0  0  0  0  0  0  0  0
   51.1860   32.2170   51.5010 C   0  0  0  0  0  0  0  0  0  0  0  0
   50.3080   32.6920   52.2720 O   0  0  0  0  0  0  0  0  0  0  0  0
   52.3750   31.5280   52.0560 C   0  0  0  0  0  0  0  0  0  0  0  0
   52.3940   31.1180   53.4010 C   0  0  0  0  0  0  0  0  0  0  0  0
   53.4980   30.4370   53.9190 C   0  0  0  0  0  0  0  0  0  0  0  0
   54.6120   30.1680   53.1090 C   0  0  0  0  0  0  0  0  0  0  0  0
   55.8040   29.4300   53.6690 C   0  0  0  0  0  0  0  0  0  0  0  0
   56.9200   30.3670   54.1770 C   0  0  0  0  0  0  0  0  0  0  0  0
   57.9440   30.8050   53.1090 C   0  0  2  0  0  0  0  0  0  0  0  0
   57.4510   31.9930   52.4150 N   0  0  0  0  0  0  0  0  0  0  0  0
   58.2640   33.1130   52.0550 C   0  0  0  0  0  0  0  0  0  0  0  0
   57.9130   34.2850   52.3670 O   0  0  0  0  0  0  0  0  0  0  0  0
   59.5790   32.8680   51.3850 C   0  0  0  0  0  0  0  0  0  0  0  0
   59.5420   33.2820   49.9400 C   0  0  0  0  0  0  0  0  0  0  0  0
   60.4980   34.1750   49.4330 C   0  0  0  0  0  0  0  0  0  0  0  0
   60.4470   34.5760   48.0960 C   0  0  0  0  0  0  0  0  0  0  0  0
   59.4350   34.0980   47.2540 C   0  0  0  0  0  0  0  0  0  0  0  0
   59.3790   34.4980   45.9210 O   0  0  0  0  0  0  0  0  0  0  0  0
   58.4740   33.2130   47.7580 C   0  0  0  0  0  0  0  0  0  0  0  0
   57.4690   32.7310   46.9310 O   0  0  0  0  0  0  0  0  0  0  0  0
   58.5250   32.8100   49.0970 C   0  0  0  0  0  0  0  0  0  0  0  0
   58.2600   29.6910   52.1410 C   0  0  0  0  0  0  0  0  0  0  0  0
   57.4230   29.3930   51.2490 O   0  0  0  0  0  0  0  0  0  0  0  0
   59.4970   28.9710   52.2360 N   0  0  0  0  0  0  0  0  0  0  0  0
   59.6700   27.7400   53.0020 C   0  0  0  0  0  0  0  0  0  0  0  0
   60.9150   26.9630   52.5470 C   0  0  0  0  0  0  0  0  0  0  0  0
   60.7780   26.3820   51.1320 C   0  0  0  0  0  0  0  0  0  0  0  0
   60.9370   27.4360   50.1210 N   0  0  0  0  0  0  0  0  0  0  0  0
   60.7400   26.8830   48.7740 C   0  0  0  0  0  0  0  0  0  0  0  0
   59.3560   27.2680   48.2260 C   0  0  0  0  0  0  0  0  0  0  0  0
   59.3000   28.7130   47.7000 C   0  0  0  0  0  0  0  0  0  0  0  0
   58.8820   29.7200   48.7910 C   0  0  0  0  0  0  0  0  0  0  0  0
   60.0390   30.1970   49.5670 N   0  0  0  0  0  0  0  0  0  0  0  0
   61.1990   30.4390   48.6980 C   0  0  0  0  0  0  0  0  0  0  0  0
   62.3000   31.2180   49.4300 C   0  0  0  0  0  0  0  0  0  0  0  0
   62.8040   30.5330   50.7200 C   0  0  0  0  0  0  0  0  0  0  0  0
   61.7240   29.8930   51.4740 N   0  0  0  0  0  0  0  0  0  0  0  0
   54.6020   30.5890   51.7700 C   0  0  0  0  0  0  0  0  0  0  0  0
   53.4940   31.2610   51.2460 C   0  0  0  0  0  0  0  0  0  0  0  0
   51.6100   33.0000   49.5370 H   0  0  0  0  0  0  0  0  0  0  0  0
   51.5329   31.3352   54.0501 H   0  0  0  0  0  0  0  0  0  0  0  0
   53.4942   30.1093   54.9690 H   0  0  0  0  0  0  0  0  0  0  0  0
   55.4646   28.8047   54.5079 H   0  0  0  0  0  0  0  0  0  0  0  0
   56.2297   28.8310   52.8505 H   0  0  0  0  0  0  0  0  0  0  0  0
   56.4457   31.2715   54.5855 H   0  0  0  0  0  0  0  0  0  0  0  0
   57.4851   29.7923   54.9256 H   0  0  0  0  0  0  0  0  0  0  0  0
   58.8883   31.0545   53.6149 H   0  0  0  0  0  0  0  0  0  0  0  0
   60.3583   33.4459   51.9034 H   0  0  0  0  0  0  0  0  0  0  0  0
   59.7969   31.7908   51.4318 H   0  0  0  0  0  0  0  0  0  0  0  0
   61.2907   34.5608   50.0909 H   0  0  0  0  0  0  0  0  0  0  0  0
   61.2046   35.2699   47.7029 H   0  0  0  0  0  0  0  0  0  0  0  0
   58.6640   34.1500   45.2890 H   0  0  0  0  0  0  0  0  0  0  0  0
   57.7641   32.1199   49.4904 H   0  0  0  0  0  0  0  0  0  0  0  0
   59.7767   27.9939   54.0670 H   0  0  0  0  0  0  0  0  0  0  0  0
   58.7875   27.1044   52.8371 H   0  0  0  0  0  0  0  0  0  0  0  0
   61.7785   27.6443   52.5638 H   0  0  0  0  0  0  0  0  0  0  0  0
   61.0447   26.1171   53.2381 H   0  0  0  0  0  0  0  0  0  0  0  0
   61.5522   25.6156   50.9797 H   0  0  0  0  0  0  0  0  0  0  0  0
   59.7768   25.9387   51.0268 H   0  0  0  0  0  0  0  0  0  0  0  0
   60.1900   28.1510   50.2900 H   0  0  0  0  0  0  0  0  0  0  0  0
   61.5169   27.2794   48.1037 H   0  0  0  0  0  0  0  0  0  0  0  0
   60.8064   25.7864   48.8285 H   0  0  0  0  0  0  0  0  0  0  0  0
   59.1024   26.5847   47.4021 H   0  0  0  0  0  0  0  0  0  0  0  0
   58.6394   27.1917   49.0571 H   0  0  0  0  0  0  0  0  0  0  0  0
   60.2960   28.9914   47.3252 H   0  0  0  0  0  0  0  0  0  0  0  0
   58.5441   28.7503   46.9017 H   0  0  0  0  0  0  0  0  0  0  0  0
   58.3947   30.5820   48.3120 H   0  0  0  0  0  0  0  0  0  0  0  0
   58.1939   29.2102   49.4814 H   0  0  0  0  0  0  0  0  0  0  0  0
   60.2910   29.4930   50.3000 H   0  0  0  0  0  0  0  0  0  0  0  0
   61.6055   29.4718   48.3675 H   0  0  0  0  0  0  0  0  0  0  0  0
   60.8659   31.0393   47.8385 H   0  0  0  0  0  0  0  0  0  0  0  0
   63.1530   31.3366   48.7456 H   0  0  0  0  0  0  0  0  0  0  0  0
   61.8614   32.1806   49.7317 H   0  0  0  0  0  0  0  0  0  0  0  0
   63.5450   29.7674   50.4465 H   0  0  0  0  0  0  0  0  0  0  0  0
   63.2439   31.3109   51.3614 H   0  0  0  0  0  0  0  0  0  0  0  0
   60.9270   30.5620   51.5580 H   0  0  0  0  0  0  0  0  0  0  0  0
   61.3850   29.0560   50.9510 H   0  0  0  0  0  0  0  0  0  0  0  0
   55.4726   30.3886   51.1282 H   0  0  0  0  0  0  0  0  0  0  0  0
   53.4969   31.5830   50.1942 H   0  0  0  0  0  0  0  0  0  0  0  0
  1  2  1  0
  2  3  2  0
  2  4  1  0
  4  5  2  0
  5  6  1  0
  6  7  2  0
  7  8  1  0
  8  9  1  0
  9 10  1  0
 10 11  1  0
 11 12  1  0
 12 13  2  0
 12 14  1  0
 14 15  1  0
 15 16  2  0
 16 17  1  0
 17 18  2  0
 18 19  1  0
 18 20  1  0
 20 21  1  0
 20 22  2  0
 10 23  1  0
 23 24  2  0
 23 25  1  0
 25 26  1  0
 26 27  1  0
 27 28  1  0
 28 29  1  0
 29 30  1  0
 30 31  1  0
 31 32  1  0
 32 33  1  0
 33 34  1  0
 34 35  1  0
 35 36  1  0
 36 37  1  0
 37 38  1  0
  7 39  1  0
 39 40  2  0
 40  4  1  0
 22 15  1  0
  1 41  1  0
  5 42  1  0
  6 43  1  0
  8 44  1  0
  8 45  1  0
  9 46  1  0
  9 47  1  0
 10 48  1  1
 14 49  1  0
 14 50  1  0
 16 51  1  0
 17 52  1  0
 19 53  1  0
 22 54  1  0
 26 55  1  0
 26 56  1  0
 27 57  1  0
 27 58  1  0
 28 59  1  0
 28 60  1  0
 29 61  1  0
 30 62  1  0
 30 63  1  0
 31 64  1  0
 31 65  1  0
 32 66  1  0
 32 67  1  0
 33 68  1  0
 33 69  1  0
 34 70  1  0
 35 71  1  0
 35 72  1  0
 36 73  1  0
 36 74  1  0
 37 75  1  0
 37 76  1  0
 38 77  1  0
 38 78  1  0
 39 79  1  0
 40 80  1  0
M  CHG  4   1  -1  11  -1  21  -1  25  -1
M  END
>  <UniqueID>  (74) 
67

>  <SMILES>  (74) 
[NH-]C(=O)c1ccc(CC[C@H]([N-]C(=O)Cc2ccc(O)c([O-])c2)C(=O)[N-]CCCNCCCCNCCCN)cc1

>  <Energy>  (74) 
53.054784551499445

>  <Genealogy>  (74) 
[NH-]C(=O)c1ccc(CCC([N-]C(=O)Cc2ccc(O)c([O-])c2)C(=O)[N-]CCCNCCCCNCCCN)cc1 (protonated)
[NH-]C(=O)c1ccc(CC[C@H]([N-]C(=O)Cc2ccc(O)c([O-])c2)C(=O)[N-]CCCNCCCCNCCCN)cc1 (chirality)
[NH-]C(=O)c1ccc(CC[C@H]([N-]C(=O)Cc2ccc(O)c([O-])c2)C(=O)[N-]CCCNCCCCNCCCN)cc1 (3D coordinates assigned)
[NH-]C(=O)c1ccc(CC[C@H]([N-]C(=O)Cc2ccc(O)c([O-])c2)C(=O)[N-]CCCNCCCCNCCCN)cc1 (optimized conformer: 53.054784551499445 kcal/mol)

>  <smiles>  (74) 
NCCCNCCCCNCCCNC(=O)C(CCc1ccc(C(N)=O)cc1)NC(=O)Cc1ccc(O)c(O)c1

>  <score_type>  (74) 
oracle

>  <origin>  (74) 
adg

>  <m_score__min__energy>  (74) 
-13.42

>  <m_primary>  (74) 
energy

$$$$
75:0
     RDKit          3D

 43 46  0  0  0  0  0  0  0  0999 V2000
   54.5210   29.5740   44.4810 H   0  0  0  0  0  0  0  0  0  0  0  0
   55.5410   29.5320   44.2660 N   0  0  0  0  0  0  0  0  0  0  0  0
   56.4170   30.3420   44.7730 C   0  0  0  0  0  0  0  0  0  0  0  0
   56.1330   31.6690   44.8170 N   0  0  0  0  0  0  0  0  0  0  0  0
   56.9890   32.5590   45.3200 N   0  0  0  0  0  0  0  0  0  0  0  0
   58.1940   32.1830   45.8170 C   0  0  0  0  0  0  0  0  0  0  0  0
   59.0680   33.1450   46.3350 C   0  0  0  0  0  0  0  0  0  0  0  0
   58.7767   34.2057   46.3406 H   0  0  0  0  0  0  0  0  0  0  0  0
   60.3100   32.7600   46.8450 C   0  0  0  0  0  0  0  0  0  0  0  0
   60.9952   33.5181   47.2522 H   0  0  0  0  0  0  0  0  0  0  0  0
   60.6840   31.4130   46.8390 C   0  0  0  0  0  0  0  0  0  0  0  0
   62.2450   30.9350   47.4820 Cl  0  0  0  0  0  0  0  0  0  0  0  0
   59.8150   30.4440   46.3230 C   0  0  0  0  0  0  0  0  0  0  0  0
   60.1137   29.3853   46.3207 H   0  0  0  0  0  0  0  0  0  0  0  0
   58.5600   30.8200   45.8070 C   0  0  0  0  0  0  0  0  0  0  0  0
   57.6510   29.8810   45.2770 C   0  0  0  0  0  0  0  0  0  0  0  0
   57.9740   28.4810   45.2430 N   0  0  0  0  0  0  0  0  0  0  0  0
   58.4430   27.8760   43.9920 C   0  0  0  0  0  0  0  0  0  0  0  0
   58.1733   28.5342   43.1529 H   0  0  0  0  0  0  0  0  0  0  0  0
   59.5341   27.7516   44.0551 H   0  0  0  0  0  0  0  0  0  0  0  0
   57.8090   26.4900   43.7660 C   0  0  0  0  0  0  0  0  0  0  0  0
   56.8501   26.6312   43.2459 H   0  0  0  0  0  0  0  0  0  0  0  0
   58.5335   25.9057   43.1797 H   0  0  0  0  0  0  0  0  0  0  0  0
   57.5400   25.6810   45.0750 C   0  0  0  0  0  0  0  0  0  0  0  0
   56.1680   25.8180   45.3810 O   0  0  0  0  0  0  0  0  0  0  0  0
   55.8170   26.6080   44.8890 H   0  0  0  0  0  0  0  0  0  0  0  0
   57.8870   24.2030   44.8410 C   0  0  0  0  0  0  0  0  0  0  0  0
   59.0220   23.6090   45.4400 C   0  0  0  0  0  0  0  0  0  0  0  0
   59.6859   24.2180   46.0712 H   0  0  0  0  0  0  0  0  0  0  0  0
   59.3090   22.2550   45.2380 C   0  0  0  0  0  0  0  0  0  0  0  0
   60.2033   21.8100   45.6986 H   0  0  0  0  0  0  0  0  0  0  0  0
   58.4660   21.4670   44.4550 C   0  0  0  0  0  0  0  0  0  0  0  0
   58.7007   20.4050   44.2903 H   0  0  0  0  0  0  0  0  0  0  0  0
   57.3250   22.0270   43.8810 C   0  0  0  0  0  0  0  0  0  0  0  0
   56.6547   21.4030   43.2716 H   0  0  0  0  0  0  0  0  0  0  0  0
   57.0310   23.3790   44.0780 C   0  0  0  0  0  0  0  0  0  0  0  0
   56.1207   23.8069   43.6328 H   0  0  0  0  0  0  0  0  0  0  0  0
   58.3680   26.2590   46.2580 C   0  0  0  0  0  0  0  0  0  0  0  0
   58.1556   25.6771   47.1670 H   0  0  0  0  0  0  0  0  0  0  0  0
   59.4374   26.1953   46.0085 H   0  0  0  0  0  0  0  0  0  0  0  0
   58.0020   27.7280   46.5020 C   0  0  0  0  0  0  0  0  0  0  0  0
   57.0089   27.7776   46.9725 H   0  0  0  0  0  0  0  0  0  0  0  0
   58.7635   28.1735   47.1590 H   0  0  0  0  0  0  0  0  0  0  0  0
  1  2  1  0
  2  3  2  0
  3  4  1  0
  4  5  1  0
  5  6  2  0
  6  7  1  0
  7  8  1  0
  7  9  2  0
  9 10  1  0
  9 11  1  0
 11 12  1  0
 11 13  2  0
 13 14  1  0
 13 15  1  0
 15 16  2  0
 16 17  1  0
 17 18  1  0
 18 19  1  0
 18 20  1  0
 18 21  1  0
 21 22  1  0
 21 23  1  0
 21 24  1  0
 24 25  1  0
 25 26  1  0
 24 27  1  0
 27 28  2  0
 28 29  1  0
 28 30  1  0
 30 31  1  0
 30 32  2  0
 32 33  1  0
 32 34  1  0
 34 35  1  0
 34 36  2  0
 36 37  1  0
 24 38  1  0
 38 39  1  0
 38 40  1  0
 38 41  1  0
 41 42  1  0
 41 43  1  0
 16  3  1  0
 41 17  1  0
 15  6  1  0
 36 27  1  0
M  CHG  1   4  -1
M  END
>  <UniqueID>  (75) 
68

>  <SMILES>  (75) 
[H]/N=c1/[n-]nc2ccc(Cl)cc2c1N1CCC(O)(c2ccccc2)CC1

>  <Energy>  (75) 
66.40329986827106

>  <Genealogy>  (75) 
N=c1[n-]nc2ccc(Cl)cc2c1N1CCC(O)(c2ccccc2)CC1 (protonated)
[H]/N=c1/[n-]nc2ccc(Cl)cc2c1N1CCC(O)(c2ccccc2)CC1 (cis-trans isomerization)
[H]/N=c1/[n-]nc2ccc(Cl)cc2c1N1CCC(O)(c2ccccc2)CC1 (3D coordinates assigned)
[H]/N=c1/[n-]nc2ccc(Cl)cc2c1N1CCC(O)(c2ccccc2)CC1 (nonaromatic ring conformer: 66.40329986827106 kcal/mol)

>  <smiles>  (75) 
N=c1[nH]nc2ccc(Cl)cc2c1N1CCC(O)(c2ccccc2)CC1

>  <score_type>  (75) 
oracle

>  <origin>  (75) 
adg

>  <m_score__min__energy>  (75) 
-10.199999999999999

>  <m_primary>  (75) 
energy

$$$$
76:0
     RDKit          3D

 54 56  0  0  0  0  0  0  0  0999 V2000
   59.3800   34.8460   44.9020 C   0  0  0  0  0  0  0  0  0  0  0  0
   58.6290   33.5570   44.6940 C   0  0  0  0  0  0  0  0  0  0  0  0
   58.4270   33.0900   43.3850 C   0  0  0  0  0  0  0  0  0  0  0  0
   57.7340   31.9000   43.1530 C   0  0  0  0  0  0  0  0  0  0  0  0
   57.2430   31.1500   44.2260 C   0  0  0  0  0  0  0  0  0  0  0  0
   56.4140   29.6280   43.9190 S   0  0  0  0  0  0  0  0  0  0  0  0
   55.9000   29.6390   42.5070 O   0  0  0  0  0  0  0  0  0  0  0  0
   55.2500   29.4720   44.8620 O   0  0  0  0  0  0  0  0  0  0  0  0
   57.5110   28.2890   44.1130 N   0  0  0  0  0  0  0  0  0  0  0  0
   57.5800   27.8490   45.5080 C   0  0  0  0  0  0  0  0  0  0  0  0
   58.6960   28.5450   46.2390 C   0  0  0  0  0  0  0  0  0  0  0  0
   58.7680   28.4770   47.6410 C   0  0  0  0  0  0  0  0  0  0  0  0
   59.8080   29.1190   48.3250 C   0  0  0  0  0  0  0  0  0  0  0  0
   60.7740   29.8410   47.6160 C   0  0  0  0  0  0  0  0  0  0  0  0
   60.7010   29.9260   46.2230 C   0  0  0  0  0  0  0  0  0  0  0  0
   59.6680   29.2780   45.5330 C   0  0  0  0  0  0  0  0  0  0  0  0
   57.4070   31.6240   45.5330 C   0  0  0  0  0  0  0  0  0  0  0  0
   58.0950   32.8230   45.7790 C   0  0  0  0  0  0  0  0  0  0  0  0
   58.2140   33.3120   47.1720 C   0  0  0  0  0  0  0  0  0  0  0  0
   58.4580   34.5300   47.3800 O   0  0  0  0  0  0  0  0  0  0  0  0
   58.0890   32.4340   48.2980 N   0  0  0  0  0  0  0  0  0  0  0  0
   59.1500   32.1550   49.2610 C   0  0  0  0  0  0  0  0  0  0  0  0
   59.4950   33.4190   50.0420 C   0  0  0  0  0  0  0  0  0  0  0  0
   60.2900   34.3310   49.2180 N   0  0  0  0  0  0  0  0  0  0  0  0
   61.4740   33.9160   48.5180 C   0  0  0  0  0  0  0  0  0  0  0  0
   61.4770   33.8870   47.1130 C   0  0  0  0  0  0  0  0  0  0  0  0
   62.6140   33.4680   46.4190 C   0  0  0  0  0  0  0  0  0  0  0  0
   63.7660   33.0920   47.1190 C   0  0  0  0  0  0  0  0  0  0  0  0
   63.7830   33.1440   48.5150 C   0  0  0  0  0  0  0  0  0  0  0  0
   62.6430   33.5560   49.2120 C   0  0  0  0  0  0  0  0  0  0  0  0
   59.4907   35.0360   45.9798 H   0  0  0  0  0  0  0  0  0  0  0  0
   60.3749   34.7695   44.4391 H   0  0  0  0  0  0  0  0  0  0  0  0
   58.8228   35.6738   44.4391 H   0  0  0  0  0  0  0  0  0  0  0  0
   58.8184   33.6671   42.5343 H   0  0  0  0  0  0  0  0  0  0  0  0
   57.5738   31.5513   42.1221 H   0  0  0  0  0  0  0  0  0  0  0  0
   57.1190   27.5010   43.5500 H   0  0  0  0  0  0  0  0  0  0  0  0
   56.6261   28.0789   46.0052 H   0  0  0  0  0  0  0  0  0  0  0  0
   57.7724   26.7661   45.5245 H   0  0  0  0  0  0  0  0  0  0  0  0
   58.0052   27.9179   48.2028 H   0  0  0  0  0  0  0  0  0  0  0  0
   59.8653   29.0554   49.4217 H   0  0  0  0  0  0  0  0  0  0  0  0
   61.5914   30.3420   48.1552 H   0  0  0  0  0  0  0  0  0  0  0  0
   61.4555   30.5024   45.6676 H   0  0  0  0  0  0  0  0  0  0  0  0
   59.6166   29.3424   44.4361 H   0  0  0  0  0  0  0  0  0  0  0  0
   56.9927   31.0513   46.3758 H   0  0  0  0  0  0  0  0  0  0  0  0
   58.8111   31.3764   49.9603 H   0  0  0  0  0  0  0  0  0  0  0  0
   60.0443   31.8100   48.7214 H   0  0  0  0  0  0  0  0  0  0  0  0
   58.5650   33.9224   50.3447 H   0  0  0  0  0  0  0  0  0  0  0  0
   60.0815   33.1393   50.9295 H   0  0  0  0  0  0  0  0  0  0  0  0
   59.8290   35.2230   48.9190 H   0  0  0  0  0  0  0  0  0  0  0  0
   60.5794   34.1959   46.5572 H   0  0  0  0  0  0  0  0  0  0  0  0
   62.6041   33.4334   45.3196 H   0  0  0  0  0  0  0  0  0  0  0  0
   64.6580   32.7556   46.5702 H   0  0  0  0  0  0  0  0  0  0  0  0
   64.6924   32.8611   49.0654 H   0  0  0  0  0  0  0  0  0  0  0  0
   62.6607   33.5988   50.3110 H   0  0  0  0  0  0  0  0  0  0  0  0
  1  2  1  0
  2  3  2  0
  3  4  1  0
  4  5  2  0
  5  6  1  0
  6  7  2  0
  6  8  2  0
  6  9  1  0
  9 10  1  0
 10 11  1  0
 11 12  2  0
 12 13  1  0
 13 14  2  0
 14 15  1  0
 15 16  2  0
  5 17  1  0
 17 18  2  0
 18 19  1  0
 19 20  2  0
 19 21  1  0
 21 22  1  0
 22 23  1  0
 23 24  1  0
 24 25  1  0
 25 26  2  0
 26 27  1  0
 27 28  2  0
 28 29  1  0
 29 30  2  0
 18  2  1  0
 30 25  1  0
 16 11  1  0
  1 31  1  0
  1 32  1  0
  1 33  1  0
  3 34  1  0
  4 35  1  0
  9 36  1  0
 10 37  1  0
 10 38  1  0
 12 39  1  0
 13 40  1  0
 14 41  1  0
 15 42  1  0
 16 43  1  0
 17 44  1  0
 22 45  1  0
 22 46  1  0
 23 47  1  0
 23 48  1  0
 24 49  1  0
 26 50  1  0
 27 51  1  0
 28 52  1  0
 29 53  1  0
 30 54  1  0
M  CHG  1  21  -1
M  END
>  <UniqueID>  (76) 
69

>  <SMILES>  (76) 
Cc1ccc(S(=O)(=O)NCc2ccccc2)cc1C(=O)[N-]CCNc1ccccc1

>  <Energy>  (76) 
54.96067778088241

>  <Genealogy>  (76) 
Cc1ccc(S(=O)(=O)NCc2ccccc2)cc1C(=O)[N-]CCNc1ccccc1 (protonated)
Cc1ccc(S(=O)(=O)NCc2ccccc2)cc1C(=O)[N-]CCNc1ccccc1 (3D coordinates assigned)
Cc1ccc(S(=O)(=O)NCc2ccccc2)cc1C(=O)[N-]CCNc1ccccc1 (optimized conformer: 54.96067778088241 kcal/mol)

>  <smiles>  (76) 
Cc1ccc(S(=O)(=O)NCc2ccccc2)cc1C(=O)NCCNc1ccccc1

>  <score_type>  (76) 
oracle

>  <origin>  (76) 
adg

>  <m_score__min__energy>  (76) 
-10.56

>  <m_primary>  (76) 
energy

$$$$
77:0
     RDKit          3D

 44 46  0  0  0  0  0  0  0  0999 V2000
   65.7290   32.7110   49.7920 C   0  0  0  0  0  0  0  0  0  0  0  0
   64.3790   33.1860   49.3400 C   0  0  0  0  0  0  0  0  0  0  0  0
   63.9150   32.8870   48.0560 C   0  0  0  0  0  0  0  0  0  0  0  0
   62.6430   33.3000   47.6530 C   0  0  0  0  0  0  0  0  0  0  0  0
   61.8290   34.0190   48.5550 C   0  0  0  0  0  0  0  0  0  0  0  0
   60.6280   34.4330   48.2570 N   0  0  0  0  0  0  0  0  0  0  0  0
   59.3850   33.7100   48.2870 C   0  0  0  0  0  0  0  0  0  0  0  0
   58.8920   33.3310   49.3840 O   0  0  0  0  0  0  0  0  0  0  0  0
   58.7240   33.3260   47.0160 C   0  0  0  0  0  0  0  0  0  0  0  0
   58.1990   34.3080   46.1580 C   0  0  0  0  0  0  0  0  0  0  0  0
   57.5750   33.9450   44.9640 C   0  0  0  0  0  0  0  0  0  0  0  0
   57.4670   32.6010   44.6060 C   0  0  0  0  0  0  0  0  0  0  0  0
   57.9890   31.5970   45.4420 C   0  0  0  0  0  0  0  0  0  0  0  0
   57.8790   30.1590   45.0810 C   0  0  0  0  0  0  0  0  0  0  0  0
   56.7570   29.5880   45.1670 O   0  0  0  0  0  0  0  0  0  0  0  0
   59.0620   29.3840   44.5570 C   0  0  0  0  0  0  0  0  0  0  0  0
   60.0950   29.1710   45.6220 C   0  0  0  0  0  0  0  0  0  0  0  0
   60.8530   30.1230   45.9480 O   0  0  0  0  0  0  0  0  0  0  0  0
   60.1680   27.8950   46.2760 N   0  0  0  0  0  0  0  0  0  0  0  0
   59.3320   26.8990   46.2040 C   0  0  0  0  0  0  0  0  0  0  0  0
   57.9790   26.9980   46.2340 N   0  0  0  0  0  0  0  0  0  0  0  0
   57.3780   25.7770   46.1670 C   0  0  0  0  0  0  0  0  0  0  0  0
   55.9130   25.6140   46.1850 C   0  0  0  0  0  0  0  0  0  0  0  0
   55.4030   24.4780   46.3750 O   0  0  0  0  0  0  0  0  0  0  0  0
   55.0840   26.7120   45.9950 O   0  0  0  0  0  0  0  0  0  0  0  0
   58.2550   24.6960   46.0900 C   0  0  0  0  0  0  0  0  0  0  0  0
   59.8260   25.2990   46.1110 S   0  0  0  0  0  0  0  0  0  0  0  0
   58.6090   31.9710   46.6490 C   0  0  0  0  0  0  0  0  0  0  0  0
   62.2970   34.2620   49.8100 N   0  0  0  0  0  0  0  0  0  0  0  0
   63.5300   33.8670   50.2200 C   0  0  0  0  0  0  0  0  0  0  0  0
   65.7642   32.6986   50.8914 H   0  0  0  0  0  0  0  0  0  0  0  0
   65.9080   31.6959   49.4080 H   0  0  0  0  0  0  0  0  0  0  0  0
   66.5042   33.3903   49.4080 H   0  0  0  0  0  0  0  0  0  0  0  0
   64.5542   32.3241   47.3599 H   0  0  0  0  0  0  0  0  0  0  0  0
   62.2786   33.0671   46.6416 H   0  0  0  0  0  0  0  0  0  0  0  0
   58.2808   35.3707   46.4300 H   0  0  0  0  0  0  0  0  0  0  0  0
   57.1662   34.7224   44.3017 H   0  0  0  0  0  0  0  0  0  0  0  0
   56.9706   32.3245   43.6641 H   0  0  0  0  0  0  0  0  0  0  0  0
   58.7156   28.4050   44.1943 H   0  0  0  0  0  0  0  0  0  0  0  0
   59.5208   29.9637   43.7425 H   0  0  0  0  0  0  0  0  0  0  0  0
   57.4380   27.8830   46.3340 H   0  0  0  0  0  0  0  0  0  0  0  0
   57.9702   23.6354   46.0267 H   0  0  0  0  0  0  0  0  0  0  0  0
   59.0098   31.1933   47.3158 H   0  0  0  0  0  0  0  0  0  0  0  0
   63.8622   34.0828   51.2462 H   0  0  0  0  0  0  0  0  0  0  0  0
  1  2  1  0
  2  3  1  0
  3  4  2  0
  4  5  1  0
  5  6  2  3
  6  7  1  0
  7  8  2  0
  7  9  1  0
  9 10  2  0
 10 11  1  0
 11 12  2  0
 12 13  1  0
 13 14  1  0
 14 15  2  0
 14 16  1  0
 16 17  1  0
 17 18  2  0
 17 19  1  0
 19 20  2  3
 20 21  1  0
 21 22  1  0
 22 23  1  0
 23 24  2  0
 23 25  1  0
 22 26  2  0
 26 27  1  0
 13 28  2  0
  5 29  1  0
 29 30  1  0
 30  2  2  0
 28  9  1  0
 27 20  1  0
  1 31  1  0
  1 32  1  0
  1 33  1  0
  3 34  1  0
  4 35  1  0
 10 36  1  0
 11 37  1  0
 12 38  1  0
 16 39  1  0
 16 40  1  0
 21 41  1  0
 26 42  1  0
 28 43  1  0
 30 44  1  0
M  CHG  2  25  -1  29  -1
M  END
>  <UniqueID>  (77) 
70

>  <SMILES>  (77) 
Cc1ccc(=NC(=O)c2cccc(C(=O)CC(=O)N=c3[nH]c(C(=O)[O-])cs3)c2)[n-]c1

>  <Energy>  (77) 
90.45594487141335

>  <Genealogy>  (77) 
Cc1ccc(=NC(=O)c2cccc(C(=O)CC(=O)N=c3[nH]c(C(=O)[O-])cs3)c2)[n-]c1 (protonated)
Cc1ccc(=NC(=O)c2cccc(C(=O)CC(=O)N=c3[nH]c(C(=O)[O-])cs3)c2)[n-]c1 (3D coordinates assigned)
Cc1ccc(=NC(=O)c2cccc(C(=O)CC(=O)N=c3[nH]c(C(=O)[O-])cs3)c2)[n-]c1 (optimized conformer: 90.45594487141335 kcal/mol)

>  <smiles>  (77) 
Cc1ccc(=NC(=O)c2cccc(C(=O)CC(=O)N=c3[nH]c(C(=O)O)cs3)c2)[nH]c1

>  <score_type>  (77) 
oracle

>  <origin>  (77) 
adg

>  <m_score__min__energy>  (77) 
-14.17

>  <m_primary>  (77) 
energy

$$$$
78:0
     RDKit          3D

 56 59  0  0  1  0  0  0  0  0999 V2000
   60.6320   30.3230   46.7830 C   0  0  0  0  0  0  0  0  0  0  0  0
   59.8480   31.3860   46.8880 C   0  0  0  0  0  0  0  0  0  0  0  0
   58.5190   31.4650   46.5650 C   0  0  0  0  0  0  0  0  0  0  0  0
   57.7370   30.5060   46.0830 C   0  0  0  0  0  0  0  0  0  0  0  0
   57.1720   30.5420   44.7410 C   0  0  0  0  0  0  0  0  0  0  0  0
   57.7850   31.2250   43.7330 N   0  0  0  0  0  0  0  0  0  0  0  0
   57.0590   31.0990   42.5990 C   0  0  0  0  0  0  0  0  0  0  0  0
   57.3240   31.5990   41.4680 O   0  0  0  0  0  0  0  0  0  0  0  0
   55.9870   30.3300   42.9140 N   0  0  0  0  0  0  0  0  0  0  0  0
   56.0460   29.9830   44.2240 C   0  0  0  0  0  0  0  0  0  0  0  0
   55.1470   29.2050   44.9450 O   0  0  0  0  0  0  0  0  0  0  0  0
   58.0900   32.7420   46.8260 C   0  0  0  0  0  0  0  0  0  0  0  0
   59.1960   33.4120   47.3100 C   0  0  0  0  0  0  0  0  0  0  0  0
   59.2270   34.8230   47.7300 C   0  0  0  0  0  0  0  0  0  0  0  0
   60.2650   32.5960   47.3510 N   0  0  0  0  0  0  0  0  0  0  0  0
   61.5940   32.8730   47.7770 C   0  0  0  0  0  0  0  0  0  0  0  0
   62.5780   32.8750   46.8120 C   0  0  0  0  0  0  0  0  0  0  0  0
   63.8830   33.1280   47.1170 C   0  0  0  0  0  0  0  0  0  0  0  0
   64.2030   33.3840   48.4310 C   0  0  0  0  0  0  0  0  0  0  0  0
   63.2130   33.3800   49.3980 C   0  0  0  0  0  0  0  0  0  0  0  0
   61.8890   33.1300   49.1280 C   0  0  0  0  0  0  0  0  0  0  0  0
   60.8630   33.1040   49.9990 O   0  0  0  0  0  0  0  0  0  0  0  0
   60.5510   33.8300   51.1260 C   0  0  0  0  0  0  0  0  0  0  0  0
   59.7730   33.1070   52.1950 C   0  0  0  0  0  0  0  0  0  0  0  0
   58.2980   33.1350   52.0310 C   0  0  0  0  0  0  0  0  0  0  0  0
   57.6300   31.9070   51.8050 N   0  0  0  0  0  0  0  0  0  0  0  0
   56.2640   31.6380   52.3170 C   0  0  0  0  0  0  0  0  0  0  0  0
   56.4170   30.1640   52.6730 C   0  0  0  0  0  0  0  0  0  0  0  0
   57.2910   29.7190   51.5780 N   0  0  0  0  0  0  0  0  0  0  0  0
   57.9600   30.7200   51.1080 C   0  0  0  0  0  0  0  0  0  0  0  0
   58.8940   30.6950   50.0570 O   0  0  0  0  0  0  0  0  0  0  0  0
   61.6898   30.3885   47.0774 H   0  0  0  0  0  0  0  0  0  0  0  0
   60.2250   29.3750   46.4014 H   0  0  0  0  0  0  0  0  0  0  0  0
   57.5053   29.6448   46.7269 H   0  0  0  0  0  0  0  0  0  0  0  0
   58.6890   31.7760   43.7980 H   0  0  0  0  0  0  0  0  0  0  0  0
   55.2120   30.0360   42.2490 H   0  0  0  0  0  0  0  0  0  0  0  0
   55.1350   28.1940   44.8630 H   0  0  0  0  0  0  0  0  0  0  0  0
   57.0777   33.1469   46.6803 H   0  0  0  0  0  0  0  0  0  0  0  0
   59.2282   34.8786   48.8286 H   0  0  0  0  0  0  0  0  0  0  0  0
   60.1359   35.3025   47.3376 H   0  0  0  0  0  0  0  0  0  0  0  0
   58.3400   35.3420   47.3376 H   0  0  0  0  0  0  0  0  0  0  0  0
   62.3033   32.6669   45.7674 H   0  0  0  0  0  0  0  0  0  0  0  0
   64.6573   33.1275   46.3356 H   0  0  0  0  0  0  0  0  0  0  0  0
   65.2459   33.5918   48.7126 H   0  0  0  0  0  0  0  0  0  0  0  0
   63.5015   33.5882   50.4389 H   0  0  0  0  0  0  0  0  0  0  0  0
   61.4947   34.1744   51.5741 H   0  0  0  0  0  0  0  0  0  0  0  0
   59.8897   34.6377   50.7793 H   0  0  0  0  0  0  0  0  0  0  0  0
   60.0952   32.0553   52.1979 H   0  0  0  0  0  0  0  0  0  0  0  0
   59.9856   33.6342   53.1367 H   0  0  0  0  0  0  0  0  0  0  0  0
   57.8755   33.5732   52.9472 H   0  0  0  0  0  0  0  0  0  0  0  0
   58.1355   33.7097   51.1073 H   0  0  0  0  0  0  0  0  0  0  0  0
   56.0279   32.2512   53.1992 H   0  0  0  0  0  0  0  0  0  0  0  0
   55.4470   31.8693   51.6177 H   0  0  0  0  0  0  0  0  0  0  0  0
   56.8943   30.0298   53.6549 H   0  0  0  0  0  0  0  0  0  0  0  0
   55.4703   29.6107   52.7605 H   0  0  0  0  0  0  0  0  0  0  0  0
   59.5000   31.5030   49.9640 H   0  0  0  0  0  0  0  0  0  0  0  0
  1  2  2  0
  2  3  1  0
  3  4  2  0
  4  5  1  0
  5  6  1  0
  6  7  1  0
  7  8  2  0
  7  9  1  0
  9 10  1  0
 10 11  1  0
  3 12  1  0
 12 13  2  0
 13 14  1  0
 13 15  1  0
 15 16  1  0
 16 17  2  0
 17 18  1  0
 18 19  2  0
 19 20  1  0
 20 21  2  0
 21 22  1  0
 22 23  1  0
 23 24  1  0
 24 25  1  0
 25 26  1  0
 26 27  1  0
 27 28  1  0
 28 29  1  0
 29 30  2  0
 30 31  1  0
 15  2  1  0
 21 16  1  0
 30 26  1  0
 10  5  2  0
  1 32  1  0
  1 33  1  0
  4 34  1  0
  6 35  1  0
  9 36  1  0
 11 37  1  0
 12 38  1  0
 14 39  1  0
 14 40  1  0
 14 41  1  0
 17 42  1  0
 18 43  1  0
 19 44  1  0
 20 45  1  0
 23 46  1  0
 23 47  1  0
 24 48  1  0
 24 49  1  0
 25 50  1  0
 25 51  1  0
 27 52  1  0
 27 53  1  0
 28 54  1  0
 28 55  1  0
 31 56  1  0
M  END
>  <smiles>  (78) 
C=c1c(=Cc2[nH]c(=O)[nH]c2O)cc(C)n1-c1ccccc1OCCCN1CCN=C1O

>  <score_type>  (78) 
oracle

>  <origin>  (78) 
adg

>  <m_score__min__energy>  (78) 
-9.1400000000000006

>  <m_primary>  (78) 
energy

$$$$
79:0
     RDKit          3D

 56 60  0  0  1  0  0  0  0  0999 V2000
   58.0280   33.5710   46.4090 N   0  0  0  0  0  0  0  0  0  0  0  0
   59.1860   34.3210   46.8530 C   0  0  0  0  0  0  0  0  0  0  0  0
   59.0840   35.3250   47.6470 N   0  0  0  0  0  0  0  0  0  0  0  0
   58.1450   32.5830   45.6090 C   0  0  0  0  0  0  0  0  0  0  0  0
   57.8100   32.6610   44.2720 C   0  0  0  0  0  0  0  0  0  0  0  0
   57.9460   31.5920   43.4360 C   0  0  0  0  0  0  0  0  0  0  0  0
   58.4200   30.4130   43.9150 N   0  0  0  0  0  0  0  0  0  0  0  0
   58.7690   30.2690   45.2210 C   0  0  0  0  0  0  0  0  0  0  0  0
   59.2450   29.0600   45.6680 C   0  0  0  0  0  0  0  0  0  0  0  0
   59.6020   28.9080   47.0030 C   0  0  0  0  0  0  0  0  0  0  0  0
   60.2130   27.3580   47.5720 Cl  0  0  0  0  0  0  0  0  0  0  0  0
   59.4750   29.9770   47.8710 C   0  0  0  0  0  0  0  0  0  0  0  0
   58.9930   31.1930   47.4100 C   0  0  0  0  0  0  0  0  0  0  0  0
   58.6280   31.3660   46.0690 C   0  0  0  0  0  0  0  0  0  0  0  0
   60.4640   33.9300   46.3930 N   0  0  0  0  0  0  0  0  0  0  0  0
   61.5800   33.7960   47.2580 C   0  0  0  0  0  0  0  0  0  0  0  0
   61.6040   34.1960   48.5700 C   0  0  0  0  0  0  0  0  0  0  0  0
   62.7110   34.0660   49.3910 C   0  0  0  0  0  0  0  0  0  0  0  0
   63.8720   33.5070   48.8970 C   0  0  0  0  0  0  0  0  0  0  0  0
   65.0300   33.3510   49.6900 N   0  0  0  0  0  0  0  0  0  0  0  0
   65.5370   32.0420   50.0120 C   0  0  0  0  0  0  0  0  0  0  0  0
   64.5230   31.2310   50.7530 C   0  0  0  0  0  0  0  0  0  0  0  0
   63.1770   31.2620   50.5840 N   0  0  0  0  0  0  0  0  0  0  0  0
   62.6150   30.3850   51.4380 C   0  0  0  0  0  0  0  0  0  0  0  0
   61.1920   30.1030   51.5880 C   0  0  0  0  0  0  0  0  0  0  0  0
   60.7590   28.9250   52.1580 C   0  0  0  0  0  0  0  0  0  0  0  0
   59.4140   28.6480   52.3070 C   0  0  0  0  0  0  0  0  0  0  0  0
   58.4880   29.5850   51.8690 C   0  0  0  0  0  0  0  0  0  0  0  0
   58.9000   30.7860   51.2890 C   0  0  0  0  0  0  0  0  0  0  0  0
   57.7620   31.9860   50.7280 Cl  0  0  0  0  0  0  0  0  0  0  0  0
   60.2590   31.0090   51.1660 C   0  0  0  0  0  0  0  0  0  0  0  0
   63.6400   29.8190   52.1320 C   0  0  0  0  0  0  0  0  0  0  0  0
   64.8350   30.3330   51.7180 N   0  0  0  0  0  0  0  0  0  0  0  0
   63.8700   33.0960   47.5730 C   0  0  0  0  0  0  0  0  0  0  0  0
   62.7590   33.2320   46.7670 C   0  0  0  0  0  0  0  0  0  0  0  0
   58.9730   36.2970   47.3150 H   0  0  0  0  0  0  0  0  0  0  0  0
   57.4235   33.6095   43.8707 H   0  0  0  0  0  0  0  0  0  0  0  0
   57.6720   31.6847   42.3747 H   0  0  0  0  0  0  0  0  0  0  0  0
   58.5190   29.6060   43.2730 H   0  0  0  0  0  0  0  0  0  0  0  0
   59.3433   28.2145   44.9713 H   0  0  0  0  0  0  0  0  0  0  0  0
   59.7566   29.8628   48.9282 H   0  0  0  0  0  0  0  0  0  0  0  0
   58.8957   32.0362   48.1097 H   0  0  0  0  0  0  0  0  0  0  0  0
   60.5920   33.7190   45.3570 H   0  0  0  0  0  0  0  0  0  0  0  0
   60.6932   34.6449   48.9931 H   0  0  0  0  0  0  0  0  0  0  0  0
   62.6653   34.4078   50.4356 H   0  0  0  0  0  0  0  0  0  0  0  0
   65.5290   34.1710   50.0490 H   0  0  0  0  0  0  0  0  0  0  0  0
   65.8001   31.5209   49.0797 H   0  0  0  0  0  0  0  0  0  0  0  0
   66.4212   32.1620   50.6552 H   0  0  0  0  0  0  0  0  0  0  0  0
   61.5010   28.1893   52.5018 H   0  0  0  0  0  0  0  0  0  0  0  0
   59.0831   27.7036   52.7637 H   0  0  0  0  0  0  0  0  0  0  0  0
   57.4135   29.3779   51.9807 H   0  0  0  0  0  0  0  0  0  0  0  0
   60.6023   31.9502   50.7118 H   0  0  0  0  0  0  0  0  0  0  0  0
   63.5222   29.0557   52.9153 H   0  0  0  0  0  0  0  0  0  0  0  0
   65.7810   30.0910   52.0660 H   0  0  0  0  0  0  0  0  0  0  0  0
   64.7823   32.6478   47.1524 H   0  0  0  0  0  0  0  0  0  0  0  0
   62.8025   32.8911   45.7221 H   0  0  0  0  0  0  0  0  0  0  0  0
  1  2  2  0
  2  3  1  0
  3  4  2  0
  4  5  1  0
  5  6  2  0
  6  7  1  0
  7  8  1  0
  8  9  2  0
  9 10  1  0
 10 11  1  0
 10 12  2  0
 12 13  1  0
 13 14  2  0
  2 15  1  0
 15 16  1  0
 16 17  2  0
 17 18  1  0
 18 19  2  0
 19 20  1  0
 20 21  1  0
 21 22  1  0
 22 23  2  0
 23 24  1  0
 24 25  1  0
 25 26  2  0
 26 27  1  0
 27 28  2  0
 28 29  1  0
 29 30  1  0
 29 31  2  0
 24 32  2  0
 32 33  1  0
 19 34  1  0
 34 35  2  0
 14  4  1  0
 35 16  1  0
 14  8  1  0
 33 22  1  0
 31 25  1  0
  1 36  1  0
  5 37  1  0
  6 38  1  0
  7 39  1  0
  9 40  1  0
 12 41  1  0
 13 42  1  0
 15 43  1  0
 17 44  1  0
 18 45  1  0
 20 46  1  0
 21 47  1  0
 21 48  1  0
 26 49  1  0
 27 50  1  0
 28 51  1  0
 31 52  1  0
 32 53  1  0
 33 54  1  0
 34 55  1  0
 35 56  1  0
M  END
>  <smiles>  (79) 
N=C(N=c1cc[nH]c2cc(Cl)ccc12)Nc1ccc(NCc2nc(-c3cccc(Cl)c3)c[nH]2)cc1

>  <score_type>  (79) 
oracle

>  <origin>  (79) 
adg

>  <m_score__min__energy>  (79) 
-9.5999999999999996

>  <m_primary>  (79) 
energy

$$$$
80:0
     RDKit          3D

 62 66  0  0  0  0  0  0  0  0999 V2000
   57.0890   31.2610   45.9940 H   0  0  0  0  0  0  0  0  0  0  0  0
   57.3980   31.9380   46.6730 O   0  0  0  0  0  0  0  0  0  0  0  0
   58.1980   33.0330   46.3420 C   0  0  0  0  0  0  0  0  0  0  0  0
   58.1350   33.6460   45.0600 C   0  0  0  0  0  0  0  0  0  0  0  0
   57.4110   33.1090   43.9430 N   0  0  0  0  0  0  0  0  0  0  0  0
   57.7460   32.0650   43.0200 C   0  0  0  0  0  0  0  0  0  0  0  0
   57.8260   32.3520   41.7910 O   0  0  0  0  0  0  0  0  0  0  0  0
   57.9720   30.6990   43.4110 N   0  0  0  0  0  0  0  0  0  0  0  0
   58.1160   30.1660   44.5860 C   0  0  0  0  0  0  0  0  0  0  0  0
   57.0660   29.6170   45.2450 N   0  0  0  0  0  0  0  0  0  0  0  0
   57.3950   29.1020   46.4270 N   0  0  0  0  0  0  0  0  0  0  0  0
   58.7130   29.2210   46.7270 C   0  0  0  0  0  0  0  0  0  0  0  0
   59.2910   28.7840   48.0180 C   0  0  0  0  0  0  0  0  0  0  0  0
   60.0460   27.6030   48.1150 C   0  0  0  0  0  0  0  0  0  0  0  0
   60.1681   26.9587   47.2319 H   0  0  0  0  0  0  0  0  0  0  0  0
   60.6450   27.2400   49.3300 C   0  0  0  0  0  0  0  0  0  0  0  0
   61.2277   26.3092   49.3941 H   0  0  0  0  0  0  0  0  0  0  0  0
   60.5080   28.0500   50.4590 C   0  0  0  0  0  0  0  0  0  0  0  0
   61.1100   27.6510   51.6580 O   0  0  0  0  0  0  0  0  0  0  0  0
   62.4770   27.3730   51.8200 C   0  0  0  0  0  0  0  0  0  0  0  0
   62.8980   26.0410   51.8460 C   0  0  0  0  0  0  0  0  0  0  0  0
   62.1596   25.2309   51.7537 H   0  0  0  0  0  0  0  0  0  0  0  0
   64.2550   25.7340   51.9890 C   0  0  0  0  0  0  0  0  0  0  0  0
   64.5768   24.6829   52.0292 H   0  0  0  0  0  0  0  0  0  0  0  0
   65.2140   26.7660   52.0820 C   0  0  0  0  0  0  0  0  0  0  0  0
   66.5860   26.5120   52.2350 O   0  0  0  0  0  0  0  0  0  0  0  0
   67.5370   26.4310   51.1740 C   0  0  0  0  0  0  0  0  0  0  0  0
   68.6860   25.8210   51.6490 F   0  0  0  0  0  0  0  0  0  0  0  0
   67.8550   27.6910   50.7110 F   0  0  0  0  0  0  0  0  0  0  0  0
   67.0280   25.6690   50.1340 F   0  0  0  0  0  0  0  0  0  0  0  0
   64.7880   28.0990   52.0330 C   0  0  0  0  0  0  0  0  0  0  0  0
   65.5271   28.9117   52.0901 H   0  0  0  0  0  0  0  0  0  0  0  0
   63.4290   28.4030   51.9120 C   0  0  0  0  0  0  0  0  0  0  0  0
   63.1030   29.4533   51.8887 H   0  0  0  0  0  0  0  0  0  0  0  0
   59.7140   29.2090   50.3800 C   0  0  0  0  0  0  0  0  0  0  0  0
   59.5574   29.8271   51.2763 H   0  0  0  0  0  0  0  0  0  0  0  0
   59.1230   29.5790   49.1680 C   0  0  0  0  0  0  0  0  0  0  0  0
   58.5219   30.4986   49.1124 H   0  0  0  0  0  0  0  0  0  0  0  0
   59.5480   29.9780   45.4610 S   0  0  0  0  0  0  0  0  0  0  0  0
   58.8470   34.8360   44.8360 C   0  0  0  0  0  0  0  0  0  0  0  0
   58.7819   35.3287   43.8547 H   0  0  0  0  0  0  0  0  0  0  0  0
   59.6350   35.4030   45.8370 C   0  0  0  0  0  0  0  0  0  0  0  0
   60.1632   36.3503   45.6536 H   0  0  0  0  0  0  0  0  0  0  0  0
   59.7510   34.7650   47.0710 C   0  0  0  0  0  0  0  0  0  0  0  0
   60.3853   35.2064   47.8538 H   0  0  0  0  0  0  0  0  0  0  0  0
   59.0650   33.5610   47.3270 C   0  0  0  0  0  0  0  0  0  0  0  0
   59.2370   32.9000   48.6440 C   0  0  0  0  0  0  0  0  0  0  0  0
   58.2230   32.6520   49.3510 O   0  0  0  0  0  0  0  0  0  0  0  0
   60.5440   32.5410   49.1310 N   0  0  0  0  0  0  0  0  0  0  0  0
   60.8280   32.6230   50.5720 C   0  0  0  0  0  0  0  0  0  0  0  0
   60.2331   33.4382   51.0097 H   0  0  0  0  0  0  0  0  0  0  0  0
   60.5649   31.6608   51.0356 H   0  0  0  0  0  0  0  0  0  0  0  0
   62.3320   32.8990   50.8290 C   0  0  0  0  0  0  0  0  0  0  0  0
   62.4367   33.9316   51.1933 H   0  0  0  0  0  0  0  0  0  0  0  0
   62.6709   32.1537   51.5636 H   0  0  0  0  0  0  0  0  0  0  0  0
   63.1510   32.7460   49.6830 O   0  0  0  0  0  0  0  0  0  0  0  0
   62.7990   31.5760   48.9790 C   0  0  0  0  0  0  0  0  0  0  0  0
   63.5858   31.3304   48.2505 H   0  0  0  0  0  0  0  0  0  0  0  0
   62.6876   30.7344   49.6785 H   0  0  0  0  0  0  0  0  0  0  0  0
   61.4850   31.8270   48.2510 C   0  0  0  0  0  0  0  0  0  0  0  0
   61.6767   32.4350   47.3546 H   0  0  0  0  0  0  0  0  0  0  0  0
   61.0443   30.8612   47.9627 H   0  0  0  0  0  0  0  0  0  0  0  0
  1  2  1  0
  2  3  1  0
  3  4  2  0
  4  5  1  0
  5  6  1  0
  6  7  2  0
  6  8  1  0
  8  9  2  0
  9 10  1  0
 10 11  1  0
 11 12  2  0
 12 13  1  0
 13 14  2  0
 14 15  1  0
 14 16  1  0
 16 17  1  0
 16 18  2  0
 18 19  1  0
 19 20  1  0
 20 21  2  0
 21 22  1  0
 21 23  1  0
 23 24  1  0
 23 25  2  0
 25 26  1  0
 26 27  1  0
 27 28  1  0
 27 29  1  0
 27 30  1  0
 25 31  1  0
 31 32  1  0
 31 33  2  0
 33 34  1  0
 18 35  1  0
 35 36  1  0
 35 37  2  0
 37 38  1  0
 12 39  1  0
  4 40  1  0
 40 41  1  0
 40 42  2  0
 42 43  1  0
 42 44  1  0
 44 45  1  0
 44 46  2  0
 46 47  1  0
 47 48  2  0
 47 49  1  0
 49 50  1  0
 50 51  1  0
 50 52  1  0
 50 53  1  0
 53 54  1  0
 53 55  1  0
 53 56  1  0
 56 57  1  0
 57 58  1  0
 57 59  1  0
 57 60  1  0
 60 61  1  0
 60 62  1  0
 46  3  1  0
 60 49  1  0
 39  9  1  0
 37 13  1  0
 33 20  1  0
M  CHG  2   5  -1  10  -1
M  END
>  <UniqueID>  (80) 
71

>  <SMILES>  (80) 
O=C(/N=c1/[n-]nc(-c2ccc(Oc3ccc(OC(F)(F)F)cc3)cc2)s1)[N-]c1cccc(C(=O)N2CCOCC2)c1O

>  <Energy>  (80) 
138.84012586481867

>  <Genealogy>  (80) 
O=C(N=c1[n-]nc(-c2ccc(Oc3ccc(OC(F)(F)F)cc3)cc2)s1)[N-]c1cccc(C(=O)N2CCOCC2)c1O (protonated)
O=C(/N=c1/[n-]nc(-c2ccc(Oc3ccc(OC(F)(F)F)cc3)cc2)s1)[N-]c1cccc(C(=O)N2CCOCC2)c1O (cis-trans isomerization)
O=C(/N=c1/[n-]nc(-c2ccc(Oc3ccc(OC(F)(F)F)cc3)cc2)s1)[N-]c1cccc(C(=O)N2CCOCC2)c1O (3D coordinates assigned)
O=C(/N=c1/[n-]nc(-c2ccc(Oc3ccc(OC(F)(F)F)cc3)cc2)s1)[N-]c1cccc(C(=O)N2CCOCC2)c1O (nonaromatic ring conformer: 138.84012586481867 kcal/mol)

>  <smiles>  (80) 
O=C(N=c1[nH]nc(-c2ccc(Oc3ccc(OC(F)(F)F)cc3)cc2)s1)Nc1cccc(C(=O)N2CCOCC2)c1O

>  <score_type>  (80) 
oracle

>  <origin>  (80) 
adg

>  <m_score__min__energy>  (80) 
-11.19

>  <m_primary>  (80) 
energy

$$$$
81:0
     RDKit          3D

 25 25  0  0  0  0  0  0  0  0999 V2000
   57.0580   22.0880   46.0280 C   0  0  0  0  0  0  0  0  0  0  0  0
   57.1520   23.4350   46.0080 C   0  0  0  0  0  0  0  0  0  0  0  0
   58.4440   24.0130   45.9940 C   0  0  0  0  0  0  0  0  0  0  0  0
   59.5890   23.2200   45.9760 O   0  0  0  0  0  0  0  0  0  0  0  0
   58.6070   25.3940   45.9930 C   0  0  0  0  0  0  0  0  0  0  0  0
   57.5040   26.2450   46.0240 C   0  0  0  0  0  0  0  0  0  0  0  0
   57.6910   27.6670   46.0000 N   0  0  0  0  0  0  0  0  0  0  0  0
   58.2670   28.4180   44.9220 C   0  0  0  0  0  0  0  0  0  0  0  0
   59.5200   28.4950   44.8400 O   0  0  0  0  0  0  0  0  0  0  0  0
   57.4250   29.0280   43.8350 C   0  0  0  0  0  0  0  0  0  0  0  0
   56.2320   29.7130   44.4230 C   0  0  0  0  0  0  0  0  0  0  0  0
   56.2210   30.9640   44.5580 O   0  0  0  0  0  0  0  0  0  0  0  0
   55.1450   28.9630   44.8540 O   0  0  0  0  0  0  0  0  0  0  0  0
   56.2060   25.7090   45.9990 C   0  0  0  0  0  0  0  0  0  0  0  0
   55.1030   26.5720   45.9880 O   0  0  0  0  0  0  0  0  0  0  0  0
   56.0060   24.3030   45.9970 C   0  0  0  0  0  0  0  0  0  0  0  0
   54.7370   23.8400   45.9810 C   0  0  0  0  0  0  0  0  0  0  0  0
   56.0694   21.6058   46.0393 H   0  0  0  0  0  0  0  0  0  0  0  0
   57.9700   21.4730   46.0330 H   0  0  0  0  0  0  0  0  0  0  0  0
   59.6206   25.8205   45.9674 H   0  0  0  0  0  0  0  0  0  0  0  0
   58.0269   29.7617   43.2788 H   0  0  0  0  0  0  0  0  0  0  0  0
   57.0820   28.2308   43.1590 H   0  0  0  0  0  0  0  0  0  0  0  0
   55.1360   27.5010   45.5870 H   0  0  0  0  0  0  0  0  0  0  0  0
   54.5468   22.7566   45.9790 H   0  0  0  0  0  0  0  0  0  0  0  0
   53.8939   24.5464   45.9700 H   0  0  0  0  0  0  0  0  0  0  0  0
  1  2  2  0
  2  3  1  0
  3  4  1  0
  3  5  2  0
  5  6  1  0
  6  7  1  0
  7  8  1  0
  8  9  2  0
  8 10  1  0
 10 11  1  0
 11 12  2  0
 11 13  1  0
  6 14  2  0
 14 15  1  0
 14 16  1  0
 16 17  2  0
 16  2  1  0
  1 18  1  0
  1 19  1  0
  5 20  1  0
 10 21  1  0
 10 22  1  0
 15 23  1  0
 17 24  1  0
 17 25  1  0
M  CHG  3   4  -1   7  -1  13  -1
M  END
>  <UniqueID>  (81) 
72

>  <SMILES>  (81) 
C=c1c([O-])cc([N-]C(=O)CC(=O)[O-])c(O)c1=C

>  <Energy>  (81) 
38.295537993522515

>  <Genealogy>  (81) 
C=c1c([O-])cc([N-]C(=O)CC(=O)[O-])c(O)c1=C (protonated)
C=c1c([O-])cc([N-]C(=O)CC(=O)[O-])c(O)c1=C (3D coordinates assigned)
C=c1c([O-])cc([N-]C(=O)CC(=O)[O-])c(O)c1=C (optimized conformer: 38.295537993522515 kcal/mol)

>  <smiles>  (81) 
C=c1c(O)cc(NC(=O)CC(=O)O)c(O)c1=C

>  <score_type>  (81) 
oracle

>  <origin>  (81) 
adg

>  <m_score__min__energy>  (81) 
-12.279999999999999

>  <m_primary>  (81) 
energy

$$$$
82:0
     RDKit          3D

 60 64  0  0  0  0  0  0  0  0999 V2000
   56.8437   31.2234   41.0692 H   0  0  0  0  0  0  0  0  0  0  0  0
   56.9770   31.2350   42.1610 C   0  0  0  0  0  0  0  0  0  0  0  0
   57.4580   32.3460   42.7760 N   0  0  0  0  0  0  0  0  0  0  0  0
   57.6270   32.3900   44.1230 C   0  0  0  0  0  0  0  0  0  0  0  0
   58.0840   33.4840   44.6610 N   0  0  0  0  0  0  0  0  0  0  0  0
   58.8820   33.6460   45.8470 C   0  0  0  0  0  0  0  0  0  0  0  0
   58.6500   34.7700   46.6490 C   0  0  0  0  0  0  0  0  0  0  0  0
   57.9296   35.5336   46.3204 H   0  0  0  0  0  0  0  0  0  0  0  0
   59.3230   34.9320   47.8610 C   0  0  0  0  0  0  0  0  0  0  0  0
   59.1383   35.8244   48.4771 H   0  0  0  0  0  0  0  0  0  0  0  0
   60.2300   33.9630   48.2920 C   0  0  0  0  0  0  0  0  0  0  0  0
   60.7572   34.0929   49.2487 H   0  0  0  0  0  0  0  0  0  0  0  0
   60.4720   32.8240   47.5100 C   0  0  0  0  0  0  0  0  0  0  0  0
   61.4660   31.7910   47.9660 C   0  0  0  0  0  0  0  0  0  0  0  0
   61.2673   30.8455   47.4402 H   0  0  0  0  0  0  0  0  0  0  0  0
   61.3586   31.6609   49.0530 H   0  0  0  0  0  0  0  0  0  0  0  0
   63.1440   32.3090   47.6210 S   0  0  0  0  0  0  0  0  0  0  0  0
   63.1040   33.6200   46.8850 O   0  0  0  0  0  0  0  0  0  0  0  0
   63.8110   31.2850   46.7470 O   0  0  0  0  0  0  0  0  0  0  0  0
   64.0860   32.4940   49.1240 C   0  0  0  0  0  0  0  0  0  0  0  0
   63.4220   32.3636   49.9913 H   0  0  0  0  0  0  0  0  0  0  0  0
   64.8816   31.7349   49.1539 H   0  0  0  0  0  0  0  0  0  0  0  0
   64.5354   33.4976   49.1539 H   0  0  0  0  0  0  0  0  0  0  0  0
   59.7860   32.6610   46.2930 C   0  0  0  0  0  0  0  0  0  0  0  0
   59.9560   31.7596   45.6859 H   0  0  0  0  0  0  0  0  0  0  0  0
   57.3360   31.2890   44.8710 N   0  0  0  0  0  0  0  0  0  0  0  0
   56.8510   30.1540   44.2940 C   0  0  0  0  0  0  0  0  0  0  0  0
   56.5320   29.0280   45.0580 O   0  0  0  0  0  0  0  0  0  0  0  0
   57.4450   28.3640   45.8840 C   0  0  0  0  0  0  0  0  0  0  0  0
   58.5620   29.0650   46.3380 C   0  0  0  0  0  0  0  0  0  0  0  0
   58.7381   30.0931   45.9888 H   0  0  0  0  0  0  0  0  0  0  0  0
   59.4570   28.4770   47.2290 C   0  0  0  0  0  0  0  0  0  0  0  0
   60.3427   29.0385   47.5610 H   0  0  0  0  0  0  0  0  0  0  0  0
   59.2400   27.1740   47.7080 C   0  0  0  0  0  0  0  0  0  0  0  0
   60.1570   26.5720   48.6370 N   0  0  0  0  0  0  0  0  0  0  0  0
   60.7030   27.1990   49.8070 C   0  0  0  0  0  0  0  0  0  0  0  0
   60.8390   26.5390   50.8700 O   0  0  0  0  0  0  0  0  0  0  0  0
   61.1720   28.5550   49.7730 N   0  0  0  0  0  0  0  0  0  0  0  0
   60.5800   29.6080   50.2610 C   0  0  0  0  0  0  0  0  0  0  0  0
   61.2880   30.6090   50.8580 N   0  0  0  0  0  0  0  0  0  0  0  0
   60.6840   31.7220   51.3550 C   0  0  0  0  0  0  0  0  0  0  0  0
   61.2877   32.5097   51.8295 H   0  0  0  0  0  0  0  0  0  0  0  0
   59.2970   31.8650   51.2630 C   0  0  0  0  0  0  0  0  0  0  0  0
   58.5070   33.2960   51.8980 Cl  0  0  0  0  0  0  0  0  0  0  0  0
   58.5460   30.8500   50.6630 C   0  0  0  0  0  0  0  0  0  0  0  0
   57.4525   30.9437   50.5889 H   0  0  0  0  0  0  0  0  0  0  0  0
   59.1870   29.7170   50.1580 C   0  0  0  0  0  0  0  0  0  0  0  0
   58.6024   28.9156   49.6826 H   0  0  0  0  0  0  0  0  0  0  0  0
   58.1350   26.4360   47.2270 C   0  0  0  0  0  0  0  0  0  0  0  0
   57.9030   25.1140   47.6580 C   0  0  0  0  0  0  0  0  0  0  0  0
   58.6000   24.6398   48.3646 H   0  0  0  0  0  0  0  0  0  0  0  0
   56.7960   24.4030   47.1950 C   0  0  0  0  0  0  0  0  0  0  0  0
   56.6301   23.3687   47.5307 H   0  0  0  0  0  0  0  0  0  0  0  0
   55.8990   24.9970   46.3090 C   0  0  0  0  0  0  0  0  0  0  0  0
   55.0256   24.4319   45.9516 H   0  0  0  0  0  0  0  0  0  0  0  0
   56.1060   26.3070   45.8740 C   0  0  0  0  0  0  0  0  0  0  0  0
   55.3874   26.7723   45.1832 H   0  0  0  0  0  0  0  0  0  0  0  0
   57.2270   27.0380   46.3120 C   0  0  0  0  0  0  0  0  0  0  0  0
   56.6530   30.1110   42.9150 C   0  0  0  0  0  0  0  0  0  0  0  0
   56.2494   29.2083   42.4331 H   0  0  0  0  0  0  0  0  0  0  0  0
  1  2  1  0
  2  3  1  0
  3  4  1  0
  4  5  2  3
  5  6  1  0
  6  7  2  0
  7  8  1  0
  7  9  1  0
  9 10  1  0
  9 11  2  0
 11 12  1  0
 11 13  1  0
 13 14  1  0
 14 15  1  0
 14 16  1  0
 14 17  1  0
 17 18  2  0
 17 19  2  0
 17 20  1  0
 20 21  1  0
 20 22  1  0
 20 23  1  0
 13 24  2  0
 24 25  1  0
  4 26  1  0
 26 27  2  0
 27 28  1  0
 28 29  1  0
 29 30  2  0
 30 31  1  0
 30 32  1  0
 32 33  1  0
 32 34  2  0
 34 35  1  0
 35 36  1  0
 36 37  2  0
 36 38  1  0
 38 39  2  0
 39 40  1  0
 40 41  1  0
 41 42  1  0
 41 43  2  0
 43 44  1  0
 43 45  1  0
 45 46  1  0
 45 47  2  0
 47 48  1  0
 34 49  1  0
 49 50  2  0
 50 51  1  0
 50 52  1  0
 52 53  1  0
 52 54  2  0
 54 55  1  0
 54 56  1  0
 56 57  1  0
 56 58  2  0
 27 59  1  0
 59 60  1  0
 59  2  2  0
 24  6  1  0
 58 29  1  0
 47 39  1  0
 58 49  1  0
M  CHG  3   3  -1  35  -1  40  -1
M  END
>  <UniqueID>  (82) 
73

>  <SMILES>  (82) 
CS(=O)(=O)Cc1cccc(N=c2nc(Oc3ccc([N-]C(=O)/N=c4/ccc(Cl)c[n-]4)c4ccccc34)cc[n-]2)c1

>  <Energy>  (82) 
80.19268097329552

>  <Genealogy>  (82) 
CS(=O)(=O)Cc1cccc(N=c2nc(Oc3ccc([N-]C(=O)N=c4ccc(Cl)c[n-]4)c4ccccc34)cc[n-]2)c1 (protonated)
CS(=O)(=O)Cc1cccc(N=c2nc(Oc3ccc([N-]C(=O)/N=c4/ccc(Cl)c[n-]4)c4ccccc34)cc[n-]2)c1 (cis-trans isomerization)
CS(=O)(=O)Cc1cccc(N=c2nc(Oc3ccc([N-]C(=O)/N=c4/ccc(Cl)c[n-]4)c4ccccc34)cc[n-]2)c1 (3D coordinates assigned)
CS(=O)(=O)Cc1cccc(N=c2nc(Oc3ccc([N-]C(=O)/N=c4/ccc(Cl)c[n-]4)c4ccccc34)cc[n-]2)c1 (optimized conformer: 80.19268097329552 kcal/mol)

>  <smiles>  (82) 
CS(=O)(=O)Cc1cccc(N=c2nc(Oc3ccc(NC(=O)N=c4ccc(Cl)c[nH]4)c4ccccc34)cc[nH]2)c1

>  <score_type>  (82) 
oracle

>  <origin>  (82) 
adg

>  <m_score__min__energy>  (82) 
-14.5

>  <m_primary>  (82) 
energy

$$$$
83:0
     RDKit          3D

 38 40  0  0  0  0  0  0  0  0999 V2000
   57.6710   31.5180   51.6580 C   0  0  0  0  0  0  0  0  0  0  0  0
   57.7630   32.0650   50.3100 N   0  0  0  0  0  0  0  0  0  0  0  0
   58.8920   31.8010   49.4660 C   0  0  0  0  0  0  0  0  0  0  0  0
   59.8840   31.1680   49.9220 O   0  0  0  0  0  0  0  0  0  0  0  0
   58.9330   32.3090   48.0810 C   0  0  0  0  0  0  0  0  0  0  0  0
   58.1520   31.6600   47.1010 C   0  0  0  0  0  0  0  0  0  0  0  0
   58.2070   32.1270   45.7880 C   0  0  0  0  0  0  0  0  0  0  0  0
   57.5540   31.7190   44.6360 C   0  0  0  0  0  0  0  0  0  0  0  0
   56.6250   30.5860   44.4670 C   0  0  0  0  0  0  0  0  0  0  0  0
   55.4270   30.8120   44.1530 O   0  0  0  0  0  0  0  0  0  0  0  0
   57.0740   29.1990   44.6440 C   0  0  0  0  0  0  0  0  0  0  0  0
   58.1940   28.8370   44.1900 O   0  0  0  0  0  0  0  0  0  0  0  0
   56.2430   28.2640   45.3380 N   0  0  0  0  0  0  0  0  0  0  0  0
   56.7710   27.1020   46.0420 C   0  0  0  0  0  0  0  0  0  0  0  0
   55.8790   25.9200   45.8170 C   0  0  0  0  0  0  0  0  0  0  0  0
   56.2930   24.6130   45.6530 C   0  0  0  0  0  0  0  0  0  0  0  0
   55.1380   23.8730   45.5280 C   0  0  0  0  0  0  0  0  0  0  0  0
   54.0940   24.7710   45.6220 C   0  0  0  0  0  0  0  0  0  0  0  0
   54.5680   25.9840   45.7960 O   0  0  0  0  0  0  0  0  0  0  0  0
   57.9270   32.6270   43.6500 C   0  0  0  0  0  0  0  0  0  0  0  0
   58.7900   33.5390   44.1510 N   0  0  0  0  0  0  0  0  0  0  0  0
   58.9520   33.2250   45.4490 C   0  0  0  0  0  0  0  0  0  0  0  0
   59.7210   33.9070   46.3880 C   0  0  0  0  0  0  0  0  0  0  0  0
   59.7170   33.4450   47.7190 C   0  0  0  0  0  0  0  0  0  0  0  0
   60.6200   34.3710   48.9120 Cl  0  0  0  0  0  0  0  0  0  0  0  0
   57.8069   32.3262   52.3917 H   0  0  0  0  0  0  0  0  0  0  0  0
   56.6826   31.0565   51.7998 H   0  0  0  0  0  0  0  0  0  0  0  0
   58.4540   30.7585   51.7998 H   0  0  0  0  0  0  0  0  0  0  0  0
   57.0040   32.7000   49.9740 H   0  0  0  0  0  0  0  0  0  0  0  0
   57.5138   30.8045   47.3669 H   0  0  0  0  0  0  0  0  0  0  0  0
   57.7793   26.8747   45.6656 H   0  0  0  0  0  0  0  0  0  0  0  0
   56.8164   27.3212   47.1190 H   0  0  0  0  0  0  0  0  0  0  0  0
   57.3278   24.2409   45.6275 H   0  0  0  0  0  0  0  0  0  0  0  0
   55.0628   22.7853   45.3825 H   0  0  0  0  0  0  0  0  0  0  0  0
   53.0270   24.5106   45.5606 H   0  0  0  0  0  0  0  0  0  0  0  0
   57.5701   32.6058   42.6097 H   0  0  0  0  0  0  0  0  0  0  0  0
   59.2270   34.3340   43.6350 H   0  0  0  0  0  0  0  0  0  0  0  0
   60.3170   34.7849   46.0979 H   0  0  0  0  0  0  0  0  0  0  0  0
  1  2  1  0
  2  3  1  0
  3  4  2  0
  3  5  1  0
  5  6  2  0
  6  7  1  0
  7  8  1  0
  8  9  1  0
  9 10  2  0
  9 11  1  0
 11 12  2  0
 11 13  1  0
 13 14  1  0
 14 15  1  0
 15 16  2  0
 16 17  1  0
 17 18  2  0
 18 19  1  0
  8 20  2  0
 20 21  1  0
 21 22  1  0
 22 23  1  0
 23 24  2  0
 24 25  1  0
 24  5  1  0
 22  7  2  0
 19 15  1  0
  1 26  1  0
  1 27  1  0
  1 28  1  0
  2 29  1  0
  6 30  1  0
 14 31  1  0
 14 32  1  0
 16 33  1  0
 17 34  1  0
 18 35  1  0
 20 36  1  0
 21 37  1  0
 23 38  1  0
M  CHG  1  13  -1
M  END
>  <UniqueID>  (83) 
74

>  <SMILES>  (83) 
CNC(=O)c1cc2c(C(=O)C(=O)[N-]Cc3ccco3)c[nH]c2cc1Cl

>  <Energy>  (83) 
100.67930329204093

>  <Genealogy>  (83) 
CNC(=O)c1cc2c(C(=O)C(=O)[N-]Cc3ccco3)c[nH]c2cc1Cl (protonated)
CNC(=O)c1cc2c(C(=O)C(=O)[N-]Cc3ccco3)c[nH]c2cc1Cl (3D coordinates assigned)
CNC(=O)c1cc2c(C(=O)C(=O)[N-]Cc3ccco3)c[nH]c2cc1Cl (optimized conformer: 100.67930329204093 kcal/mol)

>  <smiles>  (83) 
CNC(=O)c1cc2c(C(=O)C(=O)NCc3ccco3)c[nH]c2cc1Cl

>  <score_type>  (83) 
oracle

>  <origin>  (83) 
adg

>  <m_score__min__energy>  (83) 
-9.8300000000000001

>  <m_primary>  (83) 
energy

$$$$
84:0
     RDKit          3D

 35 37  0  0  0  0  0  0  0  0999 V2000
   54.3910   27.1120   46.3740 H   0  0  0  0  0  0  0  0  0  0  0  0
   55.1940   26.6080   46.0180 O   0  0  0  0  0  0  0  0  0  0  0  0
   55.1170   25.3050   45.5230 C   0  0  0  0  0  0  0  0  0  0  0  0
   53.9560   24.6190   45.6840 N   0  0  0  0  0  0  0  0  0  0  0  0
   53.8170   23.3470   45.2360 C   0  0  0  0  0  0  0  0  0  0  0  0
   52.7300   22.7360   45.4040 O   0  0  0  0  0  0  0  0  0  0  0  0
   54.8480   22.7340   44.6010 N   0  0  0  0  0  0  0  0  0  0  0  0
   56.0310   23.3710   44.4070 C   0  0  0  0  0  0  0  0  0  0  0  0
   56.9520   22.7790   43.7830 O   0  0  0  0  0  0  0  0  0  0  0  0
   56.2100   24.6860   44.8810 C   0  0  0  0  0  0  0  0  0  0  0  0
   57.4750   25.4210   44.6590 C   0  0  0  0  0  0  0  0  0  0  0  0
   58.2041   25.0122   43.9439 H   0  0  0  0  0  0  0  0  0  0  0  0
   57.7700   26.5690   45.2960 C   0  0  0  0  0  0  0  0  0  0  0  0
   58.0000   26.6450   46.6250 N   0  0  0  0  0  0  0  0  0  0  0  0
   58.2310   27.9540   46.8580 C   0  0  0  0  0  0  0  0  0  0  0  0
   58.5360   28.4870   48.2220 C   0  0  0  0  0  0  0  0  0  0  0  0
   58.1411   27.7969   48.9821 H   0  0  0  0  0  0  0  0  0  0  0  0
   59.6251   28.5820   48.3435 H   0  0  0  0  0  0  0  0  0  0  0  0
   58.0661   29.4741   48.3435 H   0  0  0  0  0  0  0  0  0  0  0  0
   58.1430   28.7110   45.7390 N   0  0  0  0  0  0  0  0  0  0  0  0
   58.3430   30.1330   45.6450 C   0  0  0  0  0  0  0  0  0  0  0  0
   59.4310   30.7380   46.2930 C   0  0  0  0  0  0  0  0  0  0  0  0
   60.1384   30.1219   46.8675 H   0  0  0  0  0  0  0  0  0  0  0  0
   59.6190   32.1210   46.2110 C   0  0  0  0  0  0  0  0  0  0  0  0
   60.4745   32.5904   46.7186 H   0  0  0  0  0  0  0  0  0  0  0  0
   58.7200   32.9080   45.4840 C   0  0  0  0  0  0  0  0  0  0  0  0
   58.9570   34.6430   45.3810 Cl  0  0  0  0  0  0  0  0  0  0  0  0
   57.6320   32.3100   44.8390 C   0  0  0  0  0  0  0  0  0  0  0  0
   56.9245   32.9286   44.2674 H   0  0  0  0  0  0  0  0  0  0  0  0
   57.4430   30.9280   44.9200 C   0  0  0  0  0  0  0  0  0  0  0  0
   56.5852   30.4616   44.4133 H   0  0  0  0  0  0  0  0  0  0  0  0
   57.8520   27.8440   44.7430 C   0  0  0  0  0  0  0  0  0  0  0  0
   57.6500   28.1910   43.4630 C   0  0  0  0  0  0  0  0  0  0  0  0
   57.7474   29.2429   43.1564 H   0  0  0  0  0  0  0  0  0  0  0  0
   57.3870   27.4236   42.7201 H   0  0  0  0  0  0  0  0  0  0  0  0
  1  2  1  0
  2  3  1  0
  3  4  1  0
  4  5  1  0
  5  6  2  0
  5  7  1  0
  7  8  1  0
  8  9  2  0
  8 10  1  0
 10 11  1  0
 11 12  1  0
 11 13  2  0
 13 14  1  0
 14 15  2  0
 15 16  1  0
 16 17  1  0
 16 18  1  0
 16 19  1  0
 15 20  1  0
 20 21  1  0
 21 22  2  0
 22 23  1  0
 22 24  1  0
 24 25  1  0
 24 26  2  0
 26 27  1  0
 26 28  1  0
 28 29  1  0
 28 30  2  0
 30 31  1  0
 20 32  1  0
 32 33  2  0
 33 34  1  0
 33 35  1  0
 10  3  2  0
 32 13  1  0
 30 21  1  0
M  CHG  2   4  -1   7  -1
M  END
>  <UniqueID>  (84) 
75

>  <SMILES>  (84) 
C=c1/c(=C/c2c(O)[n-]c(=O)[n-]c2=O)nc(C)n1-c1ccc(Cl)cc1

>  <Energy>  (84) 
85.03589868124786

>  <Genealogy>  (84) 
C=c1c(=Cc2c(O)[n-]c(=O)[n-]c2=O)nc(C)n1-c1ccc(Cl)cc1 (protonated)
C=c1/c(=C/c2c(O)[n-]c(=O)[n-]c2=O)nc(C)n1-c1ccc(Cl)cc1 (cis-trans isomerization)
C=c1/c(=C/c2c(O)[n-]c(=O)[n-]c2=O)nc(C)n1-c1ccc(Cl)cc1 (3D coordinates assigned)
C=c1/c(=C/c2c(O)[n-]c(=O)[n-]c2=O)nc(C)n1-c1ccc(Cl)cc1 (optimized conformer: 85.03589868124786 kcal/mol)

>  <smiles>  (84) 
C=c1c(=Cc2c(O)[nH]c(=O)[nH]c2=O)nc(C)n1-c1ccc(Cl)cc1

>  <score_type>  (84) 
oracle

>  <origin>  (84) 
adg

>  <m_score__min__energy>  (84) 
-12.640000000000001

>  <m_primary>  (84) 
energy

$$$$
85:0
     RDKit          3D

 65 69  0  0  0  0  0  0  0  0999 V2000
   58.1128   33.4326   47.4603 H   0  0  0  0  0  0  0  0  0  0  0  0
   58.0190   33.1440   46.4030 C   0  0  0  0  0  0  0  0  0  0  0  0
   57.2440   32.0850   46.0550 N   0  0  0  0  0  0  0  0  0  0  0  0
   57.1120   31.6820   44.7580 C   0  0  0  0  0  0  0  0  0  0  0  0
   56.3350   30.6870   44.4400 N   0  0  0  0  0  0  0  0  0  0  0  0
   56.5290   29.3250   44.8530 C   0  0  0  0  0  0  0  0  0  0  0  0
   55.5220   28.5940   45.0270 O   0  0  0  0  0  0  0  0  0  0  0  0
   57.8390   28.7740   45.0670 N   0  0  0  0  0  0  0  0  0  0  0  0
   58.4560   28.6800   46.2150 C   0  0  0  0  0  0  0  0  0  0  0  0
   58.5090   29.7530   47.0480 N   0  0  0  0  0  0  0  0  0  0  0  0
   59.1770   29.7180   48.2230 C   0  0  0  0  0  0  0  0  0  0  0  0
   59.1930   30.8430   49.0550 C   0  0  0  0  0  0  0  0  0  0  0  0
   58.6408   31.7489   48.7646 H   0  0  0  0  0  0  0  0  0  0  0  0
   59.9100   30.8170   50.2550 C   0  0  0  0  0  0  0  0  0  0  0  0
   59.9216   31.7024   50.9076 H   0  0  0  0  0  0  0  0  0  0  0  0
   60.6120   29.6670   50.6260 C   0  0  0  0  0  0  0  0  0  0  0  0
   61.1829   29.6525   51.5662 H   0  0  0  0  0  0  0  0  0  0  0  0
   60.5910   28.5350   49.8060 C   0  0  0  0  0  0  0  0  0  0  0  0
   61.1396   27.6296   50.1048 H   0  0  0  0  0  0  0  0  0  0  0  0
   59.8670   28.5530   48.5960 C   0  0  0  0  0  0  0  0  0  0  0  0
   59.8100   27.4440   47.7340 C   0  0  0  0  0  0  0  0  0  0  0  0
   60.4260   26.3840   48.0450 O   0  0  0  0  0  0  0  0  0  0  0  0
   59.0860   27.5080   46.5670 N   0  0  0  0  0  0  0  0  0  0  0  0
   59.0380   26.3430   45.6650 C   0  0  0  0  0  0  0  0  0  0  0  0
   58.9999   25.4192   46.2609 H   0  0  0  0  0  0  0  0  0  0  0  0
   58.1417   26.4072   45.0305 H   0  0  0  0  0  0  0  0  0  0  0  0
   59.9365   26.3333   45.0305 H   0  0  0  0  0  0  0  0  0  0  0  0
   57.7940   32.3710   43.7490 C   0  0  0  0  0  0  0  0  0  0  0  0
   57.6995   32.0544   42.6998 H   0  0  0  0  0  0  0  0  0  0  0  0
   58.5950   33.4630   44.0850 C   0  0  0  0  0  0  0  0  0  0  0  0
   59.1448   34.0044   43.3010 H   0  0  0  0  0  0  0  0  0  0  0  0
   58.6980   33.8680   45.4180 C   0  0  0  0  0  0  0  0  0  0  0  0
   59.6260   35.3400   45.8530 S   0  0  0  0  0  0  0  0  0  0  0  0
   60.4900   34.4830   47.1710 C   0  0  0  0  0  0  0  0  0  0  0  0
   60.0190   34.5580   48.4860 C   0  0  0  0  0  0  0  0  0  0  0  0
   59.0742   35.0786   48.7015 H   0  0  0  0  0  0  0  0  0  0  0  0
   60.7460   33.9730   49.5270 C   0  0  0  0  0  0  0  0  0  0  0  0
   60.3714   34.0388   50.5592 H   0  0  0  0  0  0  0  0  0  0  0  0
   61.9510   33.3020   49.2640 C   0  0  0  0  0  0  0  0  0  0  0  0
   62.7740   32.7540   50.3690 C   0  0  0  0  0  0  0  0  0  0  0  0
   62.3210   32.7690   51.5480 O   0  0  0  0  0  0  0  0  0  0  0  0
   64.0700   32.1830   50.1220 N   0  0  0  0  0  0  0  0  0  0  0  0
   65.1400   33.0120   49.5650 C   0  0  0  0  0  0  0  0  0  0  0  0
   64.7039   33.8837   49.0551 H   0  0  0  0  0  0  0  0  0  0  0  0
   65.7257   32.4264   48.8411 H   0  0  0  0  0  0  0  0  0  0  0  0
   66.0470   33.4840   50.7030 C   0  0  0  0  0  0  0  0  0  0  0  0
   65.5065   34.2231   51.3126 H   0  0  0  0  0  0  0  0  0  0  0  0
   66.9521   33.9349   50.2700 H   0  0  0  0  0  0  0  0  0  0  0  0
   66.4450   32.3490   51.5580 N   0  0  0  0  0  0  0  0  0  0  0  0
   67.7270   32.3480   52.2190 C   0  0  0  0  0  0  0  0  0  0  0  0
   67.8400   31.8530   53.3730 O   0  0  0  0  0  0  0  0  0  0  0  0
   68.9380   32.9510   51.5760 C   0  0  0  0  0  0  0  0  0  0  0  0
   69.6330   33.2971   52.3553 H   0  0  0  0  0  0  0  0  0  0  0  0
   69.4355   32.1954   50.9503 H   0  0  0  0  0  0  0  0  0  0  0  0
   68.6349   33.8034   50.9503 H   0  0  0  0  0  0  0  0  0  0  0  0
   65.3970   31.4290   52.0300 C   0  0  0  0  0  0  0  0  0  0  0  0
   64.7873   31.9356   52.7927 H   0  0  0  0  0  0  0  0  0  0  0  0
   65.8746   30.5355   52.4583 H   0  0  0  0  0  0  0  0  0  0  0  0
   64.4980   31.0010   50.8700 C   0  0  0  0  0  0  0  0  0  0  0  0
   63.6148   30.4773   51.2647 H   0  0  0  0  0  0  0  0  0  0  0  0
   65.0563   30.3277   50.2030 H   0  0  0  0  0  0  0  0  0  0  0  0
   62.3990   33.2020   47.9330 C   0  0  0  0  0  0  0  0  0  0  0  0
   63.3322   32.6640   47.7098 H   0  0  0  0  0  0  0  0  0  0  0  0
   61.6670   33.7810   46.8940 C   0  0  0  0  0  0  0  0  0  0  0  0
   62.0172   33.6845   45.8557 H   0  0  0  0  0  0  0  0  0  0  0  0
  1  2  1  0
  2  3  1  0
  3  4  1  0
  4  5  2  0
  5  6  1  0
  6  7  2  0
  6  8  1  0
  8  9  2  3
  9 10  1  0
 10 11  1  0
 11 12  2  0
 12 13  1  0
 12 14  1  0
 14 15  1  0
 14 16  2  0
 16 17  1  0
 16 18  1  0
 18 19  1  0
 18 20  2  0
 20 21  1  0
 21 22  2  0
 21 23  1  0
 23 24  1  0
 24 25  1  0
 24 26  1  0
 24 27  1  0
  4 28  1  0
 28 29  1  0
 28 30  2  0
 30 31  1  0
 30 32  1  0
 32 33  1  0
 33 34  1  0
 34 35  2  0
 35 36  1  0
 35 37  1  0
 37 38  1  0
 37 39  2  0
 39 40  1  0
 40 41  2  0
 40 42  1  0
 42 43  1  0
 43 44  1  0
 43 45  1  0
 43 46  1  0
 46 47  1  0
 46 48  1  0
 46 49  1  0
 49 50  1  0
 50 51  2  0
 50 52  1  0
 52 53  1  0
 52 54  1  0
 52 55  1  0
 49 56  1  0
 56 57  1  0
 56 58  1  0
 56 59  1  0
 59 60  1  0
 59 61  1  0
 39 62  1  0
 62 63  1  0
 62 64  2  0
 64 65  1  0
 32  2  2  0
 64 34  1  0
 23  9  1  0
 59 42  1  0
 20 11  1  0
M  CHG  2   3  -1  10  -1
M  END
>  <UniqueID>  (85) 
76

>  <SMILES>  (85) 
CC(=O)N1CCN(C(=O)c2ccc(Sc3cc/c(=N/C(=O)N=c4[n-]c5ccccc5c(=O)n4C)[n-]c3)cc2)CC1

>  <Energy>  (85) 
89.2218171110068

>  <Genealogy>  (85) 
CC(=O)N1CCN(C(=O)c2ccc(Sc3ccc(=NC(=O)N=c4[n-]c5ccccc5c(=O)n4C)[n-]c3)cc2)CC1 (protonated)
CC(=O)N1CCN(C(=O)c2ccc(Sc3cc/c(=N/C(=O)N=c4[n-]c5ccccc5c(=O)n4C)[n-]c3)cc2)CC1 (cis-trans isomerization)
CC(=O)N1CCN(C(=O)c2ccc(Sc3cc/c(=N/C(=O)N=c4[n-]c5ccccc5c(=O)n4C)[n-]c3)cc2)CC1 (3D coordinates assigned)
CC(=O)N1CCN(C(=O)c2ccc(Sc3cc/c(=N/C(=O)N=c4[n-]c5ccccc5c(=O)n4C)[n-]c3)cc2)CC1 (nonaromatic ring conformer: 89.2218171110068 kcal/mol)

>  <smiles>  (85) 
CC(=O)N1CCN(C(=O)c2ccc(Sc3ccc(=NC(=O)N=c4[nH]c5ccccc5c(=O)n4C)[nH]c3)cc2)CC1

>  <score_type>  (85) 
oracle

>  <origin>  (85) 
adg

>  <m_score__min__energy>  (85) 
-13.84

>  <m_primary>  (85) 
energy

$$$$
86:0
     RDKit          3D

 46 49  0  0  0  0  0  0  0  0999 V2000
   56.0458   33.2217   45.4194 H   0  0  0  0  0  0  0  0  0  0  0  0
   57.0130   32.7200   45.2680 C   0  0  0  0  0  0  0  0  0  0  0  0
   58.1080   33.3140   45.7670 C   0  0  0  0  0  0  0  0  0  0  0  0
   58.3420   34.6730   45.6010 O   0  0  0  0  0  0  0  0  0  0  0  0
   59.5000   34.9540   46.3030 C   0  0  0  0  0  0  0  0  0  0  0  0
   60.0170   36.0990   46.3720 O   0  0  0  0  0  0  0  0  0  0  0  0
   60.0390   33.7360   46.9030 C   0  0  0  0  0  0  0  0  0  0  0  0
   61.3050   33.6450   47.6640 C   0  0  0  0  0  0  0  0  0  0  0  0
   61.3270   33.9820   49.0280 C   0  0  0  0  0  0  0  0  0  0  0  0
   60.4026   34.3124   49.5243 H   0  0  0  0  0  0  0  0  0  0  0  0
   62.5160   33.9000   49.7580 C   0  0  0  0  0  0  0  0  0  0  0  0
   62.5230   34.1600   50.8268 H   0  0  0  0  0  0  0  0  0  0  0  0
   63.6970   33.4880   49.1320 C   0  0  0  0  0  0  0  0  0  0  0  0
   65.1870   33.3840   50.0510 Cl  0  0  0  0  0  0  0  0  0  0  0  0
   63.6880   33.1640   47.7720 C   0  0  0  0  0  0  0  0  0  0  0  0
   64.6171   32.8430   47.2783 H   0  0  0  0  0  0  0  0  0  0  0  0
   62.5010   33.2470   47.0380 C   0  0  0  0  0  0  0  0  0  0  0  0
   62.5019   33.0000   45.9661 H   0  0  0  0  0  0  0  0  0  0  0  0
   59.2130   32.7350   46.5700 C   0  0  0  0  0  0  0  0  0  0  0  0
   59.4300   31.3100   46.8910 C   0  0  0  0  0  0  0  0  0  0  0  0
   58.9120   30.7650   48.0760 C   0  0  0  0  0  0  0  0  0  0  0  0
   58.3669   31.4076   48.7830 H   0  0  0  0  0  0  0  0  0  0  0  0
   59.0870   29.4080   48.3600 C   0  0  0  0  0  0  0  0  0  0  0  0
   58.6777   28.9853   49.2894 H   0  0  0  0  0  0  0  0  0  0  0  0
   59.7820   28.5840   47.4650 C   0  0  0  0  0  0  0  0  0  0  0  0
   59.9900   26.8730   47.8160 S   0  0  0  0  0  0  0  0  0  0  0  0
   60.9830   26.2740   46.8590 O   0  0  0  0  0  0  0  0  0  0  0  0
   58.6770   26.1580   47.6570 O   0  0  0  0  0  0  0  0  0  0  0  0
   60.5620   26.6850   49.4360 N   0  0  0  0  0  0  0  0  0  0  0  0
   61.5770   26.9290   49.4310 H   0  0  0  0  0  0  0  0  0  0  0  0
   60.0790   27.4060   50.0160 H   0  0  0  0  0  0  0  0  0  0  0  0
   60.3260   29.1350   46.2970 C   0  0  0  0  0  0  0  0  0  0  0  0
   60.8899   28.4964   45.6011 H   0  0  0  0  0  0  0  0  0  0  0  0
   60.1550   30.4920   46.0130 C   0  0  0  0  0  0  0  0  0  0  0  0
   60.5904   30.9200   45.0980 H   0  0  0  0  0  0  0  0  0  0  0  0
   57.0140   31.4440   44.5320 C   0  0  0  0  0  0  0  0  0  0  0  0
   56.9910   31.4240   43.1270 C   0  0  0  0  0  0  0  0  0  0  0  0
   56.9816   32.3692   42.5644 H   0  0  0  0  0  0  0  0  0  0  0  0
   56.9800   30.2040   42.4430 C   0  0  0  0  0  0  0  0  0  0  0  0
   56.9406   30.1909   41.3438 H   0  0  0  0  0  0  0  0  0  0  0  0
   57.0190   29.0020   43.1540 C   0  0  0  0  0  0  0  0  0  0  0  0
   56.9993   28.0432   42.6152 H   0  0  0  0  0  0  0  0  0  0  0  0
   57.0830   29.0180   44.5500 C   0  0  0  0  0  0  0  0  0  0  0  0
   57.1264   28.0711   45.1082 H   0  0  0  0  0  0  0  0  0  0  0  0
   57.0920   30.2350   45.2390 C   0  0  0  0  0  0  0  0  0  0  0  0
   57.1603   30.2441   46.3368 H   0  0  0  0  0  0  0  0  0  0  0  0
  1  2  1  0
  2  3  2  0
  3  4  1  0
  4  5  1  0
  5  6  2  0
  5  7  1  0
  7  8  1  0
  8  9  2  0
  9 10  1  0
  9 11  1  0
 11 12  1  0
 11 13  2  0
 13 14  1  0
 13 15  1  0
 15 16  1  0
 15 17  2  0
 17 18  1  0
  7 19  2  0
 19 20  1  0
 20 21  2  0
 21 22  1  0
 21 23  1  0
 23 24  1  0
 23 25  2  0
 25 26  1  0
 26 27  2  0
 26 28  2  0
 26 29  1  0
 29 30  1  0
 29 31  1  0
 25 32  1  0
 32 33  1  0
 32 34  2  0
 34 35  1  0
  2 36  1  0
 36 37  2  0
 37 38  1  0
 37 39  1  0
 39 40  1  0
 39 41  2  0
 41 42  1  0
 41 43  1  0
 43 44  1  0
 43 45  2  0
 45 46  1  0
 19  3  1  0
 34 20  1  0
 45 36  1  0
 17  8  1  0
M  END
>  <UniqueID>  (86) 
77

>  <SMILES>  (86) 
NS(=O)(=O)c1ccc(C2=C(c3ccc(Cl)cc3)C(=O)O/C2=C/c2ccccc2)cc1

>  <Energy>  (86) 
90.33391339960767

>  <Genealogy>  (86) 
NS(=O)(=O)c1ccc(C2=C(c3ccc(Cl)cc3)C(=O)O/C2=C/c2ccccc2)cc1 (cis-trans isomerization)
NS(=O)(=O)c1ccc(C2=C(c3ccc(Cl)cc3)C(=O)O/C2=C/c2ccccc2)cc1 (3D coordinates assigned)
NS(=O)(=O)c1ccc(C2=C(c3ccc(Cl)cc3)C(=O)O/C2=C/c2ccccc2)cc1 (nonaromatic ring conformer: 90.33391339960767 kcal/mol)

>  <smiles>  (86) 
NS(=O)(=O)c1ccc(C2=C(c3ccc(Cl)cc3)C(=O)OC2=Cc2ccccc2)cc1

>  <score_type>  (86) 
oracle

>  <origin>  (86) 
adg

>  <m_score__min__energy>  (86) 
-9.3000000000000007

>  <m_primary>  (86) 
energy

$$$$
87:0
     RDKit          3D

 63 67  0  0  0  0  0  0  0  0999 V2000
   55.1380   27.0820   46.6150 H   0  0  0  0  0  0  0  0  0  0  0  0
   55.5290   27.0500   45.6460 N   0  0  0  0  0  0  0  0  0  0  0  0
   57.1350   27.6720   45.7280 S   0  0  0  0  0  0  0  0  0  0  0  0
   57.5270   27.8390   47.1700 O   0  0  0  0  0  0  0  0  0  0  0  0
   58.0800   26.7030   45.0770 O   0  0  0  0  0  0  0  0  0  0  0  0
   57.2150   29.2240   44.8950 C   0  0  0  0  0  0  0  0  0  0  0  0
   56.9570   29.3150   43.5190 C   0  0  0  0  0  0  0  0  0  0  0  0
   56.7107   28.4089   42.9461 H   0  0  0  0  0  0  0  0  0  0  0  0
   57.0120   30.5540   42.8740 C   0  0  0  0  0  0  0  0  0  0  0  0
   56.8038   30.6212   41.7960 H   0  0  0  0  0  0  0  0  0  0  0  0
   57.3310   31.7080   43.5960 C   0  0  0  0  0  0  0  0  0  0  0  0
   57.3750   32.6808   43.0844 H   0  0  0  0  0  0  0  0  0  0  0  0
   57.5950   31.6280   44.9710 C   0  0  0  0  0  0  0  0  0  0  0  0
   57.9970   33.0740   45.8980 S   0  0  0  0  0  0  0  0  0  0  0  0
   57.8520   34.2950   45.0290 O   0  0  0  0  0  0  0  0  0  0  0  0
   57.0040   33.1570   47.0250 O   0  0  0  0  0  0  0  0  0  0  0  0
   59.6640   32.9680   46.4970 C   0  0  0  0  0  0  0  0  0  0  0  0
   60.6060   33.8630   45.9620 C   0  0  0  0  0  0  0  0  0  0  0  0
   60.2870   34.5993   45.2096 H   0  0  0  0  0  0  0  0  0  0  0  0
   61.9380   33.8320   46.3700 C   0  0  0  0  0  0  0  0  0  0  0  0
   62.6503   34.5677   45.9683 H   0  0  0  0  0  0  0  0  0  0  0  0
   62.3750   32.8690   47.2890 C   0  0  0  0  0  0  0  0  0  0  0  0
   63.7750   32.8310   47.7730 C   0  0  0  0  0  0  0  0  0  0  0  0
   64.5624   32.6947   47.0171 H   0  0  0  0  0  0  0  0  0  0  0  0
   64.1690   32.9480   49.0520 C   0  0  0  0  0  0  0  0  0  0  0  0
   65.0907   32.4248   49.3465 H   0  0  0  0  0  0  0  0  0  0  0  0
   63.4690   33.7180   50.0900 C   0  0  0  0  0  0  0  0  0  0  0  0
   62.9680   34.8350   49.7880 O   0  0  0  0  0  0  0  0  0  0  0  0
   63.2980   33.1860   51.4070 N   0  0  0  0  0  0  0  0  0  0  0  0
   62.3200   31.7940   51.7280 S   0  0  0  0  0  0  0  0  0  0  0  0
   62.7500   31.1800   53.0320 O   0  0  0  0  0  0  0  0  0  0  0  0
   62.4950   30.7760   50.6370 O   0  0  0  0  0  0  0  0  0  0  0  0
   60.6370   32.2770   51.8410 C   0  0  0  0  0  0  0  0  0  0  0  0
   59.6310   31.9490   53.1450 S   0  0  0  0  0  0  0  0  0  0  0  0
   58.2750   32.7150   52.5140 C   0  0  0  0  0  0  0  0  0  0  0  0
   57.2929   32.7901   53.0038 H   0  0  0  0  0  0  0  0  0  0  0  0
   58.6040   33.2380   51.2680 C   0  0  0  0  0  0  0  0  0  0  0  0
   57.8921   33.7961   50.6422 H   0  0  0  0  0  0  0  0  0  0  0  0
   59.9260   32.9870   50.8860 C   0  0  0  0  0  0  0  0  0  0  0  0
   60.3559   33.3180   49.9291 H   0  0  0  0  0  0  0  0  0  0  0  0
   61.4380   32.0010   47.8610 C   0  0  0  0  0  0  0  0  0  0  0  0
   61.7722   31.2592   48.6013 H   0  0  0  0  0  0  0  0  0  0  0  0
   60.0760   32.0580   47.5080 C   0  0  0  0  0  0  0  0  0  0  0  0
   59.1190   31.1420   48.2440 C   0  0  0  0  0  0  0  0  0  0  0  0
   58.9585   31.5396   49.2570 H   0  0  0  0  0  0  0  0  0  0  0  0
   58.1810   31.1074   47.6705 H   0  0  0  0  0  0  0  0  0  0  0  0
   59.6280   29.7680   48.3520 N   0  0  0  0  0  0  0  0  0  0  0  0
   60.0810   29.0270   47.3120 C   0  0  0  0  0  0  0  0  0  0  0  0
   60.0268   29.3337   46.2570 H   0  0  0  0  0  0  0  0  0  0  0  0
   60.6230   27.8280   47.7570 C   0  0  0  0  0  0  0  0  0  0  0  0
   61.0483   27.0194   47.1443 H   0  0  0  0  0  0  0  0  0  0  0  0
   60.5140   27.8680   49.1300 C   0  0  0  0  0  0  0  0  0  0  0  0
   60.9370   26.9540   50.0920 C   0  0  0  0  0  0  0  0  0  0  0  0
   61.4127   26.0052   49.8029 H   0  0  0  0  0  0  0  0  0  0  0  0
   60.7370   27.2820   51.4430 C   0  0  0  0  0  0  0  0  0  0  0  0
   61.0460   26.5768   52.2286 H   0  0  0  0  0  0  0  0  0  0  0  0
   60.1420   28.5110   51.7980 C   0  0  0  0  0  0  0  0  0  0  0  0
   59.9974   28.7613   52.8593 H   0  0  0  0  0  0  0  0  0  0  0  0
   59.7330   29.4170   50.8060 C   0  0  0  0  0  0  0  0  0  0  0  0
   59.2787   30.3820   51.0750 H   0  0  0  0  0  0  0  0  0  0  0  0
   59.9190   29.0590   49.4660 C   0  0  0  0  0  0  0  0  0  0  0  0
   57.5430   30.3830   45.6150 C   0  0  0  0  0  0  0  0  0  0  0  0
   57.7607   30.3147   46.6911 H   0  0  0  0  0  0  0  0  0  0  0  0
  1  2  1  0
  2  3  1  0
  3  4  2  0
  3  5  2  0
  3  6  1  0
  6  7  2  0
  7  8  1  0
  7  9  1  0
  9 10  1  0
  9 11  2  0
 11 12  1  0
 11 13  1  0
 13 14  1  0
 14 15  2  0
 14 16  2  0
 14 17  1  0
 17 18  2  0
 18 19  1  0
 18 20  1  0
 20 21  1  0
 20 22  2  0
 22 23  1  0
 23 24  1  0
 23 25  2  0
 25 26  1  0
 25 27  1  0
 27 28  2  0
 27 29  1  0
 29 30  1  0
 30 31  2  0
 30 32  2  0
 30 33  1  0
 33 34  1  0
 34 35  1  0
 35 36  1  0
 35 37  2  0
 37 38  1  0
 37 39  1  0
 39 40  1  0
 22 41  1  0
 41 42  1  0
 41 43  2  0
 43 44  1  0
 44 45  1  0
 44 46  1  0
 44 47  1  0
 47 48  1  0
 48 49  1  0
 48 50  2  0
 50 51  1  0
 50 52  1  0
 52 53  2  0
 53 54  1  0
 53 55  1  0
 55 56  1  0
 55 57  2  0
 57 58  1  0
 57 59  1  0
 59 60  1  0
 59 61  2  0
 13 62  2  0
 62 63  1  0
 62  6  1  0
 43 17  1  0
 61 47  1  0
 39 33  2  0
 61 52  1  0
M  CHG  2   2  -1  29  -1
M  END
>  <UniqueID>  (87) 
78

>  <SMILES>  (87) 
[NH-]S(=O)(=O)c1cccc(S(=O)(=O)c2ccc(/C=C\C(=O)[N-]S(=O)(=O)c3cccs3)cc2Cn2ccc3ccccc32)c1

>  <Energy>  (87) 
137.67074697224862

>  <Genealogy>  (87) 
[NH-]S(=O)(=O)c1cccc(S(=O)(=O)c2ccc(C=CC(=O)[N-]S(=O)(=O)c3cccs3)cc2Cn2ccc3ccccc32)c1 (protonated)
[NH-]S(=O)(=O)c1cccc(S(=O)(=O)c2ccc(/C=C\C(=O)[N-]S(=O)(=O)c3cccs3)cc2Cn2ccc3ccccc32)c1 (cis-trans isomerization)
[NH-]S(=O)(=O)c1cccc(S(=O)(=O)c2ccc(/C=C\C(=O)[N-]S(=O)(=O)c3cccs3)cc2Cn2ccc3ccccc32)c1 (3D coordinates assigned)
[NH-]S(=O)(=O)c1cccc(S(=O)(=O)c2ccc(/C=C\C(=O)[N-]S(=O)(=O)c3cccs3)cc2Cn2ccc3ccccc32)c1 (optimized conformer: 137.67074697224862 kcal/mol)

>  <smiles>  (87) 
NS(=O)(=O)c1cccc(S(=O)(=O)c2ccc(C=CC(=O)NS(=O)(=O)c3cccs3)cc2Cn2ccc3ccccc32)c1

>  <score_type>  (87) 
oracle

>  <origin>  (87) 
adg

>  <m_score__min__energy>  (87) 
-14.630000000000001

>  <m_primary>  (87) 
energy

$$$$
88:0
     RDKit          3D

 41 43  0  0  0  0  0  0  0  0999 V2000
   54.7360   27.4680   46.3540 H   0  0  0  0  0  0  0  0  0  0  0  0
   55.2380   26.6040   46.1900 O   0  0  0  0  0  0  0  0  0  0  0  0
   56.6290   26.5560   46.0810 C   0  0  0  0  0  0  0  0  0  0  0  0
   57.3090   25.4250   46.5440 C   0  0  0  0  0  0  0  0  0  0  0  0
   56.7472   24.5876   46.9834 H   0  0  0  0  0  0  0  0  0  0  0  0
   58.6990   25.3580   46.4490 C   0  0  0  0  0  0  0  0  0  0  0  0
   59.2383   24.4694   46.8090 H   0  0  0  0  0  0  0  0  0  0  0  0
   59.3980   26.4290   45.8930 C   0  0  0  0  0  0  0  0  0  0  0  0
   60.4946   26.3893   45.8157 H   0  0  0  0  0  0  0  0  0  0  0  0
   58.7250   27.5210   45.4470 N   0  0  0  0  0  0  0  0  0  0  0  0
   57.3660   27.6150   45.5140 C   0  0  0  0  0  0  0  0  0  0  0  0
   56.7470   28.6830   45.1020 N   0  0  0  0  0  0  0  0  0  0  0  0
   56.9840   29.4130   43.8840 C   0  0  0  0  0  0  0  0  0  0  0  0
   57.7250   30.6360   43.9350 N   0  0  0  0  0  0  0  0  0  0  0  0
   57.7730   31.5390   44.8770 C   0  0  0  0  0  0  0  0  0  0  0  0
   56.7700   32.4600   44.8990 N   0  0  0  0  0  0  0  0  0  0  0  0
   56.7130   33.4710   45.8030 C   0  0  0  0  0  0  0  0  0  0  0  0
   55.8791   34.1878   45.7751 H   0  0  0  0  0  0  0  0  0  0  0  0
   57.7090   33.6000   46.7640 C   0  0  0  0  0  0  0  0  0  0  0  0
   57.6845   34.4324   47.4827 H   0  0  0  0  0  0  0  0  0  0  0  0
   58.7380   32.6630   46.8060 C   0  0  0  0  0  0  0  0  0  0  0  0
   59.5282   32.7556   47.5656 H   0  0  0  0  0  0  0  0  0  0  0  0
   58.7770   31.6030   45.8900 C   0  0  0  0  0  0  0  0  0  0  0  0
   60.0240   30.3340   46.1940 S   0  0  0  0  0  0  0  0  0  0  0  0
   60.3880   30.8530   47.9080 C   0  0  0  0  0  0  0  0  0  0  0  0
   59.4881   31.3126   48.3426 H   0  0  0  0  0  0  0  0  0  0  0  0
   60.6871   29.9654   48.4848 H   0  0  0  0  0  0  0  0  0  0  0  0
   61.5190   31.8520   47.9470 C   0  0  0  0  0  0  0  0  0  0  0  0
   62.6570   31.6120   47.1570 C   0  0  0  0  0  0  0  0  0  0  0  0
   62.7160   30.6958   46.5511 H   0  0  0  0  0  0  0  0  0  0  0  0
   63.7140   32.5260   47.1340 C   0  0  0  0  0  0  0  0  0  0  0  0
   64.5987   32.3282   46.5110 H   0  0  0  0  0  0  0  0  0  0  0  0
   63.6470   33.6890   47.9010 C   0  0  0  0  0  0  0  0  0  0  0  0
   64.4792   34.4080   47.8820 H   0  0  0  0  0  0  0  0  0  0  0  0
   62.5250   33.9420   48.6930 C   0  0  0  0  0  0  0  0  0  0  0  0
   62.4777   34.8609   49.2958 H   0  0  0  0  0  0  0  0  0  0  0  0
   61.4600   33.0340   48.7250 C   0  0  0  0  0  0  0  0  0  0  0  0
   60.0810   33.4220   49.7490 Cl  0  0  0  0  0  0  0  0  0  0  0  0
   56.5690   28.9690   42.7360 N   0  0  0  0  0  0  0  0  0  0  0  0
   56.7270   27.9830   42.4360 H   0  0  0  0  0  0  0  0  0  0  0  0
   56.0040   29.5840   42.1080 H   0  0  0  0  0  0  0  0  0  0  0  0
  1  2  1  0
  2  3  1  0
  3  4  2  0
  4  5  1  0
  4  6  1  0
  6  7  1  0
  6  8  2  0
  8  9  1  0
  8 10  1  0
 10 11  1  0
 11 12  2  0
 12 13  1  0
 13 14  1  0
 14 15  2  3
 15 16  1  0
 16 17  1  0
 17 18  1  0
 17 19  2  0
 19 20  1  0
 19 21  1  0
 21 22  1  0
 21 23  2  0
 23 24  1  0
 24 25  1  0
 25 26  1  0
 25 27  1  0
 25 28  1  0
 28 29  2  0
 29 30  1  0
 29 31  1  0
 31 32  1  0
 31 33  2  0
 33 34  1  0
 33 35  1  0
 35 36  1  0
 35 37  2  0
 37 38  1  0
 13 39  2  0
 39 40  1  0
 39 41  1  0
 11  3  1  0
 23 15  1  0
 37 28  1  0
M  CHG  3  10  -1  16  -1  39   1
M  END
>  <UniqueID>  (88) 
79

>  <SMILES>  (88) 
[NH2+]=C(N=c1[n-]cccc1SCc1ccccc1Cl)/N=c1\[n-]cccc1O

>  <Energy>  (88) 
62.47791337459864

>  <Genealogy>  (88) 
[NH2+]=C(N=c1[n-]cccc1O)N=c1[n-]cccc1SCc1ccccc1Cl (protonated)
[NH2+]=C(N=c1[n-]cccc1SCc1ccccc1Cl)/N=c1\[n-]cccc1O (cis-trans isomerization)
[NH2+]=C(N=c1[n-]cccc1SCc1ccccc1Cl)/N=c1\[n-]cccc1O (3D coordinates assigned)
[NH2+]=C(N=c1[n-]cccc1SCc1ccccc1Cl)/N=c1\[n-]cccc1O (optimized conformer: 62.47791337459864 kcal/mol)

>  <smiles>  (88) 
N=C(N=c1[nH]cccc1O)N=c1[nH]cccc1SCc1ccccc1Cl

>  <score_type>  (88) 
oracle

>  <origin>  (88) 
adg

>  <m_score__min__energy>  (88) 
-9.2899999999999991

>  <m_primary>  (88) 
energy

$$$$
89:0
     RDKit          3D

 44 45  0  0  0  0  0  0  0  0999 V2000
   55.6510   24.3320   44.6650 C   0  0  0  0  0  0  0  0  0  0  0  0
   56.0670   25.4590   45.9870 S   0  0  0  0  0  0  0  0  0  0  0  0
   55.9100   24.7680   47.3070 O   0  0  0  0  0  0  0  0  0  0  0  0
   55.1510   26.6490   45.9560 O   0  0  0  0  0  0  0  0  0  0  0  0
   57.7130   25.9780   45.8300 N   0  0  0  0  0  0  0  0  0  0  0  0
   58.4350   26.7730   46.7780 C   0  0  0  0  0  0  0  0  0  0  0  0
   59.7030   26.4060   47.2560 C   0  0  0  0  0  0  0  0  0  0  0  0
   60.3740   27.2240   48.1690 C   0  0  0  0  0  0  0  0  0  0  0  0
   59.7970   28.4260   48.6030 C   0  0  0  0  0  0  0  0  0  0  0  0
   60.4950   29.2870   49.6200 C   0  0  0  0  0  0  0  0  0  0  0  0
   61.1590   30.4360   48.9300 C   0  0  0  0  0  0  0  0  0  0  0  0
   61.6790   31.3580   49.6100 O   0  0  0  0  0  0  0  0  0  0  0  0
   61.1390   30.5210   47.5030 N   0  0  0  0  0  0  0  0  0  0  0  0
   60.9460   31.7880   46.8030 C   0  0  0  0  0  0  0  0  0  0  0  0
   59.5310   31.8630   46.2720 C   0  0  0  0  0  0  0  0  0  0  0  0
   58.8610   33.0930   46.3860 C   0  0  0  0  0  0  0  0  0  0  0  0
   57.5910   33.2640   45.8490 C   0  0  0  0  0  0  0  0  0  0  0  0
   56.9590   32.2090   45.1950 C   0  0  0  0  0  0  0  0  0  0  0  0
   57.5910   30.9650   45.0650 C   0  0  0  0  0  0  0  0  0  0  0  0
   56.8330   29.8560   44.4390 C   0  0  0  0  0  0  0  0  0  0  0  0
   55.5080   29.5590   44.8700 N   0  0  0  0  0  0  0  0  0  0  0  0
   57.3760   29.1190   43.5730 O   0  0  0  0  0  0  0  0  0  0  0  0
   58.9070   30.7920   45.5690 C   0  0  0  0  0  0  0  0  0  0  0  0
   59.6260   29.5810   45.2960 N   0  0  0  0  0  0  0  0  0  0  0  0
   58.5260   28.7820   48.1330 C   0  0  0  0  0  0  0  0  0  0  0  0
   57.8500   27.9560   47.2350 C   0  0  0  0  0  0  0  0  0  0  0  0
   55.2998   23.3806   45.0911 H   0  0  0  0  0  0  0  0  0  0  0  0
   54.8559   24.7717   44.0449 H   0  0  0  0  0  0  0  0  0  0  0  0
   56.5411   24.1497   44.0449 H   0  0  0  0  0  0  0  0  0  0  0  0
   60.1698   25.4717   46.9108 H   0  0  0  0  0  0  0  0  0  0  0  0
   61.3612   26.9230   48.5496 H   0  0  0  0  0  0  0  0  0  0  0  0
   59.7596   29.6692   50.3433 H   0  0  0  0  0  0  0  0  0  0  0  0
   61.2526   28.6893   50.1479 H   0  0  0  0  0  0  0  0  0  0  0  0
   61.0060   29.6380   46.9570 H   0  0  0  0  0  0  0  0  0  0  0  0
   61.1206   32.6215   47.4993 H   0  0  0  0  0  0  0  0  0  0  0  0
   61.6552   31.8545   45.9648 H   0  0  0  0  0  0  0  0  0  0  0  0
   59.3480   33.9307   46.9068 H   0  0  0  0  0  0  0  0  0  0  0  0
   57.0831   34.2354   45.9406 H   0  0  0  0  0  0  0  0  0  0  0  0
   55.9524   32.3540   44.7758 H   0  0  0  0  0  0  0  0  0  0  0  0
   55.1510   28.5780   44.8540 H   0  0  0  0  0  0  0  0  0  0  0  0
   59.1820   28.8020   44.7680 H   0  0  0  0  0  0  0  0  0  0  0  0
   60.6300   29.4550   45.5400 H   0  0  0  0  0  0  0  0  0  0  0  0
   58.0588   29.7177   48.4739 H   0  0  0  0  0  0  0  0  0  0  0  0
   56.8468   28.2390   46.8835 H   0  0  0  0  0  0  0  0  0  0  0  0
  1  2  1  0
  2  3  2  0
  2  4  2  0
  2  5  1  0
  5  6  1  0
  6  7  2  0
  7  8  1  0
  8  9  2  0
  9 10  1  0
 10 11  1  0
 11 12  2  0
 11 13  1  0
 13 14  1  0
 14 15  1  0
 15 16  2  0
 16 17  1  0
 17 18  2  0
 18 19  1  0
 19 20  1  0
 20 21  1  0
 20 22  2  0
 19 23  2  0
 23 24  1  0
  9 25  1  0
 25 26  2  0
 26  6  1  0
 23 15  1  0
  1 27  1  0
  1 28  1  0
  1 29  1  0
  7 30  1  0
  8 31  1  0
 10 32  1  0
 10 33  1  0
 13 34  1  0
 14 35  1  0
 14 36  1  0
 16 37  1  0
 17 38  1  0
 18 39  1  0
 21 40  1  0
 24 41  1  0
 24 42  1  0
 25 43  1  0
 26 44  1  0
M  CHG  2   5  -1  21  -1
M  END
>  <UniqueID>  (89) 
80

>  <SMILES>  (89) 
CS(=O)(=O)[N-]c1ccc(CC(=O)NCc2cccc(C([NH-])=O)c2N)cc1

>  <Energy>  (89) 
44.169411166248146

>  <Genealogy>  (89) 
CS(=O)(=O)[N-]c1ccc(CC(=O)NCc2cccc(C([NH-])=O)c2N)cc1 (protonated)
CS(=O)(=O)[N-]c1ccc(CC(=O)NCc2cccc(C([NH-])=O)c2N)cc1 (3D coordinates assigned)
CS(=O)(=O)[N-]c1ccc(CC(=O)NCc2cccc(C([NH-])=O)c2N)cc1 (optimized conformer: 44.169411166248146 kcal/mol)

>  <smiles>  (89) 
CS(=O)(=O)Nc1ccc(CC(=O)NCc2cccc(C(N)=O)c2N)cc1

>  <score_type>  (89) 
oracle

>  <origin>  (89) 
adg

>  <m_score__min__energy>  (89) 
-12.960000000000001

>  <m_primary>  (89) 
energy

$$$$
90:0
     RDKit          3D

 45 48  0  0  0  0  0  0  0  0999 V2000
   59.9067   30.3595   47.6992 H   0  0  0  0  0  0  0  0  0  0  0  0
   59.3990   29.9950   46.7940 C   0  0  0  0  0  0  0  0  0  0  0  0
   59.4425   28.9278   46.5309 H   0  0  0  0  0  0  0  0  0  0  0  0
   58.7260   30.8530   46.0100 C   0  0  0  0  0  0  0  0  0  0  0  0
   58.0370   30.5340   44.8360 C   0  0  0  0  0  0  0  0  0  0  0  0
   57.9210   29.3230   44.2560 C   0  0  0  0  0  0  0  0  0  0  0  0
   58.2435   29.2131   43.2101 H   0  0  0  0  0  0  0  0  0  0  0  0
   57.3820   28.1320   44.9530 C   0  0  0  0  0  0  0  0  0  0  0  0
   56.0130   28.0550   45.2520 C   0  0  0  0  0  0  0  0  0  0  0  0
   55.1460   29.0710   44.8700 O   0  0  0  0  0  0  0  0  0  0  0  0
   55.5240   26.9740   45.9130 N   0  0  0  0  0  0  0  0  0  0  0  0
   56.3400   25.9640   46.3060 C   0  0  0  0  0  0  0  0  0  0  0  0
   55.8620   24.9700   46.9120 O   0  0  0  0  0  0  0  0  0  0  0  0
   57.6720   26.0260   46.0520 N   0  0  0  0  0  0  0  0  0  0  0  0
   58.2120   27.0860   45.3970 C   0  0  0  0  0  0  0  0  0  0  0  0
   59.4570   27.1260   45.2100 O   0  0  0  0  0  0  0  0  0  0  0  0
   57.4400   31.7090   44.4000 C   0  0  0  0  0  0  0  0  0  0  0  0
   56.8061   31.8330   43.5096 H   0  0  0  0  0  0  0  0  0  0  0  0
   57.7970   32.6920   45.3020 C   0  0  0  0  0  0  0  0  0  0  0  0
   57.3540   34.1210   45.2240 C   0  0  0  0  0  0  0  0  0  0  0  0
   57.2296   34.5223   46.2406 H   0  0  0  0  0  0  0  0  0  0  0  0
   58.1114   34.7109   44.6871 H   0  0  0  0  0  0  0  0  0  0  0  0
   56.3957   34.1790   44.6871 H   0  0  0  0  0  0  0  0  0  0  0  0
   58.5780   32.1770   46.2780 N   0  0  0  0  0  0  0  0  0  0  0  0
   59.1330   32.9200   47.3780 C   0  0  0  0  0  0  0  0  0  0  0  0
   60.1220   33.8240   47.1520 N   0  0  0  0  0  0  0  0  0  0  0  0
   60.6800   34.5230   48.1740 C   0  0  0  0  0  0  0  0  0  0  0  0
   61.4749   35.2553   47.9693 H   0  0  0  0  0  0  0  0  0  0  0  0
   60.2580   34.3190   49.4470 N   0  0  0  0  0  0  0  0  0  0  0  0
   59.2800   33.4170   49.7360 C   0  0  0  0  0  0  0  0  0  0  0  0
   58.8660   33.2290   51.1030 N   0  0  0  0  0  0  0  0  0  0  0  0
   57.7890   32.3300   51.4820 C   0  0  0  0  0  0  0  0  0  0  0  0
   56.8249   32.7093   51.1123 H   0  0  0  0  0  0  0  0  0  0  0  0
   57.9277   31.3269   51.0524 H   0  0  0  0  0  0  0  0  0  0  0  0
   57.7970   32.2950   53.0050 C   0  0  0  0  0  0  0  0  0  0  0  0
   56.7705   32.3610   53.3948 H   0  0  0  0  0  0  0  0  0  0  0  0
   58.2292   31.3577   53.3854 H   0  0  0  0  0  0  0  0  0  0  0  0
   58.6110   33.5070   53.4460 C   0  0  0  0  0  0  0  0  0  0  0  0
   57.9429   34.3348   53.7261 H   0  0  0  0  0  0  0  0  0  0  0  0
   59.2318   33.2776   54.3246 H   0  0  0  0  0  0  0  0  0  0  0  0
   59.4640   33.8980   52.2470 C   0  0  0  0  0  0  0  0  0  0  0  0
   59.4484   34.9886   52.1047 H   0  0  0  0  0  0  0  0  0  0  0  0
   60.5154   33.6052   52.3843 H   0  0  0  0  0  0  0  0  0  0  0  0
   58.6970   32.6870   48.6880 C   0  0  0  0  0  0  0  0  0  0  0  0
   57.9113   31.9448   48.8925 H   0  0  0  0  0  0  0  0  0  0  0  0
  1  2  1  0
  2  3  1  0
  2  4  2  0
  4  5  1  0
  5  6  2  0
  6  7  1  0
  6  8  1  0
  8  9  2  0
  9 10  1  0
  9 11  1  0
 11 12  1  0
 12 13  2  0
 12 14  1  0
 14 15  1  0
 15 16  2  0
  5 17  1  0
 17 18  1  0
 17 19  2  0
 19 20  1  0
 20 21  1  0
 20 22  1  0
 20 23  1  0
 19 24  1  0
 24 25  1  0
 25 26  2  0
 26 27  1  0
 27 28  1  0
 27 29  2  0
 29 30  1  0
 30 31  1  0
 31 32  1  0
 32 33  1  0
 32 34  1  0
 32 35  1  0
 35 36  1  0
 35 37  1  0
 35 38  1  0
 38 39  1  0
 38 40  1  0
 38 41  1  0
 41 42  1  0
 41 43  1  0
 30 44  2  0
 44 45  1  0
 24  4  1  0
 44 25  1  0
 15  8  1  0
 41 31  1  0
M  CHG  3  10  -1  11  -1  14  -1
M  END
>  <UniqueID>  (90) 
81

>  <SMILES>  (90) 
C=c1/c(=C/c2c([O-])[n-]c(=O)[n-]c2=O)cc(C)n1-c1cc(N2CCCC2)ncn1

>  <Energy>  (90) 
93.94345336757452

>  <Genealogy>  (90) 
C=c1c(=Cc2c([O-])[n-]c(=O)[n-]c2=O)cc(C)n1-c1cc(N2CCCC2)ncn1 (protonated)
C=c1/c(=C/c2c([O-])[n-]c(=O)[n-]c2=O)cc(C)n1-c1cc(N2CCCC2)ncn1 (cis-trans isomerization)
C=c1/c(=C/c2c([O-])[n-]c(=O)[n-]c2=O)cc(C)n1-c1cc(N2CCCC2)ncn1 (3D coordinates assigned)
C=c1/c(=C/c2c([O-])[n-]c(=O)[n-]c2=O)cc(C)n1-c1cc(N2CCCC2)ncn1 (nonaromatic ring conformer: 93.94345336757452 kcal/mol)

>  <smiles>  (90) 
C=c1c(=Cc2c(O)[nH]c(=O)[nH]c2=O)cc(C)n1-c1cc(N2CCCC2)ncn1

>  <score_type>  (90) 
oracle

>  <origin>  (90) 
adg

>  <m_score__min__energy>  (90) 
-15.789999999999999

>  <m_primary>  (90) 
energy

$$$$
