0:0
     RDKit          3D

 39 41  0  0  0  0  0  0  0  0999 V2000
   58.6000   27.7470   43.7140 C   0  0  0  0  0  0  0  0  0  0  0  0
   57.6800   27.1240   44.7780 C   0  0  1  0  0  0  0  0  0  0  0  0
   58.4020   25.9790   45.4320 C   0  0  0  0  0  0  0  0  0  0  0  0
   58.3080   24.8140   44.9630 O   0  0  0  0  0  0  0  0  0  0  0  0
   59.2680   26.2310   46.5380 N   0  0  0  0  0  0  0  0  0  0  0  0
   59.3040   27.5150   47.1650 C   0  0  0  0  0  0  0  0  0  0  0  0
   60.2830   27.7750   48.1290 C   0  0  0  0  0  0  0  0  0  0  0  0
   60.3130   29.0090   48.7980 C   0  0  0  0  0  0  0  0  0  0  0  0
   61.2910   29.3100   49.8020 N   0  0  0  0  0  0  0  0  0  0  0  0
   61.9200   30.8900   50.1420 S   0  0  0  0  0  0  0  0  0  0  0  0
   63.4180   30.8620   50.0230 O   0  0  0  0  0  0  0  0  0  0  0  0
   61.5510   31.2770   51.5450 O   0  0  0  0  0  0  0  0  0  0  0  0
   61.2780   32.0450   48.9770 C   0  0  0  0  0  0  0  0  0  0  0  0
   60.2490   32.9270   49.3340 C   0  0  0  0  0  0  0  0  0  0  0  0
   59.7410   33.8320   48.3950 C   0  0  0  0  0  0  0  0  0  0  0  0
   60.2620   33.8610   47.0970 C   0  0  0  0  0  0  0  0  0  0  0  0
   59.5750   35.1010   45.8190 Br  0  0  0  0  0  0  0  0  0  0  0  0
   61.2890   32.9830   46.7380 C   0  0  0  0  0  0  0  0  0  0  0  0
   61.7950   32.0770   47.6750 C   0  0  0  0  0  0  0  0  0  0  0  0
   59.3460   29.9740   48.4970 C   0  0  0  0  0  0  0  0  0  0  0  0
   58.3610   29.7180   47.5410 C   0  0  0  0  0  0  0  0  0  0  0  0
   58.3460   28.4980   46.8350 C   0  0  0  0  0  0  0  0  0  0  0  0
   57.2210   28.1380   45.8660 C   0  0  1  0  0  0  0  0  0  0  0  0
   56.5390   29.3370   45.2450 C   0  0  0  0  0  0  0  0  0  0  0  0
   55.1650   29.2550   44.8710 N   0  0  0  0  0  0  0  0  0  0  0  0
   57.1810   30.4020   45.0300 O   0  0  0  0  0  0  0  0  0  0  0  0
   59.4132   28.2977   44.2094 H   0  0  0  0  0  0  0  0  0  0  0  0
   59.0259   26.9507   43.0859 H   0  0  0  0  0  0  0  0  0  0  0  0
   58.0187   28.4381   43.0859 H   0  0  0  0  0  0  0  0  0  0  0  0
   56.7698   26.7815   44.2640 H   0  0  0  0  0  0  0  0  0  0  0  0
   61.0348   27.0074   48.3648 H   0  0  0  0  0  0  0  0  0  0  0  0
   59.8396   32.9079   50.3548 H   0  0  0  0  0  0  0  0  0  0  0  0
   58.9315   34.5210   48.6778 H   0  0  0  0  0  0  0  0  0  0  0  0
   61.6993   33.0050   45.7176 H   0  0  0  0  0  0  0  0  0  0  0  0
   62.6022   31.3866   47.3890 H   0  0  0  0  0  0  0  0  0  0  0  0
   59.3617   30.9427   49.0179 H   0  0  0  0  0  0  0  0  0  0  0  0
   57.5897   30.4753   47.3369 H   0  0  0  0  0  0  0  0  0  0  0  0
   56.4605   27.6443   46.4888 H   0  0  0  0  0  0  0  0  0  0  0  0
   54.4090   29.3720   45.5810 H   0  0  0  0  0  0  0  0  0  0  0  0
  1  2  1  0
  2  3  1  0
  3  4  2  0
  3  5  1  0
  5  6  1  0
  6  7  2  0
  7  8  1  0
  8  9  1  0
  9 10  1  0
 10 11  2  0
 10 12  2  0
 10 13  1  0
 13 14  2  0
 14 15  1  0
 15 16  2  0
 16 17  1  0
 16 18  1  0
 18 19  2  0
  8 20  2  0
 20 21  1  0
 21 22  2  0
 22 23  1  0
 23 24  1  0
 24 25  1  0
 24 26  2  0
 23  2  1  0
 22  6  1  0
 19 13  1  0
  1 27  1  0
  1 28  1  0
  1 29  1  0
  2 30  1  6
  7 31  1  0
 14 32  1  0
 15 33  1  0
 18 34  1  0
 19 35  1  0
 20 36  1  0
 21 37  1  0
 23 38  1  1
 25 39  1  0
M  CHG  3   5  -1   9  -1  25  -1
M  END
>  <UniqueID>  (1) 
1

>  <SMILES>  (1) 
C[C@H]1C(=O)[N-]c2cc([N-]S(=O)(=O)c3ccc(Br)cc3)ccc2[C@H]1C([NH-])=O

>  <Energy>  (1) 
47.02525536543537

>  <Genealogy>  (1) 
CC1C(=O)[N-]c2cc([N-]S(=O)(=O)c3ccc(Br)cc3)ccc2C1C([NH-])=O (protonated)
C[C@H]1C(=O)[N-]c2cc([N-]S(=O)(=O)c3ccc(Br)cc3)ccc2[C@H]1C([NH-])=O (chirality)
C[C@H]1C(=O)[N-]c2cc([N-]S(=O)(=O)c3ccc(Br)cc3)ccc2[C@H]1C([NH-])=O (3D coordinates assigned)
C[C@H]1C(=O)[N-]c2cc([N-]S(=O)(=O)c3ccc(Br)cc3)ccc2[C@H]1C([NH-])=O (nonaromatic ring conformer: 47.02525536543537 kcal/mol)

>  <smiles>  (1) 
CC1C(=O)Nc2cc(NS(=O)(=O)c3ccc(Br)cc3)ccc2C1C(N)=O

>  <score_type>  (1) 
oracle

>  <origin>  (1) 
adg

>  <m_score__min__energy>  (1) 
-13.98

>  <m_primary>  (1) 
energy

$$$$
1:0
     RDKit          3D

 39 41  0  0  0  0  0  0  0  0999 V2000
   58.1520   22.9420   47.5430 H   0  0  0  0  0  0  0  0  0  0  0  0
   57.2690   22.4460   47.5410 O   0  0  0  0  0  0  0  0  0  0  0  0
   56.1340   22.9420   46.8980 C   0  0  0  0  0  0  0  0  0  0  0  0
   55.1900   22.0420   46.3940 C   0  0  0  0  0  0  0  0  0  0  0  0
   55.3483   20.9595   46.5088 H   0  0  0  0  0  0  0  0  0  0  0  0
   54.0480   22.5130   45.7460 C   0  0  0  0  0  0  0  0  0  0  0  0
   53.3050   21.8078   45.3452 H   0  0  0  0  0  0  0  0  0  0  0  0
   53.8590   23.8890   45.6120 C   0  0  0  0  0  0  0  0  0  0  0  0
   52.9615   24.2740   45.1058 H   0  0  0  0  0  0  0  0  0  0  0  0
   54.7840   24.7540   46.1070 N   0  0  0  0  0  0  0  0  0  0  0  0
   55.9160   24.3250   46.7360 C   0  0  0  0  0  0  0  0  0  0  0  0
   56.7770   25.1780   47.2150 N   0  0  0  0  0  0  0  0  0  0  0  0
   58.0150   25.5640   46.5960 C   0  0  0  0  0  0  0  0  0  0  0  0
   58.9610   24.7320   46.5760 O   0  0  0  0  0  0  0  0  0  0  0  0
   58.1920   26.8790   45.9340 C   0  0  0  0  0  0  0  0  0  0  0  0
   57.0780   27.6280   45.5130 C   0  0  0  0  0  0  0  0  0  0  0  0
   56.0627   27.2394   45.6807 H   0  0  0  0  0  0  0  0  0  0  0  0
   57.2540   28.8630   44.8830 C   0  0  0  0  0  0  0  0  0  0  0  0
   56.3754   29.4428   44.5638 H   0  0  0  0  0  0  0  0  0  0  0  0
   58.5390   29.3680   44.6550 C   0  0  0  0  0  0  0  0  0  0  0  0
   58.6710   30.6420   44.0090 N   0  0  0  0  0  0  0  0  0  0  0  0
   57.7270   32.0490   44.3750 S   0  0  0  0  0  0  0  0  0  0  0  0
   56.3510   31.6260   44.8000 O   0  0  0  0  0  0  0  0  0  0  0  0
   57.6130   32.9000   43.1410 O   0  0  0  0  0  0  0  0  0  0  0  0
   58.4790   32.9480   45.6920 C   0  0  0  0  0  0  0  0  0  0  0  0
   58.9370   34.2580   45.4860 C   0  0  0  0  0  0  0  0  0  0  0  0
   58.8109   34.7344   44.5026 H   0  0  0  0  0  0  0  0  0  0  0  0
   59.5530   34.9600   46.5260 C   0  0  0  0  0  0  0  0  0  0  0  0
   59.9147   35.9852   46.3579 H   0  0  0  0  0  0  0  0  0  0  0  0
   59.7100   34.3620   47.7780 C   0  0  0  0  0  0  0  0  0  0  0  0
   60.1931   34.9167   48.5958 H   0  0  0  0  0  0  0  0  0  0  0  0
   59.2530   33.0580   47.9920 C   0  0  0  0  0  0  0  0  0  0  0  0
   59.3767   32.5881   48.9788 H   0  0  0  0  0  0  0  0  0  0  0  0
   58.6390   32.3500   46.9540 C   0  0  0  0  0  0  0  0  0  0  0  0
   58.2010   31.0850   47.1800 F   0  0  0  0  0  0  0  0  0  0  0  0
   59.6550   28.6110   45.0520 C   0  0  0  0  0  0  0  0  0  0  0  0
   60.6699   28.9930   44.8673 H   0  0  0  0  0  0  0  0  0  0  0  0
   59.4800   27.3740   45.6810 C   0  0  0  0  0  0  0  0  0  0  0  0
   60.3594   26.7846   45.9797 H   0  0  0  0  0  0  0  0  0  0  0  0
  1  2  1  0
  2  3  1  0
  3  4  2  0
  4  5  1  0
  4  6  1  0
  6  7  1  0
  6  8  2  0
  8  9  1  0
  8 10  1  0
 10 11  1  0
 11 12  2  0
 12 13  1  0
 13 14  2  0
 13 15  1  0
 15 16  2  0
 16 17  1  0
 16 18  1  0
 18 19  1  0
 18 20  2  0
 20 21  1  0
 21 22  1  0
 22 23  2  0
 22 24  2  0
 22 25  1  0
 25 26  2  0
 26 27  1  0
 26 28  1  0
 28 29  1  0
 28 30  2  0
 30 31  1  0
 30 32  1  0
 32 33  1  0
 32 34  2  0
 34 35  1  0
 20 36  1  0
 36 37  1  0
 36 38  2  0
 38 39  1  0
 11  3  1  0
 38 15  1  0
 34 25  1  0
M  CHG  2  10  -1  21  -1
M  END
>  <UniqueID>  (2) 
2

>  <SMILES>  (2) 
O=C(/N=c1\[n-]cccc1O)c1ccc([N-]S(=O)(=O)c2ccccc2F)cc1

>  <Energy>  (2) 
54.596590610426624

>  <Genealogy>  (2) 
O=C(N=c1[n-]cccc1O)c1ccc([N-]S(=O)(=O)c2ccccc2F)cc1 (protonated)
O=C(/N=c1\[n-]cccc1O)c1ccc([N-]S(=O)(=O)c2ccccc2F)cc1 (cis-trans isomerization)
O=C(/N=c1\[n-]cccc1O)c1ccc([N-]S(=O)(=O)c2ccccc2F)cc1 (3D coordinates assigned)
O=C(/N=c1\[n-]cccc1O)c1ccc([N-]S(=O)(=O)c2ccccc2F)cc1 (optimized conformer: 54.596590610426624 kcal/mol)

>  <smiles>  (2) 
O=C(N=c1[nH]cccc1O)c1ccc(NS(=O)(=O)c2ccccc2F)cc1

>  <score_type>  (2) 
oracle

>  <origin>  (2) 
adg

>  <m_score__min__energy>  (2) 
-11.91

>  <m_primary>  (2) 
energy

$$$$
2:0
     RDKit          3D

 63 67  0  0  0  0  0  0  0  0999 V2000
   60.2795   30.2988   44.7076 H   0  0  0  0  0  0  0  0  0  0  0  0
   59.7050   29.3800   44.8970 C   0  0  0  0  0  0  0  0  0  0  0  0
   59.5172   28.6701   44.0780 H   0  0  0  0  0  0  0  0  0  0  0  0
   59.2330   29.1250   46.1280 C   0  0  0  0  0  0  0  0  0  0  0  0
   58.4920   28.0030   46.5080 C   0  0  0  0  0  0  0  0  0  0  0  0
   58.0570   27.0050   45.7150 C   0  0  0  0  0  0  0  0  0  0  0  0
   58.2832   27.0642   44.6401 H   0  0  0  0  0  0  0  0  0  0  0  0
   57.2970   25.8390   46.1980 C   0  0  0  0  0  0  0  0  0  0  0  0
   57.8760   24.7520   46.7350 N   0  0  0  0  0  0  0  0  0  0  0  0
   56.8240   24.0070   47.1430 C   0  0  0  0  0  0  0  0  0  0  0  0
   56.9640   22.8910   47.7020 O   0  0  0  0  0  0  0  0  0  0  0  0
   55.6130   24.5650   46.9250 N   0  0  0  0  0  0  0  0  0  0  0  0
   55.9290   25.7290   46.3370 C   0  0  0  0  0  0  0  0  0  0  0  0
   54.9870   26.6920   45.9880 O   0  0  0  0  0  0  0  0  0  0  0  0
   58.2620   28.1280   47.8710 C   0  0  0  0  0  0  0  0  0  0  0  0
   57.7086   27.4264   48.5125 H   0  0  0  0  0  0  0  0  0  0  0  0
   58.8650   29.3070   48.2630 C   0  0  0  0  0  0  0  0  0  0  0  0
   58.9450   29.7890   49.6520 C   0  0  0  0  0  0  0  0  0  0  0  0
   57.9120   29.7940   50.3700 O   0  0  0  0  0  0  0  0  0  0  0  0
   60.1610   30.3530   50.1570 N   0  0  0  0  0  0  0  0  0  0  0  0
   61.3630   29.5270   50.2970 C   0  0  0  0  0  0  0  0  0  0  0  0
   61.0968   28.5701   50.7697 H   0  0  0  0  0  0  0  0  0  0  0  0
   61.7951   29.3386   49.3031 H   0  0  0  0  0  0  0  0  0  0  0  0
   62.3890   30.2580   51.1680 C   0  0  0  0  0  0  0  0  0  0  0  0
   61.9729   30.3827   52.1786 H   0  0  0  0  0  0  0  0  0  0  0  0
   63.3090   29.6553   51.1891 H   0  0  0  0  0  0  0  0  0  0  0  0
   62.7290   31.5990   50.6190 N   0  0  0  0  0  0  0  0  0  0  0  0
   63.7550   31.5910   49.5250 C   0  0  0  0  0  0  0  0  0  0  0  0
   63.8449   30.5319   49.2418 H   0  0  0  0  0  0  0  0  0  0  0  0
   65.1360   32.1400   49.9590 C   0  0  0  0  0  0  0  0  0  0  0  0
   65.5203   31.5327   50.7918 H   0  0  0  0  0  0  0  0  0  0  0  0
   65.8219   32.0891   49.1005 H   0  0  0  0  0  0  0  0  0  0  0  0
   65.0210   33.6130   50.4160 C   0  0  0  0  0  0  0  0  0  0  0  0
   65.1259   33.6506   51.5103 H   0  0  0  0  0  0  0  0  0  0  0  0
   65.8165   34.1797   49.9100 H   0  0  0  0  0  0  0  0  0  0  0  0
   63.7790   34.2060   50.0580 O   0  0  0  0  0  0  0  0  0  0  0  0
   63.5120   34.0000   48.6810 C   0  0  0  0  0  0  0  0  0  0  0  0
   62.5999   34.5514   48.4089 H   0  0  0  0  0  0  0  0  0  0  0  0
   64.3785   34.3607   48.1074 H   0  0  0  0  0  0  0  0  0  0  0  0
   63.3080   32.5010   48.3520 C   0  0  0  0  0  0  0  0  0  0  0  0
   62.2418   32.3225   48.1485 H   0  0  0  0  0  0  0  0  0  0  0  0
   63.9232   32.2557   47.4737 H   0  0  0  0  0  0  0  0  0  0  0  0
   61.5160   32.3850   50.2250 C   0  0  0  0  0  0  0  0  0  0  0  0
   61.5749   33.3710   50.7091 H   0  0  0  0  0  0  0  0  0  0  0  0
   61.5257   32.4399   49.1264 H   0  0  0  0  0  0  0  0  0  0  0  0
   60.1780   31.7410   50.6140 C   0  0  0  0  0  0  0  0  0  0  0  0
   60.0601   31.7697   51.7073 H   0  0  0  0  0  0  0  0  0  0  0  0
   59.3515   32.2945   50.1444 H   0  0  0  0  0  0  0  0  0  0  0  0
   59.4510   29.9180   47.2060 N   0  0  0  0  0  0  0  0  0  0  0  0
   60.3010   31.1190   47.2660 C   0  0  0  0  0  0  0  0  0  0  0  0
   60.5739   31.3083   48.3147 H   0  0  0  0  0  0  0  0  0  0  0  0
   61.1924   30.9341   46.6486 H   0  0  0  0  0  0  0  0  0  0  0  0
   59.6000   32.3400   46.7170 C   0  0  0  0  0  0  0  0  0  0  0  0
   58.2790   32.2810   46.2270 C   0  0  0  0  0  0  0  0  0  0  0  0
   57.7140   31.3393   46.2905 H   0  0  0  0  0  0  0  0  0  0  0  0
   57.6830   33.4120   45.6610 C   0  0  0  0  0  0  0  0  0  0  0  0
   56.6463   33.3627   45.2966 H   0  0  0  0  0  0  0  0  0  0  0  0
   58.4020   34.6030   45.5580 C   0  0  0  0  0  0  0  0  0  0  0  0
   57.9294   35.4948   45.1206 H   0  0  0  0  0  0  0  0  0  0  0  0
   59.7210   34.6630   46.0100 C   0  0  0  0  0  0  0  0  0  0  0  0
   60.2914   35.5986   45.9136 H   0  0  0  0  0  0  0  0  0  0  0  0
   60.3200   33.5380   46.5850 C   0  0  0  0  0  0  0  0  0  0  0  0
   61.3611   33.5919   46.9359 H   0  0  0  0  0  0  0  0  0  0  0  0
  1  2  1  0
  2  3  1  0
  2  4  2  0
  4  5  1  0
  5  6  2  0
  6  7  1  0
  6  8  1  0
  8  9  1  0
  9 10  1  0
 10 11  2  0
 10 12  1  0
 12 13  1  0
 13 14  1  0
  5 15  1  0
 15 16  1  0
 15 17  2  0
 17 18  1  0
 18 19  2  0
 18 20  1  0
 20 21  1  0
 21 22  1  0
 21 23  1  0
 21 24  1  0
 24 25  1  0
 24 26  1  0
 24 27  1  0
 27 28  1  0
 28 29  1  0
 28 30  1  0
 30 31  1  0
 30 32  1  0
 30 33  1  0
 33 34  1  0
 33 35  1  0
 33 36  1  0
 36 37  1  0
 37 38  1  0
 37 39  1  0
 37 40  1  0
 40 41  1  0
 40 42  1  0
 27 43  1  0
 43 44  1  0
 43 45  1  0
 43 46  1  0
 46 47  1  0
 46 48  1  0
 17 49  1  0
 49 50  1  0
 50 51  1  0
 50 52  1  0
 50 53  1  0
 53 54  2  0
 54 55  1  0
 54 56  1  0
 56 57  1  0
 56 58  2  0
 58 59  1  0
 58 60  1  0
 60 61  1  0
 60 62  2  0
 62 63  1  0
 49  4  1  0
 62 53  1  0
 13  8  2  0
 46 20  1  0
 40 28  1  0
M  CHG  3   9  -1  12  -1  14  -1
M  END
>  <UniqueID>  (3) 
3

>  <SMILES>  (3) 
C=c1/c(=C/c2[n-]c(=O)[n-]c2[O-])cc(C(=O)N2CCN(C3CCOCC3)CC2)n1Cc1ccccc1

>  <Energy>  (3) 
164.61950805739784

>  <Genealogy>  (3) 
C=c1c(=Cc2[n-]c(=O)[n-]c2[O-])cc(C(=O)N2CCN(C3CCOCC3)CC2)n1Cc1ccccc1 (protonated)
C=c1/c(=C/c2[n-]c(=O)[n-]c2[O-])cc(C(=O)N2CCN(C3CCOCC3)CC2)n1Cc1ccccc1 (cis-trans isomerization)
C=c1/c(=C/c2[n-]c(=O)[n-]c2[O-])cc(C(=O)N2CCN(C3CCOCC3)CC2)n1Cc1ccccc1 (3D coordinates assigned)
C=c1/c(=C/c2[n-]c(=O)[n-]c2[O-])cc(C(=O)N2CCN(C3CCOCC3)CC2)n1Cc1ccccc1 (nonaromatic ring conformer: 164.61950805739784 kcal/mol)

>  <smiles>  (3) 
C=c1c(=Cc2[nH]c(=O)[nH]c2O)cc(C(=O)N2CCN(C3CCOCC3)CC2)n1Cc1ccccc1

>  <score_type>  (3) 
oracle

>  <origin>  (3) 
adg

>  <m_score__min__energy>  (3) 
-16.98

>  <m_primary>  (3) 
energy

$$$$
3:0
     RDKit          3D

 51 54  0  0  0  0  0  0  0  0999 V2000
   50.6460   22.1590   48.5060 C   0  0  0  0  0  0  0  0  0  0  0  0
   51.2960   20.8550   48.2910 N   0  0  0  0  0  0  0  0  0  0  0  0
   51.6420   20.6370   46.8600 C   0  0  0  0  0  0  0  0  0  0  0  0
   53.1420   20.7990   46.5510 C   0  0  0  0  0  0  0  0  0  0  0  0
   53.7360   21.8010   47.4390 N   0  0  0  0  0  0  0  0  0  0  0  0
   54.3720   22.9860   46.9230 C   0  0  0  0  0  0  0  0  0  0  0  0
   53.7140   23.7990   45.9830 C   0  0  0  0  0  0  0  0  0  0  0  0
   54.3070   24.9820   45.5330 C   0  0  0  0  0  0  0  0  0  0  0  0
   55.5490   25.3860   46.0320 C   0  0  0  0  0  0  0  0  0  0  0  0
   56.0890   26.6490   45.6210 N   0  0  0  0  0  0  0  0  0  0  0  0
   56.9710   27.4770   46.3950 C   0  0  0  0  0  0  0  0  0  0  0  0
   57.5970   26.9600   47.3570 O   0  0  0  0  0  0  0  0  0  0  0  0
   57.1890   28.9110   46.0690 C   0  0  0  0  0  0  0  0  0  0  0  0
   56.3030   29.5940   45.2250 C   0  0  0  0  0  0  0  0  0  0  0  0
   55.1730   28.9640   44.7170 O   0  0  0  0  0  0  0  0  0  0  0  0
   56.5560   30.8780   44.8760 N   0  0  0  0  0  0  0  0  0  0  0  0
   57.6620   31.5310   45.3150 C   0  0  0  0  0  0  0  0  0  0  0  0
   57.8680   32.7120   44.9280 O   0  0  0  0  0  0  0  0  0  0  0  0
   58.5460   30.9030   46.1530 N   0  0  0  0  0  0  0  0  0  0  0  0
   59.7550   31.5730   46.5690 C   0  0  0  0  0  0  0  0  0  0  0  0
   60.9500   30.8480   46.7080 C   0  0  0  0  0  0  0  0  0  0  0  0
   62.1230   31.4930   47.1090 C   0  0  0  0  0  0  0  0  0  0  0  0
   62.1110   32.8660   47.3750 C   0  0  0  0  0  0  0  0  0  0  0  0
   63.2500   33.4910   47.7630 F   0  0  0  0  0  0  0  0  0  0  0  0
   60.9240   33.5940   47.2400 C   0  0  0  0  0  0  0  0  0  0  0  0
   59.7490   32.9520   46.8380 C   0  0  0  0  0  0  0  0  0  0  0  0
   58.3010   29.6170   46.5650 C   0  0  0  0  0  0  0  0  0  0  0  0
   59.0660   29.0690   47.4080 O   0  0  0  0  0  0  0  0  0  0  0  0
   56.2290   24.5550   46.9400 C   0  0  0  0  0  0  0  0  0  0  0  0
   55.6390   23.3720   47.3890 C   0  0  0  0  0  0  0  0  0  0  0  0
   53.6020   21.6110   48.8880 C   0  0  0  0  0  0  0  0  0  0  0  0
   52.4400   20.6540   49.2080 C   0  0  0  0  0  0  0  0  0  0  0  0
   50.5517   22.3481   49.5855 H   0  0  0  0  0  0  0  0  0  0  0  0
   51.2542   22.9521   48.0465 H   0  0  0  0  0  0  0  0  0  0  0  0
   49.6466   22.1507   48.0465 H   0  0  0  0  0  0  0  0  0  0  0  0
   51.3388   19.6169   46.5815 H   0  0  0  0  0  0  0  0  0  0  0  0
   51.1109   21.4071   46.2813 H   0  0  0  0  0  0  0  0  0  0  0  0
   53.6499   19.8347   46.7000 H   0  0  0  0  0  0  0  0  0  0  0  0
   53.2601   21.1285   45.5082 H   0  0  0  0  0  0  0  0  0  0  0  0
   52.7267   23.5021   45.5995 H   0  0  0  0  0  0  0  0  0  0  0  0
   53.7932   25.5992   44.7813 H   0  0  0  0  0  0  0  0  0  0  0  0
   60.9625   29.7679   46.5003 H   0  0  0  0  0  0  0  0  0  0  0  0
   63.0563   30.9206   47.2155 H   0  0  0  0  0  0  0  0  0  0  0  0
   60.9152   34.6736   47.4506 H   0  0  0  0  0  0  0  0  0  0  0  0
   58.8177   33.5278   46.7321 H   0  0  0  0  0  0  0  0  0  0  0  0
   57.2298   24.8382   47.2980 H   0  0  0  0  0  0  0  0  0  0  0  0
   56.1708   22.7375   48.1133 H   0  0  0  0  0  0  0  0  0  0  0  0
   54.5370   21.1883   49.2844 H   0  0  0  0  0  0  0  0  0  0  0  0
   53.3949   22.5857   49.3540 H   0  0  0  0  0  0  0  0  0  0  0  0
   52.7954   19.6174   49.1124 H   0  0  0  0  0  0  0  0  0  0  0  0
   52.0980   20.8610   50.2328 H   0  0  0  0  0  0  0  0  0  0  0  0
  1  2  1  0
  2  3  1  0
  3  4  1  0
  4  5  1  0
  5  6  1  0
  6  7  2  0
  7  8  1  0
  8  9  2  0
  9 10  1  0
 10 11  1  0
 11 12  2  0
 11 13  1  0
 13 14  2  0
 14 15  1  0
 14 16  1  0
 16 17  1  0
 17 18  2  0
 17 19  1  0
 19 20  1  0
 20 21  2  0
 21 22  1  0
 22 23  2  0
 23 24  1  0
 23 25  1  0
 25 26  2  0
 19 27  1  0
 27 28  2  0
  9 29  1  0
 29 30  2  0
  5 31  1  0
 31 32  1  0
 32  2  1  0
 30  6  1  0
 27 13  1  0
 26 20  1  0
  1 33  1  0
  1 34  1  0
  1 35  1  0
  3 36  1  0
  3 37  1  0
  4 38  1  0
  4 39  1  0
  7 40  1  0
  8 41  1  0
 21 42  1  0
 22 43  1  0
 25 44  1  0
 26 45  1  0
 29 46  1  0
 30 47  1  0
 31 48  1  0
 31 49  1  0
 32 50  1  0
 32 51  1  0
M  CHG  3  10  -1  15  -1  16  -1
M  END
>  <UniqueID>  (4) 
4

>  <SMILES>  (4) 
CN1CCN(c2ccc([N-]C(=O)c3c([O-])[n-]c(=O)n(-c4ccc(F)cc4)c3=O)cc2)CC1

>  <Energy>  (4) 
84.54961335092194

>  <Genealogy>  (4) 
CN1CCN(c2ccc([N-]C(=O)c3c([O-])[n-]c(=O)n(-c4ccc(F)cc4)c3=O)cc2)CC1 (protonated)
CN1CCN(c2ccc([N-]C(=O)c3c([O-])[n-]c(=O)n(-c4ccc(F)cc4)c3=O)cc2)CC1 (3D coordinates assigned)
CN1CCN(c2ccc([N-]C(=O)c3c([O-])[n-]c(=O)n(-c4ccc(F)cc4)c3=O)cc2)CC1 (nonaromatic ring conformer: 84.54961335092194 kcal/mol)

>  <smiles>  (4) 
CN1CCN(c2ccc(NC(=O)c3c(O)[nH]c(=O)n(-c4ccc(F)cc4)c3=O)cc2)CC1

>  <score_type>  (4) 
oracle

>  <origin>  (4) 
adg

>  <m_score__min__energy>  (4) 
-12.08

>  <m_primary>  (4) 
energy

$$$$
4:0
     RDKit          3D

 61 64  0  0  0  0  0  0  0  0999 V2000
   65.1110   32.8830   49.7360 C   0  0  0  0  0  0  0  0  0  0  0  0
   63.9060   33.2430   48.9200 C   0  0  0  0  0  0  0  0  0  0  0  0
   63.7600   32.7440   47.6160 C   0  0  0  0  0  0  0  0  0  0  0  0
   62.6160   33.0430   46.8710 C   0  0  0  0  0  0  0  0  0  0  0  0
   61.5950   33.8310   47.4250 C   0  0  0  0  0  0  0  0  0  0  0  0
   60.3680   34.1720   46.6240 C   0  0  0  0  0  0  0  0  0  0  0  0
   59.7890   32.9640   46.0490 N   0  0  0  0  0  0  0  0  0  0  0  0
   58.5940   32.3470   46.5400 C   0  0  0  0  0  0  0  0  0  0  0  0
   57.5000   32.5040   45.9320 O   0  0  0  0  0  0  0  0  0  0  0  0
   58.6440   31.5500   47.8150 C   0  0  0  0  0  0  0  0  0  0  0  0
   58.1340   32.3670   49.0280 C   0  0  0  0  0  0  0  0  0  0  0  0
   59.2930   32.9590   49.8480 C   0  0  0  0  0  0  0  0  0  0  0  0
   60.2420   31.9290   50.3360 N   0  0  0  0  0  0  0  0  0  0  0  0
   59.9640   31.5390   52.0190 S   0  0  0  0  0  0  0  0  0  0  0  0
   60.0260   32.8020   52.8310 O   0  0  0  0  0  0  0  0  0  0  0  0
   61.0440   30.6150   52.5110 O   0  0  0  0  0  0  0  0  0  0  0  0
   58.3920   30.7710   52.2600 C   0  0  0  0  0  0  0  0  0  0  0  0
   57.2140   31.4660   51.9560 C   0  0  0  0  0  0  0  0  0  0  0  0
   55.9690   30.8530   52.1270 C   0  0  0  0  0  0  0  0  0  0  0  0
   55.8910   29.5420   52.6170 C   0  0  0  0  0  0  0  0  0  0  0  0
   54.5770   28.9010   52.7900 C   0  0  0  0  0  0  0  0  0  0  0  0
   54.4820   27.8930   53.5400 O   0  0  0  0  0  0  0  0  0  0  0  0
   53.4090   29.3600   52.0920 N   0  0  0  0  0  0  0  0  0  0  0  0
   52.9040   30.7290   52.1070 C   0  0  0  0  0  0  0  0  0  0  0  0
   52.0230   30.9800   50.9230 C   0  0  0  0  0  0  0  0  0  0  0  0
   51.9610   30.1840   49.8400 N   0  0  0  0  0  0  0  0  0  0  0  0
   51.0840   30.8240   49.0350 C   0  0  0  0  0  0  0  0  0  0  0  0
   50.7490   30.3760   47.9070 O   0  0  0  0  0  0  0  0  0  0  0  0
   50.5980   31.9820   49.5320 N   0  0  0  0  0  0  0  0  0  0  0  0
   51.2080   32.0680   50.7250 C   0  0  0  0  0  0  0  0  0  0  0  0
   51.0220   33.1190   51.6130 O   0  0  0  0  0  0  0  0  0  0  0  0
   57.0700   28.8390   52.9000 C   0  0  0  0  0  0  0  0  0  0  0  0
   58.3130   29.4560   52.7360 C   0  0  0  0  0  0  0  0  0  0  0  0
   60.3010   30.6970   49.5200 C   0  0  0  0  0  0  0  0  0  0  0  0
   60.0680   30.9950   48.0360 C   0  0  0  0  0  0  0  0  0  0  0  0
   61.7360   34.3210   48.7330 C   0  0  0  0  0  0  0  0  0  0  0  0
   62.8800   34.0210   49.4790 C   0  0  0  0  0  0  0  0  0  0  0  0
   64.8648   32.9565   50.8056 H   0  0  0  0  0  0  0  0  0  0  0  0
   65.4191   31.8536   49.5006 H   0  0  0  0  0  0  0  0  0  0  0  0
   65.9333   33.5747   49.5006 H   0  0  0  0  0  0  0  0  0  0  0  0
   64.5494   32.1150   47.1787 H   0  0  0  0  0  0  0  0  0  0  0  0
   62.5152   32.6588   45.8452 H   0  0  0  0  0  0  0  0  0  0  0  0
   59.6277   34.6525   47.2805 H   0  0  0  0  0  0  0  0  0  0  0  0
   60.6499   34.8567   45.8105 H   0  0  0  0  0  0  0  0  0  0  0  0
   57.9585   30.6952   47.7185 H   0  0  0  0  0  0  0  0  0  0  0  0
   57.5007   33.1888   48.6625 H   0  0  0  0  0  0  0  0  0  0  0  0
   57.5653   31.6889   49.6813 H   0  0  0  0  0  0  0  0  0  0  0  0
   59.8430   33.6706   49.2147 H   0  0  0  0  0  0  0  0  0  0  0  0
   58.8556   33.4485   50.7307 H   0  0  0  0  0  0  0  0  0  0  0  0
   57.2689   32.4987   51.5811 H   0  0  0  0  0  0  0  0  0  0  0  0
   55.0486   31.4008   51.8764 H   0  0  0  0  0  0  0  0  0  0  0  0
   52.3255   30.8906   53.0285 H   0  0  0  0  0  0  0  0  0  0  0  0
   53.7575   31.4217   52.0664 H   0  0  0  0  0  0  0  0  0  0  0  0
   57.0167   27.7983   53.2523 H   0  0  0  0  0  0  0  0  0  0  0  0
   59.2337   28.9065   52.9818 H   0  0  0  0  0  0  0  0  0  0  0  0
   61.2922   30.2355   49.6406 H   0  0  0  0  0  0  0  0  0  0  0  0
   59.5079   30.0168   49.8641 H   0  0  0  0  0  0  0  0  0  0  0  0
   60.8036   31.7388   47.6959 H   0  0  0  0  0  0  0  0  0  0  0  0
   60.1803   30.0627   47.4631 H   0  0  0  0  0  0  0  0  0  0  0  0
   60.9431   34.9437   49.1730 H   0  0  0  0  0  0  0  0  0  0  0  0
   62.9764   34.3963   50.5085 H   0  0  0  0  0  0  0  0  0  0  0  0
  1  2  1  0
  2  3  2  0
  3  4  1  0
  4  5  2  0
  5  6  1  0
  6  7  1  0
  7  8  1  0
  8  9  2  0
  8 10  1  0
 10 11  1  0
 11 12  1  0
 12 13  1  0
 13 14  1  0
 14 15  2  0
 14 16  2  0
 14 17  1  0
 17 18  2  0
 18 19  1  0
 19 20  2  0
 20 21  1  0
 21 22  2  0
 21 23  1  0
 23 24  1  0
 24 25  1  0
 25 26  1  0
 26 27  1  0
 27 28  2  0
 27 29  1  0
 29 30  1  0
 30 31  1  0
 20 32  1  0
 32 33  2  0
 13 34  1  0
 34 35  1  0
  5 36  1  0
 36 37  2  0
 37  2  1  0
 35 10  1  0
 33 17  1  0
 30 25  2  0
  1 38  1  0
  1 39  1  0
  1 40  1  0
  3 41  1  0
  4 42  1  0
  6 43  1  0
  6 44  1  0
 10 45  1  0
 11 46  1  0
 11 47  1  0
 12 48  1  0
 12 49  1  0
 18 50  1  0
 19 51  1  0
 24 52  1  0
 24 53  1  0
 32 54  1  0
 33 55  1  0
 34 56  1  0
 34 57  1  0
 35 58  1  0
 35 59  1  0
 36 60  1  0
 37 61  1  0
M  CHG  5   7  -1  23  -1  26  -1  29  -1  31  -1
M  END
>  <UniqueID>  (5) 
5

>  <SMILES>  (5) 
Cc1ccc(C[N-]C(=O)C2CCN(S(=O)(=O)c3ccc(C(=O)[N-]Cc4[n-]c(=O)[n-]c4[O-])cc3)CC2)cc1

>  <Energy>  (5) 
99.38597691101126

>  <Genealogy>  (5) 
Cc1ccc(C[N-]C(=O)C2CCN(S(=O)(=O)c3ccc(C(=O)[N-]Cc4[n-]c(=O)[n-]c4[O-])cc3)CC2)cc1 (protonated)
Cc1ccc(C[N-]C(=O)C2CCN(S(=O)(=O)c3ccc(C(=O)[N-]Cc4[n-]c(=O)[n-]c4[O-])cc3)CC2)cc1 (3D coordinates assigned)
Cc1ccc(C[N-]C(=O)C2CCN(S(=O)(=O)c3ccc(C(=O)[N-]Cc4[n-]c(=O)[n-]c4[O-])cc3)CC2)cc1 (nonaromatic ring conformer: 99.38597691101126 kcal/mol)

>  <smiles>  (5) 
Cc1ccc(CNC(=O)C2CCN(S(=O)(=O)c3ccc(C(=O)NCc4[nH]c(=O)[nH]c4O)cc3)CC2)cc1

>  <score_type>  (5) 
oracle

>  <origin>  (5) 
adg

>  <m_score__min__energy>  (5) 
-20.859999999999999

>  <m_primary>  (5) 
energy

$$$$
5:0
     RDKit          3D

 58 61  0  0  0  0  0  0  0  0999 V2000
   52.9740   27.5310   53.3040 C   0  0  0  0  0  0  0  0  0  0  0  0
   53.6890   28.6670   53.3380 C   0  0  0  0  0  0  0  0  0  0  0  0
   53.1920   29.9790   53.2500 C   0  0  0  0  0  0  0  0  0  0  0  0
   51.9790   30.4450   52.8950 C   0  0  0  0  0  0  0  0  0  0  0  0
   51.5680   30.8150   51.5310 C   0  0  0  0  0  0  0  0  0  0  0  0
   51.7770   30.0640   50.4350 N   0  0  0  0  0  0  0  0  0  0  0  0
   51.3310   30.8490   49.4300 C   0  0  0  0  0  0  0  0  0  0  0  0
   51.3430   30.4810   48.2270 O   0  0  0  0  0  0  0  0  0  0  0  0
   50.8790   32.0620   49.8150 N   0  0  0  0  0  0  0  0  0  0  0  0
   51.0500   32.0280   51.1470 C   0  0  0  0  0  0  0  0  0  0  0  0
   50.7370   33.0830   51.9930 O   0  0  0  0  0  0  0  0  0  0  0  0
   54.2470   30.8130   53.5770 C   0  0  0  0  0  0  0  0  0  0  0  0
   55.3530   30.0070   53.7620 C   0  0  0  0  0  0  0  0  0  0  0  0
   56.7040   30.5230   54.0460 C   0  0  0  0  0  0  0  0  0  0  0  0
   57.1220   30.5030   55.2370 O   0  0  0  0  0  0  0  0  0  0  0  0
   57.5350   31.0660   53.0020 N   0  0  0  0  0  0  0  0  0  0  0  0
   58.9930   31.1010   53.1770 C   0  0  0  0  0  0  0  0  0  0  0  0
   59.6950   30.9180   51.8300 C   0  0  0  0  0  0  0  0  0  0  0  0
   59.1090   31.8210   50.8360 N   0  0  0  0  0  0  0  0  0  0  0  0
   59.9490   32.4100   49.8290 C   0  0  0  0  0  0  0  0  0  0  0  0
   60.8620   31.7210   49.2970 O   0  0  0  0  0  0  0  0  0  0  0  0
   59.8300   33.8680   49.4780 C   0  0  0  0  0  0  0  0  0  0  0  0
   60.1040   34.1130   47.9880 C   0  0  0  0  0  0  0  0  0  0  0  0
   59.1520   33.3410   47.1090 C   0  0  0  0  0  0  0  0  0  0  0  0
   59.4820   32.0480   46.6740 C   0  0  0  0  0  0  0  0  0  0  0  0
   58.6290   31.3530   45.8100 C   0  0  0  0  0  0  0  0  0  0  0  0
   57.4420   31.9450   45.3700 C   0  0  0  0  0  0  0  0  0  0  0  0
   56.6090   31.2480   44.4980 O   0  0  0  0  0  0  0  0  0  0  0  0
   57.1050   33.2350   45.8050 C   0  0  0  0  0  0  0  0  0  0  0  0
   57.9560   33.9290   46.6700 C   0  0  0  0  0  0  0  0  0  0  0  0
   57.6570   31.7620   50.6430 C   0  0  0  0  0  0  0  0  0  0  0  0
   56.9460   31.9480   51.9830 C   0  0  0  0  0  0  0  0  0  0  0  0
   55.0170   28.7020   53.6220 N   0  0  0  0  0  0  0  0  0  0  0  0
   55.8820   27.5430   53.8750 C   0  0  0  0  0  0  0  0  0  0  0  0
   53.4823   26.5587   53.3827 H   0  0  0  0  0  0  0  0  0  0  0  0
   51.8800   27.5727   53.1975 H   0  0  0  0  0  0  0  0  0  0  0  0
   51.2310   30.5588   53.6935 H   0  0  0  0  0  0  0  0  0  0  0  0
   54.2114   31.9084   53.6715 H   0  0  0  0  0  0  0  0  0  0  0  0
   59.2833   32.0702   53.6086 H   0  0  0  0  0  0  0  0  0  0  0  0
   59.2919   30.2837   53.8498 H   0  0  0  0  0  0  0  0  0  0  0  0
   60.7655   31.1448   51.9427 H   0  0  0  0  0  0  0  0  0  0  0  0
   59.5688   29.8782   51.4939 H   0  0  0  0  0  0  0  0  0  0  0  0
   58.8120   34.2106   49.7151 H   0  0  0  0  0  0  0  0  0  0  0  0
   60.5772   34.4253   50.0621 H   0  0  0  0  0  0  0  0  0  0  0  0
   59.9919   35.1868   47.7772 H   0  0  0  0  0  0  0  0  0  0  0  0
   61.1261   33.7714   47.7677 H   0  0  0  0  0  0  0  0  0  0  0  0
   60.4167   31.5784   47.0144 H   0  0  0  0  0  0  0  0  0  0  0  0
   58.8931   30.3386   45.4763 H   0  0  0  0  0  0  0  0  0  0  0  0
   56.8530   31.1200   43.5230 H   0  0  0  0  0  0  0  0  0  0  0  0
   56.1689   33.7018   45.4647 H   0  0  0  0  0  0  0  0  0  0  0  0
   57.6869   34.9406   47.0080 H   0  0  0  0  0  0  0  0  0  0  0  0
   57.3482   32.5605   49.9523 H   0  0  0  0  0  0  0  0  0  0  0  0
   57.3871   30.7819   50.2229 H   0  0  0  0  0  0  0  0  0  0  0  0
   57.0490   32.9945   52.3059 H   0  0  0  0  0  0  0  0  0  0  0  0
   55.8828   31.6932   51.8615 H   0  0  0  0  0  0  0  0  0  0  0  0
   55.9911   27.3968   54.9598 H   0  0  0  0  0  0  0  0  0  0  0  0
   55.4317   26.6447   53.4274 H   0  0  0  0  0  0  0  0  0  0  0  0
   56.8713   27.7191   53.4274 H   0  0  0  0  0  0  0  0  0  0  0  0
  1  2  2  0
  2  3  1  0
  3  4  2  3
  4  5  1  0
  5  6  1  0
  6  7  1  0
  7  8  2  0
  7  9  1  0
  9 10  1  0
 10 11  1  0
  3 12  1  0
 12 13  2  0
 13 14  1  0
 14 15  2  0
 14 16  1  0
 16 17  1  0
 17 18  1  0
 18 19  1  0
 19 20  1  0
 20 21  2  0
 20 22  1  0
 22 23  1  0
 23 24  1  0
 24 25  2  0
 25 26  1  0
 26 27  2  0
 27 28  1  0
 27 29  1  0
 29 30  2  0
 19 31  1  0
 31 32  1  0
 13 33  1  0
 33 34  1  0
 33  2  1  0
 10  5  2  0
 32 16  1  0
 30 24  1  0
  1 35  1  0
  1 36  1  0
  4 37  1  0
 12 38  1  0
 17 39  1  0
 17 40  1  0
 18 41  1  0
 18 42  1  0
 22 43  1  0
 22 44  1  0
 23 45  1  0
 23 46  1  0
 25 47  1  0
 26 48  1  0
 28 49  1  0
 29 50  1  0
 30 51  1  0
 31 52  1  0
 31 53  1  0
 32 54  1  0
 32 55  1  0
 34 56  1  0
 34 57  1  0
 34 58  1  0
M  CHG  3   6  -1   9  -1  11  -1
M  END
>  <UniqueID>  (6) 
6

>  <SMILES>  (6) 
C=c1c(=Cc2[n-]c(=O)[n-]c2[O-])cc(C(=O)N2CCN(C(=O)CCc3ccc(O)cc3)CC2)n1C

>  <Energy>  (6) 
133.71880407031819

>  <Genealogy>  (6) 
C=c1c(=Cc2[n-]c(=O)[n-]c2[O-])cc(C(=O)N2CCN(C(=O)CCc3ccc(O)cc3)CC2)n1C (protonated)
C=c1c(=Cc2[n-]c(=O)[n-]c2[O-])cc(C(=O)N2CCN(C(=O)CCc3ccc(O)cc3)CC2)n1C (3D coordinates assigned)
C=c1c(=Cc2[n-]c(=O)[n-]c2[O-])cc(C(=O)N2CCN(C(=O)CCc3ccc(O)cc3)CC2)n1C (nonaromatic ring conformer: 133.71880407031819 kcal/mol)

>  <smiles>  (6) 
C=c1c(=Cc2[nH]c(=O)[nH]c2O)cc(C(=O)N2CCN(C(=O)CCc3ccc(O)cc3)CC2)n1C

>  <score_type>  (6) 
oracle

>  <origin>  (6) 
adg

>  <m_score__min__energy>  (6) 
-17.68

>  <m_primary>  (6) 
energy

$$$$
6:0
     RDKit          3D

 47 50  0  0  0  0  0  0  0  0999 V2000
   52.5522   28.5835   52.9388 H   0  0  0  0  0  0  0  0  0  0  0  0
   53.6100   28.3270   53.0980 C   0  0  0  0  0  0  0  0  0  0  0  0
   53.8906   27.3023   53.3832 H   0  0  0  0  0  0  0  0  0  0  0  0
   54.5600   29.2660   52.9440 C   0  0  0  0  0  0  0  0  0  0  0  0
   55.8950   28.8750   53.1620 C   0  0  0  0  0  0  0  0  0  0  0  0
   56.1046   27.9042   53.6348 H   0  0  0  0  0  0  0  0  0  0  0  0
   56.9550   29.6990   52.7880 C   0  0  0  0  0  0  0  0  0  0  0  0
   57.9896   29.3830   52.9877 H   0  0  0  0  0  0  0  0  0  0  0  0
   56.7120   30.9240   52.1610 C   0  0  0  0  0  0  0  0  0  0  0  0
   57.8430   31.7790   51.7390 C   0  0  0  0  0  0  0  0  0  0  0  0
   58.3790   32.5540   52.5780 O   0  0  0  0  0  0  0  0  0  0  0  0
   58.3530   31.7350   50.3940 N   0  0  0  0  0  0  0  0  0  0  0  0
   58.6650   30.4340   49.7800 C   0  0  0  0  0  0  0  0  0  0  0  0
   59.2794   29.8483   50.4796 H   0  0  0  0  0  0  0  0  0  0  0  0
   57.7160   29.9218   49.5631 H   0  0  0  0  0  0  0  0  0  0  0  0
   59.4320   30.5960   48.4610 C   0  0  0  0  0  0  0  0  0  0  0  0
   59.8718   29.6287   48.1766 H   0  0  0  0  0  0  0  0  0  0  0  0
   58.7339   30.9381   47.6828 H   0  0  0  0  0  0  0  0  0  0  0  0
   60.5050   31.5910   48.6090 N   0  0  0  0  0  0  0  0  0  0  0  0
   61.7730   31.3880   47.9490 C   0  0  0  0  0  0  0  0  0  0  0  0
   61.8820   30.5200   47.0420 O   0  0  0  0  0  0  0  0  0  0  0  0
   62.9680   32.2370   48.2880 C   0  0  0  0  0  0  0  0  0  0  0  0
   63.2039   31.7360   49.2384 H   0  0  0  0  0  0  0  0  0  0  0  0
   62.8810   33.6870   47.8290 C   0  0  0  0  0  0  0  0  0  0  0  0
   61.9575   34.0619   47.3635 H   0  0  0  0  0  0  0  0  0  0  0  0
   63.0367   34.6648   48.3083 H   0  0  0  0  0  0  0  0  0  0  0  0
   63.7650   32.7070   47.0790 C   0  0  0  0  0  0  0  0  0  0  0  0
   63.4818   32.3723   46.0701 H   0  0  0  0  0  0  0  0  0  0  0  0
   64.8261   32.6816   46.7902 H   0  0  0  0  0  0  0  0  0  0  0  0
   60.2410   32.8580   49.3110 C   0  0  0  0  0  0  0  0  0  0  0  0
   60.8723   32.9066   50.2105 H   0  0  0  0  0  0  0  0  0  0  0  0
   60.4716   33.6869   48.6257 H   0  0  0  0  0  0  0  0  0  0  0  0
   58.7730   32.9730   49.7270 C   0  0  0  0  0  0  0  0  0  0  0  0
   58.6535   33.8202   50.4183 H   0  0  0  0  0  0  0  0  0  0  0  0
   58.1515   33.1364   48.8342 H   0  0  0  0  0  0  0  0  0  0  0  0
   55.3890   31.3580   51.9960 C   0  0  0  0  0  0  0  0  0  0  0  0
   55.1973   32.3213   51.5007 H   0  0  0  0  0  0  0  0  0  0  0  0
   54.2970   30.5870   52.4510 C   0  0  0  0  0  0  0  0  0  0  0  0
   53.0740   31.1760   52.4090 C   0  0  0  0  0  0  0  0  0  0  0  0
   52.7205   31.6600   53.3314 H   0  0  0  0  0  0  0  0  0  0  0  0
   52.1760   31.2260   51.2390 C   0  0  0  0  0  0  0  0  0  0  0  0
   52.2180   30.3350   50.2340 N   0  0  0  0  0  0  0  0  0  0  0  0
   51.3210   30.8180   49.3480 C   0  0  0  0  0  0  0  0  0  0  0  0
   51.0630   30.2390   48.2610 O   0  0  0  0  0  0  0  0  0  0  0  0
   50.7310   31.9770   49.7130 N   0  0  0  0  0  0  0  0  0  0  0  0
   51.2910   32.2280   50.9050 C   0  0  0  0  0  0  0  0  0  0  0  0
   51.0240   33.3690   51.6560 O   0  0  0  0  0  0  0  0  0  0  0  0
  1  2  1  0
  2  3  1  0
  2  4  2  0
  4  5  1  0
  5  6  1  0
  5  7  2  0
  7  8  1  0
  7  9  1  0
  9 10  1  0
 10 11  2  0
 10 12  1  0
 12 13  1  0
 13 14  1  0
 13 15  1  0
 13 16  1  0
 16 17  1  0
 16 18  1  0
 16 19  1  0
 19 20  1  0
 20 21  2  0
 20 22  1  0
 22 23  1  0
 22 24  1  0
 24 25  1  0
 24 26  1  0
 24 27  1  0
 27 28  1  0
 27 29  1  0
 19 30  1  0
 30 31  1  0
 30 32  1  0
 30 33  1  0
 33 34  1  0
 33 35  1  0
  9 36  2  0
 36 37  1  0
 36 38  1  0
 38 39  2  0
 39 40  1  0
 39 41  1  0
 41 42  1  0
 42 43  1  0
 43 44  2  0
 43 45  1  0
 45 46  1  0
 46 47  1  0
 38  4  1  0
 46 41  2  0
 33 12  1  0
 27 22  1  0
M  CHG  3  42  -1  45  -1  47  -1
M  END
>  <UniqueID>  (7) 
7

>  <SMILES>  (7) 
C=c1ccc(C(=O)N2CCN(C(=O)C3CC3)CC2)c/c1=C/c1[n-]c(=O)[n-]c1[O-]

>  <Energy>  (7) 
368.8459815400106

>  <Genealogy>  (7) 
C=c1ccc(C(=O)N2CCN(C(=O)C3CC3)CC2)cc1=Cc1[n-]c(=O)[n-]c1[O-] (protonated)
C=c1ccc(C(=O)N2CCN(C(=O)C3CC3)CC2)c/c1=C/c1[n-]c(=O)[n-]c1[O-] (cis-trans isomerization)
C=c1ccc(C(=O)N2CCN(C(=O)C3CC3)CC2)c/c1=C/c1[n-]c(=O)[n-]c1[O-] (3D coordinates assigned)
C=c1ccc(C(=O)N2CCN(C(=O)C3CC3)CC2)c/c1=C/c1[n-]c(=O)[n-]c1[O-] (nonaromatic ring conformer: 368.8459815400106 kcal/mol)

>  <smiles>  (7) 
C=c1ccc(C(=O)N2CCN(C(=O)C3CC3)CC2)cc1=Cc1[nH]c(=O)[nH]c1O

>  <score_type>  (7) 
oracle

>  <origin>  (7) 
adg

>  <m_score__min__energy>  (7) 
-17.649999999999999

>  <m_primary>  (7) 
energy

$$$$
7:0
     RDKit          3D

 37 39  0  0  0  0  0  0  0  0999 V2000
   55.8570   24.2760   46.3560 C   0  0  0  0  0  0  0  0  0  0  0  0
   56.0600   25.6220   46.7440 O   0  0  0  0  0  0  0  0  0  0  0  0
   57.0190   26.4020   46.1160 C   0  0  0  0  0  0  0  0  0  0  0  0
   58.3450   26.0440   46.0220 C   0  0  0  0  0  0  0  0  0  0  0  0
   59.2760   26.8270   45.3990 C   0  0  0  0  0  0  0  0  0  0  0  0
   58.8360   28.0290   44.8460 C   0  0  0  0  0  0  0  0  0  0  0  0
   57.5030   28.4160   44.9250 C   0  0  0  0  0  0  0  0  0  0  0  0
   57.0470   29.9420   44.2010 S   0  0  0  0  0  0  0  0  0  0  0  0
   55.7780   30.4650   44.7440 O   0  0  0  0  0  0  0  0  0  0  0  0
   56.9290   29.6520   42.7090 O   0  0  0  0  0  0  0  0  0  0  0  0
   58.3010   31.1260   44.4860 N   0  0  0  0  0  0  0  0  0  0  0  0
   58.6080   31.5550   45.8030 C   0  0  0  0  0  0  0  0  0  0  0  0
   58.6210   30.6510   46.8730 C   0  0  0  0  0  0  0  0  0  0  0  0
   58.8920   31.0570   48.1650 C   0  0  0  0  0  0  0  0  0  0  0  0
   59.1630   32.3710   48.4710 C   0  0  0  0  0  0  0  0  0  0  0  0
   59.1530   33.2720   47.4320 C   0  0  0  0  0  0  0  0  0  0  0  0
   59.4320   34.5890   47.7460 C   0  0  0  0  0  0  0  0  0  0  0  0
   59.6770   34.9270   48.9530 O   0  0  0  0  0  0  0  0  0  0  0  0
   59.4380   35.4950   46.7520 N   0  0  0  0  0  0  0  0  0  0  0  0
   59.1820   35.1110   45.5130 N   0  0  0  0  0  0  0  0  0  0  0  0
   58.9050   33.8400   45.1700 C   0  0  0  0  0  0  0  0  0  0  0  0
   58.6820   33.6170   43.9580 O   0  0  0  0  0  0  0  0  0  0  0  0
   58.8820   32.8640   46.1380 C   0  0  0  0  0  0  0  0  0  0  0  0
   56.5870   27.5990   45.5640 C   0  0  0  0  0  0  0  0  0  0  0  0
   55.7620   23.6462   47.2529 H   0  0  0  0  0  0  0  0  0  0  0  0
   54.9375   24.2018   45.7568 H   0  0  0  0  0  0  0  0  0  0  0  0
   56.7137   23.9339   45.7568 H   0  0  0  0  0  0  0  0  0  0  0  0
   58.6678   25.0906   46.4656 H   0  0  0  0  0  0  0  0  0  0  0  0
   60.3307   26.5210   45.3363 H   0  0  0  0  0  0  0  0  0  0  0  0
   59.5581   28.6843   44.3370 H   0  0  0  0  0  0  0  0  0  0  0  0
   58.7640   31.4820   43.6230 H   0  0  0  0  0  0  0  0  0  0  0  0
   58.4097   29.5891   46.6790 H   0  0  0  0  0  0  0  0  0  0  0  0
   58.8912   30.3093   48.9718 H   0  0  0  0  0  0  0  0  0  0  0  0
   59.3784   32.6871   49.5023 H   0  0  0  0  0  0  0  0  0  0  0  0
   59.6460   36.5120   46.9400 H   0  0  0  0  0  0  0  0  0  0  0  0
   59.2000   35.8670   44.7690 H   0  0  0  0  0  0  0  0  0  0  0  0
   55.5298   27.8950   45.6333 H   0  0  0  0  0  0  0  0  0  0  0  0
  1  2  1  0
  2  3  1  0
  3  4  2  0
  4  5  1  0
  5  6  2  0
  6  7  1  0
  7  8  1  0
  8  9  2  0
  8 10  2  0
  8 11  1  0
 11 12  1  0
 12 13  2  0
 13 14  1  0
 14 15  2  0
 15 16  1  0
 16 17  1  0
 17 18  2  0
 17 19  1  0
 19 20  1  0
 20 21  1  0
 21 22  2  0
 21 23  1  0
  7 24  2  0
 24  3  1  0
 23 12  1  0
 23 16  2  0
  1 25  1  0
  1 26  1  0
  1 27  1  0
  4 28  1  0
  5 29  1  0
  6 30  1  0
 11 31  1  0
 13 32  1  0
 14 33  1  0
 15 34  1  0
 19 35  1  0
 20 36  1  0
 24 37  1  0
M  END
>  <smiles>  (8) 
COc1cccc(S(=O)(=O)Nc2cccc3c(=O)[nH][nH]c(=O)c23)c1

>  <score_type>  (8) 
oracle

>  <origin>  (8) 
adg

>  <m_score__min__energy>  (8) 
-7.9000000000000004

>  <m_primary>  (8) 
energy

$$$$
8:0
     RDKit          3D

 45 46  0  0  0  0  0  0  0  0999 V2000
   57.4320   25.3650   44.6820 C   0  0  0  0  0  0  0  0  0  0  0  0
   56.8710   26.3200   46.0760 S   0  0  0  0  0  0  0  0  0  0  0  0
   57.2480   25.5830   47.3310 O   0  0  0  0  0  0  0  0  0  0  0  0
   55.3750   26.4580   46.0160 O   0  0  0  0  0  0  0  0  0  0  0  0
   57.6230   27.9010   46.0550 N   0  0  0  0  0  0  0  0  0  0  0  0
   59.0370   27.8200   46.4920 C   0  0  0  0  0  0  0  0  0  0  0  0
   59.1640   28.3080   47.9380 C   0  0  0  0  0  0  0  0  0  0  0  0
   59.7740   29.6850   48.0000 C   0  0  0  0  0  0  0  0  0  0  0  0
   60.7150   30.0890   47.0390 C   0  0  0  0  0  0  0  0  0  0  0  0
   61.3190   31.3470   47.1280 C   0  0  0  0  0  0  0  0  0  0  0  0
   60.9940   32.2060   48.1800 C   0  0  0  0  0  0  0  0  0  0  0  0
   60.0650   31.8090   49.1460 C   0  0  0  0  0  0  0  0  0  0  0  0
   59.4580   30.5520   49.0590 C   0  0  0  0  0  0  0  0  0  0  0  0
   57.4930   28.5260   44.7250 C   0  0  0  0  0  0  0  0  0  0  0  0
   56.3270   29.4630   44.6950 C   0  0  0  0  0  0  0  0  0  0  0  0
   55.1660   29.0130   44.4970 O   0  0  0  0  0  0  0  0  0  0  0  0
   56.5450   30.8690   44.8590 N   0  0  0  0  0  0  0  0  0  0  0  0
   57.5970   31.6100   44.1740 C   0  0  0  0  0  0  0  0  0  0  0  0
   58.0790   32.7420   45.0380 C   0  0  0  0  0  0  0  0  0  0  0  0
   58.8840   33.7600   44.5000 C   0  0  0  0  0  0  0  0  0  0  0  0
   59.3550   34.7910   45.3180 C   0  0  0  0  0  0  0  0  0  0  0  0
   59.0330   34.8100   46.6780 C   0  0  0  0  0  0  0  0  0  0  0  0
   58.2380   33.7970   47.2220 C   0  0  0  0  0  0  0  0  0  0  0  0
   57.7650   32.7650   46.4070 C   0  0  0  0  0  0  0  0  0  0  0  0
   57.9588   24.4682   45.0401 H   0  0  0  0  0  0  0  0  0  0  0  0
   56.5675   25.0635   44.0723 H   0  0  0  0  0  0  0  0  0  0  0  0
   58.1163   25.9733   44.0723 H   0  0  0  0  0  0  0  0  0  0  0  0
   59.3795   26.7767   46.4277 H   0  0  0  0  0  0  0  0  0  0  0  0
   59.6547   28.4548   45.8398 H   0  0  0  0  0  0  0  0  0  0  0  0
   58.1639   28.3383   48.3951 H   0  0  0  0  0  0  0  0  0  0  0  0
   59.8200   27.6129   48.4825 H   0  0  0  0  0  0  0  0  0  0  0  0
   60.9782   29.4127   46.2124 H   0  0  0  0  0  0  0  0  0  0  0  0
   62.0507   31.6602   46.3688 H   0  0  0  0  0  0  0  0  0  0  0  0
   61.4694   33.1956   48.2485 H   0  0  0  0  0  0  0  0  0  0  0  0
   59.8111   32.4857   49.9752 H   0  0  0  0  0  0  0  0  0  0  0  0
   58.7302   30.2411   49.8230 H   0  0  0  0  0  0  0  0  0  0  0  0
   58.4123   29.0855   44.4971 H   0  0  0  0  0  0  0  0  0  0  0  0
   57.3326   27.7363   43.9763 H   0  0  0  0  0  0  0  0  0  0  0  0
   58.4373   30.9335   43.9587 H   0  0  0  0  0  0  0  0  0  0  0  0
   57.1958   32.0196   43.2352 H   0  0  0  0  0  0  0  0  0  0  0  0
   59.1445   33.7457   43.4314 H   0  0  0  0  0  0  0  0  0  0  0  0
   59.9802   35.5888   44.8906 H   0  0  0  0  0  0  0  0  0  0  0  0
   59.4051   35.6219   47.3201 H   0  0  0  0  0  0  0  0  0  0  0  0
   57.9846   33.8122   48.2923 H   0  0  0  0  0  0  0  0  0  0  0  0
   57.1438   31.9669   46.8396 H   0  0  0  0  0  0  0  0  0  0  0  0
  1  2  1  0
  2  3  2  0
  2  4  2  0
  2  5  1  0
  5  6  1  0
  6  7  1  0
  7  8  1  0
  8  9  2  0
  9 10  1  0
 10 11  2  0
 11 12  1  0
 12 13  2  0
  5 14  1  0
 14 15  1  0
 15 16  2  0
 15 17  1  0
 17 18  1  0
 18 19  1  0
 19 20  2  0
 20 21  1  0
 21 22  2  0
 22 23  1  0
 23 24  2  0
 13  8  1  0
 24 19  1  0
  1 25  1  0
  1 26  1  0
  1 27  1  0
  6 28  1  0
  6 29  1  0
  7 30  1  0
  7 31  1  0
  9 32  1  0
 10 33  1  0
 11 34  1  0
 12 35  1  0
 13 36  1  0
 14 37  1  0
 14 38  1  0
 18 39  1  0
 18 40  1  0
 20 41  1  0
 21 42  1  0
 22 43  1  0
 23 44  1  0
 24 45  1  0
M  CHG  1  17  -1
M  END
>  <UniqueID>  (9) 
8

>  <SMILES>  (9) 
CS(=O)(=O)N(CCc1ccccc1)CC(=O)[N-]Cc1ccccc1

>  <Energy>  (9) 
33.97626933378927

>  <Genealogy>  (9) 
CS(=O)(=O)N(CCc1ccccc1)CC(=O)[N-]Cc1ccccc1 (protonated)
CS(=O)(=O)N(CCc1ccccc1)CC(=O)[N-]Cc1ccccc1 (3D coordinates assigned)
CS(=O)(=O)N(CCc1ccccc1)CC(=O)[N-]Cc1ccccc1 (optimized conformer: 33.97626933378927 kcal/mol)

>  <smiles>  (9) 
CS(=O)(=O)N(CCc1ccccc1)CC(=O)NCc1ccccc1

>  <score_type>  (9) 
oracle

>  <origin>  (9) 
adg

>  <m_score__min__energy>  (9) 
-10.27

>  <m_primary>  (9) 
energy

$$$$
9:0
     RDKit          3D

 62 66  0  0  0  0  0  0  0  0999 V2000
   60.1073   23.4083   45.8579 H   0  0  0  0  0  0  0  0  0  0  0  0
   59.1890   23.9980   45.7200 C   0  0  0  0  0  0  0  0  0  0  0  0
   59.0500   25.2620   46.4820 C   0  0  0  0  0  0  0  0  0  0  0  0
   58.5860   25.2250   47.6550 O   0  0  0  0  0  0  0  0  0  0  0  0
   59.3710   26.5470   45.9220 N   0  0  0  0  0  0  0  0  0  0  0  0
   58.5460   27.4830   45.5520 C   0  0  0  0  0  0  0  0  0  0  0  0
   57.4320   27.8460   46.2320 N   0  0  0  0  0  0  0  0  0  0  0  0
   56.7630   28.8490   45.6020 C   0  0  0  0  0  0  0  0  0  0  0  0
   55.8398   29.2933   46.0023 H   0  0  0  0  0  0  0  0  0  0  0  0
   57.3450   29.2660   44.4080 C   0  0  0  0  0  0  0  0  0  0  0  0
   56.6650   30.4510   43.2550 S   0  0  0  0  0  0  0  0  0  0  0  0
   57.6260   31.7850   43.9590 C   0  0  0  0  0  0  0  0  0  0  0  0
   57.8650   32.0080   45.6040 S   0  0  0  0  0  0  0  0  0  0  0  0
   58.6630   33.4820   45.4540 C   0  0  0  0  0  0  0  0  0  0  0  0
   59.1300   34.2900   46.5840 C   0  0  0  0  0  0  0  0  0  0  0  0
   58.3250   34.6680   47.4760 O   0  0  0  0  0  0  0  0  0  0  0  0
   60.5040   34.6810   46.6400 N   0  0  0  0  0  0  0  0  0  0  0  0
   61.5680   33.8740   47.1560 C   0  0  0  0  0  0  0  0  0  0  0  0
   62.8050   33.8840   46.4980 C   0  0  0  0  0  0  0  0  0  0  0  0
   62.9664   34.5585   45.6442 H   0  0  0  0  0  0  0  0  0  0  0  0
   63.8340   33.0400   46.9230 C   0  0  0  0  0  0  0  0  0  0  0  0
   64.8133   33.0726   46.4232 H   0  0  0  0  0  0  0  0  0  0  0  0
   63.6200   32.1540   47.9830 C   0  0  0  0  0  0  0  0  0  0  0  0
   64.4306   31.4860   48.3097 H   0  0  0  0  0  0  0  0  0  0  0  0
   62.3740   32.1120   48.6340 C   0  0  0  0  0  0  0  0  0  0  0  0
   62.0730   30.9210   49.9020 S   0  0  0  0  0  0  0  0  0  0  0  0
   63.3880   30.4670   50.4680 O   0  0  0  0  0  0  0  0  0  0  0  0
   61.2980   31.5730   51.0140 O   0  0  0  0  0  0  0  0  0  0  0  0
   61.1860   29.5270   49.3160 N   0  0  0  0  0  0  0  0  0  0  0  0
   60.1230   29.0870   50.2490 C   0  0  0  0  0  0  0  0  0  0  0  0
   60.1632   27.9911   50.3348 H   0  0  0  0  0  0  0  0  0  0  0  0
   60.3068   29.5809   51.2145 H   0  0  0  0  0  0  0  0  0  0  0  0
   58.7140   29.4910   49.7860 C   0  0  0  0  0  0  0  0  0  0  0  0
   58.3051   28.7024   49.1371 H   0  0  0  0  0  0  0  0  0  0  0  0
   58.0712   29.6232   50.6688 H   0  0  0  0  0  0  0  0  0  0  0  0
   58.7640   30.7040   49.0690 O   0  0  0  0  0  0  0  0  0  0  0  0
   59.3940   30.4910   47.8190 C   0  0  0  0  0  0  0  0  0  0  0  0
   58.7035   29.9304   47.1717 H   0  0  0  0  0  0  0  0  0  0  0  0
   59.6399   31.4808   47.4068 H   0  0  0  0  0  0  0  0  0  0  0  0
   60.7220   29.6970   47.9250 C   0  0  0  0  0  0  0  0  0  0  0  0
   60.5708   28.7014   47.4823 H   0  0  0  0  0  0  0  0  0  0  0  0
   61.4919   30.2730   47.3907 H   0  0  0  0  0  0  0  0  0  0  0  0
   61.3590   32.9950   48.2360 C   0  0  0  0  0  0  0  0  0  0  0  0
   60.3969   33.0007   48.7693 H   0  0  0  0  0  0  0  0  0  0  0  0
   58.7600   33.8130   44.1020 C   0  0  0  0  0  0  0  0  0  0  0  0
   59.2431   34.7300   43.7336 H   0  0  0  0  0  0  0  0  0  0  0  0
   58.1770   32.8540   43.2630 C   0  0  0  0  0  0  0  0  0  0  0  0
   58.1575   32.9387   42.1664 H   0  0  0  0  0  0  0  0  0  0  0  0
   58.7500   28.3820   44.1430 S   0  0  0  0  0  0  0  0  0  0  0  0
   58.2610   23.5320   44.8730 C   0  0  0  0  0  0  0  0  0  0  0  0
   58.6063   23.0018   43.9732 H   0  0  0  0  0  0  0  0  0  0  0  0
   56.8010   23.6840   45.0690 C   0  0  0  0  0  0  0  0  0  0  0  0
   55.9250   22.6000   44.8740 C   0  0  0  0  0  0  0  0  0  0  0  0
   56.3230   21.6255   44.5546 H   0  0  0  0  0  0  0  0  0  0  0  0
   54.5520   22.7550   45.0840 C   0  0  0  0  0  0  0  0  0  0  0  0
   53.8770   21.8969   44.9497 H   0  0  0  0  0  0  0  0  0  0  0  0
   54.0330   23.9960   45.4640 C   0  0  0  0  0  0  0  0  0  0  0  0
   52.6670   24.1390   45.6850 O   0  0  0  0  0  0  0  0  0  0  0  0
   54.8910   25.0920   45.6200 C   0  0  0  0  0  0  0  0  0  0  0  0
   54.3810   26.3340   45.9780 O   0  0  0  0  0  0  0  0  0  0  0  0
   56.2710   24.9390   45.4120 C   0  0  0  0  0  0  0  0  0  0  0  0
   56.9402   25.8056   45.5181 H   0  0  0  0  0  0  0  0  0  0  0  0
  1  2  1  0
  2  3  1  0
  3  4  2  0
  3  5  1  0
  5  6  2  0
  6  7  1  0
  7  8  1  0
  8  9  1  0
  8 10  2  0
 10 11  1  0
 11 12  1  0
 12 13  1  0
 13 14  1  0
 14 15  1  0
 15 16  2  0
 15 17  1  0
 17 18  1  0
 18 19  2  0
 19 20  1  0
 19 21  1  0
 21 22  1  0
 21 23  2  0
 23 24  1  0
 23 25  1  0
 25 26  1  0
 26 27  2  0
 26 28  2  0
 26 29  1  0
 29 30  1  0
 30 31  1  0
 30 32  1  0
 30 33  1  0
 33 34  1  0
 33 35  1  0
 33 36  1  0
 36 37  1  0
 37 38  1  0
 37 39  1  0
 37 40  1  0
 40 41  1  0
 40 42  1  0
 25 43  2  0
 43 44  1  0
 14 45  2  0
 45 46  1  0
 45 47  1  0
 47 48  1  0
 10 49  1  0
  2 50  2  0
 50 51  1  0
 50 52  1  0
 52 53  2  0
 53 54  1  0
 53 55  1  0
 55 56  1  0
 55 57  2  0
 57 58  1  0
 57 59  1  0
 59 60  1  0
 59 61  2  0
 61 62  1  0
 49  6  1  0
 61 52  1  0
 47 12  2  0
 43 18  1  0
 40 29  1  0
M  CHG  4   7  -1  17  -1  58  -1  60  -1
M  END
>  <UniqueID>  (10) 
9

>  <SMILES>  (10) 
O=C(/C=C\c1ccc([O-])c([O-])c1)/N=c1\[n-]cc(Sc2ccc(C(=O)[N-]c3cccc(S(=O)(=O)N4CCOCC4)c3)s2)s1

>  <Energy>  (10) 
150.92293667094094

>  <Genealogy>  (10) 
O=C(C=Cc1ccc([O-])c([O-])c1)N=c1[n-]cc(Sc2ccc(C(=O)[N-]c3cccc(S(=O)(=O)N4CCOCC4)c3)s2)s1 (protonated)
O=C(/C=C\c1ccc([O-])c([O-])c1)/N=c1\[n-]cc(Sc2ccc(C(=O)[N-]c3cccc(S(=O)(=O)N4CCOCC4)c3)s2)s1 (cis-trans isomerization)
O=C(/C=C\c1ccc([O-])c([O-])c1)/N=c1\[n-]cc(Sc2ccc(C(=O)[N-]c3cccc(S(=O)(=O)N4CCOCC4)c3)s2)s1 (3D coordinates assigned)
O=C(/C=C\c1ccc([O-])c([O-])c1)/N=c1\[n-]cc(Sc2ccc(C(=O)[N-]c3cccc(S(=O)(=O)N4CCOCC4)c3)s2)s1 (nonaromatic ring conformer: 150.92293667094094 kcal/mol)

>  <smiles>  (10) 
O=C(C=Cc1ccc(O)c(O)c1)N=c1[nH]cc(Sc2ccc(C(=O)Nc3cccc(S(=O)(=O)N4CCOCC4)c3)s2)s1

>  <score_type>  (10) 
oracle

>  <origin>  (10) 
adg

>  <m_score__min__energy>  (10) 
-22.75

>  <m_primary>  (10) 
energy

$$$$
10:0
     RDKit          3D

 34 36  0  0  0  0  0  0  0  0999 V2000
   58.0703   26.9322   46.7552 H   0  0  0  0  0  0  0  0  0  0  0  0
   57.8130   26.7010   45.7110 C   0  0  0  0  0  0  0  0  0  0  0  0
   58.3600   27.4500   44.7450 C   0  0  0  0  0  0  0  0  0  0  0  0
   58.1560   27.0980   43.0280 Cl  0  0  0  0  0  0  0  0  0  0  0  0
   59.1820   28.6110   45.1050 C   0  0  0  0  0  0  0  0  0  0  0  0
   60.2743   28.4856   45.1394 H   0  0  0  0  0  0  0  0  0  0  0  0
   58.6720   29.8160   45.3940 C   0  0  0  0  0  0  0  0  0  0  0  0
   58.8980   30.5100   47.0380 S   0  0  0  0  0  0  0  0  0  0  0  0
   58.6430   32.1030   46.2750 C   0  0  0  0  0  0  0  0  0  0  0  0
   58.7900   33.3270   46.9320 C   0  0  0  0  0  0  0  0  0  0  0  0
   59.1373   33.3619   47.9751 H   0  0  0  0  0  0  0  0  0  0  0  0
   58.4890   34.5090   46.2440 C   0  0  0  0  0  0  0  0  0  0  0  0
   58.6086   35.4807   46.7455 H   0  0  0  0  0  0  0  0  0  0  0  0
   58.0350   34.4580   44.9160 C   0  0  0  0  0  0  0  0  0  0  0  0
   57.7917   35.3893   44.3835 H   0  0  0  0  0  0  0  0  0  0  0  0
   57.8910   33.2240   44.2670 C   0  0  0  0  0  0  0  0  0  0  0  0
   57.5310   33.1793   43.2286 H   0  0  0  0  0  0  0  0  0  0  0  0
   58.2120   32.0470   44.9590 C   0  0  0  0  0  0  0  0  0  0  0  0
   58.1380   30.7270   44.4180 N   0  0  0  0  0  0  0  0  0  0  0  0
   57.1010   30.3470   43.4470 C   0  0  0  0  0  0  0  0  0  0  0  0
   57.4988   29.5585   42.7912 H   0  0  0  0  0  0  0  0  0  0  0  0
   56.8294   31.2422   42.8683 H   0  0  0  0  0  0  0  0  0  0  0  0
   55.8410   29.8270   44.1380 C   0  0  0  0  0  0  0  0  0  0  0  0
   55.9722   29.8811   45.2288 H   0  0  0  0  0  0  0  0  0  0  0  0
   54.9793   30.4430   43.8413 H   0  0  0  0  0  0  0  0  0  0  0  0
   55.6646   28.7826   43.8413 H   0  0  0  0  0  0  0  0  0  0  0  0
   56.8880   25.5870   45.4550 C   0  0  0  0  0  0  0  0  0  0  0  0
   57.3440   24.1210   44.7570 S   0  0  0  0  0  0  0  0  0  0  0  0
   55.7700   23.5330   44.7440 C   0  0  0  0  0  0  0  0  0  0  0  0
   55.4370   22.3960   44.3170 O   0  0  0  0  0  0  0  0  0  0  0  0
   54.8900   24.4270   45.2390 N   0  0  0  0  0  0  0  0  0  0  0  0
   53.8590   24.2640   45.2990 H   0  0  0  0  0  0  0  0  0  0  0  0
   55.5010   25.5780   45.6190 C   0  0  0  0  0  0  0  0  0  0  0  0
   54.7780   26.6680   46.0910 O   0  0  0  0  0  0  0  0  0  0  0  0
  1  2  1  0
  2  3  2  0
  3  4  1  0
  3  5  1  0
  5  6  1  0
  5  7  2  0
  7  8  1  0
  8  9  1  0
  9 10  2  0
 10 11  1  0
 10 12  1  0
 12 13  1  0
 12 14  2  0
 14 15  1  0
 14 16  1  0
 16 17  1  0
 16 18  2  0
 18 19  1  0
 19 20  1  0
 20 21  1  0
 20 22  1  0
 20 23  1  0
 23 24  1  0
 23 25  1  0
 23 26  1  0
  2 27  1  0
 27 28  1  0
 28 29  1  0
 29 30  2  0
 29 31  1  0
 31 32  1  0
 31 33  1  0
 33 34  1  0
 19  7  1  0
 33 27  2  0
 18  9  1  0
M  CHG  1  34  -1
M  END
>  <UniqueID>  (11) 
10

>  <SMILES>  (11) 
CCN1/C(=C\C(Cl)=C\c2sc(=O)[nH]c2[O-])Sc2ccccc21

>  <Energy>  (11) 
104.15404148568162

>  <Genealogy>  (11) 
CCN1C(=CC(Cl)=Cc2sc(=O)[nH]c2[O-])Sc2ccccc21 (protonated)
CCN1/C(=C\C(Cl)=C\c2sc(=O)[nH]c2[O-])Sc2ccccc21 (cis-trans isomerization)
CCN1/C(=C\C(Cl)=C\c2sc(=O)[nH]c2[O-])Sc2ccccc21 (3D coordinates assigned)
CCN1/C(=C\C(Cl)=C\c2sc(=O)[nH]c2[O-])Sc2ccccc21 (nonaromatic ring conformer: 104.15404148568162 kcal/mol)

>  <smiles>  (11) 
CCN1C(=CC(Cl)=Cc2sc(=O)[nH]c2O)Sc2ccccc21

>  <score_type>  (11) 
oracle

>  <origin>  (11) 
adg

>  <m_score__min__energy>  (11) 
-12.01

>  <m_primary>  (11) 
energy

$$$$
11:0
     RDKit          3D

 57 61  0  0  0  0  0  0  0  0999 V2000
   60.6084   30.0031   50.5319 H   0  0  0  0  0  0  0  0  0  0  0  0
   61.2030   30.5920   49.8180 C   0  0  0  0  0  0  0  0  0  0  0  0
   61.0480   30.3480   48.4990 C   0  0  0  0  0  0  0  0  0  0  0  0
   60.1360   29.2630   48.0430 C   0  0  0  0  0  0  0  0  0  0  0  0
   60.1780   27.9800   48.6520 C   0  0  0  0  0  0  0  0  0  0  0  0
   60.8839   27.7931   49.4746 H   0  0  0  0  0  0  0  0  0  0  0  0
   59.3300   26.9460   48.2180 C   0  0  0  0  0  0  0  0  0  0  0  0
   59.3603   25.9528   48.6900 H   0  0  0  0  0  0  0  0  0  0  0  0
   58.4500   27.2170   47.1720 C   0  0  0  0  0  0  0  0  0  0  0  0
   57.5200   26.4170   46.5320 C   0  0  0  0  0  0  0  0  0  0  0  0
   57.2390   24.9630   46.7680 C   0  0  0  0  0  0  0  0  0  0  0  0
   56.7223   24.8454   47.7319 H   0  0  0  0  0  0  0  0  0  0  0  0
   58.1913   24.4127   46.7804 H   0  0  0  0  0  0  0  0  0  0  0  0
   56.3720   24.4130   45.6710 C   0  0  0  0  0  0  0  0  0  0  0  0
   55.1000   24.8340   45.3430 C   0  0  0  0  0  0  0  0  0  0  0  0
   54.4040   25.8650   45.9580 O   0  0  0  0  0  0  0  0  0  0  0  0
   54.6050   24.1060   44.3230 N   0  0  0  0  0  0  0  0  0  0  0  0
   55.6060   23.2400   44.0540 C   0  0  0  0  0  0  0  0  0  0  0  0
   55.5350   22.3820   43.1340 O   0  0  0  0  0  0  0  0  0  0  0  0
   56.6840   23.3840   44.8560 N   0  0  0  0  0  0  0  0  0  0  0  0
   57.9460   22.6520   44.7840 C   0  0  0  0  0  0  0  0  0  0  0  0
   58.3070   22.4426   45.8018 H   0  0  0  0  0  0  0  0  0  0  0  0
   57.7900   21.7042   44.2480 H   0  0  0  0  0  0  0  0  0  0  0  0
   58.6913   23.2580   44.2480 H   0  0  0  0  0  0  0  0  0  0  0  0
   56.9460   27.2170   45.5480 C   0  0  0  0  0  0  0  0  0  0  0  0
   56.1684   26.8880   44.8429 H   0  0  0  0  0  0  0  0  0  0  0  0
   57.4840   28.4590   45.5850 N   0  0  0  0  0  0  0  0  0  0  0  0
   57.1590   29.5670   44.6930 C   0  0  0  0  0  0  0  0  0  0  0  0
   56.8989   30.4538   45.2896 H   0  0  0  0  0  0  0  0  0  0  0  0
   58.0284   29.7940   44.0585 H   0  0  0  0  0  0  0  0  0  0  0  0
   56.3047   29.2885   44.0585 H   0  0  0  0  0  0  0  0  0  0  0  0
   58.4020   28.4490   46.5720 C   0  0  0  0  0  0  0  0  0  0  0  0
   59.2340   29.4950   46.9780 C   0  0  0  0  0  0  0  0  0  0  0  0
   59.1890   30.4756   46.4816 H   0  0  0  0  0  0  0  0  0  0  0  0
   61.7040   31.2390   47.4630 C   0  0  0  0  0  0  0  0  0  0  0  0
   60.9888   32.0170   47.1576 H   0  0  0  0  0  0  0  0  0  0  0  0
   61.9946   30.6127   46.6067 H   0  0  0  0  0  0  0  0  0  0  0  0
   62.9610   31.9100   48.0100 C   0  0  0  0  0  0  0  0  0  0  0  0
   63.3017   32.6861   47.3088 H   0  0  0  0  0  0  0  0  0  0  0  0
   63.7608   31.1650   48.1335 H   0  0  0  0  0  0  0  0  0  0  0  0
   62.6420   32.5180   49.3000 N   0  0  0  0  0  0  0  0  0  0  0  0
   62.5820   33.9510   49.4460 C   0  0  0  0  0  0  0  0  0  0  0  0
   63.4770   34.5490   50.1000 O   0  0  0  0  0  0  0  0  0  0  0  0
   61.5560   34.7270   48.8120 N   0  0  0  0  0  0  0  0  0  0  0  0
   60.5450   34.2520   48.1440 C   0  0  0  0  0  0  0  0  0  0  0  0
   60.4240   34.4660   46.8020 N   0  0  0  0  0  0  0  0  0  0  0  0
   59.3850   33.9620   46.0830 C   0  0  0  0  0  0  0  0  0  0  0  0
   59.3164   34.1590   45.0030 H   0  0  0  0  0  0  0  0  0  0  0  0
   58.4050   33.1940   46.7170 C   0  0  0  0  0  0  0  0  0  0  0  0
   57.3400   32.6770   45.9920 O   0  0  0  0  0  0  0  0  0  0  0  0
   58.5110   32.9510   48.0890 C   0  0  0  0  0  0  0  0  0  0  0  0
   57.7482   32.3467   48.6018 H   0  0  0  0  0  0  0  0  0  0  0  0
   59.5860   33.4760   48.8080 C   0  0  0  0  0  0  0  0  0  0  0  0
   59.6794   33.2821   49.8867 H   0  0  0  0  0  0  0  0  0  0  0  0
   62.1510   31.6320   50.3610 C   0  0  0  0  0  0  0  0  0  0  0  0
   61.6255   32.2354   51.1158 H   0  0  0  0  0  0  0  0  0  0  0  0
   63.0139   31.1142   50.8051 H   0  0  0  0  0  0  0  0  0  0  0  0
  1  2  1  0
  2  3  2  0
  3  4  1  0
  4  5  2  0
  5  6  1  0
  5  7  1  0
  7  8  1  0
  7  9  2  0
  9 10  1  0
 10 11  1  0
 11 12  1  0
 11 13  1  0
 11 14  1  0
 14 15  2  0
 15 16  1  0
 15 17  1  0
 17 18  1  0
 18 19  2  0
 18 20  1  0
 20 21  1  0
 21 22  1  0
 21 23  1  0
 21 24  1  0
 10 25  2  0
 25 26  1  0
 25 27  1  0
 27 28  1  0
 28 29  1  0
 28 30  1  0
 28 31  1  0
 27 32  1  0
 32 33  2  0
 33 34  1  0
  3 35  1  0
 35 36  1  0
 35 37  1  0
 35 38  1  0
 38 39  1  0
 38 40  1  0
 38 41  1  0
 41 42  1  0
 42 43  2  0
 42 44  1  0
 44 45  2  0
 45 46  1  0
 46 47  1  0
 47 48  1  0
 47 49  2  0
 49 50  1  0
 49 51  1  0
 51 52  1  0
 51 53  2  0
 53 54  1  0
 41 55  1  0
 55 56  1  0
 55 57  1  0
 55  2  1  0
 33  4  1  0
 53 45  1  0
 32  9  1  0
 20 14  1  0
M  CHG  4  16  -1  17  -1  46  -1  50  -1
M  END
>  <UniqueID>  (12) 
11

>  <SMILES>  (12) 
Cn1c(Cc2cn(C)c3cc(C4=CCN(C(=O)/N=c5/ccc([O-])c[n-]5)CC4)ccc23)c([O-])[n-]c1=O

>  <Energy>  (12) 
138.24822184906984

>  <Genealogy>  (12) 
Cn1c(Cc2cn(C)c3cc(C4=CCN(C(=O)N=c5ccc([O-])c[n-]5)CC4)ccc23)c([O-])[n-]c1=O (protonated)
Cn1c(Cc2cn(C)c3cc(C4=CCN(C(=O)/N=c5/ccc([O-])c[n-]5)CC4)ccc23)c([O-])[n-]c1=O (cis-trans isomerization)
Cn1c(Cc2cn(C)c3cc(C4=CCN(C(=O)/N=c5/ccc([O-])c[n-]5)CC4)ccc23)c([O-])[n-]c1=O (3D coordinates assigned)
Cn1c(Cc2cn(C)c3cc(C4=CCN(C(=O)/N=c5/ccc([O-])c[n-]5)CC4)ccc23)c([O-])[n-]c1=O (nonaromatic ring conformer: 138.24822184906984 kcal/mol)

>  <smiles>  (12) 
Cn1c(Cc2cn(C)c3cc(C4=CCN(C(=O)N=c5ccc(O)c[nH]5)CC4)ccc23)c(O)[nH]c1=O

>  <score_type>  (12) 
oracle

>  <origin>  (12) 
adg

>  <m_score__min__energy>  (12) 
-16.32

>  <m_primary>  (12) 
energy

$$$$
12:0
     RDKit          3D

 35 37  0  0  0  0  0  0  0  0999 V2000
   59.6101   31.9274   47.3137 H   0  0  0  0  0  0  0  0  0  0  0  0
   58.8350   32.2630   46.6090 C   0  0  0  0  0  0  0  0  0  0  0  0
   57.9720   31.4040   46.0050 N   0  0  0  0  0  0  0  0  0  0  0  0
   57.1190   32.0440   45.1760 C   0  0  0  0  0  0  0  0  0  0  0  0
   56.2180   31.4030   44.4900 N   0  0  0  0  0  0  0  0  0  0  0  0
   56.2610   30.0360   44.0460 C   0  0  0  0  0  0  0  0  0  0  0  0
   56.5780   29.7470   42.8630 O   0  0  0  0  0  0  0  0  0  0  0  0
   55.8710   28.9790   44.9290 N   0  0  0  0  0  0  0  0  0  0  0  0
   56.7310   27.9660   45.4710 C   0  0  0  0  0  0  0  0  0  0  0  0
   58.1330   28.0900   45.4350 C   0  0  0  0  0  0  0  0  0  0  0  0
   58.5925   28.9901   45.0006 H   0  0  0  0  0  0  0  0  0  0  0  0
   58.9430   27.0740   45.9490 C   0  0  0  0  0  0  0  0  0  0  0  0
   60.0375   27.1815   45.9284 H   0  0  0  0  0  0  0  0  0  0  0  0
   58.3660   25.9220   46.4890 C   0  0  0  0  0  0  0  0  0  0  0  0
   59.0054   25.1280   46.9021 H   0  0  0  0  0  0  0  0  0  0  0  0
   56.9760   25.7790   46.5040 C   0  0  0  0  0  0  0  0  0  0  0  0
   56.5223   24.8672   46.9197 H   0  0  0  0  0  0  0  0  0  0  0  0
   56.1600   26.7940   45.9910 C   0  0  0  0  0  0  0  0  0  0  0  0
   54.7780   26.6360   46.0060 O   0  0  0  0  0  0  0  0  0  0  0  0
   57.4060   33.7100   45.1520 S   0  0  0  0  0  0  0  0  0  0  0  0
   58.6610   33.6000   46.2660 C   0  0  0  0  0  0  0  0  0  0  0  0
   59.5140   34.7410   46.7250 C   0  0  0  0  0  0  0  0  0  0  0  0
   59.7099   35.4129   45.8764 H   0  0  0  0  0  0  0  0  0  0  0  0
   58.9864   35.2867   47.5212 H   0  0  0  0  0  0  0  0  0  0  0  0
   60.8230   34.2260   47.2650 C   0  0  0  0  0  0  0  0  0  0  0  0
   61.8460   33.8580   46.3740 C   0  0  0  0  0  0  0  0  0  0  0  0
   61.6760   33.9219   45.2891 H   0  0  0  0  0  0  0  0  0  0  0  0
   63.0790   33.4110   46.8600 C   0  0  0  0  0  0  0  0  0  0  0  0
   63.8727   33.1181   46.1570 H   0  0  0  0  0  0  0  0  0  0  0  0
   63.3040   33.3360   48.2360 C   0  0  0  0  0  0  0  0  0  0  0  0
   64.2737   32.9820   48.6159 H   0  0  0  0  0  0  0  0  0  0  0  0
   62.2990   33.7100   49.1300 C   0  0  0  0  0  0  0  0  0  0  0  0
   62.4798   33.6509   50.2134 H   0  0  0  0  0  0  0  0  0  0  0  0
   61.0620   34.1600   48.6530 C   0  0  0  0  0  0  0  0  0  0  0  0
   60.0790   34.5400   49.5610 O   0  0  0  0  0  0  0  0  0  0  0  0
  1  2  1  0
  2  3  1  0
  3  4  1  0
  4  5  2  0
  5  6  1  0
  6  7  2  0
  6  8  1  0
  8  9  1  0
  9 10  2  0
 10 11  1  0
 10 12  1  0
 12 13  1  0
 12 14  2  0
 14 15  1  0
 14 16  1  0
 16 17  1  0
 16 18  2  0
 18 19  1  0
  4 20  1  0
 20 21  1  0
 21 22  1  0
 22 23  1  0
 22 24  1  0
 22 25  1  0
 25 26  2  0
 26 27  1  0
 26 28  1  0
 28 29  1  0
 28 30  2  0
 30 31  1  0
 30 32  1  0
 32 33  1  0
 32 34  2  0
 34 35  1  0
 21  2  2  0
 34 25  1  0
 18  9  1  0
M  CHG  4   3  -1   8  -1  19  -1  35  -1
M  END
>  <UniqueID>  (13) 
12

>  <SMILES>  (13) 
O=C(/N=c1/[n-]cc(Cc2ccccc2[O-])s1)[N-]c1ccccc1[O-]

>  <Energy>  (13) 
73.91794181943223

>  <Genealogy>  (13) 
O=C(N=c1[n-]cc(Cc2ccccc2[O-])s1)[N-]c1ccccc1[O-] (protonated)
O=C(/N=c1/[n-]cc(Cc2ccccc2[O-])s1)[N-]c1ccccc1[O-] (cis-trans isomerization)
O=C(/N=c1/[n-]cc(Cc2ccccc2[O-])s1)[N-]c1ccccc1[O-] (3D coordinates assigned)
O=C(/N=c1/[n-]cc(Cc2ccccc2[O-])s1)[N-]c1ccccc1[O-] (optimized conformer: 73.91794181943223 kcal/mol)

>  <smiles>  (13) 
O=C(N=c1[nH]cc(Cc2ccccc2O)s1)Nc1ccccc1O

>  <score_type>  (13) 
oracle

>  <origin>  (13) 
adg

>  <m_score__min__energy>  (13) 
-15.65

>  <m_primary>  (13) 
energy

$$$$
13:0
     RDKit          3D

 30 31  0  0  0  0  0  0  0  0999 V2000
   59.1910   34.1870   44.8810 C   0  0  0  0  0  0  0  0  0  0  0  0
   58.1050   33.2740   45.3700 C   0  0  0  0  0  0  0  0  0  0  0  0
   57.5820   33.5150   46.4910 O   0  0  0  0  0  0  0  0  0  0  0  0
   57.6410   32.1060   44.5730 C   0  0  0  0  0  0  0  0  0  0  0  0
   57.4390   32.2380   43.1870 C   0  0  0  0  0  0  0  0  0  0  0  0
   57.0100   31.1500   42.4260 C   0  0  0  0  0  0  0  0  0  0  0  0
   56.7810   29.9140   43.0330 C   0  0  0  0  0  0  0  0  0  0  0  0
   56.9770   29.7520   44.4120 C   0  0  0  0  0  0  0  0  0  0  0  0
   56.7430   28.4600   45.0060 N   0  0  0  0  0  0  0  0  0  0  0  0
   57.5560   27.8850   46.0790 C   0  0  0  0  0  0  0  0  0  0  0  0
   57.1660   26.4960   46.3290 N   0  0  0  0  0  0  0  0  0  0  0  0
   57.9860   25.4610   46.5960 C   0  0  0  0  0  0  0  0  0  0  0  0
   59.3670   25.5680   46.7110 O   0  0  0  0  0  0  0  0  0  0  0  0
   57.2730   24.2860   46.7320 C   0  0  0  0  0  0  0  0  0  0  0  0
   55.9460   24.6180   46.5240 C   0  0  0  0  0  0  0  0  0  0  0  0
   55.9250   25.9750   46.2720 C   0  0  0  0  0  0  0  0  0  0  0  0
   54.7800   26.7120   45.9920 O   0  0  0  0  0  0  0  0  0  0  0  0
   57.3980   30.8570   45.1770 C   0  0  0  0  0  0  0  0  0  0  0  0
   59.7150   34.6275   45.7420 H   0  0  0  0  0  0  0  0  0  0  0  0
   59.9050   33.6139   44.2713 H   0  0  0  0  0  0  0  0  0  0  0  0
   58.7491   34.9888   44.2713 H   0  0  0  0  0  0  0  0  0  0  0  0
   57.6208   33.2070   42.6992 H   0  0  0  0  0  0  0  0  0  0  0  0
   56.8517   31.2667   41.3437 H   0  0  0  0  0  0  0  0  0  0  0  0
   56.4444   29.0611   42.4253 H   0  0  0  0  0  0  0  0  0  0  0  0
   55.9720   27.8670   44.6230 H   0  0  0  0  0  0  0  0  0  0  0  0
   58.6160   27.9165   45.7867 H   0  0  0  0  0  0  0  0  0  0  0  0
   57.3986   28.4698   46.9973 H   0  0  0  0  0  0  0  0  0  0  0  0
   57.6779   23.2888   46.9595 H   0  0  0  0  0  0  0  0  0  0  0  0
   55.0820   23.9378   46.5535 H   0  0  0  0  0  0  0  0  0  0  0  0
   57.5391   30.7430   46.2619 H   0  0  0  0  0  0  0  0  0  0  0  0
  1  2  1  0
  2  3  2  0
  2  4  1  0
  4  5  2  0
  5  6  1  0
  6  7  2  0
  7  8  1  0
  8  9  1  0
  9 10  1  0
 10 11  1  0
 11 12  1  0
 12 13  1  0
 12 14  2  0
 14 15  1  0
 15 16  2  0
 16 17  1  0
  8 18  2  0
 18  4  1  0
 16 11  1  0
  1 19  1  0
  1 20  1  0
  1 21  1  0
  5 22  1  0
  6 23  1  0
  7 24  1  0
  9 25  1  0
 10 26  1  0
 10 27  1  0
 14 28  1  0
 15 29  1  0
 18 30  1  0
M  CHG  2  13  -1  17  -1
M  END
>  <UniqueID>  (14) 
13

>  <SMILES>  (14) 
CC(=O)c1cccc(NCn2c([O-])ccc2[O-])c1

>  <Energy>  (14) 
57.17122994576665

>  <Genealogy>  (14) 
CC(=O)c1cccc(NCn2c([O-])ccc2[O-])c1 (protonated)
CC(=O)c1cccc(NCn2c([O-])ccc2[O-])c1 (3D coordinates assigned)
CC(=O)c1cccc(NCn2c([O-])ccc2[O-])c1 (optimized conformer: 57.17122994576665 kcal/mol)

>  <smiles>  (14) 
CC(=O)c1cccc(NCn2c(O)ccc2O)c1

>  <score_type>  (14) 
oracle

>  <origin>  (14) 
adg

>  <m_score__min__energy>  (14) 
-11.67

>  <m_primary>  (14) 
energy

$$$$
14:0
     RDKit          3D

 51 54  0  0  0  0  0  0  0  0999 V2000
   59.7700   27.7950   47.0450 C   0  0  0  0  0  0  0  0  0  0  0  0
   58.9470   28.4110   46.1820 C   0  0  0  0  0  0  0  0  0  0  0  0
   58.0340   27.8030   45.3030 C   0  0  0  0  0  0  0  0  0  0  0  0
   57.8560   26.5120   44.9640 C   0  0  0  0  0  0  0  0  0  0  0  0
   57.2260   25.4820   45.8030 C   0  0  0  0  0  0  0  0  0  0  0  0
   57.9070   24.4800   46.3880 N   0  0  0  0  0  0  0  0  0  0  0  0
   56.9710   23.8660   47.1430 C   0  0  0  0  0  0  0  0  0  0  0  0
   57.2240   22.8500   47.8430 O   0  0  0  0  0  0  0  0  0  0  0  0
   55.7450   24.4310   47.0990 N   0  0  0  0  0  0  0  0  0  0  0  0
   55.9280   25.4630   46.2590 C   0  0  0  0  0  0  0  0  0  0  0  0
   54.9370   26.3820   45.9310 O   0  0  0  0  0  0  0  0  0  0  0  0
   57.2790   28.8280   44.7600 C   0  0  0  0  0  0  0  0  0  0  0  0
   57.7780   30.0090   45.2690 C   0  0  0  0  0  0  0  0  0  0  0  0
   57.2910   31.3700   44.8730 C   0  0  0  0  0  0  0  0  0  0  0  0
   58.7980   29.7630   46.1250 N   0  0  0  0  0  0  0  0  0  0  0  0
   59.5460   30.7720   46.8910 C   0  0  0  0  0  0  0  0  0  0  0  0
   58.9330   30.9890   48.2530 C   0  0  0  0  0  0  0  0  0  0  0  0
   59.1060   30.0400   49.2700 C   0  0  0  0  0  0  0  0  0  0  0  0
   58.5480   30.2530   50.5310 C   0  0  0  0  0  0  0  0  0  0  0  0
   57.8090   31.4200   50.7700 C   0  0  0  0  0  0  0  0  0  0  0  0
   57.2140   31.6950   52.0900 C   0  0  0  0  0  0  0  0  0  0  0  0
   57.9610   32.1030   53.0180 O   0  0  0  0  0  0  0  0  0  0  0  0
   55.8090   31.5670   52.3430 N   0  0  0  0  0  0  0  0  0  0  0  0
   55.0340   30.3420   52.1780 C   0  0  0  0  0  0  0  0  0  0  0  0
   53.7390   30.6660   51.4920 C   0  0  0  0  0  0  0  0  0  0  0  0
   53.2310   29.8160   50.4990 C   0  0  0  0  0  0  0  0  0  0  0  0
   52.0070   30.1170   49.8970 C   0  0  0  0  0  0  0  0  0  0  0  0
   51.3110   31.2210   50.2800 N   0  0  0  0  0  0  0  0  0  0  0  0
   51.7730   32.0540   51.2490 C   0  0  0  0  0  0  0  0  0  0  0  0
   51.0270   33.1670   51.6160 O   0  0  0  0  0  0  0  0  0  0  0  0
   52.9930   31.7890   51.8780 C   0  0  0  0  0  0  0  0  0  0  0  0
   57.6860   32.3470   49.7820 N   0  0  0  0  0  0  0  0  0  0  0  0
   58.2220   32.1630   48.5470 C   0  0  0  0  0  0  0  0  0  0  0  0
   60.4418   28.3880   47.6830 H   0  0  0  0  0  0  0  0  0  0  0  0
   59.7726   26.6972   47.1143 H   0  0  0  0  0  0  0  0  0  0  0  0
   58.2136   26.2004   43.9715 H   0  0  0  0  0  0  0  0  0  0  0  0
   54.0210   26.3280   46.3610 H   0  0  0  0  0  0  0  0  0  0  0  0
   56.4404   28.7212   44.0562 H   0  0  0  0  0  0  0  0  0  0  0  0
   57.0795   31.9610   45.7764 H   0  0  0  0  0  0  0  0  0  0  0  0
   58.0637   31.8766   44.2760 H   0  0  0  0  0  0  0  0  0  0  0  0
   56.3724   31.2714   44.2760 H   0  0  0  0  0  0  0  0  0  0  0  0
   60.5844   30.4309   47.0152 H   0  0  0  0  0  0  0  0  0  0  0  0
   59.5132   31.7229   46.3390 H   0  0  0  0  0  0  0  0  0  0  0  0
   59.6834   29.1246   49.0734 H   0  0  0  0  0  0  0  0  0  0  0  0
   58.6869   29.5111   51.3312 H   0  0  0  0  0  0  0  0  0  0  0  0
   55.6040   29.6253   51.5685 H   0  0  0  0  0  0  0  0  0  0  0  0
   54.8293   29.8986   53.1636 H   0  0  0  0  0  0  0  0  0  0  0  0
   53.7919   28.9194   50.1966 H   0  0  0  0  0  0  0  0  0  0  0  0
   51.6052   29.4599   49.1116 H   0  0  0  0  0  0  0  0  0  0  0  0
   53.3649   32.4562   52.6696 H   0  0  0  0  0  0  0  0  0  0  0  0
   58.0983   32.9367   47.7750 H   0  0  0  0  0  0  0  0  0  0  0  0
  1  2  2  0
  2  3  1  0
  3  4  2  3
  4  5  1  0
  5  6  1  0
  6  7  1  0
  7  8  2  0
  7  9  1  0
  9 10  1  0
 10 11  1  0
  3 12  1  0
 12 13  2  0
 13 14  1  0
 13 15  1  0
 15 16  1  0
 16 17  1  0
 17 18  2  0
 18 19  1  0
 19 20  2  0
 20 21  1  0
 21 22  2  0
 21 23  1  0
 23 24  1  0
 24 25  1  0
 25 26  2  0
 26 27  1  0
 27 28  2  0
 28 29  1  0
 29 30  1  0
 29 31  2  0
 20 32  1  0
 32 33  2  0
 15  2  1  0
 33 17  1  0
 10  5  2  0
 31 25  1  0
  1 34  1  0
  1 35  1  0
  4 36  1  0
 11 37  1  0
 12 38  1  0
 14 39  1  0
 14 40  1  0
 14 41  1  0
 16 42  1  0
 16 43  1  0
 18 44  1  0
 19 45  1  0
 24 46  1  0
 24 47  1  0
 26 48  1  0
 27 49  1  0
 31 50  1  0
 33 51  1  0
M  CHG  4   6  -1   9  -1  23  -1  30  -1
M  END
>  <UniqueID>  (15) 
14

>  <SMILES>  (15) 
C=c1c(=Cc2[n-]c(=O)[n-]c2O)cc(C)n1Cc1ccc(C(=O)[N-]Cc2ccnc([O-])c2)nc1

>  <Energy>  (15) 
127.73863454509349

>  <Genealogy>  (15) 
C=c1c(=Cc2[n-]c(=O)[n-]c2O)cc(C)n1Cc1ccc(C(=O)[N-]Cc2ccnc([O-])c2)nc1 (protonated)
C=c1c(=Cc2[n-]c(=O)[n-]c2O)cc(C)n1Cc1ccc(C(=O)[N-]Cc2ccnc([O-])c2)nc1 (3D coordinates assigned)
C=c1c(=Cc2[n-]c(=O)[n-]c2O)cc(C)n1Cc1ccc(C(=O)[N-]Cc2ccnc([O-])c2)nc1 (optimized conformer: 127.73863454509349 kcal/mol)

>  <smiles>  (15) 
C=c1c(=Cc2[nH]c(=O)[nH]c2O)cc(C)n1Cc1ccc(C(=O)NCc2ccnc(O)c2)nc1

>  <score_type>  (15) 
oracle

>  <origin>  (15) 
adg

>  <m_score__min__energy>  (15) 
-19.02

>  <m_primary>  (15) 
energy

$$$$
15:0
     RDKit          3D

 47 49  0  0  0  0  0  0  0  0999 V2000
   54.7700   27.0850   44.9720 H   0  0  0  0  0  0  0  0  0  0  0  0
   54.9030   26.3640   45.6710 O   0  0  0  0  0  0  0  0  0  0  0  0
   56.1640   25.8670   46.0060 C   0  0  0  0  0  0  0  0  0  0  0  0
   56.2510   24.7100   46.7870 C   0  0  0  0  0  0  0  0  0  0  0  0
   55.3338   24.2071   47.1273 H   0  0  0  0  0  0  0  0  0  0  0  0
   57.4980   24.1930   47.1350 C   0  0  0  0  0  0  0  0  0  0  0  0
   57.5710   23.2823   47.7476 H   0  0  0  0  0  0  0  0  0  0  0  0
   58.6520   24.8430   46.6980 C   0  0  0  0  0  0  0  0  0  0  0  0
   59.6425   24.4490   46.9696 H   0  0  0  0  0  0  0  0  0  0  0  0
   58.5510   25.9640   45.9360 N   0  0  0  0  0  0  0  0  0  0  0  0
   57.3500   26.5000   45.5780 C   0  0  0  0  0  0  0  0  0  0  0  0
   57.2720   27.5740   44.8430 N   0  0  0  0  0  0  0  0  0  0  0  0
   56.6650   28.8560   45.1090 C   0  0  0  0  0  0  0  0  0  0  0  0
   55.4390   28.9870   44.8500 O   0  0  0  0  0  0  0  0  0  0  0  0
   57.4230   30.0560   45.6330 C   0  0  2  0  0  0  0  0  0  0  0  0
   57.1919   30.2080   46.6977 H   0  0  0  0  0  0  0  0  0  0  0  0
   57.0240   31.2480   44.8760 N   0  0  0  0  0  0  0  0  0  0  0  0
   57.8660   32.3550   44.5210 C   0  0  0  0  0  0  0  0  0  0  0  0
   58.0530   32.6000   43.3010 O   0  0  0  0  0  0  0  0  0  0  0  0
   58.5050   33.2240   45.5300 C   0  0  0  0  0  0  0  0  0  0  0  0
   59.2640   34.3330   45.1180 C   0  0  0  0  0  0  0  0  0  0  0  0
   59.3959   34.5385   44.0455 H   0  0  0  0  0  0  0  0  0  0  0  0
   59.8520   35.1760   46.0660 C   0  0  0  0  0  0  0  0  0  0  0  0
   60.4589   36.0327   45.7377 H   0  0  0  0  0  0  0  0  0  0  0  0
   59.6700   34.9320   47.4290 C   0  0  0  0  0  0  0  0  0  0  0  0
   60.1306   35.5977   48.1737 H   0  0  0  0  0  0  0  0  0  0  0  0
   58.9020   33.8410   47.8460 C   0  0  0  0  0  0  0  0  0  0  0  0
   58.7602   33.6480   48.9196 H   0  0  0  0  0  0  0  0  0  0  0  0
   58.3140   32.9950   46.9020 C   0  0  0  0  0  0  0  0  0  0  0  0
   57.6989   32.1461   47.2352 H   0  0  0  0  0  0  0  0  0  0  0  0
   58.9380   29.8140   45.4750 C   0  0  0  0  0  0  0  0  0  0  0  0
   59.3348   30.5137   44.7246 H   0  0  0  0  0  0  0  0  0  0  0  0
   59.0884   28.7713   45.1587 H   0  0  0  0  0  0  0  0  0  0  0  0
   59.6670   30.0210   46.7650 C   0  0  0  0  0  0  0  0  0  0  0  0
   59.1330   29.6650   47.8480 O   0  0  0  0  0  0  0  0  0  0  0  0
   60.9990   30.5520   46.7340 N   0  0  0  0  0  0  0  0  0  0  0  0
   61.6280   31.4010   47.7040 C   0  0  0  0  0  0  0  0  0  0  0  0
   61.4940   31.1930   49.0900 C   0  0  0  0  0  0  0  0  0  0  0  0
   60.8844   30.3567   49.4628 H   0  0  0  0  0  0  0  0  0  0  0  0
   62.1340   32.0470   49.9940 C   0  0  0  0  0  0  0  0  0  0  0  0
   62.0383   31.8719   51.0757 H   0  0  0  0  0  0  0  0  0  0  0  0
   62.8960   33.1240   49.5260 C   0  0  0  0  0  0  0  0  0  0  0  0
   63.6930   34.1970   50.6610 Cl  0  0  0  0  0  0  0  0  0  0  0  0
   63.0110   33.3490   48.1500 C   0  0  0  0  0  0  0  0  0  0  0  0
   63.6047   34.1978   47.7797 H   0  0  0  0  0  0  0  0  0  0  0  0
   62.3720   32.4960   47.2450 C   0  0  0  0  0  0  0  0  0  0  0  0
   62.4540   32.6860   46.1646 H   0  0  0  0  0  0  0  0  0  0  0  0
  1  2  1  0
  2  3  1  0
  3  4  2  0
  4  5  1  0
  4  6  1  0
  6  7  1  0
  6  8  2  0
  8  9  1  0
  8 10  1  0
 10 11  1  0
 11 12  2  0
 12 13  1  0
 13 14  2  0
 13 15  1  0
 15 16  1  1
 15 17  1  0
 17 18  1  0
 18 19  2  0
 18 20  1  0
 20 21  2  0
 21 22  1  0
 21 23  1  0
 23 24  1  0
 23 25  2  0
 25 26  1  0
 25 27  1  0
 27 28  1  0
 27 29  2  0
 29 30  1  0
 15 31  1  0
 31 32  1  0
 31 33  1  0
 31 34  1  0
 34 35  2  0
 34 36  1  0
 36 37  1  0
 37 38  2  0
 38 39  1  0
 38 40  1  0
 40 41  1  0
 40 42  2  0
 42 43  1  0
 42 44  1  0
 44 45  1  0
 44 46  2  0
 46 47  1  0
 11  3  1  0
 29 20  1  0
 46 37  1  0
M  CHG  3  10  -1  17  -1  36  -1
M  END
>  <UniqueID>  (16) 
15

>  <SMILES>  (16) 
O=C(C[C@@H]([N-]C(=O)c1ccccc1)C(=O)/N=c1\[n-]cccc1O)[N-]c1ccc(Cl)cc1

>  <Energy>  (16) 
57.33339416091202

>  <Genealogy>  (16) 
O=C(CC([N-]C(=O)c1ccccc1)C(=O)N=c1[n-]cccc1O)[N-]c1ccc(Cl)cc1 (protonated)
O=C(C[C@@H]([N-]C(=O)c1ccccc1)C(=O)N=c1[n-]cccc1O)[N-]c1ccc(Cl)cc1 (chirality)
O=C(C[C@@H]([N-]C(=O)c1ccccc1)C(=O)/N=c1\[n-]cccc1O)[N-]c1ccc(Cl)cc1 (cis-trans isomerization)
O=C(C[C@@H]([N-]C(=O)c1ccccc1)C(=O)/N=c1\[n-]cccc1O)[N-]c1ccc(Cl)cc1 (3D coordinates assigned)
O=C(C[C@@H]([N-]C(=O)c1ccccc1)C(=O)/N=c1\[n-]cccc1O)[N-]c1ccc(Cl)cc1 (optimized conformer: 57.33339416091202 kcal/mol)

>  <smiles>  (16) 
O=C(CC(NC(=O)c1ccccc1)C(=O)N=c1[nH]cccc1O)Nc1ccc(Cl)cc1

>  <score_type>  (16) 
oracle

>  <origin>  (16) 
adg

>  <m_score__min__energy>  (16) 
-13.42

>  <m_primary>  (16) 
energy

$$$$
16:0
     RDKit          3D

 50 53  0  0  0  0  0  0  0  0999 V2000
   58.5560   34.4980   44.5560 N   0  0  0  0  0  0  0  0  0  0  0  0
   58.7470   34.1270   45.9230 C   0  0  0  0  0  0  0  0  0  0  0  0
   59.6910   34.8010   46.7110 C   0  0  0  0  0  0  0  0  0  0  0  0
   59.8780   34.4380   48.0500 C   0  0  0  0  0  0  0  0  0  0  0  0
   59.1190   33.4010   48.6110 C   0  0  0  0  0  0  0  0  0  0  0  0
   59.3650   32.9180   50.2880 S   0  0  0  0  0  0  0  0  0  0  0  0
   58.3780   31.8390   50.6360 O   0  0  0  0  0  0  0  0  0  0  0  0
   59.1320   34.0880   51.2040 O   0  0  0  0  0  0  0  0  0  0  0  0
   60.9780   32.3120   50.5120 N   0  0  0  0  0  0  0  0  0  0  0  0
   60.9250   30.9250   50.9780 C   0  0  0  0  0  0  0  0  0  0  0  0
   60.7010   30.0080   49.8070 C   0  0  0  0  0  0  0  0  0  0  0  0
   60.3650   28.6630   50.0180 C   0  0  0  0  0  0  0  0  0  0  0  0
   60.1210   27.8180   48.9320 C   0  0  0  0  0  0  0  0  0  0  0  0
   60.1890   28.3100   47.6170 C   0  0  0  0  0  0  0  0  0  0  0  0
   59.9390   27.4180   46.4610 C   0  0  0  0  0  0  0  0  0  0  0  0
   60.8800   26.7070   46.0140 O   0  0  0  0  0  0  0  0  0  0  0  0
   58.6460   27.3550   45.8290 N   0  0  0  0  0  0  0  0  0  0  0  0
   57.8780   26.0990   45.8820 C   0  0  0  0  0  0  0  0  0  0  0  0
   56.4130   26.3670   46.0800 C   0  0  0  0  0  0  0  0  0  0  0  0
   55.6740   25.4870   46.5930 O   0  0  0  0  0  0  0  0  0  0  0  0
   55.8410   27.5890   45.6160 N   0  0  0  0  0  0  0  0  0  0  0  0
   56.6710   28.6350   45.1090 C   0  0  0  0  0  0  0  0  0  0  0  0
   56.0890   29.7710   44.5340 C   0  0  0  0  0  0  0  0  0  0  0  0
   56.8980   30.7960   44.0380 C   0  0  0  0  0  0  0  0  0  0  0  0
   58.2900   30.6900   44.1150 C   0  0  0  0  0  0  0  0  0  0  0  0
   58.8760   29.5620   44.6970 C   0  0  0  0  0  0  0  0  0  0  0  0
   58.0700   28.5270   45.2080 C   0  0  0  0  0  0  0  0  0  0  0  0
   60.5260   29.6590   47.4100 C   0  0  0  0  0  0  0  0  0  0  0  0
   60.7690   30.5030   48.4970 C   0  0  0  0  0  0  0  0  0  0  0  0
   58.1800   32.7250   47.8220 C   0  0  0  0  0  0  0  0  0  0  0  0
   57.9930   33.0880   46.4850 C   0  0  0  0  0  0  0  0  0  0  0  0
   57.8710   35.2410   44.2930 H   0  0  0  0  0  0  0  0  0  0  0  0
   59.1000   34.0320   43.7950 H   0  0  0  0  0  0  0  0  0  0  0  0
   60.2862   35.6172   46.2758 H   0  0  0  0  0  0  0  0  0  0  0  0
   60.6220   34.9674   48.6634 H   0  0  0  0  0  0  0  0  0  0  0  0
   61.4160   32.8920   51.2650 H   0  0  0  0  0  0  0  0  0  0  0  0
   61.8751   30.6670   51.4686 H   0  0  0  0  0  0  0  0  0  0  0  0
   60.0981   30.8115   51.6945 H   0  0  0  0  0  0  0  0  0  0  0  0
   60.2931   28.2712   51.0433 H   0  0  0  0  0  0  0  0  0  0  0  0
   59.8740   26.7605   49.1074 H   0  0  0  0  0  0  0  0  0  0  0  0
   58.0185   25.5522   44.9379 H   0  0  0  0  0  0  0  0  0  0  0  0
   58.2416   25.5035   46.7324 H   0  0  0  0  0  0  0  0  0  0  0  0
   54.9940   29.8565   44.4728 H   0  0  0  0  0  0  0  0  0  0  0  0
   56.4393   31.6879   43.5862 H   0  0  0  0  0  0  0  0  0  0  0  0
   58.9250   31.4953   43.7171 H   0  0  0  0  0  0  0  0  0  0  0  0
   59.9716   29.4828   44.7559 H   0  0  0  0  0  0  0  0  0  0  0  0
   60.5989   30.0529   46.3855 H   0  0  0  0  0  0  0  0  0  0  0  0
   61.0149   31.5611   48.3239 H   0  0  0  0  0  0  0  0  0  0  0  0
   57.5877   31.9058   48.2557 H   0  0  0  0  0  0  0  0  0  0  0  0
   57.2510   32.5559   45.8716 H   0  0  0  0  0  0  0  0  0  0  0  0
  1  2  1  0
  2  3  2  0
  3  4  1  0
  4  5  2  0
  5  6  1  0
  6  7  2  0
  6  8  2  0
  6  9  1  0
  9 10  1  0
 10 11  1  0
 11 12  2  0
 12 13  1  0
 13 14  2  0
 14 15  1  0
 15 16  2  0
 15 17  1  0
 17 18  1  0
 18 19  1  0
 19 20  2  0
 19 21  1  0
 21 22  1  0
 22 23  2  0
 23 24  1  0
 24 25  2  0
 25 26  1  0
 26 27  2  0
 14 28  1  0
 28 29  2  0
  5 30  1  0
 30 31  2  0
 31  2  1  0
 29 11  1  0
 27 17  1  0
 27 22  1  0
  1 32  1  0
  1 33  1  0
  3 34  1  0
  4 35  1  0
  9 36  1  0
 10 37  1  0
 10 38  1  0
 12 39  1  0
 13 40  1  0
 18 41  1  0
 18 42  1  0
 23 43  1  0
 24 44  1  0
 25 45  1  0
 26 46  1  0
 28 47  1  0
 29 48  1  0
 30 49  1  0
 31 50  1  0
M  CHG  1  21  -1
M  END
>  <UniqueID>  (17) 
16

>  <SMILES>  (17) 
Nc1ccc(S(=O)(=O)NCc2ccc(C(=O)N3CC(=O)[N-]c4ccccc43)cc2)cc1

>  <Energy>  (17) 
59.857530447945884

>  <Genealogy>  (17) 
Nc1ccc(S(=O)(=O)NCc2ccc(C(=O)N3CC(=O)[N-]c4ccccc43)cc2)cc1 (protonated)
Nc1ccc(S(=O)(=O)NCc2ccc(C(=O)N3CC(=O)[N-]c4ccccc43)cc2)cc1 (3D coordinates assigned)
Nc1ccc(S(=O)(=O)NCc2ccc(C(=O)N3CC(=O)[N-]c4ccccc43)cc2)cc1 (nonaromatic ring conformer: 59.857530447945884 kcal/mol)

>  <smiles>  (17) 
Nc1ccc(S(=O)(=O)NCc2ccc(C(=O)N3CC(=O)Nc4ccccc43)cc2)cc1

>  <score_type>  (17) 
oracle

>  <origin>  (17) 
adg

>  <m_score__min__energy>  (17) 
-11.109999999999999

>  <m_primary>  (17) 
energy

$$$$
17:0
     RDKit          3D

 52 55  0  0  0  0  0  0  0  0999 V2000
   59.3710   27.9530   47.1480 C   0  0  0  0  0  0  0  0  0  0  0  0
   58.5400   28.5740   46.2910 C   0  0  0  0  0  0  0  0  0  0  0  0
   58.3190   29.9510   46.4880 C   0  0  0  0  0  0  0  0  0  0  0  0
   57.6800   30.7360   45.5140 C   0  0  0  0  0  0  0  0  0  0  0  0
   57.4560   32.1140   45.6990 O   0  0  0  0  0  0  0  0  0  0  0  0
   58.3660   33.1570   45.3480 C   0  0  0  0  0  0  0  0  0  0  0  0
   59.5600   33.1360   46.2530 C   0  0  0  0  0  0  0  0  0  0  0  0
   60.7550   33.8030   46.0220 C   0  0  0  0  0  0  0  0  0  0  0  0
   61.5640   33.4830   47.0920 C   0  0  0  0  0  0  0  0  0  0  0  0
   60.8490   32.6330   47.9020 C   0  0  0  0  0  0  0  0  0  0  0  0
   59.6160   32.4380   47.4060 N   0  0  0  0  0  0  0  0  0  0  0  0
   61.3620   32.0950   49.2030 C   0  0  0  0  0  0  0  0  0  0  0  0
   62.9000   32.1490   49.2420 C   0  0  0  0  0  0  0  0  0  0  0  0
   63.4400   33.5150   48.7640 C   0  0  0  0  0  0  0  0  0  0  0  0
   63.0030   33.8580   47.3180 C   0  0  1  0  0  0  0  0  0  0  0  0
   63.8330   33.2250   46.3770 O   0  0  0  0  0  0  0  0  0  0  0  0
   57.2690   30.1400   44.3130 C   0  0  0  0  0  0  0  0  0  0  0  0
   56.6460   30.9680   43.2130 C   0  0  0  0  0  0  0  0  0  0  0  0
   57.7060   31.7980   42.4970 C   0  0  0  0  0  0  0  0  0  0  0  0
   57.4500   28.7640   44.1200 C   0  0  0  0  0  0  0  0  0  0  0  0
   57.9910   27.9420   45.1290 C   0  0  0  0  0  0  0  0  0  0  0  0
   57.9270   26.6010   44.9260 C   0  0  0  0  0  0  0  0  0  0  0  0
   57.2590   25.6220   45.8060 C   0  0  0  0  0  0  0  0  0  0  0  0
   57.8490   24.5570   46.3770 N   0  0  0  0  0  0  0  0  0  0  0  0
   56.9020   24.0360   47.1810 C   0  0  0  0  0  0  0  0  0  0  0  0
   57.0900   23.0100   47.8870 O   0  0  0  0  0  0  0  0  0  0  0  0
   55.7360   24.7170   47.1740 N   0  0  0  0  0  0  0  0  0  0  0  0
   55.9840   25.7220   46.3120 C   0  0  0  0  0  0  0  0  0  0  0  0
   55.0620   26.7130   45.9980 O   0  0  0  0  0  0  0  0  0  0  0  0
   59.5750   26.8780   47.0348 H   0  0  0  0  0  0  0  0  0  0  0  0
   59.8464   28.5203   47.9617 H   0  0  0  0  0  0  0  0  0  0  0  0
   58.6538   30.4216   47.4242 H   0  0  0  0  0  0  0  0  0  0  0  0
   58.6967   33.0147   44.3086 H   0  0  0  0  0  0  0  0  0  0  0  0
   57.8557   34.1258   45.4535 H   0  0  0  0  0  0  0  0  0  0  0  0
   61.0038   34.4493   45.1674 H   0  0  0  0  0  0  0  0  0  0  0  0
   58.8580   31.8520   47.8220 H   0  0  0  0  0  0  0  0  0  0  0  0
   60.9579   32.6991   50.0287 H   0  0  0  0  0  0  0  0  0  0  0  0
   61.0409   31.0479   49.3055 H   0  0  0  0  0  0  0  0  0  0  0  0
   63.2360   31.9753   50.2749 H   0  0  0  0  0  0  0  0  0  0  0  0
   63.2859   31.3734   48.5641 H   0  0  0  0  0  0  0  0  0  0  0  0
   63.0650   34.2976   49.4399 H   0  0  0  0  0  0  0  0  0  0  0  0
   64.5386   33.4601   48.7748 H   0  0  0  0  0  0  0  0  0  0  0  0
   63.1021   34.9453   47.1839 H   0  0  0  0  0  0  0  0  0  0  0  0
   64.5220   32.7110   46.8730 H   0  0  0  0  0  0  0  0  0  0  0  0
   56.1609   30.2983   42.4876 H   0  0  0  0  0  0  0  0  0  0  0  0
   55.9055   31.6484   43.6587 H   0  0  0  0  0  0  0  0  0  0  0  0
   58.3443   32.2978   43.2405 H   0  0  0  0  0  0  0  0  0  0  0  0
   58.3229   31.1403   41.8670 H   0  0  0  0  0  0  0  0  0  0  0  0
   57.2155   32.5546   41.8670 H   0  0  0  0  0  0  0  0  0  0  0  0
   57.1630   28.3145   43.1579 H   0  0  0  0  0  0  0  0  0  0  0  0
   58.4178   26.2082   44.0233 H   0  0  0  0  0  0  0  0  0  0  0  0
   58.8330   24.2270   46.2600 H   0  0  0  0  0  0  0  0  0  0  0  0
  1  2  2  0
  2  3  1  0
  3  4  2  0
  4  5  1  0
  5  6  1  0
  6  7  1  0
  7  8  2  0
  8  9  1  0
  9 10  2  0
 10 11  1  0
 10 12  1  0
 12 13  1  0
 13 14  1  0
 14 15  1  0
 15 16  1  0
  4 17  1  0
 17 18  1  0
 18 19  1  0
 17 20  2  0
 20 21  1  0
 21 22  2  3
 22 23  1  0
 23 24  1  0
 24 25  1  0
 25 26  2  0
 25 27  1  0
 27 28  1  0
 28 29  1  0
 21  2  1  0
 28 23  2  0
 11  7  1  0
 15  9  1  0
  1 30  1  0
  1 31  1  0
  3 32  1  0
  6 33  1  0
  6 34  1  0
  8 35  1  0
 11 36  1  0
 12 37  1  0
 12 38  1  0
 13 39  1  0
 13 40  1  0
 14 41  1  0
 14 42  1  0
 15 43  1  1
 16 44  1  0
 18 45  1  0
 18 46  1  0
 19 47  1  0
 19 48  1  0
 19 49  1  0
 20 50  1  0
 22 51  1  0
 24 52  1  0
M  CHG  2  27  -1  29  -1
M  END
>  <UniqueID>  (18) 
17

>  <SMILES>  (18) 
C=c1cc(OCc2cc3c([nH]2)CCC[C@H]3O)c(CC)cc1=Cc1[nH]c(=O)[n-]c1[O-]

>  <Energy>  (18) 
128.25790700564716

>  <Genealogy>  (18) 
C=c1cc(OCc2cc3c([nH]2)CCCC3O)c(CC)cc1=Cc1[nH]c(=O)[n-]c1[O-] (protonated)
C=c1cc(OCc2cc3c([nH]2)CCC[C@H]3O)c(CC)cc1=Cc1[nH]c(=O)[n-]c1[O-] (chirality)
C=c1cc(OCc2cc3c([nH]2)CCC[C@H]3O)c(CC)cc1=Cc1[nH]c(=O)[n-]c1[O-] (3D coordinates assigned)
C=c1cc(OCc2cc3c([nH]2)CCC[C@H]3O)c(CC)cc1=Cc1[nH]c(=O)[n-]c1[O-] (nonaromatic ring conformer: 128.25790700564716 kcal/mol)

>  <smiles>  (18) 
C=c1cc(OCc2cc3c([nH]2)CCCC3O)c(CC)cc1=Cc1[nH]c(=O)[nH]c1O

>  <score_type>  (18) 
oracle

>  <origin>  (18) 
adg

>  <m_score__min__energy>  (18) 
-15.199999999999999

>  <m_primary>  (18) 
energy

$$$$
18:0
     RDKit          3D

 42 44  0  0  0  0  0  0  0  0999 V2000
   58.4010   31.7530   49.4390 O   0  0  0  0  0  0  0  0  0  0  0  0
   59.6250   32.1650   48.6700 S   0  0  0  0  0  0  0  0  0  0  0  0
   60.4450   33.0790   49.5380 O   0  0  0  0  0  0  0  0  0  0  0  0
   59.1060   33.0260   47.2140 C   0  0  0  0  0  0  0  0  0  0  0  0
   57.7550   32.9940   46.8330 C   0  0  0  0  0  0  0  0  0  0  0  0
   57.3250   33.6800   45.6940 C   0  0  0  0  0  0  0  0  0  0  0  0
   58.2380   34.4040   44.9260 C   0  0  0  0  0  0  0  0  0  0  0  0
   59.5830   34.4460   45.2970 C   0  0  0  0  0  0  0  0  0  0  0  0
   60.0250   33.7630   46.4370 C   0  0  0  0  0  0  0  0  0  0  0  0
   61.7300   33.8640   46.8620 Cl  0  0  0  0  0  0  0  0  0  0  0  0
   60.5430   30.7460   48.2150 N   0  0  0  0  0  0  0  0  0  0  0  0
   60.0160   29.5000   48.7920 C   0  0  0  0  0  0  0  0  0  0  0  0
   58.7590   28.9880   48.0710 C   0  0  0  0  0  0  0  0  0  0  0  0
   58.9050   28.9570   46.6040 N   0  0  0  0  0  0  0  0  0  0  0  0
   59.2610   27.6530   46.0030 C   0  0  0  0  0  0  0  0  0  0  0  0
   58.1840   26.6050   46.1370 C   0  0  0  0  0  0  0  0  0  0  0  0
   58.5240   25.2600   46.3560 C   0  0  0  0  0  0  0  0  0  0  0  0
   57.5250   24.2890   46.4690 C   0  0  0  0  0  0  0  0  0  0  0  0
   56.1800   24.6490   46.3500 C   0  0  0  0  0  0  0  0  0  0  0  0
   55.8320   25.9810   46.1100 C   0  0  0  0  0  0  0  0  0  0  0  0
   54.4960   26.3380   45.9830 O   0  0  0  0  0  0  0  0  0  0  0  0
   56.8300   26.9560   45.9940 C   0  0  0  0  0  0  0  0  0  0  0  0
   59.5260   30.1520   46.0000 C   0  0  0  0  0  0  0  0  0  0  0  0
   60.7650   30.6400   46.7650 C   0  0  0  0  0  0  0  0  0  0  0  0
   57.0306   32.4255   47.4347 H   0  0  0  0  0  0  0  0  0  0  0  0
   56.2648   33.6493   45.4022 H   0  0  0  0  0  0  0  0  0  0  0  0
   57.8978   34.9414   44.0285 H   0  0  0  0  0  0  0  0  0  0  0  0
   60.2999   35.0189   44.6905 H   0  0  0  0  0  0  0  0  0  0  0  0
   60.7959   28.7269   48.7281 H   0  0  0  0  0  0  0  0  0  0  0  0
   59.7335   29.7138   49.8334 H   0  0  0  0  0  0  0  0  0  0  0  0
   58.5447   27.9681   48.4230 H   0  0  0  0  0  0  0  0  0  0  0  0
   57.9407   29.6851   48.3042 H   0  0  0  0  0  0  0  0  0  0  0  0
   59.4624   27.8081   44.9328 H   0  0  0  0  0  0  0  0  0  0  0  0
   60.1405   27.2792   46.5478 H   0  0  0  0  0  0  0  0  0  0  0  0
   59.5817   24.9694   46.4390 H   0  0  0  0  0  0  0  0  0  0  0  0
   57.7981   23.2393   46.6520 H   0  0  0  0  0  0  0  0  0  0  0  0
   55.3953   23.8840   46.4452 H   0  0  0  0  0  0  0  0  0  0  0  0
   56.5537   28.0010   45.7901 H   0  0  0  0  0  0  0  0  0  0  0  0
   59.8244   29.9083   44.9697 H   0  0  0  0  0  0  0  0  0  0  0  0
   58.7810   30.9606   46.0332 H   0  0  0  0  0  0  0  0  0  0  0  0
   61.5875   29.9315   46.5876 H   0  0  0  0  0  0  0  0  0  0  0  0
   61.0029   31.6482   46.3950 H   0  0  0  0  0  0  0  0  0  0  0  0
  1  2  2  0
  2  3  2  0
  2  4  1  0
  4  5  2  0
  5  6  1  0
  6  7  2  0
  7  8  1  0
  8  9  2  0
  9 10  1  0
  2 11  1  0
 11 12  1  0
 12 13  1  0
 13 14  1  0
 14 15  1  0
 15 16  1  0
 16 17  2  0
 17 18  1  0
 18 19  2  0
 19 20  1  0
 20 21  1  0
 20 22  2  0
 14 23  1  0
 23 24  1  0
  9  4  1  0
 24 11  1  0
 22 16  1  0
  5 25  1  0
  6 26  1  0
  7 27  1  0
  8 28  1  0
 12 29  1  0
 12 30  1  0
 13 31  1  0
 13 32  1  0
 15 33  1  0
 15 34  1  0
 17 35  1  0
 18 36  1  0
 19 37  1  0
 22 38  1  0
 23 39  1  0
 23 40  1  0
 24 41  1  0
 24 42  1  0
M  CHG  1  21  -1
M  END
>  <UniqueID>  (19) 
18

>  <SMILES>  (19) 
O=S(=O)(c1ccccc1Cl)N1CCN(Cc2cccc([O-])c2)CC1

>  <Energy>  (19) 
56.71786408933685

>  <Genealogy>  (19) 
O=S(=O)(c1ccccc1Cl)N1CCN(Cc2cccc([O-])c2)CC1 (protonated)
O=S(=O)(c1ccccc1Cl)N1CCN(Cc2cccc([O-])c2)CC1 (3D coordinates assigned)
O=S(=O)(c1ccccc1Cl)N1CCN(Cc2cccc([O-])c2)CC1 (nonaromatic ring conformer: 56.71786408933685 kcal/mol)

>  <smiles>  (19) 
O=S(=O)(c1ccccc1Cl)N1CCN(Cc2cccc(O)c2)CC1

>  <score_type>  (19) 
oracle

>  <origin>  (19) 
adg

>  <m_score__min__energy>  (19) 
-12.199999999999999

>  <m_primary>  (19) 
energy

$$$$
19:0
     RDKit          3D

 27 28  0  0  0  0  0  0  0  0999 V2000
   56.1800   28.9820   52.1390 O   0  0  0  0  0  0  0  0  0  0  0  0
   55.6610   30.0940   52.4250 C   0  0  0  0  0  0  0  0  0  0  0  0
   54.1590   30.1980   52.5370 C   0  0  0  0  0  0  0  0  0  0  0  0
   53.6130   31.5440   52.0380 C   0  0  0  0  0  0  0  0  0  0  0  0
   52.5660   31.3650   50.9810 C   0  0  0  0  0  0  0  0  0  0  0  0
   52.5920   30.3910   50.0530 N   0  0  0  0  0  0  0  0  0  0  0  0
   51.4470   30.5880   49.3630 C   0  0  0  0  0  0  0  0  0  0  0  0
   51.1070   29.8630   48.3930 O   0  0  0  0  0  0  0  0  0  0  0  0
   50.6920   31.6200   49.7990 N   0  0  0  0  0  0  0  0  0  0  0  0
   51.4140   32.0990   50.8250 C   0  0  0  0  0  0  0  0  0  0  0  0
   51.0250   33.1810   51.6040 O   0  0  0  0  0  0  0  0  0  0  0  0
   56.5240   31.1710   52.8140 N   0  0  0  0  0  0  0  0  0  0  0  0
   57.5040   31.8150   51.9900 C   0  0  0  0  0  0  0  0  0  0  0  0
   57.8650   31.2260   50.7720 C   0  0  0  0  0  0  0  0  0  0  0  0
   58.7950   31.8500   49.9350 C   0  0  0  0  0  0  0  0  0  0  0  0
   59.3560   33.0780   50.3010 C   0  0  0  0  0  0  0  0  0  0  0  0
   60.6250   33.9320   49.1570 Br  0  0  0  0  0  0  0  0  0  0  0  0
   58.9760   33.6860   51.5020 C   0  0  0  0  0  0  0  0  0  0  0  0
   58.0460   33.0630   52.3380 C   0  0  0  0  0  0  0  0  0  0  0  0
   53.7062   29.3927   51.9399 H   0  0  0  0  0  0  0  0  0  0  0  0
   53.9013   30.1126   53.6030 H   0  0  0  0  0  0  0  0  0  0  0  0
   53.1717   32.0857   52.8876 H   0  0  0  0  0  0  0  0  0  0  0  0
   54.4483   32.1088   51.5983 H   0  0  0  0  0  0  0  0  0  0  0  0
   57.4149   30.2681   50.4724 H   0  0  0  0  0  0  0  0  0  0  0  0
   59.0861   31.3743   48.9868 H   0  0  0  0  0  0  0  0  0  0  0  0
   59.4097   34.6554   51.7885 H   0  0  0  0  0  0  0  0  0  0  0  0
   57.7368   33.5524   53.2734 H   0  0  0  0  0  0  0  0  0  0  0  0
  1  2  2  0
  2  3  1  0
  3  4  1  0
  4  5  1  0
  5  6  1  0
  6  7  1  0
  7  8  2  0
  7  9  1  0
  9 10  1  0
 10 11  1  0
  2 12  1  0
 12 13  1  0
 13 14  2  0
 14 15  1  0
 15 16  2  0
 16 17  1  0
 16 18  1  0
 18 19  2  0
 10  5  2  0
 19 13  1  0
  3 20  1  0
  3 21  1  0
  4 22  1  0
  4 23  1  0
 14 24  1  0
 15 25  1  0
 18 26  1  0
 19 27  1  0
M  CHG  4   6  -1   9  -1  11  -1  12  -1
M  END
>  <UniqueID>  (20) 
19

>  <SMILES>  (20) 
O=C(CCc1[n-]c(=O)[n-]c1[O-])[N-]c1ccc(Br)cc1

>  <Energy>  (20) 
58.5889615524748

>  <Genealogy>  (20) 
O=C(CCc1[n-]c(=O)[n-]c1[O-])[N-]c1ccc(Br)cc1 (protonated)
O=C(CCc1[n-]c(=O)[n-]c1[O-])[N-]c1ccc(Br)cc1 (3D coordinates assigned)
O=C(CCc1[n-]c(=O)[n-]c1[O-])[N-]c1ccc(Br)cc1 (optimized conformer: 58.5889615524748 kcal/mol)

>  <smiles>  (20) 
O=C(CCc1[nH]c(=O)[nH]c1O)Nc1ccc(Br)cc1

>  <score_type>  (20) 
oracle

>  <origin>  (20) 
adg

>  <m_score__min__energy>  (20) 
-16.91

>  <m_primary>  (20) 
energy

$$$$
20:0
     RDKit          3D

 56 58  0  0  0  0  0  0  0  0999 V2000
   60.6360   29.3430   45.7600 C   0  0  0  0  0  0  0  0  0  0  0  0
   60.2130   29.9380   46.8810 C   0  0  0  0  0  0  0  0  0  0  0  0
   58.7810   29.7980   47.3230 C   0  0  0  0  0  0  0  0  0  0  0  0
   57.9160   30.4750   46.3650 N   0  0  0  0  0  0  0  0  0  0  0  0
   57.7720   31.8970   46.2510 C   0  0  0  0  0  0  0  0  0  0  0  0
   56.9490   32.3560   45.4160 O   0  0  0  0  0  0  0  0  0  0  0  0
   58.5840   32.8370   47.0470 C   0  0  0  0  0  0  0  0  0  0  0  0
   59.2790   33.8890   46.4290 C   0  0  0  0  0  0  0  0  0  0  0  0
   60.0470   34.7700   47.1950 C   0  0  0  0  0  0  0  0  0  0  0  0
   60.1410   34.5980   48.5790 C   0  0  0  0  0  0  0  0  0  0  0  0
   59.4790   33.5330   49.2020 C   0  0  0  0  0  0  0  0  0  0  0  0
   59.5820   33.3290   50.9480 S   0  0  0  0  0  0  0  0  0  0  0  0
   60.9280   33.7940   51.4330 O   0  0  0  0  0  0  0  0  0  0  0  0
   58.5210   34.1640   51.6090 O   0  0  0  0  0  0  0  0  0  0  0  0
   59.3350   31.6480   51.3480 N   0  0  0  0  0  0  0  0  0  0  0  0
   57.9930   31.1910   50.9790 C   0  0  0  0  0  0  0  0  0  0  0  0
   57.6410   30.0540   51.9290 C   0  0  0  0  0  0  0  0  0  0  0  0
   58.6110   30.1790   53.0950 C   0  0  0  0  0  0  0  0  0  0  0  0
   59.4560   31.4060   52.7880 C   0  0  0  0  0  0  0  0  0  0  0  0
   58.7020   32.6530   48.4330 C   0  0  0  0  0  0  0  0  0  0  0  0
   61.1680   30.6810   47.7380 C   0  0  0  0  0  0  0  0  0  0  0  0
   62.0280   31.6170   47.1460 C   0  0  0  0  0  0  0  0  0  0  0  0
   62.9270   32.3390   47.9230 C   0  0  0  0  0  0  0  0  0  0  0  0
   62.9780   32.1400   49.3000 C   0  0  0  0  0  0  0  0  0  0  0  0
   62.1260   31.2090   49.9260 C   0  0  0  0  0  0  0  0  0  0  0  0
   62.1800   31.0080   51.3160 O   0  0  0  0  0  0  0  0  0  0  0  0
   63.1950   31.5150   52.1760 C   0  0  0  0  0  0  0  0  0  0  0  0
   61.2030   30.4710   49.1360 C   0  0  0  0  0  0  0  0  0  0  0  0
   60.2940   29.5380   49.6740 O   0  0  0  0  0  0  0  0  0  0  0  0
   60.5740   28.1960   50.0530 C   0  0  0  0  0  0  0  0  0  0  0  0
   61.6838   29.4493   45.4426 H   0  0  0  0  0  0  0  0  0  0  0  0
   59.9360   28.7474   45.1556 H   0  0  0  0  0  0  0  0  0  0  0  0
   58.5133   28.7322   47.3714 H   0  0  0  0  0  0  0  0  0  0  0  0
   58.6553   30.2495   48.3182 H   0  0  0  0  0  0  0  0  0  0  0  0
   59.2187   34.0200   45.3385 H   0  0  0  0  0  0  0  0  0  0  0  0
   60.5787   35.6006   46.7078 H   0  0  0  0  0  0  0  0  0  0  0  0
   60.7364   35.3009   49.1801 H   0  0  0  0  0  0  0  0  0  0  0  0
   60.0490   31.0750   50.8390 H   0  0  0  0  0  0  0  0  0  0  0  0
   57.2697   32.0127   51.0869 H   0  0  0  0  0  0  0  0  0  0  0  0
   57.9635   30.8551   49.9320 H   0  0  0  0  0  0  0  0  0  0  0  0
   56.6035   30.1546   52.2803 H   0  0  0  0  0  0  0  0  0  0  0  0
   57.7206   29.0734   51.4370 H   0  0  0  0  0  0  0  0  0  0  0  0
   58.0627   30.3157   54.0388 H   0  0  0  0  0  0  0  0  0  0  0  0
   59.2283   29.2761   53.2120 H   0  0  0  0  0  0  0  0  0  0  0  0
   59.0833   32.2741   53.3514 H   0  0  0  0  0  0  0  0  0  0  0  0
   60.5055   31.2473   53.0768 H   0  0  0  0  0  0  0  0  0  0  0  0
   58.1826   31.8143   48.9195 H   0  0  0  0  0  0  0  0  0  0  0  0
   61.9912   31.7813   46.0590 H   0  0  0  0  0  0  0  0  0  0  0  0
   63.5994   33.0690   47.4487 H   0  0  0  0  0  0  0  0  0  0  0  0
   63.6921   32.7166   49.9064 H   0  0  0  0  0  0  0  0  0  0  0  0
   62.8960   31.3656   53.2240 H   0  0  0  0  0  0  0  0  0  0  0  0
   64.1380   30.9821   51.9842 H   0  0  0  0  0  0  0  0  0  0  0  0
   63.3353   32.5890   51.9842 H   0  0  0  0  0  0  0  0  0  0  0  0
   60.5897   28.1206   51.1503 H   0  0  0  0  0  0  0  0  0  0  0  0
   59.7952   27.5313   49.6509 H   0  0  0  0  0  0  0  0  0  0  0  0
   61.5536   27.8982   49.6509 H   0  0  0  0  0  0  0  0  0  0  0  0
  1  2  2  0
  2  3  1  0
  3  4  1  0
  4  5  1  0
  5  6  2  0
  5  7  1  0
  7  8  2  0
  8  9  1  0
  9 10  2  0
 10 11  1  0
 11 12  1  0
 12 13  2  0
 12 14  2  0
 12 15  1  0
 15 16  1  0
 16 17  1  0
 17 18  1  0
 18 19  1  0
 11 20  2  0
  2 21  1  0
 21 22  2  0
 22 23  1  0
 23 24  2  0
 24 25  1  0
 25 26  1  0
 26 27  1  0
 25 28  2  0
 28 29  1  0
 29 30  1  0
 20  7  1  0
 28 21  1  0
 19 15  1  0
  1 31  1  0
  1 32  1  0
  3 33  1  0
  3 34  1  0
  8 35  1  0
  9 36  1  0
 10 37  1  0
 15 38  1  0
 16 39  1  0
 16 40  1  0
 17 41  1  0
 17 42  1  0
 18 43  1  0
 18 44  1  0
 19 45  1  0
 19 46  1  0
 20 47  1  0
 22 48  1  0
 23 49  1  0
 24 50  1  0
 27 51  1  0
 27 52  1  0
 27 53  1  0
 30 54  1  0
 30 55  1  0
 30 56  1  0
M  CHG  2   4  -1  15   1
M  END
>  <UniqueID>  (21) 
20

>  <SMILES>  (21) 
C=C(C[N-]C(=O)c1cccc(S(=O)(=O)[NH+]2CCCC2)c1)c1cccc(OC)c1OC

>  <Energy>  (21) 
67.95667808594534

>  <Genealogy>  (21) 
C=C(C[N-]C(=O)c1cccc(S(=O)(=O)[NH+]2CCCC2)c1)c1cccc(OC)c1OC (protonated)
C=C(C[N-]C(=O)c1cccc(S(=O)(=O)[NH+]2CCCC2)c1)c1cccc(OC)c1OC (3D coordinates assigned)
C=C(C[N-]C(=O)c1cccc(S(=O)(=O)[NH+]2CCCC2)c1)c1cccc(OC)c1OC (nonaromatic ring conformer: 67.95667808594534 kcal/mol)

>  <smiles>  (21) 
C=C(CNC(=O)c1cccc(S(=O)(=O)N2CCCC2)c1)c1cccc(OC)c1OC

>  <score_type>  (21) 
oracle

>  <origin>  (21) 
adg

>  <m_score__min__energy>  (21) 
-9.4199999999999999

>  <m_primary>  (21) 
energy

$$$$
21:0
     RDKit          3D

 62 65  0  0  0  0  0  0  0  0999 V2000
   59.8850   34.1450   47.7400 C   0  0  0  0  0  0  0  0  0  0  0  0
   59.2230   33.2520   46.7280 C   0  0  0  0  0  0  0  0  0  0  0  0
   58.8560   31.9270   46.9260 C   0  0  0  0  0  0  0  0  0  0  0  0
   59.0940   31.1410   48.1440 C   0  0  0  0  0  0  0  0  0  0  0  0
   58.3480   31.3040   49.1470 O   0  0  0  0  0  0  0  0  0  0  0  0
   60.1320   30.1600   48.1670 N   0  0  0  0  0  0  0  0  0  0  0  0
   61.2850   30.2480   49.0520 C   0  0  0  0  0  0  0  0  0  0  0  0
   62.0710   31.4830   48.7190 C   0  0  0  0  0  0  0  0  0  0  0  0
   62.6400   31.6330   47.4430 C   0  0  0  0  0  0  0  0  0  0  0  0
   63.3330   32.8030   47.1160 C   0  0  0  0  0  0  0  0  0  0  0  0
   63.4540   33.8310   48.0550 C   0  0  0  0  0  0  0  0  0  0  0  0
   62.8800   33.6930   49.3210 C   0  0  0  0  0  0  0  0  0  0  0  0
   62.1870   32.5250   49.6530 C   0  0  0  0  0  0  0  0  0  0  0  0
   58.2580   31.5010   45.7440 C   0  0  0  0  0  0  0  0  0  0  0  0
   57.7180   29.8700   45.3230 S   0  0  0  0  0  0  0  0  0  0  0  0
   56.2850   29.9310   44.8710 O   0  0  0  0  0  0  0  0  0  0  0  0
   58.5770   29.3650   44.1970 O   0  0  0  0  0  0  0  0  0  0  0  0
   57.8210   28.7940   46.6830 N   0  0  0  0  0  0  0  0  0  0  0  0
   58.6260   27.6150   46.3630 C   0  0  0  0  0  0  0  0  0  0  0  0
   57.7670   26.5440   45.7480 C   0  0  0  0  0  0  0  0  0  0  0  0
   58.0910   26.0010   44.4950 C   0  0  0  0  0  0  0  0  0  0  0  0
   57.3060   24.9860   43.9420 C   0  0  0  0  0  0  0  0  0  0  0  0
   56.1890   24.4950   44.6350 C   0  0  0  0  0  0  0  0  0  0  0  0
   55.3630   23.4090   44.0680 C   0  0  0  0  0  0  0  0  0  0  0  0
   54.2100   23.2110   44.5300 O   0  0  0  0  0  0  0  0  0  0  0  0
   55.8510   22.5420   43.0370 N   0  0  0  0  0  0  0  0  0  0  0  0
   56.7130   21.3880   43.2700 C   0  0  0  0  0  0  0  0  0  0  0  0
   58.0480   21.7350   43.9040 C   0  0  0  0  0  0  0  0  0  0  0  0
   56.9420   21.1160   44.7460 C   0  0  0  0  0  0  0  0  0  0  0  0
   55.8420   25.0650   45.8690 C   0  0  0  0  0  0  0  0  0  0  0  0
   56.6290   26.0780   46.4240 C   0  0  0  0  0  0  0  0  0  0  0  0
   58.3100   32.5790   44.8700 C   0  0  0  0  0  0  0  0  0  0  0  0
   57.8090   32.5830   43.4530 C   0  0  0  0  0  0  0  0  0  0  0  0
   58.8590   33.6510   45.4880 N   0  0  0  0  0  0  0  0  0  0  0  0
   59.1040   34.9640   44.8870 C   0  0  0  0  0  0  0  0  0  0  0  0
   59.6307   33.8019   48.7537 H   0  0  0  0  0  0  0  0  0  0  0  0
   60.9759   34.1084   47.6034 H   0  0  0  0  0  0  0  0  0  0  0  0
   59.5328   35.1781   47.6034 H   0  0  0  0  0  0  0  0  0  0  0  0
   60.9438   30.2998   50.0965 H   0  0  0  0  0  0  0  0  0  0  0  0
   61.9201   29.3596   48.9203 H   0  0  0  0  0  0  0  0  0  0  0  0
   62.5402   30.8284   46.6996 H   0  0  0  0  0  0  0  0  0  0  0  0
   63.7833   32.9142   46.1186 H   0  0  0  0  0  0  0  0  0  0  0  0
   64.0016   34.7494   47.7970 H   0  0  0  0  0  0  0  0  0  0  0  0
   62.9734   34.5044   50.0578 H   0  0  0  0  0  0  0  0  0  0  0  0
   61.7313   32.4220   50.6489 H   0  0  0  0  0  0  0  0  0  0  0  0
   59.4165   27.8980   45.6524 H   0  0  0  0  0  0  0  0  0  0  0  0
   59.0723   27.2256   47.2899 H   0  0  0  0  0  0  0  0  0  0  0  0
   58.9671   26.3763   43.9457 H   0  0  0  0  0  0  0  0  0  0  0  0
   57.5652   24.5693   42.9575 H   0  0  0  0  0  0  0  0  0  0  0  0
   56.4018   20.7929   42.3988 H   0  0  0  0  0  0  0  0  0  0  0  0
   58.9443   21.1478   43.6554 H   0  0  0  0  0  0  0  0  0  0  0  0
   58.6633   22.6441   43.9742 H   0  0  0  0  0  0  0  0  0  0  0  0
   57.0385   20.0812   45.1063 H   0  0  0  0  0  0  0  0  0  0  0  0
   56.4260   21.3919   45.6775 H   0  0  0  0  0  0  0  0  0  0  0  0
   54.9465   24.7131   46.4022 H   0  0  0  0  0  0  0  0  0  0  0  0
   56.3547   26.5126   47.3966 H   0  0  0  0  0  0  0  0  0  0  0  0
   56.7090   32.5918   43.4530 H   0  0  0  0  0  0  0  0  0  0  0  0
   58.1828   33.4782   42.9344 H   0  0  0  0  0  0  0  0  0  0  0  0
   58.1685   31.6820   42.9344 H   0  0  0  0  0  0  0  0  0  0  0  0
   59.2434   35.7110   45.6823 H   0  0  0  0  0  0  0  0  0  0  0  0
   60.0092   34.9188   44.2637 H   0  0  0  0  0  0  0  0  0  0  0  0
   58.2434   35.2483   44.2637 H   0  0  0  0  0  0  0  0  0  0  0  0
  1  2  1  0
  2  3  2  0
  3  4  1  0
  4  5  2  0
  4  6  1  0
  6  7  1  0
  7  8  1  0
  8  9  2  0
  9 10  1  0
 10 11  2  0
 11 12  1  0
 12 13  2  0
  3 14  1  0
 14 15  1  0
 15 16  2  0
 15 17  2  0
 15 18  1  0
 18 19  1  0
 19 20  1  0
 20 21  2  0
 21 22  1  0
 22 23  2  0
 23 24  1  0
 24 25  2  0
 24 26  1  0
 26 27  1  0
 27 28  1  0
 28 29  1  0
 23 30  1  0
 30 31  2  0
 14 32  2  0
 32 33  1  0
 32 34  1  0
 34 35  1  0
 34  2  1  0
 13  8  1  0
 31 20  1  0
 29 27  1  0
  1 36  1  0
  1 37  1  0
  1 38  1  0
  7 39  1  0
  7 40  1  0
  9 41  1  0
 10 42  1  0
 11 43  1  0
 12 44  1  0
 13 45  1  0
 19 46  1  0
 19 47  1  0
 21 48  1  0
 22 49  1  0
 27 50  1  0
 28 51  1  0
 28 52  1  0
 29 53  1  0
 29 54  1  0
 30 55  1  0
 31 56  1  0
 33 57  1  0
 33 58  1  0
 33 59  1  0
 35 60  1  0
 35 61  1  0
 35 62  1  0
M  CHG  3   6  -1  18  -1  26  -1
M  END
>  <UniqueID>  (22) 
21

>  <SMILES>  (22) 
Cc1c(C(=O)[N-]Cc2ccccc2)c(S(=O)(=O)[N-]Cc2ccc(C(=O)[N-]C3CC3)cc2)c(C)n1C

>  <Energy>  (22) 
360.09318250703467

>  <Genealogy>  (22) 
Cc1c(C(=O)[N-]Cc2ccccc2)c(S(=O)(=O)[N-]Cc2ccc(C(=O)[N-]C3CC3)cc2)c(C)n1C (protonated)
Cc1c(C(=O)[N-]Cc2ccccc2)c(S(=O)(=O)[N-]Cc2ccc(C(=O)[N-]C3CC3)cc2)c(C)n1C (3D coordinates assigned)
Cc1c(C(=O)[N-]Cc2ccccc2)c(S(=O)(=O)[N-]Cc2ccc(C(=O)[N-]C3CC3)cc2)c(C)n1C (nonaromatic ring conformer: 360.09318250703467 kcal/mol)

>  <smiles>  (22) 
Cc1c(C(=O)NCc2ccccc2)c(S(=O)(=O)NCc2ccc(C(=O)NC3CC3)cc2)c(C)n1C

>  <score_type>  (22) 
oracle

>  <origin>  (22) 
adg

>  <m_score__min__energy>  (22) 
-13.220000000000001

>  <m_primary>  (22) 
energy

$$$$
22:0
     RDKit          3D

 39 41  0  0  0  0  0  0  0  0999 V2000
   56.0569   30.7538   42.9079 H   0  0  0  0  0  0  0  0  0  0  0  0
   56.1470   29.7190   43.2700 C   0  0  0  0  0  0  0  0  0  0  0  0
   55.6682   28.8986   42.7153 H   0  0  0  0  0  0  0  0  0  0  0  0
   56.8370   29.4590   44.3820 C   0  0  0  0  0  0  0  0  0  0  0  0
   57.4550   30.3910   45.2070 C   0  0  0  0  0  0  0  0  0  0  0  0
   57.5260   31.8540   45.0160 C   0  0  0  0  0  0  0  0  0  0  0  0
   56.5040   32.5510   45.2500 O   0  0  0  0  0  0  0  0  0  0  0  0
   58.7260   32.5110   44.5840 N   0  0  0  0  0  0  0  0  0  0  0  0
   59.1320   33.8660   44.9470 C   0  0  0  0  0  0  0  0  0  0  0  0
   60.0414   34.1314   44.3879 H   0  0  0  0  0  0  0  0  0  0  0  0
   58.3128   34.5568   44.6985 H   0  0  0  0  0  0  0  0  0  0  0  0
   59.4190   33.9670   46.4490 C   0  0  0  0  0  0  0  0  0  0  0  0
   59.5294   35.0258   46.7261 H   0  0  0  0  0  0  0  0  0  0  0  0
   58.5823   33.5157   47.0024 H   0  0  0  0  0  0  0  0  0  0  0  0
   60.6850   33.2300   46.7940 C   0  0  0  0  0  0  0  0  0  0  0  0
   61.9210   33.8980   46.7580 C   0  0  0  0  0  0  0  0  0  0  0  0
   61.9655   34.9532   46.4505 H   0  0  0  0  0  0  0  0  0  0  0  0
   63.0940   33.2250   47.1120 C   0  0  0  0  0  0  0  0  0  0  0  0
   64.0603   33.7492   47.0749 H   0  0  0  0  0  0  0  0  0  0  0  0
   63.0410   31.8870   47.5130 C   0  0  0  0  0  0  0  0  0  0  0  0
   63.9656   31.3581   47.7877 H   0  0  0  0  0  0  0  0  0  0  0  0
   61.8130   31.2210   47.5650 C   0  0  0  0  0  0  0  0  0  0  0  0
   61.7722   30.1689   47.8833 H   0  0  0  0  0  0  0  0  0  0  0  0
   60.6360   31.8900   47.2130 C   0  0  0  0  0  0  0  0  0  0  0  0
   59.6703   31.3659   47.2644 H   0  0  0  0  0  0  0  0  0  0  0  0
   58.0150   29.6780   46.2520 C   0  0  0  0  0  0  0  0  0  0  0  0
   58.5867   30.0868   47.0982 H   0  0  0  0  0  0  0  0  0  0  0  0
   57.7120   28.3470   46.0200 C   0  0  0  0  0  0  0  0  0  0  0  0
   58.0510   27.3430   46.8430 C   0  0  0  0  0  0  0  0  0  0  0  0
   58.9307   27.4808   47.4889 H   0  0  0  0  0  0  0  0  0  0  0  0
   57.3200   26.0690   46.9360 C   0  0  0  0  0  0  0  0  0  0  0  0
   57.8900   24.9180   47.3350 N   0  0  0  0  0  0  0  0  0  0  0  0
   56.9010   24.0100   47.1880 C   0  0  0  0  0  0  0  0  0  0  0  0
   57.0490   22.7950   47.4780 O   0  0  0  0  0  0  0  0  0  0  0  0
   55.7450   24.5050   46.6980 N   0  0  0  0  0  0  0  0  0  0  0  0
   56.0290   25.8070   46.5310 C   0  0  0  0  0  0  0  0  0  0  0  0
   55.1430   26.7220   45.9770 O   0  0  0  0  0  0  0  0  0  0  0  0
   56.9900   28.2180   44.8850 N   0  0  0  0  0  0  0  0  0  0  0  0
   56.5750   27.3450   44.4910 H   0  0  0  0  0  0  0  0  0  0  0  0
  1  2  1  0
  2  3  1  0
  2  4  2  0
  4  5  1  0
  5  6  1  0
  6  7  2  0
  6  8  1  0
  8  9  1  0
  9 10  1  0
  9 11  1  0
  9 12  1  0
 12 13  1  0
 12 14  1  0
 12 15  1  0
 15 16  2  0
 16 17  1  0
 16 18  1  0
 18 19  1  0
 18 20  2  0
 20 21  1  0
 20 22  1  0
 22 23  1  0
 22 24  2  0
 24 25  1  0
  5 26  2  0
 26 27  1  0
 26 28  1  0
 28 29  2  0
 29 30  1  0
 29 31  1  0
 31 32  1  0
 32 33  1  0
 33 34  2  0
 33 35  1  0
 35 36  1  0
 36 37  1  0
 28 38  1  0
 38 39  1  0
 38  4  1  0
 24 15  1  0
 36 31  2  0
M  CHG  4   8  -1  32  -1  35  -1  37  -1
M  END
>  <UniqueID>  (23) 
22

>  <SMILES>  (23) 
C=c1[nH]/c(=C\c2[n-]c(=O)[n-]c2[O-])cc1C(=O)[N-]CCc1ccccc1

>  <Energy>  (23) 
102.88162321583188

>  <Genealogy>  (23) 
C=c1[nH]c(=Cc2[n-]c(=O)[n-]c2[O-])cc1C(=O)[N-]CCc1ccccc1 (protonated)
C=c1[nH]/c(=C\c2[n-]c(=O)[n-]c2[O-])cc1C(=O)[N-]CCc1ccccc1 (cis-trans isomerization)
C=c1[nH]/c(=C\c2[n-]c(=O)[n-]c2[O-])cc1C(=O)[N-]CCc1ccccc1 (3D coordinates assigned)
C=c1[nH]/c(=C\c2[n-]c(=O)[n-]c2[O-])cc1C(=O)[N-]CCc1ccccc1 (optimized conformer: 102.88162321583188 kcal/mol)

>  <smiles>  (23) 
C=c1[nH]c(=Cc2[nH]c(=O)[nH]c2O)cc1C(=O)NCCc1ccccc1

>  <score_type>  (23) 
oracle

>  <origin>  (23) 
adg

>  <m_score__min__energy>  (23) 
-18.149999999999999

>  <m_primary>  (23) 
energy

$$$$
23:0
     RDKit          3D

 65 69  0  0  0  0  0  0  0  0999 V2000
   63.7920   33.6270   49.4470 C   0  0  0  0  0  0  0  0  0  0  0  0
   62.5260   32.9250   49.8880 C   0  0  0  0  0  0  0  0  0  0  0  0
   61.9530   31.9340   49.1490 C   0  0  0  0  0  0  0  0  0  0  0  0
   62.5540   31.4420   47.8810 C   0  0  0  0  0  0  0  0  0  0  0  0
   63.8030   31.4350   47.7080 O   0  0  0  0  0  0  0  0  0  0  0  0
   61.6830   30.8330   46.8270 C   0  0  0  0  0  0  0  0  0  0  0  0
   60.2190   31.3300   46.8870 C   0  0  2  0  0  0  0  0  0  0  0  0
   60.0150   32.6040   46.0040 C   0  0  2  0  0  0  0  0  0  0  0  0
   60.8350   33.8370   46.4300 C   0  0  0  0  0  0  0  0  0  0  0  0
   59.9330   35.0580   46.2880 C   0  0  0  0  0  0  0  0  0  0  0  0
   58.6380   34.5850   45.6480 C   0  0  0  0  0  0  0  0  0  0  0  0
   58.5360   33.0670   45.9070 C   0  0  1  0  0  0  0  0  0  0  0  0
   57.7940   32.3670   44.7320 C   0  0  0  0  0  0  0  0  0  0  0  0
   56.6860   31.6350   45.2010 O   0  0  0  0  0  0  0  0  0  0  0  0
   56.5740   30.1840   44.3310 S   0  0  0  0  0  0  0  0  0  0  0  0
   56.3090   30.4910   42.8830 O   0  0  0  0  0  0  0  0  0  0  0  0
   55.4540   29.3380   44.8710 O   0  0  0  0  0  0  0  0  0  0  0  0
   58.0920   29.3230   44.4540 N   0  0  0  0  0  0  0  0  0  0  0  0
   58.4790   29.1140   45.8600 C   0  0  0  0  0  0  0  0  0  0  0  0
   57.6140   28.0320   46.5500 C   0  0  0  0  0  0  0  0  0  0  0  0
   56.9470   27.1730   45.6400 O   0  0  0  0  0  0  0  0  0  0  0  0
   57.8020   26.8290   44.5740 C   0  0  0  0  0  0  0  0  0  0  0  0
   58.0710   28.0590   43.6860 C   0  0  0  0  0  0  0  0  0  0  0  0
   57.7450   32.7800   47.2270 C   0  0  0  0  0  0  0  0  0  0  0  0
   58.6380   32.6370   48.4640 C   0  0  0  0  0  0  0  0  0  0  0  0
   59.5900   31.4150   48.3360 C   0  0  2  0  0  0  0  0  0  0  0  0
   60.6180   31.2870   49.5390 C   0  0  1  0  0  0  0  0  0  0  0  0
   60.8800   29.7960   49.8700 C   0  0  0  0  0  0  0  0  0  0  0  0
   60.0180   31.8560   50.8220 C   0  0  0  0  0  0  0  0  0  0  0  0
   60.6130   32.7870   51.5590 C   0  0  0  0  0  0  0  0  0  0  0  0
   61.8930   33.3520   51.1540 C   0  0  0  0  0  0  0  0  0  0  0  0
   62.4440   34.2070   51.8970 O   0  0  0  0  0  0  0  0  0  0  0  0
   64.3631   33.9437   50.3322 H   0  0  0  0  0  0  0  0  0  0  0  0
   64.4021   32.9383   48.8441 H   0  0  0  0  0  0  0  0  0  0  0  0
   63.5310   34.5093   48.8441 H   0  0  0  0  0  0  0  0  0  0  0  0
   62.0984   31.0862   45.8404 H   0  0  0  0  0  0  0  0  0  0  0  0
   61.6679   29.7470   47.0015 H   0  0  0  0  0  0  0  0  0  0  0  0
   59.6109   30.5339   46.4326 H   0  0  0  0  0  0  0  0  0  0  0  0
   60.3781   32.2488   45.0283 H   0  0  0  0  0  0  0  0  0  0  0  0
   61.1596   33.7293   47.4755 H   0  0  0  0  0  0  0  0  0  0  0  0
   61.7316   33.9422   45.8015 H   0  0  0  0  0  0  0  0  0  0  0  0
   59.7281   35.4928   47.2774 H   0  0  0  0  0  0  0  0  0  0  0  0
   60.4148   35.8311   45.6715 H   0  0  0  0  0  0  0  0  0  0  0  0
   57.7807   35.1042   46.1013 H   0  0  0  0  0  0  0  0  0  0  0  0
   58.6309   34.8009   44.5694 H   0  0  0  0  0  0  0  0  0  0  0  0
   57.4461   33.1302   44.0203 H   0  0  0  0  0  0  0  0  0  0  0  0
   58.4912   31.6723   44.2408 H   0  0  0  0  0  0  0  0  0  0  0  0
   59.5327   28.8002   45.8944 H   0  0  0  0  0  0  0  0  0  0  0  0
   58.3257   30.0618   46.3968 H   0  0  0  0  0  0  0  0  0  0  0  0
   58.2671   27.4208   47.1902 H   0  0  0  0  0  0  0  0  0  0  0  0
   56.8378   28.5579   47.1252 H   0  0  0  0  0  0  0  0  0  0  0  0
   58.7553   26.4581   44.9786 H   0  0  0  0  0  0  0  0  0  0  0  0
   57.3208   26.0479   43.9671 H   0  0  0  0  0  0  0  0  0  0  0  0
   59.0457   27.9306   43.1926 H   0  0  0  0  0  0  0  0  0  0  0  0
   57.2515   28.1273   42.9554 H   0  0  0  0  0  0  0  0  0  0  0  0
   57.0444   33.6104   47.3991 H   0  0  0  0  0  0  0  0  0  0  0  0
   57.2309   31.8172   47.0897 H   0  0  0  0  0  0  0  0  0  0  0  0
   59.2406   33.5501   48.5782 H   0  0  0  0  0  0  0  0  0  0  0  0
   57.9929   32.4837   49.3417 H   0  0  0  0  0  0  0  0  0  0  0  0
   58.9845   30.5028   48.4422 H   0  0  0  0  0  0  0  0  0  0  0  0
   60.9037   29.6614   50.9615 H   0  0  0  0  0  0  0  0  0  0  0  0
   60.0766   29.1787   49.4417 H   0  0  0  0  0  0  0  0  0  0  0  0
   61.8458   29.4896   49.4417 H   0  0  0  0  0  0  0  0  0  0  0  0
   59.0410   31.4748   51.1538 H   0  0  0  0  0  0  0  0  0  0  0  0
   60.1337   33.1354   52.4858 H   0  0  0  0  0  0  0  0  0  0  0  0
  1  2  1  0
  2  3  2  0
  3  4  1  0
  4  5  2  0
  4  6  1  0
  6  7  1  0
  7  8  1  0
  8  9  1  0
  9 10  1  0
 10 11  1  0
 11 12  1  0
 12 13  1  6
 13 14  1  0
 14 15  1  0
 15 16  2  0
 15 17  2  0
 15 18  1  0
 18 19  1  0
 19 20  1  0
 20 21  1  0
 21 22  1  0
 22 23  1  0
 12 24  1  0
 24 25  1  0
 25 26  1  0
 26 27  1  0
 27 28  1  1
 27 29  1  0
 29 30  2  0
 30 31  1  0
 31 32  2  0
 31  2  1  0
 27  3  1  0
 26  7  1  0
 12  8  1  0
 23 18  1  0
  1 33  1  0
  1 34  1  0
  1 35  1  0
  6 36  1  0
  6 37  1  0
  7 38  1  6
  8 39  1  6
  9 40  1  0
  9 41  1  0
 10 42  1  0
 10 43  1  0
 11 44  1  0
 11 45  1  0
 13 46  1  0
 13 47  1  0
 19 48  1  0
 19 49  1  0
 20 50  1  0
 20 51  1  0
 22 52  1  0
 22 53  1  0
 23 54  1  0
 23 55  1  0
 24 56  1  0
 24 57  1  0
 25 58  1  0
 25 59  1  0
 26 60  1  1
 28 61  1  0
 28 62  1  0
 28 63  1  0
 29 64  1  0
 30 65  1  0
M  END
>  <UniqueID>  (24) 
23

>  <SMILES>  (24) 
CC1=C2C(=O)C[C@H]3C(CCC4(COS(=O)(=O)N5CCOCC5)CCC[C@@H]34)C2(C)C=CC1=O

>  <Energy>  (24) 
107.29539906432127

>  <Genealogy>  (24) 
CC1=C2C(=O)C[C@H]3C(CCC4(COS(=O)(=O)N5CCOCC5)CCC[C@@H]34)C2(C)C=CC1=O (chirality)
CC1=C2C(=O)C[C@H]3C(CCC4(COS(=O)(=O)N5CCOCC5)CCC[C@@H]34)C2(C)C=CC1=O (3D coordinates assigned)
CC1=C2C(=O)C[C@H]3C(CCC4(COS(=O)(=O)N5CCOCC5)CCC[C@@H]34)C2(C)C=CC1=O (nonaromatic ring conformer: 107.29539906432127 kcal/mol)

>  <smiles>  (24) 
CC1=C2C(=O)CC3C4CCCC4(COS(=O)(=O)N4CCOCC4)CCC3C2(C)C=CC1=O

>  <score_type>  (24) 
oracle

>  <origin>  (24) 
adg

>  <m_score__min__energy>  (24) 
-11.17

>  <m_primary>  (24) 
energy

$$$$
24:0
     RDKit          3D

 42 44  0  0  0  0  0  0  0  0999 V2000
   57.7940   32.2130   42.4660 C   0  0  0  0  0  0  0  0  0  0  0  0
   57.7020   32.2520   43.8000 C   0  0  0  0  0  0  0  0  0  0  0  0
   57.8900   33.5540   44.5320 C   0  0  0  0  0  0  0  0  0  0  0  0
   58.7630   33.3500   45.7470 C   0  0  0  0  0  0  0  0  0  0  0  0
   59.6050   34.4680   46.2430 C   0  0  0  0  0  0  0  0  0  0  0  0
   59.6490   35.5540   45.6030 O   0  0  0  0  0  0  0  0  0  0  0  0
   60.4150   34.2750   47.4140 N   0  0  0  0  0  0  0  0  0  0  0  0
   61.6410   33.8370   47.4860 C   0  0  0  0  0  0  0  0  0  0  0  0
   62.4720   33.6320   46.4360 N   0  0  0  0  0  0  0  0  0  0  0  0
   63.6980   33.1980   46.8340 C   0  0  0  0  0  0  0  0  0  0  0  0
   63.8530   33.0630   48.2100 C   0  0  0  0  0  0  0  0  0  0  0  0
   62.4040   33.5050   48.9440 S   0  0  0  0  0  0  0  0  0  0  0  0
   58.7280   32.1770   46.4060 C   0  0  0  0  0  0  0  0  0  0  0  0
   57.8030   31.0560   46.0120 C   0  0  0  0  0  0  0  0  0  0  0  0
   57.4680   31.0610   44.5830 N   0  0  0  0  0  0  0  0  0  0  0  0
   56.5940   29.7010   43.9220 S   0  0  0  0  0  0  0  0  0  0  0  0
   55.4890   29.3180   44.8680 O   0  0  0  0  0  0  0  0  0  0  0  0
   55.9920   30.0950   42.6030 O   0  0  0  0  0  0  0  0  0  0  0  0
   57.6270   28.2430   43.7300 C   0  0  0  0  0  0  0  0  0  0  0  0
   58.5660   28.0390   44.8920 C   0  0  0  0  0  0  0  0  0  0  0  0
   59.8410   28.6340   44.8930 C   0  0  0  0  0  0  0  0  0  0  0  0
   60.7030   28.4540   45.9790 C   0  0  0  0  0  0  0  0  0  0  0  0
   60.2960   27.6930   47.0780 C   0  0  0  0  0  0  0  0  0  0  0  0
   59.0230   27.1170   47.0960 C   0  0  0  0  0  0  0  0  0  0  0  0
   58.1590   27.2940   46.0110 C   0  0  0  0  0  0  0  0  0  0  0  0
   57.6563   31.2608   41.9328 H   0  0  0  0  0  0  0  0  0  0  0  0
   58.0073   33.1332   41.9023 H   0  0  0  0  0  0  0  0  0  0  0  0
   58.3674   34.2825   43.8602 H   0  0  0  0  0  0  0  0  0  0  0  0
   56.9075   33.9279   44.8557 H   0  0  0  0  0  0  0  0  0  0  0  0
   62.2530   33.8070   45.4330 H   0  0  0  0  0  0  0  0  0  0  0  0
   64.5054   32.9710   46.1223 H   0  0  0  0  0  0  0  0  0  0  0  0
   64.7633   32.7263   48.7278 H   0  0  0  0  0  0  0  0  0  0  0  0
   59.4002   32.0318   47.2645 H   0  0  0  0  0  0  0  0  0  0  0  0
   58.2892   30.0995   46.2542 H   0  0  0  0  0  0  0  0  0  0  0  0
   56.8647   31.1939   46.5693 H   0  0  0  0  0  0  0  0  0  0  0  0
   56.9769   27.3599   43.6434 H   0  0  0  0  0  0  0  0  0  0  0  0
   58.2402   28.3862   42.8281 H   0  0  0  0  0  0  0  0  0  0  0  0
   60.1612   29.2437   44.0353 H   0  0  0  0  0  0  0  0  0  0  0  0
   61.7030   28.9121   45.9683 H   0  0  0  0  0  0  0  0  0  0  0  0
   60.9777   27.5474   47.9289 H   0  0  0  0  0  0  0  0  0  0  0  0
   58.7004   26.5239   47.9644 H   0  0  0  0  0  0  0  0  0  0  0  0
   57.1542   26.8470   46.0339 H   0  0  0  0  0  0  0  0  0  0  0  0
  1  2  2  0
  2  3  1  0
  3  4  1  0
  4  5  1  0
  5  6  2  0
  5  7  1  0
  7  8  2  3
  8  9  1  0
  9 10  1  0
 10 11  2  0
 11 12  1  0
  4 13  2  0
 13 14  1  0
 14 15  1  0
 15 16  1  0
 16 17  2  0
 16 18  2  0
 16 19  1  0
 19 20  1  0
 20 21  2  0
 21 22  1  0
 22 23  2  0
 23 24  1  0
 24 25  2  0
 15  2  1  0
 25 20  1  0
 12  8  1  0
  1 26  1  0
  1 27  1  0
  3 28  1  0
  3 29  1  0
  9 30  1  0
 10 31  1  0
 11 32  1  0
 13 33  1  0
 14 34  1  0
 14 35  1  0
 19 36  1  0
 19 37  1  0
 21 38  1  0
 22 39  1  0
 23 40  1  0
 24 41  1  0
 25 42  1  0
M  END
>  <UniqueID>  (25) 
24

>  <SMILES>  (25) 
C=C1CC(C(=O)N=c2[nH]ccs2)=CCN1S(=O)(=O)Cc1ccccc1

>  <Energy>  (25) 
81.24535461481226

>  <Genealogy>  (25) 
C=C1CC(C(=O)N=c2[nH]ccs2)=CCN1S(=O)(=O)Cc1ccccc1 (3D coordinates assigned)
C=C1CC(C(=O)N=c2[nH]ccs2)=CCN1S(=O)(=O)Cc1ccccc1 (nonaromatic ring conformer: 81.24535461481226 kcal/mol)

>  <smiles>  (25) 
C=C1CC(C(=O)N=c2[nH]ccs2)=CCN1S(=O)(=O)Cc1ccccc1

>  <score_type>  (25) 
oracle

>  <origin>  (25) 
adg

>  <m_score__min__energy>  (25) 
-9.2699999999999996

>  <m_primary>  (25) 
energy

$$$$
25:0
     RDKit          3D

 67 70  0  0  0  0  0  0  0  0999 V2000
   67.4440   33.1350   50.5030 C   0  0  0  0  0  0  0  0  0  0  0  0
   66.3080   32.4600   50.6870 C   0  0  0  0  0  0  0  0  0  0  0  0
   64.9750   33.0830   50.3760 C   0  0  0  0  0  0  0  0  0  0  0  0
   64.7770   33.1820   48.9300 N   0  0  0  0  0  0  0  0  0  0  0  0
   63.5030   33.3960   48.2910 C   0  0  0  0  0  0  0  0  0  0  0  0
   63.3950   33.6320   46.9060 C   0  0  0  0  0  0  0  0  0  0  0  0
   62.1410   33.8210   46.3170 C   0  0  0  0  0  0  0  0  0  0  0  0
   60.9800   33.7860   47.1000 C   0  0  0  0  0  0  0  0  0  0  0  0
   59.3950   34.0220   46.3580 S   0  0  0  0  0  0  0  0  0  0  0  0
   59.5710   34.7240   45.0410 O   0  0  0  0  0  0  0  0  0  0  0  0
   58.5570   34.9030   47.2410 O   0  0  0  0  0  0  0  0  0  0  0  0
   58.5770   32.5030   46.0850 N   0  0  0  0  0  0  0  0  0  0  0  0
   58.1830   32.3930   44.6780 C   0  0  0  0  0  0  0  0  0  0  0  0
   57.1850   31.2510   44.5430 C   0  0  0  0  0  0  0  0  0  0  0  0
   57.5470   30.1010   45.3850 N   0  0  0  0  0  0  0  0  0  0  0  0
   56.6630   28.9630   45.4060 C   0  0  0  0  0  0  0  0  0  0  0  0
   55.5380   29.0310   44.8350 O   0  0  0  0  0  0  0  0  0  0  0  0
   57.0260   27.8050   46.1110 O   0  0  0  0  0  0  0  0  0  0  0  0
   56.9370   26.5020   45.6010 C   0  0  0  0  0  0  0  0  0  0  0  0
   55.7150   25.8250   45.6890 C   0  0  0  0  0  0  0  0  0  0  0  0
   55.5770   24.5380   45.1610 C   0  0  0  0  0  0  0  0  0  0  0  0
   56.6680   23.9070   44.5470 C   0  0  0  0  0  0  0  0  0  0  0  0
   56.4850   22.3110   43.8180 S   0  0  0  0  0  0  0  0  0  0  0  0
   57.8260   21.8300   43.3360 O   0  0  0  0  0  0  0  0  0  0  0  0
   55.5840   22.4270   42.6190 O   0  0  0  0  0  0  0  0  0  0  0  0
   55.8090   21.1370   44.9300 N   0  0  0  0  0  0  0  0  0  0  0  0
   55.1670   21.7640   46.1050 C   0  0  0  0  0  0  0  0  0  0  0  0
   56.0590   21.7450   47.3590 C   0  0  0  0  0  0  0  0  0  0  0  0
   57.4190   21.7370   46.9990 O   0  0  0  0  0  0  0  0  0  0  0  0
   57.7500   20.4980   46.4030 C   0  0  0  0  0  0  0  0  0  0  0  0
   56.7670   20.0750   45.2860 C   0  0  0  0  0  0  0  0  0  0  0  0
   57.9070   24.5610   44.5040 C   0  0  0  0  0  0  0  0  0  0  0  0
   58.0430   25.8480   45.0300 C   0  0  0  0  0  0  0  0  0  0  0  0
   58.8590   30.0060   46.0500 C   0  0  0  0  0  0  0  0  0  0  0  0
   59.4580   31.3790   46.4390 C   0  0  0  0  0  0  0  0  0  0  0  0
   61.0850   33.5640   48.4780 C   0  0  0  0  0  0  0  0  0  0  0  0
   62.3350   33.3680   49.0680 C   0  0  0  0  0  0  0  0  0  0  0  0
   68.4091   32.6616   50.7365 H   0  0  0  0  0  0  0  0  0  0  0  0
   67.4156   34.1650   50.1178 H   0  0  0  0  0  0  0  0  0  0  0  0
   66.3470   31.4306   51.0726 H   0  0  0  0  0  0  0  0  0  0  0  0
   64.1763   32.4624   50.8085 H   0  0  0  0  0  0  0  0  0  0  0  0
   64.9473   34.0945   50.8075 H   0  0  0  0  0  0  0  0  0  0  0  0
   65.6260   33.0900   48.3250 H   0  0  0  0  0  0  0  0  0  0  0  0
   64.3021   33.6677   46.2848 H   0  0  0  0  0  0  0  0  0  0  0  0
   62.0659   33.9980   45.2339 H   0  0  0  0  0  0  0  0  0  0  0  0
   57.7173   33.3335   44.3486 H   0  0  0  0  0  0  0  0  0  0  0  0
   59.0670   32.1965   44.0536 H   0  0  0  0  0  0  0  0  0  0  0  0
   56.1900   31.6115   44.8429 H   0  0  0  0  0  0  0  0  0  0  0  0
   57.1883   30.9189   43.4943 H   0  0  0  0  0  0  0  0  0  0  0  0
   54.8566   26.3094   46.1774 H   0  0  0  0  0  0  0  0  0  0  0  0
   54.6095   24.0188   45.2275 H   0  0  0  0  0  0  0  0  0  0  0  0
   54.9305   22.8097   45.8589 H   0  0  0  0  0  0  0  0  0  0  0  0
   54.2626   21.1818   46.3356 H   0  0  0  0  0  0  0  0  0  0  0  0
   55.8506   22.6394   47.9645 H   0  0  0  0  0  0  0  0  0  0  0  0
   55.8396   20.8349   47.9366 H   0  0  0  0  0  0  0  0  0  0  0  0
   58.7580   20.5771   45.9697 H   0  0  0  0  0  0  0  0  0  0  0  0
   57.6969   19.7325   47.1912 H   0  0  0  0  0  0  0  0  0  0  0  0
   57.3474   19.8114   44.3895 H   0  0  0  0  0  0  0  0  0  0  0  0
   56.1862   19.2210   45.6646 H   0  0  0  0  0  0  0  0  0  0  0  0
   58.7760   24.0586   44.0541 H   0  0  0  0  0  0  0  0  0  0  0  0
   59.0201   26.3522   44.9973 H   0  0  0  0  0  0  0  0  0  0  0  0
   58.7426   29.4058   46.9645 H   0  0  0  0  0  0  0  0  0  0  0  0
   59.5519   29.5440   45.3314 H   0  0  0  0  0  0  0  0  0  0  0  0
   59.6281   31.3937   47.5257 H   0  0  0  0  0  0  0  0  0  0  0  0
   60.3966   31.5030   45.8790 H   0  0  0  0  0  0  0  0  0  0  0  0
   60.1776   33.5439   49.0995 H   0  0  0  0  0  0  0  0  0  0  0  0
   62.4048   33.1901   50.1513 H   0  0  0  0  0  0  0  0  0  0  0  0
  1  2  2  0
  2  3  1  0
  3  4  1  0
  4  5  1  0
  5  6  2  0
  6  7  1  0
  7  8  2  0
  8  9  1  0
  9 10  2  0
  9 11  2  0
  9 12  1  0
 12 13  1  0
 13 14  1  0
 14 15  1  0
 15 16  1  0
 16 17  2  0
 16 18  1  0
 18 19  1  0
 19 20  2  0
 20 21  1  0
 21 22  2  0
 22 23  1  0
 23 24  2  0
 23 25  2  0
 23 26  1  0
 26 27  1  0
 27 28  1  0
 28 29  1  0
 29 30  1  0
 30 31  1  0
 22 32  1  0
 32 33  2  0
 15 34  1  0
 34 35  1  0
  8 36  1  0
 36 37  2  0
 37  5  1  0
 35 12  1  0
 33 19  1  0
 31 26  1  0
  1 38  1  0
  1 39  1  0
  2 40  1  0
  3 41  1  0
  3 42  1  0
  4 43  1  0
  6 44  1  0
  7 45  1  0
 13 46  1  0
 13 47  1  0
 14 48  1  0
 14 49  1  0
 20 50  1  0
 21 51  1  0
 27 52  1  0
 27 53  1  0
 28 54  1  0
 28 55  1  0
 30 56  1  0
 30 57  1  0
 31 58  1  0
 31 59  1  0
 32 60  1  0
 33 61  1  0
 34 62  1  0
 34 63  1  0
 35 64  1  0
 35 65  1  0
 36 66  1  0
 37 67  1  0
M  END
>  <UniqueID>  (26) 
25

>  <SMILES>  (26) 
C=CCNc1ccc(S(=O)(=O)N2CCN(C(=O)Oc3ccc(S(=O)(=O)N4CCOCC4)cc3)CC2)cc1

>  <Energy>  (26) 
83.73138205880993

>  <Genealogy>  (26) 
C=CCNc1ccc(S(=O)(=O)N2CCN(C(=O)Oc3ccc(S(=O)(=O)N4CCOCC4)cc3)CC2)cc1 (3D coordinates assigned)
C=CCNc1ccc(S(=O)(=O)N2CCN(C(=O)Oc3ccc(S(=O)(=O)N4CCOCC4)cc3)CC2)cc1 (nonaromatic ring conformer: 83.73138205880993 kcal/mol)

>  <smiles>  (26) 
C=CCNc1ccc(S(=O)(=O)N2CCN(C(=O)Oc3ccc(S(=O)(=O)N4CCOCC4)cc3)CC2)cc1

>  <score_type>  (26) 
oracle

>  <origin>  (26) 
adg

>  <m_score__min__energy>  (26) 
-10.83

>  <m_primary>  (26) 
energy

$$$$
26:0
     RDKit          3D

 62 65  0  0  1  0  0  0  0  0999 V2000
   59.6620   35.5620   45.6090 C   0  0  0  0  0  0  0  0  0  0  0  0
   58.7480   34.3790   45.4120 C   0  0  0  0  0  0  0  0  0  0  0  0
   58.8870   33.6850   44.1020 C   0  0  0  0  0  0  0  0  0  0  0  0
   57.3950   34.7790   45.5090 O   0  0  0  0  0  0  0  0  0  0  0  0
   56.6480   33.6560   45.8140 C   0  0  0  0  0  0  0  0  0  0  0  0
   57.6300   32.5860   46.3150 C   0  0  0  0  0  0  0  0  0  0  0  0
   58.8100   33.4750   46.6190 C   0  0  1  0  0  0  0  0  0  0  0  0
   60.0300   32.7560   46.7910 N   0  0  0  0  0  0  0  0  0  0  0  0
   60.1920   31.9340   47.9180 C   0  0  0  0  0  0  0  0  0  0  0  0
   59.1840   31.9610   48.7310 O   0  0  0  0  0  0  0  0  0  0  0  0
   61.3450   31.0840   48.2240 C   0  0  0  0  0  0  0  0  0  0  0  0
   61.1500   29.7880   48.0170 C   0  0  0  0  0  0  0  0  0  0  0  0
   60.2400   29.1860   47.0790 C   0  0  0  0  0  0  0  0  0  0  0  0
   60.7180   28.9660   45.7860 C   0  0  0  0  0  0  0  0  0  0  0  0
   59.9850   28.3190   44.8320 C   0  0  0  0  0  0  0  0  0  0  0  0
   58.7220   27.8770   45.1980 C   0  0  0  0  0  0  0  0  0  0  0  0
   57.9900   27.1510   44.1390 C   0  0  0  0  0  0  0  0  0  0  0  0
   57.8880   25.9040   44.1180 O   0  0  0  0  0  0  0  0  0  0  0  0
   57.4050   28.0020   43.1330 N   0  0  0  0  0  0  0  0  0  0  0  0
   57.0040   29.1990   43.4810 C   0  0  0  0  0  0  0  0  0  0  0  0
   56.0420   29.4330   44.4000 N   0  0  0  0  0  0  0  0  0  0  0  0
   55.8480   30.7150   44.5360 N   0  0  0  0  0  0  0  0  0  0  0  0
   56.6880   31.3380   43.6990 N   0  0  0  0  0  0  0  0  0  0  0  0
   57.3950   30.3910   43.0550 N   0  0  0  0  0  0  0  0  0  0  0  0
   58.2060   28.0700   46.4510 C   0  0  0  0  0  0  0  0  0  0  0  0
   58.9590   28.7320   47.4200 C   0  0  0  0  0  0  0  0  0  0  0  0
   62.5770   31.5610   48.8010 C   0  0  0  0  0  0  0  0  0  0  0  0
   63.3720   32.5520   48.2420 C   0  0  0  0  0  0  0  0  0  0  0  0
   64.4810   33.0790   48.8640 C   0  0  0  0  0  0  0  0  0  0  0  0
   64.8760   32.6390   50.1080 C   0  0  0  0  0  0  0  0  0  0  0  0
   66.2590   33.2500   50.9650 S   0  0  0  0  0  0  0  0  0  0  0  0
   66.6150   32.1890   52.3530 C   0  0  0  0  0  0  0  0  0  0  0  0
   65.9450   34.6070   51.5410 O   0  0  0  0  0  0  0  0  0  0  0  0
   67.4260   33.3860   50.0360 O   0  0  0  0  0  0  0  0  0  0  0  0
   64.1130   31.6580   50.6930 C   0  0  0  0  0  0  0  0  0  0  0  0
   62.9990   31.1310   50.0710 C   0  0  0  0  0  0  0  0  0  0  0  0
   59.8014   35.7424   46.6851 H   0  0  0  0  0  0  0  0  0  0  0  0
   60.6364   35.3542   45.1428 H   0  0  0  0  0  0  0  0  0  0  0  0
   59.2149   36.4524   45.1428 H   0  0  0  0  0  0  0  0  0  0  0  0
   59.1004   32.6194   44.2724 H   0  0  0  0  0  0  0  0  0  0  0  0
   57.9510   33.7850   43.5329 H   0  0  0  0  0  0  0  0  0  0  0  0
   59.7123   34.1378   43.5329 H   0  0  0  0  0  0  0  0  0  0  0  0
   55.9140   33.8921   46.5985 H   0  0  0  0  0  0  0  0  0  0  0  0
   56.0961   33.3000   44.9316 H   0  0  0  0  0  0  0  0  0  0  0  0
   57.2577   32.0725   47.2137 H   0  0  0  0  0  0  0  0  0  0  0  0
   57.8271   31.7596   45.6163 H   0  0  0  0  0  0  0  0  0  0  0  0
   58.7753   34.0132   47.5777 H   0  0  0  0  0  0  0  0  0  0  0  0
   60.7840   32.8790   46.1080 H   0  0  0  0  0  0  0  0  0  0  0  0
   61.7495   29.0984   48.6294 H   0  0  0  0  0  0  0  0  0  0  0  0
   61.7236   29.3276   45.5253 H   0  0  0  0  0  0  0  0  0  0  0  0
   60.3789   28.1556   43.8180 H   0  0  0  0  0  0  0  0  0  0  0  0
   56.7630   32.3810   43.5850 H   0  0  0  0  0  0  0  0  0  0  0  0
   58.1410   30.5650   42.3260 H   0  0  0  0  0  0  0  0  0  0  0  0
   57.1978   27.7030   46.6934 H   0  0  0  0  0  0  0  0  0  0  0  0
   58.5560   28.8944   48.4306 H   0  0  0  0  0  0  0  0  0  0  0  0
   63.1010   32.9371   47.2479 H   0  0  0  0  0  0  0  0  0  0  0  0
   65.0617   33.8650   48.3590 H   0  0  0  0  0  0  0  0  0  0  0  0
   66.4314   32.7362   53.2894 H   0  0  0  0  0  0  0  0  0  0  0  0
   65.9651   31.3024   52.3130 H   0  0  0  0  0  0  0  0  0  0  0  0
   67.6681   31.8738   52.3130 H   0  0  0  0  0  0  0  0  0  0  0  0
   64.3981   31.2812   51.6864 H   0  0  0  0  0  0  0  0  0  0  0  0
   62.4224   30.3486   50.5863 H   0  0  0  0  0  0  0  0  0  0  0  0
  1  2  1  0
  2  3  1  0
  2  4  1  0
  4  5  1  0
  5  6  1  0
  6  7  1  0
  7  8  1  0
  8  9  1  0
  9 10  2  0
  9 11  1  0
 11 12  2  0
 12 13  1  0
 13 14  2  0
 14 15  1  0
 15 16  2  0
 16 17  1  0
 17 18  2  0
 17 19  1  0
 19 20  2  3
 20 21  1  0
 21 22  2  0
 22 23  1  0
 23 24  1  0
 16 25  1  0
 25 26  2  0
 11 27  1  0
 27 28  2  0
 28 29  1  0
 29 30  2  0
 30 31  1  0
 31 32  1  0
 31 33  2  0
 31 34  2  0
 30 35  1  0
 35 36  2  0
  7  2  1  0
 26 13  1  0
 36 27  1  0
 24 20  1  0
  1 37  1  0
  1 38  1  0
  1 39  1  0
  3 40  1  0
  3 41  1  0
  3 42  1  0
  5 43  1  0
  5 44  1  0
  6 45  1  0
  6 46  1  0
  7 47  1  1
  8 48  1  0
 12 49  1  0
 14 50  1  0
 15 51  1  0
 23 52  1  0
 24 53  1  0
 25 54  1  0
 26 55  1  0
 28 56  1  0
 29 57  1  0
 32 58  1  0
 32 59  1  0
 32 60  1  0
 35 61  1  0
 36 62  1  0
M  END
>  <smiles>  (27) 
CC1(C)OCCC1NC(=O)C(=Cc1ccc(C(=O)N=c2nn[nH][nH]2)cc1)c1ccc(S(C)(=O)=O)cc1

>  <score_type>  (27) 
oracle

>  <origin>  (27) 
adg

>  <m_score__min__energy>  (27) 
-11.029999999999999

>  <m_primary>  (27) 
energy

$$$$
27:0
     RDKit          3D

 35 36  0  0  0  0  0  0  0  0999 V2000
   59.9764   32.9773   44.8988 H   0  0  0  0  0  0  0  0  0  0  0  0
   58.9980   33.4420   44.7070 C   0  0  0  0  0  0  0  0  0  0  0  0
   58.0620   32.7070   44.0630 C   0  0  0  0  0  0  0  0  0  0  0  0
   58.1080   32.5070   42.5670 C   0  0  0  0  0  0  0  0  0  0  0  0
   58.3495   31.4571   42.3447 H   0  0  0  0  0  0  0  0  0  0  0  0
   57.1287   32.7578   42.1333 H   0  0  0  0  0  0  0  0  0  0  0  0
   58.8793   33.1604   42.1333 H   0  0  0  0  0  0  0  0  0  0  0  0
   56.9540   32.0430   44.8550 C   0  0  0  0  0  0  0  0  0  0  0  0
   56.0308   32.0469   44.2569 H   0  0  0  0  0  0  0  0  0  0  0  0
   56.8056   32.6015   45.7910 H   0  0  0  0  0  0  0  0  0  0  0  0
   57.3090   30.6550   45.1850 N   0  0  0  0  0  0  0  0  0  0  0  0
   58.0570   30.2490   46.2310 C   0  0  0  0  0  0  0  0  0  0  0  0
   58.5030   31.0290   47.1140 O   0  0  0  0  0  0  0  0  0  0  0  0
   58.2910   28.9240   46.2490 N   0  0  0  0  0  0  0  0  0  0  0  0
   57.6450   28.4510   45.1620 C   0  0  0  0  0  0  0  0  0  0  0  0
   57.6210   27.1320   44.8950 C   0  0  0  0  0  0  0  0  0  0  0  0
   57.9652   26.8165   43.8990 H   0  0  0  0  0  0  0  0  0  0  0  0
   57.1760   26.0750   45.8150 C   0  0  0  0  0  0  0  0  0  0  0  0
   55.8880   25.8710   46.2570 C   0  0  0  0  0  0  0  0  0  0  0  0
   54.8070   26.7080   46.0130 O   0  0  0  0  0  0  0  0  0  0  0  0
   55.8060   24.7300   46.9660 N   0  0  0  0  0  0  0  0  0  0  0  0
   57.0680   24.2520   46.9110 C   0  0  0  0  0  0  0  0  0  0  0  0
   57.4140   23.1690   47.4510 O   0  0  0  0  0  0  0  0  0  0  0  0
   57.9200   25.0280   46.2120 N   0  0  0  0  0  0  0  0  0  0  0  0
   58.9240   24.8360   45.9960 H   0  0  0  0  0  0  0  0  0  0  0  0
   57.0620   29.5270   44.4750 C   0  0  0  0  0  0  0  0  0  0  0  0
   56.4770   29.5190   43.2680 C   0  0  0  0  0  0  0  0  0  0  0  0
   56.0600   30.4483   42.8527 H   0  0  0  0  0  0  0  0  0  0  0  0
   56.4142   28.5831   42.6934 H   0  0  0  0  0  0  0  0  0  0  0  0
   58.7840   34.8550   45.1770 C   0  0  0  0  0  0  0  0  0  0  0  0
   58.8280   35.5365   44.3147 H   0  0  0  0  0  0  0  0  0  0  0  0
   57.7991   34.9297   45.6611 H   0  0  0  0  0  0  0  0  0  0  0  0
   59.8170   35.2220   46.1350 N   0  0  0  0  0  0  0  0  0  0  0  0
   59.7230   34.9060   47.3210 N   0  0  0  0  0  0  0  0  0  0  0  0
   59.6290   34.5900   48.5060 N   0  0  0  0  0  0  0  0  0  0  0  0
  1  2  1  0
  2  3  2  3
  3  4  1  0
  4  5  1  0
  4  6  1  0
  4  7  1  0
  3  8  1  0
  8  9  1  0
  8 10  1  0
  8 11  1  0
 11 12  1  0
 12 13  2  0
 12 14  1  0
 14 15  1  0
 15 16  2  0
 16 17  1  0
 16 18  1  0
 18 19  2  0
 19 20  1  0
 19 21  1  0
 21 22  1  0
 22 23  2  0
 22 24  1  0
 24 25  1  0
 15 26  1  0
 26 27  2  0
 27 28  1  0
 27 29  1  0
  2 30  1  0
 30 31  1  0
 30 32  1  0
 30 33  1  0
 33 34  2  0
 34 35  2  0
 26 11  1  0
 24 18  1  0
M  CHG  5  14  -1  20  -1  21  -1  34   1  35  -1
M  END
>  <UniqueID>  (28) 
26

>  <SMILES>  (28) 
C=c1/c(=C\c2[nH]c(=O)[n-]c2[O-])[n-]c(=O)n1CC(C)=CCN=[N+]=[N-]

>  <Energy>  (28) 
104.5990089662207

>  <Genealogy>  (28) 
C=c1c(=Cc2[nH]c(=O)[n-]c2[O-])[n-]c(=O)n1CC(C)=CCN=[N+]=[N-] (protonated)
C=c1/c(=C\c2[nH]c(=O)[n-]c2[O-])[n-]c(=O)n1CC(C)=CCN=[N+]=[N-] (cis-trans isomerization)
C=c1/c(=C\c2[nH]c(=O)[n-]c2[O-])[n-]c(=O)n1CC(C)=CCN=[N+]=[N-] (3D coordinates assigned)
C=c1/c(=C\c2[nH]c(=O)[n-]c2[O-])[n-]c(=O)n1CC(C)=CCN=[N+]=[N-] (optimized conformer: 104.5990089662207 kcal/mol)

>  <smiles>  (28) 
C=c1c(=Cc2[nH]c(=O)[nH]c2O)[nH]c(=O)n1CC(C)=CCN=[N+]=[N-]

>  <score_type>  (28) 
oracle

>  <origin>  (28) 
adg

>  <m_score__min__energy>  (28) 
-14.94

>  <m_primary>  (28) 
energy

$$$$
28:0
     RDKit          3D

 48 50  0  0  0  0  0  0  0  0999 V2000
   62.5960   33.3990   48.1860 C   0  0  0  0  0  0  0  0  0  0  0  0
   62.2780   34.2640   49.3960 C   0  0  0  0  0  0  0  0  0  0  0  0
   60.8990   34.1230   49.7270 O   0  0  0  0  0  0  0  0  0  0  0  0
   59.8740   33.8950   48.7960 C   0  0  0  0  0  0  0  0  0  0  0  0
   59.5840   34.8130   47.7680 C   0  0  0  0  0  0  0  0  0  0  0  0
   58.5610   34.5530   46.8530 C   0  0  0  0  0  0  0  0  0  0  0  0
   57.8170   33.3760   46.9510 C   0  0  0  0  0  0  0  0  0  0  0  0
   58.0920   32.4580   47.9660 C   0  0  0  0  0  0  0  0  0  0  0  0
   59.1170   32.7080   48.8940 C   0  0  0  0  0  0  0  0  0  0  0  0
   59.4140   31.7000   49.9750 C   0  0  0  0  0  0  0  0  0  0  0  0
   58.3280   31.6660   50.9540 N   0  0  0  0  0  0  0  0  0  0  0  0
   57.8370   30.4400   51.5160 C   0  0  0  0  0  0  0  0  0  0  0  0
   58.4010   29.3480   51.2270 O   0  0  0  0  0  0  0  0  0  0  0  0
   56.7000   30.4380   52.4630 C   0  0  0  0  0  0  0  0  0  0  0  0
   55.4240   30.0610   52.0080 C   0  0  0  0  0  0  0  0  0  0  0  0
   54.3260   30.0470   52.8830 C   0  0  0  0  0  0  0  0  0  0  0  0
   52.9580   29.6660   52.3870 C   0  0  0  0  0  0  0  0  0  0  0  0
   52.2540   30.8650   51.8240 C   0  0  0  0  0  0  0  0  0  0  0  0
   52.1500   31.1110   50.5050 N   0  0  0  0  0  0  0  0  0  0  0  0
   51.3910   32.2250   50.4560 C   0  0  0  0  0  0  0  0  0  0  0  0
   51.0700   32.7800   49.3720 O   0  0  0  0  0  0  0  0  0  0  0  0
   50.9980   32.6940   51.6570 N   0  0  0  0  0  0  0  0  0  0  0  0
   51.5540   31.8290   52.5240 C   0  0  0  0  0  0  0  0  0  0  0  0
   51.3370   31.8860   54.0020 C   0  0  0  0  0  0  0  0  0  0  0  0
   54.5070   30.4290   54.2210 C   0  0  0  0  0  0  0  0  0  0  0  0
   55.7670   30.8180   54.6770 C   0  0  0  0  0  0  0  0  0  0  0  0
   56.8620   30.8280   53.8070 C   0  0  0  0  0  0  0  0  0  0  0  0
   58.0580   31.2710   54.2680 F   0  0  0  0  0  0  0  0  0  0  0  0
   62.9573   32.4161   48.5227 H   0  0  0  0  0  0  0  0  0  0  0  0
   61.6873   33.2677   47.5801 H   0  0  0  0  0  0  0  0  0  0  0  0
   63.3733   33.8876   47.5801 H   0  0  0  0  0  0  0  0  0  0  0  0
   62.8950   33.9441   50.2486 H   0  0  0  0  0  0  0  0  0  0  0  0
   62.4951   35.3170   49.1633 H   0  0  0  0  0  0  0  0  0  0  0  0
   60.1675   35.7418   47.6850 H   0  0  0  0  0  0  0  0  0  0  0  0
   58.3415   35.2767   46.0542 H   0  0  0  0  0  0  0  0  0  0  0  0
   57.0135   33.1718   46.2280 H   0  0  0  0  0  0  0  0  0  0  0  0
   57.5022   31.5325   48.0399 H   0  0  0  0  0  0  0  0  0  0  0  0
   59.5240   30.7040   49.5213 H   0  0  0  0  0  0  0  0  0  0  0  0
   60.3449   31.9884   50.4852 H   0  0  0  0  0  0  0  0  0  0  0  0
   57.9500   32.5780   51.2950 H   0  0  0  0  0  0  0  0  0  0  0  0
   55.2846   29.7740   50.9553 H   0  0  0  0  0  0  0  0  0  0  0  0
   53.0568   28.9018   51.6020 H   0  0  0  0  0  0  0  0  0  0  0  0
   52.3707   29.2694   53.2283 H   0  0  0  0  0  0  0  0  0  0  0  0
   52.2755   31.6395   54.5202 H   0  0  0  0  0  0  0  0  0  0  0  0
   51.0161   32.8989   54.2867 H   0  0  0  0  0  0  0  0  0  0  0  0
   50.5597   31.1615   54.2867 H   0  0  0  0  0  0  0  0  0  0  0  0
   53.6521   30.4218   54.9132 H   0  0  0  0  0  0  0  0  0  0  0  0
   55.8999   31.1185   55.7268 H   0  0  0  0  0  0  0  0  0  0  0  0
  1  2  1  0
  2  3  1  0
  3  4  1  0
  4  5  2  0
  5  6  1  0
  6  7  2  0
  7  8  1  0
  8  9  2  0
  9 10  1  0
 10 11  1  0
 11 12  1  0
 12 13  2  0
 12 14  1  0
 14 15  2  0
 15 16  1  0
 16 17  1  0
 17 18  1  0
 18 19  1  0
 19 20  1  0
 20 21  2  0
 20 22  1  0
 22 23  1  0
 23 24  1  0
 16 25  2  0
 25 26  1  0
 26 27  2  0
 27 28  1  0
  9  4  1  0
 27 14  1  0
 23 18  2  0
  1 29  1  0
  1 30  1  0
  1 31  1  0
  2 32  1  0
  2 33  1  0
  5 34  1  0
  6 35  1  0
  7 36  1  0
  8 37  1  0
 10 38  1  0
 10 39  1  0
 11 40  1  0
 15 41  1  0
 17 42  1  0
 17 43  1  0
 24 44  1  0
 24 45  1  0
 24 46  1  0
 25 47  1  0
 26 48  1  0
M  CHG  2  19  -1  22  -1
M  END
>  <UniqueID>  (29) 
27

>  <SMILES>  (29) 
CCOc1ccccc1CNC(=O)c1cc(Cc2[n-]c(=O)[n-]c2C)ccc1F

>  <Energy>  (29) 
73.13944868633149

>  <Genealogy>  (29) 
CCOc1ccccc1CNC(=O)c1cc(Cc2[n-]c(=O)[n-]c2C)ccc1F (protonated)
CCOc1ccccc1CNC(=O)c1cc(Cc2[n-]c(=O)[n-]c2C)ccc1F (3D coordinates assigned)
CCOc1ccccc1CNC(=O)c1cc(Cc2[n-]c(=O)[n-]c2C)ccc1F (optimized conformer: 73.13944868633149 kcal/mol)

>  <smiles>  (29) 
CCOc1ccccc1CNC(=O)c1cc(Cc2[nH]c(=O)[nH]c2C)ccc1F

>  <score_type>  (29) 
oracle

>  <origin>  (29) 
adg

>  <m_score__min__energy>  (29) 
-12.23

>  <m_primary>  (29) 
energy

$$$$
29:0
     RDKit          3D

 49 51  0  0  0  0  0  0  0  0999 V2000
   55.8010   30.2510   43.7810 C   0  0  0  0  0  0  0  0  0  0  0  0
   56.4890   29.3240   44.7270 C   0  0  0  0  0  0  0  0  0  0  0  0
   55.9120   28.2200   45.2390 N   0  0  0  0  0  0  0  0  0  0  0  0
   56.7880   27.6070   46.0260 N   0  0  0  0  0  0  0  0  0  0  0  0
   57.9390   28.3080   46.0160 C   0  0  0  0  0  0  0  0  0  0  0  0
   59.1300   27.9680   46.8190 C   0  0  0  0  0  0  0  0  0  0  0  0
   60.1470   27.4940   46.2460 O   0  0  0  0  0  0  0  0  0  0  0  0
   59.1990   28.2380   48.2240 N   0  0  0  0  0  0  0  0  0  0  0  0
   59.4800   29.5040   48.8380 C   0  0  0  0  0  0  0  0  0  0  0  0
   58.6360   30.0500   49.8230 C   0  0  0  0  0  0  0  0  0  0  0  0
   58.9610   31.2650   50.4270 C   0  0  0  0  0  0  0  0  0  0  0  0
   60.1370   31.9340   50.0770 C   0  0  0  0  0  0  0  0  0  0  0  0
   61.0130   31.3850   49.1200 C   0  0  0  0  0  0  0  0  0  0  0  0
   62.2800   32.0670   48.7630 C   0  0  0  0  0  0  0  0  0  0  0  0
   63.1590   32.4030   49.6450 N   0  0  0  0  0  0  0  0  0  0  0  0
   64.2730   33.0880   49.0040 C   0  0  0  0  0  0  0  0  0  0  0  0
   63.9050   33.1420   47.5140 C   0  0  0  0  0  0  0  0  0  0  0  0
   62.6300   32.4540   47.4460 N   0  0  0  0  0  0  0  0  0  0  0  0
   60.6690   30.1650   48.5060 C   0  0  0  0  0  0  0  0  0  0  0  0
   57.7770   29.4200   45.2180 C   0  0  0  0  0  0  0  0  0  0  0  0
   58.7420   30.3970   44.9640 O   0  0  0  0  0  0  0  0  0  0  0  0
   58.8440   31.8490   45.8610 S   0  0  0  0  0  0  0  0  0  0  0  0
   60.2790   32.0880   46.2520 O   0  0  0  0  0  0  0  0  0  0  0  0
   57.9990   31.7630   47.1030 O   0  0  0  0  0  0  0  0  0  0  0  0
   58.2620   33.2050   44.8320 C   0  0  0  0  0  0  0  0  0  0  0  0
   56.8920   33.6830   45.3450 C   0  0  0  0  0  0  0  0  0  0  0  0
   58.1320   32.7210   43.3760 C   0  0  0  0  0  0  0  0  0  0  0  0
   59.2730   34.3650   44.9010 C   0  0  0  0  0  0  0  0  0  0  0  0
   55.2402   31.0066   44.3508 H   0  0  0  0  0  0  0  0  0  0  0  0
   56.5491   30.7501   43.1475 H   0  0  0  0  0  0  0  0  0  0  0  0
   55.1066   29.6795   43.1475 H   0  0  0  0  0  0  0  0  0  0  0  0
   57.7191   29.5182   50.1170 H   0  0  0  0  0  0  0  0  0  0  0  0
   58.2886   31.6983   51.1821 H   0  0  0  0  0  0  0  0  0  0  0  0
   60.3803   32.8958   50.5520 H   0  0  0  0  0  0  0  0  0  0  0  0
   64.3874   34.1037   49.4106 H   0  0  0  0  0  0  0  0  0  0  0  0
   65.2284   32.5701   49.1742 H   0  0  0  0  0  0  0  0  0  0  0  0
   63.8070   34.1830   47.1723 H   0  0  0  0  0  0  0  0  0  0  0  0
   64.6702   32.6832   46.8705 H   0  0  0  0  0  0  0  0  0  0  0  0
   62.0360   32.3740   46.5890 H   0  0  0  0  0  0  0  0  0  0  0  0
   61.3431   29.7257   47.7559 H   0  0  0  0  0  0  0  0  0  0  0  0
   56.8920   33.6830   46.4450 H   0  0  0  0  0  0  0  0  0  0  0  0
   56.6983   34.7018   44.9783 H   0  0  0  0  0  0  0  0  0  0  0  0
   56.1065   33.0058   44.9783 H   0  0  0  0  0  0  0  0  0  0  0  0
   57.8467   31.6587   43.3668 H   0  0  0  0  0  0  0  0  0  0  0  0
   57.3608   33.3123   42.8605 H   0  0  0  0  0  0  0  0  0  0  0  0
   59.0956   32.8463   42.8605 H   0  0  0  0  0  0  0  0  0  0  0  0
   59.4831   34.6061   45.9535 H   0  0  0  0  0  0  0  0  0  0  0  0
   60.2060   34.0685   44.3994 H   0  0  0  0  0  0  0  0  0  0  0  0
   58.8519   35.2488   44.3994 H   0  0  0  0  0  0  0  0  0  0  0  0
  1  2  1  0
  2  3  1  0
  3  4  1  0
  4  5  2  0
  5  6  1  0
  6  7  2  0
  6  8  1  0
  8  9  1  0
  9 10  2  0
 10 11  1  0
 11 12  2  0
 12 13  1  0
 13 14  1  0
 14 15  2  0
 15 16  1  0
 16 17  1  0
 17 18  1  0
 13 19  2  0
  5 20  1  0
 20 21  1  0
 21 22  1  0
 22 23  2  0
 22 24  2  0
 22 25  1  0
 25 26  1  0
 25 27  1  0
 25 28  1  0
 20  2  2  0
 19  9  1  0
 18 14  1  0
  1 29  1  0
  1 30  1  0
  1 31  1  0
 10 32  1  0
 11 33  1  0
 12 34  1  0
 16 35  1  0
 16 36  1  0
 17 37  1  0
 17 38  1  0
 18 39  1  0
 19 40  1  0
 26 41  1  0
 26 42  1  0
 26 43  1  0
 27 44  1  0
 27 45  1  0
 27 46  1  0
 28 47  1  0
 28 48  1  0
 28 49  1  0
M  CHG  2   3  -1   8  -1
M  END
>  <UniqueID>  (30) 
28

>  <SMILES>  (30) 
Cc1[n-]nc(C(=O)[N-]c2cccc(C3=NCCN3)c2)c1OS(=O)(=O)C(C)(C)C

>  <Energy>  (30) 
93.30177044494938

>  <Genealogy>  (30) 
Cc1[n-]nc(C(=O)[N-]c2cccc(C3=NCCN3)c2)c1OS(=O)(=O)C(C)(C)C (protonated)
Cc1[n-]nc(C(=O)[N-]c2cccc(C3=NCCN3)c2)c1OS(=O)(=O)C(C)(C)C (3D coordinates assigned)
Cc1[n-]nc(C(=O)[N-]c2cccc(C3=NCCN3)c2)c1OS(=O)(=O)C(C)(C)C (nonaromatic ring conformer: 93.30177044494938 kcal/mol)

>  <smiles>  (30) 
Cc1[nH]nc(C(=O)Nc2cccc(C3=NCCN3)c2)c1OS(=O)(=O)C(C)(C)C

>  <score_type>  (30) 
oracle

>  <origin>  (30) 
adg

>  <m_score__min__energy>  (30) 
-12.16

>  <m_primary>  (30) 
energy

$$$$
30:0
     RDKit          3D

 37 39  0  0  0  0  0  0  0  0999 V2000
   55.9020   31.1600   44.5920 O   0  0  0  0  0  0  0  0  0  0  0  0
   57.1340   31.1250   44.8550 C   0  0  0  0  0  0  0  0  0  0  0  0
   58.0820   30.5350   43.8600 C   0  0  0  0  0  0  0  0  0  0  0  0
   57.8880   29.1270   43.7650 O   0  0  0  0  0  0  0  0  0  0  0  0
   58.5070   28.2020   44.6170 C   0  0  0  0  0  0  0  0  0  0  0  0
   59.7600   28.2110   44.7570 O   0  0  0  0  0  0  0  0  0  0  0  0
   57.6830   27.1780   45.2950 C   0  0  0  0  0  0  0  0  0  0  0  0
   58.2910   25.9700   45.6740 C   0  0  0  0  0  0  0  0  0  0  0  0
   57.5750   25.0090   46.3860 C   0  0  0  0  0  0  0  0  0  0  0  0
   56.2420   25.2560   46.7140 C   0  0  0  0  0  0  0  0  0  0  0  0
   55.5840   24.4060   47.3680 O   0  0  0  0  0  0  0  0  0  0  0  0
   55.6510   26.4130   46.3220 N   0  0  0  0  0  0  0  0  0  0  0  0
   56.3140   27.3690   45.6150 C   0  0  0  0  0  0  0  0  0  0  0  0
   55.5970   28.4940   45.2070 O   0  0  0  0  0  0  0  0  0  0  0  0
   57.6490   31.7260   46.0500 N   0  0  0  0  0  0  0  0  0  0  0  0
   59.0040   31.6740   46.5180 C   0  0  0  0  0  0  0  0  0  0  0  0
   59.5650   30.4980   47.0570 C   0  0  0  0  0  0  0  0  0  0  0  0
   60.8970   30.4860   47.4890 C   0  0  0  0  0  0  0  0  0  0  0  0
   61.6760   31.6390   47.3770 C   0  0  0  0  0  0  0  0  0  0  0  0
   61.1380   32.7960   46.7980 C   0  0  0  0  0  0  0  0  0  0  0  0
   59.8070   32.8150   46.3760 C   0  0  0  0  0  0  0  0  0  0  0  0
   61.9510   33.9240   46.6500 O   0  0  0  0  0  0  0  0  0  0  0  0
   63.3680   33.8390   46.8180 C   0  0  0  0  0  0  0  0  0  0  0  0
   63.7130   32.8900   47.9740 C   0  0  0  0  0  0  0  0  0  0  0  0
   62.9980   31.6590   47.8320 O   0  0  0  0  0  0  0  0  0  0  0  0
   57.9055   30.9926   42.8754 H   0  0  0  0  0  0  0  0  0  0  0  0
   59.1131   30.7322   44.1885 H   0  0  0  0  0  0  0  0  0  0  0  0
   59.3411   25.7806   45.4067 H   0  0  0  0  0  0  0  0  0  0  0  0
   58.0559   24.0663   46.6859 H   0  0  0  0  0  0  0  0  0  0  0  0
   55.8150   29.0260   44.3760 H   0  0  0  0  0  0  0  0  0  0  0  0
   58.9542   29.5868   47.1384 H   0  0  0  0  0  0  0  0  0  0  0  0
   61.3290   29.5690   47.9161 H   0  0  0  0  0  0  0  0  0  0  0  0
   59.3866   33.7286   45.9304 H   0  0  0  0  0  0  0  0  0  0  0  0
   63.8210   33.4599   45.8901 H   0  0  0  0  0  0  0  0  0  0  0  0
   63.7610   34.8402   47.0484 H   0  0  0  0  0  0  0  0  0  0  0  0
   64.7938   32.6856   47.9662 H   0  0  0  0  0  0  0  0  0  0  0  0
   63.4275   33.3636   48.9249 H   0  0  0  0  0  0  0  0  0  0  0  0
  1  2  2  0
  2  3  1  0
  3  4  1  0
  4  5  1  0
  5  6  2  0
  5  7  1  0
  7  8  1  0
  8  9  2  0
  9 10  1  0
 10 11  2  0
 10 12  1  0
 12 13  1  0
 13 14  1  0
  2 15  1  0
 15 16  1  0
 16 17  2  0
 17 18  1  0
 18 19  2  0
 19 20  1  0
 20 21  2  0
 20 22  1  0
 22 23  1  0
 23 24  1  0
 24 25  1  0
 13  7  2  0
 21 16  1  0
 25 19  1  0
  3 26  1  0
  3 27  1  0
  8 28  1  0
  9 29  1  0
 14 30  1  0
 17 31  1  0
 18 32  1  0
 21 33  1  0
 23 34  1  0
 23 35  1  0
 24 36  1  0
 24 37  1  0
M  CHG  2  12  -1  15  -1
M  END
>  <UniqueID>  (31) 
29

>  <SMILES>  (31) 
O=C(COC(=O)c1ccc(=O)[n-]c1O)[N-]c1ccc2c(c1)OCCO2

>  <Energy>  (31) 
46.96016469656949

>  <Genealogy>  (31) 
O=C(COC(=O)c1ccc(=O)[n-]c1O)[N-]c1ccc2c(c1)OCCO2 (protonated)
O=C(COC(=O)c1ccc(=O)[n-]c1O)[N-]c1ccc2c(c1)OCCO2 (3D coordinates assigned)
O=C(COC(=O)c1ccc(=O)[n-]c1O)[N-]c1ccc2c(c1)OCCO2 (nonaromatic ring conformer: 46.96016469656949 kcal/mol)

>  <smiles>  (31) 
O=C(COC(=O)c1ccc(=O)[nH]c1O)Nc1ccc2c(c1)OCCO2

>  <score_type>  (31) 
oracle

>  <origin>  (31) 
adg

>  <m_score__min__energy>  (31) 
-11.869999999999999

>  <m_primary>  (31) 
energy

$$$$
31:0
     RDKit          3D

 72 75  0  0  0  0  0  0  0  0999 V2000
   58.9127   30.4608   46.6881 H   0  0  0  0  0  0  0  0  0  0  0  0
   58.8650   31.5500   46.5420 C   0  0  0  0  0  0  0  0  0  0  0  0
   58.3500   32.1330   45.4800 C   0  0  0  0  0  0  0  0  0  0  0  0
   57.8310   31.3850   44.3060 C   0  0  0  0  0  0  0  0  0  0  0  0
   58.3210   31.5830   43.1610 O   0  0  0  0  0  0  0  0  0  0  0  0
   56.7980   30.4000   44.4500 N   0  0  0  0  0  0  0  0  0  0  0  0
   56.9910   29.1920   44.8920 C   0  0  0  0  0  0  0  0  0  0  0  0
   55.9400   28.3910   45.2210 N   0  0  0  0  0  0  0  0  0  0  0  0
   56.1120   27.1100   45.6460 C   0  0  0  0  0  0  0  0  0  0  0  0
   55.0120   26.3130   45.9780 O   0  0  0  0  0  0  0  0  0  0  0  0
   54.8820   24.9590   45.5600 C   0  0  0  0  0  0  0  0  0  0  0  0
   54.8194   24.3069   46.4436 H   0  0  0  0  0  0  0  0  0  0  0  0
   53.9690   24.8476   44.9566 H   0  0  0  0  0  0  0  0  0  0  0  0
   55.7571   24.6759   44.9566 H   0  0  0  0  0  0  0  0  0  0  0  0
   57.4030   26.5820   45.7520 C   0  0  0  0  0  0  0  0  0  0  0  0
   57.5509   25.5398   46.0714 H   0  0  0  0  0  0  0  0  0  0  0  0
   58.5110   27.3940   45.4470 C   0  0  0  0  0  0  0  0  0  0  0  0
   59.8370   26.9530   45.5840 O   0  0  0  0  0  0  0  0  0  0  0  0
   60.7370   27.3790   46.6050 C   0  0  0  0  0  0  0  0  0  0  0  0
   61.4772   26.5854   46.7847 H   0  0  0  0  0  0  0  0  0  0  0  0
   61.2318   28.3025   46.2698 H   0  0  0  0  0  0  0  0  0  0  0  0
   59.9890   27.6760   47.9200 C   0  0  0  0  0  0  0  0  0  0  0  0
   59.0168   27.2528   47.6273 H   0  0  0  0  0  0  0  0  0  0  0  0
   60.2040   29.0660   48.4330 C   0  0  0  0  0  0  0  0  0  0  0  0
   60.8124   29.6802   47.7528 H   0  0  0  0  0  0  0  0  0  0  0  0
   59.3111   29.6946   48.5657 H   0  0  0  0  0  0  0  0  0  0  0  0
   60.9370   28.6710   49.6550 N   0  0  0  0  0  0  0  0  0  0  0  0
   61.7330   29.2970   50.6660 C   0  0  0  0  0  0  0  0  0  0  0  0
   62.3980   28.5730   51.4560 O   0  0  0  0  0  0  0  0  0  0  0  0
   61.8630   30.7700   50.7400 C   0  0  0  0  0  0  0  0  0  0  0  0
   60.8730   31.5520   51.3570 C   0  0  0  0  0  0  0  0  0  0  0  0
   60.0062   31.0637   51.8262 H   0  0  0  0  0  0  0  0  0  0  0  0
   60.9800   32.9490   51.3800 C   0  0  0  0  0  0  0  0  0  0  0  0
   59.8750   33.7680   51.9820 C   0  0  0  0  0  0  0  0  0  0  0  0
   59.9392   33.7204   53.0791 H   0  0  0  0  0  0  0  0  0  0  0  0
   59.9729   34.8134   51.6540 H   0  0  0  0  0  0  0  0  0  0  0  0
   58.9033   33.3703   51.6540 H   0  0  0  0  0  0  0  0  0  0  0  0
   62.0890   33.5730   50.7820 C   0  0  0  0  0  0  0  0  0  0  0  0
   62.1555   34.6708   50.7639 H   0  0  0  0  0  0  0  0  0  0  0  0
   63.1100   32.8030   50.2090 C   0  0  0  0  0  0  0  0  0  0  0  0
   64.2790   33.4780   49.5470 C   0  0  0  0  0  0  0  0  0  0  0  0
   64.9595   33.8710   50.3167 H   0  0  0  0  0  0  0  0  0  0  0  0
   64.8155   32.7507   48.9200 H   0  0  0  0  0  0  0  0  0  0  0  0
   63.9173   34.3062   48.9200 H   0  0  0  0  0  0  0  0  0  0  0  0
   62.9890   31.4060   50.1790 C   0  0  0  0  0  0  0  0  0  0  0  0
   63.7806   30.8007   49.7131 H   0  0  0  0  0  0  0  0  0  0  0  0
   60.7020   27.2920   49.1860 C   0  0  0  0  0  0  0  0  0  0  0  0
   61.6360   26.7422   48.9977 H   0  0  0  0  0  0  0  0  0  0  0  0
   60.1758   26.6116   49.8717 H   0  0  0  0  0  0  0  0  0  0  0  0
   58.2950   28.7010   45.0010 C   0  0  0  0  0  0  0  0  0  0  0  0
   59.1492   29.3415   44.7365 H   0  0  0  0  0  0  0  0  0  0  0  0
   58.4180   33.6300   45.6130 C   0  0  0  0  0  0  0  0  0  0  0  0
   59.3210   34.2300   44.5060 C   0  0  0  0  0  0  0  0  0  0  0  0
   60.1518   34.7820   44.9697 H   0  0  0  0  0  0  0  0  0  0  0  0
   59.7232   33.4189   43.8812 H   0  0  0  0  0  0  0  0  0  0  0  0
   58.7291   34.9150   43.8812 H   0  0  0  0  0  0  0  0  0  0  0  0
   56.9980   34.2320   45.5180 C   0  0  0  0  0  0  0  0  0  0  0  0
   56.6024   34.3997   46.5306 H   0  0  0  0  0  0  0  0  0  0  0  0
   57.0410   35.1893   44.9779 H   0  0  0  0  0  0  0  0  0  0  0  0
   56.3398   33.5355   44.9779 H   0  0  0  0  0  0  0  0  0  0  0  0
   59.0070   33.8770   46.9600 N   0  0  0  0  0  0  0  0  0  0  0  0
   59.8440   34.5090   46.9040 H   0  0  0  0  0  0  0  0  0  0  0  0
   58.3250   34.3680   47.5870 H   0  0  0  0  0  0  0  0  0  0  0  0
   59.3740   32.5480   47.5190 C   0  0  0  0  0  0  0  0  0  0  0  0
   60.9030   32.3890   47.6400 C   0  0  0  0  0  0  0  0  0  0  0  0
   61.1856   32.3596   48.7027 H   0  0  0  0  0  0  0  0  0  0  0  0
   61.2142   31.4537   47.1518 H   0  0  0  0  0  0  0  0  0  0  0  0
   61.3999   33.2403   47.1518 H   0  0  0  0  0  0  0  0  0  0  0  0
   58.7140   32.3110   48.8910 C   0  0  0  0  0  0  0  0  0  0  0  0
   59.4261   32.5667   49.6895 H   0  0  0  0  0  0  0  0  0  0  0  0
   57.8188   32.9439   48.9815 H   0  0  0  0  0  0  0  0  0  0  0  0
   58.4259   31.2533   48.9815 H   0  0  0  0  0  0  0  0  0  0  0  0
  1  2  1  0
  2  3  2  0
  3  4  1  0
  4  5  2  0
  4  6  1  0
  6  7  2  0
  7  8  1  0
  8  9  1  0
  9 10  1  0
 10 11  1  0
 11 12  1  0
 11 13  1  0
 11 14  1  0
  9 15  2  0
 15 16  1  0
 15 17  1  0
 17 18  1  0
 18 19  1  0
 19 20  1  0
 19 21  1  0
 19 22  1  0
 22 23  1  0
 22 24  1  0
 24 25  1  0
 24 26  1  0
 24 27  1  0
 27 28  1  0
 28 29  2  0
 28 30  1  0
 30 31  2  0
 31 32  1  0
 31 33  1  0
 33 34  1  0
 34 35  1  0
 34 36  1  0
 34 37  1  0
 33 38  2  0
 38 39  1  0
 38 40  1  0
 40 41  1  0
 41 42  1  0
 41 43  1  0
 41 44  1  0
 40 45  2  0
 45 46  1  0
 27 47  1  0
 47 48  1  0
 47 49  1  0
 17 50  2  0
 50 51  1  0
  3 52  1  0
 52 53  1  0
 53 54  1  0
 53 55  1  0
 53 56  1  0
 52 57  1  0
 57 58  1  0
 57 59  1  0
 57 60  1  0
 52 61  1  0
 61 62  1  0
 61 63  1  0
 61 64  1  0
 64 65  1  0
 65 66  1  0
 65 67  1  0
 65 68  1  0
 64 69  1  0
 69 70  1  0
 69 71  1  0
 69 72  1  0
 64  2  1  0
 50  7  1  0
 47 22  1  0
 45 30  1  0
M  CHG  2   8  -1  61   1
M  END
>  <UniqueID>  (32) 
30

>  <SMILES>  (32) 
COc1cc(OCC2CN(C(=O)c3cc(C)cc(C)c3)C2)c/c(=N/C(=O)C2=CC(C)(C)[NH2+]C2(C)C)[n-]1

>  <Energy>  (32) 
128.08316415365067

>  <Genealogy>  (32) 
COc1cc(OCC2CN(C(=O)c3cc(C)cc(C)c3)C2)cc(=NC(=O)C2=CC(C)(C)[NH2+]C2(C)C)[n-]1 (protonated)
COc1cc(OCC2CN(C(=O)c3cc(C)cc(C)c3)C2)c/c(=N/C(=O)C2=CC(C)(C)[NH2+]C2(C)C)[n-]1 (cis-trans isomerization)
COc1cc(OCC2CN(C(=O)c3cc(C)cc(C)c3)C2)c/c(=N/C(=O)C2=CC(C)(C)[NH2+]C2(C)C)[n-]1 (3D coordinates assigned)
COc1cc(OCC2CN(C(=O)c3cc(C)cc(C)c3)C2)c/c(=N/C(=O)C2=CC(C)(C)[NH2+]C2(C)C)[n-]1 (nonaromatic ring conformer: 128.08316415365067 kcal/mol)

>  <smiles>  (32) 
COc1cc(OCC2CN(C(=O)c3cc(C)cc(C)c3)C2)cc(=NC(=O)C2=CC(C)(C)NC2(C)C)[nH]1

>  <score_type>  (32) 
oracle

>  <origin>  (32) 
adg

>  <m_score__min__energy>  (32) 
-10.58

>  <m_primary>  (32) 
energy

$$$$
32:0
     RDKit          3D

 25 25  0  0  0  0  0  0  0  0999 V2000
   55.1470   27.4360   44.8760 H   0  0  0  0  0  0  0  0  0  0  0  0
   55.6020   26.9820   45.6990 N   0  0  0  0  0  0  0  0  0  0  0  0
   56.9990   27.1320   45.9390 C   0  0  0  0  0  0  0  0  0  0  0  0
   57.4060   27.4830   47.0790 O   0  0  0  0  0  0  0  0  0  0  0  0
   57.9770   26.8840   44.8370 C   0  0  0  0  0  0  0  0  0  0  0  0
   58.8225   26.3006   45.2305 H   0  0  0  0  0  0  0  0  0  0  0  0
   57.4684   26.3303   44.0340 H   0  0  0  0  0  0  0  0  0  0  0  0
   58.6040   28.4600   44.1530 S   0  0  0  0  0  0  0  0  0  0  0  0
   57.0330   29.0360   43.4130 C   0  0  0  0  0  0  0  0  0  0  0  0
   57.2498   29.5710   42.4766 H   0  0  0  0  0  0  0  0  0  0  0  0
   56.3945   28.1625   43.2147 H   0  0  0  0  0  0  0  0  0  0  0  0
   56.3140   29.9540   44.3470 C   0  0  0  0  0  0  0  0  0  0  0  0
   55.2200   29.5880   44.8550 O   0  0  0  0  0  0  0  0  0  0  0  0
   56.9210   31.2030   44.7090 N   0  0  0  0  0  0  0  0  0  0  0  0
   57.7760   31.4410   45.6670 C   0  0  0  0  0  0  0  0  0  0  0  0
   58.1960   32.7650   45.8830 C   0  0  0  0  0  0  0  0  0  0  0  0
   57.6070   34.0880   44.8810 Cl  0  0  0  0  0  0  0  0  0  0  0  0
   59.1060   33.0420   46.9050 C   0  0  0  0  0  0  0  0  0  0  0  0
   59.4472   34.0741   47.0735 H   0  0  0  0  0  0  0  0  0  0  0  0
   59.5820   32.0090   47.7120 C   0  0  0  0  0  0  0  0  0  0  0  0
   60.7210   32.3450   49.0020 Cl  0  0  0  0  0  0  0  0  0  0  0  0
   59.1280   30.7070   47.4910 C   0  0  0  0  0  0  0  0  0  0  0  0
   59.4900   29.8864   48.1279 H   0  0  0  0  0  0  0  0  0  0  0  0
   58.2400   30.4470   46.4920 N   0  0  0  0  0  0  0  0  0  0  0  0
   57.9020   29.4660   46.4130 H   0  0  0  0  0  0  0  0  0  0  0  0
  1  2  1  0
  2  3  1  0
  3  4  2  0
  3  5  1  0
  5  6  1  0
  5  7  1  0
  5  8  1  0
  8  9  1  0
  9 10  1  0
  9 11  1  0
  9 12  1  0
 12 13  2  0
 12 14  1  0
 14 15  2  0
 15 16  1  0
 16 17  1  0
 16 18  2  0
 18 19  1  0
 18 20  1  0
 20 21  1  0
 20 22  2  0
 22 23  1  0
 22 24  1  0
 24 25  1  0
 24 15  1  0
M  CHG  1   2  -1
M  END
>  <UniqueID>  (33) 
31

>  <SMILES>  (33) 
[NH-]C(=O)CSCC(=O)/N=c1\[nH]cc(Cl)cc1Cl

>  <Energy>  (33) 
24.91743664129902

>  <Genealogy>  (33) 
[NH-]C(=O)CSCC(=O)N=c1[nH]cc(Cl)cc1Cl (protonated)
[NH-]C(=O)CSCC(=O)/N=c1\[nH]cc(Cl)cc1Cl (cis-trans isomerization)
[NH-]C(=O)CSCC(=O)/N=c1\[nH]cc(Cl)cc1Cl (3D coordinates assigned)
[NH-]C(=O)CSCC(=O)/N=c1\[nH]cc(Cl)cc1Cl (optimized conformer: 24.91743664129902 kcal/mol)

>  <smiles>  (33) 
NC(=O)CSCC(=O)N=c1[nH]cc(Cl)cc1Cl

>  <score_type>  (33) 
oracle

>  <origin>  (33) 
adg

>  <m_score__min__energy>  (33) 
-10.6

>  <m_primary>  (33) 
energy

$$$$
33:0
     RDKit          3D

 59 61  0  0  0  0  0  0  0  0999 V2000
   63.9650   32.8630   48.0840 C   0  0  0  0  0  0  0  0  0  0  0  0
   62.7680   31.9710   48.2160 C   0  0  0  0  0  0  0  0  0  0  0  0
   61.8730   31.8080   47.1480 C   0  0  0  0  0  0  0  0  0  0  0  0
   60.7510   30.9920   47.2880 C   0  0  0  0  0  0  0  0  0  0  0  0
   60.4980   30.3230   48.4960 C   0  0  0  0  0  0  0  0  0  0  0  0
   59.0420   29.3240   48.6320 S   0  0  0  0  0  0  0  0  0  0  0  0
   58.1400   29.5570   47.4500 O   0  0  0  0  0  0  0  0  0  0  0  0
   58.3060   29.7030   49.8910 O   0  0  0  0  0  0  0  0  0  0  0  0
   59.4950   27.6490   48.6720 N   0  0  0  0  0  0  0  0  0  0  0  0
   60.7780   27.4540   47.9990 C   0  0  0  0  0  0  0  0  0  0  0  0
   60.5630   26.7220   46.6710 C   0  0  0  0  0  0  0  0  0  0  0  0
   59.6030   27.4860   45.7950 C   0  0  0  0  0  0  0  0  0  0  0  0
   60.0080   28.6810   45.1790 C   0  0  0  0  0  0  0  0  0  0  0  0
   59.0780   29.4750   44.5050 C   0  0  0  0  0  0  0  0  0  0  0  0
   57.7300   29.0970   44.4560 C   0  0  0  0  0  0  0  0  0  0  0  0
   56.5370   30.1700   43.7330 S   0  0  0  0  0  0  0  0  0  0  0  0
   55.5060   29.3580   43.0020 O   0  0  0  0  0  0  0  0  0  0  0  0
   55.8470   30.9470   44.8160 O   0  0  0  0  0  0  0  0  0  0  0  0
   57.3010   31.2850   42.6370 N   0  0  0  0  0  0  0  0  0  0  0  0
   58.1960   32.1770   43.3810 C   0  0  0  0  0  0  0  0  0  0  0  0
   57.4020   33.1970   44.2050 C   0  0  0  0  0  0  0  0  0  0  0  0
   58.1340   33.6020   45.4590 C   0  0  0  0  0  0  0  0  0  0  0  0
   57.8090   33.0080   46.6950 C   0  0  0  0  0  0  0  0  0  0  0  0
   58.5170   33.3510   47.8520 C   0  0  0  0  0  0  0  0  0  0  0  0
   59.5470   34.2950   47.7850 C   0  0  0  0  0  0  0  0  0  0  0  0
   59.8530   34.9170   46.5680 C   0  0  0  0  0  0  0  0  0  0  0  0
   59.1470   34.5750   45.4070 C   0  0  0  0  0  0  0  0  0  0  0  0
   57.3290   27.8900   45.0420 C   0  0  0  0  0  0  0  0  0  0  0  0
   58.2600   27.0850   45.7030 C   0  0  0  0  0  0  0  0  0  0  0  0
   61.3990   30.4820   49.5830 C   0  0  0  0  0  0  0  0  0  0  0  0
   61.2050   29.7660   50.8950 C   0  0  0  0  0  0  0  0  0  0  0  0
   62.5360   31.2930   49.4230 C   0  0  0  0  0  0  0  0  0  0  0  0
   64.3311   33.1358   49.0848 H   0  0  0  0  0  0  0  0  0  0  0  0
   64.7579   32.3338   47.5352 H   0  0  0  0  0  0  0  0  0  0  0  0
   63.6846   33.7741   47.5352 H   0  0  0  0  0  0  0  0  0  0  0  0
   62.0573   32.3265   46.1955 H   0  0  0  0  0  0  0  0  0  0  0  0
   60.0570   30.8712   46.4432 H   0  0  0  0  0  0  0  0  0  0  0  0
   61.2410   28.4329   47.8053 H   0  0  0  0  0  0  0  0  0  0  0  0
   61.4370   26.8522   48.6421 H   0  0  0  0  0  0  0  0  0  0  0  0
   61.5276   26.6244   46.1514 H   0  0  0  0  0  0  0  0  0  0  0  0
   60.1407   25.7276   46.8778 H   0  0  0  0  0  0  0  0  0  0  0  0
   61.0618   28.9928   45.2276 H   0  0  0  0  0  0  0  0  0  0  0  0
   59.4053   30.4014   44.0103 H   0  0  0  0  0  0  0  0  0  0  0  0
   57.8790   30.7030   41.9860 H   0  0  0  0  0  0  0  0  0  0  0  0
   58.8198   31.5757   44.0587 H   0  0  0  0  0  0  0  0  0  0  0  0
   58.8221   32.7231   42.6600 H   0  0  0  0  0  0  0  0  0  0  0  0
   57.2285   34.0924   43.5901 H   0  0  0  0  0  0  0  0  0  0  0  0
   56.4522   32.7284   44.5022 H   0  0  0  0  0  0  0  0  0  0  0  0
   56.9944   32.2708   46.7504 H   0  0  0  0  0  0  0  0  0  0  0  0
   58.2640   32.8790   48.8129 H   0  0  0  0  0  0  0  0  0  0  0  0
   60.1179   34.5494   48.6901 H   0  0  0  0  0  0  0  0  0  0  0  0
   60.6488   35.6751   46.5236 H   0  0  0  0  0  0  0  0  0  0  0  0
   59.3859   35.0687   44.4535 H   0  0  0  0  0  0  0  0  0  0  0  0
   56.2769   27.5745   44.9816 H   0  0  0  0  0  0  0  0  0  0  0  0
   57.9401   26.1336   46.1531 H   0  0  0  0  0  0  0  0  0  0  0  0
   61.3939   30.4632   51.7246 H   0  0  0  0  0  0  0  0  0  0  0  0
   60.1729   29.3910   50.9590 H   0  0  0  0  0  0  0  0  0  0  0  0
   61.9066   28.9213   50.9590 H   0  0  0  0  0  0  0  0  0  0  0  0
   63.2512   31.3974   50.2522 H   0  0  0  0  0  0  0  0  0  0  0  0
  1  2  1  0
  2  3  2  0
  3  4  1  0
  4  5  2  0
  5  6  1  0
  6  7  2  0
  6  8  2  0
  6  9  1  0
  9 10  1  0
 10 11  1  0
 11 12  1  0
 12 13  2  0
 13 14  1  0
 14 15  2  0
 15 16  1  0
 16 17  2  0
 16 18  2  0
 16 19  1  0
 19 20  1  0
 20 21  1  0
 21 22  1  0
 22 23  2  0
 23 24  1  0
 24 25  2  0
 25 26  1  0
 26 27  2  0
 15 28  1  0
 28 29  2  0
  5 30  1  0
 30 31  1  0
 30 32  2  0
 32  2  1  0
 29 12  1  0
 27 22  1  0
  1 33  1  0
  1 34  1  0
  1 35  1  0
  3 36  1  0
  4 37  1  0
 10 38  1  0
 10 39  1  0
 11 40  1  0
 11 41  1  0
 13 42  1  0
 14 43  1  0
 19 44  1  0
 20 45  1  0
 20 46  1  0
 21 47  1  0
 21 48  1  0
 23 49  1  0
 24 50  1  0
 25 51  1  0
 26 52  1  0
 27 53  1  0
 28 54  1  0
 29 55  1  0
 31 56  1  0
 31 57  1  0
 31 58  1  0
 32 59  1  0
M  CHG  1   9  -1
M  END
>  <UniqueID>  (34) 
32

>  <SMILES>  (34) 
Cc1ccc(S(=O)(=O)[N-]CCc2ccc(S(=O)(=O)NCCc3ccccc3)cc2)c(C)c1

>  <Energy>  (34) 
46.53698425406471

>  <Genealogy>  (34) 
Cc1ccc(S(=O)(=O)[N-]CCc2ccc(S(=O)(=O)NCCc3ccccc3)cc2)c(C)c1 (protonated)
Cc1ccc(S(=O)(=O)[N-]CCc2ccc(S(=O)(=O)NCCc3ccccc3)cc2)c(C)c1 (3D coordinates assigned)
Cc1ccc(S(=O)(=O)[N-]CCc2ccc(S(=O)(=O)NCCc3ccccc3)cc2)c(C)c1 (optimized conformer: 46.53698425406471 kcal/mol)

>  <smiles>  (34) 
Cc1ccc(S(=O)(=O)NCCc2ccc(S(=O)(=O)NCCc3ccccc3)cc2)c(C)c1

>  <score_type>  (34) 
oracle

>  <origin>  (34) 
adg

>  <m_score__min__energy>  (34) 
-11.16

>  <m_primary>  (34) 
energy

$$$$
34:0
     RDKit          3D

 50 53  0  0  0  0  0  0  0  0999 V2000
   58.8820   31.7270   50.4930 C   0  0  0  0  0  0  0  0  0  0  0  0
   58.8970   32.1880   49.0700 C   0  0  0  0  0  0  0  0  0  0  0  0
   58.5760   31.3000   48.0370 C   0  0  0  0  0  0  0  0  0  0  0  0
   58.6040   31.7380   46.7080 C   0  0  0  0  0  0  0  0  0  0  0  0
   58.2860   30.8150   45.6560 N   0  0  0  0  0  0  0  0  0  0  0  0
   57.3730   31.2300   44.5860 C   0  0  0  0  0  0  0  0  0  0  0  0
   56.4230   30.0850   44.1820 C   0  0  0  0  0  0  0  0  0  0  0  0
   57.0220   28.6680   44.3560 C   0  0  0  0  0  0  0  0  0  0  0  0
   56.5110   28.0730   45.5930 N   0  0  0  0  0  0  0  0  0  0  0  0
   56.2680   26.6790   45.8190 C   0  0  0  0  0  0  0  0  0  0  0  0
   55.0820   26.3000   46.0140 O   0  0  0  0  0  0  0  0  0  0  0  0
   57.3450   25.7250   45.8460 N   0  0  0  0  0  0  0  0  0  0  0  0
   57.1490   24.3000   45.8230 C   0  0  0  0  0  0  0  0  0  0  0  0
   56.8680   23.5780   46.9980 C   0  0  0  0  0  0  0  0  0  0  0  0
   56.6570   22.1970   46.9450 C   0  0  0  0  0  0  0  0  0  0  0  0
   56.7110   21.5260   45.7200 C   0  0  0  0  0  0  0  0  0  0  0  0
   56.9670   22.2390   44.5440 C   0  0  0  0  0  0  0  0  0  0  0  0
   57.0200   21.3980   43.0050 Cl  0  0  0  0  0  0  0  0  0  0  0  0
   57.1770   23.6200   44.5950 C   0  0  0  0  0  0  0  0  0  0  0  0
   58.5600   28.7040   44.3820 C   0  0  0  0  0  0  0  0  0  0  0  0
   59.0660   29.5780   45.5370 C   0  0  0  0  0  0  0  0  0  0  0  0
   58.9530   33.0740   46.4240 C   0  0  0  0  0  0  0  0  0  0  0  0
   58.9820   33.5770   45.1100 C   0  0  0  0  0  0  0  0  0  0  0  0
   59.3350   34.9100   44.8760 C   0  0  0  0  0  0  0  0  0  0  0  0
   59.6570   35.7510   45.9440 C   0  0  0  0  0  0  0  0  0  0  0  0
   59.6260   35.2660   47.2540 C   0  0  0  0  0  0  0  0  0  0  0  0
   59.2730   33.9350   47.5010 C   0  0  0  0  0  0  0  0  0  0  0  0
   59.2380   33.4720   48.7790 N   0  0  0  0  0  0  0  0  0  0  0  0
   58.9104   32.6000   51.1616 H   0  0  0  0  0  0  0  0  0  0  0  0
   57.9646   31.1502   50.6819 H   0  0  0  0  0  0  0  0  0  0  0  0
   59.7600   31.0918   50.6819 H   0  0  0  0  0  0  0  0  0  0  0  0
   58.3023   30.2602   48.2691 H   0  0  0  0  0  0  0  0  0  0  0  0
   56.7752   32.0842   44.9368 H   0  0  0  0  0  0  0  0  0  0  0  0
   57.9732   31.5084   43.7072 H   0  0  0  0  0  0  0  0  0  0  0  0
   55.5169   30.1544   44.8018 H   0  0  0  0  0  0  0  0  0  0  0  0
   56.2177   30.2103   43.1086 H   0  0  0  0  0  0  0  0  0  0  0  0
   56.7185   28.0555   43.4942 H   0  0  0  0  0  0  0  0  0  0  0  0
   58.3200   26.0680   45.9760 H   0  0  0  0  0  0  0  0  0  0  0  0
   56.8141   24.1031   47.9631 H   0  0  0  0  0  0  0  0  0  0  0  0
   56.4482   21.6376   47.8688 H   0  0  0  0  0  0  0  0  0  0  0  0
   56.5523   20.4382   45.6807 H   0  0  0  0  0  0  0  0  0  0  0  0
   57.3656   24.1782   43.6661 H   0  0  0  0  0  0  0  0  0  0  0  0
   58.9424   27.6806   44.5101 H   0  0  0  0  0  0  0  0  0  0  0  0
   58.9184   29.1313   43.4338 H   0  0  0  0  0  0  0  0  0  0  0  0
   58.9839   29.0117   46.4765 H   0  0  0  0  0  0  0  0  0  0  0  0
   60.1127   29.8479   45.3331 H   0  0  0  0  0  0  0  0  0  0  0  0
   58.7265   32.9205   44.2652 H   0  0  0  0  0  0  0  0  0  0  0  0
   59.3592   35.2977   43.8469 H   0  0  0  0  0  0  0  0  0  0  0  0
   59.9357   36.7978   45.7531 H   0  0  0  0  0  0  0  0  0  0  0  0
   59.8795   35.9316   48.0923 H   0  0  0  0  0  0  0  0  0  0  0  0
  1  2  1  0
  2  3  2  0
  3  4  1  0
  4  5  1  0
  5  6  1  0
  6  7  1  0
  7  8  1  0
  8  9  1  0
  9 10  1  0
 10 11  2  0
 10 12  1  0
 12 13  1  0
 13 14  2  0
 14 15  1  0
 15 16  2  0
 16 17  1  0
 17 18  1  0
 17 19  2  0
  8 20  1  0
 20 21  1  0
  4 22  2  0
 22 23  1  0
 23 24  2  0
 24 25  1  0
 25 26  2  0
 26 27  1  0
 27 28  2  0
 28  2  1  0
 21  5  1  0
 27 22  1  0
 19 13  1  0
  1 29  1  0
  1 30  1  0
  1 31  1  0
  3 32  1  0
  6 33  1  0
  6 34  1  0
  7 35  1  0
  7 36  1  0
  8 37  1  0
 12 38  1  0
 14 39  1  0
 15 40  1  0
 16 41  1  0
 19 42  1  0
 20 43  1  0
 20 44  1  0
 21 45  1  0
 21 46  1  0
 23 47  1  0
 24 48  1  0
 25 49  1  0
 26 50  1  0
M  CHG  1   9  -1
M  END
>  <UniqueID>  (35) 
33

>  <SMILES>  (35) 
Cc1cc(N2CCC([N-]C(=O)Nc3cccc(Cl)c3)CC2)c2ccccc2n1

>  <Energy>  (35) 
65.54653592397614

>  <Genealogy>  (35) 
Cc1cc(N2CCC([N-]C(=O)Nc3cccc(Cl)c3)CC2)c2ccccc2n1 (protonated)
Cc1cc(N2CCC([N-]C(=O)Nc3cccc(Cl)c3)CC2)c2ccccc2n1 (3D coordinates assigned)
Cc1cc(N2CCC([N-]C(=O)Nc3cccc(Cl)c3)CC2)c2ccccc2n1 (nonaromatic ring conformer: 65.54653592397614 kcal/mol)

>  <smiles>  (35) 
Cc1cc(N2CCC(NC(=O)Nc3cccc(Cl)c3)CC2)c2ccccc2n1

>  <score_type>  (35) 
oracle

>  <origin>  (35) 
adg

>  <m_score__min__energy>  (35) 
-10.81

>  <m_primary>  (35) 
energy

$$$$
35:0
     RDKit          3D

 40 42  0  0  0  0  0  0  0  0999 V2000
   60.6450   33.8120   50.1950 C   0  0  0  0  0  0  0  0  0  0  0  0
   60.6660   33.3360   48.7380 C   0  0  1  0  0  0  0  0  0  0  0  0
   62.1090   33.4330   48.1670 C   0  0  0  0  0  0  0  0  0  0  0  0
   62.2850   33.7530   46.6890 C   0  0  0  0  0  0  0  0  0  0  0  0
   62.5820   32.3500   47.2040 C   0  0  0  0  0  0  0  0  0  0  0  0
   60.2430   31.9350   48.6760 N   0  0  0  0  0  0  0  0  0  0  0  0
   59.0790   31.8480   47.8680 C   0  0  0  0  0  0  0  0  0  0  0  0
   58.5320   30.7560   47.5570 O   0  0  0  0  0  0  0  0  0  0  0  0
   58.6160   33.1110   47.4260 N   0  0  0  0  0  0  0  0  0  0  0  0
   57.6760   33.3630   46.3380 C   0  0  0  0  0  0  0  0  0  0  0  0
   58.3430   33.1240   45.0220 C   0  0  0  0  0  0  0  0  0  0  0  0
   59.5210   33.5310   44.8360 O   0  0  0  0  0  0  0  0  0  0  0  0
   57.6540   32.3970   43.9990 N   0  0  0  0  0  0  0  0  0  0  0  0
   56.6470   31.3750   44.2670 C   0  0  0  0  0  0  0  0  0  0  0  0
   57.3020   30.0520   44.5820 C   0  0  0  0  0  0  0  0  0  0  0  0
   58.7040   29.9570   44.5630 C   0  0  0  0  0  0  0  0  0  0  0  0
   59.3360   28.7520   44.8890 C   0  0  0  0  0  0  0  0  0  0  0  0
   61.0880   28.6480   44.8750 Cl  0  0  0  0  0  0  0  0  0  0  0  0
   58.5730   27.6340   45.2340 C   0  0  0  0  0  0  0  0  0  0  0  0
   57.1780   27.7160   45.2480 C   0  0  0  0  0  0  0  0  0  0  0  0
   56.5380   28.9170   44.9260 C   0  0  0  0  0  0  0  0  0  0  0  0
   55.1490   28.9720   44.9560 O   0  0  0  0  0  0  0  0  0  0  0  0
   59.5750   34.0290   47.9400 C   0  0  0  0  0  0  0  0  0  0  0  0
   59.4710   35.2760   47.7910 O   0  0  0  0  0  0  0  0  0  0  0  0
   60.6834   32.9411   50.8658 H   0  0  0  0  0  0  0  0  0  0  0  0
   61.5155   34.4578   50.3823 H   0  0  0  0  0  0  0  0  0  0  0  0
   59.7210   34.3787   50.3823 H   0  0  0  0  0  0  0  0  0  0  0  0
   62.4907   33.8606   49.1059 H   0  0  0  0  0  0  0  0  0  0  0  0
   61.4031   33.9312   46.0562 H   0  0  0  0  0  0  0  0  0  0  0  0
   62.8471   34.5069   46.1183 H   0  0  0  0  0  0  0  0  0  0  0  0
   61.9143   31.5155   46.9436 H   0  0  0  0  0  0  0  0  0  0  0  0
   63.4467   31.6716   47.1597 H   0  0  0  0  0  0  0  0  0  0  0  0
   60.7390   31.1250   49.1110 H   0  0  0  0  0  0  0  0  0  0  0  0
   56.8136   32.6874   46.4376 H   0  0  0  0  0  0  0  0  0  0  0  0
   57.3378   34.4085   46.3873 H   0  0  0  0  0  0  0  0  0  0  0  0
   56.0339   31.6880   45.1250 H   0  0  0  0  0  0  0  0  0  0  0  0
   56.0178   31.2547   43.3728 H   0  0  0  0  0  0  0  0  0  0  0  0
   59.3080   30.8350   44.2903 H   0  0  0  0  0  0  0  0  0  0  0  0
   59.0706   26.6883   45.4949 H   0  0  0  0  0  0  0  0  0  0  0  0
   56.5804   26.8315   45.5136 H   0  0  0  0  0  0  0  0  0  0  0  0
  2  1  1  1
  2  3  1  0
  3  4  1  0
  4  5  1  0
  2  6  1  0
  6  7  1  0
  7  8  2  0
  7  9  1  0
  9 10  1  0
 10 11  1  0
 11 12  2  0
 11 13  1  0
 13 14  1  0
 14 15  1  0
 15 16  2  0
 16 17  1  0
 17 18  1  0
 17 19  2  0
 19 20  1  0
 20 21  2  0
 21 22  1  0
  9 23  1  0
 23 24  2  0
 23  2  1  0
  5  3  1  0
 21 15  1  0
  1 25  1  0
  1 26  1  0
  1 27  1  0
  3 28  1  0
  4 29  1  0
  4 30  1  0
  5 31  1  0
  5 32  1  0
  6 33  1  0
 10 34  1  0
 10 35  1  0
 14 36  1  0
 14 37  1  0
 16 38  1  0
 19 39  1  0
 20 40  1  0
M  CHG  2  13  -1  22  -1
M  END
>  <UniqueID>  (36) 
34

>  <SMILES>  (36) 
C[C@@]1(C2CC2)NC(=O)N(CC(=O)[N-]Cc2cc(Cl)ccc2[O-])C1=O

>  <Energy>  (36) 
321.1980685330751

>  <Genealogy>  (36) 
CC1(C2CC2)NC(=O)N(CC(=O)[N-]Cc2cc(Cl)ccc2[O-])C1=O (protonated)
C[C@@]1(C2CC2)NC(=O)N(CC(=O)[N-]Cc2cc(Cl)ccc2[O-])C1=O (chirality)
C[C@@]1(C2CC2)NC(=O)N(CC(=O)[N-]Cc2cc(Cl)ccc2[O-])C1=O (3D coordinates assigned)
C[C@@]1(C2CC2)NC(=O)N(CC(=O)[N-]Cc2cc(Cl)ccc2[O-])C1=O (nonaromatic ring conformer: 321.1980685330751 kcal/mol)

>  <smiles>  (36) 
CC1(C2CC2)NC(=O)N(CC(=O)NCc2cc(Cl)ccc2O)C1=O

>  <score_type>  (36) 
oracle

>  <origin>  (36) 
adg

>  <m_score__min__energy>  (36) 
-12.84

>  <m_primary>  (36) 
energy

$$$$
36:0
     RDKit          3D

 62 66  0  0  0  0  0  0  0  0999 V2000
   65.7290   34.8060   52.0420 C   0  0  0  0  0  0  0  0  0  0  0  0
   65.8780   33.3400   52.0620 N   0  0  0  0  0  0  0  0  0  0  0  0
   66.4470   32.8290   50.7960 C   0  0  0  0  0  0  0  0  0  0  0  0
   65.4730   33.0030   49.6190 C   0  0  0  0  0  0  0  0  0  0  0  0
   64.0910   32.7610   50.0480 N   0  0  0  0  0  0  0  0  0  0  0  0
   62.9900   33.2790   49.2750 C   0  0  0  0  0  0  0  0  0  0  0  0
   61.7940   33.6580   49.9070 C   0  0  0  0  0  0  0  0  0  0  0  0
   60.7170   34.1370   49.1570 C   0  0  0  0  0  0  0  0  0  0  0  0
   60.8110   34.2220   47.7570 C   0  0  0  0  0  0  0  0  0  0  0  0
   59.7210   34.6970   46.9520 N   0  0  0  0  0  0  0  0  0  0  0  0
   59.3710   34.2290   45.6440 C   0  0  0  0  0  0  0  0  0  0  0  0
   59.6420   34.9480   44.6480 O   0  0  0  0  0  0  0  0  0  0  0  0
   58.7070   32.9290   45.4280 C   0  0  0  0  0  0  0  0  0  0  0  0
   57.5940   32.7680   44.6100 C   0  0  0  0  0  0  0  0  0  0  0  0
   57.2730   31.4340   44.6970 C   0  0  0  0  0  0  0  0  0  0  0  0
   56.2420   30.7210   44.0930 C   0  0  0  0  0  0  0  0  0  0  0  0
   56.1520   29.3440   44.3550 C   0  0  0  0  0  0  0  0  0  0  0  0
   57.0970   28.7010   45.1950 C   0  0  0  0  0  0  0  0  0  0  0  0
   56.9610   27.2340   45.5120 C   0  0  0  0  0  0  0  0  0  0  0  0
   57.6130   26.9290   46.6940 F   0  0  0  0  0  0  0  0  0  0  0  0
   57.5120   26.4610   44.5030 F   0  0  0  0  0  0  0  0  0  0  0  0
   55.6220   26.9180   45.6400 F   0  0  0  0  0  0  0  0  0  0  0  0
   58.1160   29.4650   45.8090 C   0  0  0  0  0  0  0  0  0  0  0  0
   58.1830   30.8360   45.5310 C   0  0  0  0  0  0  0  0  0  0  0  0
   59.0750   31.7440   45.9920 N   0  0  0  0  0  0  0  0  0  0  0  0
   60.3120   31.4550   46.7310 C   0  0  0  0  0  0  0  0  0  0  0  0
   59.9890   30.9460   48.1090 C   0  0  0  0  0  0  0  0  0  0  0  0
   60.8060   29.9800   48.7220 C   0  0  0  0  0  0  0  0  0  0  0  0
   60.5240   29.5350   50.0170 C   0  0  0  0  0  0  0  0  0  0  0  0
   59.4280   30.0550   50.7140 C   0  0  0  0  0  0  0  0  0  0  0  0
   59.0770   29.4980   52.3400 Cl  0  0  0  0  0  0  0  0  0  0  0  0
   58.6140   31.0200   50.1130 C   0  0  0  0  0  0  0  0  0  0  0  0
   58.8940   31.4660   48.8180 C   0  0  0  0  0  0  0  0  0  0  0  0
   62.0090   33.8650   47.1280 C   0  0  0  0  0  0  0  0  0  0  0  0
   63.0870   33.3850   47.8780 C   0  0  0  0  0  0  0  0  0  0  0  0
   63.8680   32.0020   51.2820 C   0  0  0  0  0  0  0  0  0  0  0  0
   64.6160   32.6620   52.4560 C   0  0  0  0  0  0  0  0  0  0  0  0
   65.6905   35.1848   53.0740 H   0  0  0  0  0  0  0  0  0  0  0  0
   66.5862   35.2546   51.5185 H   0  0  0  0  0  0  0  0  0  0  0  0
   64.7991   35.0729   51.5185 H   0  0  0  0  0  0  0  0  0  0  0  0
   67.3738   33.3787   50.5751 H   0  0  0  0  0  0  0  0  0  0  0  0
   66.6440   31.7539   50.9198 H   0  0  0  0  0  0  0  0  0  0  0  0
   65.5559   34.0288   49.2306 H   0  0  0  0  0  0  0  0  0  0  0  0
   65.7321   32.2756   48.8356 H   0  0  0  0  0  0  0  0  0  0  0  0
   61.7048   33.5770   51.0004 H   0  0  0  0  0  0  0  0  0  0  0  0
   59.7919   34.4488   49.6640 H   0  0  0  0  0  0  0  0  0  0  0  0
   57.0807   33.5417   44.0201 H   0  0  0  0  0  0  0  0  0  0  0  0
   55.5196   31.2204   43.4306 H   0  0  0  0  0  0  0  0  0  0  0  0
   55.3387   28.7571   43.9032 H   0  0  0  0  0  0  0  0  0  0  0  0
   58.8399   28.9932   46.4897 H   0  0  0  0  0  0  0  0  0  0  0  0
   60.8893   30.6920   46.1882 H   0  0  0  0  0  0  0  0  0  0  0  0
   60.9007   32.3800   46.8197 H   0  0  0  0  0  0  0  0  0  0  0  0
   61.6718   29.5721   48.1798 H   0  0  0  0  0  0  0  0  0  0  0  0
   61.1646   28.7751   50.4885 H   0  0  0  0  0  0  0  0  0  0  0  0
   57.7518   31.4290   50.6601 H   0  0  0  0  0  0  0  0  0  0  0  0
   58.2529   32.2286   48.3517 H   0  0  0  0  0  0  0  0  0  0  0  0
   62.1032   33.9626   46.0364 H   0  0  0  0  0  0  0  0  0  0  0  0
   64.0169   33.0885   47.3706 H   0  0  0  0  0  0  0  0  0  0  0  0
   62.7910   31.9789   51.5046 H   0  0  0  0  0  0  0  0  0  0  0  0
   64.2459   30.9779   51.1464 H   0  0  0  0  0  0  0  0  0  0  0  0
   63.9507   33.4083   52.9146 H   0  0  0  0  0  0  0  0  0  0  0  0
   64.8910   31.8561   53.1523 H   0  0  0  0  0  0  0  0  0  0  0  0
  1  2  1  0
  2  3  1  0
  3  4  1  0
  4  5  1  0
  5  6  1  0
  6  7  2  0
  7  8  1  0
  8  9  2  0
  9 10  1  0
 10 11  1  0
 11 12  2  0
 11 13  1  0
 13 14  2  0
 14 15  1  0
 15 16  2  0
 16 17  1  0
 17 18  2  0
 18 19  1  0
 19 20  1  0
 19 21  1  0
 19 22  1  0
 18 23  1  0
 23 24  2  0
 24 25  1  0
 25 26  1  0
 26 27  1  0
 27 28  2  0
 28 29  1  0
 29 30  2  0
 30 31  1  0
 30 32  1  0
 32 33  2  0
  9 34  1  0
 34 35  2  0
  5 36  1  0
 36 37  1  0
 37  2  1  0
 35  6  1  0
 25 13  1  0
 33 27  1  0
 24 15  1  0
  1 38  1  0
  1 39  1  0
  1 40  1  0
  3 41  1  0
  3 42  1  0
  4 43  1  0
  4 44  1  0
  7 45  1  0
  8 46  1  0
 14 47  1  0
 16 48  1  0
 17 49  1  0
 23 50  1  0
 26 51  1  0
 26 52  1  0
 28 53  1  0
 29 54  1  0
 32 55  1  0
 33 56  1  0
 34 57  1  0
 35 58  1  0
 36 59  1  0
 36 60  1  0
 37 61  1  0
 37 62  1  0
M  CHG  1  10  -1
M  END
>  <UniqueID>  (37) 
35

>  <SMILES>  (37) 
CN1CCN(c2ccc([N-]C(=O)c3cc4ccc(C(F)(F)F)cc4n3Cc3ccc(Cl)cc3)cc2)CC1

>  <Energy>  (37) 
118.70439428880607

>  <Genealogy>  (37) 
CN1CCN(c2ccc([N-]C(=O)c3cc4ccc(C(F)(F)F)cc4n3Cc3ccc(Cl)cc3)cc2)CC1 (protonated)
CN1CCN(c2ccc([N-]C(=O)c3cc4ccc(C(F)(F)F)cc4n3Cc3ccc(Cl)cc3)cc2)CC1 (3D coordinates assigned)
CN1CCN(c2ccc([N-]C(=O)c3cc4ccc(C(F)(F)F)cc4n3Cc3ccc(Cl)cc3)cc2)CC1 (nonaromatic ring conformer: 118.70439428880607 kcal/mol)

>  <smiles>  (37) 
CN1CCN(c2ccc(NC(=O)c3cc4ccc(C(F)(F)F)cc4n3Cc3ccc(Cl)cc3)cc2)CC1

>  <score_type>  (37) 
oracle

>  <origin>  (37) 
adg

>  <m_score__min__energy>  (37) 
-9.8399999999999999

>  <m_primary>  (37) 
energy

$$$$
37:0
     RDKit          3D

 46 48  0  0  0  0  0  0  0  0999 V2000
   51.3140   30.6980   48.3450 H   0  0  0  0  0  0  0  0  0  0  0  0
   51.7890   30.0560   48.9680 O   0  0  0  0  0  0  0  0  0  0  0  0
   52.1960   30.4460   50.2440 C   0  0  0  0  0  0  0  0  0  0  0  0
   53.1730   29.7130   50.9330 C   0  0  0  0  0  0  0  0  0  0  0  0
   53.6142   28.8203   50.4656 H   0  0  0  0  0  0  0  0  0  0  0  0
   53.5940   30.1070   52.2140 C   0  0  0  0  0  0  0  0  0  0  0  0
   54.6230   29.2920   52.9060 C   0  0  0  0  0  0  0  0  0  0  0  0
   54.3680   28.2576   53.1799 H   0  0  0  0  0  0  0  0  0  0  0  0
   55.8450   29.7450   53.2160 C   0  0  0  0  0  0  0  0  0  0  0  0
   56.1312   29.8106   54.2761 H   0  0  0  0  0  0  0  0  0  0  0  0
   56.8210   30.1590   52.1920 C   0  0  0  0  0  0  0  0  0  0  0  0
   57.7830   29.3290   51.7310 N   0  0  0  0  0  0  0  0  0  0  0  0
   58.5640   29.9190   50.7840 C   0  0  0  0  0  0  0  0  0  0  0  0
   59.6890   29.1800   50.1320 C   0  0  0  0  0  0  0  0  0  0  0  0
   60.3427   28.7506   50.9055 H   0  0  0  0  0  0  0  0  0  0  0  0
   59.2828   28.3723   49.5055 H   0  0  0  0  0  0  0  0  0  0  0  0
   60.2690   29.8736   49.5055 H   0  0  0  0  0  0  0  0  0  0  0  0
   58.2340   31.2450   50.4970 C   0  0  0  0  0  0  0  0  0  0  0  0
   58.8710   32.1320   49.4680 C   0  0  0  0  0  0  0  0  0  0  0  0
   58.3657   33.1091   49.4713 H   0  0  0  0  0  0  0  0  0  0  0  0
   59.9361   32.2515   49.7156 H   0  0  0  0  0  0  0  0  0  0  0  0
   58.7650   31.5540   48.1660 O   0  0  0  0  0  0  0  0  0  0  0  0
   58.7060   32.2690   46.9560 C   0  0  0  0  0  0  0  0  0  0  0  0
   58.7920   33.6770   46.9260 C   0  0  0  0  0  0  0  0  0  0  0  0
   58.9594   34.2341   47.8596 H   0  0  0  0  0  0  0  0  0  0  0  0
   58.6660   34.3680   45.7190 C   0  0  0  0  0  0  0  0  0  0  0  0
   58.7375   35.4656   45.7053 H   0  0  0  0  0  0  0  0  0  0  0  0
   58.4500   33.6710   44.5320 C   0  0  0  0  0  0  0  0  0  0  0  0
   58.3401   34.2194   43.5848 H   0  0  0  0  0  0  0  0  0  0  0  0
   58.3730   32.2780   44.5440 C   0  0  0  0  0  0  0  0  0  0  0  0
   58.1914   31.7345   43.6050 H   0  0  0  0  0  0  0  0  0  0  0  0
   58.5250   31.5630   45.7430 C   0  0  0  0  0  0  0  0  0  0  0  0
   58.4320   30.0860   45.6910 C   0  0  0  0  0  0  0  0  0  0  0  0
   59.0135   29.4964   46.4151 H   0  0  0  0  0  0  0  0  0  0  0  0
   57.6710   29.4370   44.8010 C   0  0  0  0  0  0  0  0  0  0  0  0
   58.1614   28.8905   43.9819 H   0  0  0  0  0  0  0  0  0  0  0  0
   56.2020   29.4290   44.8800 C   0  0  0  0  0  0  0  0  0  0  0  0
   55.5740   28.3970   45.2380 O   0  0  0  0  0  0  0  0  0  0  0  0
   55.4930   30.5790   44.5510 O   0  0  0  0  0  0  0  0  0  0  0  0
   56.9000   31.6630   51.4340 S   0  0  0  0  0  0  0  0  0  0  0  0
   52.9990   31.2390   52.8080 C   0  0  0  0  0  0  0  0  0  0  0  0
   53.3036   31.5508   53.8179 H   0  0  0  0  0  0  0  0  0  0  0  0
   52.0240   31.9670   52.1200 C   0  0  0  0  0  0  0  0  0  0  0  0
   51.5689   32.8519   52.5889 H   0  0  0  0  0  0  0  0  0  0  0  0
   51.6250   31.5760   50.8400 C   0  0  0  0  0  0  0  0  0  0  0  0
   50.6560   32.3080   50.1640 O   0  0  0  0  0  0  0  0  0  0  0  0
  1  2  1  0
  2  3  1  0
  3  4  2  0
  4  5  1  0
  4  6  1  0
  6  7  1  0
  7  8  1  0
  7  9  2  0
  9 10  1  0
  9 11  1  0
 11 12  2  0
 12 13  1  0
 13 14  1  0
 14 15  1  0
 14 16  1  0
 14 17  1  0
 13 18  2  0
 18 19  1  0
 19 20  1  0
 19 21  1  0
 19 22  1  0
 22 23  1  0
 23 24  2  0
 24 25  1  0
 24 26  1  0
 26 27  1  0
 26 28  2  0
 28 29  1  0
 28 30  1  0
 30 31  1  0
 30 32  2  0
 32 33  1  0
 33 34  1  0
 33 35  2  0
 35 36  1  0
 35 37  1  0
 37 38  2  0
 37 39  1  0
 18 40  1  0
  6 41  2  0
 41 42  1  0
 41 43  1  0
 43 44  1  0
 43 45  2  0
 45 46  1  0
 45  3  1  0
 40 11  1  0
 32 23  1  0
M  CHG  2  39  -1  46  -1
M  END
>  <UniqueID>  (38) 
36

>  <SMILES>  (38) 
Cc1nc(/C=C/c2ccc([O-])c(O)c2)sc1COc1ccccc1/C=C/C(=O)[O-]

>  <Energy>  (38) 
81.13640519958281

>  <Genealogy>  (38) 
Cc1nc(C=Cc2ccc([O-])c(O)c2)sc1COc1ccccc1C=CC(=O)[O-] (protonated)
Cc1nc(/C=C/c2ccc([O-])c(O)c2)sc1COc1ccccc1/C=C/C(=O)[O-] (cis-trans isomerization)
Cc1nc(/C=C/c2ccc([O-])c(O)c2)sc1COc1ccccc1/C=C/C(=O)[O-] (3D coordinates assigned)
Cc1nc(/C=C/c2ccc([O-])c(O)c2)sc1COc1ccccc1/C=C/C(=O)[O-] (optimized conformer: 81.13640519958281 kcal/mol)

>  <smiles>  (38) 
Cc1nc(C=Cc2ccc(O)c(O)c2)sc1COc1ccccc1C=CC(=O)O

>  <score_type>  (38) 
oracle

>  <origin>  (38) 
adg

>  <m_score__min__energy>  (38) 
-16.800000000000001

>  <m_primary>  (38) 
energy

$$$$
38:0
     RDKit          3D

 47 49  0  0  0  0  0  0  0  0999 V2000
   54.0300   26.3070   46.3830 H   0  0  0  0  0  0  0  0  0  0  0  0
   54.9630   26.4310   46.0100 O   0  0  0  0  0  0  0  0  0  0  0  0
   56.0430   25.6750   46.4570 C   0  0  0  0  0  0  0  0  0  0  0  0
   55.9000   24.4940   47.0800 N   0  0  0  0  0  0  0  0  0  0  0  0
   57.1750   24.1290   47.3260 C   0  0  0  0  0  0  0  0  0  0  0  0
   57.4720   23.0560   47.9130 O   0  0  0  0  0  0  0  0  0  0  0  0
   58.1060   25.0070   46.9000 N   0  0  0  0  0  0  0  0  0  0  0  0
   57.3820   25.9910   46.3350 C   0  0  0  0  0  0  0  0  0  0  0  0
   57.9380   27.2380   45.7610 C   0  0  0  0  0  0  0  0  0  0  0  0
   57.8039   27.4023   44.6816 H   0  0  0  0  0  0  0  0  0  0  0  0
   58.5970   28.1900   46.4580 C   0  0  0  0  0  0  0  0  0  0  0  0
   58.2170   28.7530   47.6680 C   0  0  0  0  0  0  0  0  0  0  0  0
   57.3133   28.5110   48.2466 H   0  0  0  0  0  0  0  0  0  0  0  0
   59.1880   29.6750   48.0090 C   0  0  0  0  0  0  0  0  0  0  0  0
   59.0980   30.5430   49.2010 C   0  0  0  0  0  0  0  0  0  0  0  0
   59.3230   30.0520   50.3410 O   0  0  0  0  0  0  0  0  0  0  0  0
   58.7100   31.9160   49.0810 N   0  0  0  0  0  0  0  0  0  0  0  0
   59.5810   32.9610   48.5590 C   0  0  0  0  0  0  0  0  0  0  0  0
   59.4877   33.8595   49.1867 H   0  0  0  0  0  0  0  0  0  0  0  0
   60.6207   32.6020   48.5710 H   0  0  0  0  0  0  0  0  0  0  0  0
   59.1940   33.2990   47.1470 C   0  0  0  0  0  0  0  0  0  0  0  0
   59.5120   34.5580   46.6140 C   0  0  0  0  0  0  0  0  0  0  0  0
   60.0091   35.3103   47.2440 H   0  0  0  0  0  0  0  0  0  0  0  0
   59.1990   34.8590   45.2850 C   0  0  0  0  0  0  0  0  0  0  0  0
   59.4417   35.8506   44.8754 H   0  0  0  0  0  0  0  0  0  0  0  0
   58.5790   33.9040   44.4760 C   0  0  0  0  0  0  0  0  0  0  0  0
   58.3391   34.1431   43.4294 H   0  0  0  0  0  0  0  0  0  0  0  0
   58.2620   32.6410   44.9960 C   0  0  0  0  0  0  0  0  0  0  0  0
   57.5250   31.4070   43.9750 S   0  0  0  0  0  0  0  0  0  0  0  0
   57.2450   31.9970   42.6220 O   0  0  0  0  0  0  0  0  0  0  0  0
   58.4630   30.2440   43.8040 O   0  0  0  0  0  0  0  0  0  0  0  0
   56.0340   30.8560   44.6760 N   0  0  0  0  0  0  0  0  0  0  0  0
   55.5400   29.6980   43.9410 C   0  0  0  0  0  0  0  0  0  0  0  0
   55.2106   28.9258   44.6518 H   0  0  0  0  0  0  0  0  0  0  0  0
   54.6922   29.9996   43.3083 H   0  0  0  0  0  0  0  0  0  0  0  0
   56.3444   29.2948   43.3083 H   0  0  0  0  0  0  0  0  0  0  0  0
   58.5700   32.3420   46.3300 C   0  0  0  0  0  0  0  0  0  0  0  0
   58.3216   31.3518   46.7397 H   0  0  0  0  0  0  0  0  0  0  0  0
   60.1790   29.6800   47.0820 N   0  0  0  0  0  0  0  0  0  0  0  0
   61.4050   30.4870   47.1290 C   0  0  0  0  0  0  0  0  0  0  0  0
   61.6834   30.6702   48.1773 H   0  0  0  0  0  0  0  0  0  0  0  0
   62.2188   29.9474   46.6225 H   0  0  0  0  0  0  0  0  0  0  0  0
   61.2312   31.4478   46.6225 H   0  0  0  0  0  0  0  0  0  0  0  0
   59.8130   28.7970   46.1150 C   0  0  0  0  0  0  0  0  0  0  0  0
   60.5140   28.5800   44.9880 C   0  0  0  0  0  0  0  0  0  0  0  0
   61.4614   29.1125   44.8185 H   0  0  0  0  0  0  0  0  0  0  0  0
   60.1399   27.8700   44.2357 H   0  0  0  0  0  0  0  0  0  0  0  0
  1  2  1  0
  2  3  1  0
  3  4  1  0
  4  5  1  0
  5  6  2  0
  5  7  1  0
  7  8  1  0
  8  9  1  0
  9 10  1  0
  9 11  2  0
 11 12  1  0
 12 13  1  0
 12 14  2  0
 14 15  1  0
 15 16  2  0
 15 17  1  0
 17 18  1  0
 18 19  1  0
 18 20  1  0
 18 21  1  0
 21 22  2  0
 22 23  1  0
 22 24  1  0
 24 25  1  0
 24 26  2  0
 26 27  1  0
 26 28  1  0
 28 29  1  0
 29 30  2  0
 29 31  2  0
 29 32  1  0
 32 33  1  0
 33 34  1  0
 33 35  1  0
 33 36  1  0
 28 37  2  0
 37 38  1  0
 14 39  1  0
 39 40  1  0
 40 41  1  0
 40 42  1  0
 40 43  1  0
 39 44  1  0
 44 45  2  0
 45 46  1  0
 45 47  1  0
  8  3  2  0
 44 11  1  0
 37 21  1  0
M  CHG  4   4  -1   7  -1  17  -1  32  -1
M  END
>  <UniqueID>  (39) 
37

>  <SMILES>  (39) 
C=c1/c(=C/c2[n-]c(=O)[n-]c2O)cc(C(=O)[N-]Cc2cccc(S(=O)(=O)[N-]C)c2)n1C

>  <Energy>  (39) 
109.84198973217535

>  <Genealogy>  (39) 
C=c1c(=Cc2[n-]c(=O)[n-]c2O)cc(C(=O)[N-]Cc2cccc(S(=O)(=O)[N-]C)c2)n1C (protonated)
C=c1/c(=C/c2[n-]c(=O)[n-]c2O)cc(C(=O)[N-]Cc2cccc(S(=O)(=O)[N-]C)c2)n1C (cis-trans isomerization)
C=c1/c(=C/c2[n-]c(=O)[n-]c2O)cc(C(=O)[N-]Cc2cccc(S(=O)(=O)[N-]C)c2)n1C (3D coordinates assigned)
C=c1/c(=C/c2[n-]c(=O)[n-]c2O)cc(C(=O)[N-]Cc2cccc(S(=O)(=O)[N-]C)c2)n1C (optimized conformer: 109.84198973217535 kcal/mol)

>  <smiles>  (39) 
C=c1c(=Cc2[nH]c(=O)[nH]c2O)cc(C(=O)NCc2cccc(S(=O)(=O)NC)c2)n1C

>  <score_type>  (39) 
oracle

>  <origin>  (39) 
adg

>  <m_score__min__energy>  (39) 
-16.34

>  <m_primary>  (39) 
energy

$$$$
39:0
     RDKit          3D

 43 45  0  0  0  0  0  0  0  0999 V2000
   58.0493   32.2992   42.0551 H   0  0  0  0  0  0  0  0  0  0  0  0
   57.9440   32.2910   43.1500 C   0  0  0  0  0  0  0  0  0  0  0  0
   58.3120   33.5630   44.1880 S   0  0  0  0  0  0  0  0  0  0  0  0
   57.8790   32.6980   45.5620 C   0  0  0  0  0  0  0  0  0  0  0  0
   57.9520   33.1810   46.7670 N   0  0  0  0  0  0  0  0  0  0  0  0
   59.0890   33.8400   47.3540 C   0  0  0  0  0  0  0  0  0  0  0  0
   58.9660   34.9900   47.8590 O   0  0  0  0  0  0  0  0  0  0  0  0
   60.4150   33.1660   47.3820 C   0  0  0  0  0  0  0  0  0  0  0  0
   61.5710   33.8830   47.0110 C   0  0  0  0  0  0  0  0  0  0  0  0
   61.4830   34.9339   46.6980 H   0  0  0  0  0  0  0  0  0  0  0  0
   62.8270   33.2720   47.0370 C   0  0  0  0  0  0  0  0  0  0  0  0
   63.7214   33.8428   46.7466 H   0  0  0  0  0  0  0  0  0  0  0  0
   62.9490   31.9380   47.4310 C   0  0  0  0  0  0  0  0  0  0  0  0
   63.9390   31.4591   47.4514 H   0  0  0  0  0  0  0  0  0  0  0  0
   61.8150   31.2120   47.7990 C   0  0  0  0  0  0  0  0  0  0  0  0
   61.9141   30.1606   48.1069 H   0  0  0  0  0  0  0  0  0  0  0  0
   60.5520   31.8160   47.7780 C   0  0  0  0  0  0  0  0  0  0  0  0
   59.4780   31.0690   48.1390 F   0  0  0  0  0  0  0  0  0  0  0  0
   57.4530   31.4510   45.2640 N   0  0  0  0  0  0  0  0  0  0  0  0
   57.4820   31.2240   43.9210 C   0  0  0  0  0  0  0  0  0  0  0  0
   57.0830   29.9040   43.3390 C   0  0  0  0  0  0  0  0  0  0  0  0
   57.9002   29.1814   43.4808 H   0  0  0  0  0  0  0  0  0  0  0  0
   56.8783   30.0297   42.2656 H   0  0  0  0  0  0  0  0  0  0  0  0
   55.8520   29.3980   44.0170 C   0  0  0  0  0  0  0  0  0  0  0  0
   54.7160   29.6720   43.5410 O   0  0  0  0  0  0  0  0  0  0  0  0
   55.9710   28.6690   45.2440 N   0  0  0  0  0  0  0  0  0  0  0  0
   57.1460   27.9650   45.6720 C   0  0  0  0  0  0  0  0  0  0  0  0
   58.3540   28.6710   45.7260 C   0  0  0  0  0  0  0  0  0  0  0  0
   58.3847   29.7241   45.4096 H   0  0  0  0  0  0  0  0  0  0  0  0
   59.5200   28.0500   46.1780 C   0  0  0  0  0  0  0  0  0  0  0  0
   60.4612   28.6172   46.2275 H   0  0  0  0  0  0  0  0  0  0  0  0
   59.4920   26.7100   46.5670 C   0  0  0  0  0  0  0  0  0  0  0  0
   60.4078   26.2272   46.9388 H   0  0  0  0  0  0  0  0  0  0  0  0
   58.3010   25.9790   46.4850 C   0  0  0  0  0  0  0  0  0  0  0  0
   58.3060   24.6670   46.8340 F   0  0  0  0  0  0  0  0  0  0  0  0
   57.1240   26.5890   46.0150 C   0  0  0  0  0  0  0  0  0  0  0  0
   55.9090   25.7620   45.8610 C   0  0  0  0  0  0  0  0  0  0  0  0
   54.7790   26.3060   45.9850 O   0  0  0  0  0  0  0  0  0  0  0  0
   55.9780   24.3510   45.6160 N   0  0  0  0  0  0  0  0  0  0  0  0
   56.3150   23.7570   44.3290 C   0  0  0  0  0  0  0  0  0  0  0  0
   56.8519   22.8107   44.4912 H   0  0  0  0  0  0  0  0  0  0  0  0
   55.3926   23.5627   43.7620 H   0  0  0  0  0  0  0  0  0  0  0  0
   56.9550   24.4491   43.7620 H   0  0  0  0  0  0  0  0  0  0  0  0
  1  2  1  0
  2  3  1  0
  3  4  1  0
  4  5  2  0
  5  6  1  0
  6  7  2  0
  6  8  1  0
  8  9  2  0
  9 10  1  0
  9 11  1  0
 11 12  1  0
 11 13  2  0
 13 14  1  0
 13 15  1  0
 15 16  1  0
 15 17  2  0
 17 18  1  0
  4 19  1  0
 19 20  1  0
 20 21  1  0
 21 22  1  0
 21 23  1  0
 21 24  1  0
 24 25  2  0
 24 26  1  0
 26 27  1  0
 27 28  2  0
 28 29  1  0
 28 30  1  0
 30 31  1  0
 30 32  2  0
 32 33  1  0
 32 34  1  0
 34 35  1  0
 34 36  2  0
 36 37  1  0
 37 38  2  0
 37 39  1  0
 39 40  1  0
 40 41  1  0
 40 42  1  0
 40 43  1  0
 20  2  2  0
 36 27  1  0
 17  8  1  0
M  CHG  3  19  -1  26  -1  39  -1
M  END
>  <UniqueID>  (40) 
38

>  <SMILES>  (40) 
C[N-]C(=O)c1c(F)cccc1[N-]C(=O)Cc1cs/c(=N/C(=O)c2ccccc2F)[n-]1

>  <Energy>  (40) 
88.04972856238629

>  <Genealogy>  (40) 
C[N-]C(=O)c1c(F)cccc1[N-]C(=O)Cc1csc(=NC(=O)c2ccccc2F)[n-]1 (protonated)
C[N-]C(=O)c1c(F)cccc1[N-]C(=O)Cc1cs/c(=N/C(=O)c2ccccc2F)[n-]1 (cis-trans isomerization)
C[N-]C(=O)c1c(F)cccc1[N-]C(=O)Cc1cs/c(=N/C(=O)c2ccccc2F)[n-]1 (3D coordinates assigned)
C[N-]C(=O)c1c(F)cccc1[N-]C(=O)Cc1cs/c(=N/C(=O)c2ccccc2F)[n-]1 (optimized conformer: 88.04972856238629 kcal/mol)

>  <smiles>  (40) 
CNC(=O)c1c(F)cccc1NC(=O)Cc1csc(=NC(=O)c2ccccc2F)[nH]1

>  <score_type>  (40) 
oracle

>  <origin>  (40) 
adg

>  <m_score__min__energy>  (40) 
-14.43

>  <m_primary>  (40) 
energy

$$$$
40:0
     RDKit          3D

 36 37  0  0  0  0  0  0  0  0999 V2000
   59.1710   34.9270   44.8610 C   0  0  0  0  0  0  0  0  0  0  0  0
   59.5190   35.2530   46.2030 O   0  0  0  0  0  0  0  0  0  0  0  0
   59.4360   34.3600   47.2810 C   0  0  0  0  0  0  0  0  0  0  0  0
   60.4180   34.2970   48.2890 C   0  0  0  0  0  0  0  0  0  0  0  0
   60.2890   33.3880   49.3430 C   0  0  0  0  0  0  0  0  0  0  0  0
   59.1800   32.5300   49.4090 C   0  0  0  0  0  0  0  0  0  0  0  0
   59.0470   31.5320   50.5260 C   0  0  0  0  0  0  0  0  0  0  0  0
   59.2280   30.1770   50.0170 N   0  0  0  0  0  0  0  0  0  0  0  0
   59.9510   29.8670   48.8200 C   0  0  0  0  0  0  0  0  0  0  0  0
   61.1500   30.2420   48.6990 O   0  0  0  0  0  0  0  0  0  0  0  0
   59.2970   29.1110   47.7270 C   0  0  0  0  0  0  0  0  0  0  0  0
   59.5220   27.7300   47.5810 C   0  0  0  0  0  0  0  0  0  0  0  0
   58.9110   27.0180   46.5450 C   0  0  0  0  0  0  0  0  0  0  0  0
   58.0670   27.6730   45.6470 C   0  0  0  0  0  0  0  0  0  0  0  0
   57.8250   29.0460   45.7810 C   0  0  0  0  0  0  0  0  0  0  0  0
   56.7750   29.8810   44.6410 S   0  0  0  0  0  0  0  0  0  0  0  0
   55.1480   29.3380   44.8500 N   0  0  0  0  0  0  0  0  0  0  0  0
   56.8400   31.3650   44.8720 O   0  0  0  0  0  0  0  0  0  0  0  0
   57.2250   29.5910   43.2360 O   0  0  0  0  0  0  0  0  0  0  0  0
   58.4430   29.7620   46.8160 C   0  0  0  0  0  0  0  0  0  0  0  0
   58.2040   32.5910   48.4020 C   0  0  0  0  0  0  0  0  0  0  0  0
   58.3330   33.5010   47.3500 C   0  0  0  0  0  0  0  0  0  0  0  0
   58.3682   34.1750   44.8627 H   0  0  0  0  0  0  0  0  0  0  0  0
   58.8240   35.8326   44.3419 H   0  0  0  0  0  0  0  0  0  0  0  0
   60.0520   34.5217   44.3419 H   0  0  0  0  0  0  0  0  0  0  0  0
   61.2901   34.9660   48.2465 H   0  0  0  0  0  0  0  0  0  0  0  0
   61.0611   33.3448   50.1253 H   0  0  0  0  0  0  0  0  0  0  0  0
   59.8112   31.7380   51.2899 H   0  0  0  0  0  0  0  0  0  0  0  0
   58.0425   31.6183   50.9659 H   0  0  0  0  0  0  0  0  0  0  0  0
   60.1835   27.2068   48.2872 H   0  0  0  0  0  0  0  0  0  0  0  0
   59.0958   25.9390   46.4372 H   0  0  0  0  0  0  0  0  0  0  0  0
   57.5904   27.1092   44.8315 H   0  0  0  0  0  0  0  0  0  0  0  0
   55.1570   28.6460   45.6330 H   0  0  0  0  0  0  0  0  0  0  0  0
   58.2591   30.8418   46.9173 H   0  0  0  0  0  0  0  0  0  0  0  0
   57.3338   31.9193   48.4414 H   0  0  0  0  0  0  0  0  0  0  0  0
   57.5603   33.5429   46.5683 H   0  0  0  0  0  0  0  0  0  0  0  0
  1  2  1  0
  2  3  1  0
  3  4  2  0
  4  5  1  0
  5  6  2  0
  6  7  1  0
  7  8  1  0
  8  9  1  0
  9 10  2  0
  9 11  1  0
 11 12  2  0
 12 13  1  0
 13 14  2  0
 14 15  1  0
 15 16  1  0
 16 17  1  0
 16 18  2  0
 16 19  2  0
 15 20  2  0
  6 21  1  0
 21 22  2  0
 22  3  1  0
 20 11  1  0
  1 23  1  0
  1 24  1  0
  1 25  1  0
  4 26  1  0
  5 27  1  0
  7 28  1  0
  7 29  1  0
 12 30  1  0
 13 31  1  0
 14 32  1  0
 17 33  1  0
 20 34  1  0
 21 35  1  0
 22 36  1  0
M  CHG  2   8  -1  17  -1
M  END
>  <UniqueID>  (41) 
39

>  <SMILES>  (41) 
COc1ccc(C[N-]C(=O)c2cccc(S([NH-])(=O)=O)c2)cc1

>  <Energy>  (41) 
33.912557775936705

>  <Genealogy>  (41) 
COc1ccc(C[N-]C(=O)c2cccc(S([NH-])(=O)=O)c2)cc1 (protonated)
COc1ccc(C[N-]C(=O)c2cccc(S([NH-])(=O)=O)c2)cc1 (3D coordinates assigned)
COc1ccc(C[N-]C(=O)c2cccc(S([NH-])(=O)=O)c2)cc1 (optimized conformer: 33.912557775936705 kcal/mol)

>  <smiles>  (41) 
COc1ccc(CNC(=O)c2cccc(S(N)(=O)=O)c2)cc1

>  <score_type>  (41) 
oracle

>  <origin>  (41) 
adg

>  <m_score__min__energy>  (41) 
-11.949999999999999

>  <m_primary>  (41) 
energy

$$$$
41:0
     RDKit          3D

 47 49  0  0  0  0  0  0  0  0999 V2000
   60.2840   27.9390   44.9550 O   0  0  0  0  0  0  0  0  0  0  0  0
   59.5150   27.7250   45.9320 C   0  0  0  0  0  0  0  0  0  0  0  0
   59.9190   26.7400   46.9800 C   0  0  0  0  0  0  0  0  0  0  0  0
   59.3920   27.1700   48.2700 N   0  0  0  0  0  0  0  0  0  0  0  0
   60.0530   28.0770   49.1630 C   0  0  0  0  0  0  0  0  0  0  0  0
   60.4360   27.6500   50.2840 O   0  0  0  0  0  0  0  0  0  0  0  0
   60.3280   29.4800   48.7970 C   0  0  0  0  0  0  0  0  0  0  0  0
   61.0440   29.7930   47.6310 C   0  0  0  0  0  0  0  0  0  0  0  0
   61.2810   31.1250   47.2840 C   0  0  0  0  0  0  0  0  0  0  0  0
   60.7860   32.1630   48.0860 C   0  0  0  0  0  0  0  0  0  0  0  0
   61.0630   33.8460   47.6330 S   0  0  0  0  0  0  0  0  0  0  0  0
   61.9280   33.8910   46.4040 O   0  0  0  0  0  0  0  0  0  0  0  0
   61.8020   34.5410   48.7440 O   0  0  0  0  0  0  0  0  0  0  0  0
   59.5640   34.6980   47.3170 N   0  0  0  0  0  0  0  0  0  0  0  0
   59.5550   35.2710   45.9670 C   0  0  0  0  0  0  0  0  0  0  0  0
   58.7860   34.3310   45.0510 C   0  0  0  0  0  0  0  0  0  0  0  0
   58.0490   33.3730   45.9670 C   0  0  0  0  0  0  0  0  0  0  0  0
   58.4150   33.7900   47.3830 C   0  0  0  0  0  0  0  0  0  0  0  0
   60.0580   31.8530   49.2430 C   0  0  0  0  0  0  0  0  0  0  0  0
   59.8220   30.5210   49.5910 C   0  0  0  0  0  0  0  0  0  0  0  0
   58.3040   28.4800   46.0870 N   0  0  0  0  0  0  0  0  0  0  0  0
   57.7910   29.3640   45.0780 C   0  0  0  0  0  0  0  0  0  0  0  0
   58.6380   30.3390   44.5280 C   0  0  0  0  0  0  0  0  0  0  0  0
   58.1640   31.2180   43.5500 C   0  0  0  0  0  0  0  0  0  0  0  0
   56.8370   31.1420   43.1240 C   0  0  0  0  0  0  0  0  0  0  0  0
   55.9770   30.1920   43.6840 C   0  0  0  0  0  0  0  0  0  0  0  0
   56.4430   29.3130   44.6680 C   0  0  0  0  0  0  0  0  0  0  0  0
   55.5540   28.4170   45.2530 O   0  0  0  0  0  0  0  0  0  0  0  0
   59.5139   25.7486   46.7289 H   0  0  0  0  0  0  0  0  0  0  0  0
   61.0163   26.6819   47.0296 H   0  0  0  0  0  0  0  0  0  0  0  0
   61.4206   28.9847   46.9869 H   0  0  0  0  0  0  0  0  0  0  0  0
   61.8584   31.3606   46.3778 H   0  0  0  0  0  0  0  0  0  0  0  0
   59.0650   36.2557   45.9847 H   0  0  0  0  0  0  0  0  0  0  0  0
   60.5854   35.3948   45.6023 H   0  0  0  0  0  0  0  0  0  0  0  0
   58.0723   34.8964   44.4338 H   0  0  0  0  0  0  0  0  0  0  0  0
   59.4576   33.7971   44.3626 H   0  0  0  0  0  0  0  0  0  0  0  0
   56.9630   33.4542   45.8123 H   0  0  0  0  0  0  0  0  0  0  0  0
   58.3272   32.3275   45.7680 H   0  0  0  0  0  0  0  0  0  0  0  0
   57.5622   34.3037   47.8509 H   0  0  0  0  0  0  0  0  0  0  0  0
   58.6682   32.9040   47.9838 H   0  0  0  0  0  0  0  0  0  0  0  0
   59.6709   32.6622   49.8797 H   0  0  0  0  0  0  0  0  0  0  0  0
   59.2364   30.2866   50.4922 H   0  0  0  0  0  0  0  0  0  0  0  0
   57.8560   28.4970   47.0290 H   0  0  0  0  0  0  0  0  0  0  0  0
   59.6813   30.4117   44.8688 H   0  0  0  0  0  0  0  0  0  0  0  0
   58.8379   31.9709   43.1153 H   0  0  0  0  0  0  0  0  0  0  0  0
   56.4679   31.8290   42.3482 H   0  0  0  0  0  0  0  0  0  0  0  0
   54.9305   30.1355   43.3498 H   0  0  0  0  0  0  0  0  0  0  0  0
  1  2  2  0
  2  3  1  0
  3  4  1  0
  4  5  1  0
  5  6  2  0
  5  7  1  0
  7  8  2  0
  8  9  1  0
  9 10  2  0
 10 11  1  0
 11 12  2  0
 11 13  2  0
 11 14  1  0
 14 15  1  0
 15 16  1  0
 16 17  1  0
 17 18  1  0
 10 19  1  0
 19 20  2  0
  2 21  1  0
 21 22  1  0
 22 23  2  0
 23 24  1  0
 24 25  2  0
 25 26  1  0
 26 27  2  0
 27 28  1  0
 20  7  1  0
 27 22  1  0
 18 14  1  0
  3 29  1  0
  3 30  1  0
  8 31  1  0
  9 32  1  0
 15 33  1  0
 15 34  1  0
 16 35  1  0
 16 36  1  0
 17 37  1  0
 17 38  1  0
 18 39  1  0
 18 40  1  0
 19 41  1  0
 20 42  1  0
 21 43  1  0
 23 44  1  0
 24 45  1  0
 25 46  1  0
 26 47  1  0
M  CHG  2   4  -1  28  -1
M  END
>  <UniqueID>  (42) 
40

>  <SMILES>  (42) 
O=C(C[N-]C(=O)c1ccc(S(=O)(=O)N2CCCC2)cc1)Nc1ccccc1[O-]

>  <Energy>  (42) 
55.69302038216831

>  <Genealogy>  (42) 
O=C(C[N-]C(=O)c1ccc(S(=O)(=O)N2CCCC2)cc1)Nc1ccccc1[O-] (protonated)
O=C(C[N-]C(=O)c1ccc(S(=O)(=O)N2CCCC2)cc1)Nc1ccccc1[O-] (3D coordinates assigned)
O=C(C[N-]C(=O)c1ccc(S(=O)(=O)N2CCCC2)cc1)Nc1ccccc1[O-] (nonaromatic ring conformer: 55.69302038216831 kcal/mol)

>  <smiles>  (42) 
O=C(CNC(=O)c1ccc(S(=O)(=O)N2CCCC2)cc1)Nc1ccccc1O

>  <score_type>  (42) 
oracle

>  <origin>  (42) 
adg

>  <m_score__min__energy>  (42) 
-14.720000000000001

>  <m_primary>  (42) 
energy

$$$$
42:0
     RDKit          3D

 49 51  0  0  0  0  0  0  0  0999 V2000
   63.0560   31.7910   48.1190 C   0  0  0  0  0  0  0  0  0  0  0  0
   61.7690   31.6770   48.8810 C   0  0  0  0  0  0  0  0  0  0  0  0
   60.9720   32.8040   49.0870 C   0  0  0  0  0  0  0  0  0  0  0  0
   59.7630   32.6670   49.7560 C   0  0  0  0  0  0  0  0  0  0  0  0
   59.3650   31.4070   50.2000 C   0  0  0  0  0  0  0  0  0  0  0  0
   58.2600   31.2850   50.7960 O   0  0  0  0  0  0  0  0  0  0  0  0
   60.1740   30.3200   49.9780 N   0  0  0  0  0  0  0  0  0  0  0  0
   59.7650   28.9730   50.4080 C   0  0  0  0  0  0  0  0  0  0  0  0
   60.4910   27.9280   49.6060 C   0  0  0  0  0  0  0  0  0  0  0  0
   60.8830   26.8760   50.1780 O   0  0  0  0  0  0  0  0  0  0  0  0
   60.7120   28.0710   48.1970 N   0  0  0  0  0  0  0  0  0  0  0  0
   59.9100   28.8340   47.2850 C   0  0  0  0  0  0  0  0  0  0  0  0
   58.5700   28.4760   47.0970 C   0  0  0  0  0  0  0  0  0  0  0  0
   57.7660   29.1930   46.2070 C   0  0  0  0  0  0  0  0  0  0  0  0
   58.2980   30.2690   45.4820 C   0  0  0  0  0  0  0  0  0  0  0  0
   57.2720   31.2020   44.3910 S   0  0  0  0  0  0  0  0  0  0  0  0
   57.6960   30.9470   42.9710 O   0  0  0  0  0  0  0  0  0  0  0  0
   55.8470   30.7470   44.5390 O   0  0  0  0  0  0  0  0  0  0  0  0
   57.3700   32.9150   44.7320 N   0  0  0  0  0  0  0  0  0  0  0  0
   57.0650   33.2060   46.1560 C   0  0  0  0  0  0  0  0  0  0  0  0
   58.3210   33.4970   46.9900 C   0  0  0  0  0  0  0  0  0  0  0  0
   59.1030   34.6930   46.4180 C   0  0  0  0  0  0  0  0  0  0  0  0
   58.9610   34.8200   44.8900 C   0  0  0  0  0  0  0  0  0  0  0  0
   58.6570   33.4630   44.2510 C   0  0  0  0  0  0  0  0  0  0  0  0
   59.6510   30.6000   45.6370 C   0  0  0  0  0  0  0  0  0  0  0  0
   60.4550   29.8840   46.5280 C   0  0  0  0  0  0  0  0  0  0  0  0
   61.3320   30.4620   49.3180 N   0  0  0  0  0  0  0  0  0  0  0  0
   63.8954   31.8654   48.8260 H   0  0  0  0  0  0  0  0  0  0  0  0
   63.1875   30.9010   47.4861 H   0  0  0  0  0  0  0  0  0  0  0  0
   63.0290   32.6903   47.4861 H   0  0  0  0  0  0  0  0  0  0  0  0
   61.2979   33.7897   48.7235 H   0  0  0  0  0  0  0  0  0  0  0  0
   59.1249   33.5451   49.9341 H   0  0  0  0  0  0  0  0  0  0  0  0
   60.0041   28.8438   51.4739 H   0  0  0  0  0  0  0  0  0  0  0  0
   58.6825   28.8591   50.2490 H   0  0  0  0  0  0  0  0  0  0  0  0
   58.1476   27.6258   47.6527 H   0  0  0  0  0  0  0  0  0  0  0  0
   56.7108   28.9120   46.0745 H   0  0  0  0  0  0  0  0  0  0  0  0
   56.4032   34.0835   46.2007 H   0  0  0  0  0  0  0  0  0  0  0  0
   56.5877   32.3104   46.5805 H   0  0  0  0  0  0  0  0  0  0  0  0
   58.0208   33.7255   48.0233 H   0  0  0  0  0  0  0  0  0  0  0  0
   58.9710   32.6100   46.9626 H   0  0  0  0  0  0  0  0  0  0  0  0
   58.7262   35.6153   46.8843 H   0  0  0  0  0  0  0  0  0  0  0  0
   60.1680   34.5305   46.6403 H   0  0  0  0  0  0  0  0  0  0  0  0
   58.1407   35.5165   44.6619 H   0  0  0  0  0  0  0  0  0  0  0  0
   59.9108   35.1945   44.4805 H   0  0  0  0  0  0  0  0  0  0  0  0
   58.6081   33.5848   43.1589 H   0  0  0  0  0  0  0  0  0  0  0  0
   59.4573   32.7621   44.5306 H   0  0  0  0  0  0  0  0  0  0  0  0
   60.0822   31.4275   45.0545 H   0  0  0  0  0  0  0  0  0  0  0  0
   61.5184   30.1437   46.6368 H   0  0  0  0  0  0  0  0  0  0  0  0
   61.9230   29.6190   49.1270 H   0  0  0  0  0  0  0  0  0  0  0  0
  1  2  1  0
  2  3  1  0
  3  4  2  0
  4  5  1  0
  5  6  2  0
  5  7  1  0
  7  8  1  0
  8  9  1  0
  9 10  2  0
  9 11  1  0
 11 12  1  0
 12 13  2  0
 13 14  1  0
 14 15  2  0
 15 16  1  0
 16 17  2  0
 16 18  2  0
 16 19  1  0
 19 20  1  0
 20 21  1  0
 21 22  1  0
 22 23  1  0
 23 24  1  0
 15 25  1  0
 25 26  2  0
  7 27  1  0
 27  2  2  0
 26 12  1  0
 24 19  1  0
  1 28  1  0
  1 29  1  0
  1 30  1  0
  3 31  1  0
  4 32  1  0
  8 33  1  0
  8 34  1  0
 13 35  1  0
 14 36  1  0
 20 37  1  0
 20 38  1  0
 21 39  1  0
 21 40  1  0
 22 41  1  0
 22 42  1  0
 23 43  1  0
 23 44  1  0
 24 45  1  0
 24 46  1  0
 25 47  1  0
 26 48  1  0
 27 49  1  0
M  CHG  2  11  -1  27   1
M  END
>  <UniqueID>  (43) 
41

>  <SMILES>  (43) 
Cc1ccc(=O)n(CC(=O)[N-]c2ccc(S(=O)(=O)N3CCCCC3)cc2)[nH+]1

>  <Energy>  (43) 
59.43683356627225

>  <Genealogy>  (43) 
Cc1ccc(=O)n(CC(=O)[N-]c2ccc(S(=O)(=O)N3CCCCC3)cc2)[nH+]1 (protonated)
Cc1ccc(=O)n(CC(=O)[N-]c2ccc(S(=O)(=O)N3CCCCC3)cc2)[nH+]1 (3D coordinates assigned)
Cc1ccc(=O)n(CC(=O)[N-]c2ccc(S(=O)(=O)N3CCCCC3)cc2)[nH+]1 (nonaromatic ring conformer: 59.43683356627225 kcal/mol)

>  <smiles>  (43) 
Cc1ccc(=O)n(CC(=O)Nc2ccc(S(=O)(=O)N3CCCCC3)cc2)n1

>  <score_type>  (43) 
oracle

>  <origin>  (43) 
adg

>  <m_score__min__energy>  (43) 
-9.0700000000000003

>  <m_primary>  (43) 
energy

$$$$
43:0
     RDKit          3D

 58 61  0  0  0  0  0  0  0  0999 V2000
   58.1930   34.3570   45.9780 O   0  0  0  0  0  0  0  0  0  0  0  0
   58.7030   33.8890   44.9240 C   0  0  0  0  0  0  0  0  0  0  0  0
   58.1320   32.7010   44.2640 C   0  0  0  0  0  0  0  0  0  0  0  0
   57.9210   32.7150   42.8780 C   0  0  0  0  0  0  0  0  0  0  0  0
   57.3670   31.6040   42.2380 C   0  0  0  0  0  0  0  0  0  0  0  0
   57.0120   30.4730   42.9750 C   0  0  0  0  0  0  0  0  0  0  0  0
   57.2040   30.4420   44.3660 C   0  0  0  0  0  0  0  0  0  0  0  0
   56.8100   29.2400   45.1420 C   0  0  0  0  0  0  0  0  0  0  0  0
   55.5910   28.9300   45.2190 O   0  0  0  0  0  0  0  0  0  0  0  0
   57.7740   28.3840   45.7730 N   0  0  0  0  0  0  0  0  0  0  0  0
   58.5250   28.6790   46.9590 C   0  0  0  0  0  0  0  0  0  0  0  0
   59.2860   27.6970   47.6130 C   0  0  0  0  0  0  0  0  0  0  0  0
   59.9730   28.0070   48.7870 C   0  0  0  0  0  0  0  0  0  0  0  0
   59.9310   29.3080   49.3130 C   0  0  0  0  0  0  0  0  0  0  0  0
   60.5820   29.5960   50.5620 N   0  0  0  0  0  0  0  0  0  0  0  0
   59.8700   30.2980   51.6370 C   0  0  0  0  0  0  0  0  0  0  0  0
   60.7750   31.3760   52.2620 C   0  0  0  0  0  0  0  0  0  0  0  0
   61.7160   31.9120   51.2510 N   0  0  0  0  0  0  0  0  0  0  0  0
   62.4120   33.1090   51.7840 C   0  0  0  0  0  0  0  0  0  0  0  0
   63.4110   33.7320   50.7850 C   0  0  0  0  0  0  0  0  0  0  0  0
   62.8990   33.6920   49.3660 C   0  0  0  0  0  0  0  0  0  0  0  0
   61.6400   34.2310   49.0540 C   0  0  0  0  0  0  0  0  0  0  0  0
   61.1420   34.1520   47.7490 C   0  0  0  0  0  0  0  0  0  0  0  0
   61.8950   33.5320   46.7480 C   0  0  0  0  0  0  0  0  0  0  0  0
   63.1490   32.9940   47.0500 C   0  0  0  0  0  0  0  0  0  0  0  0
   63.6520   33.0730   48.3510 C   0  0  0  0  0  0  0  0  0  0  0  0
   62.6820   30.8640   50.8190 C   0  0  0  0  0  0  0  0  0  0  0  0
   62.0370   29.4700   50.6690 C   0  0  0  0  0  0  0  0  0  0  0  0
   59.2070   30.3040   48.6330 C   0  0  0  0  0  0  0  0  0  0  0  0
   59.1680   31.9610   49.2220 Cl  0  0  0  0  0  0  0  0  0  0  0  0
   58.5150   29.9870   47.4580 C   0  0  0  0  0  0  0  0  0  0  0  0
   57.7860   31.5550   45.0010 C   0  0  0  0  0  0  0  0  0  0  0  0
   59.5889   34.3754   44.4897 H   0  0  0  0  0  0  0  0  0  0  0  0
   58.1931   33.6052   42.2918 H   0  0  0  0  0  0  0  0  0  0  0  0
   57.2099   31.6204   41.1494 H   0  0  0  0  0  0  0  0  0  0  0  0
   56.5793   29.6007   42.4633 H   0  0  0  0  0  0  0  0  0  0  0  0
   59.3407   26.6796   47.1983 H   0  0  0  0  0  0  0  0  0  0  0  0
   60.5513   27.2270   49.3039 H   0  0  0  0  0  0  0  0  0  0  0  0
   58.9690   30.7753   51.2242 H   0  0  0  0  0  0  0  0  0  0  0  0
   59.5892   29.5718   52.4141 H   0  0  0  0  0  0  0  0  0  0  0  0
   60.1499   32.1958   52.6456 H   0  0  0  0  0  0  0  0  0  0  0  0
   61.3525   30.9245   53.0821 H   0  0  0  0  0  0  0  0  0  0  0  0
   61.1470   32.2070   50.4230 H   0  0  0  0  0  0  0  0  0  0  0  0
   61.6566   33.8665   52.0402 H   0  0  0  0  0  0  0  0  0  0  0  0
   62.9898   32.7850   52.6622 H   0  0  0  0  0  0  0  0  0  0  0  0
   63.5879   34.7801   51.0682 H   0  0  0  0  0  0  0  0  0  0  0  0
   64.3396   33.1438   50.8253 H   0  0  0  0  0  0  0  0  0  0  0  0
   61.0428   34.7175   49.8393 H   0  0  0  0  0  0  0  0  0  0  0  0
   60.1565   34.5784   47.5104 H   0  0  0  0  0  0  0  0  0  0  0  0
   61.5009   33.4675   45.7231 H   0  0  0  0  0  0  0  0  0  0  0  0
   63.7415   32.5071   46.2614 H   0  0  0  0  0  0  0  0  0  0  0  0
   64.6405   32.6497   48.5829 H   0  0  0  0  0  0  0  0  0  0  0  0
   63.1075   31.1590   49.8485 H   0  0  0  0  0  0  0  0  0  0  0  0
   63.4523   30.7863   51.6004 H   0  0  0  0  0  0  0  0  0  0  0  0
   62.4275   28.9844   49.7625 H   0  0  0  0  0  0  0  0  0  0  0  0
   62.2811   28.8640   51.5539 H   0  0  0  0  0  0  0  0  0  0  0  0
   57.9594   30.7713   46.9230 H   0  0  0  0  0  0  0  0  0  0  0  0
   57.9720   31.5279   46.0848 H   0  0  0  0  0  0  0  0  0  0  0  0
  1  2  2  0
  2  3  1  0
  3  4  2  0
  4  5  1  0
  5  6  2  0
  6  7  1  0
  7  8  1  0
  8  9  2  0
  8 10  1  0
 10 11  1  0
 11 12  2  0
 12 13  1  0
 13 14  2  0
 14 15  1  0
 15 16  1  0
 16 17  1  0
 17 18  1  0
 18 19  1  0
 19 20  1  0
 20 21  1  0
 21 22  2  0
 22 23  1  0
 23 24  2  0
 24 25  1  0
 25 26  2  0
 18 27  1  0
 27 28  1  0
 14 29  1  0
 29 30  1  0
 29 31  2  0
  7 32  2  0
 32  3  1  0
 31 11  1  0
 28 15  1  0
 26 21  1  0
  2 33  1  0
  4 34  1  0
  5 35  1  0
  6 36  1  0
 12 37  1  0
 13 38  1  0
 16 39  1  0
 16 40  1  0
 17 41  1  0
 17 42  1  0
 18 43  1  0
 19 44  1  0
 19 45  1  0
 20 46  1  0
 20 47  1  0
 22 48  1  0
 23 49  1  0
 24 50  1  0
 25 51  1  0
 26 52  1  0
 27 53  1  0
 27 54  1  0
 28 55  1  0
 28 56  1  0
 31 57  1  0
 32 58  1  0
M  CHG  2  10  -1  18   1
M  END
>  <UniqueID>  (44) 
42

>  <SMILES>  (44) 
O=Cc1cccc(C(=O)[N-]c2ccc(N3CC[NH+](CCc4ccccc4)CC3)c(Cl)c2)c1

>  <Energy>  (44) 
77.4446464277369

>  <Genealogy>  (44) 
O=Cc1cccc(C(=O)[N-]c2ccc(N3CC[NH+](CCc4ccccc4)CC3)c(Cl)c2)c1 (protonated)
O=Cc1cccc(C(=O)[N-]c2ccc(N3CC[NH+](CCc4ccccc4)CC3)c(Cl)c2)c1 (3D coordinates assigned)
O=Cc1cccc(C(=O)[N-]c2ccc(N3CC[NH+](CCc4ccccc4)CC3)c(Cl)c2)c1 (nonaromatic ring conformer: 77.4446464277369 kcal/mol)

>  <smiles>  (44) 
O=Cc1cccc(C(=O)Nc2ccc(N3CCN(CCc4ccccc4)CC3)c(Cl)c2)c1

>  <score_type>  (44) 
oracle

>  <origin>  (44) 
adg

>  <m_score__min__energy>  (44) 
-10.31

>  <m_primary>  (44) 
energy

$$$$
44:0
     RDKit          3D

 47 49  0  0  0  0  0  0  0  0999 V2000
   55.7811   29.6966   44.3801 H   0  0  0  0  0  0  0  0  0  0  0  0
   56.8690   29.7920   44.5120 C   0  0  0  0  0  0  0  0  0  0  0  0
   57.6500   28.7560   44.1810 C   0  0  0  0  0  0  0  0  0  0  0  0
   57.7611   28.5010   43.1167 H   0  0  0  0  0  0  0  0  0  0  0  0
   58.3710   27.9380   45.1830 C   0  0  0  0  0  0  0  0  0  0  0  0
   57.6190   27.1280   46.0520 C   0  0  0  0  0  0  0  0  0  0  0  0
   56.5221   27.1121   45.9708 H   0  0  0  0  0  0  0  0  0  0  0  0
   58.2540   26.3430   47.0180 C   0  0  0  0  0  0  0  0  0  0  0  0
   57.6570   25.7024   47.6837 H   0  0  0  0  0  0  0  0  0  0  0  0
   59.6440   26.3700   47.1400 C   0  0  0  0  0  0  0  0  0  0  0  0
   60.1423   25.7459   47.8964 H   0  0  0  0  0  0  0  0  0  0  0  0
   60.4020   27.1900   46.3010 C   0  0  0  0  0  0  0  0  0  0  0  0
   61.4968   27.2163   46.4042 H   0  0  0  0  0  0  0  0  0  0  0  0
   59.7750   27.9780   45.3300 C   0  0  0  0  0  0  0  0  0  0  0  0
   60.5380   28.8120   44.5790 F   0  0  0  0  0  0  0  0  0  0  0  0
   57.4090   31.0550   45.0460 C   0  0  0  0  0  0  0  0  0  0  0  0
   56.7730   32.2390   44.8290 N   0  0  0  0  0  0  0  0  0  0  0  0
   57.2610   33.4080   45.3170 C   0  0  0  0  0  0  0  0  0  0  0  0
   56.6390   34.4800   45.0900 O   0  0  0  0  0  0  0  0  0  0  0  0
   58.4490   33.4060   46.0680 C   0  0  0  0  0  0  0  0  0  0  0  0
   59.0130   34.5810   46.5930 C   0  0  0  0  0  0  0  0  0  0  0  0
   58.5211   35.5501   46.4228 H   0  0  0  0  0  0  0  0  0  0  0  0
   60.1980   34.5200   47.3310 C   0  0  0  0  0  0  0  0  0  0  0  0
   60.6406   35.4456   47.7278 H   0  0  0  0  0  0  0  0  0  0  0  0
   60.8290   33.2900   47.5710 C   0  0  0  0  0  0  0  0  0  0  0  0
   62.0590   33.2640   48.3160 N   0  0  0  0  0  0  0  0  0  0  0  0
   62.0070   33.1250   49.3510 H   0  0  0  0  0  0  0  0  0  0  0  0
   63.3640   33.3000   47.7240 C   0  0  0  0  0  0  0  0  0  0  0  0
   63.5020   33.1450   46.4800 O   0  0  0  0  0  0  0  0  0  0  0  0
   64.4780   33.4700   48.5570 O   0  0  0  0  0  0  0  0  0  0  0  0
   64.6460   32.9250   49.8740 C   0  0  0  0  0  0  0  0  0  0  0  0
   64.0810   33.8880   50.9370 C   0  0  0  0  0  0  0  0  0  0  0  0
   64.3085   33.5003   51.9409 H   0  0  0  0  0  0  0  0  0  0  0  0
   64.5403   34.8799   50.8143 H   0  0  0  0  0  0  0  0  0  0  0  0
   62.9910   33.9709   50.8143 H   0  0  0  0  0  0  0  0  0  0  0  0
   66.1550   32.7580   50.1090 C   0  0  0  0  0  0  0  0  0  0  0  0
   66.3575   32.7356   51.1900 H   0  0  0  0  0  0  0  0  0  0  0  0
   66.4952   31.8167   49.6526 H   0  0  0  0  0  0  0  0  0  0  0  0
   66.6928   33.6021   49.6526 H   0  0  0  0  0  0  0  0  0  0  0  0
   63.9710   31.5430   49.9800 C   0  0  0  0  0  0  0  0  0  0  0  0
   63.8418   31.2784   51.0398 H   0  0  0  0  0  0  0  0  0  0  0  0
   62.9878   31.5764   49.4879 H   0  0  0  0  0  0  0  0  0  0  0  0
   64.6018   30.7881   49.4879 H   0  0  0  0  0  0  0  0  0  0  0  0
   60.2770   32.1160   47.0260 C   0  0  0  0  0  0  0  0  0  0  0  0
   60.7804   31.1506   47.1832 H   0  0  0  0  0  0  0  0  0  0  0  0
   59.0910   32.1700   46.2850 C   0  0  0  0  0  0  0  0  0  0  0  0
   58.5590   31.0320   45.7700 N   0  0  0  0  0  0  0  0  0  0  0  0
  1  2  1  0
  2  3  2  0
  3  4  1  0
  3  5  1  0
  5  6  2  0
  6  7  1  0
  6  8  1  0
  8  9  1  0
  8 10  2  0
 10 11  1  0
 10 12  1  0
 12 13  1  0
 12 14  2  0
 14 15  1  0
  2 16  1  0
 16 17  2  0
 17 18  1  0
 18 19  2  0
 18 20  1  0
 20 21  2  0
 21 22  1  0
 21 23  1  0
 23 24  1  0
 23 25  2  0
 25 26  1  0
 26 27  1  0
 26 28  1  0
 28 29  2  0
 28 30  1  0
 30 31  1  0
 31 32  1  0
 32 33  1  0
 32 34  1  0
 32 35  1  0
 31 36  1  0
 36 37  1  0
 36 38  1  0
 36 39  1  0
 31 40  1  0
 40 41  1  0
 40 42  1  0
 40 43  1  0
 25 44  1  0
 44 45  1  0
 44 46  2  0
 46 47  1  0
 14  5  1  0
 47 16  1  0
 46 20  1  0
M  CHG  1  47  -1
M  END
>  <UniqueID>  (45) 
43

>  <SMILES>  (45) 
CC(C)(C)OC(=O)Nc1ccc2c(=O)nc(/C=C/c3ccccc3F)[n-]c2c1

>  <Energy>  (45) 
56.0653110246788

>  <Genealogy>  (45) 
CC(C)(C)OC(=O)Nc1ccc2c(=O)nc(C=Cc3ccccc3F)[n-]c2c1 (protonated)
CC(C)(C)OC(=O)Nc1ccc2c(=O)nc(/C=C/c3ccccc3F)[n-]c2c1 (cis-trans isomerization)
CC(C)(C)OC(=O)Nc1ccc2c(=O)nc(/C=C/c3ccccc3F)[n-]c2c1 (3D coordinates assigned)
CC(C)(C)OC(=O)Nc1ccc2c(=O)nc(/C=C/c3ccccc3F)[n-]c2c1 (optimized conformer: 56.0653110246788 kcal/mol)

>  <smiles>  (45) 
CC(C)(C)OC(=O)Nc1ccc2c(=O)nc(C=Cc3ccccc3F)[nH]c2c1

>  <score_type>  (45) 
oracle

>  <origin>  (45) 
adg

>  <m_score__min__energy>  (45) 
-9.6899999999999995

>  <m_primary>  (45) 
energy

$$$$
45:0
     RDKit          3D

 45 47  0  0  0  0  0  0  0  0999 V2000
   55.2134   22.2055   45.3627 H   0  0  0  0  0  0  0  0  0  0  0  0
   55.7040   23.1660   45.5790 C   0  0  0  0  0  0  0  0  0  0  0  0
   57.0840   23.2120   45.7870 C   0  0  0  0  0  0  0  0  0  0  0  0
   57.6780   22.2874   45.7390 H   0  0  0  0  0  0  0  0  0  0  0  0
   57.7110   24.4310   46.0560 C   0  0  0  0  0  0  0  0  0  0  0  0
   58.7981   24.4621   46.2211 H   0  0  0  0  0  0  0  0  0  0  0  0
   56.9600   25.6190   46.1170 C   0  0  0  0  0  0  0  0  0  0  0  0
   57.6460   26.9170   46.4570 C   0  0  0  0  0  0  0  0  0  0  0  0
   58.7010   26.7196   46.6977 H   0  0  0  0  0  0  0  0  0  0  0  0
   57.1457   27.3744   47.3233 H   0  0  0  0  0  0  0  0  0  0  0  0
   57.5700   27.8540   45.2940 C   0  0  0  0  0  0  0  0  0  0  0  0
   56.9010   29.4000   45.3390 S   0  0  0  0  0  0  0  0  0  0  0  0
   57.0690   29.6210   43.6730 C   0  0  0  0  0  0  0  0  0  0  0  0
   56.6440   30.6410   42.9880 N   0  0  0  0  0  0  0  0  0  0  0  0
   57.3890   31.8280   42.6810 C   0  0  0  0  0  0  0  0  0  0  0  0
   57.7340   32.0910   41.4960 O   0  0  0  0  0  0  0  0  0  0  0  0
   57.7930   32.7430   43.7960 C   0  0  0  0  0  0  0  0  0  0  0  0
   56.8868   33.1548   44.2642 H   0  0  0  0  0  0  0  0  0  0  0  0
   58.4183   33.5423   43.3715 H   0  0  0  0  0  0  0  0  0  0  0  0
   58.6170   32.0120   44.8670 C   0  0  0  0  0  0  0  0  0  0  0  0
   59.5470   31.6486   44.4054 H   0  0  0  0  0  0  0  0  0  0  0  0
   57.9978   31.1878   45.2508 H   0  0  0  0  0  0  0  0  0  0  0  0
   58.9770   32.8950   46.0480 C   0  0  0  0  0  0  0  0  0  0  0  0
   59.1070   34.2810   45.8410 C   0  0  0  0  0  0  0  0  0  0  0  0
   58.9450   34.6985   44.8363 H   0  0  0  0  0  0  0  0  0  0  0  0
   59.4390   35.1310   46.8960 C   0  0  0  0  0  0  0  0  0  0  0  0
   59.5471   36.2111   46.7177 H   0  0  0  0  0  0  0  0  0  0  0  0
   59.6340   34.6140   48.1760 C   0  0  0  0  0  0  0  0  0  0  0  0
   59.8934   35.2863   49.0071 H   0  0  0  0  0  0  0  0  0  0  0  0
   59.5000   33.2430   48.4030 C   0  0  0  0  0  0  0  0  0  0  0  0
   59.6361   32.8422   49.4183 H   0  0  0  0  0  0  0  0  0  0  0  0
   59.1930   32.3720   47.3460 C   0  0  0  0  0  0  0  0  0  0  0  0
   59.0560   30.6110   47.7000 S   0  0  0  0  0  0  0  0  0  0  0  0
   60.5810   30.1680   46.8050 C   0  0  0  0  0  0  0  0  0  0  0  0
   61.3767   29.9368   47.5285 H   0  0  0  0  0  0  0  0  0  0  0  0
   60.3927   29.2874   46.1732 H   0  0  0  0  0  0  0  0  0  0  0  0
   60.8938   31.0124   46.1732 H   0  0  0  0  0  0  0  0  0  0  0  0
   57.6090   28.5330   43.0850 N   0  0  0  0  0  0  0  0  0  0  0  0
   57.7700   28.4440   42.0570 H   0  0  0  0  0  0  0  0  0  0  0  0
   57.8840   27.5420   43.9740 C   0  0  0  0  0  0  0  0  0  0  0  0
   58.3176   26.5760   43.6759 H   0  0  0  0  0  0  0  0  0  0  0  0
   55.5650   25.5610   45.9230 C   0  0  0  0  0  0  0  0  0  0  0  0
   54.7880   26.7120   46.0020 O   0  0  0  0  0  0  0  0  0  0  0  0
   54.9450   24.3370   45.6450 C   0  0  0  0  0  0  0  0  0  0  0  0
   53.8584   24.2972   45.4783 H   0  0  0  0  0  0  0  0  0  0  0  0
  1  2  1  0
  2  3  2  0
  3  4  1  0
  3  5  1  0
  5  6  1  0
  5  7  2  0
  7  8  1  0
  8  9  1  0
  8 10  1  0
  8 11  1  0
 11 12  1  0
 12 13  1  0
 13 14  2  0
 14 15  1  0
 15 16  2  0
 15 17  1  0
 17 18  1  0
 17 19  1  0
 17 20  1  0
 20 21  1  0
 20 22  1  0
 20 23  1  0
 23 24  2  0
 24 25  1  0
 24 26  1  0
 26 27  1  0
 26 28  2  0
 28 29  1  0
 28 30  1  0
 30 31  1  0
 30 32  2  0
 32 33  1  0
 33 34  1  0
 34 35  1  0
 34 36  1  0
 34 37  1  0
 13 38  1  0
 38 39  1  0
 38 40  1  0
 40 41  1  0
  7 42  1  0
 42 43  1  0
 42 44  2  0
 44 45  1  0
 44  2  1  0
 40 11  2  0
 32 23  1  0
M  CHG  1  43  -1
M  END
>  <UniqueID>  (46) 
44

>  <SMILES>  (46) 
CSc1ccccc1CCC(=O)/N=c1/[nH]cc(Cc2ccccc2[O-])s1

>  <Energy>  (46) 
71.07084639922095

>  <Genealogy>  (46) 
CSc1ccccc1CCC(=O)N=c1[nH]cc(Cc2ccccc2[O-])s1 (protonated)
CSc1ccccc1CCC(=O)/N=c1/[nH]cc(Cc2ccccc2[O-])s1 (cis-trans isomerization)
CSc1ccccc1CCC(=O)/N=c1/[nH]cc(Cc2ccccc2[O-])s1 (3D coordinates assigned)
CSc1ccccc1CCC(=O)/N=c1/[nH]cc(Cc2ccccc2[O-])s1 (optimized conformer: 71.07084639922095 kcal/mol)

>  <smiles>  (46) 
CSc1ccccc1CCC(=O)N=c1[nH]cc(Cc2ccccc2O)s1

>  <score_type>  (46) 
oracle

>  <origin>  (46) 
adg

>  <m_score__min__energy>  (46) 
-12.300000000000001

>  <m_primary>  (46) 
energy

$$$$
46:0
     RDKit          3D

 58 62  0  0  0  0  0  0  0  0999 V2000
   61.0700   31.3940   45.9450 H   0  0  0  0  0  0  0  0  0  0  0  0
   60.9350   32.2490   46.4300 O   0  0  0  0  0  0  0  0  0  0  0  0
   60.7730   31.9360   47.7910 C   0  0  1  0  0  0  0  0  0  0  0  0
   60.5120   30.4510   48.0220 C   0  0  0  0  0  0  0  0  0  0  0  0
   61.1160   29.7740   49.1200 C   0  0  0  0  0  0  0  0  0  0  0  0
   61.8071   30.3191   49.7797 H   0  0  0  0  0  0  0  0  0  0  0  0
   60.8410   28.4190   49.3720 C   0  0  0  0  0  0  0  0  0  0  0  0
   61.3168   27.8889   50.2103 H   0  0  0  0  0  0  0  0  0  0  0  0
   59.9480   27.7710   48.5270 C   0  0  0  0  0  0  0  0  0  0  0  0
   59.5350   26.4970   48.5930 N   0  0  0  0  0  0  0  0  0  0  0  0
   58.6700   26.4190   47.5450 C   0  0  0  0  0  0  0  0  0  0  0  0
   57.9990   25.3460   47.2460 N   0  0  0  0  0  0  0  0  0  0  0  0
   57.0920   25.1980   46.1420 C   0  0  0  0  0  0  0  0  0  0  0  0
   55.8870   25.5250   46.3020 O   0  0  0  0  0  0  0  0  0  0  0  0
   57.5450   24.7480   44.8570 N   0  0  0  0  0  0  0  0  0  0  0  0
   58.5700   24.7480   44.6510 H   0  0  0  0  0  0  0  0  0  0  0  0
   56.6000   24.3480   43.8150 C   0  0  0  0  0  0  0  0  0  0  0  0
   56.8249   24.9027   42.8921 H   0  0  0  0  0  0  0  0  0  0  0  0
   55.5799   24.5739   44.1589 H   0  0  0  0  0  0  0  0  0  0  0  0
   56.7020   22.8450   43.5350 C   0  0  0  0  0  0  0  0  0  0  0  0
   57.1198   22.6955   42.5285 H   0  0  0  0  0  0  0  0  0  0  0  0
   55.6946   22.4092   43.6067 H   0  0  0  0  0  0  0  0  0  0  0  0
   57.5880   22.1610   44.5400 C   0  0  0  0  0  0  0  0  0  0  0  0
   57.1679   21.8709   45.5144 H   0  0  0  0  0  0  0  0  0  0  0  0
   58.8740   21.8960   44.2800 C   0  0  0  0  0  0  0  0  0  0  0  0
   59.4960   21.3944   45.0360 H   0  0  0  0  0  0  0  0  0  0  0  0
   59.3089   22.1798   43.3103 H   0  0  0  0  0  0  0  0  0  0  0  0
   58.5140   27.5730   46.8480 N   0  0  0  0  0  0  0  0  0  0  0  0
   59.3420   28.4100   47.4920 C   0  0  0  0  0  0  0  0  0  0  0  0
   59.5850   29.7510   47.2080 C   0  0  0  0  0  0  0  0  0  0  0  0
   59.0721   30.2541   46.3750 H   0  0  0  0  0  0  0  0  0  0  0  0
   62.0090   32.3600   48.5450 C   0  0  0  0  0  0  0  0  0  0  0  0
   63.3190   31.8990   48.3860 C   0  0  0  0  0  0  0  0  0  0  0  0
   63.5578   31.1341   47.6324 H   0  0  0  0  0  0  0  0  0  0  0  0
   64.3250   32.4340   49.2100 C   0  0  0  0  0  0  0  0  0  0  0  0
   65.3627   32.0850   49.1032 H   0  0  0  0  0  0  0  0  0  0  0  0
   64.0110   33.4150   50.1720 C   0  0  0  0  0  0  0  0  0  0  0  0
   64.8046   33.8257   50.8136 H   0  0  0  0  0  0  0  0  0  0  0  0
   62.6910   33.8710   50.3160 C   0  0  0  0  0  0  0  0  0  0  0  0
   62.4348   34.6369   51.0628 H   0  0  0  0  0  0  0  0  0  0  0  0
   61.7140   33.3240   49.4840 C   0  0  0  0  0  0  0  0  0  0  0  0
   60.3020   33.5900   49.4030 C   0  0  0  0  0  0  0  0  0  0  0  0
   59.6620   34.3800   50.1460 O   0  0  0  0  0  0  0  0  0  0  0  0
   59.7160   32.7830   48.3820 N   0  0  0  0  0  0  0  0  0  0  0  0
   58.2920   32.7610   48.0350 C   0  0  0  0  0  0  0  0  0  0  0  0
   57.8498   31.8160   48.3836 H   0  0  0  0  0  0  0  0  0  0  0  0
   57.7965   33.6154   48.5192 H   0  0  0  0  0  0  0  0  0  0  0  0
   58.1060   32.8740   46.5440 C   0  0  0  0  0  0  0  0  0  0  0  0
   57.7590   31.7450   45.7810 C   0  0  0  0  0  0  0  0  0  0  0  0
   57.6014   30.7765   46.2782 H   0  0  0  0  0  0  0  0  0  0  0  0
   57.6130   31.8460   44.3940 C   0  0  0  0  0  0  0  0  0  0  0  0
   57.3452   30.9574   43.8036 H   0  0  0  0  0  0  0  0  0  0  0  0
   57.8070   33.0750   43.7570 C   0  0  0  0  0  0  0  0  0  0  0  0
   57.6952   33.1525   42.6655 H   0  0  0  0  0  0  0  0  0  0  0  0
   58.1430   34.2050   44.5070 C   0  0  0  0  0  0  0  0  0  0  0  0
   58.2921   35.1727   44.0057 H   0  0  0  0  0  0  0  0  0  0  0  0
   58.2900   34.1070   45.8950 C   0  0  0  0  0  0  0  0  0  0  0  0
   58.5511   35.0001   46.4816 H   0  0  0  0  0  0  0  0  0  0  0  0
  1  2  1  0
  3  2  1  6
  3  4  1  0
  4  5  2  0
  5  6  1  0
  5  7  1  0
  7  8  1  0
  7  9  2  0
  9 10  1  0
 10 11  1  0
 11 12  2  0
 12 13  1  0
 13 14  2  0
 13 15  1  0
 15 16  1  0
 15 17  1  0
 17 18  1  0
 17 19  1  0
 17 20  1  0
 20 21  1  0
 20 22  1  0
 20 23  1  0
 23 24  1  0
 23 25  2  0
 25 26  1  0
 25 27  1  0
 11 28  1  0
 28 29  1  0
 29 30  2  0
 30 31  1  0
  3 32  1  0
 32 33  2  0
 33 34  1  0
 33 35  1  0
 35 36  1  0
 35 37  2  0
 37 38  1  0
 37 39  1  0
 39 40  1  0
 39 41  2  0
 41 42  1  0
 42 43  2  0
 42 44  1  0
 44 45  1  0
 45 46  1  0
 45 47  1  0
 45 48  1  0
 48 49  2  0
 49 50  1  0
 49 51  1  0
 51 52  1  0
 51 53  2  0
 53 54  1  0
 53 55  1  0
 55 56  1  0
 55 57  2  0
 57 58  1  0
 44  3  1  0
 57 48  1  0
 30  4  1  0
 41 32  1  0
 29  9  1  0
M  CHG  2  10  -1  28  -1
M  END
>  <UniqueID>  (47) 
45

>  <SMILES>  (47) 
C=CCCNC(=O)/N=c1\[n-]c2ccc([C@]3(O)c4ccccc4C(=O)N3Cc3ccccc3)cc2[n-]1

>  <Energy>  (47) 
117.91772544159117

>  <Genealogy>  (47) 
C=CCCNC(=O)N=c1[n-]c2ccc(C3(O)c4ccccc4C(=O)N3Cc3ccccc3)cc2[n-]1 (protonated)
C=CCCNC(=O)N=c1[n-]c2ccc([C@]3(O)c4ccccc4C(=O)N3Cc3ccccc3)cc2[n-]1 (chirality)
C=CCCNC(=O)/N=c1\[n-]c2ccc([C@]3(O)c4ccccc4C(=O)N3Cc3ccccc3)cc2[n-]1 (cis-trans isomerization)
C=CCCNC(=O)/N=c1\[n-]c2ccc([C@]3(O)c4ccccc4C(=O)N3Cc3ccccc3)cc2[n-]1 (3D coordinates assigned)
C=CCCNC(=O)/N=c1\[n-]c2ccc([C@]3(O)c4ccccc4C(=O)N3Cc3ccccc3)cc2[n-]1 (nonaromatic ring conformer: 117.91772544159117 kcal/mol)

>  <smiles>  (47) 
C=CCCNC(=O)N=c1[nH]c2ccc(C3(O)c4ccccc4C(=O)N3Cc3ccccc3)cc2[nH]1

>  <score_type>  (47) 
oracle

>  <origin>  (47) 
adg

>  <m_score__min__energy>  (47) 
-11.640000000000001

>  <m_primary>  (47) 
energy

$$$$
47:0
     RDKit          3D

 47 48  0  0  0  0  0  0  0  0999 V2000
   58.8910   34.9240   45.3750 C   0  0  0  0  0  0  0  0  0  0  0  0
   57.8980   33.7590   45.2770 C   0  0  0  0  0  0  0  0  0  0  0  0
   57.5560   33.2400   46.6830 C   0  0  0  0  0  0  0  0  0  0  0  0
   58.4760   32.6420   44.3850 C   0  0  0  0  0  0  0  0  0  0  0  0
   57.7890   31.3290   44.6190 C   0  0  0  0  0  0  0  0  0  0  0  0
   56.4580   31.1430   44.4970 N   0  0  0  0  0  0  0  0  0  0  0  0
   56.2820   29.8520   44.8560 C   0  0  0  0  0  0  0  0  0  0  0  0
   55.1510   29.3000   44.8760 O   0  0  0  0  0  0  0  0  0  0  0  0
   57.4270   29.2190   45.1950 N   0  0  0  0  0  0  0  0  0  0  0  0
   57.5730   27.8530   45.6990 C   0  0  0  0  0  0  0  0  0  0  0  0
   58.8560   27.7220   46.4750 C   0  0  0  0  0  0  0  0  0  0  0  0
   59.8030   27.0630   45.9690 O   0  0  0  0  0  0  0  0  0  0  0  0
   59.0650   28.3550   47.7460 N   0  0  0  0  0  0  0  0  0  0  0  0
   60.3100   28.3760   48.5060 C   0  0  0  0  0  0  0  0  0  0  0  0
   60.5580   29.7710   49.0870 C   0  0  0  0  0  0  0  0  0  0  0  0
   60.0270   30.8600   48.1490 C   0  0  0  0  0  0  0  0  0  0  0  0
   61.1530   31.7430   47.6790 C   0  0  0  0  0  0  0  0  0  0  0  0
   60.8800   33.0100   47.1360 C   0  0  0  0  0  0  0  0  0  0  0  0
   61.9280   33.8420   46.7310 C   0  0  0  0  0  0  0  0  0  0  0  0
   63.2540   33.4220   46.8750 C   0  0  0  0  0  0  0  0  0  0  0  0
   63.5330   32.1690   47.4260 C   0  0  0  0  0  0  0  0  0  0  0  0
   62.4890   31.3330   47.8320 C   0  0  0  0  0  0  0  0  0  0  0  0
   58.3780   30.1630   45.0580 C   0  0  0  0  0  0  0  0  0  0  0  0
   59.7340   29.9900   45.3320 O   0  0  0  0  0  0  0  0  0  0  0  0
   59.0854   35.1521   46.4334 H   0  0  0  0  0  0  0  0  0  0  0  0
   59.8334   34.6451   44.8809 H   0  0  0  0  0  0  0  0  0  0  0  0
   58.4663   35.8103   44.8809 H   0  0  0  0  0  0  0  0  0  0  0  0
   56.9661   34.1115   44.8109 H   0  0  0  0  0  0  0  0  0  0  0  0
   57.9963   33.9083   47.4377 H   0  0  0  0  0  0  0  0  0  0  0  0
   56.4635   33.2144   46.8087 H   0  0  0  0  0  0  0  0  0  0  0  0
   57.9634   32.2260   46.8087 H   0  0  0  0  0  0  0  0  0  0  0  0
   58.3487   32.9272   43.3303 H   0  0  0  0  0  0  0  0  0  0  0  0
   59.5399   32.5203   44.6366 H   0  0  0  0  0  0  0  0  0  0  0  0
   56.7241   27.6153   46.3569 H   0  0  0  0  0  0  0  0  0  0  0  0
   57.5941   27.1559   44.8484 H   0  0  0  0  0  0  0  0  0  0  0  0
   60.2453   27.6475   49.3277 H   0  0  0  0  0  0  0  0  0  0  0  0
   61.1419   28.1162   47.8348 H   0  0  0  0  0  0  0  0  0  0  0  0
   60.0471   29.8522   50.0578 H   0  0  0  0  0  0  0  0  0  0  0  0
   61.6422   29.9119   49.2085 H   0  0  0  0  0  0  0  0  0  0  0  0
   59.5496   30.3871   47.2781 H   0  0  0  0  0  0  0  0  0  0  0  0
   59.2953   31.4745   48.6939 H   0  0  0  0  0  0  0  0  0  0  0  0
   59.8387   33.3481   47.0293 H   0  0  0  0  0  0  0  0  0  0  0  0
   61.7090   34.8292   46.2981 H   0  0  0  0  0  0  0  0  0  0  0  0
   64.0769   34.0779   46.5546 H   0  0  0  0  0  0  0  0  0  0  0  0
   64.5763   31.8396   47.5406 H   0  0  0  0  0  0  0  0  0  0  0  0
   62.7136   30.3506   48.2729 H   0  0  0  0  0  0  0  0  0  0  0  0
   60.0620   29.2870   45.9800 H   0  0  0  0  0  0  0  0  0  0  0  0
  1  2  1  0
  2  3  1  0
  2  4  1  0
  4  5  1  0
  5  6  1  0
  6  7  1  0
  7  8  2  0
  7  9  1  0
  9 10  1  0
 10 11  1  0
 11 12  2  0
 11 13  1  0
 13 14  1  0
 14 15  1  0
 15 16  1  0
 16 17  1  0
 17 18  2  0
 18 19  1  0
 19 20  2  0
 20 21  1  0
 21 22  2  0
  9 23  1  0
 23 24  1  0
 23  5  2  0
 22 17  1  0
  1 25  1  0
  1 26  1  0
  1 27  1  0
  2 28  1  0
  3 29  1  0
  3 30  1  0
  3 31  1  0
  4 32  1  0
  4 33  1  0
 10 34  1  0
 10 35  1  0
 14 36  1  0
 14 37  1  0
 15 38  1  0
 15 39  1  0
 16 40  1  0
 16 41  1  0
 18 42  1  0
 19 43  1  0
 20 44  1  0
 21 45  1  0
 22 46  1  0
 24 47  1  0
M  CHG  2   6  -1  13  -1
M  END
>  <UniqueID>  (48) 
46

>  <SMILES>  (48) 
CC(C)Cc1[n-]c(=O)n(CC(=O)[N-]CCCc2ccccc2)c1O

>  <Energy>  (48) 
64.6586656566186

>  <Genealogy>  (48) 
CC(C)Cc1[n-]c(=O)n(CC(=O)[N-]CCCc2ccccc2)c1O (protonated)
CC(C)Cc1[n-]c(=O)n(CC(=O)[N-]CCCc2ccccc2)c1O (3D coordinates assigned)
CC(C)Cc1[n-]c(=O)n(CC(=O)[N-]CCCc2ccccc2)c1O (optimized conformer: 64.6586656566186 kcal/mol)

>  <smiles>  (48) 
CC(C)Cc1[nH]c(=O)n(CC(=O)NCCCc2ccccc2)c1O

>  <score_type>  (48) 
oracle

>  <origin>  (48) 
adg

>  <m_score__min__energy>  (48) 
-11.66

>  <m_primary>  (48) 
energy

$$$$
48:0
     RDKit          3D

 55 60  0  0  0  0  0  0  0  0999 V2000
   55.1270   28.2000   44.8910 H   0  0  0  0  0  0  0  0  0  0  0  0
   55.9590   27.9890   45.4260 O   0  0  0  0  0  0  0  0  0  0  0  0
   56.1740   26.7360   45.9950 C   0  0  0  0  0  0  0  0  0  0  0  0
   55.2240   25.7880   46.0540 N   0  0  0  0  0  0  0  0  0  0  0  0
   55.8550   24.7670   46.6710 C   0  0  0  0  0  0  0  0  0  0  0  0
   55.2900   23.6700   46.9170 O   0  0  0  0  0  0  0  0  0  0  0  0
   57.1390   25.0160   47.0010 N   0  0  0  0  0  0  0  0  0  0  0  0
   57.3420   26.2750   46.5720 C   0  0  0  0  0  0  0  0  0  0  0  0
   58.6190   27.0150   46.6740 C   0  0  0  0  0  0  0  0  0  0  0  0
   59.4744   26.4890   47.1230 H   0  0  0  0  0  0  0  0  0  0  0  0
   58.8170   28.2780   46.2620 C   0  0  0  0  0  0  0  0  0  0  0  0
   59.0530   28.7850   44.9780 C   0  0  0  0  0  0  0  0  0  0  0  0
   59.1043   28.1813   44.0599 H   0  0  0  0  0  0  0  0  0  0  0  0
   59.2090   30.1320   45.0350 N   0  0  0  0  0  0  0  0  0  0  0  0
   59.0800   30.4770   46.3050 N   0  0  0  0  0  0  0  0  0  0  0  0
   59.1620   31.7140   46.8470 C   0  0  0  0  0  0  0  0  0  0  0  0
   59.3950   32.7510   46.0980 N   0  0  0  0  0  0  0  0  0  0  0  0
   58.5030   33.9040   46.0280 C   0  0  0  0  0  0  0  0  0  0  0  0
   59.1408   34.6189   46.5685 H   0  0  0  0  0  0  0  0  0  0  0  0
   57.6760   33.9560   44.7570 C   0  0  0  0  0  0  0  0  0  0  0  0
   57.4110   34.9265   44.3121 H   0  0  0  0  0  0  0  0  0  0  0  0
   57.7658   33.5200   43.7511 H   0  0  0  0  0  0  0  0  0  0  0  0
   57.0370   33.5190   46.0680 C   0  0  0  0  0  0  0  0  0  0  0  0
   56.3097   34.1735   46.5707 H   0  0  0  0  0  0  0  0  0  0  0  0
   56.4730   32.6359   46.4027 H   0  0  0  0  0  0  0  0  0  0  0  0
   59.0010   31.8340   48.1960 N   0  0  0  0  0  0  0  0  0  0  0  0
   58.7640   30.7340   48.9780 C   0  0  0  0  0  0  0  0  0  0  0  0
   58.6030   30.8730   50.4060 N   0  0  0  0  0  0  0  0  0  0  0  0
   59.2540   29.9420   51.3420 C   0  0  0  0  0  0  0  0  0  0  0  0
   59.6494   29.0830   50.7800 H   0  0  0  0  0  0  0  0  0  0  0  0
   60.0700   30.4711   51.8559 H   0  0  0  0  0  0  0  0  0  0  0  0
   58.2540   29.4390   52.3930 C   0  0  0  0  0  0  0  0  0  0  0  0
   57.6336   28.6548   51.9345 H   0  0  0  0  0  0  0  0  0  0  0  0
   58.8429   29.0652   53.2435 H   0  0  0  0  0  0  0  0  0  0  0  0
   57.3130   30.5500   52.9450 C   0  0  0  0  0  0  0  0  0  0  0  0
   57.4567   30.5291   54.0354 H   0  0  0  0  0  0  0  0  0  0  0  0
   55.8400   30.2680   52.6820 C   0  0  0  0  0  0  0  0  0  0  0  0
   55.0680   31.2100   51.9750 C   0  0  0  0  0  0  0  0  0  0  0  0
   55.5273   32.1534   51.6448 H   0  0  0  0  0  0  0  0  0  0  0  0
   53.7230   30.9570   51.6890 C   0  0  0  0  0  0  0  0  0  0  0  0
   53.1274   31.7044   51.1443 H   0  0  0  0  0  0  0  0  0  0  0  0
   53.1340   29.7560   52.0940 C   0  0  0  0  0  0  0  0  0  0  0  0
   52.0749   29.5595   51.8709 H   0  0  0  0  0  0  0  0  0  0  0  0
   53.8910   28.8060   52.7820 C   0  0  0  0  0  0  0  0  0  0  0  0
   53.4281   27.8593   53.0975 H   0  0  0  0  0  0  0  0  0  0  0  0
   55.2360   29.0550   53.0710 C   0  0  0  0  0  0  0  0  0  0  0  0
   55.8280   28.2981   53.6064 H   0  0  0  0  0  0  0  0  0  0  0  0
   57.7020   31.9620   52.4580 C   0  0  0  0  0  0  0  0  0  0  0  0
   56.9198   32.6715   52.7658 H   0  0  0  0  0  0  0  0  0  0  0  0
   58.6729   32.2198   52.9063 H   0  0  0  0  0  0  0  0  0  0  0  0
   57.8540   32.0240   50.9330 C   0  0  0  0  0  0  0  0  0  0  0  0
   56.8532   32.0354   50.4766 H   0  0  0  0  0  0  0  0  0  0  0  0
   58.4153   32.9368   50.6846 H   0  0  0  0  0  0  0  0  0  0  0  0
   58.6870   29.4980   48.4000 N   0  0  0  0  0  0  0  0  0  0  0  0
   58.8490   29.4020   47.0590 C   0  0  0  0  0  0  0  0  0  0  0  0
  1  2  1  0
  2  3  1  0
  3  4  1  0
  4  5  1  0
  5  6  2  0
  5  7  1  0
  7  8  1  0
  8  9  1  0
  9 10  1  0
  9 11  2  0
 11 12  1  0
 12 13  1  0
 12 14  2  0
 14 15  1  0
 15 16  1  0
 16 17  2  0
 17 18  1  0
 18 19  1  0
 18 20  1  0
 20 21  1  0
 20 22  1  0
 20 23  1  0
 23 24  1  0
 23 25  1  0
 16 26  1  0
 26 27  2  0
 27 28  1  0
 28 29  1  0
 29 30  1  0
 29 31  1  0
 29 32  1  0
 32 33  1  0
 32 34  1  0
 32 35  1  0
 35 36  1  0
 35 37  1  0
 37 38  2  0
 38 39  1  0
 38 40  1  0
 40 41  1  0
 40 42  2  0
 42 43  1  0
 42 44  1  0
 44 45  1  0
 44 46  2  0
 46 47  1  0
 35 48  1  0
 48 49  1  0
 48 50  1  0
 48 51  1  0
 51 52  1  0
 51 53  1  0
 27 54  1  0
 54 55  2  0
  8  3  2  0
 55 11  1  0
 55 15  1  0
 23 18  1  0
 51 28  1  0
 46 37  1  0
M  CHG  2   4  -1   7  -1
M  END
>  <UniqueID>  (49) 
47

>  <SMILES>  (49) 
O=c1[n-]c(O)c(/C=c2\cnn3/c(=N/C4CC4)nc(N4CCC(c5ccccc5)CC4)nc23)[n-]1

>  <Energy>  (49) 
400.3573865263173

>  <Genealogy>  (49) 
O=c1[n-]c(O)c(C=c2cnn3c(=NC4CC4)nc(N4CCC(c5ccccc5)CC4)nc23)[n-]1 (protonated)
O=c1[n-]c(O)c(/C=c2\cnn3/c(=N/C4CC4)nc(N4CCC(c5ccccc5)CC4)nc23)[n-]1 (cis-trans isomerization)
O=c1[n-]c(O)c(/C=c2\cnn3/c(=N/C4CC4)nc(N4CCC(c5ccccc5)CC4)nc23)[n-]1 (3D coordinates assigned)
O=c1[n-]c(O)c(/C=c2\cnn3/c(=N/C4CC4)nc(N4CCC(c5ccccc5)CC4)nc23)[n-]1 (nonaromatic ring conformer: 400.3573865263173 kcal/mol)

>  <smiles>  (49) 
O=c1[nH]c(O)c(C=c2cnn3c(=NC4CC4)nc(N4CCC(c5ccccc5)CC4)nc23)[nH]1

>  <score_type>  (49) 
oracle

>  <origin>  (49) 
adg

>  <m_score__min__energy>  (49) 
-14.720000000000001

>  <m_primary>  (49) 
energy

$$$$
49:0
     RDKit          3D

 59 62  0  0  0  0  0  0  0  0999 V2000
   60.6302   30.5898   45.9797 H   0  0  0  0  0  0  0  0  0  0  0  0
   60.3120   29.7680   46.6380 C   0  0  0  0  0  0  0  0  0  0  0  0
   59.4930   28.7940   46.1600 N   0  0  0  0  0  0  0  0  0  0  0  0
   59.0950   27.7350   46.9160 C   0  0  0  0  0  0  0  0  0  0  0  0
   58.2690   26.8750   46.3850 N   0  0  0  0  0  0  0  0  0  0  0  0
   57.0880   27.1300   45.6120 C   0  0  0  0  0  0  0  0  0  0  0  0
   55.9570   26.7330   46.0030 O   0  0  0  0  0  0  0  0  0  0  0  0
   57.2190   27.7880   44.3490 N   0  0  0  0  0  0  0  0  0  0  0  0
   57.4580   29.2210   44.2120 C   0  0  0  0  0  0  0  0  0  0  0  0
   58.3084   29.5117   44.8464 H   0  0  0  0  0  0  0  0  0  0  0  0
   57.6836   29.4526   43.1606 H   0  0  0  0  0  0  0  0  0  0  0  0
   56.2400   29.9810   44.6350 C   0  0  0  0  0  0  0  0  0  0  0  0
   55.1670   29.3540   44.8590 O   0  0  0  0  0  0  0  0  0  0  0  0
   56.2790   31.4160   44.6560 N   0  0  0  0  0  0  0  0  0  0  0  0
   57.3080   32.2480   45.2160 C   0  0  0  0  0  0  0  0  0  0  0  0
   57.8480   32.0240   46.4960 C   0  0  0  0  0  0  0  0  0  0  0  0
   57.4804   31.1868   47.1075 H   0  0  0  0  0  0  0  0  0  0  0  0
   58.8510   32.8630   46.9930 C   0  0  0  0  0  0  0  0  0  0  0  0
   59.2636   32.6894   47.9978 H   0  0  0  0  0  0  0  0  0  0  0  0
   59.3300   33.9210   46.2160 C   0  0  0  0  0  0  0  0  0  0  0  0
   60.1139   34.5835   46.6116 H   0  0  0  0  0  0  0  0  0  0  0  0
   58.8120   34.1370   44.9350 C   0  0  0  0  0  0  0  0  0  0  0  0
   59.1923   34.9665   44.3207 H   0  0  0  0  0  0  0  0  0  0  0  0
   57.8110   33.2990   44.4350 C   0  0  0  0  0  0  0  0  0  0  0  0
   57.4151   33.4649   43.4222 H   0  0  0  0  0  0  0  0  0  0  0  0
   59.5490   27.6410   48.2500 C   0  0  0  0  0  0  0  0  0  0  0  0
   59.2370   26.7983   48.8844 H   0  0  0  0  0  0  0  0  0  0  0  0
   60.3970   28.6270   48.7560 C   0  0  0  0  0  0  0  0  0  0  0  0
   60.7893   28.5405   49.7800 H   0  0  0  0  0  0  0  0  0  0  0  0
   60.7500   29.7270   47.9630 C   0  0  0  0  0  0  0  0  0  0  0  0
   61.6210   30.7540   48.4550 N   0  0  0  0  0  0  0  0  0  0  0  0
   61.3460   31.8790   49.0700 C   0  0  0  0  0  0  0  0  0  0  0  0
   62.1120   33.0160   48.7140 C   0  0  0  0  0  0  0  0  0  0  0  0
   63.1110   32.9880   47.6210 C   0  0  0  0  0  0  0  0  0  0  0  0
   63.4000   34.0550   47.0160 O   0  0  0  0  0  0  0  0  0  0  0  0
   63.7800   31.7780   47.2630 N   0  0  0  0  0  0  0  0  0  0  0  0
   64.4370   31.7640   46.4510 H   0  0  0  0  0  0  0  0  0  0  0  0
   63.6900   30.9170   47.8470 H   0  0  0  0  0  0  0  0  0  0  0  0
   61.9750   34.2000   49.4500 C   0  0  0  0  0  0  0  0  0  0  0  0
   62.5648   35.0862   49.1728 H   0  0  0  0  0  0  0  0  0  0  0  0
   61.1230   34.2620   50.4990 N   0  0  0  0  0  0  0  0  0  0  0  0
   60.3140   33.2250   50.8340 C   0  0  0  0  0  0  0  0  0  0  0  0
   59.4170   33.3830   51.8950 C   0  0  0  0  0  0  0  0  0  0  0  0
   59.4492   34.2980   52.5046 H   0  0  0  0  0  0  0  0  0  0  0  0
   58.4750   32.3830   52.1890 C   0  0  0  0  0  0  0  0  0  0  0  0
   57.5800   32.4940   53.2640 O   0  0  0  0  0  0  0  0  0  0  0  0
   57.7810   31.9090   54.5470 C   0  0  0  0  0  0  0  0  0  0  0  0
   57.5292   32.6419   55.3277 H   0  0  0  0  0  0  0  0  0  0  0  0
   57.1351   31.0248   54.6521 H   0  0  0  0  0  0  0  0  0  0  0  0
   58.8339   31.6085   54.6521 H   0  0  0  0  0  0  0  0  0  0  0  0
   58.4020   31.2460   51.3770 C   0  0  0  0  0  0  0  0  0  0  0  0
   57.4130   30.2890   51.6610 O   0  0  0  0  0  0  0  0  0  0  0  0
   56.0550   30.5940   51.9710 C   0  0  0  0  0  0  0  0  0  0  0  0
   55.9258   30.6230   53.0630 H   0  0  0  0  0  0  0  0  0  0  0  0
   55.7926   31.5734   51.5446 H   0  0  0  0  0  0  0  0  0  0  0  0
   55.3990   29.8208   51.5446 H   0  0  0  0  0  0  0  0  0  0  0  0
   59.3030   31.0920   50.3070 C   0  0  0  0  0  0  0  0  0  0  0  0
   59.1968   30.2299   49.6320 H   0  0  0  0  0  0  0  0  0  0  0  0
   60.3420   32.0240   50.0830 C   0  0  0  0  0  0  0  0  0  0  0  0
  1  2  1  0
  2  3  1  0
  3  4  1  0
  4  5  2  3
  5  6  1  0
  6  7  2  0
  6  8  1  0
  8  9  1  0
  9 10  1  0
  9 11  1  0
  9 12  1  0
 12 13  2  0
 12 14  1  0
 14 15  1  0
 15 16  2  0
 16 17  1  0
 16 18  1  0
 18 19  1  0
 18 20  2  0
 20 21  1  0
 20 22  1  0
 22 23  1  0
 22 24  2  0
 24 25  1  0
  4 26  1  0
 26 27  1  0
 26 28  2  0
 28 29  1  0
 28 30  1  0
 30 31  1  0
 31 32  2  0
 32 33  1  0
 33 34  1  0
 34 35  2  0
 34 36  1  0
 36 37  1  0
 36 38  1  0
 33 39  2  0
 39 40  1  0
 39 41  1  0
 41 42  1  0
 42 43  2  0
 43 44  1  0
 43 45  1  0
 45 46  1  0
 46 47  1  0
 47 48  1  0
 47 49  1  0
 47 50  1  0
 45 51  2  0
 51 52  1  0
 52 53  1  0
 53 54  1  0
 53 55  1  0
 53 56  1  0
 51 57  1  0
 57 58  1  0
 57 59  2  0
 30  2  2  0
 59 32  1  0
 24 15  1  0
 59 42  1  0
M  CHG  4   3  -1   8  -1  14  -1  41  -1
M  END
>  <UniqueID>  (50) 
48

>  <SMILES>  (50) 
COc1cc2[n-]cc(C(N)=O)/c(=N/c3ccc(=NC(=O)[N-]CC(=O)[N-]c4ccccc4)[n-]c3)c2cc1OC

>  <Energy>  (50) 
98.8430612701259

>  <Genealogy>  (50) 
COc1cc2[n-]cc(C(N)=O)c(=Nc3ccc(=NC(=O)[N-]CC(=O)[N-]c4ccccc4)[n-]c3)c2cc1OC (protonated)
COc1cc2[n-]cc(C(N)=O)/c(=N/c3ccc(=NC(=O)[N-]CC(=O)[N-]c4ccccc4)[n-]c3)c2cc1OC (cis-trans isomerization)
COc1cc2[n-]cc(C(N)=O)/c(=N/c3ccc(=NC(=O)[N-]CC(=O)[N-]c4ccccc4)[n-]c3)c2cc1OC (3D coordinates assigned)
COc1cc2[n-]cc(C(N)=O)/c(=N/c3ccc(=NC(=O)[N-]CC(=O)[N-]c4ccccc4)[n-]c3)c2cc1OC (optimized conformer: 98.8430612701259 kcal/mol)

>  <smiles>  (50) 
COc1cc2[nH]cc(C(N)=O)c(=Nc3ccc(=NC(=O)NCC(=O)Nc4ccccc4)[nH]c3)c2cc1OC

>  <score_type>  (50) 
oracle

>  <origin>  (50) 
adg

>  <m_score__min__energy>  (50) 
-13.85

>  <m_primary>  (50) 
energy

$$$$
50:0
     RDKit          3D

 68 72  0  0  0  0  0  0  0  0999 V2000
   57.8673   32.8740   42.2351 H   0  0  0  0  0  0  0  0  0  0  0  0
   57.5270   32.2320   43.0610 C   0  0  0  0  0  0  0  0  0  0  0  0
   57.0770   30.6170   42.9370 S   0  0  0  0  0  0  0  0  0  0  0  0
   56.7380   30.4760   44.5830 C   0  0  0  0  0  0  0  0  0  0  0  0
   56.2750   29.4200   45.1860 N   0  0  0  0  0  0  0  0  0  0  0  0
   56.8830   28.1190   45.2150 C   0  0  0  0  0  0  0  0  0  0  0  0
   58.1030   27.8620   44.5660 C   0  0  0  0  0  0  0  0  0  0  0  0
   58.5943   28.6593   43.9890 H   0  0  0  0  0  0  0  0  0  0  0  0
   58.6950   26.5990   44.6500 C   0  0  0  0  0  0  0  0  0  0  0  0
   59.6461   26.4045   44.1327 H   0  0  0  0  0  0  0  0  0  0  0  0
   58.0810   25.5770   45.3920 C   0  0  0  0  0  0  0  0  0  0  0  0
   58.7390   24.2290   45.5190 C   0  0  0  0  0  0  0  0  0  0  0  0
   58.9820   23.8470   44.5165 H   0  0  0  0  0  0  0  0  0  0  0  0
   59.6587   24.3321   46.1136 H   0  0  0  0  0  0  0  0  0  0  0  0
   57.7890   23.2390   46.2260 C   0  0  0  0  0  0  0  0  0  0  0  0
   58.3871   22.6123   46.9039 H   0  0  0  0  0  0  0  0  0  0  0  0
   57.0388   23.8456   46.7544 H   0  0  0  0  0  0  0  0  0  0  0  0
   57.0440   22.3490   45.3090 N   0  0  0  0  0  0  0  0  0  0  0  0
   57.8890   21.7150   44.2790 C   0  0  0  0  0  0  0  0  0  0  0  0
   58.5239   22.4799   43.8079 H   0  0  0  0  0  0  0  0  0  0  0  0
   58.5176   20.9463   44.7522 H   0  0  0  0  0  0  0  0  0  0  0  0
   57.0080   21.0540   43.2060 C   0  0  0  0  0  0  0  0  0  0  0  0
   57.6669   20.5934   42.4552 H   0  0  0  0  0  0  0  0  0  0  0  0
   56.3745   20.3208   43.7267 H   0  0  0  0  0  0  0  0  0  0  0  0
   56.1270   21.9510   42.5360 O   0  0  0  0  0  0  0  0  0  0  0  0
   55.8460   23.1380   43.2660 C   0  0  0  0  0  0  0  0  0  0  0  0
   56.6364   23.8733   43.0548 H   0  0  0  0  0  0  0  0  0  0  0  0
   54.8550   23.4914   42.9449 H   0  0  0  0  0  0  0  0  0  0  0  0
   55.7800   22.9150   44.7870 C   0  0  0  0  0  0  0  0  0  0  0  0
   55.5893   23.8790   45.2814 H   0  0  0  0  0  0  0  0  0  0  0  0
   54.9704   22.2002   44.9956 H   0  0  0  0  0  0  0  0  0  0  0  0
   56.8860   25.8480   46.0780 C   0  0  0  0  0  0  0  0  0  0  0  0
   56.4114   25.0619   46.6836 H   0  0  0  0  0  0  0  0  0  0  0  0
   56.2970   27.1140   45.9940 C   0  0  0  0  0  0  0  0  0  0  0  0
   55.3671   27.3214   46.5437 H   0  0  0  0  0  0  0  0  0  0  0  0
   56.9420   31.6410   45.2330 N   0  0  0  0  0  0  0  0  0  0  0  0
   57.3930   32.6140   44.3940 C   0  0  0  0  0  0  0  0  0  0  0  0
   57.6740   34.0050   44.8780 C   0  0  0  0  0  0  0  0  0  0  0  0
   56.8395   34.3392   45.5119 H   0  0  0  0  0  0  0  0  0  0  0  0
   57.7848   34.6615   44.0024 H   0  0  0  0  0  0  0  0  0  0  0  0
   58.9460   34.0590   45.6750 C   0  0  0  0  0  0  0  0  0  0  0  0
   59.4680   35.1770   45.9450 O   0  0  0  0  0  0  0  0  0  0  0  0
   59.5750   32.8380   46.1020 N   0  0  0  0  0  0  0  0  0  0  0  0
   59.0190   31.9550   46.0380 H   0  0  0  0  0  0  0  0  0  0  0  0
   60.8880   32.7710   46.6900 C   0  0  0  0  0  0  0  0  0  0  0  0
   61.8110   33.8190   46.5110 C   0  0  0  0  0  0  0  0  0  0  0  0
   61.5102   34.7235   45.9620 H   0  0  0  0  0  0  0  0  0  0  0  0
   63.1050   33.7190   47.0250 C   0  0  0  0  0  0  0  0  0  0  0  0
   63.8139   34.5497   46.8930 H   0  0  0  0  0  0  0  0  0  0  0  0
   63.5010   32.5670   47.7060 C   0  0  0  0  0  0  0  0  0  0  0  0
   64.5213   32.4908   48.1100 H   0  0  0  0  0  0  0  0  0  0  0  0
   62.6030   31.5110   47.8750 C   0  0  0  0  0  0  0  0  0  0  0  0
   62.9218   30.6014   48.4050 H   0  0  0  0  0  0  0  0  0  0  0  0
   61.2950   31.6040   47.3720 C   0  0  0  0  0  0  0  0  0  0  0  0
   60.3810   30.5100   47.5570 N   0  0  0  0  0  0  0  0  0  0  0  0
   60.3780   29.3940   46.6090 C   0  0  0  0  0  0  0  0  0  0  0  0
   59.6913   29.6186   45.7796 H   0  0  0  0  0  0  0  0  0  0  0  0
   61.3932   29.2453   46.2125 H   0  0  0  0  0  0  0  0  0  0  0  0
   59.9160   28.1210   47.3250 C   0  0  0  0  0  0  0  0  0  0  0  0
   59.7902   27.3168   46.5851 H   0  0  0  0  0  0  0  0  0  0  0  0
   60.6750   27.8410   48.0703 H   0  0  0  0  0  0  0  0  0  0  0  0
   58.6840   28.3360   47.9910 O   0  0  0  0  0  0  0  0  0  0  0  0
   58.8560   29.2890   49.0260 C   0  0  0  0  0  0  0  0  0  0  0  0
   57.9173   29.3801   49.5921 H   0  0  0  0  0  0  0  0  0  0  0  0
   59.6691   28.9510   49.6852 H   0  0  0  0  0  0  0  0  0  0  0  0
   59.2290   30.6580   48.4480 C   0  0  0  0  0  0  0  0  0  0  0  0
   58.3767   31.0625   47.8824 H   0  0  0  0  0  0  0  0  0  0  0  0
   59.4831   31.3467   49.2672 H   0  0  0  0  0  0  0  0  0  0  0  0
  1  2  1  0
  2  3  1  0
  3  4  1  0
  4  5  2  0
  5  6  1  0
  6  7  2  0
  7  8  1  0
  7  9  1  0
  9 10  1  0
  9 11  2  0
 11 12  1  0
 12 13  1  0
 12 14  1  0
 12 15  1  0
 15 16  1  0
 15 17  1  0
 15 18  1  0
 18 19  1  0
 19 20  1  0
 19 21  1  0
 19 22  1  0
 22 23  1  0
 22 24  1  0
 22 25  1  0
 25 26  1  0
 26 27  1  0
 26 28  1  0
 26 29  1  0
 29 30  1  0
 29 31  1  0
 11 32  1  0
 32 33  1  0
 32 34  2  0
 34 35  1  0
  4 36  1  0
 36 37  1  0
 37 38  1  0
 38 39  1  0
 38 40  1  0
 38 41  1  0
 41 42  2  0
 41 43  1  0
 43 44  1  0
 43 45  1  0
 45 46  2  0
 46 47  1  0
 46 48  1  0
 48 49  1  0
 48 50  2  0
 50 51  1  0
 50 52  1  0
 52 53  1  0
 52 54  2  0
 54 55  1  0
 55 56  1  0
 56 57  1  0
 56 58  1  0
 56 59  1  0
 59 60  1  0
 59 61  1  0
 59 62  1  0
 62 63  1  0
 63 64  1  0
 63 65  1  0
 63 66  1  0
 66 67  1  0
 66 68  1  0
 37  2  2  0
 54 45  1  0
 66 55  1  0
 34  6  1  0
 29 18  1  0
M  CHG  1  36  -1
M  END
>  <UniqueID>  (51) 
49

>  <SMILES>  (51) 
O=C(Cc1cs/c(=N\c2ccc(CCN3CCOCC3)cc2)[n-]1)Nc1ccccc1N1CCOCC1

>  <Energy>  (51) 
131.47401148446409

>  <Genealogy>  (51) 
O=C(Cc1csc(=Nc2ccc(CCN3CCOCC3)cc2)[n-]1)Nc1ccccc1N1CCOCC1 (protonated)
O=C(Cc1cs/c(=N\c2ccc(CCN3CCOCC3)cc2)[n-]1)Nc1ccccc1N1CCOCC1 (cis-trans isomerization)
O=C(Cc1cs/c(=N\c2ccc(CCN3CCOCC3)cc2)[n-]1)Nc1ccccc1N1CCOCC1 (3D coordinates assigned)
O=C(Cc1cs/c(=N\c2ccc(CCN3CCOCC3)cc2)[n-]1)Nc1ccccc1N1CCOCC1 (nonaromatic ring conformer: 131.47401148446409 kcal/mol)

>  <smiles>  (51) 
O=C(Cc1csc(=Nc2ccc(CCN3CCOCC3)cc2)[nH]1)Nc1ccccc1N1CCOCC1

>  <score_type>  (51) 
oracle

>  <origin>  (51) 
adg

>  <m_score__min__energy>  (51) 
-12.119999999999999

>  <m_primary>  (51) 
energy

$$$$
51:0
     RDKit          3D

 47 50  0  0  0  0  0  0  0  0999 V2000
   60.8061   27.5490   46.8359 H   0  0  0  0  0  0  0  0  0  0  0  0
   59.9560   27.1740   46.2470 C   0  0  0  0  0  0  0  0  0  0  0  0
   59.6881   26.1078   46.2854 H   0  0  0  0  0  0  0  0  0  0  0  0
   59.2460   28.0170   45.4820 C   0  0  0  0  0  0  0  0  0  0  0  0
   58.1470   27.6790   44.6860 C   0  0  0  0  0  0  0  0  0  0  0  0
   57.6170   26.4550   44.5000 C   0  0  0  0  0  0  0  0  0  0  0  0
   57.5787   26.0598   43.4742 H   0  0  0  0  0  0  0  0  0  0  0  0
   57.0850   25.6120   45.5860 C   0  0  0  0  0  0  0  0  0  0  0  0
   57.7940   24.6310   46.1730 N   0  0  0  0  0  0  0  0  0  0  0  0
   56.9710   24.1900   47.1490 C   0  0  0  0  0  0  0  0  0  0  0  0
   57.2820   23.2480   47.9220 O   0  0  0  0  0  0  0  0  0  0  0  0
   55.7940   24.8460   47.2380 N   0  0  0  0  0  0  0  0  0  0  0  0
   55.8850   25.7510   46.2510 C   0  0  0  0  0  0  0  0  0  0  0  0
   54.9140   26.7110   45.9960 O   0  0  0  0  0  0  0  0  0  0  0  0
   57.7380   28.8530   44.0700 C   0  0  0  0  0  0  0  0  0  0  0  0
   56.9073   28.9666   43.3579 H   0  0  0  0  0  0  0  0  0  0  0  0
   58.5750   29.8490   44.5240 C   0  0  0  0  0  0  0  0  0  0  0  0
   58.4710   31.2580   44.1080 C   0  0  0  0  0  0  0  0  0  0  0  0
   58.5050   31.5370   42.8790 O   0  0  0  0  0  0  0  0  0  0  0  0
   58.2940   32.3050   45.0760 N   0  0  0  0  0  0  0  0  0  0  0  0
   57.7780   32.0840   46.4170 C   0  0  0  0  0  0  0  0  0  0  0  0
   56.8622   31.4757   46.3813 H   0  0  0  0  0  0  0  0  0  0  0  0
   58.4980   31.5417   47.0475 H   0  0  0  0  0  0  0  0  0  0  0  0
   57.4750   33.4710   46.9690 C   0  0  0  0  0  0  0  0  0  0  0  0
   56.3927   33.6657   46.9409 H   0  0  0  0  0  0  0  0  0  0  0  0
   57.7961   33.5671   48.0167 H   0  0  0  0  0  0  0  0  0  0  0  0
   58.2150   34.4540   46.0640 C   0  0  0  0  0  0  0  0  0  0  0  0
   57.5997   35.3481   45.8853 H   0  0  0  0  0  0  0  0  0  0  0  0
   59.1563   34.7949   46.5199 H   0  0  0  0  0  0  0  0  0  0  0  0
   58.4610   33.7100   44.7590 C   0  0  0  0  0  0  0  0  0  0  0  0
   57.7323   34.0211   43.9960 H   0  0  0  0  0  0  0  0  0  0  0  0
   59.4611   33.9202   44.3520 H   0  0  0  0  0  0  0  0  0  0  0  0
   59.5010   29.3480   45.3750 N   0  0  0  0  0  0  0  0  0  0  0  0
   60.6560   30.0760   45.9290 C   0  0  0  0  0  0  0  0  0  0  0  0
   61.4852   29.3709   46.0877 H   0  0  0  0  0  0  0  0  0  0  0  0
   60.9539   30.8609   45.2182 H   0  0  0  0  0  0  0  0  0  0  0  0
   60.2970   30.7220   47.2430 C   0  0  0  0  0  0  0  0  0  0  0  0
   60.7810   32.0010   47.5680 C   0  0  0  0  0  0  0  0  0  0  0  0
   61.4281   32.5380   46.8589 H   0  0  0  0  0  0  0  0  0  0  0  0
   60.4440   32.5930   48.7870 C   0  0  0  0  0  0  0  0  0  0  0  0
   60.8224   33.5961   49.0332 H   0  0  0  0  0  0  0  0  0  0  0  0
   59.6260   31.9130   49.6960 C   0  0  0  0  0  0  0  0  0  0  0  0
   59.2040   32.6580   51.2260 Cl  0  0  0  0  0  0  0  0  0  0  0  0
   59.1490   30.6370   49.3840 C   0  0  0  0  0  0  0  0  0  0  0  0
   58.5079   30.1006   50.0990 H   0  0  0  0  0  0  0  0  0  0  0  0
   59.4850   30.0410   48.1650 C   0  0  0  0  0  0  0  0  0  0  0  0
   59.1118   29.0341   47.9267 H   0  0  0  0  0  0  0  0  0  0  0  0
  1  2  1  0
  2  3  1  0
  2  4  2  0
  4  5  1  0
  5  6  2  0
  6  7  1  0
  6  8  1  0
  8  9  1  0
  9 10  1  0
 10 11  2  0
 10 12  1  0
 12 13  1  0
 13 14  1  0
  5 15  1  0
 15 16  1  0
 15 17  2  0
 17 18  1  0
 18 19  2  0
 18 20  1  0
 20 21  1  0
 21 22  1  0
 21 23  1  0
 21 24  1  0
 24 25  1  0
 24 26  1  0
 24 27  1  0
 27 28  1  0
 27 29  1  0
 27 30  1  0
 30 31  1  0
 30 32  1  0
 17 33  1  0
 33 34  1  0
 34 35  1  0
 34 36  1  0
 34 37  1  0
 37 38  2  0
 38 39  1  0
 38 40  1  0
 40 41  1  0
 40 42  2  0
 42 43  1  0
 42 44  1  0
 44 45  1  0
 44 46  2  0
 46 47  1  0
 33  4  1  0
 46 37  1  0
 13  8  2  0
 30 20  1  0
M  CHG  3   9  -1  12  -1  14  -1
M  END
>  <UniqueID>  (52) 
50

>  <SMILES>  (52) 
C=c1/c(=C/c2[n-]c(=O)[n-]c2[O-])cc(C(=O)N2CCCC2)n1Cc1ccc(Cl)cc1

>  <Energy>  (52) 
119.04490095455081

>  <Genealogy>  (52) 
C=c1c(=Cc2[n-]c(=O)[n-]c2[O-])cc(C(=O)N2CCCC2)n1Cc1ccc(Cl)cc1 (protonated)
C=c1/c(=C/c2[n-]c(=O)[n-]c2[O-])cc(C(=O)N2CCCC2)n1Cc1ccc(Cl)cc1 (cis-trans isomerization)
C=c1/c(=C/c2[n-]c(=O)[n-]c2[O-])cc(C(=O)N2CCCC2)n1Cc1ccc(Cl)cc1 (3D coordinates assigned)
C=c1/c(=C/c2[n-]c(=O)[n-]c2[O-])cc(C(=O)N2CCCC2)n1Cc1ccc(Cl)cc1 (nonaromatic ring conformer: 119.04490095455081 kcal/mol)

>  <smiles>  (52) 
C=c1c(=Cc2[nH]c(=O)[nH]c2O)cc(C(=O)N2CCCC2)n1Cc1ccc(Cl)cc1

>  <score_type>  (52) 
oracle

>  <origin>  (52) 
adg

>  <m_score__min__energy>  (52) 
-16.77

>  <m_primary>  (52) 
energy

$$$$
52:0
     RDKit          3D

 56 59  0  0  0  0  0  0  0  0999 V2000
   60.1290   29.9780   46.8410 C   0  0  0  0  0  0  0  0  0  0  0  0
   59.4140   30.8440   46.1040 C   0  0  0  0  0  0  0  0  0  0  0  0
   58.5280   30.5440   45.0540 C   0  0  0  0  0  0  0  0  0  0  0  0
   58.2810   29.3880   44.4070 C   0  0  0  0  0  0  0  0  0  0  0  0
   57.6380   28.1960   44.9940 C   0  0  0  0  0  0  0  0  0  0  0  0
   56.2640   28.1940   45.2440 C   0  0  0  0  0  0  0  0  0  0  0  0
   55.4940   29.3230   44.9730 O   0  0  0  0  0  0  0  0  0  0  0  0
   55.6780   27.0890   45.7670 N   0  0  0  0  0  0  0  0  0  0  0  0
   56.3890   25.9670   46.0380 C   0  0  0  0  0  0  0  0  0  0  0  0
   55.7940   24.9780   46.5470 O   0  0  0  0  0  0  0  0  0  0  0  0
   57.7310   25.9110   45.7570 N   0  0  0  0  0  0  0  0  0  0  0  0
   58.5050   24.6980   46.0710 C   0  0  0  0  0  0  0  0  0  0  0  0
   58.3640   27.0180   45.2480 C   0  0  0  0  0  0  0  0  0  0  0  0
   59.6020   26.9860   45.0020 O   0  0  0  0  0  0  0  0  0  0  0  0
   57.8870   31.7300   44.7370 C   0  0  0  0  0  0  0  0  0  0  0  0
   58.4310   32.7090   45.5420 C   0  0  0  0  0  0  0  0  0  0  0  0
   58.0310   34.1530   45.5130 C   0  0  0  0  0  0  0  0  0  0  0  0
   59.3550   32.1750   46.3720 N   0  0  0  0  0  0  0  0  0  0  0  0
   60.1150   32.8980   47.3570 C   0  0  0  0  0  0  0  0  0  0  0  0
   59.4760   33.7940   48.2260 C   0  0  0  0  0  0  0  0  0  0  0  0
   60.2170   34.5030   49.1730 C   0  0  0  0  0  0  0  0  0  0  0  0
   61.5990   34.3160   49.2660 C   0  0  0  0  0  0  0  0  0  0  0  0
   62.2520   33.4100   48.4150 C   0  0  0  0  0  0  0  0  0  0  0  0
   63.7170   33.2130   48.4980 C   0  0  0  0  0  0  0  0  0  0  0  0
   64.4230   33.4620   47.4830 O   0  0  0  0  0  0  0  0  0  0  0  0
   64.3540   32.7500   49.7050 N   0  0  0  0  0  0  0  0  0  0  0  0
   63.6760   31.8100   50.6100 C   0  0  0  0  0  0  0  0  0  0  0  0
   64.6380   30.7110   51.1160 C   0  0  0  0  0  0  0  0  0  0  0  0
   66.0610   31.1010   51.0930 N   0  0  0  0  0  0  0  0  0  0  0  0
   66.2470   32.5420   51.2720 C   0  0  0  0  0  0  0  0  0  0  0  0
   65.6830   33.2680   50.0520 C   0  0  0  0  0  0  0  0  0  0  0  0
   61.5030   32.7150   47.4500 C   0  0  0  0  0  0  0  0  0  0  0  0
   60.7896   30.3490   47.6385 H   0  0  0  0  0  0  0  0  0  0  0  0
   60.0540   28.8978   46.6470 H   0  0  0  0  0  0  0  0  0  0  0  0
   58.5844   29.3275   43.3514 H   0  0  0  0  0  0  0  0  0  0  0  0
   55.4230   30.0760   45.6440 H   0  0  0  0  0  0  0  0  0  0  0  0
   58.5788   24.5824   47.1624 H   0  0  0  0  0  0  0  0  0  0  0  0
   58.0000   23.8197   45.6426 H   0  0  0  0  0  0  0  0  0  0  0  0
   59.5143   24.7859   45.6426 H   0  0  0  0  0  0  0  0  0  0  0  0
   57.0947   31.8655   43.9860 H   0  0  0  0  0  0  0  0  0  0  0  0
   57.9278   34.5256   46.5428 H   0  0  0  0  0  0  0  0  0  0  0  0
   58.8014   34.7364   44.9875 H   0  0  0  0  0  0  0  0  0  0  0  0
   57.0703   34.2569   44.9875 H   0  0  0  0  0  0  0  0  0  0  0  0
   58.3875   33.9386   48.1612 H   0  0  0  0  0  0  0  0  0  0  0  0
   59.7122   35.2103   49.8475 H   0  0  0  0  0  0  0  0  0  0  0  0
   62.1785   34.8819   50.0103 H   0  0  0  0  0  0  0  0  0  0  0  0
   63.2841   32.3666   51.4741 H   0  0  0  0  0  0  0  0  0  0  0  0
   62.8616   31.3237   50.0529 H   0  0  0  0  0  0  0  0  0  0  0  0
   64.3644   30.4621   52.1520 H   0  0  0  0  0  0  0  0  0  0  0  0
   64.5316   29.8559   50.4323 H   0  0  0  0  0  0  0  0  0  0  0  0
   66.5520   30.6080   51.8760 H   0  0  0  0  0  0  0  0  0  0  0  0
   65.7166   32.8734   52.1769 H   0  0  0  0  0  0  0  0  0  0  0  0
   67.3178   32.7695   51.3795 H   0  0  0  0  0  0  0  0  0  0  0  0
   65.6041   34.3420   50.2761 H   0  0  0  0  0  0  0  0  0  0  0  0
   66.3590   33.1031   49.2000 H   0  0  0  0  0  0  0  0  0  0  0  0
   62.0091   32.0219   46.7620 H   0  0  0  0  0  0  0  0  0  0  0  0
  1  2  2  0
  2  3  1  0
  3  4  2  3
  4  5  1  0
  5  6  2  0
  6  7  1  0
  6  8  1  0
  8  9  1  0
  9 10  2  0
  9 11  1  0
 11 12  1  0
 11 13  1  0
 13 14  2  0
  3 15  1  0
 15 16  2  0
 16 17  1  0
 16 18  1  0
 18 19  1  0
 19 20  2  0
 20 21  1  0
 21 22  2  0
 22 23  1  0
 23 24  1  0
 24 25  2  0
 24 26  1  0
 26 27  1  0
 27 28  1  0
 28 29  1  0
 29 30  1  0
 30 31  1  0
 23 32  2  0
 18  2  1  0
 32 19  1  0
 13  5  1  0
 31 26  1  0
  1 33  1  0
  1 34  1  0
  4 35  1  0
  7 36  1  0
 12 37  1  0
 12 38  1  0
 12 39  1  0
 15 40  1  0
 17 41  1  0
 17 42  1  0
 17 43  1  0
 20 44  1  0
 21 45  1  0
 22 46  1  0
 27 47  1  0
 27 48  1  0
 28 49  1  0
 28 50  1  0
 29 51  1  0
 30 52  1  0
 30 53  1  0
 31 54  1  0
 31 55  1  0
 32 56  1  0
M  CHG  1   8  -1
M  END
>  <UniqueID>  (53) 
51

>  <SMILES>  (53) 
C=c1c(=Cc2c(O)[n-]c(=O)n(C)c2=O)cc(C)n1-c1cccc(C(=O)N2CCNCC2)c1

>  <Energy>  (53) 
118.50450229853337

>  <Genealogy>  (53) 
C=c1c(=Cc2c(O)[n-]c(=O)n(C)c2=O)cc(C)n1-c1cccc(C(=O)N2CCNCC2)c1 (protonated)
C=c1c(=Cc2c(O)[n-]c(=O)n(C)c2=O)cc(C)n1-c1cccc(C(=O)N2CCNCC2)c1 (3D coordinates assigned)
C=c1c(=Cc2c(O)[n-]c(=O)n(C)c2=O)cc(C)n1-c1cccc(C(=O)N2CCNCC2)c1 (nonaromatic ring conformer: 118.50450229853337 kcal/mol)

>  <smiles>  (53) 
C=c1c(=Cc2c(O)[nH]c(=O)n(C)c2=O)cc(C)n1-c1cccc(C(=O)N2CCNCC2)c1

>  <score_type>  (53) 
oracle

>  <origin>  (53) 
adg

>  <m_score__min__energy>  (53) 
-13.460000000000001

>  <m_primary>  (53) 
energy

$$$$
53:0
     RDKit          3D

 54 56  0  0  0  0  0  0  0  0999 V2000
   61.0990   27.5710   50.9640 C   0  0  0  0  0  0  0  0  0  0  0  0
   60.3560   28.3130   49.9390 N   0  0  0  0  0  0  0  0  0  0  0  0
   60.3320   27.7980   48.5640 C   0  0  0  0  0  0  0  0  0  0  0  0
   59.6250   29.5180   50.2890 C   0  0  0  0  0  0  0  0  0  0  0  0
   59.2790   29.7890   51.6240 C   0  0  0  0  0  0  0  0  0  0  0  0
   58.5760   30.9520   51.9400 C   0  0  0  0  0  0  0  0  0  0  0  0
   58.2190   31.8200   50.9590 N   0  0  0  0  0  0  0  0  0  0  0  0
   58.5240   31.6050   49.6530 C   0  0  0  0  0  0  0  0  0  0  0  0
   58.1250   32.4780   48.7710 N   0  0  0  0  0  0  0  0  0  0  0  0
   58.8890   33.6180   48.2730 C   0  0  0  0  0  0  0  0  0  0  0  0
   60.2920   33.1850   47.9580 C   0  0  0  0  0  0  0  0  0  0  0  0
   61.3260   33.7330   48.6530 N   0  0  0  0  0  0  0  0  0  0  0  0
   62.6130   33.3610   48.4250 C   0  0  0  0  0  0  0  0  0  0  0  0
   62.8860   32.3920   47.4590 C   0  0  0  0  0  0  0  0  0  0  0  0
   61.8630   31.8470   46.7510 N   0  0  0  0  0  0  0  0  0  0  0  0
   60.5740   32.2220   46.9630 C   0  0  0  0  0  0  0  0  0  0  0  0
   59.5090   31.6000   46.1590 C   0  0  0  0  0  0  0  0  0  0  0  0
   58.5560   32.3960   45.5180 C   0  0  0  0  0  0  0  0  0  0  0  0
   57.5040   31.8070   44.8200 C   0  0  0  0  0  0  0  0  0  0  0  0
   57.3930   30.4090   44.7320 C   0  0  0  0  0  0  0  0  0  0  0  0
   56.1890   29.8330   44.0290 C   0  0  0  0  0  0  0  0  0  0  0  0
   55.5190   28.9600   44.8960 O   0  0  0  0  0  0  0  0  0  0  0  0
   58.3680   29.5960   45.3700 C   0  0  0  0  0  0  0  0  0  0  0  0
   58.2860   27.8260   45.3350 S   0  0  0  0  0  0  0  0  0  0  0  0
   57.8750   27.3810   43.9590 O   0  0  0  0  0  0  0  0  0  0  0  0
   59.6290   27.2280   45.6500 O   0  0  0  0  0  0  0  0  0  0  0  0
   57.1510   27.2900   46.5310 N   0  0  0  0  0  0  0  0  0  0  0  0
   56.2500   26.1930   46.3480 C   0  0  0  0  0  0  0  0  0  0  0  0
   55.0550   26.3940   45.9920 O   0  0  0  0  0  0  0  0  0  0  0  0
   56.7530   24.7960   46.5140 C   0  0  0  0  0  0  0  0  0  0  0  0
   57.3100   24.6300   47.7710 F   0  0  0  0  0  0  0  0  0  0  0  0
   57.7140   24.5280   45.5550 F   0  0  0  0  0  0  0  0  0  0  0  0
   55.7010   23.9130   46.3630 F   0  0  0  0  0  0  0  0  0  0  0  0
   59.4220   30.2060   46.0700 C   0  0  0  0  0  0  0  0  0  0  0  0
   59.2440   30.4440   49.2980 C   0  0  0  0  0  0  0  0  0  0  0  0
   60.7721   27.8975   51.9623 H   0  0  0  0  0  0  0  0  0  0  0  0
   60.9063   26.4941   50.8491 H   0  0  0  0  0  0  0  0  0  0  0  0
   62.1756   27.7652   50.8491 H   0  0  0  0  0  0  0  0  0  0  0  0
   60.2808   26.6994   48.5848 H   0  0  0  0  0  0  0  0  0  0  0  0
   59.4514   28.1962   48.0386 H   0  0  0  0  0  0  0  0  0  0  0  0
   61.2458   28.1126   48.0386 H   0  0  0  0  0  0  0  0  0  0  0  0
   59.5624   29.0843   52.4196 H   0  0  0  0  0  0  0  0  0  0  0  0
   58.3105   31.1660   52.9858 H   0  0  0  0  0  0  0  0  0  0  0  0
   58.4127   34.0078   47.3613 H   0  0  0  0  0  0  0  0  0  0  0  0
   58.9133   34.4051   49.0410 H   0  0  0  0  0  0  0  0  0  0  0  0
   63.4327   33.8200   48.9972 H   0  0  0  0  0  0  0  0  0  0  0  0
   63.9217   32.0719   47.2722 H   0  0  0  0  0  0  0  0  0  0  0  0
   58.6368   33.4920   45.5647 H   0  0  0  0  0  0  0  0  0  0  0  0
   56.7514   32.4438   44.3320 H   0  0  0  0  0  0  0  0  0  0  0  0
   55.5120   30.6478   43.7329 H   0  0  0  0  0  0  0  0  0  0  0  0
   56.5138   29.2842   43.1327 H   0  0  0  0  0  0  0  0  0  0  0  0
   56.0070   28.0980   44.8510 H   0  0  0  0  0  0  0  0  0  0  0  0
   60.1874   29.5812   46.5535 H   0  0  0  0  0  0  0  0  0  0  0  0
   59.5081   30.2619   48.2458 H   0  0  0  0  0  0  0  0  0  0  0  0
  1  2  1  0
  2  3  1  0
  2  4  1  0
  4  5  1  0
  5  6  2  0
  6  7  1  0
  7  8  1  0
  8  9  2  3
  9 10  1  0
 10 11  1  0
 11 12  2  0
 12 13  1  0
 13 14  2  0
 14 15  1  0
 15 16  2  0
 16 17  1  0
 17 18  2  0
 18 19  1  0
 19 20  2  0
 20 21  1  0
 21 22  1  0
 20 23  1  0
 23 24  1  0
 24 25  2  0
 24 26  2  0
 24 27  1  0
 27 28  1  0
 28 29  2  0
 28 30  1  0
 30 31  1  0
 30 32  1  0
 30 33  1  0
 23 34  2  0
  8 35  1  0
 35  4  2  0
 16 11  1  0
 34 17  1  0
  1 36  1  0
  1 37  1  0
  1 38  1  0
  3 39  1  0
  3 40  1  0
  3 41  1  0
  5 42  1  0
  6 43  1  0
 10 44  1  0
 10 45  1  0
 13 46  1  0
 14 47  1  0
 18 48  1  0
 19 49  1  0
 21 50  1  0
 21 51  1  0
 22 52  1  0
 34 53  1  0
 35 54  1  0
M  CHG  2   7  -1  27  -1
M  END
>  <UniqueID>  (54) 
52

>  <SMILES>  (54) 
CN(C)c1cc[n-]c(=NCc2nccnc2-c2ccc(CO)c(S(=O)(=O)[N-]C(=O)C(F)(F)F)c2)c1

>  <Energy>  (54) 
70.79123545580863

>  <Genealogy>  (54) 
CN(C)c1cc[n-]c(=NCc2nccnc2-c2ccc(CO)c(S(=O)(=O)[N-]C(=O)C(F)(F)F)c2)c1 (protonated)
CN(C)c1cc[n-]c(=NCc2nccnc2-c2ccc(CO)c(S(=O)(=O)[N-]C(=O)C(F)(F)F)c2)c1 (3D coordinates assigned)
CN(C)c1cc[n-]c(=NCc2nccnc2-c2ccc(CO)c(S(=O)(=O)[N-]C(=O)C(F)(F)F)c2)c1 (optimized conformer: 70.79123545580863 kcal/mol)

>  <smiles>  (54) 
CN(C)c1cc[nH]c(=NCc2nccnc2-c2ccc(CO)c(S(=O)(=O)NC(=O)C(F)(F)F)c2)c1

>  <score_type>  (54) 
oracle

>  <origin>  (54) 
adg

>  <m_score__min__energy>  (54) 
-11.02

>  <m_primary>  (54) 
energy

$$$$
54:0
     RDKit          3D

 53 57  0  0  0  0  0  0  0  0999 V2000
   57.2471   26.6949   47.8289 H   0  0  0  0  0  0  0  0  0  0  0  0
   57.8020   27.2580   47.0640 C   0  0  0  0  0  0  0  0  0  0  0  0
   59.1400   27.4870   47.1860 N   0  0  0  0  0  0  0  0  0  0  0  0
   59.5580   28.3570   45.8340 S   0  0  0  0  0  0  0  0  0  0  0  0
   58.0400   28.4080   45.1530 C   0  0  0  0  0  0  0  0  0  0  0  0
   57.6940   28.9710   44.0360 N   0  0  0  0  0  0  0  0  0  0  0  0
   56.7670   30.4330   43.9330 S   0  0  0  0  0  0  0  0  0  0  0  0
   56.6420   30.8390   42.4920 O   0  0  0  0  0  0  0  0  0  0  0  0
   55.3890   30.1890   44.4840 O   0  0  0  0  0  0  0  0  0  0  0  0
   57.5820   31.7190   44.8180 C   0  0  0  0  0  0  0  0  0  0  0  0
   57.7360   32.9740   44.2250 C   0  0  0  0  0  0  0  0  0  0  0  0
   57.3352   33.1556   43.2168 H   0  0  0  0  0  0  0  0  0  0  0  0
   58.3950   33.9980   44.9040 C   0  0  0  0  0  0  0  0  0  0  0  0
   58.5120   34.9816   44.4255 H   0  0  0  0  0  0  0  0  0  0  0  0
   58.9110   33.7860   46.1930 C   0  0  0  0  0  0  0  0  0  0  0  0
   59.5990   34.9250   46.8990 C   0  0  0  0  0  0  0  0  0  0  0  0
   59.5152   34.7862   47.9870 H   0  0  0  0  0  0  0  0  0  0  0  0
   60.6609   34.9459   46.6128 H   0  0  0  0  0  0  0  0  0  0  0  0
   59.1233   35.8746   46.6128 H   0  0  0  0  0  0  0  0  0  0  0  0
   58.7880   32.5040   46.7860 C   0  0  0  0  0  0  0  0  0  0  0  0
   59.3590   32.1950   48.1160 C   0  0  0  0  0  0  0  0  0  0  0  0
   58.5240   31.8600   49.1870 C   0  0  0  0  0  0  0  0  0  0  0  0
   57.4337   31.8256   49.0451 H   0  0  0  0  0  0  0  0  0  0  0  0
   59.0780   31.5680   50.4420 C   0  0  0  0  0  0  0  0  0  0  0  0
   58.1870   31.2080   51.5740 C   0  0  0  0  0  0  0  0  0  0  0  0
   57.3730   30.1190   51.4670 N   0  0  0  0  0  0  0  0  0  0  0  0
   56.5400   29.7360   52.4690 C   0  0  0  0  0  0  0  0  0  0  0  0
   55.8961   28.8534   52.3410 H   0  0  0  0  0  0  0  0  0  0  0  0
   56.5000   30.4610   53.6610 C   0  0  0  0  0  0  0  0  0  0  0  0
   55.8233   30.1593   54.4741 H   0  0  0  0  0  0  0  0  0  0  0  0
   57.3290   31.5730   53.8080 C   0  0  0  0  0  0  0  0  0  0  0  0
   57.3132   32.1512   54.7436 H   0  0  0  0  0  0  0  0  0  0  0  0
   58.1790   31.9520   52.7670 C   0  0  0  0  0  0  0  0  0  0  0  0
   58.8374   32.8260   52.8794 H   0  0  0  0  0  0  0  0  0  0  0  0
   60.4330   31.6450   50.6120 N   0  0  0  0  0  0  0  0  0  0  0  0
   60.8390   31.4940   51.5620 H   0  0  0  0  0  0  0  0  0  0  0  0
   61.2740   31.9840   49.5890 C   0  0  0  0  0  0  0  0  0  0  0  0
   62.7390   32.0520   49.8160 C   0  0  0  0  0  0  0  0  0  0  0  0
   63.5210   32.9960   49.1260 C   0  0  0  0  0  0  0  0  0  0  0  0
   63.0430   33.6864   48.4155 H   0  0  0  0  0  0  0  0  0  0  0  0
   64.9020   33.0630   49.3370 C   0  0  0  0  0  0  0  0  0  0  0  0
   65.5053   33.8057   48.7943 H   0  0  0  0  0  0  0  0  0  0  0  0
   65.5160   32.1880   50.2360 C   0  0  0  0  0  0  0  0  0  0  0  0
   66.6025   32.2409   50.3998 H   0  0  0  0  0  0  0  0  0  0  0  0
   64.7510   31.2460   50.9270 C   0  0  0  0  0  0  0  0  0  0  0  0
   65.2357   30.5579   51.6352 H   0  0  0  0  0  0  0  0  0  0  0  0
   63.3690   31.1760   50.7200 C   0  0  0  0  0  0  0  0  0  0  0  0
   62.7712   30.4320   51.2669 H   0  0  0  0  0  0  0  0  0  0  0  0
   60.7400   32.2630   48.3210 C   0  0  0  0  0  0  0  0  0  0  0  0
   61.4074   32.5347   47.4899 H   0  0  0  0  0  0  0  0  0  0  0  0
   58.1060   31.4870   46.0950 C   0  0  0  0  0  0  0  0  0  0  0  0
   57.9830   30.4990   46.5627 H   0  0  0  0  0  0  0  0  0  0  0  0
   57.1740   27.7560   45.9520 N   0  0  0  0  0  0  0  0  0  0  0  0
  1  2  1  0
  2  3  2  0
  3  4  1  0
  4  5  1  0
  5  6  2  0
  6  7  1  0
  7  8  2  0
  7  9  2  0
  7 10  1  0
 10 11  2  0
 11 12  1  0
 11 13  1  0
 13 14  1  0
 13 15  2  0
 15 16  1  0
 16 17  1  0
 16 18  1  0
 16 19  1  0
 15 20  1  0
 20 21  1  0
 21 22  2  0
 22 23  1  0
 22 24  1  0
 24 25  1  0
 25 26  2  0
 26 27  1  0
 27 28  1  0
 27 29  2  0
 29 30  1  0
 29 31  1  0
 31 32  1  0
 31 33  2  0
 33 34  1  0
 24 35  2  0
 35 36  1  0
 35 37  1  0
 37 38  1  0
 38 39  2  0
 39 40  1  0
 39 41  1  0
 41 42  1  0
 41 43  2  0
 43 44  1  0
 43 45  1  0
 45 46  1  0
 45 47  2  0
 47 48  1  0
 37 49  2  0
 49 50  1  0
 20 51  2  0
 51 52  1  0
  5 53  1  0
 53  2  1  0
 51 10  1  0
 49 21  1  0
 33 25  1  0
 47 38  1  0
M  CHG  2  35   1  53  -1
M  END
>  <UniqueID>  (55) 
53

>  <SMILES>  (55) 
Cc1ccc(S(=O)(=O)/N=c2/[n-]cns2)cc1-c1cc(-c2ccccc2)[nH+]c(-c2ccccn2)c1

>  <Energy>  (55) 
117.17143867840261

>  <Genealogy>  (55) 
Cc1ccc(S(=O)(=O)N=c2[n-]cns2)cc1-c1cc(-c2ccccc2)[nH+]c(-c2ccccn2)c1 (protonated)
Cc1ccc(S(=O)(=O)/N=c2/[n-]cns2)cc1-c1cc(-c2ccccc2)[nH+]c(-c2ccccn2)c1 (cis-trans isomerization)
Cc1ccc(S(=O)(=O)/N=c2/[n-]cns2)cc1-c1cc(-c2ccccc2)[nH+]c(-c2ccccn2)c1 (3D coordinates assigned)
Cc1ccc(S(=O)(=O)/N=c2/[n-]cns2)cc1-c1cc(-c2ccccc2)[nH+]c(-c2ccccn2)c1 (optimized conformer: 117.17143867840261 kcal/mol)

>  <smiles>  (55) 
Cc1ccc(S(=O)(=O)N=c2[nH]cns2)cc1-c1cc(-c2ccccc2)nc(-c2ccccn2)c1

>  <score_type>  (55) 
oracle

>  <origin>  (55) 
adg

>  <m_score__min__energy>  (55) 
-10.6

>  <m_primary>  (55) 
energy

$$$$
55:0
     RDKit          3D

 60 64  0  0  0  0  0  0  0  0999 V2000
   59.6826   35.4490   49.9091 H   0  0  0  0  0  0  0  0  0  0  0  0
   59.8690   34.4070   49.6100 C   0  0  0  0  0  0  0  0  0  0  0  0
   60.5330   33.6170   50.4620 C   0  0  0  0  0  0  0  0  0  0  0  0
   59.9705   33.0583   51.2245 H   0  0  0  0  0  0  0  0  0  0  0  0
   62.0070   33.4760   50.4040 C   0  0  0  0  0  0  0  0  0  0  0  0
   62.6170   32.5540   49.5790 N   0  0  0  0  0  0  0  0  0  0  0  0
   61.8270   31.6130   48.8240 C   0  0  0  0  0  0  0  0  0  0  0  0
   61.9900   31.5160   47.4350 C   0  0  0  0  0  0  0  0  0  0  0  0
   62.6792   32.1980   46.9155 H   0  0  0  0  0  0  0  0  0  0  0  0
   61.2810   30.5570   46.7080 C   0  0  0  0  0  0  0  0  0  0  0  0
   61.4081   30.4952   45.6171 H   0  0  0  0  0  0  0  0  0  0  0  0
   60.4070   29.6710   47.3590 C   0  0  0  0  0  0  0  0  0  0  0  0
   59.7060   28.6640   46.6080 N   0  0  0  0  0  0  0  0  0  0  0  0
   59.7360   27.2650   46.8270 C   0  0  0  0  0  0  0  0  0  0  0  0
   60.4660   26.6970   47.6830 O   0  0  0  0  0  0  0  0  0  0  0  0
   58.9250   26.5800   45.9520 O   0  0  0  0  0  0  0  0  0  0  0  0
   58.2790   27.4980   45.0770 C   0  0  1  0  0  0  0  0  0  0  0  0
   58.4819   27.2833   44.0174 H   0  0  0  0  0  0  0  0  0  0  0  0
   56.7530   27.4030   45.2170 C   0  0  0  0  0  0  0  0  0  0  0  0
   56.5110   26.8649   46.1454 H   0  0  0  0  0  0  0  0  0  0  0  0
   56.3564   26.8668   44.3423 H   0  0  0  0  0  0  0  0  0  0  0  0
   56.1410   28.7300   45.2620 N   0  0  0  0  0  0  0  0  0  0  0  0
   56.2250   29.7210   44.2250 C   0  0  0  0  0  0  0  0  0  0  0  0
   56.0520   30.9350   44.5230 O   0  0  0  0  0  0  0  0  0  0  0  0
   56.5710   29.3610   42.8120 C   0  0  0  0  0  0  0  0  0  0  0  0
   57.3332   28.5679   42.8118 H   0  0  0  0  0  0  0  0  0  0  0  0
   55.6693   29.0031   42.2935 H   0  0  0  0  0  0  0  0  0  0  0  0
   56.9644   30.2478   42.2935 H   0  0  0  0  0  0  0  0  0  0  0  0
   58.8360   28.9020   45.4650 C   0  0  0  0  0  0  0  0  0  0  0  0
   59.4059   29.3353   44.6299 H   0  0  0  0  0  0  0  0  0  0  0  0
   58.0308   29.6131   45.7017 H   0  0  0  0  0  0  0  0  0  0  0  0
   60.2260   29.7860   48.7490 C   0  0  0  0  0  0  0  0  0  0  0  0
   59.5314   29.1092   49.2682 H   0  0  0  0  0  0  0  0  0  0  0  0
   60.9250   30.7570   49.4750 C   0  0  0  0  0  0  0  0  0  0  0  0
   60.7670   30.8497   50.5596 H   0  0  0  0  0  0  0  0  0  0  0  0
   63.9850   32.4610   49.5380 C   0  0  0  0  0  0  0  0  0  0  0  0
   64.5410   31.6170   48.7800 O   0  0  0  0  0  0  0  0  0  0  0  0
   64.7720   33.2880   50.3560 C   0  0  0  0  0  0  0  0  0  0  0  0
   66.1800   33.2180   50.3590 C   0  0  0  0  0  0  0  0  0  0  0  0
   66.6956   32.5098   49.6937 H   0  0  0  0  0  0  0  0  0  0  0  0
   66.9220   34.0460   51.2050 C   0  0  0  0  0  0  0  0  0  0  0  0
   68.0205   33.9879   51.2045 H   0  0  0  0  0  0  0  0  0  0  0  0
   66.2720   34.9480   52.0520 C   0  0  0  0  0  0  0  0  0  0  0  0
   66.8602   35.5989   52.7155 H   0  0  0  0  0  0  0  0  0  0  0  0
   64.8760   35.0250   52.0580 C   0  0  0  0  0  0  0  0  0  0  0  0
   64.3690   35.7363   52.7266 H   0  0  0  0  0  0  0  0  0  0  0  0
   64.1190   34.1970   51.2130 C   0  0  0  0  0  0  0  0  0  0  0  0
   62.7600   34.2640   51.2200 N   0  0  0  0  0  0  0  0  0  0  0  0
   62.2790   34.9430   51.8560 H   0  0  0  0  0  0  0  0  0  0  0  0
   59.3700   33.9620   48.2880 C   0  0  0  0  0  0  0  0  0  0  0  0
   59.6460   34.7620   47.1630 C   0  0  0  0  0  0  0  0  0  0  0  0
   60.2012   35.7036   47.2859 H   0  0  0  0  0  0  0  0  0  0  0  0
   59.2200   34.3690   45.8910 C   0  0  0  0  0  0  0  0  0  0  0  0
   59.4462   34.9978   45.0173 H   0  0  0  0  0  0  0  0  0  0  0  0
   58.5070   33.1780   45.7280 C   0  0  0  0  0  0  0  0  0  0  0  0
   58.1849   32.8627   44.7246 H   0  0  0  0  0  0  0  0  0  0  0  0
   58.2030   32.3870   46.8410 C   0  0  0  0  0  0  0  0  0  0  0  0
   57.6278   31.4581   46.7137 H   0  0  0  0  0  0  0  0  0  0  0  0
   58.6290   32.7750   48.1150 C   0  0  0  0  0  0  0  0  0  0  0  0
   58.3847   32.1507   48.9871 H   0  0  0  0  0  0  0  0  0  0  0  0
  1  2  1  0
  2  3  2  0
  3  4  1  0
  3  5  1  0
  5  6  1  0
  6  7  1  0
  7  8  2  0
  8  9  1  0
  8 10  1  0
 10 11  1  0
 10 12  2  0
 12 13  1  0
 13 14  1  0
 14 15  2  0
 14 16  1  0
 16 17  1  0
 17 18  1  6
 17 19  1  0
 19 20  1  0
 19 21  1  0
 19 22  1  0
 22 23  1  0
 23 24  2  0
 23 25  1  0
 25 26  1  0
 25 27  1  0
 25 28  1  0
 17 29  1  0
 29 30  1  0
 29 31  1  0
 12 32  1  0
 32 33  1  0
 32 34  2  0
 34 35  1  0
  6 36  1  0
 36 37  2  0
 36 38  1  0
 38 39  2  0
 39 40  1  0
 39 41  1  0
 41 42  1  0
 41 43  2  0
 43 44  1  0
 43 45  1  0
 45 46  1  0
 45 47  2  0
 47 48  1  0
 48 49  1  0
  2 50  1  0
 50 51  2  0
 51 52  1  0
 51 53  1  0
 53 54  1  0
 53 55  2  0
 55 56  1  0
 55 57  1  0
 57 58  1  0
 57 59  2  0
 59 60  1  0
 48  5  2  0
 59 50  1  0
 34  7  1  0
 47 38  1  0
 29 13  1  0
M  CHG  2  22  -1  48   1
M  END
>  <UniqueID>  (56) 
54

>  <SMILES>  (56) 
CC(=O)[N-]C[C@H]1CN(c2ccc(-n3c(/C=C/c4ccccc4)[nH+]c4ccccc4c3=O)cc2)C(=O)O1

>  <Energy>  (56) 
103.01256007098014

>  <Genealogy>  (56) 
CC(=O)[N-]CC1CN(c2ccc(-n3c(C=Cc4ccccc4)[nH+]c4ccccc4c3=O)cc2)C(=O)O1 (protonated)
CC(=O)[N-]C[C@H]1CN(c2ccc(-n3c(C=Cc4ccccc4)[nH+]c4ccccc4c3=O)cc2)C(=O)O1 (chirality)
CC(=O)[N-]C[C@H]1CN(c2ccc(-n3c(/C=C/c4ccccc4)[nH+]c4ccccc4c3=O)cc2)C(=O)O1 (cis-trans isomerization)
CC(=O)[N-]C[C@H]1CN(c2ccc(-n3c(/C=C/c4ccccc4)[nH+]c4ccccc4c3=O)cc2)C(=O)O1 (3D coordinates assigned)
CC(=O)[N-]C[C@H]1CN(c2ccc(-n3c(/C=C/c4ccccc4)[nH+]c4ccccc4c3=O)cc2)C(=O)O1 (nonaromatic ring conformer: 103.01256007098014 kcal/mol)

>  <smiles>  (56) 
CC(=O)NCC1CN(c2ccc(-n3c(C=Cc4ccccc4)nc4ccccc4c3=O)cc2)C(=O)O1

>  <score_type>  (56) 
oracle

>  <origin>  (56) 
adg

>  <m_score__min__energy>  (56) 
-10.279999999999999

>  <m_primary>  (56) 
energy

$$$$
56:0
     RDKit          3D

 59 63  0  0  0  0  0  0  0  0999 V2000
   57.8260   30.1430   43.7100 C   0  0  0  0  0  0  0  0  0  0  0  0
   58.0790   30.3130   45.0180 C   0  0  0  0  0  0  0  0  0  0  0  0
   58.4400   29.3190   45.9410 C   0  0  0  0  0  0  0  0  0  0  0  0
   58.4190   27.9760   45.8480 C   0  0  0  0  0  0  0  0  0  0  0  0
   57.2400   27.1220   46.0580 C   0  0  0  0  0  0  0  0  0  0  0  0
   57.2850   25.8490   46.4980 N   0  0  0  0  0  0  0  0  0  0  0  0
   56.0000   25.4410   46.3980 C   0  0  0  0  0  0  0  0  0  0  0  0
   55.6280   24.2870   46.7350 O   0  0  0  0  0  0  0  0  0  0  0  0
   55.1480   26.3620   45.8990 N   0  0  0  0  0  0  0  0  0  0  0  0
   55.9530   27.4140   45.6740 C   0  0  0  0  0  0  0  0  0  0  0  0
   55.5240   28.6110   45.1180 O   0  0  0  0  0  0  0  0  0  0  0  0
   58.8640   29.9840   47.0780 C   0  0  0  0  0  0  0  0  0  0  0  0
   58.6880   31.3320   46.8450 C   0  0  0  0  0  0  0  0  0  0  0  0
   59.0790   32.3950   47.7940 C   0  0  0  0  0  0  0  0  0  0  0  0
   58.3400   32.6320   48.7880 O   0  0  0  0  0  0  0  0  0  0  0  0
   60.2830   33.1610   47.5960 N   0  0  0  0  0  0  0  0  0  0  0  0
   60.4010   34.5110   48.1570 C   0  0  0  0  0  0  0  0  0  0  0  0
   61.4430   34.5000   49.2720 C   0  0  0  0  0  0  0  0  0  0  0  0
   62.8070   33.9360   48.7840 C   0  0  0  0  0  0  0  0  0  0  0  0
   63.4530   33.0650   49.7990 N   0  0  0  0  0  0  0  0  0  0  0  0
   64.6770   33.5310   50.4510 C   0  0  0  0  0  0  0  0  0  0  0  0
   65.8530   32.6780   49.9940 C   0  0  0  0  0  0  0  0  0  0  0  0
   66.0660   31.5080   50.9130 C   0  0  0  0  0  0  0  0  0  0  0  0
   67.3690   31.2720   51.3950 C   0  0  0  0  0  0  0  0  0  0  0  0
   67.6330   30.2020   52.2500 C   0  0  0  0  0  0  0  0  0  0  0  0
   66.6010   29.3560   52.6450 C   0  0  0  0  0  0  0  0  0  0  0  0
   65.3020   29.5830   52.1910 C   0  0  0  0  0  0  0  0  0  0  0  0
   65.0110   30.6530   51.3300 C   0  0  0  0  0  0  0  0  0  0  0  0
   63.6290   30.8220   50.9690 N   0  0  0  0  0  0  0  0  0  0  0  0
   62.9170   31.7680   50.1550 C   0  0  0  0  0  0  0  0  0  0  0  0
   61.7860   31.4200   49.7300 O   0  0  0  0  0  0  0  0  0  0  0  0
   62.7770   33.2630   47.3840 C   0  0  0  0  0  0  0  0  0  0  0  0
   61.4820   32.4980   47.0560 C   0  0  0  0  0  0  0  0  0  0  0  0
   58.1850   31.5340   45.6040 N   0  0  0  0  0  0  0  0  0  0  0  0
   57.8930   32.8370   44.9940 C   0  0  0  0  0  0  0  0  0  0  0  0
   57.5507   31.0063   43.0863 H   0  0  0  0  0  0  0  0  0  0  0  0
   57.8941   29.1405   43.2624 H   0  0  0  0  0  0  0  0  0  0  0  0
   59.3643   27.4746   45.5932 H   0  0  0  0  0  0  0  0  0  0  0  0
   59.2651   29.5249   47.9936 H   0  0  0  0  0  0  0  0  0  0  0  0
   60.7130   35.2115   47.3683 H   0  0  0  0  0  0  0  0  0  0  0  0
   59.4291   34.8301   48.5616 H   0  0  0  0  0  0  0  0  0  0  0  0
   61.5914   35.5293   49.6305 H   0  0  0  0  0  0  0  0  0  0  0  0
   61.0734   33.8492   50.0781 H   0  0  0  0  0  0  0  0  0  0  0  0
   63.4352   34.8295   48.6532 H   0  0  0  0  0  0  0  0  0  0  0  0
   64.8592   34.5815   50.1805 H   0  0  0  0  0  0  0  0  0  0  0  0
   64.5656   33.4469   51.5421 H   0  0  0  0  0  0  0  0  0  0  0  0
   65.6524   32.3049   48.9788 H   0  0  0  0  0  0  0  0  0  0  0  0
   66.7600   33.3002   50.0066 H   0  0  0  0  0  0  0  0  0  0  0  0
   68.1888   31.9404   51.0930 H   0  0  0  0  0  0  0  0  0  0  0  0
   68.6569   30.0269   52.6120 H   0  0  0  0  0  0  0  0  0  0  0  0
   66.8097   28.5088   53.3149 H   0  0  0  0  0  0  0  0  0  0  0  0
   64.4918   28.9123   52.5130 H   0  0  0  0  0  0  0  0  0  0  0  0
   62.9107   34.0482   46.6253 H   0  0  0  0  0  0  0  0  0  0  0  0
   63.5833   32.5147   47.3859 H   0  0  0  0  0  0  0  0  0  0  0  0
   61.3826   32.4251   45.9629 H   0  0  0  0  0  0  0  0  0  0  0  0
   61.5534   31.5046   47.5229 H   0  0  0  0  0  0  0  0  0  0  0  0
   57.7258   33.5829   45.7850 H   0  0  0  0  0  0  0  0  0  0  0  0
   58.7436   33.1486   44.3700 H   0  0  0  0  0  0  0  0  0  0  0  0
   56.9908   32.7558   44.3700 H   0  0  0  0  0  0  0  0  0  0  0  0
  1  2  2  0
  2  3  1  0
  3  4  2  3
  4  5  1  0
  5  6  1  0
  6  7  1  0
  7  8  2  0
  7  9  1  0
  9 10  1  0
 10 11  1  0
  3 12  1  0
 12 13  2  0
 13 14  1  0
 14 15  2  0
 14 16  1  0
 16 17  1  0
 17 18  1  0
 18 19  1  0
 19 20  1  0
 20 21  1  0
 21 22  1  0
 22 23  1  0
 23 24  2  0
 24 25  1  0
 25 26  2  0
 26 27  1  0
 27 28  2  0
 28 29  1  0
 29 30  1  0
 30 31  2  0
 19 32  1  0
 32 33  1  0
 13 34  1  0
 34 35  1  0
 34  2  1  0
 10  5  2  0
 33 16  1  0
 30 20  1  0
 28 23  1  0
  1 36  1  0
  1 37  1  0
  4 38  1  0
 12 39  1  0
 17 40  1  0
 17 41  1  0
 18 42  1  0
 18 43  1  0
 19 44  1  0
 21 45  1  0
 21 46  1  0
 22 47  1  0
 22 48  1  0
 24 49  1  0
 25 50  1  0
 26 51  1  0
 27 52  1  0
 32 53  1  0
 32 54  1  0
 33 55  1  0
 33 56  1  0
 35 57  1  0
 35 58  1  0
 35 59  1  0
M  CHG  4   6  -1   9  -1  11  -1  29  -1
M  END
>  <UniqueID>  (57) 
55

>  <SMILES>  (57) 
C=c1c(=Cc2[n-]c(=O)[n-]c2[O-])cc(C(=O)N2CCC(N3CCc4ccccc4[N-]C3=O)CC2)n1C

>  <Energy>  (57) 
154.74268940948602

>  <Genealogy>  (57) 
C=c1c(=Cc2[n-]c(=O)[n-]c2[O-])cc(C(=O)N2CCC(N3CCc4ccccc4[N-]C3=O)CC2)n1C (protonated)
C=c1c(=Cc2[n-]c(=O)[n-]c2[O-])cc(C(=O)N2CCC(N3CCc4ccccc4[N-]C3=O)CC2)n1C (3D coordinates assigned)
C=c1c(=Cc2[n-]c(=O)[n-]c2[O-])cc(C(=O)N2CCC(N3CCc4ccccc4[N-]C3=O)CC2)n1C (nonaromatic ring conformer: 154.74268940948602 kcal/mol)

>  <smiles>  (57) 
C=c1c(=Cc2[nH]c(=O)[nH]c2O)cc(C(=O)N2CCC(N3CCc4ccccc4NC3=O)CC2)n1C

>  <score_type>  (57) 
oracle

>  <origin>  (57) 
adg

>  <m_score__min__energy>  (57) 
-18.219999999999999

>  <m_primary>  (57) 
energy

$$$$
57:0
     RDKit          3D

 46 48  0  0  0  0  0  0  0  0999 V2000
   55.9370   24.8340   46.4960 C   0  0  0  0  0  0  0  0  0  0  0  0
   56.6880   26.0450   46.0450 C   0  0  0  0  0  0  0  0  0  0  0  0
   58.0890   26.0830   46.1130 C   0  0  0  0  0  0  0  0  0  0  0  0
   58.7430   27.2580   45.7350 C   0  0  0  0  0  0  0  0  0  0  0  0
   60.0020   27.3230   45.7660 O   0  0  0  0  0  0  0  0  0  0  0  0
   58.0230   28.3330   45.3250 N   0  0  0  0  0  0  0  0  0  0  0  0
   56.6640   28.2870   45.2800 C   0  0  0  0  0  0  0  0  0  0  0  0
   55.7430   29.7280   44.7540 S   0  0  0  0  0  0  0  0  0  0  0  0
   56.6710   29.9710   43.1950 C   0  0  0  0  0  0  0  0  0  0  0  0
   57.3450   31.3150   43.1860 C   0  0  0  0  0  0  0  0  0  0  0  0
   57.5230   31.8820   42.0740 O   0  0  0  0  0  0  0  0  0  0  0  0
   57.8580   31.9630   44.4230 C   0  0  0  0  0  0  0  0  0  0  0  0
   57.3900   33.2290   44.8480 C   0  0  0  0  0  0  0  0  0  0  0  0
   57.8900   33.8060   46.0150 C   0  0  0  0  0  0  0  0  0  0  0  0
   58.8350   33.1360   46.7890 C   0  0  0  0  0  0  0  0  0  0  0  0
   59.3050   31.8800   46.3880 C   0  0  0  0  0  0  0  0  0  0  0  0
   60.4090   30.9840   47.4340 S   0  0  0  0  0  0  0  0  0  0  0  0
   61.7480   30.8370   46.7540 O   0  0  0  0  0  0  0  0  0  0  0  0
   60.6050   31.7600   48.7070 O   0  0  0  0  0  0  0  0  0  0  0  0
   59.7100   29.4140   47.7870 N   0  0  0  0  0  0  0  0  0  0  0  0
   58.5280   29.5320   48.6640 C   0  0  0  0  0  0  0  0  0  0  0  0
   58.9050   29.8350   50.1390 C   0  0  0  0  0  0  0  0  0  0  0  0
   60.2630   29.5660   50.4400 O   0  0  0  0  0  0  0  0  0  0  0  0
   60.6590   28.3420   49.8620 C   0  0  0  0  0  0  0  0  0  0  0  0
   60.7190   28.4680   48.3260 C   0  0  0  0  0  0  0  0  0  0  0  0
   58.8250   31.3050   45.2010 C   0  0  0  0  0  0  0  0  0  0  0  0
   56.0080   27.1490   45.6350 N   0  0  0  0  0  0  0  0  0  0  0  0
   55.9177   24.8029   47.5954 H   0  0  0  0  0  0  0  0  0  0  0  0
   54.9070   24.8773   46.1123 H   0  0  0  0  0  0  0  0  0  0  0  0
   56.4336   23.9306   46.1123 H   0  0  0  0  0  0  0  0  0  0  0  0
   58.6594   25.2073   46.4562 H   0  0  0  0  0  0  0  0  0  0  0  0
   57.4332   29.1834   43.1012 H   0  0  0  0  0  0  0  0  0  0  0  0
   55.9672   29.9209   42.3511 H   0  0  0  0  0  0  0  0  0  0  0  0
   56.6296   33.7596   44.2561 H   0  0  0  0  0  0  0  0  0  0  0  0
   57.5350   34.7992   46.3272 H   0  0  0  0  0  0  0  0  0  0  0  0
   59.2118   33.5941   47.7154 H   0  0  0  0  0  0  0  0  0  0  0  0
   59.3760   29.0380   46.8690 H   0  0  0  0  0  0  0  0  0  0  0  0
   57.8913   30.3468   48.2889 H   0  0  0  0  0  0  0  0  0  0  0  0
   58.0034   28.5653   48.6468 H   0  0  0  0  0  0  0  0  0  0  0  0
   58.7081   30.8989   50.3376 H   0  0  0  0  0  0  0  0  0  0  0  0
   58.2952   29.1737   50.7721 H   0  0  0  0  0  0  0  0  0  0  0  0
   61.6537   28.0665   50.2423 H   0  0  0  0  0  0  0  0  0  0  0  0
   59.9249   27.5673   50.1283 H   0  0  0  0  0  0  0  0  0  0  0  0
   61.7206   28.8225   48.0412 H   0  0  0  0  0  0  0  0  0  0  0  0
   60.5021   27.4759   47.9034 H   0  0  0  0  0  0  0  0  0  0  0  0
   59.2106   30.3274   44.8761 H   0  0  0  0  0  0  0  0  0  0  0  0
  1  2  1  0
  2  3  2  0
  3  4  1  0
  4  5  2  0
  4  6  1  0
  6  7  1  0
  7  8  1  0
  8  9  1  0
  9 10  1  0
 10 11  2  0
 10 12  1  0
 12 13  2  0
 13 14  1  0
 14 15  2  0
 15 16  1  0
 16 17  1  0
 17 18  2  0
 17 19  2  0
 17 20  1  0
 20 21  1  0
 21 22  1  0
 22 23  1  0
 23 24  1  0
 24 25  1  0
 16 26  2  0
  7 27  2  0
 27  2  1  0
 26 12  1  0
 25 20  1  0
  1 28  1  0
  1 29  1  0
  1 30  1  0
  3 31  1  0
  9 32  1  0
  9 33  1  0
 13 34  1  0
 14 35  1  0
 15 36  1  0
 20 37  1  0
 21 38  1  0
 21 39  1  0
 22 40  1  0
 22 41  1  0
 24 42  1  0
 24 43  1  0
 25 44  1  0
 25 45  1  0
 26 46  1  0
M  CHG  2   6  -1  20   1
M  END
>  <UniqueID>  (58) 
56

>  <SMILES>  (58) 
Cc1cc(=O)[n-]c(SCC(=O)c2cccc(S(=O)(=O)[NH+]3CCOCC3)c2)n1

>  <Energy>  (58) 
57.12140169924503

>  <Genealogy>  (58) 
Cc1cc(=O)[n-]c(SCC(=O)c2cccc(S(=O)(=O)[NH+]3CCOCC3)c2)n1 (protonated)
Cc1cc(=O)[n-]c(SCC(=O)c2cccc(S(=O)(=O)[NH+]3CCOCC3)c2)n1 (3D coordinates assigned)
Cc1cc(=O)[n-]c(SCC(=O)c2cccc(S(=O)(=O)[NH+]3CCOCC3)c2)n1 (nonaromatic ring conformer: 57.12140169924503 kcal/mol)

>  <smiles>  (58) 
Cc1cc(=O)[nH]c(SCC(=O)c2cccc(S(=O)(=O)N3CCOCC3)c2)n1

>  <score_type>  (58) 
oracle

>  <origin>  (58) 
adg

>  <m_score__min__energy>  (58) 
-9.1500000000000004

>  <m_primary>  (58) 
energy

$$$$
58:0
     RDKit          3D

 46 49  0  0  0  0  0  0  0  0999 V2000
   55.6610   23.6160   46.3680 C   0  0  0  0  0  0  0  0  0  0  0  0
   56.6350   24.7050   46.1720 N   0  0  0  0  0  0  0  0  0  0  0  0
   56.1860   25.9900   45.9420 C   0  0  0  0  0  0  0  0  0  0  0  0
   54.8150   26.2730   45.8790 O   0  0  0  0  0  0  0  0  0  0  0  0
   57.1070   27.0490   45.7570 C   0  0  0  0  0  0  0  0  0  0  0  0
   56.6670   28.4510   45.5140 C   0  0  0  0  0  0  0  0  0  0  0  0
   55.5640   28.6860   44.9520 O   0  0  0  0  0  0  0  0  0  0  0  0
   57.4770   29.5430   45.9760 N   0  0  0  0  0  0  0  0  0  0  0  0
   57.7840   30.7450   45.2540 C   0  0  0  0  0  0  0  0  0  0  0  0
   57.4220   30.9190   43.9070 C   0  0  0  0  0  0  0  0  0  0  0  0
   57.7630   32.0940   43.2350 C   0  0  0  0  0  0  0  0  0  0  0  0
   58.4740   33.0990   43.8920 C   0  0  0  0  0  0  0  0  0  0  0  0
   58.8600   32.9380   45.2350 C   0  0  0  0  0  0  0  0  0  0  0  0
   59.6280   33.9950   45.9440 C   0  0  0  0  0  0  0  0  0  0  0  0
   59.9380   35.0550   45.3360 O   0  0  0  0  0  0  0  0  0  0  0  0
   60.0110   33.8640   47.3680 C   0  0  0  0  0  0  0  0  0  0  0  0
   59.0010   33.9530   48.3370 C   0  0  0  0  0  0  0  0  0  0  0  0
   59.3120   33.7940   49.6860 C   0  0  0  0  0  0  0  0  0  0  0  0
   60.5930   33.5620   50.0700 N   0  0  0  0  0  0  0  0  0  0  0  0
   61.6090   33.4890   49.1700 C   0  0  0  0  0  0  0  0  0  0  0  0
   62.9150   33.2650   49.6190 C   0  0  0  0  0  0  0  0  0  0  0  0
   63.9730   33.2130   48.7100 C   0  0  0  0  0  0  0  0  0  0  0  0
   65.2680   32.9890   49.1610 O   0  0  0  0  0  0  0  0  0  0  0  0
   63.7310   33.3930   47.3460 C   0  0  0  0  0  0  0  0  0  0  0  0
   62.4310   33.6170   46.8830 C   0  0  0  0  0  0  0  0  0  0  0  0
   61.3490   33.6510   47.7850 C   0  0  0  0  0  0  0  0  0  0  0  0
   58.5210   31.7450   45.9010 C   0  0  0  0  0  0  0  0  0  0  0  0
   58.4770   26.7570   45.8030 C   0  0  0  0  0  0  0  0  0  0  0  0
   58.9130   25.4590   46.0290 C   0  0  0  0  0  0  0  0  0  0  0  0
   57.9830   24.4390   46.2130 C   0  0  0  0  0  0  0  0  0  0  0  0
   58.4100   23.2690   46.4180 O   0  0  0  0  0  0  0  0  0  0  0  0
   55.5107   23.4479   47.4446 H   0  0  0  0  0  0  0  0  0  0  0  0
   54.7033   23.8925   45.9028 H   0  0  0  0  0  0  0  0  0  0  0  0
   56.0422   22.6950   45.9028 H   0  0  0  0  0  0  0  0  0  0  0  0
   54.3590   26.7100   45.0890 H   0  0  0  0  0  0  0  0  0  0  0  0
   56.8685   30.1271   43.3810 H   0  0  0  0  0  0  0  0  0  0  0  0
   57.4701   32.2282   42.1833 H   0  0  0  0  0  0  0  0  0  0  0  0
   58.7344   34.0236   43.3559 H   0  0  0  0  0  0  0  0  0  0  0  0
   57.9624   34.1485   48.0319 H   0  0  0  0  0  0  0  0  0  0  0  0
   58.5161   33.8568   50.4427 H   0  0  0  0  0  0  0  0  0  0  0  0
   63.1089   33.1292   50.6932 H   0  0  0  0  0  0  0  0  0  0  0  0
   64.5676   33.3583   46.6326 H   0  0  0  0  0  0  0  0  0  0  0  0
   62.2518   33.7676   45.8082 H   0  0  0  0  0  0  0  0  0  0  0  0
   58.8392   31.5962   46.9434 H   0  0  0  0  0  0  0  0  0  0  0  0
   59.2121   27.5626   45.6589 H   0  0  0  0  0  0  0  0  0  0  0  0
   59.9898   25.2366   46.0627 H   0  0  0  0  0  0  0  0  0  0  0  0
  1  2  1  0
  2  3  1  0
  3  4  1  0
  3  5  2  0
  5  6  1  0
  6  7  2  0
  6  8  1  0
  8  9  1  0
  9 10  2  0
 10 11  1  0
 11 12  2  0
 12 13  1  0
 13 14  1  0
 14 15  2  0
 14 16  1  0
 16 17  2  0
 17 18  1  0
 18 19  2  0
 19 20  1  0
 20 21  2  0
 21 22  1  0
 22 23  1  0
 22 24  2  0
 24 25  1  0
 25 26  2  0
 13 27  2  0
  5 28  1  0
 28 29  2  0
 29 30  1  0
 30 31  2  0
 30  2  1  0
 27  9  1  0
 26 16  1  0
 26 20  1  0
  1 32  1  0
  1 33  1  0
  1 34  1  0
  4 35  1  0
 10 36  1  0
 11 37  1  0
 12 38  1  0
 17 39  1  0
 18 40  1  0
 21 41  1  0
 24 42  1  0
 25 43  1  0
 27 44  1  0
 28 45  1  0
 29 46  1  0
M  CHG  2   8  -1  23  -1
M  END
>  <UniqueID>  (59) 
57

>  <SMILES>  (59) 
Cn1c(O)c(C(=O)[N-]c2cccc(C(=O)c3ccnc4cc([O-])ccc34)c2)ccc1=O

>  <Energy>  (59) 
75.22518943604189

>  <Genealogy>  (59) 
Cn1c(O)c(C(=O)[N-]c2cccc(C(=O)c3ccnc4cc([O-])ccc34)c2)ccc1=O (protonated)
Cn1c(O)c(C(=O)[N-]c2cccc(C(=O)c3ccnc4cc([O-])ccc34)c2)ccc1=O (3D coordinates assigned)
Cn1c(O)c(C(=O)[N-]c2cccc(C(=O)c3ccnc4cc([O-])ccc34)c2)ccc1=O (optimized conformer: 75.22518943604189 kcal/mol)

>  <smiles>  (59) 
Cn1c(O)c(C(=O)Nc2cccc(C(=O)c3ccnc4cc(O)ccc34)c2)ccc1=O

>  <score_type>  (59) 
oracle

>  <origin>  (59) 
adg

>  <m_score__min__energy>  (59) 
-12.699999999999999

>  <m_primary>  (59) 
energy

$$$$
59:0
     RDKit          3D

 64 66  0  0  0  0  0  0  0  0999 V2000
   57.7060   21.2430   46.1610 H   0  0  0  0  0  0  0  0  0  0  0  0
   57.7780   21.8460   45.3490 O   0  0  0  0  0  0  0  0  0  0  0  0
   57.6050   23.2250   45.4470 C   0  0  0  0  0  0  0  0  0  0  0  0
   57.6580   24.0270   44.2990 C   0  0  0  0  0  0  0  0  0  0  0  0
   57.8493   23.5670   43.3183 H   0  0  0  0  0  0  0  0  0  0  0  0
   57.4690   25.4080   44.3940 C   0  0  0  0  0  0  0  0  0  0  0  0
   57.5176   26.0304   43.4883 H   0  0  0  0  0  0  0  0  0  0  0  0
   57.2180   26.0040   45.6360 C   0  0  0  0  0  0  0  0  0  0  0  0
   57.0550   27.4740   45.7110 C   0  0  0  0  0  0  0  0  0  0  0  0
   56.7574   27.9024   46.6794 H   0  0  0  0  0  0  0  0  0  0  0  0
   57.2420   28.3240   44.6900 C   0  0  0  0  0  0  0  0  0  0  0  0
   58.1724   28.2273   44.1112 H   0  0  0  0  0  0  0  0  0  0  0  0
   56.2920   29.3800   44.2850 C   0  0  0  0  0  0  0  0  0  0  0  0
   55.1880   29.5120   44.8830 O   0  0  0  0  0  0  0  0  0  0  0  0
   56.6420   30.3170   43.1700 C   0  0  0  0  0  0  0  0  0  0  0  0
   56.9068   29.7352   42.2748 H   0  0  0  0  0  0  0  0  0  0  0  0
   55.7765   30.9606   42.9540 H   0  0  0  0  0  0  0  0  0  0  0  0
   57.8110   31.1780   43.5690 C   0  0  0  0  0  0  0  0  0  0  0  0
   58.8350   30.6300   44.0570 O   0  0  0  0  0  0  0  0  0  0  0  0
   57.7690   32.6530   43.5110 C   0  0  0  0  0  0  0  0  0  0  0  0
   57.8541   33.1133   42.5156 H   0  0  0  0  0  0  0  0  0  0  0  0
   57.6370   33.4870   44.5550 C   0  0  0  0  0  0  0  0  0  0  0  0
   56.7899   34.1881   44.5262 H   0  0  0  0  0  0  0  0  0  0  0  0
   58.5210   33.5550   45.7420 C   0  0  0  0  0  0  0  0  0  0  0  0
   59.7530   34.2110   45.6260 C   0  0  0  0  0  0  0  0  0  0  0  0
   60.0548   34.6394   44.6588 H   0  0  0  0  0  0  0  0  0  0  0  0
   60.6010   34.3250   46.7300 C   0  0  0  0  0  0  0  0  0  0  0  0
   61.5740   34.8267   46.6225 H   0  0  0  0  0  0  0  0  0  0  0  0
   60.2210   33.8060   47.9690 C   0  0  0  0  0  0  0  0  0  0  0  0
   61.1010   33.9080   49.0430 O   0  0  0  0  0  0  0  0  0  0  0  0
   58.9650   33.1890   48.1260 C   0  0  0  0  0  0  0  0  0  0  0  0
   58.5880   32.5750   49.4600 C   0  0  0  0  0  0  0  0  0  0  0  0
   59.1968   33.0451   50.2464 H   0  0  0  0  0  0  0  0  0  0  0  0
   57.5128   32.7521   49.6106 H   0  0  0  0  0  0  0  0  0  0  0  0
   58.8080   31.0940   49.5080 C   0  0  0  0  0  0  0  0  0  0  0  0
   58.9930   30.5250   50.6180 O   0  0  0  0  0  0  0  0  0  0  0  0
   58.7850   30.3620   48.3110 O   0  0  0  0  0  0  0  0  0  0  0  0
   59.8090   29.4670   47.8600 C   0  0  1  0  0  0  0  0  0  0  0  0
   61.1580   30.0980   48.2400 C   0  0  0  0  0  0  0  0  0  0  0  0
   61.2476   30.1399   49.3355 H   0  0  0  0  0  0  0  0  0  0  0  0
   61.9765   29.4893   47.8282 H   0  0  0  0  0  0  0  0  0  0  0  0
   61.2154   31.1164   47.8282 H   0  0  0  0  0  0  0  0  0  0  0  0
   59.6900   28.1290   48.5650 C   0  0  0  0  0  0  0  0  0  0  0  0
   59.3175   28.1060   49.5997 H   0  0  0  0  0  0  0  0  0  0  0  0
   60.0220   26.9760   47.9730 C   0  0  0  0  0  0  0  0  0  0  0  0
   59.9638   26.0394   48.5470 H   0  0  0  0  0  0  0  0  0  0  0  0
   60.4640   26.9350   46.5680 C   0  0  0  0  0  0  0  0  0  0  0  0
   60.7500   25.8290   46.0380 O   0  0  0  0  0  0  0  0  0  0  0  0
   60.6310   28.2030   45.7810 C   0  0  0  0  0  0  0  0  0  0  0  0
   61.6751   28.5406   45.8580 H   0  0  0  0  0  0  0  0  0  0  0  0
   60.3700   28.0039   44.7311 H   0  0  0  0  0  0  0  0  0  0  0  0
   59.7050   29.3030   46.3190 C   0  0  0  0  0  0  0  0  0  0  0  0
   59.9771   30.2569   45.8436 H   0  0  0  0  0  0  0  0  0  0  0  0
   58.6703   29.0140   46.0827 H   0  0  0  0  0  0  0  0  0  0  0  0
   58.1240   33.0620   46.9980 C   0  0  0  0  0  0  0  0  0  0  0  0
   57.1454   32.5709   47.1034 H   0  0  0  0  0  0  0  0  0  0  0  0
   57.2110   25.2040   46.7920 C   0  0  0  0  0  0  0  0  0  0  0  0
   57.0752   25.6729   47.7777 H   0  0  0  0  0  0  0  0  0  0  0  0
   57.3760   23.8090   46.7010 C   0  0  0  0  0  0  0  0  0  0  0  0
   57.3130   22.9760   47.8280 O   0  0  0  0  0  0  0  0  0  0  0  0
   56.1020   22.5840   48.4690 C   0  0  0  0  0  0  0  0  0  0  0  0
   56.2342   22.6268   49.5602 H   0  0  0  0  0  0  0  0  0  0  0  0
   55.2919   23.2658   48.1708 H   0  0  0  0  0  0  0  0  0  0  0  0
   55.8451   21.5568   48.1708 H   0  0  0  0  0  0  0  0  0  0  0  0
  1  2  1  0
  2  3  1  0
  3  4  2  0
  4  5  1  0
  4  6  1  0
  6  7  1  0
  6  8  2  0
  8  9  1  0
  9 10  1  0
  9 11  2  0
 11 12  1  0
 11 13  1  0
 13 14  2  0
 13 15  1  0
 15 16  1  0
 15 17  1  0
 15 18  1  0
 18 19  2  0
 18 20  1  0
 20 21  1  0
 20 22  2  3
 22 23  1  0
 22 24  1  0
 24 25  2  0
 25 26  1  0
 25 27  1  0
 27 28  1  0
 27 29  2  0
 29 30  1  0
 29 31  1  0
 31 32  1  0
 32 33  1  0
 32 34  1  0
 32 35  1  0
 35 36  2  0
 35 37  1  0
 38 37  1  1
 38 39  1  0
 39 40  1  0
 39 41  1  0
 39 42  1  0
 38 43  1  0
 43 44  1  0
 43 45  2  0
 45 46  1  0
 45 47  1  0
 47 48  2  0
 47 49  1  0
 49 50  1  0
 49 51  1  0
 49 52  1  0
 52 53  1  0
 52 54  1  0
 31 55  2  0
 55 56  1  0
  8 57  1  0
 57 58  1  0
 57 59  2  0
 59 60  1  0
 60 61  1  0
 61 62  1  0
 61 63  1  0
 61 64  1  0
 59  3  1  0
 55 24  1  0
 52 38  1  0
M  CHG  1  30  -1
M  END
>  <UniqueID>  (60) 
58

>  <SMILES>  (60) 
COc1cc(/C=C\C(=O)CC(=O)C=Cc2ccc([O-])c(CC(=O)O[C@@]3(C)C=CC(=O)CC3)c2)ccc1O

>  <Energy>  (60) 
75.97411982781908

>  <Genealogy>  (60) 
COc1cc(C=CC(=O)CC(=O)C=Cc2ccc([O-])c(CC(=O)OC3(C)C=CC(=O)CC3)c2)ccc1O (protonated)
COc1cc(C=CC(=O)CC(=O)C=Cc2ccc([O-])c(CC(=O)O[C@@]3(C)C=CC(=O)CC3)c2)ccc1O (chirality)
COc1cc(/C=C\C(=O)CC(=O)C=Cc2ccc([O-])c(CC(=O)O[C@@]3(C)C=CC(=O)CC3)c2)ccc1O (cis-trans isomerization)
COc1cc(/C=C\C(=O)CC(=O)C=Cc2ccc([O-])c(CC(=O)O[C@@]3(C)C=CC(=O)CC3)c2)ccc1O (3D coordinates assigned)
COc1cc(/C=C\C(=O)CC(=O)C=Cc2ccc([O-])c(CC(=O)O[C@@]3(C)C=CC(=O)CC3)c2)ccc1O (nonaromatic ring conformer: 75.97411982781908 kcal/mol)

>  <smiles>  (60) 
COc1cc(C=CC(=O)CC(=O)C=Cc2ccc(O)c(CC(=O)OC3(C)C=CC(=O)CC3)c2)ccc1O

>  <score_type>  (60) 
oracle

>  <origin>  (60) 
adg

>  <m_score__min__energy>  (60) 
-12.59

>  <m_primary>  (60) 
energy

$$$$
60:0
     RDKit          3D

 52 55  0  0  0  0  0  0  0  0999 V2000
   56.6951   31.6670   52.1913 H   0  0  0  0  0  0  0  0  0  0  0  0
   55.6050   31.5850   52.3140 C   0  0  0  0  0  0  0  0  0  0  0  0
   54.9568   32.4351   52.0546 H   0  0  0  0  0  0  0  0  0  0  0  0
   55.0660   30.4480   52.7800 C   0  0  0  0  0  0  0  0  0  0  0  0
   53.7060   30.1970   52.9880 C   0  0  0  0  0  0  0  0  0  0  0  0
   52.6760   31.0310   52.7480 C   0  0  0  0  0  0  0  0  0  0  0  0
   52.3217   31.6647   53.5744 H   0  0  0  0  0  0  0  0  0  0  0  0
   51.9940   31.1470   51.4460 C   0  0  0  0  0  0  0  0  0  0  0  0
   52.0980   30.2230   50.4750 N   0  0  0  0  0  0  0  0  0  0  0  0
   51.4010   30.7620   49.4520 C   0  0  0  0  0  0  0  0  0  0  0  0
   51.2540   30.1760   48.3480 O   0  0  0  0  0  0  0  0  0  0  0  0
   50.8820   31.9830   49.7010 N   0  0  0  0  0  0  0  0  0  0  0  0
   51.2770   32.2190   50.9630 C   0  0  0  0  0  0  0  0  0  0  0  0
   51.0250   33.4090   51.6350 O   0  0  0  0  0  0  0  0  0  0  0  0
   53.6160   28.8840   53.4340 C   0  0  0  0  0  0  0  0  0  0  0  0
   52.6952   28.3373   53.6856 H   0  0  0  0  0  0  0  0  0  0  0  0
   54.9070   28.3990   53.5000 C   0  0  0  0  0  0  0  0  0  0  0  0
   55.2730   27.0020   53.9010 C   0  0  0  0  0  0  0  0  0  0  0  0
   55.2922   26.9287   54.9984 H   0  0  0  0  0  0  0  0  0  0  0  0
   54.5289   26.2984   53.4995 H   0  0  0  0  0  0  0  0  0  0  0  0
   56.2665   26.7536   53.4995 H   0  0  0  0  0  0  0  0  0  0  0  0
   55.7870   29.3450   53.1000 N   0  0  0  0  0  0  0  0  0  0  0  0
   57.2140   29.1830   53.0260 C   0  0  0  0  0  0  0  0  0  0  0  0
   57.9140   28.5840   54.0790 C   0  0  0  0  0  0  0  0  0  0  0  0
   57.3712   28.2291   54.9675 H   0  0  0  0  0  0  0  0  0  0  0  0
   59.2630   28.4400   54.0060 N   0  0  0  0  0  0  0  0  0  0  0  0
   59.9860   28.8680   52.9320 C   0  0  0  0  0  0  0  0  0  0  0  0
   61.4180   28.6850   52.9160 N   0  0  0  0  0  0  0  0  0  0  0  0
   62.1790   28.7530   51.6600 C   0  0  0  0  0  0  0  0  0  0  0  0
   62.1116   27.7840   51.1439 H   0  0  0  0  0  0  0  0  0  0  0  0
   61.7546   29.5500   51.0317 H   0  0  0  0  0  0  0  0  0  0  0  0
   63.6540   29.0750   51.9370 C   0  0  0  0  0  0  0  0  0  0  0  0
   64.2055   29.0391   50.9859 H   0  0  0  0  0  0  0  0  0  0  0  0
   63.6928   30.0740   52.3958 H   0  0  0  0  0  0  0  0  0  0  0  0
   64.2850   28.1250   52.8860 N   0  0  0  0  0  0  0  0  0  0  0  0
   64.9690   27.0230   52.1730 C   0  0  0  0  0  0  0  0  0  0  0  0
   65.2167   27.3554   51.1541 H   0  0  0  0  0  0  0  0  0  0  0  0
   65.8804   26.7628   52.7313 H   0  0  0  0  0  0  0  0  0  0  0  0
   64.0850   25.7790   52.0890 C   0  0  0  0  0  0  0  0  0  0  0  0
   63.8399   25.4341   53.1044 H   0  0  0  0  0  0  0  0  0  0  0  0
   63.1573   26.0240   51.5511 H   0  0  0  0  0  0  0  0  0  0  0  0
   64.6216   24.9835   51.5511 H   0  0  0  0  0  0  0  0  0  0  0  0
   63.3690   27.6150   53.9430 C   0  0  0  0  0  0  0  0  0  0  0  0
   63.0113   26.6185   53.6447 H   0  0  0  0  0  0  0  0  0  0  0  0
   63.9392   27.5848   54.8832 H   0  0  0  0  0  0  0  0  0  0  0  0
   62.1540   28.5190   54.1760 C   0  0  0  0  0  0  0  0  0  0  0  0
   61.4948   28.0606   54.9279 H   0  0  0  0  0  0  0  0  0  0  0  0
   62.4922   29.5022   54.5351 H   0  0  0  0  0  0  0  0  0  0  0  0
   59.3140   29.4760   51.8570 C   0  0  0  0  0  0  0  0  0  0  0  0
   59.8776   29.8253   50.9793 H   0  0  0  0  0  0  0  0  0  0  0  0
   57.9290   29.6340   51.9090 C   0  0  0  0  0  0  0  0  0  0  0  0
   57.2820   30.2350   50.8780 F   0  0  0  0  0  0  0  0  0  0  0  0
  1  2  1  0
  2  3  1  0
  2  4  2  0
  4  5  1  0
  5  6  2  0
  6  7  1  0
  6  8  1  0
  8  9  1  0
  9 10  1  0
 10 11  2  0
 10 12  1  0
 12 13  1  0
 13 14  1  0
  5 15  1  0
 15 16  1  0
 15 17  2  0
 17 18  1  0
 18 19  1  0
 18 20  1  0
 18 21  1  0
 17 22  1  0
 22 23  1  0
 23 24  2  0
 24 25  1  0
 24 26  1  0
 26 27  2  0
 27 28  1  0
 28 29  1  0
 29 30  1  0
 29 31  1  0
 29 32  1  0
 32 33  1  0
 32 34  1  0
 32 35  1  0
 35 36  1  0
 36 37  1  0
 36 38  1  0
 36 39  1  0
 39 40  1  0
 39 41  1  0
 39 42  1  0
 35 43  1  0
 43 44  1  0
 43 45  1  0
 43 46  1  0
 46 47  1  0
 46 48  1  0
 27 49  1  0
 49 50  1  0
 49 51  2  0
 51 52  1  0
 22  4  1  0
 51 23  1  0
 13  8  2  0
 46 28  1  0
M  CHG  3   9  -1  12  -1  14  -1
M  END
>  <UniqueID>  (61) 
59

>  <SMILES>  (61) 
C=c1/c(=C/c2[n-]c(=O)[n-]c2[O-])cc(C)n1-c1cnc(N2CCN(CC)CC2)cc1F

>  <Energy>  (61) 
134.71709352096562

>  <Genealogy>  (61) 
C=c1c(=Cc2[n-]c(=O)[n-]c2[O-])cc(C)n1-c1cnc(N2CCN(CC)CC2)cc1F (protonated)
C=c1/c(=C/c2[n-]c(=O)[n-]c2[O-])cc(C)n1-c1cnc(N2CCN(CC)CC2)cc1F (cis-trans isomerization)
C=c1/c(=C/c2[n-]c(=O)[n-]c2[O-])cc(C)n1-c1cnc(N2CCN(CC)CC2)cc1F (3D coordinates assigned)
C=c1/c(=C/c2[n-]c(=O)[n-]c2[O-])cc(C)n1-c1cnc(N2CCN(CC)CC2)cc1F (nonaromatic ring conformer: 134.71709352096562 kcal/mol)

>  <smiles>  (61) 
C=c1c(=Cc2[nH]c(=O)[nH]c2O)cc(C)n1-c1cnc(N2CCN(CC)CC2)cc1F

>  <score_type>  (61) 
oracle

>  <origin>  (61) 
adg

>  <m_score__min__energy>  (61) 
-15.369999999999999

>  <m_primary>  (61) 
energy

$$$$
61:0
     RDKit          3D

 61 65  0  0  0  0  0  0  0  0999 V2000
   61.4360   28.4340   50.4570 C   0  0  0  0  0  0  0  0  0  0  0  0
   60.3820   28.2260   49.4630 N   0  0  0  0  0  0  0  0  0  0  0  0
   60.3550   27.2470   48.5360 C   0  0  0  0  0  0  0  0  0  0  0  0
   59.2080   27.3660   47.7750 C   0  0  0  0  0  0  0  0  0  0  0  0
   58.7990   26.4990   46.6250 C   0  0  0  0  0  0  0  0  0  0  0  0
   57.4620   26.9300   46.0650 C   0  0  0  0  0  0  0  0  0  0  0  0
   56.4410   26.6250   46.6680 O   0  0  0  0  0  0  0  0  0  0  0  0
   57.3790   27.6540   44.8080 N   0  0  2  0  0  0  0  0  0  0  0  0
   58.7000   27.7900   44.1700 C   0  0  0  0  0  0  0  0  0  0  0  0
   59.5670   28.7950   44.8650 C   0  0  0  0  0  0  0  0  0  0  0  0
   60.8220   28.6540   44.8250 O   0  0  0  0  0  0  0  0  0  0  0  0
   58.9710   29.9330   45.5220 N   0  0  0  0  0  0  0  0  0  0  0  0
   59.8040   30.9800   46.1320 C   0  0  0  0  0  0  0  0  0  0  0  0
   59.3040   32.3630   45.7720 C   0  0  0  0  0  0  0  0  0  0  0  0
   60.0660   33.4810   46.1470 C   0  0  0  0  0  0  0  0  0  0  0  0
   59.6200   34.7720   45.8560 C   0  0  0  0  0  0  0  0  0  0  0  0
   58.4120   34.9620   45.1840 C   0  0  0  0  0  0  0  0  0  0  0  0
   57.6370   33.8600   44.8130 C   0  0  0  0  0  0  0  0  0  0  0  0
   58.0620   32.5570   45.1200 C   0  0  0  0  0  0  0  0  0  0  0  0
   57.2140   31.3860   44.6840 C   0  0  0  0  0  0  0  0  0  0  0  0
   57.5170   30.1410   45.5250 C   0  0  1  0  0  0  0  0  0  0  0  0
   56.7430   28.9390   45.0160 C   0  0  0  0  0  0  0  0  0  0  0  0
   55.5320   29.0390   44.8680 O   0  0  0  0  0  0  0  0  0  0  0  0
   58.5190   28.4680   48.2420 C   0  0  0  0  0  0  0  0  0  0  0  0
   59.2620   28.9660   49.2980 C   0  0  0  0  0  0  0  0  0  0  0  0
   58.9130   30.1590   50.0970 C   0  0  0  0  0  0  0  0  0  0  0  0
   57.7320   30.2900   50.5190 O   0  0  0  0  0  0  0  0  0  0  0  0
   59.8690   31.1850   50.3960 N   0  0  0  0  0  0  0  0  0  0  0  0
   59.9600   32.4910   49.7410 C   0  0  0  0  0  0  0  0  0  0  0  0
   61.2370   32.6190   48.9520 C   0  0  0  0  0  0  0  0  0  0  0  0
   61.8760   33.8660   48.8400 C   0  0  0  0  0  0  0  0  0  0  0  0
   63.0960   33.9740   48.1680 C   0  0  0  0  0  0  0  0  0  0  0  0
   63.6930   32.8400   47.6130 C   0  0  0  0  0  0  0  0  0  0  0  0
   63.0760   31.5910   47.7400 C   0  0  0  0  0  0  0  0  0  0  0  0
   61.8560   31.4780   48.4110 C   0  0  0  0  0  0  0  0  0  0  0  0
   61.0090   28.3497   51.4673 H   0  0  0  0  0  0  0  0  0  0  0  0
   62.2194   27.6731   50.3254 H   0  0  0  0  0  0  0  0  0  0  0  0
   61.8717   29.4354   50.3254 H   0  0  0  0  0  0  0  0  0  0  0  0
   61.1264   26.4737   48.4059 H   0  0  0  0  0  0  0  0  0  0  0  0
   59.5595   26.5702   45.8335 H   0  0  0  0  0  0  0  0  0  0  0  0
   58.7092   25.4631   46.9839 H   0  0  0  0  0  0  0  0  0  0  0  0
   56.7810   27.1110   44.1390 H   0  0  0  0  0  0  0  0  0  0  0  0
   59.2049   26.8130   44.1906 H   0  0  0  0  0  0  0  0  0  0  0  0
   58.5411   28.1388   43.1389 H   0  0  0  0  0  0  0  0  0  0  0  0
   59.7804   30.8643   47.2256 H   0  0  0  0  0  0  0  0  0  0  0  0
   60.8300   30.8725   45.7503 H   0  0  0  0  0  0  0  0  0  0  0  0
   61.0212   33.3390   46.6738 H   0  0  0  0  0  0  0  0  0  0  0  0
   60.2227   35.6415   46.1574 H   0  0  0  0  0  0  0  0  0  0  0  0
   58.0695   35.9799   44.9461 H   0  0  0  0  0  0  0  0  0  0  0  0
   56.6886   34.0139   44.2774 H   0  0  0  0  0  0  0  0  0  0  0  0
   56.1521   31.6484   44.8006 H   0  0  0  0  0  0  0  0  0  0  0  0
   57.4438   31.1611   43.6320 H   0  0  0  0  0  0  0  0  0  0  0  0
   57.1860   30.2834   46.5643 H   0  0  0  0  0  0  0  0  0  0  0  0
   57.5713   28.8689   47.8532 H   0  0  0  0  0  0  0  0  0  0  0  0
   59.1044   32.6109   49.0601 H   0  0  0  0  0  0  0  0  0  0  0  0
   59.9514   33.2704   50.5172 H   0  0  0  0  0  0  0  0  0  0  0  0
   61.4136   34.7603   49.2832 H   0  0  0  0  0  0  0  0  0  0  0  0
   63.5872   34.9539   48.0759 H   0  0  0  0  0  0  0  0  0  0  0  0
   64.6488   32.9290   47.0758 H   0  0  0  0  0  0  0  0  0  0  0  0
   63.5520   30.6969   47.3111 H   0  0  0  0  0  0  0  0  0  0  0  0
   61.3778   30.4930   48.5166 H   0  0  0  0  0  0  0  0  0  0  0  0
  1  2  1  0
  2  3  1  0
  3  4  2  0
  4  5  1  0
  5  6  1  0
  6  7  2  0
  6  8  1  0
  8  9  1  0
  9 10  1  0
 10 11  2  0
 10 12  1  0
 12 13  1  0
 13 14  1  0
 14 15  2  0
 15 16  1  0
 16 17  2  0
 17 18  1  0
 18 19  2  0
 19 20  1  0
 20 21  1  0
 21 22  1  0
 22 23  2  0
  4 24  1  0
 24 25  2  0
 25 26  1  0
 26 27  2  0
 26 28  1  0
 28 29  1  0
 29 30  1  0
 30 31  2  0
 31 32  1  0
 32 33  2  0
 33 34  1  0
 34 35  2  0
 25  2  1  0
 35 30  1  0
 22  8  1  0
 21 12  1  0
 19 14  1  0
  1 36  1  0
  1 37  1  0
  1 38  1  0
  3 39  1  0
  5 40  1  0
  5 41  1  0
  8 42  1  6
  9 43  1  0
  9 44  1  0
 13 45  1  0
 13 46  1  0
 15 47  1  0
 16 48  1  0
 17 49  1  0
 18 50  1  0
 20 51  1  0
 20 52  1  0
 21 53  1  1
 24 54  1  0
 29 55  1  0
 29 56  1  0
 31 57  1  0
 32 58  1  0
 33 59  1  0
 34 60  1  0
 35 61  1  0
M  CHG  2   8   1  28  -1
M  END
>  <UniqueID>  (62) 
60

>  <SMILES>  (62) 
Cn1cc(CC(=O)[N@@H+]2CC(=O)N3Cc4ccccc4C[C@H]3C2=O)cc1C(=O)[N-]Cc1ccccc1

>  <Energy>  (62) 
102.55669847317212

>  <Genealogy>  (62) 
Cn1cc(CC(=O)[NH+]2CC(=O)N3Cc4ccccc4CC3C2=O)cc1C(=O)[N-]Cc1ccccc1 (protonated)
Cn1cc(CC(=O)[N@@H+]2CC(=O)N3Cc4ccccc4C[C@H]3C2=O)cc1C(=O)[N-]Cc1ccccc1 (chirality)
Cn1cc(CC(=O)[N@@H+]2CC(=O)N3Cc4ccccc4C[C@H]3C2=O)cc1C(=O)[N-]Cc1ccccc1 (3D coordinates assigned)
Cn1cc(CC(=O)[N@@H+]2CC(=O)N3Cc4ccccc4C[C@H]3C2=O)cc1C(=O)[N-]Cc1ccccc1 (nonaromatic ring conformer: 102.55669847317212 kcal/mol)

>  <smiles>  (62) 
Cn1cc(CC(=O)N2CC(=O)N3Cc4ccccc4CC3C2=O)cc1C(=O)NCc1ccccc1

>  <score_type>  (62) 
oracle

>  <origin>  (62) 
adg

>  <m_score__min__energy>  (62) 
-9.9900000000000002

>  <m_primary>  (62) 
energy

$$$$
62:0
     RDKit          3D

 39 41  0  0  0  0  0  0  0  0999 V2000
   57.6270   33.1740   52.0520 O   0  0  0  0  0  0  0  0  0  0  0  0
   57.5090   32.1960   51.2680 C   0  0  0  0  0  0  0  0  0  0  0  0
   56.7580   30.9730   51.7260 C   0  0  0  0  0  0  0  0  0  0  0  0
   55.4060   31.0000   51.2710 O   0  0  0  0  0  0  0  0  0  0  0  0
   54.3330   30.4860   52.0090 C   0  0  0  0  0  0  0  0  0  0  0  0
   54.4960   29.4820   52.7560 O   0  0  0  0  0  0  0  0  0  0  0  0
   53.0130   31.1320   51.9060 C   0  0  0  0  0  0  0  0  0  0  0  0
   52.1680   31.2510   53.0190 C   0  0  0  0  0  0  0  0  0  0  0  0
   50.9300   31.8730   52.8530 C   0  0  0  0  0  0  0  0  0  0  0  0
   50.1460   31.9960   53.8310 O   0  0  0  0  0  0  0  0  0  0  0  0
   50.5670   32.3460   51.6330 N   0  0  0  0  0  0  0  0  0  0  0  0
   51.3950   32.2240   50.5630 C   0  0  0  0  0  0  0  0  0  0  0  0
   51.0410   32.6680   49.4400 O   0  0  0  0  0  0  0  0  0  0  0  0
   52.6040   31.6210   50.7040 N   0  0  0  0  0  0  0  0  0  0  0  0
   58.2380   32.2110   50.0350 N   0  0  0  0  0  0  0  0  0  0  0  0
   59.4880   32.8730   49.7970 C   0  0  0  0  0  0  0  0  0  0  0  0
   60.3980   33.0710   50.8480 C   0  0  0  0  0  0  0  0  0  0  0  0
   61.6130   33.7200   50.6210 C   0  0  0  0  0  0  0  0  0  0  0  0
   61.9400   34.1640   49.3400 C   0  0  0  0  0  0  0  0  0  0  0  0
   61.0590   33.9450   48.2790 C   0  0  0  0  0  0  0  0  0  0  0  0
   59.8360   33.2840   48.4900 C   0  0  0  0  0  0  0  0  0  0  0  0
   58.9270   33.0560   47.3400 C   0  0  0  0  0  0  0  0  0  0  0  0
   58.2080   34.1210   46.7730 C   0  0  0  0  0  0  0  0  0  0  0  0
   57.3460   33.8980   45.6940 C   0  0  0  0  0  0  0  0  0  0  0  0
   57.1920   32.6090   45.1780 C   0  0  0  0  0  0  0  0  0  0  0  0
   57.8950   31.5410   45.7400 C   0  0  0  0  0  0  0  0  0  0  0  0
   58.7570   31.7610   46.8190 C   0  0  0  0  0  0  0  0  0  0  0  0
   57.2538   30.0762   51.3260 H   0  0  0  0  0  0  0  0  0  0  0  0
   56.7562   30.9557   52.8259 H   0  0  0  0  0  0  0  0  0  0  0  0
   52.4745   30.8625   54.0014 H   0  0  0  0  0  0  0  0  0  0  0  0
   60.1516   32.7119   51.8581 H   0  0  0  0  0  0  0  0  0  0  0  0
   62.3134   33.8814   51.4537 H   0  0  0  0  0  0  0  0  0  0  0  0
   62.8920   34.6867   49.1654 H   0  0  0  0  0  0  0  0  0  0  0  0
   61.3240   34.2925   47.2695 H   0  0  0  0  0  0  0  0  0  0  0  0
   58.3234   35.1365   47.1798 H   0  0  0  0  0  0  0  0  0  0  0  0
   56.7895   34.7376   45.2519 H   0  0  0  0  0  0  0  0  0  0  0  0
   56.5161   32.4349   44.3278 H   0  0  0  0  0  0  0  0  0  0  0  0
   57.7706   30.5264   45.3337 H   0  0  0  0  0  0  0  0  0  0  0  0
   59.3049   30.9166   47.2625 H   0  0  0  0  0  0  0  0  0  0  0  0
  1  2  2  0
  2  3  1  0
  3  4  1  0
  4  5  1  0
  5  6  2  0
  5  7  1  0
  7  8  2  0
  8  9  1  0
  9 10  2  0
  9 11  1  0
 11 12  1  0
 12 13  2  0
 12 14  1  0
  2 15  1  0
 15 16  1  0
 16 17  2  0
 17 18  1  0
 18 19  2  0
 19 20  1  0
 20 21  2  0
 21 22  1  0
 22 23  2  0
 23 24  1  0
 24 25  2  0
 25 26  1  0
 26 27  2  0
 14  7  1  0
 21 16  1  0
 27 22  1  0
  3 28  1  0
  3 29  1  0
  8 30  1  0
 17 31  1  0
 18 32  1  0
 19 33  1  0
 20 34  1  0
 23 35  1  0
 24 36  1  0
 25 37  1  0
 26 38  1  0
 27 39  1  0
M  CHG  3  11  -1  14  -1  15  -1
M  END
>  <UniqueID>  (63) 
61

>  <SMILES>  (63) 
O=C(COC(=O)c1cc(=O)[n-]c(=O)[n-]1)[N-]c1ccccc1-c1ccccc1

>  <Energy>  (63) 
53.95184695365666

>  <Genealogy>  (63) 
O=C(COC(=O)c1cc(=O)[n-]c(=O)[n-]1)[N-]c1ccccc1-c1ccccc1 (protonated)
O=C(COC(=O)c1cc(=O)[n-]c(=O)[n-]1)[N-]c1ccccc1-c1ccccc1 (3D coordinates assigned)
O=C(COC(=O)c1cc(=O)[n-]c(=O)[n-]1)[N-]c1ccccc1-c1ccccc1 (optimized conformer: 53.95184695365666 kcal/mol)

>  <smiles>  (63) 
O=C(COC(=O)c1cc(=O)[nH]c(=O)[nH]1)Nc1ccccc1-c1ccccc1

>  <score_type>  (63) 
oracle

>  <origin>  (63) 
adg

>  <m_score__min__energy>  (63) 
-13.859999999999999

>  <m_primary>  (63) 
energy

$$$$
63:0
     RDKit          3D

 37 39  0  0  0  0  0  0  0  0999 V2000
   55.5630   29.4040   44.8650 O   0  0  0  0  0  0  0  0  0  0  0  0
   56.7470   29.2810   45.2780 C   0  0  0  0  0  0  0  0  0  0  0  0
   57.4460   27.9650   45.1360 C   0  0  0  0  0  0  0  0  0  0  0  0
   57.1080   27.0210   46.2980 C   0  0  0  0  0  0  0  0  0  0  0  0
   56.7040   25.6870   45.8100 N   0  0  0  0  0  0  0  0  0  0  0  0
   57.6570   24.7470   45.4920 C   0  0  0  0  0  0  0  0  0  0  0  0
   59.0130   25.0270   45.6360 O   0  0  0  0  0  0  0  0  0  0  0  0
   57.2820   23.4900   45.0110 C   0  0  0  0  0  0  0  0  0  0  0  0
   55.9310   23.1900   44.8470 C   0  0  0  0  0  0  0  0  0  0  0  0
   55.5810   22.0630   44.4090 O   0  0  0  0  0  0  0  0  0  0  0  0
   54.9700   24.1480   45.1640 C   0  0  0  0  0  0  0  0  0  0  0  0
   55.3720   25.3980   45.6440 C   0  0  0  0  0  0  0  0  0  0  0  0
   54.3950   26.3410   45.9500 O   0  0  0  0  0  0  0  0  0  0  0  0
   57.3960   30.3410   45.9900 N   0  0  0  0  0  0  0  0  0  0  0  0
   57.8600   31.5900   45.4530 C   0  0  0  0  0  0  0  0  0  0  0  0
   57.7610   31.8720   44.0780 C   0  0  0  0  0  0  0  0  0  0  0  0
   58.2130   33.0900   43.5670 C   0  0  0  0  0  0  0  0  0  0  0  0
   58.7810   34.0420   44.4140 C   0  0  0  0  0  0  0  0  0  0  0  0
   58.9160   33.7760   45.7820 C   0  0  0  0  0  0  0  0  0  0  0  0
   59.4960   34.7290   46.6360 C   0  0  0  0  0  0  0  0  0  0  0  0
   59.6330   34.4610   47.9990 C   0  0  0  0  0  0  0  0  0  0  0  0
   59.1990   33.2420   48.5230 C   0  0  0  0  0  0  0  0  0  0  0  0
   58.6200   32.2830   47.6870 C   0  0  0  0  0  0  0  0  0  0  0  0
   58.4650   32.5370   46.3100 C   0  0  0  0  0  0  0  0  0  0  0  0
   57.1349   27.4950   44.1914 H   0  0  0  0  0  0  0  0  0  0  0  0
   58.5307   28.1475   45.1436 H   0  0  0  0  0  0  0  0  0  0  0  0
   57.9941   26.9134   46.9408 H   0  0  0  0  0  0  0  0  0  0  0  0
   56.2670   27.4526   46.8606 H   0  0  0  0  0  0  0  0  0  0  0  0
   58.0489   22.7413   44.7631 H   0  0  0  0  0  0  0  0  0  0  0  0
   53.9010   23.9220   45.0373 H   0  0  0  0  0  0  0  0  0  0  0  0
   57.3232   31.1254   43.3991 H   0  0  0  0  0  0  0  0  0  0  0  0
   58.1208   33.3001   42.4912 H   0  0  0  0  0  0  0  0  0  0  0  0
   59.1237   35.0043   44.0059 H   0  0  0  0  0  0  0  0  0  0  0  0
   59.8435   35.6900   46.2289 H   0  0  0  0  0  0  0  0  0  0  0  0
   60.0846   35.2131   48.6627 H   0  0  0  0  0  0  0  0  0  0  0  0
   59.3131   33.0355   49.5974 H   0  0  0  0  0  0  0  0  0  0  0  0
   58.2832   31.3238   48.1070 H   0  0  0  0  0  0  0  0  0  0  0  0
  1  2  2  0
  2  3  1  0
  3  4  1  0
  4  5  1  0
  5  6  1  0
  6  7  1  0
  6  8  2  0
  8  9  1  0
  9 10  2  0
  9 11  1  0
 11 12  2  0
 12 13  1  0
  2 14  1  0
 14 15  1  0
 15 16  2  0
 16 17  1  0
 17 18  2  0
 18 19  1  0
 19 20  2  0
 20 21  1  0
 21 22  2  0
 22 23  1  0
 23 24  2  0
 12  5  1  0
 24 15  1  0
 24 19  1  0
  3 25  1  0
  3 26  1  0
  4 27  1  0
  4 28  1  0
  8 29  1  0
 11 30  1  0
 16 31  1  0
 17 32  1  0
 18 33  1  0
 20 34  1  0
 21 35  1  0
 22 36  1  0
 23 37  1  0
M  CHG  3   7  -1  13  -1  14  -1
M  END
>  <UniqueID>  (64) 
62

>  <SMILES>  (64) 
O=C(CCn1c([O-])cc(=O)cc1[O-])[N-]c1cccc2ccccc12

>  <Energy>  (64) 
45.06269729719827

>  <Genealogy>  (64) 
O=C(CCn1c([O-])cc(=O)cc1[O-])[N-]c1cccc2ccccc12 (protonated)
O=C(CCn1c([O-])cc(=O)cc1[O-])[N-]c1cccc2ccccc12 (3D coordinates assigned)
O=C(CCn1c([O-])cc(=O)cc1[O-])[N-]c1cccc2ccccc12 (optimized conformer: 45.06269729719827 kcal/mol)

>  <smiles>  (64) 
O=C(CCn1c(O)cc(=O)cc1O)Nc1cccc2ccccc12

>  <score_type>  (64) 
oracle

>  <origin>  (64) 
adg

>  <m_score__min__energy>  (64) 
-14.949999999999999

>  <m_primary>  (64) 
energy

$$$$
64:0
     RDKit          3D

 51 54  0  0  0  0  0  0  0  0999 V2000
   59.3060   34.5770   44.7660 C   0  0  0  0  0  0  0  0  0  0  0  0
   58.9180   33.4750   45.4240 C   0  0  0  0  0  0  0  0  0  0  0  0
   58.1820   32.4020   44.7030 C   0  0  0  0  0  0  0  0  0  0  0  0
   57.6940   31.2850   45.4070 C   0  0  0  0  0  0  0  0  0  0  0  0
   57.0130   30.2660   44.7340 C   0  0  0  0  0  0  0  0  0  0  0  0
   56.8150   30.3480   43.3520 C   0  0  0  0  0  0  0  0  0  0  0  0
   57.2950   31.4520   42.6430 C   0  0  0  0  0  0  0  0  0  0  0  0
   57.9750   32.4740   43.3110 C   0  0  0  0  0  0  0  0  0  0  0  0
   59.2260   33.3190   46.8730 C   0  0  0  0  0  0  0  0  0  0  0  0
   59.7140   32.1040   47.3870 C   0  0  0  0  0  0  0  0  0  0  0  0
   59.9990   31.9750   48.7490 C   0  0  0  0  0  0  0  0  0  0  0  0
   59.8160   33.0530   49.6220 C   0  0  0  0  0  0  0  0  0  0  0  0
   60.1300   32.8660   50.9790 O   0  0  0  0  0  0  0  0  0  0  0  0
   59.1940   32.9100   52.0570 C   0  0  0  0  0  0  0  0  0  0  0  0
   58.0910   31.9270   51.8260 C   0  0  0  0  0  0  0  0  0  0  0  0
   56.8190   31.9890   52.3540 C   0  0  0  0  0  0  0  0  0  0  0  0
   56.1880   30.8880   51.8050 C   0  0  0  0  0  0  0  0  0  0  0  0
   54.7930   30.4640   52.0170 C   0  0  0  0  0  0  0  0  0  0  0  0
   54.5650   29.2630   52.3300 O   0  0  0  0  0  0  0  0  0  0  0  0
   53.7050   31.3950   51.8860 N   0  0  0  0  0  0  0  0  0  0  0  0
   52.3010   30.9780   51.9460 C   0  0  1  0  0  0  0  0  0  0  0  0
   51.5340   31.8590   52.9320 C   0  0  0  0  0  0  0  0  0  0  0  0
   51.6880   31.0680   50.5800 C   0  0  0  0  0  0  0  0  0  0  0  0
   51.0290   32.1520   50.1220 N   0  0  0  0  0  0  0  0  0  0  0  0
   50.6370   31.7430   48.9000 C   0  0  0  0  0  0  0  0  0  0  0  0
   51.0270   30.4840   48.6330 N   0  0  0  0  0  0  0  0  0  0  0  0
   51.6860   30.0540   49.6950 N   0  0  0  0  0  0  0  0  0  0  0  0
   57.0490   30.2310   51.0010 N   0  0  0  0  0  0  0  0  0  0  0  0
   58.1750   30.8800   51.0390 O   0  0  0  0  0  0  0  0  0  0  0  0
   59.3260   34.2690   49.1130 C   0  0  0  0  0  0  0  0  0  0  0  0
   59.0370   34.3990   47.7520 C   0  0  0  0  0  0  0  0  0  0  0  0
   59.8504   35.3717   45.2972 H   0  0  0  0  0  0  0  0  0  0  0  0
   59.0799   34.6863   43.6950 H   0  0  0  0  0  0  0  0  0  0  0  0
   57.8494   31.2133   46.4936 H   0  0  0  0  0  0  0  0  0  0  0  0
   56.6323   29.3982   45.2926 H   0  0  0  0  0  0  0  0  0  0  0  0
   56.2818   29.5439   42.8237 H   0  0  0  0  0  0  0  0  0  0  0  0
   57.1373   31.5170   41.5563 H   0  0  0  0  0  0  0  0  0  0  0  0
   58.3510   33.3401   42.7466 H   0  0  0  0  0  0  0  0  0  0  0  0
   59.8723   31.2497   46.7124 H   0  0  0  0  0  0  0  0  0  0  0  0
   60.3711   31.0160   49.1388 H   0  0  0  0  0  0  0  0  0  0  0  0
   59.7102   32.6624   52.9963 H   0  0  0  0  0  0  0  0  0  0  0  0
   58.7655   33.9213   52.1182 H   0  0  0  0  0  0  0  0  0  0  0  0
   56.4048   32.7362   53.0469 H   0  0  0  0  0  0  0  0  0  0  0  0
   53.9080   32.3850   51.6230 H   0  0  0  0  0  0  0  0  0  0  0  0
   52.2474   29.9356   52.2931 H   0  0  0  0  0  0  0  0  0  0  0  0
   51.7893   31.5658   53.9610 H   0  0  0  0  0  0  0  0  0  0  0  0
   51.8078   32.9123   52.7723 H   0  0  0  0  0  0  0  0  0  0  0  0
   50.4530   31.7329   52.7723 H   0  0  0  0  0  0  0  0  0  0  0  0
   50.0630   32.3679   48.1999 H   0  0  0  0  0  0  0  0  0  0  0  0
   59.1694   35.1221   49.7896 H   0  0  0  0  0  0  0  0  0  0  0  0
   58.6578   35.3562   47.3649 H   0  0  0  0  0  0  0  0  0  0  0  0
  1  2  2  0
  2  3  1  0
  3  4  2  0
  4  5  1  0
  5  6  2  0
  6  7  1  0
  7  8  2  0
  2  9  1  0
  9 10  2  0
 10 11  1  0
 11 12  2  0
 12 13  1  0
 13 14  1  0
 14 15  1  0
 15 16  2  0
 16 17  1  0
 17 18  1  0
 18 19  2  0
 18 20  1  0
 20 21  1  0
 21 22  1  0
 21 23  1  0
 23 24  1  0
 24 25  2  0
 25 26  1  0
 26 27  1  0
 17 28  2  0
 28 29  1  0
 12 30  1  0
 30 31  2  0
  8  3  1  0
 31  9  1  0
 29 15  1  0
 27 23  2  0
  1 32  1  0
  1 33  1  0
  4 34  1  0
  5 35  1  0
  6 36  1  0
  7 37  1  0
  8 38  1  0
 10 39  1  0
 11 40  1  0
 14 41  1  0
 14 42  1  0
 16 43  1  0
 20 44  1  0
 21 45  1  1
 22 46  1  0
 22 47  1  0
 22 48  1  0
 25 49  1  0
 30 50  1  0
 31 51  1  0
M  CHG  1  26  -1
M  END
>  <UniqueID>  (65) 
63

>  <SMILES>  (65) 
C=C(c1ccccc1)c1ccc(OCc2cc(C(=O)N[C@@H](C)c3nc[n-]n3)no2)cc1

>  <Energy>  (65) 
120.72299018946387

>  <Genealogy>  (65) 
C=C(c1ccccc1)c1ccc(OCc2cc(C(=O)NC(C)c3nc[n-]n3)no2)cc1 (protonated)
C=C(c1ccccc1)c1ccc(OCc2cc(C(=O)N[C@@H](C)c3nc[n-]n3)no2)cc1 (chirality)
C=C(c1ccccc1)c1ccc(OCc2cc(C(=O)N[C@@H](C)c3nc[n-]n3)no2)cc1 (3D coordinates assigned)
C=C(c1ccccc1)c1ccc(OCc2cc(C(=O)N[C@@H](C)c3nc[n-]n3)no2)cc1 (optimized conformer: 120.72299018946387 kcal/mol)

>  <smiles>  (65) 
C=C(c1ccccc1)c1ccc(OCc2cc(C(=O)NC(C)c3nc[nH]n3)no2)cc1

>  <score_type>  (65) 
oracle

>  <origin>  (65) 
adg

>  <m_score__min__energy>  (65) 
-13.19

>  <m_primary>  (65) 
energy

$$$$
65:0
     RDKit          3D

 61 64  0  0  0  0  0  0  0  0999 V2000
   51.0180   32.3360   50.1100 N   0  0  0  0  0  0  0  0  0  0  0  0
   51.2440   32.2280   51.5140 C   0  0  0  0  0  0  0  0  0  0  0  0
   50.4450   32.7960   52.3090 O   0  0  0  0  0  0  0  0  0  0  0  0
   52.4020   31.4600   52.0390 C   0  0  0  0  0  0  0  0  0  0  0  0
   53.5080   31.1930   51.2120 C   0  0  0  0  0  0  0  0  0  0  0  0
   54.6070   30.4810   51.7060 C   0  0  0  0  0  0  0  0  0  0  0  0
   54.6160   30.0190   53.0290 C   0  0  0  0  0  0  0  0  0  0  0  0
   56.0180   29.1500   53.6590 S   0  0  0  0  0  0  0  0  0  0  0  0
   55.5540   27.8670   54.2930 O   0  0  0  0  0  0  0  0  0  0  0  0
   56.7090   29.9840   54.7040 O   0  0  0  0  0  0  0  0  0  0  0  0
   57.1580   28.7810   52.3950 N   0  0  0  0  0  0  0  0  0  0  0  0
   58.5070   29.2150   52.7660 C   0  0  0  0  0  0  0  0  0  0  0  0
   58.9370   30.3240   51.8510 C   0  0  0  0  0  0  0  0  0  0  0  0
   60.0680   30.1710   51.0310 C   0  0  0  0  0  0  0  0  0  0  0  0
   60.4990   31.2220   50.2150 C   0  0  0  0  0  0  0  0  0  0  0  0
   59.7990   32.4420   50.1960 C   0  0  0  0  0  0  0  0  0  0  0  0
   60.2510   33.5660   49.3410 C   0  0  0  0  0  0  0  0  0  0  0  0
   61.4790   33.8440   49.2710 O   0  0  0  0  0  0  0  0  0  0  0  0
   59.3100   34.2860   48.5350 N   0  0  0  0  0  0  0  0  0  0  0  0
   59.0780   34.0630   47.1360 C   0  0  0  0  0  0  0  0  0  0  0  0
   59.2580   35.1220   46.2410 C   0  0  0  0  0  0  0  0  0  0  0  0
   59.0060   34.9450   44.8750 C   0  0  0  0  0  0  0  0  0  0  0  0
   58.5950   33.7000   44.3940 C   0  0  0  0  0  0  0  0  0  0  0  0
   58.4640   32.6150   45.2740 C   0  0  0  0  0  0  0  0  0  0  0  0
   58.0030   31.0270   44.6560 S   0  0  0  0  0  0  0  0  0  0  0  0
   57.9000   31.1070   43.1530 O   0  0  0  0  0  0  0  0  0  0  0  0
   56.6420   30.6670   45.1890 O   0  0  0  0  0  0  0  0  0  0  0  0
   59.1480   29.7700   45.0980 N   0  0  0  0  0  0  0  0  0  0  0  0
   59.3010   29.6240   46.5630 C   0  0  0  0  0  0  0  0  0  0  0  0
   58.5270   28.4200   47.1250 C   0  0  0  0  0  0  0  0  0  0  0  0
   57.3840   28.1530   46.3410 O   0  0  0  0  0  0  0  0  0  0  0  0
   57.7770   27.6510   45.0770 C   0  0  0  0  0  0  0  0  0  0  0  0
   58.8840   28.4930   44.3990 C   0  0  0  0  0  0  0  0  0  0  0  0
   58.7050   32.7980   46.6460 C   0  0  0  0  0  0  0  0  0  0  0  0
   58.6600   32.5870   51.0110 C   0  0  0  0  0  0  0  0  0  0  0  0
   58.2390   31.5400   51.8330 C   0  0  0  0  0  0  0  0  0  0  0  0
   53.5200   30.2830   53.8590 C   0  0  0  0  0  0  0  0  0  0  0  0
   52.4190   30.9960   53.3690 C   0  0  0  0  0  0  0  0  0  0  0  0
   50.0480   32.3130   49.7230 H   0  0  0  0  0  0  0  0  0  0  0  0
   53.5092   31.5461   50.1702 H   0  0  0  0  0  0  0  0  0  0  0  0
   55.4689   30.2829   51.0519 H   0  0  0  0  0  0  0  0  0  0  0  0
   58.5049   29.5753   53.8053 H   0  0  0  0  0  0  0  0  0  0  0  0
   59.2052   28.3698   52.6762 H   0  0  0  0  0  0  0  0  0  0  0  0
   60.6179   29.2183   51.0309 H   0  0  0  0  0  0  0  0  0  0  0  0
   61.3909   31.0938   49.5841 H   0  0  0  0  0  0  0  0  0  0  0  0
   59.5995   36.0996   46.6120 H   0  0  0  0  0  0  0  0  0  0  0  0
   59.1320   35.7880   44.1797 H   0  0  0  0  0  0  0  0  0  0  0  0
   58.3738   33.5698   43.3244 H   0  0  0  0  0  0  0  0  0  0  0  0
   60.3687   29.4945   46.7939 H   0  0  0  0  0  0  0  0  0  0  0  0
   58.8898   30.5304   47.0313 H   0  0  0  0  0  0  0  0  0  0  0  0
   59.1818   27.5361   47.1218 H   0  0  0  0  0  0  0  0  0  0  0  0
   58.2061   28.6529   48.1511 H   0  0  0  0  0  0  0  0  0  0  0  0
   58.1513   26.6252   45.2102 H   0  0  0  0  0  0  0  0  0  0  0  0
   56.8933   27.6893   44.4231 H   0  0  0  0  0  0  0  0  0  0  0  0
   59.8126   27.9036   44.3829 H   0  0  0  0  0  0  0  0  0  0  0  0
   58.5363   28.7386   43.3847 H   0  0  0  0  0  0  0  0  0  0  0  0
   58.6018   31.9500   47.3389 H   0  0  0  0  0  0  0  0  0  0  0  0
   58.0977   33.5323   51.0000 H   0  0  0  0  0  0  0  0  0  0  0  0
   57.3528   31.6700   52.4715 H   0  0  0  0  0  0  0  0  0  0  0  0
   53.5238   29.9289   54.9004 H   0  0  0  0  0  0  0  0  0  0  0  0
   51.5608   31.1953   54.0276 H   0  0  0  0  0  0  0  0  0  0  0  0
  1  2  1  0
  2  3  2  0
  2  4  1  0
  4  5  2  0
  5  6  1  0
  6  7  2  0
  7  8  1  0
  8  9  2  0
  8 10  2  0
  8 11  1  0
 11 12  1  0
 12 13  1  0
 13 14  2  0
 14 15  1  0
 15 16  2  0
 16 17  1  0
 17 18  2  0
 17 19  1  0
 19 20  1  0
 20 21  2  0
 21 22  1  0
 22 23  2  0
 23 24  1  0
 24 25  1  0
 25 26  2  0
 25 27  2  0
 25 28  1  0
 28 29  1  0
 29 30  1  0
 30 31  1  0
 31 32  1  0
 32 33  1  0
 24 34  2  0
 16 35  1  0
 35 36  2  0
  7 37  1  0
 37 38  2  0
 38  4  1  0
 36 13  1  0
 34 20  1  0
 33 28  1  0
  1 39  1  0
  5 40  1  0
  6 41  1  0
 12 42  1  0
 12 43  1  0
 14 44  1  0
 15 45  1  0
 21 46  1  0
 22 47  1  0
 23 48  1  0
 29 49  1  0
 29 50  1  0
 30 51  1  0
 30 52  1  0
 32 53  1  0
 32 54  1  0
 33 55  1  0
 33 56  1  0
 34 57  1  0
 35 58  1  0
 36 59  1  0
 37 60  1  0
 38 61  1  0
M  CHG  3   1  -1  11  -1  19  -1
M  END
>  <UniqueID>  (66) 
64

>  <SMILES>  (66) 
[NH-]C(=O)c1ccc(S(=O)(=O)[N-]Cc2ccc(C(=O)[N-]c3cccc(S(=O)(=O)N4CCOCC4)c3)cc2)cc1

>  <Energy>  (66) 
79.81306041122022

>  <Genealogy>  (66) 
[NH-]C(=O)c1ccc(S(=O)(=O)[N-]Cc2ccc(C(=O)[N-]c3cccc(S(=O)(=O)N4CCOCC4)c3)cc2)cc1 (protonated)
[NH-]C(=O)c1ccc(S(=O)(=O)[N-]Cc2ccc(C(=O)[N-]c3cccc(S(=O)(=O)N4CCOCC4)c3)cc2)cc1 (3D coordinates assigned)
[NH-]C(=O)c1ccc(S(=O)(=O)[N-]Cc2ccc(C(=O)[N-]c3cccc(S(=O)(=O)N4CCOCC4)c3)cc2)cc1 (nonaromatic ring conformer: 79.81306041122022 kcal/mol)

>  <smiles>  (66) 
NC(=O)c1ccc(S(=O)(=O)NCc2ccc(C(=O)Nc3cccc(S(=O)(=O)N4CCOCC4)c3)cc2)cc1

>  <score_type>  (66) 
oracle

>  <origin>  (66) 
adg

>  <m_score__min__energy>  (66) 
-16.27

>  <m_primary>  (66) 
energy

$$$$
66:0
     RDKit          3D

 70 74  0  0  1  0  0  0  0  0999 V2000
   58.3260   20.4690   51.1860 C   0  0  0  0  0  0  0  0  0  0  0  0
   57.2950   20.0640   50.4540 C   0  0  0  0  0  0  0  0  0  0  0  0
   56.9860   20.5680   49.1380 C   0  0  0  0  0  0  0  0  0  0  0  0
   56.0140   21.3710   48.9340 O   0  0  0  0  0  0  0  0  0  0  0  0
   57.7340   20.2090   47.9800 N   0  0  0  0  0  0  0  0  0  0  0  0
   57.3020   20.7950   46.7430 C   0  0  0  0  0  0  0  0  0  0  0  0
   56.9760   19.9100   45.7270 C   0  0  0  0  0  0  0  0  0  0  0  0
   56.5520   20.4440   44.5100 C   0  0  0  0  0  0  0  0  0  0  0  0
   56.4620   21.8200   44.3320 C   0  0  0  0  0  0  0  0  0  0  0  0
   56.0480   22.3590   43.1440 O   0  0  0  0  0  0  0  0  0  0  0  0
   55.0830   23.3470   42.9630 C   0  0  0  0  0  0  0  0  0  0  0  0
   56.8000   22.6800   45.3780 C   0  0  0  0  0  0  0  0  0  0  0  0
   56.7090   24.0870   45.2010 N   0  0  0  0  0  0  0  0  0  0  0  0
   55.6220   24.7700   45.8620 C   0  0  0  0  0  0  0  0  0  0  0  0
   56.1080   26.0480   46.5480 C   0  0  0  0  0  0  0  0  0  0  0  0
   56.7990   26.8250   45.5040 C   0  0  0  0  0  0  0  0  0  0  0  0
   56.6780   28.1830   45.5770 N   0  0  0  0  0  0  0  0  0  0  0  0
   57.2960   28.9570   44.6360 C   0  0  0  0  0  0  0  0  0  0  0  0
   57.1300   30.2290   44.7780 N   0  0  0  0  0  0  0  0  0  0  0  0
   58.1500   30.9590   45.4490 C   0  0  0  0  0  0  0  0  0  0  0  0
   58.2270   32.3120   45.5130 C   0  0  0  0  0  0  0  0  0  0  0  0
   59.2610   32.9270   46.1920 C   0  0  0  0  0  0  0  0  0  0  0  0
   60.2590   32.2310   46.8330 C   0  0  0  0  0  0  0  0  0  0  0  0
   61.3300   32.8310   47.5330 N   0  0  0  0  0  0  0  0  0  0  0  0
   62.4590   33.4830   46.9140 C   0  0  0  0  0  0  0  0  0  0  0  0
   63.7640   32.9400   47.4570 C   0  0  0  0  0  0  0  0  0  0  0  0
   63.7610   32.7000   48.8660 N   0  0  0  0  0  0  0  0  0  0  0  0
   64.9720   33.1420   49.5320 C   0  0  0  0  0  0  0  0  0  0  0  0
   62.6410   33.3020   49.5490 C   0  0  0  0  0  0  0  0  0  0  0  0
   61.3140   32.8040   48.9950 C   0  0  0  0  0  0  0  0  0  0  0  0
   60.1720   30.8400   46.7600 C   0  0  0  0  0  0  0  0  0  0  0  0
   59.1380   30.2200   46.0820 C   0  0  0  0  0  0  0  0  0  0  0  0
   58.0200   28.4110   43.6430 N   0  0  0  0  0  0  0  0  0  0  0  0
   58.1450   27.0530   43.5670 C   0  0  0  0  0  0  0  0  0  0  0  0
   57.5330   26.2250   44.5030 C   0  0  0  0  0  0  0  0  0  0  0  0
   57.6970   24.7540   44.3780 C   0  0  0  0  0  0  0  0  0  0  0  0
   57.2200   22.1630   46.5880 C   0  0  0  0  0  0  0  0  0  0  0  0
   58.4964   20.0364   52.1829 H   0  0  0  0  0  0  0  0  0  0  0  0
   59.0098   21.2371   50.7955 H   0  0  0  0  0  0  0  0  0  0  0  0
   56.6336   19.2943   50.8784 H   0  0  0  0  0  0  0  0  0  0  0  0
   58.5380   19.5640   48.0510 H   0  0  0  0  0  0  0  0  0  0  0  0
   57.0492   18.8225   45.8756 H   0  0  0  0  0  0  0  0  0  0  0  0
   56.2861   19.7695   43.6827 H   0  0  0  0  0  0  0  0  0  0  0  0
   54.7348   23.7035   43.9437 H   0  0  0  0  0  0  0  0  0  0  0  0
   55.5186   24.1864   42.4012 H   0  0  0  0  0  0  0  0  0  0  0  0
   54.2335   22.9313   42.4012 H   0  0  0  0  0  0  0  0  0  0  0  0
   54.8564   25.0316   45.1167 H   0  0  0  0  0  0  0  0  0  0  0  0
   55.2042   24.1004   46.6282 H   0  0  0  0  0  0  0  0  0  0  0  0
   55.2553   26.6165   46.9476 H   0  0  0  0  0  0  0  0  0  0  0  0
   56.7737   25.8253   47.3949 H   0  0  0  0  0  0  0  0  0  0  0  0
   56.1190   28.6190   46.3420 H   0  0  0  0  0  0  0  0  0  0  0  0
   57.4587   32.9252   45.0195 H   0  0  0  0  0  0  0  0  0  0  0  0
   59.2873   34.0263   46.2214 H   0  0  0  0  0  0  0  0  0  0  0  0
   62.4223   33.3118   45.8280 H   0  0  0  0  0  0  0  0  0  0  0  0
   62.4075   34.5590   47.1365 H   0  0  0  0  0  0  0  0  0  0  0  0
   63.9808   31.9902   46.9463 H   0  0  0  0  0  0  0  0  0  0  0  0
   64.5271   33.7100   47.2705 H   0  0  0  0  0  0  0  0  0  0  0  0
   64.8309   33.0905   50.6217 H   0  0  0  0  0  0  0  0  0  0  0  0
   65.8095   32.4916   49.2396 H   0  0  0  0  0  0  0  0  0  0  0  0
   65.1937   34.1790   49.2396 H   0  0  0  0  0  0  0  0  0  0  0  0
   62.6982   33.0510   50.6185 H   0  0  0  0  0  0  0  0  0  0  0  0
   62.6903   34.3905   49.3979 H   0  0  0  0  0  0  0  0  0  0  0  0
   61.1427   31.7725   49.3367 H   0  0  0  0  0  0  0  0  0  0  0  0
   60.5080   33.4601   49.3553 H   0  0  0  0  0  0  0  0  0  0  0  0
   60.9405   30.2249   47.2511 H   0  0  0  0  0  0  0  0  0  0  0  0
   59.0987   29.1213   46.0443 H   0  0  0  0  0  0  0  0  0  0  0  0
   58.7378   26.6076   42.7545 H   0  0  0  0  0  0  0  0  0  0  0  0
   57.5599   24.4576   43.3276 H   0  0  0  0  0  0  0  0  0  0  0  0
   58.7056   24.4676   44.7108 H   0  0  0  0  0  0  0  0  0  0  0  0
   57.4859   22.8342   47.4179 H   0  0  0  0  0  0  0  0  0  0  0  0
  1  2  2  0
  2  3  1  0
  3  4  2  0
  3  5  1  0
  5  6  1  0
  6  7  2  0
  7  8  1  0
  8  9  2  0
  9 10  1  0
 10 11  1  0
  9 12  1  0
 12 13  1  0
 13 14  1  0
 14 15  1  0
 15 16  1  0
 16 17  1  0
 17 18  1  0
 18 19  2  0
 19 20  1  0
 20 21  2  0
 21 22  1  0
 22 23  2  0
 23 24  1  0
 24 25  1  0
 25 26  1  0
 26 27  1  0
 27 28  1  0
 27 29  1  0
 29 30  1  0
 23 31  1  0
 31 32  2  0
 18 33  1  0
 33 34  2  0
 34 35  1  0
 35 36  1  0
 12 37  2  0
 37  6  1  0
 36 13  1  0
 35 16  2  0
 32 20  1  0
 30 24  1  0
  1 38  1  0
  1 39  1  0
  2 40  1  0
  5 41  1  0
  7 42  1  0
  8 43  1  0
 11 44  1  0
 11 45  1  0
 11 46  1  0
 14 47  1  0
 14 48  1  0
 15 49  1  0
 15 50  1  0
 17 51  1  0
 21 52  1  0
 22 53  1  0
 25 54  1  0
 25 55  1  0
 26 56  1  0
 26 57  1  0
 28 58  1  0
 28 59  1  0
 28 60  1  0
 29 61  1  0
 29 62  1  0
 30 63  1  0
 30 64  1  0
 31 65  1  0
 32 66  1  0
 34 67  1  0
 36 68  1  0
 36 69  1  0
 37 70  1  0
M  END
>  <smiles>  (67) 
C=CC(=O)Nc1ccc(OC)c(N2CCc3[nH]c(=Nc4ccc(N5CCN(C)CC5)cc4)ncc3C2)c1

>  <score_type>  (67) 
oracle

>  <origin>  (67) 
adg

>  <m_score__min__energy>  (67) 
-8.2599999999999998

>  <m_primary>  (67) 
energy

$$$$
67:0
     RDKit          3D

 59 62  0  0  0  0  0  0  0  0999 V2000
   57.0090   33.8430   46.3660 N   0  0  0  0  0  0  0  0  0  0  0  0
   57.5330   32.6070   45.8640 C   0  0  0  0  0  0  0  0  0  0  0  0
   56.8490   31.9540   45.0280 O   0  0  0  0  0  0  0  0  0  0  0  0
   58.8510   32.0750   46.3090 C   0  0  0  0  0  0  0  0  0  0  0  0
   59.2080   30.7250   46.1140 C   0  0  0  0  0  0  0  0  0  0  0  0
   60.4510   30.2490   46.5410 C   0  0  0  0  0  0  0  0  0  0  0  0
   61.3520   31.1070   47.1740 C   0  0  0  0  0  0  0  0  0  0  0  0
   61.0100   32.4490   47.4080 C   0  0  0  0  0  0  0  0  0  0  0  0
   61.9590   33.3770   48.1490 C   0  0  2  0  0  0  0  0  0  0  0  0
   63.4170   32.9680   47.9270 C   0  0  0  0  0  0  0  0  0  0  0  0
   64.0960   33.1070   49.2800 C   0  0  0  0  0  0  0  0  0  0  0  0
   62.9770   33.0380   50.3150 C   0  0  0  0  0  0  0  0  0  0  0  0
   61.7510   33.3350   49.5960 N   0  0  0  0  0  0  0  0  0  0  0  0
   60.5530   33.7770   50.2710 C   0  0  0  0  0  0  0  0  0  0  0  0
   59.7770   34.6000   49.6900 O   0  0  0  0  0  0  0  0  0  0  0  0
   60.1920   33.2420   51.6360 C   0  0  0  0  0  0  0  0  0  0  0  0
   58.9010   32.4620   51.6550 C   0  0  0  0  0  0  0  0  0  0  0  0
   57.7500   33.0020   52.2460 C   0  0  0  0  0  0  0  0  0  0  0  0
   56.5440   32.2990   52.2140 C   0  0  0  0  0  0  0  0  0  0  0  0
   56.4730   31.0430   51.6150 C   0  0  0  0  0  0  0  0  0  0  0  0
   55.2470   30.3670   51.6170 O   0  0  0  0  0  0  0  0  0  0  0  0
   54.2890   30.5270   52.6260 C   0  0  0  0  0  0  0  0  0  0  0  0
   54.6530   30.2520   53.9550 C   0  0  0  0  0  0  0  0  0  0  0  0
   53.7250   30.4200   54.9900 C   0  0  0  0  0  0  0  0  0  0  0  0
   52.4260   30.8610   54.7040 C   0  0  0  0  0  0  0  0  0  0  0  0
   52.0440   31.1150   53.3760 C   0  0  0  0  0  0  0  0  0  0  0  0
   52.9650   30.9400   52.3210 C   0  0  0  0  0  0  0  0  0  0  0  0
   52.5100   31.1480   50.8930 C   0  0  0  0  0  0  0  0  0  0  0  0
   51.5030   32.2550   50.7980 C   0  0  0  0  0  0  0  0  0  0  0  0
   51.3940   33.0950   51.7310 O   0  0  0  0  0  0  0  0  0  0  0  0
   50.6560   32.3380   49.6980 O   0  0  0  0  0  0  0  0  0  0  0  0
   57.6220   30.5010   51.0150 C   0  0  0  0  0  0  0  0  0  0  0  0
   58.8230   31.2110   51.0260 C   0  0  0  0  0  0  0  0  0  0  0  0
   59.7610   32.9260   46.9660 C   0  0  0  0  0  0  0  0  0  0  0  0
   57.4870   34.3900   47.1150 H   0  0  0  0  0  0  0  0  0  0  0  0
   56.0920   34.1990   46.0140 H   0  0  0  0  0  0  0  0  0  0  0  0
   58.5020   30.0402   45.6214 H   0  0  0  0  0  0  0  0  0  0  0  0
   60.7200   29.1950   46.3777 H   0  0  0  0  0  0  0  0  0  0  0  0
   62.3354   30.7299   47.4913 H   0  0  0  0  0  0  0  0  0  0  0  0
   61.7525   34.3823   47.7531 H   0  0  0  0  0  0  0  0  0  0  0  0
   63.4737   31.9274   47.5749 H   0  0  0  0  0  0  0  0  0  0  0  0
   63.9019   33.5947   47.1640 H   0  0  0  0  0  0  0  0  0  0  0  0
   64.8125   32.2869   49.4352 H   0  0  0  0  0  0  0  0  0  0  0  0
   64.6601   34.0483   49.3554 H   0  0  0  0  0  0  0  0  0  0  0  0
   62.9268   32.0323   50.7578 H   0  0  0  0  0  0  0  0  0  0  0  0
   63.1443   33.7478   51.1385 H   0  0  0  0  0  0  0  0  0  0  0  0
   61.0029   32.5813   51.9765 H   0  0  0  0  0  0  0  0  0  0  0  0
   60.0551   34.1100   52.2976 H   0  0  0  0  0  0  0  0  0  0  0  0
   57.7973   33.9849   52.7376 H   0  0  0  0  0  0  0  0  0  0  0  0
   55.6430   32.7402   52.6652 H   0  0  0  0  0  0  0  0  0  0  0  0
   55.6710   29.9034   54.1832 H   0  0  0  0  0  0  0  0  0  0  0  0
   54.0160   30.2055   56.0289 H   0  0  0  0  0  0  0  0  0  0  0  0
   51.7041   31.0086   55.5207 H   0  0  0  0  0  0  0  0  0  0  0  0
   51.0202   31.4525   53.1571 H   0  0  0  0  0  0  0  0  0  0  0  0
   53.3819   31.4025   50.2725 H   0  0  0  0  0  0  0  0  0  0  0  0
   52.0390   30.2188   50.5398 H   0  0  0  0  0  0  0  0  0  0  0  0
   57.5745   29.5126   50.5345 H   0  0  0  0  0  0  0  0  0  0  0  0
   59.7135   30.7872   50.5387 H   0  0  0  0  0  0  0  0  0  0  0  0
   59.4920   33.9789   47.1364 H   0  0  0  0  0  0  0  0  0  0  0  0
  1  2  1  0
  2  3  2  0
  2  4  1  0
  4  5  2  0
  5  6  1  0
  6  7  2  0
  7  8  1  0
  8  9  1  0
  9 10  1  0
 10 11  1  0
 11 12  1  0
 12 13  1  0
 13 14  1  0
 14 15  2  0
 14 16  1  0
 16 17  1  0
 17 18  2  0
 18 19  1  0
 19 20  2  0
 20 21  1  0
 21 22  1  0
 22 23  2  0
 23 24  1  0
 24 25  2  0
 25 26  1  0
 26 27  2  0
 27 28  1  0
 28 29  1  0
 29 30  2  0
 29 31  1  0
 20 32  1  0
 32 33  2  0
  8 34  2  0
 34  4  1  0
 13  9  1  0
 33 17  1  0
 27 22  1  0
  1 35  1  0
  1 36  1  0
  5 37  1  0
  6 38  1  0
  7 39  1  0
  9 40  1  6
 10 41  1  0
 10 42  1  0
 11 43  1  0
 11 44  1  0
 12 45  1  0
 12 46  1  0
 16 47  1  0
 16 48  1  0
 18 49  1  0
 19 50  1  0
 23 51  1  0
 24 52  1  0
 25 53  1  0
 26 54  1  0
 28 55  1  0
 28 56  1  0
 32 57  1  0
 33 58  1  0
 34 59  1  0
M  CHG  1  31  -1
M  END
>  <UniqueID>  (68) 
65

>  <SMILES>  (68) 
NC(=O)c1cccc([C@@H]2CCCN2C(=O)Cc2ccc(Oc3ccccc3CC(=O)[O-])cc2)c1

>  <Energy>  (68) 
73.16647263681804

>  <Genealogy>  (68) 
NC(=O)c1cccc(C2CCCN2C(=O)Cc2ccc(Oc3ccccc3CC(=O)[O-])cc2)c1 (protonated)
NC(=O)c1cccc([C@@H]2CCCN2C(=O)Cc2ccc(Oc3ccccc3CC(=O)[O-])cc2)c1 (chirality)
NC(=O)c1cccc([C@@H]2CCCN2C(=O)Cc2ccc(Oc3ccccc3CC(=O)[O-])cc2)c1 (3D coordinates assigned)
NC(=O)c1cccc([C@@H]2CCCN2C(=O)Cc2ccc(Oc3ccccc3CC(=O)[O-])cc2)c1 (nonaromatic ring conformer: 73.16647263681804 kcal/mol)

>  <smiles>  (68) 
NC(=O)c1cccc(C2CCCN2C(=O)Cc2ccc(Oc3ccccc3CC(=O)O)cc2)c1

>  <score_type>  (68) 
oracle

>  <origin>  (68) 
adg

>  <m_score__min__energy>  (68) 
-14.33

>  <m_primary>  (68) 
energy

$$$$
68:0
     RDKit          3D

 39 41  0  0  0  0  0  0  0  0999 V2000
   60.4350   34.6200   49.7960 H   0  0  0  0  0  0  0  0  0  0  0  0
   60.7520   33.8810   50.3790 O   0  0  0  0  0  0  0  0  0  0  0  0
   60.1980   32.6990   49.8660 C   0  0  0  0  0  0  0  0  0  0  0  0
   59.6334   32.1914   50.6620 H   0  0  0  0  0  0  0  0  0  0  0  0
   61.0150   32.0577   49.5037 H   0  0  0  0  0  0  0  0  0  0  0  0
   59.2490   32.9990   48.6870 C   0  0  2  0  0  0  0  0  0  0  0  0
   58.5513   33.7663   49.0536 H   0  0  0  0  0  0  0  0  0  0  0  0
   58.6000   31.8090   48.3020 O   0  0  0  0  0  0  0  0  0  0  0  0
   59.3230   31.2650   47.2140 C   0  0  1  0  0  0  0  0  0  0  0  0
   59.9363   30.4271   47.5770 H   0  0  0  0  0  0  0  0  0  0  0  0
   58.4030   30.7200   46.1760 N   0  0  0  0  0  0  0  0  0  0  0  0
   57.4360   31.5380   45.6420 C   0  0  0  0  0  0  0  0  0  0  0  0
   57.4060   32.7710   45.9070 O   0  0  0  0  0  0  0  0  0  0  0  0
   56.4940   31.0400   44.8160 N   0  0  0  0  0  0  0  0  0  0  0  0
   56.4480   29.7360   44.4750 C   0  0  0  0  0  0  0  0  0  0  0  0
   55.4740   29.3450   43.7790 O   0  0  0  0  0  0  0  0  0  0  0  0
   57.4580   28.8490   44.9240 C   0  0  0  0  0  0  0  0  0  0  0  0
   57.3930   27.5060   44.6800 C   0  0  0  0  0  0  0  0  0  0  0  0
   57.3558   27.1920   43.6264 H   0  0  0  0  0  0  0  0  0  0  0  0
   57.3680   26.4340   45.7010 C   0  0  0  0  0  0  0  0  0  0  0  0
   56.1690   26.0920   46.3410 C   0  0  0  0  0  0  0  0  0  0  0  0
   54.9760   26.7160   45.9910 O   0  0  0  0  0  0  0  0  0  0  0  0
   56.1650   25.1380   47.3080 N   0  0  0  0  0  0  0  0  0  0  0  0
   57.3100   24.5130   47.6820 C   0  0  0  0  0  0  0  0  0  0  0  0
   57.2810   23.6290   48.5760 O   0  0  0  0  0  0  0  0  0  0  0  0
   58.4890   24.8440   47.0940 N   0  0  0  0  0  0  0  0  0  0  0  0
   58.5460   25.7920   46.1230 C   0  0  0  0  0  0  0  0  0  0  0  0
   59.6590   26.0900   45.6140 O   0  0  0  0  0  0  0  0  0  0  0  0
   58.5210   29.4190   45.7060 C   0  0  0  0  0  0  0  0  0  0  0  0
   59.6800   28.7350   45.8870 C   0  0  0  0  0  0  0  0  0  0  0  0
   60.4906   29.1753   46.4862 H   0  0  0  0  0  0  0  0  0  0  0  0
   59.8082   27.7407   45.4344 H   0  0  0  0  0  0  0  0  0  0  0  0
   60.2440   32.3360   46.6270 C   0  0  0  0  0  0  0  0  0  0  0  0
   61.2995   32.0445   46.7317 H   0  0  0  0  0  0  0  0  0  0  0  0
   60.0782   32.4943   45.5512 H   0  0  0  0  0  0  0  0  0  0  0  0
   59.9430   33.5640   47.4480 C   0  0  2  0  0  0  0  0  0  0  0  0
   59.3159   34.2969   46.9191 H   0  0  0  0  0  0  0  0  0  0  0  0
   61.1110   34.2800   47.7580 O   0  0  0  0  0  0  0  0  0  0  0  0
   60.8660   34.9160   48.4810 H   0  0  0  0  0  0  0  0  0  0  0  0
  1  2  1  0
  2  3  1  0
  3  4  1  0
  3  5  1  0
  3  6  1  0
  6  7  1  1
  6  8  1  0
  8  9  1  0
  9 10  1  1
  9 11  1  0
 11 12  1  0
 12 13  2  0
 12 14  1  0
 14 15  1  0
 15 16  2  0
 15 17  1  0
 17 18  2  0
 18 19  1  0
 18 20  1  0
 20 21  2  0
 21 22  1  0
 21 23  1  0
 23 24  1  0
 24 25  2  0
 24 26  1  0
 26 27  1  0
 27 28  2  0
 17 29  1  0
 29 30  2  0
 30 31  1  0
 30 32  1  0
  9 33  1  0
 33 34  1  0
 33 35  1  0
 33 36  1  0
 36 37  1  6
 36 38  1  0
 38 39  1  0
 36  6  1  0
 29 11  1  0
 27 20  1  0
M  CHG  4  14  -1  22  -1  23  -1  26  -1
M  END
>  <UniqueID>  (69) 
66

>  <SMILES>  (69) 
C=c1/c(=C/c2c([O-])[n-]c(=O)[n-]c2=O)c(=O)[n-]c(=O)n1[C@H]1C[C@H](O)C(CO)O1

>  <Energy>  (69) 
80.58543170419834

>  <Genealogy>  (69) 
C=c1c(=Cc2c([O-])[n-]c(=O)[n-]c2=O)c(=O)[n-]c(=O)n1C1CC(O)C(CO)O1 (protonated)
C=c1c(=Cc2c([O-])[n-]c(=O)[n-]c2=O)c(=O)[n-]c(=O)n1[C@H]1C[C@H](O)C(CO)O1 (chirality)
C=c1/c(=C/c2c([O-])[n-]c(=O)[n-]c2=O)c(=O)[n-]c(=O)n1[C@H]1C[C@H](O)C(CO)O1 (cis-trans isomerization)
C=c1/c(=C/c2c([O-])[n-]c(=O)[n-]c2=O)c(=O)[n-]c(=O)n1[C@H]1C[C@H](O)C(CO)O1 (3D coordinates assigned)
C=c1/c(=C/c2c([O-])[n-]c(=O)[n-]c2=O)c(=O)[n-]c(=O)n1[C@H]1C[C@H](O)C(CO)O1 (nonaromatic ring conformer: 80.58543170419834 kcal/mol)

>  <smiles>  (69) 
C=c1c(=Cc2c(O)[nH]c(=O)[nH]c2=O)c(=O)[nH]c(=O)n1C1CC(O)C(CO)O1

>  <score_type>  (69) 
oracle

>  <origin>  (69) 
adg

>  <m_score__min__energy>  (69) 
-15.26

>  <m_primary>  (69) 
energy

$$$$
69:0
     RDKit          3D

 40 42  0  0  0  0  0  0  0  0999 V2000
   56.7340   21.2350   43.3240 C   0  0  0  0  0  0  0  0  0  0  0  0
   55.8630   22.1870   43.8790 O   0  0  0  0  0  0  0  0  0  0  0  0
   56.3590   23.4290   44.2250 C   0  0  0  0  0  0  0  0  0  0  0  0
   57.0670   24.1390   43.2810 C   0  0  0  0  0  0  0  0  0  0  0  0
   57.6020   25.4030   43.5590 C   0  0  0  0  0  0  0  0  0  0  0  0
   57.4440   26.0040   44.8010 C   0  0  0  0  0  0  0  0  0  0  0  0
   57.9760   27.3370   44.9610 C   0  0  0  0  0  0  0  0  0  0  0  0
   57.3200   28.3820   44.3770 N   0  0  0  0  0  0  0  0  0  0  0  0
   57.7660   29.6520   44.4320 C   0  0  0  0  0  0  0  0  0  0  0  0
   56.8050   30.9150   43.6350 S   0  0  0  0  0  0  0  0  0  0  0  0
   57.7690   32.3550   43.2270 C   0  0  0  0  0  0  0  0  0  0  0  0
   58.1960   33.0830   44.4380 C   0  0  0  0  0  0  0  0  0  0  0  0
   57.4940   32.8400   45.6050 C   0  0  0  0  0  0  0  0  0  0  0  0
   57.8360   33.4600   46.7840 C   0  0  0  0  0  0  0  0  0  0  0  0
   58.8790   34.3370   46.8450 C   0  0  0  0  0  0  0  0  0  0  0  0
   59.1790   34.9280   48.0370 F   0  0  0  0  0  0  0  0  0  0  0  0
   59.5880   34.5920   45.7020 C   0  0  0  0  0  0  0  0  0  0  0  0
   59.2430   33.9640   44.5050 C   0  0  0  0  0  0  0  0  0  0  0  0
   58.9000   29.9210   45.0840 N   0  0  0  0  0  0  0  0  0  0  0  0
   59.6210   28.9710   45.6910 C   0  0  0  0  0  0  0  0  0  0  0  0
   60.6820   29.2620   46.2940 O   0  0  0  0  0  0  0  0  0  0  0  0
   59.1370   27.6570   45.6190 C   0  0  0  0  0  0  0  0  0  0  0  0
   59.9830   26.6720   46.2270 C   0  0  0  0  0  0  0  0  0  0  0  0
   60.6750   25.8950   46.7230 N   0  0  0  0  0  0  0  0  0  0  0  0
   56.7370   25.2870   45.7280 C   0  0  0  0  0  0  0  0  0  0  0  0
   56.1990   24.0180   45.4560 C   0  0  0  0  0  0  0  0  0  0  0  0
   57.2380   20.6842   44.1318 H   0  0  0  0  0  0  0  0  0  0  0  0
   56.1604   20.5314   42.7028 H   0  0  0  0  0  0  0  0  0  0  0  0
   57.4857   21.7439   42.7028 H   0  0  0  0  0  0  0  0  0  0  0  0
   57.2162   23.7019   42.2826 H   0  0  0  0  0  0  0  0  0  0  0  0
   58.1613   25.9330   42.7740 H   0  0  0  0  0  0  0  0  0  0  0  0
   56.4180   28.2480   43.8600 H   0  0  0  0  0  0  0  0  0  0  0  0
   58.6615   32.0402   42.6663 H   0  0  0  0  0  0  0  0  0  0  0  0
   57.1433   33.0285   42.6229 H   0  0  0  0  0  0  0  0  0  0  0  0
   56.6470   32.1383   45.5897 H   0  0  0  0  0  0  0  0  0  0  0  0
   57.2578   33.2447   47.6947 H   0  0  0  0  0  0  0  0  0  0  0  0
   60.4335   35.2952   45.7275 H   0  0  0  0  0  0  0  0  0  0  0  0
   59.8236   34.1807   43.5962 H   0  0  0  0  0  0  0  0  0  0  0  0
   56.5838   25.7220   46.7266 H   0  0  0  0  0  0  0  0  0  0  0  0
   55.6406   23.4874   46.2413 H   0  0  0  0  0  0  0  0  0  0  0  0
  1  2  1  0
  2  3  1  0
  3  4  2  0
  4  5  1  0
  5  6  2  0
  6  7  1  0
  7  8  1  0
  8  9  1  0
  9 10  1  0
 10 11  1  0
 11 12  1  0
 12 13  2  0
 13 14  1  0
 14 15  2  0
 15 16  1  0
 15 17  1  0
 17 18  2  0
  9 19  2  0
 19 20  1  0
 20 21  2  0
 20 22  1  0
 22 23  1  0
 23 24  3  0
  6 25  1  0
 25 26  2  0
 26  3  1  0
 22  7  2  0
 18 12  1  0
  1 27  1  0
  1 28  1  0
  1 29  1  0
  4 30  1  0
  5 31  1  0
  8 32  1  0
 11 33  1  0
 11 34  1  0
 13 35  1  0
 14 36  1  0
 17 37  1  0
 18 38  1  0
 25 39  1  0
 26 40  1  0
M  END
>  <smiles>  (70) 
COc1ccc(-c2[nH]c(SCc3ccc(F)cc3)nc(=O)c2C#N)cc1

>  <score_type>  (70) 
oracle

>  <origin>  (70) 
adg

>  <m_score__min__energy>  (70) 
-8.0500000000000007

>  <m_primary>  (70) 
energy

$$$$
70:0
     RDKit          3D

 62 65  0  0  0  0  0  0  0  0999 V2000
   59.6650   33.4840   49.7790 C   0  0  0  0  0  0  0  0  0  0  0  0
   60.9280   33.4690   49.3140 C   0  0  0  0  0  0  0  0  0  0  0  0
   62.1210   33.2350   50.0430 C   0  0  0  0  0  0  0  0  0  0  0  0
   62.2900   33.1240   51.4000 C   0  0  0  0  0  0  0  0  0  0  0  0
   63.2720   33.9650   52.1760 C   0  0  0  0  0  0  0  0  0  0  0  0
   61.5010   32.1370   52.2280 C   0  0  0  0  0  0  0  0  0  0  0  0
   63.1380   33.1950   49.0630 C   0  0  0  0  0  0  0  0  0  0  0  0
   64.6330   33.1510   49.2660 C   0  0  0  0  0  0  0  0  0  0  0  0
   62.5350   33.4130   47.8330 C   0  0  0  0  0  0  0  0  0  0  0  0
   63.2490   33.4880   46.5100 C   0  0  0  0  0  0  0  0  0  0  0  0
   61.2080   33.5960   47.9920 N   0  0  0  0  0  0  0  0  0  0  0  0
   60.2690   33.8400   46.9280 C   0  0  0  0  0  0  0  0  0  0  0  0
   60.1860   35.1100   46.3440 C   0  0  0  0  0  0  0  0  0  0  0  0
   59.2850   35.3460   45.3030 C   0  0  0  0  0  0  0  0  0  0  0  0
   58.4580   34.3160   44.8450 C   0  0  0  0  0  0  0  0  0  0  0  0
   58.5210   33.0410   45.4320 C   0  0  0  0  0  0  0  0  0  0  0  0
   57.6410   31.9550   44.9490 C   0  0  0  0  0  0  0  0  0  0  0  0
   56.3920   32.0940   45.0450 O   0  0  0  0  0  0  0  0  0  0  0  0
   58.1810   30.7320   44.4080 N   0  0  0  0  0  0  0  0  0  0  0  0
   59.3660   30.1200   45.0360 C   0  0  0  0  0  0  0  0  0  0  0  0
   59.4580   28.6230   44.7160 C   0  0  0  0  0  0  0  0  0  0  0  0
   58.1210   28.0180   44.7990 N   0  0  0  0  0  0  0  0  0  0  0  0
   57.8540   26.9370   45.7160 C   0  0  0  0  0  0  0  0  0  0  0  0
   56.7210   26.1200   45.5450 C   0  0  0  0  0  0  0  0  0  0  0  0
   56.4840   25.0510   46.4140 C   0  0  0  0  0  0  0  0  0  0  0  0
   57.3750   24.7840   47.4570 C   0  0  0  0  0  0  0  0  0  0  0  0
   58.5020   25.5900   47.6370 C   0  0  0  0  0  0  0  0  0  0  0  0
   58.7450   26.6590   46.7670 C   0  0  0  0  0  0  0  0  0  0  0  0
   57.0100   28.6070   44.0330 C   0  0  0  0  0  0  0  0  0  0  0  0
   57.4100   29.9580   43.4250 C   0  0  0  0  0  0  0  0  0  0  0  0
   59.4480   32.8040   46.4610 C   0  0  0  0  0  0  0  0  0  0  0  0
   58.8284   33.6811   49.0925 H   0  0  0  0  0  0  0  0  0  0  0  0
   59.4694   33.2992   50.8456 H   0  0  0  0  0  0  0  0  0  0  0  0
   63.1054   33.8223   53.2539 H   0  0  0  0  0  0  0  0  0  0  0  0
   64.2977   33.6609   51.9201 H   0  0  0  0  0  0  0  0  0  0  0  0
   63.1293   35.0253   51.9201 H   0  0  0  0  0  0  0  0  0  0  0  0
   61.6644   32.3414   53.2964 H   0  0  0  0  0  0  0  0  0  0  0  0
   60.4305   32.2363   51.9952 H   0  0  0  0  0  0  0  0  0  0  0  0
   61.8336   31.1146   51.9952 H   0  0  0  0  0  0  0  0  0  0  0  0
   64.8568   33.1444   50.3430 H   0  0  0  0  0  0  0  0  0  0  0  0
   65.0395   32.2405   48.8015 H   0  0  0  0  0  0  0  0  0  0  0  0
   65.0923   34.0360   48.8015 H   0  0  0  0  0  0  0  0  0  0  0  0
   64.3295   33.6015   46.6824 H   0  0  0  0  0  0  0  0  0  0  0  0
   63.0635   32.5654   45.9404 H   0  0  0  0  0  0  0  0  0  0  0  0
   62.8758   34.3519   45.9404 H   0  0  0  0  0  0  0  0  0  0  0  0
   60.8318   35.9236   46.7058 H   0  0  0  0  0  0  0  0  0  0  0  0
   59.2261   36.3435   44.8430 H   0  0  0  0  0  0  0  0  0  0  0  0
   57.7544   34.5048   44.0208 H   0  0  0  0  0  0  0  0  0  0  0  0
   60.2697   30.6225   44.6607 H   0  0  0  0  0  0  0  0  0  0  0  0
   59.2792   30.2364   46.1264 H   0  0  0  0  0  0  0  0  0  0  0  0
   59.8577   28.4897   43.6999 H   0  0  0  0  0  0  0  0  0  0  0  0
   60.1256   28.1348   45.4412 H   0  0  0  0  0  0  0  0  0  0  0  0
   56.0184   26.3236   44.7235 H   0  0  0  0  0  0  0  0  0  0  0  0
   55.5944   24.4187   46.2766 H   0  0  0  0  0  0  0  0  0  0  0  0
   57.1890   23.9391   48.1364 H   0  0  0  0  0  0  0  0  0  0  0  0
   59.1987   25.3842   48.4630 H   0  0  0  0  0  0  0  0  0  0  0  0
   59.6385   27.2853   46.9065 H   0  0  0  0  0  0  0  0  0  0  0  0
   56.7279   27.9184   43.2229 H   0  0  0  0  0  0  0  0  0  0  0  0
   56.1634   28.7695   44.7163 H   0  0  0  0  0  0  0  0  0  0  0  0
   58.0249   29.7885   42.5288 H   0  0  0  0  0  0  0  0  0  0  0  0
   56.5038   30.5172   43.1493 H   0  0  0  0  0  0  0  0  0  0  0  0
   59.5300   31.7999   46.9026 H   0  0  0  0  0  0  0  0  0  0  0  0
  1  2  2  0
  2  3  1  0
  3  4  2  3
  4  5  1  0
  4  6  1  0
  3  7  1  0
  7  8  1  0
  7  9  2  0
  9 10  1  0
  9 11  1  0
 11 12  1  0
 12 13  2  0
 13 14  1  0
 14 15  2  0
 15 16  1  0
 16 17  1  0
 17 18  2  0
 17 19  1  0
 19 20  1  0
 20 21  1  0
 21 22  1  0
 22 23  1  0
 23 24  2  0
 24 25  1  0
 25 26  2  0
 26 27  1  0
 27 28  2  0
 22 29  1  0
 29 30  1  0
 16 31  2  0
 11  2  1  0
 31 12  1  0
 30 19  1  0
 28 23  1  0
  1 32  1  0
  1 33  1  0
  5 34  1  0
  5 35  1  0
  5 36  1  0
  6 37  1  0
  6 38  1  0
  6 39  1  0
  8 40  1  0
  8 41  1  0
  8 42  1  0
 10 43  1  0
 10 44  1  0
 10 45  1  0
 13 46  1  0
 14 47  1  0
 15 48  1  0
 20 49  1  0
 20 50  1  0
 21 51  1  0
 21 52  1  0
 24 53  1  0
 25 54  1  0
 26 55  1  0
 27 56  1  0
 28 57  1  0
 29 58  1  0
 29 59  1  0
 30 60  1  0
 30 61  1  0
 31 62  1  0
M  END
>  <UniqueID>  (71) 
67

>  <SMILES>  (71) 
C=c1c(=C(C)C)c(C)c(C)n1-c1cccc(C(=O)N2CCN(c3ccccc3)CC2)c1

>  <Energy>  (71) 
124.89170597762

>  <Genealogy>  (71) 
C=c1c(=C(C)C)c(C)c(C)n1-c1cccc(C(=O)N2CCN(c3ccccc3)CC2)c1 (3D coordinates assigned)
C=c1c(=C(C)C)c(C)c(C)n1-c1cccc(C(=O)N2CCN(c3ccccc3)CC2)c1 (nonaromatic ring conformer: 124.89170597762 kcal/mol)

>  <smiles>  (71) 
C=c1c(=C(C)C)c(C)c(C)n1-c1cccc(C(=O)N2CCN(c3ccccc3)CC2)c1

>  <score_type>  (71) 
oracle

>  <origin>  (71) 
adg

>  <m_score__min__energy>  (71) 
-9.2200000000000006

>  <m_primary>  (71) 
energy

$$$$
71:0
     RDKit          3D

 34 35  0  0  0  0  0  0  0  0999 V2000
   57.6229   26.1060   43.1742 H   0  0  0  0  0  0  0  0  0  0  0  0
   57.5440   26.2950   44.2550 C   0  0  0  0  0  0  0  0  0  0  0  0
   56.9940   25.3240   45.0180 C   0  0  0  0  0  0  0  0  0  0  0  0
   55.9550   25.6180   46.0330 C   0  0  0  0  0  0  0  0  0  0  0  0
   56.0770   25.2020   47.2170 O   0  0  0  0  0  0  0  0  0  0  0  0
   54.8210   26.3410   45.6840 O   0  0  0  0  0  0  0  0  0  0  0  0
   57.4840   23.9280   44.8790 C   0  0  0  0  0  0  0  0  0  0  0  0
   58.4560   23.5190   45.5690 O   0  0  0  0  0  0  0  0  0  0  0  0
   56.7200   22.7930   43.7760 Cl  0  0  0  0  0  0  0  0  0  0  0  0
   58.0480   27.5910   44.7580 C   0  0  0  0  0  0  0  0  0  0  0  0
   59.2550   27.6780   45.4730 C   0  0  0  0  0  0  0  0  0  0  0  0
   59.8600   26.7746   45.6397 H   0  0  0  0  0  0  0  0  0  0  0  0
   59.6880   28.9070   45.9720 C   0  0  0  0  0  0  0  0  0  0  0  0
   60.6391   28.9715   46.5208 H   0  0  0  0  0  0  0  0  0  0  0  0
   58.9180   30.0550   45.7770 C   0  0  0  0  0  0  0  0  0  0  0  0
   59.2692   31.0210   46.1688 H   0  0  0  0  0  0  0  0  0  0  0  0
   57.7030   29.9860   45.0870 C   0  0  0  0  0  0  0  0  0  0  0  0
   56.9690   31.1720   44.9170 O   0  0  0  0  0  0  0  0  0  0  0  0
   57.4470   32.3530   44.2700 C   0  0  0  0  0  0  0  0  0  0  0  0
   58.1633   32.0691   43.4849 H   0  0  0  0  0  0  0  0  0  0  0  0
   56.5902   32.8863   43.8325 H   0  0  0  0  0  0  0  0  0  0  0  0
   58.1300   33.2640   45.2550 C   0  0  0  0  0  0  0  0  0  0  0  0
   58.9830   34.2820   44.7980 C   0  0  0  0  0  0  0  0  0  0  0  0
   59.1492   34.4136   43.7186 H   0  0  0  0  0  0  0  0  0  0  0  0
   59.6220   35.1290   45.7090 C   0  0  0  0  0  0  0  0  0  0  0  0
   60.2839   35.9286   45.3451 H   0  0  0  0  0  0  0  0  0  0  0  0
   59.4200   34.9600   47.0820 C   0  0  0  0  0  0  0  0  0  0  0  0
   59.9212   35.6280   47.7980 H   0  0  0  0  0  0  0  0  0  0  0  0
   58.5810   33.9420   47.5450 C   0  0  0  0  0  0  0  0  0  0  0  0
   58.4238   33.8086   48.6255 H   0  0  0  0  0  0  0  0  0  0  0  0
   57.9420   33.0940   46.6370 C   0  0  0  0  0  0  0  0  0  0  0  0
   57.2887   32.2895   47.0058 H   0  0  0  0  0  0  0  0  0  0  0  0
   57.2620   28.7420   44.5930 C   0  0  0  0  0  0  0  0  0  0  0  0
   56.2945   28.6726   44.0742 H   0  0  0  0  0  0  0  0  0  0  0  0
  1  2  1  0
  2  3  2  0
  3  4  1  0
  4  5  2  0
  4  6  1  0
  3  7  1  0
  7  8  2  0
  7  9  1  0
  2 10  1  0
 10 11  2  0
 11 12  1  0
 11 13  1  0
 13 14  1  0
 13 15  2  0
 15 16  1  0
 15 17  1  0
 17 18  1  0
 18 19  1  0
 19 20  1  0
 19 21  1  0
 19 22  1  0
 22 23  2  0
 23 24  1  0
 23 25  1  0
 25 26  1  0
 25 27  2  0
 27 28  1  0
 27 29  1  0
 29 30  1  0
 29 31  2  0
 31 32  1  0
 17 33  2  0
 33 34  1  0
 33 10  1  0
 31 22  1  0
M  CHG  1   6  -1
M  END
>  <UniqueID>  (72) 
68

>  <SMILES>  (72) 
O=C([O-])/C(=C\c1cccc(OCc2ccccc2)c1)C(=O)Cl

>  <Energy>  (72) 
45.70226389547423

>  <Genealogy>  (72) 
O=C([O-])C(=Cc1cccc(OCc2ccccc2)c1)C(=O)Cl (protonated)
O=C([O-])/C(=C\c1cccc(OCc2ccccc2)c1)C(=O)Cl (cis-trans isomerization)
O=C([O-])/C(=C\c1cccc(OCc2ccccc2)c1)C(=O)Cl (3D coordinates assigned)
O=C([O-])/C(=C\c1cccc(OCc2ccccc2)c1)C(=O)Cl (optimized conformer: 45.70226389547423 kcal/mol)

>  <smiles>  (72) 
O=C(O)C(=Cc1cccc(OCc2ccccc2)c1)C(=O)Cl

>  <score_type>  (72) 
oracle

>  <origin>  (72) 
adg

>  <m_score__min__energy>  (72) 
-11.17

>  <m_primary>  (72) 
energy

$$$$
72:0
     RDKit          3D

 59 62  0  0  0  0  0  0  0  0999 V2000
   51.6260   32.7730   51.4370 N   0  0  0  0  0  0  0  0  0  0  0  0
   51.6420   31.0450   51.4330 S   0  0  0  0  0  0  0  0  0  0  0  0
   51.3940   30.5410   50.0390 O   0  0  0  0  0  0  0  0  0  0  0  0
   50.5510   30.5340   52.3310 O   0  0  0  0  0  0  0  0  0  0  0  0
   53.2070   30.4720   52.0010 C   0  0  0  0  0  0  0  0  0  0  0  0
   53.3000   29.2900   52.7460 C   0  0  0  0  0  0  0  0  0  0  0  0
   54.5430   28.8430   53.2010 C   0  0  0  0  0  0  0  0  0  0  0  0
   55.6980   29.5760   52.9200 C   0  0  0  0  0  0  0  0  0  0  0  0
   55.6220   30.7710   52.1820 C   0  0  0  0  0  0  0  0  0  0  0  0
   56.8490   31.5560   51.8910 C   0  0  0  0  0  0  0  0  0  0  0  0
   57.7870   31.0960   50.9490 C   0  0  0  0  0  0  0  0  0  0  0  0
   58.9420   31.8340   50.6770 C   0  0  0  0  0  0  0  0  0  0  0  0
   59.1750   33.0520   51.3330 C   0  0  0  0  0  0  0  0  0  0  0  0
   60.4390   33.8220   51.0720 C   0  0  0  0  0  0  0  0  0  0  0  0
   61.0780   33.3230   49.8500 N   0  0  0  0  0  0  0  0  0  0  0  0
   60.9140   34.2860   48.7550 C   0  0  0  0  0  0  0  0  0  0  0  0
   59.9880   33.7140   47.7170 C   0  0  0  0  0  0  0  0  0  0  0  0
   58.7740   34.3530   47.4210 C   0  0  0  0  0  0  0  0  0  0  0  0
   57.9390   33.8500   46.4200 C   0  0  0  0  0  0  0  0  0  0  0  0
   58.3160   32.7190   45.6780 C   0  0  0  0  0  0  0  0  0  0  0  0
   57.4200   32.1860   44.5740 C   0  0  0  0  0  0  0  0  0  0  0  0
   56.7620   30.8900   44.8800 N   0  0  0  0  0  0  0  0  0  0  0  0
   55.8980   30.3900   43.8040 C   0  0  0  0  0  0  0  0  0  0  0  0
   56.6600   29.3040   43.0560 C   0  0  0  0  0  0  0  0  0  0  0  0
   57.8250   28.9250   43.9550 C   0  0  0  0  0  0  0  0  0  0  0  0
   57.6970   29.8040   45.1920 C   0  0  0  0  0  0  0  0  0  0  0  0
   59.5230   32.0700   45.9910 C   0  0  0  0  0  0  0  0  0  0  0  0
   60.3590   32.5740   46.9910 C   0  0  0  0  0  0  0  0  0  0  0  0
   58.2510   33.5080   52.2850 C   0  0  0  0  0  0  0  0  0  0  0  0
   57.0950   32.7700   52.5570 C   0  0  0  0  0  0  0  0  0  0  0  0
   54.3660   31.2120   51.7270 C   0  0  0  0  0  0  0  0  0  0  0  0
   50.6410   33.0680   51.6220 H   0  0  0  0  0  0  0  0  0  0  0  0
   52.3922   28.7120   52.9735 H   0  0  0  0  0  0  0  0  0  0  0  0
   54.6121   27.9115   53.7820 H   0  0  0  0  0  0  0  0  0  0  0  0
   56.6739   29.2164   53.2783 H   0  0  0  0  0  0  0  0  0  0  0  0
   57.6097   30.1470   50.4218 H   0  0  0  0  0  0  0  0  0  0  0  0
   59.6720   31.4581   49.9450 H   0  0  0  0  0  0  0  0  0  0  0  0
   60.1989   34.8885   50.9498 H   0  0  0  0  0  0  0  0  0  0  0  0
   61.1261   33.6931   51.9213 H   0  0  0  0  0  0  0  0  0  0  0  0
   62.1040   33.2280   50.0410 H   0  0  0  0  0  0  0  0  0  0  0  0
   60.4893   35.2208   49.1497 H   0  0  0  0  0  0  0  0  0  0  0  0
   61.8935   34.4915   48.2984 H   0  0  0  0  0  0  0  0  0  0  0  0
   58.4787   35.2535   47.9794 H   0  0  0  0  0  0  0  0  0  0  0  0
   56.9785   34.3440   46.2115 H   0  0  0  0  0  0  0  0  0  0  0  0
   56.6348   32.9316   44.3801 H   0  0  0  0  0  0  0  0  0  0  0  0
   58.0706   32.0066   43.7053 H   0  0  0  0  0  0  0  0  0  0  0  0
   54.9743   29.9718   44.2306 H   0  0  0  0  0  0  0  0  0  0  0  0
   55.6272   31.2076   43.1198 H   0  0  0  0  0  0  0  0  0  0  0  0
   56.0120   28.4327   42.8802 H   0  0  0  0  0  0  0  0  0  0  0  0
   57.0042   29.6543   42.0717 H   0  0  0  0  0  0  0  0  0  0  0  0
   57.7650   27.8622   44.2323 H   0  0  0  0  0  0  0  0  0  0  0  0
   58.7911   29.0739   43.4505 H   0  0  0  0  0  0  0  0  0  0  0  0
   57.3121   29.2101   46.0341 H   0  0  0  0  0  0  0  0  0  0  0  0
   58.6784   30.2132   45.4739 H   0  0  0  0  0  0  0  0  0  0  0  0
   59.8113   31.1595   45.4452 H   0  0  0  0  0  0  0  0  0  0  0  0
   61.3137   32.0731   47.2096 H   0  0  0  0  0  0  0  0  0  0  0  0
   58.4369   34.4509   52.8202 H   0  0  0  0  0  0  0  0  0  0  0  0
   56.3721   33.1420   53.2979 H   0  0  0  0  0  0  0  0  0  0  0  0
   54.2925   32.1462   51.1509 H   0  0  0  0  0  0  0  0  0  0  0  0
  1  2  1  0
  2  3  2  0
  2  4  2  0
  2  5  1  0
  5  6  2  0
  6  7  1  0
  7  8  2  0
  8  9  1  0
  9 10  1  0
 10 11  2  0
 11 12  1  0
 12 13  2  0
 13 14  1  0
 14 15  1  0
 15 16  1  0
 16 17  1  0
 17 18  2  0
 18 19  1  0
 19 20  2  0
 20 21  1  0
 21 22  1  0
 22 23  1  0
 23 24  1  0
 24 25  1  0
 25 26  1  0
 20 27  1  0
 27 28  2  0
 13 29  1  0
 29 30  2  0
  9 31  2  0
 31  5  1  0
 30 10  1  0
 28 17  1  0
 26 22  1  0
  1 32  1  0
  6 33  1  0
  7 34  1  0
  8 35  1  0
 11 36  1  0
 12 37  1  0
 14 38  1  0
 14 39  1  0
 15 40  1  0
 16 41  1  0
 16 42  1  0
 18 43  1  0
 19 44  1  0
 21 45  1  0
 21 46  1  0
 23 47  1  0
 23 48  1  0
 24 49  1  0
 24 50  1  0
 25 51  1  0
 25 52  1  0
 26 53  1  0
 26 54  1  0
 27 55  1  0
 28 56  1  0
 29 57  1  0
 30 58  1  0
 31 59  1  0
M  CHG  1   1  -1
M  END
>  <UniqueID>  (73) 
69

>  <SMILES>  (73) 
[NH-]S(=O)(=O)c1cccc(-c2ccc(CNCc3ccc(CN4CCCC4)cc3)cc2)c1

>  <Energy>  (73) 
69.6743529566771

>  <Genealogy>  (73) 
[NH-]S(=O)(=O)c1cccc(-c2ccc(CNCc3ccc(CN4CCCC4)cc3)cc2)c1 (protonated)
[NH-]S(=O)(=O)c1cccc(-c2ccc(CNCc3ccc(CN4CCCC4)cc3)cc2)c1 (3D coordinates assigned)
[NH-]S(=O)(=O)c1cccc(-c2ccc(CNCc3ccc(CN4CCCC4)cc3)cc2)c1 (nonaromatic ring conformer: 69.6743529566771 kcal/mol)

>  <smiles>  (73) 
NS(=O)(=O)c1cccc(-c2ccc(CNCc3ccc(CN4CCCC4)cc3)cc2)c1

>  <score_type>  (73) 
oracle

>  <origin>  (73) 
adg

>  <m_score__min__energy>  (73) 
-12.85

>  <m_primary>  (73) 
energy

$$$$
73:0
     RDKit          3D

 56 59  0  0  0  0  0  0  0  0999 V2000
   56.8090   30.9860   42.5980 C   0  0  0  0  0  0  0  0  0  0  0  0
   57.2400   31.1420   43.8540 C   0  0  0  0  0  0  0  0  0  0  0  0
   57.7820   32.2930   44.2990 N   0  0  0  0  0  0  0  0  0  0  0  0
   58.1020   32.1010   45.5950 C   0  0  0  0  0  0  0  0  0  0  0  0
   58.7650   33.1300   46.4800 C   0  0  1  0  0  0  0  0  0  0  0  0
   60.3020   33.0260   46.4030 C   0  0  0  0  0  0  0  0  0  0  0  0
   60.9820   32.1110   47.4580 C   0  0  2  0  0  0  0  0  0  0  0  0
   61.2250   30.6970   46.8620 C   0  0  0  0  0  0  0  0  0  0  0  0
   60.1660   29.8000   47.3600 N   0  0  0  0  0  0  0  0  0  0  0  0
   59.6390   30.4950   48.4840 C   0  0  0  0  0  0  0  0  0  0  0  0
   58.7940   29.9330   49.4460 C   0  0  0  0  0  0  0  0  0  0  0  0
   58.4400   30.6980   50.5720 C   0  0  0  0  0  0  0  0  0  0  0  0
   57.5490   30.1310   51.6000 C   0  0  0  0  0  0  0  0  0  0  0  0
   56.3380   30.4760   51.6180 O   0  0  0  0  0  0  0  0  0  0  0  0
   58.0170   29.2050   52.5870 N   0  0  0  0  0  0  0  0  0  0  0  0
   59.6710   28.7170   52.7930 S   0  0  0  0  0  0  0  0  0  0  0  0
   59.7940   27.4310   54.0180 C   0  0  0  0  0  0  0  0  0  0  0  0
   60.1850   28.1970   51.4810 O   0  0  0  0  0  0  0  0  0  0  0  0
   60.5150   29.8910   53.2070 O   0  0  0  0  0  0  0  0  0  0  0  0
   58.9330   32.0140   50.7010 C   0  0  0  0  0  0  0  0  0  0  0  0
   59.7790   32.5550   49.7230 C   0  0  0  0  0  0  0  0  0  0  0  0
   60.0870   31.7840   48.5990 C   0  0  0  0  0  0  0  0  0  0  0  0
   58.3550   34.4450   46.1450 O   0  0  0  0  0  0  0  0  0  0  0  0
   59.2560   35.0310   45.2300 C   0  0  0  0  0  0  0  0  0  0  0  0
   57.7720   30.8180   45.9890 C   0  0  0  0  0  0  0  0  0  0  0  0
   57.2250   30.1920   44.8780 C   0  0  0  0  0  0  0  0  0  0  0  0
   56.7380   28.9390   44.8210 C   0  0  0  0  0  0  0  0  0  0  0  0
   57.1320   27.8580   45.7420 C   0  0  0  0  0  0  0  0  0  0  0  0
   58.3490   27.7770   46.3070 N   0  0  0  0  0  0  0  0  0  0  0  0
   58.2450   26.7080   47.1270 C   0  0  0  0  0  0  0  0  0  0  0  0
   59.2030   26.3000   47.8330 O   0  0  0  0  0  0  0  0  0  0  0  0
   57.0300   26.1190   47.1370 N   0  0  0  0  0  0  0  0  0  0  0  0
   56.3330   26.8640   46.2660 C   0  0  0  0  0  0  0  0  0  0  0  0
   54.9840   26.6690   45.9970 O   0  0  0  0  0  0  0  0  0  0  0  0
   56.3735   30.0269   42.2811 H   0  0  0  0  0  0  0  0  0  0  0  0
   56.8899   31.8168   41.8816 H   0  0  0  0  0  0  0  0  0  0  0  0
   57.9200   33.1670   43.7460 H   0  0  0  0  0  0  0  0  0  0  0  0
   58.4476   32.9183   47.5117 H   0  0  0  0  0  0  0  0  0  0  0  0
   60.5626   32.6400   45.4064 H   0  0  0  0  0  0  0  0  0  0  0  0
   60.6759   34.0399   46.6085 H   0  0  0  0  0  0  0  0  0  0  0  0
   61.8841   32.6635   47.7595 H   0  0  0  0  0  0  0  0  0  0  0  0
   61.1873   30.7441   45.7637 H   0  0  0  0  0  0  0  0  0  0  0  0
   62.2141   30.3219   47.1636 H   0  0  0  0  0  0  0  0  0  0  0  0
   60.5650   28.8770   47.6540 H   0  0  0  0  0  0  0  0  0  0  0  0
   59.4150   29.6800   46.6420 H   0  0  0  0  0  0  0  0  0  0  0  0
   58.4121   28.9087   49.3241 H   0  0  0  0  0  0  0  0  0  0  0  0
   59.7514   27.8765   55.0228 H   0  0  0  0  0  0  0  0  0  0  0  0
   58.9592   26.7254   53.8940 H   0  0  0  0  0  0  0  0  0  0  0  0
   60.7474   26.8965   53.8940 H   0  0  0  0  0  0  0  0  0  0  0  0
   58.6514   32.6195   51.5751 H   0  0  0  0  0  0  0  0  0  0  0  0
   60.1928   33.5677   49.8382 H   0  0  0  0  0  0  0  0  0  0  0  0
   60.0536   35.5498   45.7820 H   0  0  0  0  0  0  0  0  0  0  0  0
   59.6980   34.2470   44.5975 H   0  0  0  0  0  0  0  0  0  0  0  0
   58.7186   35.7529   44.5975 H   0  0  0  0  0  0  0  0  0  0  0  0
   57.9150   30.3792   46.9875 H   0  0  0  0  0  0  0  0  0  0  0  0
   56.0003   28.7072   44.0387 H   0  0  0  0  0  0  0  0  0  0  0  0
  1  2  2  0
  2  3  1  0
  3  4  1  0
  4  5  1  0
  5  6  1  0
  6  7  1  0
  7  8  1  0
  8  9  1  0
  9 10  1  0
 10 11  2  0
 11 12  1  0
 12 13  1  0
 13 14  2  0
 13 15  1  0
 15 16  1  0
 16 17  1  0
 16 18  2  0
 16 19  2  0
 12 20  2  0
 20 21  1  0
 21 22  2  0
  5 23  1  0
 23 24  1  0
  4 25  2  0
 25 26  1  0
 26 27  2  3
 27 28  1  0
 28 29  1  0
 29 30  1  0
 30 31  2  0
 30 32  1  0
 32 33  1  0
 33 34  1  0
 26  2  1  0
 33 28  2  0
 22  7  1  0
 22 10  1  0
  1 35  1  0
  1 36  1  0
  3 37  1  0
  5 38  1  1
  6 39  1  0
  6 40  1  0
  7 41  1  1
  8 42  1  0
  8 43  1  0
  9 44  1  0
  9 45  1  0
 11 46  1  0
 17 47  1  0
 17 48  1  0
 17 49  1  0
 20 50  1  0
 21 51  1  0
 24 52  1  0
 24 53  1  0
 24 54  1  0
 25 55  1  0
 27 56  1  0
M  CHG  5   9   1  15  -1  29  -1  32  -1  34  -1
M  END
>  <UniqueID>  (74) 
70

>  <SMILES>  (74) 
C=c1[nH]c([C@@H](C[C@@H]2C[NH2+]c3cc(C(=O)[N-]S(C)(=O)=O)ccc32)OC)cc1=Cc1[n-]c(=O)[n-]c1[O-]

>  <Energy>  (74) 
138.68088327078243

>  <Genealogy>  (74) 
C=c1[nH]c(C(CC2C[NH2+]c3cc(C(=O)[N-]S(C)(=O)=O)ccc32)OC)cc1=Cc1[n-]c(=O)[n-]c1[O-] (protonated)
C=c1[nH]c([C@@H](C[C@@H]2C[NH2+]c3cc(C(=O)[N-]S(C)(=O)=O)ccc32)OC)cc1=Cc1[n-]c(=O)[n-]c1[O-] (chirality)
C=c1[nH]c([C@@H](C[C@@H]2C[NH2+]c3cc(C(=O)[N-]S(C)(=O)=O)ccc32)OC)cc1=Cc1[n-]c(=O)[n-]c1[O-] (3D coordinates assigned)
C=c1[nH]c([C@@H](C[C@@H]2C[NH2+]c3cc(C(=O)[N-]S(C)(=O)=O)ccc32)OC)cc1=Cc1[n-]c(=O)[n-]c1[O-] (nonaromatic ring conformer: 138.68088327078243 kcal/mol)

>  <smiles>  (74) 
C=c1[nH]c(C(CC2CNc3cc(C(=O)NS(C)(=O)=O)ccc32)OC)cc1=Cc1[nH]c(=O)[nH]c1O

>  <score_type>  (74) 
oracle

>  <origin>  (74) 
adg

>  <m_score__min__energy>  (74) 
-18.829999999999998

>  <m_primary>  (74) 
energy

$$$$
74:0
     RDKit          3D

 49 51  0  0  0  0  0  0  0  0999 V2000
   57.8403   34.6938   44.2178 H   0  0  0  0  0  0  0  0  0  0  0  0
   57.9630   33.9850   45.0500 C   0  0  0  0  0  0  0  0  0  0  0  0
   58.4100   34.4790   46.2150 C   0  0  0  0  0  0  0  0  0  0  0  0
   57.7369   35.1491   46.7699 H   0  0  0  0  0  0  0  0  0  0  0  0
   59.7300   34.1980   46.8140 C   0  0  0  0  0  0  0  0  0  0  0  0
   59.9140   34.1930   48.2070 C   0  0  0  0  0  0  0  0  0  0  0  0
   59.0574   34.3759   48.8724 H   0  0  0  0  0  0  0  0  0  0  0  0
   61.1790   33.9570   48.7520 C   0  0  0  0  0  0  0  0  0  0  0  0
   61.3089   33.9313   49.8440 H   0  0  0  0  0  0  0  0  0  0  0  0
   62.2880   33.7520   47.9090 C   0  0  0  0  0  0  0  0  0  0  0  0
   63.5830   33.5140   48.3990 O   0  0  0  0  0  0  0  0  0  0  0  0
   63.9600   33.4880   49.7770 C   0  0  0  0  0  0  0  0  0  0  0  0
   64.4847   34.4236   50.0207 H   0  0  0  0  0  0  0  0  0  0  0  0
   63.0466   33.3795   50.3803 H   0  0  0  0  0  0  0  0  0  0  0  0
   64.8850   32.3020   50.0910 C   0  0  0  0  0  0  0  0  0  0  0  0
   65.3067   31.9325   49.1446 H   0  0  0  0  0  0  0  0  0  0  0  0
   65.6557   32.6743   50.7820 H   0  0  0  0  0  0  0  0  0  0  0  0
   64.1820   31.1280   50.7990 C   0  0  0  0  0  0  0  0  0  0  0  0
   64.4004   30.2045   50.2426 H   0  0  0  0  0  0  0  0  0  0  0  0
   64.5658   31.0944   51.8293 H   0  0  0  0  0  0  0  0  0  0  0  0
   62.6620   31.2920   50.8890 C   0  0  0  0  0  0  0  0  0  0  0  0
   62.3618   31.3251   51.9467 H   0  0  0  0  0  0  0  0  0  0  0  0
   62.3708   32.2267   50.3874 H   0  0  0  0  0  0  0  0  0  0  0  0
   62.0120   30.1980   50.2490 O   0  0  0  0  0  0  0  0  0  0  0  0
   61.0800   30.3280   49.2090 C   0  0  0  0  0  0  0  0  0  0  0  0
   59.6940   30.2060   49.4150 C   0  0  0  0  0  0  0  0  0  0  0  0
   59.2992   29.9965   50.4201 H   0  0  0  0  0  0  0  0  0  0  0  0
   58.8230   30.3530   48.3330 C   0  0  0  0  0  0  0  0  0  0  0  0
   57.7378   30.2605   48.4870 H   0  0  0  0  0  0  0  0  0  0  0  0
   59.3110   30.6100   47.0900 N   0  0  0  0  0  0  0  0  0  0  0  0
   58.6460   30.7210   46.2920 H   0  0  0  0  0  0  0  0  0  0  0  0
   60.6470   30.7280   46.8640 C   0  0  0  0  0  0  0  0  0  0  0  0
   61.0157   30.9318   45.8479 H   0  0  0  0  0  0  0  0  0  0  0  0
   61.5520   30.5910   47.9190 C   0  0  0  0  0  0  0  0  0  0  0  0
   62.6322   30.6896   47.7359 H   0  0  0  0  0  0  0  0  0  0  0  0
   62.1040   33.7820   46.5220 C   0  0  0  0  0  0  0  0  0  0  0  0
   62.9638   33.6215   45.8549 H   0  0  0  0  0  0  0  0  0  0  0  0
   60.8380   34.0140   45.9760 C   0  0  0  0  0  0  0  0  0  0  0  0
   60.7111   34.0523   44.8840 H   0  0  0  0  0  0  0  0  0  0  0  0
   57.6220   32.5740   44.7890 C   0  0  0  0  0  0  0  0  0  0  0  0
   57.4030   31.6960   45.7410 O   0  0  0  0  0  0  0  0  0  0  0  0
   57.0820   30.5350   45.2490 N   0  0  0  0  0  0  0  0  0  0  0  0
   57.0930   30.6660   43.9090 C   0  0  0  0  0  0  0  0  0  0  0  0
   56.7200   29.5790   42.9570 C   0  0  0  0  0  0  0  0  0  0  0  0
   56.4136   28.6861   43.5217 H   0  0  0  0  0  0  0  0  0  0  0  0
   55.8862   29.9163   42.3238 H   0  0  0  0  0  0  0  0  0  0  0  0
   57.5852   29.3333   42.3238 H   0  0  0  0  0  0  0  0  0  0  0  0
   57.4160   31.9600   43.5670 C   0  0  0  0  0  0  0  0  0  0  0  0
   57.4920   32.4003   42.5618 H   0  0  0  0  0  0  0  0  0  0  0  0
  1  2  1  0
  2  3  2  0
  3  4  1  0
  3  5  1  0
  5  6  2  0
  6  7  1  0
  6  8  1  0
  8  9  1  0
  8 10  2  0
 10 11  1  0
 11 12  1  0
 12 13  1  0
 12 14  1  0
 12 15  1  0
 15 16  1  0
 15 17  1  0
 15 18  1  0
 18 19  1  0
 18 20  1  0
 18 21  1  0
 21 22  1  0
 21 23  1  0
 21 24  1  0
 24 25  1  0
 25 26  2  0
 26 27  1  0
 26 28  1  0
 28 29  1  0
 28 30  2  0
 30 31  1  0
 30 32  1  0
 32 33  1  0
 32 34  2  0
 34 35  1  0
 10 36  1  0
 36 37  1  0
 36 38  2  0
 38 39  1  0
  2 40  1  0
 40 41  1  0
 41 42  1  0
 42 43  2  0
 43 44  1  0
 44 45  1  0
 44 46  1  0
 44 47  1  0
 43 48  1  0
 48 49  1  0
 38  5  1  0
 48 40  2  0
 34 25  1  0
M  CHG  1  30   1
M  END
>  <UniqueID>  (75) 
71

>  <SMILES>  (75) 
Cc1cc(/C=C\c2ccc(OCCCCOc3cc[nH+]cc3)cc2)on1

>  <Energy>  (75) 
83.16678032442825

>  <Genealogy>  (75) 
Cc1cc(C=Cc2ccc(OCCCCOc3cc[nH+]cc3)cc2)on1 (protonated)
Cc1cc(/C=C\c2ccc(OCCCCOc3cc[nH+]cc3)cc2)on1 (cis-trans isomerization)
Cc1cc(/C=C\c2ccc(OCCCCOc3cc[nH+]cc3)cc2)on1 (3D coordinates assigned)
Cc1cc(/C=C\c2ccc(OCCCCOc3cc[nH+]cc3)cc2)on1 (optimized conformer: 83.16678032442825 kcal/mol)

>  <smiles>  (75) 
Cc1cc(C=Cc2ccc(OCCCCOc3ccncc3)cc2)on1

>  <score_type>  (75) 
oracle

>  <origin>  (75) 
adg

>  <m_score__min__energy>  (75) 
-7.25

>  <m_primary>  (75) 
energy

$$$$
75:0
     RDKit          3D

 35 37  0  0  0  0  0  0  0  0999 V2000
   54.7560   26.3280   45.9930 N   0  0  0  0  0  0  0  0  0  0  0  0
   54.9700   24.9490   45.6990 C   0  0  0  0  0  0  0  0  0  0  0  0
   54.0080   24.2410   45.2980 O   0  0  0  0  0  0  0  0  0  0  0  0
   56.3150   24.3300   45.9100 C   0  0  0  0  0  0  0  0  0  0  0  0
   57.1260   25.0470   47.3820 S   0  0  0  0  0  0  0  0  0  0  0  0
   57.8610   26.4230   46.5020 C   0  0  0  0  0  0  0  0  0  0  0  0
   57.2840   27.0340   45.4450 N   0  0  0  0  0  0  0  0  0  0  0  0
   58.0260   28.0230   44.9470 N   0  0  0  0  0  0  0  0  0  0  0  0
   57.5510   28.8350   43.8230 C   0  0  0  0  0  0  0  0  0  0  0  0
   56.7660   30.0590   44.3090 C   0  0  0  0  0  0  0  0  0  0  0  0
   57.5160   31.3360   44.0630 C   0  0  0  0  0  0  0  0  0  0  0  0
   57.8790   31.8550   42.8240 C   0  0  0  0  0  0  0  0  0  0  0  0
   58.5010   33.0470   42.9760 N   0  0  0  0  0  0  0  0  0  0  0  0
   58.5230   33.2900   44.2980 C   0  0  0  0  0  0  0  0  0  0  0  0
   59.0420   34.4120   44.9410 C   0  0  0  0  0  0  0  0  0  0  0  0
   58.9400   34.4730   46.3430 C   0  0  0  0  0  0  0  0  0  0  0  0
   58.3270   33.4230   47.0620 C   0  0  0  0  0  0  0  0  0  0  0  0
   57.8100   32.3030   46.3860 C   0  0  0  0  0  0  0  0  0  0  0  0
   57.9260   32.2700   44.9950 C   0  0  0  0  0  0  0  0  0  0  0  0
   59.2000   28.2010   45.6080 C   0  0  0  0  0  0  0  0  0  0  0  0
   60.3350   29.3230   45.2360 S   0  0  0  0  0  0  0  0  0  0  0  0
   59.3560   27.1040   46.8750 S   0  0  0  0  0  0  0  0  0  0  0  0
   55.1420   27.0740   45.3730 H   0  0  0  0  0  0  0  0  0  0  0  0
   56.1959   23.2460   46.0543 H   0  0  0  0  0  0  0  0  0  0  0  0
   56.9404   24.5287   45.0272 H   0  0  0  0  0  0  0  0  0  0  0  0
   58.4170   29.1752   43.2362 H   0  0  0  0  0  0  0  0  0  0  0  0
   56.8811   28.2162   43.2078 H   0  0  0  0  0  0  0  0  0  0  0  0
   55.8057   30.1014   43.7742 H   0  0  0  0  0  0  0  0  0  0  0  0
   56.6106   29.9571   45.3932 H   0  0  0  0  0  0  0  0  0  0  0  0
   57.6874   31.3655   41.8577 H   0  0  0  0  0  0  0  0  0  0  0  0
   58.8710   33.6590   42.2160 H   0  0  0  0  0  0  0  0  0  0  0  0
   59.5164   35.2242   44.3707 H   0  0  0  0  0  0  0  0  0  0  0  0
   59.3402   35.3440   46.8826 H   0  0  0  0  0  0  0  0  0  0  0  0
   58.2534   33.4816   48.1580 H   0  0  0  0  0  0  0  0  0  0  0  0
   57.3299   31.4798   46.9355 H   0  0  0  0  0  0  0  0  0  0  0  0
  1  2  1  0
  2  3  2  0
  2  4  1  0
  4  5  1  0
  5  6  1  0
  6  7  2  0
  7  8  1  0
  8  9  1  0
  9 10  1  0
 10 11  1  0
 11 12  2  0
 12 13  1  0
 13 14  1  0
 14 15  2  0
 15 16  1  0
 16 17  2  0
 17 18  1  0
 18 19  2  0
  8 20  1  0
 20 21  2  0
 20 22  1  0
 22  6  1  0
 19 11  1  0
 19 14  1  0
  1 23  1  0
  4 24  1  0
  4 25  1  0
  9 26  1  0
  9 27  1  0
 10 28  1  0
 10 29  1  0
 12 30  1  0
 13 31  1  0
 15 32  1  0
 16 33  1  0
 17 34  1  0
 18 35  1  0
M  CHG  1   1  -1
M  END
>  <UniqueID>  (76) 
72

>  <SMILES>  (76) 
[NH-]C(=O)CSc1nn(CCc2c[nH]c3ccccc23)c(=S)s1

>  <Energy>  (76) 
92.00860896647944

>  <Genealogy>  (76) 
[NH-]C(=O)CSc1nn(CCc2c[nH]c3ccccc23)c(=S)s1 (protonated)
[NH-]C(=O)CSc1nn(CCc2c[nH]c3ccccc23)c(=S)s1 (3D coordinates assigned)
[NH-]C(=O)CSc1nn(CCc2c[nH]c3ccccc23)c(=S)s1 (optimized conformer: 92.00860896647944 kcal/mol)

>  <smiles>  (76) 
NC(=O)CSc1nn(CCc2c[nH]c3ccccc23)c(=S)s1

>  <score_type>  (76) 
oracle

>  <origin>  (76) 
adg

>  <m_score__min__energy>  (76) 
-11.08

>  <m_primary>  (76) 
energy

$$$$
76:0
     RDKit          3D

 60 63  0  0  0  0  0  0  0  0999 V2000
   58.2550   32.7220   42.7800 N   0  0  0  0  0  0  0  0  0  0  0  0
   58.2950   33.1440   44.1490 C   0  0  0  0  0  0  0  0  0  0  0  0
   59.1470   34.2000   44.5150 C   0  0  0  0  0  0  0  0  0  0  0  0
   59.1390   34.7000   45.8190 C   0  0  0  0  0  0  0  0  0  0  0  0
   58.2700   34.1620   46.7680 C   0  0  0  0  0  0  0  0  0  0  0  0
   57.4210   33.1080   46.4210 C   0  0  0  0  0  0  0  0  0  0  0  0
   57.4470   32.5710   45.1260 C   0  0  0  0  0  0  0  0  0  0  0  0
   56.5860   31.4620   44.8340 N   0  0  0  0  0  0  0  0  0  0  0  0
   56.9440   30.3130   44.0530 C   0  0  0  0  0  0  0  0  0  0  0  0
   56.7180   30.3340   42.8140 O   0  0  0  0  0  0  0  0  0  0  0  0
   57.5400   29.0980   44.6620 C   0  0  0  0  0  0  0  0  0  0  0  0
   57.9100   29.1020   46.0170 C   0  0  0  0  0  0  0  0  0  0  0  0
   58.5410   27.9900   46.5830 C   0  0  0  0  0  0  0  0  0  0  0  0
   58.8270   26.8630   45.7990 C   0  0  0  0  0  0  0  0  0  0  0  0
   59.5440   25.6790   46.3890 C   0  0  0  0  0  0  0  0  0  0  0  0
   58.6790   24.5070   46.3780 N   0  0  0  0  0  0  0  0  0  0  0  0
   58.8600   23.3980   45.4920 C   0  0  0  0  0  0  0  0  0  0  0  0
   59.9380   22.7430   45.4990 O   0  0  0  0  0  0  0  0  0  0  0  0
   57.7710   23.0390   44.5280 C   0  0  0  0  0  0  0  0  0  0  0  0
   56.4730   23.6890   44.9040 C   0  0  0  0  0  0  0  0  0  0  0  0
   56.2930   25.0230   45.2270 C   0  0  0  0  0  0  0  0  0  0  0  0
   54.9630   25.1480   45.5810 C   0  0  0  0  0  0  0  0  0  0  0  0
   54.3700   26.3350   45.9950 O   0  0  0  0  0  0  0  0  0  0  0  0
   54.3190   23.9630   45.4930 N   0  0  0  0  0  0  0  0  0  0  0  0
   52.9100   23.6700   45.7910 C   0  0  0  0  0  0  0  0  0  0  0  0
   52.0320   23.7980   44.5230 C   0  0  0  0  0  0  0  0  0  0  0  0
   50.7330   22.9670   44.6000 C   0  0  0  0  0  0  0  0  0  0  0  0
   50.2530   22.7830   46.0440 C   0  0  0  0  0  0  0  0  0  0  0  0
   51.2970   22.0440   46.9050 C   0  0  0  0  0  0  0  0  0  0  0  0
   52.7520   22.2920   46.4560 C   0  0  0  0  0  0  0  0  0  0  0  0
   55.2500   23.0700   45.0960 C   0  0  0  0  0  0  0  0  0  0  0  0
   55.0030   21.7120   44.9200 O   0  0  0  0  0  0  0  0  0  0  0  0
   58.4380   26.8480   44.4520 C   0  0  0  0  0  0  0  0  0  0  0  0
   57.8080   27.9590   43.8850 C   0  0  0  0  0  0  0  0  0  0  0  0
   57.6700   31.9180   42.4680 H   0  0  0  0  0  0  0  0  0  0  0  0
   58.7230   33.2850   42.0370 H   0  0  0  0  0  0  0  0  0  0  0  0
   59.8261   34.6366   43.7679 H   0  0  0  0  0  0  0  0  0  0  0  0
   59.8186   35.5188   46.0978 H   0  0  0  0  0  0  0  0  0  0  0  0
   58.2530   34.5677   47.7903 H   0  0  0  0  0  0  0  0  0  0  0  0
   56.7273   32.6966   47.1690 H   0  0  0  0  0  0  0  0  0  0  0  0
   57.7019   29.9863   46.6373 H   0  0  0  0  0  0  0  0  0  0  0  0
   58.8144   27.9992   47.6484 H   0  0  0  0  0  0  0  0  0  0  0  0
   60.4467   25.4693   45.7965 H   0  0  0  0  0  0  0  0  0  0  0  0
   59.8205   25.9098   47.4284 H   0  0  0  0  0  0  0  0  0  0  0  0
   58.0601   23.3729   43.5206 H   0  0  0  0  0  0  0  0  0  0  0  0
   57.6323   21.9480   44.5521 H   0  0  0  0  0  0  0  0  0  0  0  0
   57.0518   25.8191   45.2062 H   0  0  0  0  0  0  0  0  0  0  0  0
   52.5567   24.4212   46.5128 H   0  0  0  0  0  0  0  0  0  0  0  0
   51.7633   24.8562   44.3885 H   0  0  0  0  0  0  0  0  0  0  0  0
   52.6191   23.4116   43.6768 H   0  0  0  0  0  0  0  0  0  0  0  0
   49.9475   23.4822   44.0277 H   0  0  0  0  0  0  0  0  0  0  0  0
   50.9418   21.9711   44.1822 H   0  0  0  0  0  0  0  0  0  0  0  0
   50.0640   23.7728   46.4852 H   0  0  0  0  0  0  0  0  0  0  0  0
   49.3353   22.1769   46.0245 H   0  0  0  0  0  0  0  0  0  0  0  0
   51.1916   22.3821   47.9464 H   0  0  0  0  0  0  0  0  0  0  0  0
   51.1035   20.9668   46.7944 H   0  0  0  0  0  0  0  0  0  0  0  0
   53.4108   22.2419   47.3354 H   0  0  0  0  0  0  0  0  0  0  0  0
   53.0221   21.5206   45.7198 H   0  0  0  0  0  0  0  0  0  0  0  0
   58.6300   25.9560   43.8376 H   0  0  0  0  0  0  0  0  0  0  0  0
   57.5201   27.9414   42.8235 H   0  0  0  0  0  0  0  0  0  0  0  0
  1  2  1  0
  2  3  2  0
  3  4  1  0
  4  5  2  0
  5  6  1  0
  6  7  2  0
  7  8  1  0
  8  9  1  0
  9 10  2  0
  9 11  1  0
 11 12  2  0
 12 13  1  0
 13 14  2  0
 14 15  1  0
 15 16  1  0
 16 17  1  0
 17 18  2  0
 17 19  1  0
 19 20  1  0
 20 21  1  0
 21 22  2  0
 22 23  1  0
 22 24  1  0
 24 25  1  0
 25 26  1  0
 26 27  1  0
 27 28  1  0
 28 29  1  0
 29 30  1  0
 24 31  1  0
 31 32  1  0
 14 33  1  0
 33 34  2  0
  7  2  1  0
 34 11  1  0
 31 20  2  0
 30 25  1  0
  1 35  1  0
  1 36  1  0
  3 37  1  0
  4 38  1  0
  5 39  1  0
  6 40  1  0
 12 41  1  0
 13 42  1  0
 15 43  1  0
 15 44  1  0
 19 45  1  0
 19 46  1  0
 21 47  1  0
 25 48  1  0
 26 49  1  0
 26 50  1  0
 27 51  1  0
 27 52  1  0
 28 53  1  0
 28 54  1  0
 29 55  1  0
 29 56  1  0
 30 57  1  0
 30 58  1  0
 33 59  1  0
 34 60  1  0
M  CHG  4   8  -1  16  -1  23  -1  32  -1
M  END
>  <UniqueID>  (77) 
73

>  <SMILES>  (77) 
Nc1ccccc1[N-]C(=O)c1ccc(C[N-]C(=O)Cc2cc([O-])n(C3CCCCC3)c2[O-])cc1

>  <Energy>  (77) 
96.31718832711464

>  <Genealogy>  (77) 
Nc1ccccc1[N-]C(=O)c1ccc(C[N-]C(=O)Cc2cc([O-])n(C3CCCCC3)c2[O-])cc1 (protonated)
Nc1ccccc1[N-]C(=O)c1ccc(C[N-]C(=O)Cc2cc([O-])n(C3CCCCC3)c2[O-])cc1 (3D coordinates assigned)
Nc1ccccc1[N-]C(=O)c1ccc(C[N-]C(=O)Cc2cc([O-])n(C3CCCCC3)c2[O-])cc1 (nonaromatic ring conformer: 96.31718832711464 kcal/mol)

>  <smiles>  (77) 
Nc1ccccc1NC(=O)c1ccc(CNC(=O)Cc2cc(O)n(C3CCCCC3)c2O)cc1

>  <score_type>  (77) 
oracle

>  <origin>  (77) 
adg

>  <m_score__min__energy>  (77) 
-17.300000000000001

>  <m_primary>  (77) 
energy

$$$$
77:0
     RDKit          3D

 45 47  0  0  0  0  0  0  0  0999 V2000
   55.9220   30.2240   44.8190 O   0  0  0  0  0  0  0  0  0  0  0  0
   56.8840   29.9720   44.0460 C   0  0  0  0  0  0  0  0  0  0  0  0
   57.0210   28.6490   43.5170 N   0  0  0  0  0  0  0  0  0  0  0  0
   58.1970   27.8030   43.7090 C   0  0  0  0  0  0  0  0  0  0  0  0
   58.8920   28.1460   45.0080 C   0  0  0  0  0  0  0  0  0  0  0  0
   60.0410   28.9570   44.9630 C   0  0  0  0  0  0  0  0  0  0  0  0
   60.7270   29.2850   46.1340 C   0  0  0  0  0  0  0  0  0  0  0  0
   60.2710   28.8180   47.3650 C   0  0  0  0  0  0  0  0  0  0  0  0
   59.1240   28.0250   47.4310 C   0  0  0  0  0  0  0  0  0  0  0  0
   58.4250   27.6900   46.2640 C   0  0  0  0  0  0  0  0  0  0  0  0
   56.9720   26.7080   46.4330 Cl  0  0  0  0  0  0  0  0  0  0  0  0
   57.8080   31.0090   43.6850 N   0  0  0  0  0  0  0  0  0  0  0  0
   58.1570   32.1060   44.5450 C   0  0  0  0  0  0  0  0  0  0  0  0
   58.0430   33.4420   44.1150 C   0  0  0  0  0  0  0  0  0  0  0  0
   58.3620   34.4900   44.9820 C   0  0  0  0  0  0  0  0  0  0  0  0
   58.7900   34.2190   46.2830 C   0  0  0  0  0  0  0  0  0  0  0  0
   58.8960   32.8960   46.7290 C   0  0  0  0  0  0  0  0  0  0  0  0
   59.4450   32.5520   48.3710 S   0  0  0  0  0  0  0  0  0  0  0  0
   59.3190   33.7970   49.2040 O   0  0  0  0  0  0  0  0  0  0  0  0
   58.5590   31.5000   48.9780 O   0  0  0  0  0  0  0  0  0  0  0  0
   61.1060   32.0010   48.4060 N   0  0  0  0  0  0  0  0  0  0  0  0
   61.9020   32.7770   49.3630 C   0  0  0  0  0  0  0  0  0  0  0  0
   62.6540   33.8550   48.5970 C   0  0  0  0  0  0  0  0  0  0  0  0
   62.5730   33.4580   47.1370 C   0  0  0  0  0  0  0  0  0  0  0  0
   61.7520   32.1760   47.1010 C   0  0  0  0  0  0  0  0  0  0  0  0
   58.5650   31.8450   45.8610 C   0  0  0  0  0  0  0  0  0  0  0  0
   57.8840   26.7488   43.7336 H   0  0  0  0  0  0  0  0  0  0  0  0
   58.8960   27.9725   42.8768 H   0  0  0  0  0  0  0  0  0  0  0  0
   60.4023   29.3363   43.9958 H   0  0  0  0  0  0  0  0  0  0  0  0
   61.6288   29.9130   46.0847 H   0  0  0  0  0  0  0  0  0  0  0  0
   60.8154   29.0744   48.2858 H   0  0  0  0  0  0  0  0  0  0  0  0
   58.7667   27.6608   48.4056 H   0  0  0  0  0  0  0  0  0  0  0  0
   58.2140   30.9890   42.7230 H   0  0  0  0  0  0  0  0  0  0  0  0
   57.7015   33.6613   43.0926 H   0  0  0  0  0  0  0  0  0  0  0  0
   58.2757   35.5315   44.6387 H   0  0  0  0  0  0  0  0  0  0  0  0
   59.0448   35.0477   46.9600 H   0  0  0  0  0  0  0  0  0  0  0  0
   61.2388   33.2433   50.1064 H   0  0  0  0  0  0  0  0  0  0  0  0
   62.6118   32.1194   49.8862 H   0  0  0  0  0  0  0  0  0  0  0  0
   62.1819   34.8361   48.7538 H   0  0  0  0  0  0  0  0  0  0  0  0
   63.6971   33.9391   48.9360 H   0  0  0  0  0  0  0  0  0  0  0  0
   62.0773   34.2470   46.5524 H   0  0  0  0  0  0  0  0  0  0  0  0
   63.5723   33.3114   46.7011 H   0  0  0  0  0  0  0  0  0  0  0  0
   60.9863   32.2475   46.3145 H   0  0  0  0  0  0  0  0  0  0  0  0
   62.4037   31.3167   46.8845 H   0  0  0  0  0  0  0  0  0  0  0  0
   58.6261   30.8057   46.2162 H   0  0  0  0  0  0  0  0  0  0  0  0
  1  2  2  0
  2  3  1  0
  3  4  1  0
  4  5  1  0
  5  6  2  0
  6  7  1  0
  7  8  2  0
  8  9  1  0
  9 10  2  0
 10 11  1  0
  2 12  1  0
 12 13  1  0
 13 14  2  0
 14 15  1  0
 15 16  2  0
 16 17  1  0
 17 18  1  0
 18 19  2  0
 18 20  2  0
 18 21  1  0
 21 22  1  0
 22 23  1  0
 23 24  1  0
 24 25  1  0
 17 26  2  0
 10  5  1  0
 26 13  1  0
 25 21  1  0
  4 27  1  0
  4 28  1  0
  6 29  1  0
  7 30  1  0
  8 31  1  0
  9 32  1  0
 12 33  1  0
 14 34  1  0
 15 35  1  0
 16 36  1  0
 22 37  1  0
 22 38  1  0
 23 39  1  0
 23 40  1  0
 24 41  1  0
 24 42  1  0
 25 43  1  0
 25 44  1  0
 26 45  1  0
M  CHG  1   3  -1
M  END
>  <UniqueID>  (78) 
74

>  <SMILES>  (78) 
O=C([N-]Cc1ccccc1Cl)Nc1cccc(S(=O)(=O)N2CCCC2)c1

>  <Energy>  (78) 
48.768425857655444

>  <Genealogy>  (78) 
O=C([N-]Cc1ccccc1Cl)Nc1cccc(S(=O)(=O)N2CCCC2)c1 (protonated)
O=C([N-]Cc1ccccc1Cl)Nc1cccc(S(=O)(=O)N2CCCC2)c1 (3D coordinates assigned)
O=C([N-]Cc1ccccc1Cl)Nc1cccc(S(=O)(=O)N2CCCC2)c1 (nonaromatic ring conformer: 48.768425857655444 kcal/mol)

>  <smiles>  (78) 
O=C(NCc1ccccc1Cl)Nc1cccc(S(=O)(=O)N2CCCC2)c1

>  <score_type>  (78) 
oracle

>  <origin>  (78) 
adg

>  <m_score__min__energy>  (78) 
-11.220000000000001

>  <m_primary>  (78) 
energy

$$$$
78:0
     RDKit          3D

 39 41  0  0  0  0  0  0  0  0999 V2000
   65.5480   32.7440   50.0520 C   0  0  0  0  0  0  0  0  0  0  0  0
   64.4860   33.0780   49.1150 N   0  0  0  0  0  0  0  0  0  0  0  0
   63.3470   33.8650   49.4810 C   0  0  0  0  0  0  0  0  0  0  0  0
   63.3790   34.5550   50.5360 O   0  0  0  0  0  0  0  0  0  0  0  0
   62.1360   33.8690   48.6260 C   0  0  0  0  0  0  0  0  0  0  0  0
   60.8770   34.1740   49.1740 C   0  0  0  0  0  0  0  0  0  0  0  0
   59.7350   34.1790   48.3670 C   0  0  0  0  0  0  0  0  0  0  0  0
   59.8290   33.8940   47.0020 C   0  0  0  0  0  0  0  0  0  0  0  0
   58.6570   33.8990   46.2300 O   0  0  0  0  0  0  0  0  0  0  0  0
   58.3770   33.0220   45.1730 C   0  0  0  0  0  0  0  0  0  0  0  0
   58.1730   31.6470   45.3850 C   0  0  0  0  0  0  0  0  0  0  0  0
   57.9080   30.8010   44.2950 C   0  0  0  0  0  0  0  0  0  0  0  0
   57.6750   29.3510   44.5040 C   0  0  0  0  0  0  0  0  0  0  0  0
   56.8570   28.7910   45.4750 C   0  0  0  0  0  0  0  0  0  0  0  0
   56.9420   27.4220   45.3050 C   0  0  0  0  0  0  0  0  0  0  0  0
   56.2480   26.3980   46.0990 C   0  0  0  0  0  0  0  0  0  0  0  0
   54.8240   26.3860   46.1640 N   0  0  0  0  0  0  0  0  0  0  0  0
   56.9100   25.5280   46.7250 O   0  0  0  0  0  0  0  0  0  0  0  0
   57.8030   27.1980   44.2490 C   0  0  0  0  0  0  0  0  0  0  0  0
   58.2450   28.3730   43.7650 N   0  0  0  0  0  0  0  0  0  0  0  0
   57.8750   31.3560   43.0040 C   0  0  0  0  0  0  0  0  0  0  0  0
   58.1040   32.7210   42.8310 C   0  0  0  0  0  0  0  0  0  0  0  0
   58.3500   33.5140   43.9060 N   0  0  0  0  0  0  0  0  0  0  0  0
   61.0800   33.5670   46.4530 C   0  0  0  0  0  0  0  0  0  0  0  0
   62.2240   33.5600   47.2570 C   0  0  0  0  0  0  0  0  0  0  0  0
   65.1785   32.8602   51.0816 H   0  0  0  0  0  0  0  0  0  0  0  0
   65.8647   31.7029   49.8914 H   0  0  0  0  0  0  0  0  0  0  0  0
   66.4036   33.4164   49.8914 H   0  0  0  0  0  0  0  0  0  0  0  0
   60.7901   34.4102   50.2448 H   0  0  0  0  0  0  0  0  0  0  0  0
   58.7548   34.4091   48.8101 H   0  0  0  0  0  0  0  0  0  0  0  0
   58.2208   31.2340   46.4034 H   0  0  0  0  0  0  0  0  0  0  0  0
   56.2613   29.3281   46.2278 H   0  0  0  0  0  0  0  0  0  0  0  0
   54.3080   27.0890   46.7380 H   0  0  0  0  0  0  0  0  0  0  0  0
   58.0851   26.2078   43.8617 H   0  0  0  0  0  0  0  0  0  0  0  0
   58.9220   28.4860   42.9810 H   0  0  0  0  0  0  0  0  0  0  0  0
   57.6693   30.7161   42.1332 H   0  0  0  0  0  0  0  0  0  0  0  0
   58.0853   33.1565   41.8211 H   0  0  0  0  0  0  0  0  0  0  0  0
   61.1601   33.3152   45.3852 H   0  0  0  0  0  0  0  0  0  0  0  0
   63.2001   33.3109   46.8153 H   0  0  0  0  0  0  0  0  0  0  0  0
  1  2  1  0
  2  3  1  0
  3  4  2  0
  3  5  1  0
  5  6  2  0
  6  7  1  0
  7  8  2  0
  8  9  1  0
  9 10  1  0
 10 11  2  0
 11 12  1  0
 12 13  1  0
 13 14  2  0
 14 15  1  0
 15 16  1  0
 16 17  1  0
 16 18  2  0
 15 19  2  0
 19 20  1  0
 12 21  2  0
 21 22  1  0
 22 23  2  0
  8 24  1  0
 24 25  2  0
 25  5  1  0
 23 10  1  0
 20 13  1  0
  1 26  1  0
  1 27  1  0
  1 28  1  0
  6 29  1  0
  7 30  1  0
 11 31  1  0
 14 32  1  0
 17 33  1  0
 19 34  1  0
 20 35  1  0
 21 36  1  0
 22 37  1  0
 24 38  1  0
 25 39  1  0
M  CHG  2   2  -1  17  -1
M  END
>  <UniqueID>  (79) 
75

>  <SMILES>  (79) 
C[N-]C(=O)c1ccc(Oc2cc(-c3cc(C([NH-])=O)c[nH]3)ccn2)cc1

>  <Energy>  (79) 
73.56578522623359

>  <Genealogy>  (79) 
C[N-]C(=O)c1ccc(Oc2cc(-c3cc(C([NH-])=O)c[nH]3)ccn2)cc1 (protonated)
C[N-]C(=O)c1ccc(Oc2cc(-c3cc(C([NH-])=O)c[nH]3)ccn2)cc1 (3D coordinates assigned)
C[N-]C(=O)c1ccc(Oc2cc(-c3cc(C([NH-])=O)c[nH]3)ccn2)cc1 (optimized conformer: 73.56578522623359 kcal/mol)

>  <smiles>  (79) 
CNC(=O)c1ccc(Oc2cc(-c3cc(C(N)=O)c[nH]3)ccn2)cc1

>  <score_type>  (79) 
oracle

>  <origin>  (79) 
adg

>  <m_score__min__energy>  (79) 
-12.210000000000001

>  <m_primary>  (79) 
energy

$$$$
79:0
     RDKit          3D

 60 63  0  0  0  0  0  0  0  0999 V2000
   58.4730   24.4440   45.8980 C   0  0  0  0  0  0  0  0  0  0  0  0
   58.8160   25.6820   46.6730 C   0  0  0  0  0  0  0  0  0  0  0  0
   60.1490   25.9560   47.0110 C   0  0  0  0  0  0  0  0  0  0  0  0
   60.4740   27.1290   47.7010 C   0  0  0  0  0  0  0  0  0  0  0  0
   59.4730   28.0430   48.0630 C   0  0  0  0  0  0  0  0  0  0  0  0
   59.8370   29.2510   48.7520 N   0  0  0  0  0  0  0  0  0  0  0  0
   59.1210   29.7710   49.8860 C   0  0  0  0  0  0  0  0  0  0  0  0
   58.4010   29.0010   50.5780 O   0  0  0  0  0  0  0  0  0  0  0  0
   59.2620   31.1930   50.2840 C   0  0  0  0  0  0  0  0  0  0  0  0
   58.5910   31.6790   51.4220 C   0  0  0  0  0  0  0  0  0  0  0  0
   58.7230   33.0160   51.8030 C   0  0  0  0  0  0  0  0  0  0  0  0
   59.5180   33.8860   51.0560 C   0  0  0  0  0  0  0  0  0  0  0  0
   60.1840   33.4250   49.9110 C   0  0  0  0  0  0  0  0  0  0  0  0
   61.0450   34.3550   49.0960 C   0  0  0  0  0  0  0  0  0  0  0  0
   60.3410   34.7470   47.8560 N   0  0  0  0  0  0  0  0  0  0  0  0
   61.0520   34.2890   46.6430 C   0  0  0  0  0  0  0  0  0  0  0  0
   60.9870   32.7600   46.4660 C   0  0  0  0  0  0  0  0  0  0  0  0
   59.6110   32.1700   46.8660 C   0  0  0  0  0  0  0  0  0  0  0  0
   59.2150   31.0100   45.9690 C   0  0  0  0  0  0  0  0  0  0  0  0
   60.1600   30.0260   45.6340 C   0  0  0  0  0  0  0  0  0  0  0  0
   59.8040   28.9550   44.8130 C   0  0  0  0  0  0  0  0  0  0  0  0
   58.5040   28.8500   44.3160 C   0  0  0  0  0  0  0  0  0  0  0  0
   57.5390   29.8220   44.6350 C   0  0  0  0  0  0  0  0  0  0  0  0
   56.1590   29.7140   44.1060 C   0  0  0  0  0  0  0  0  0  0  0  0
   55.1620   28.9840   44.8190 N   0  0  0  0  0  0  0  0  0  0  0  0
   55.8490   30.2700   43.0170 O   0  0  0  0  0  0  0  0  0  0  0  0
   57.9050   30.9000   45.4630 C   0  0  0  0  0  0  0  0  0  0  0  0
   58.5200   33.2520   46.8920 C   0  0  0  0  0  0  0  0  0  0  0  0
   58.8960   34.3850   47.8680 C   0  0  0  0  0  0  0  0  0  0  0  0
   60.0500   32.0800   49.5280 C   0  0  0  0  0  0  0  0  0  0  0  0
   58.1420   27.7840   47.6870 C   0  0  0  0  0  0  0  0  0  0  0  0
   57.8180   26.6110   46.9970 C   0  0  0  0  0  0  0  0  0  0  0  0
   58.2461   23.6252   46.5966 H   0  0  0  0  0  0  0  0  0  0  0  0
   57.5952   24.6394   45.2646 H   0  0  0  0  0  0  0  0  0  0  0  0
   59.3262   24.1598   45.2646 H   0  0  0  0  0  0  0  0  0  0  0  0
   60.9420   25.2463   46.7327 H   0  0  0  0  0  0  0  0  0  0  0  0
   61.5224   27.3362   47.9617 H   0  0  0  0  0  0  0  0  0  0  0  0
   60.7340   29.7160   48.4840 H   0  0  0  0  0  0  0  0  0  0  0  0
   57.9588   31.0015   52.0148 H   0  0  0  0  0  0  0  0  0  0  0  0
   58.1977   33.3850   52.6963 H   0  0  0  0  0  0  0  0  0  0  0  0
   59.6227   34.9362   51.3660 H   0  0  0  0  0  0  0  0  0  0  0  0
   61.2682   35.2553   49.6873 H   0  0  0  0  0  0  0  0  0  0  0  0
   61.9795   33.8390   48.8306 H   0  0  0  0  0  0  0  0  0  0  0  0
   60.5942   34.7661   45.7639 H   0  0  0  0  0  0  0  0  0  0  0  0
   62.1103   34.5696   46.7487 H   0  0  0  0  0  0  0  0  0  0  0  0
   61.1796   32.5194   45.4101 H   0  0  0  0  0  0  0  0  0  0  0  0
   61.7444   32.3161   47.1288 H   0  0  0  0  0  0  0  0  0  0  0  0
   59.7126   31.7756   47.8878 H   0  0  0  0  0  0  0  0  0  0  0  0
   61.1869   30.1001   46.0212 H   0  0  0  0  0  0  0  0  0  0  0  0
   60.5516   28.1900   44.5564 H   0  0  0  0  0  0  0  0  0  0  0  0
   58.2325   28.0016   43.6707 H   0  0  0  0  0  0  0  0  0  0  0  0
   54.4010   29.4770   45.3360 H   0  0  0  0  0  0  0  0  0  0  0  0
   57.1583   31.6664   45.7182 H   0  0  0  0  0  0  0  0  0  0  0  0
   58.4029   33.6705   45.8815 H   0  0  0  0  0  0  0  0  0  0  0  0
   57.5778   32.7948   47.2285 H   0  0  0  0  0  0  0  0  0  0  0  0
   58.3142   35.2790   47.5993 H   0  0  0  0  0  0  0  0  0  0  0  0
   58.6705   34.0180   48.8802 H   0  0  0  0  0  0  0  0  0  0  0  0
   60.5667   31.7166   48.6275 H   0  0  0  0  0  0  0  0  0  0  0  0
   57.3522   28.5077   47.9369 H   0  0  0  0  0  0  0  0  0  0  0  0
   56.7747   26.4169   46.7073 H   0  0  0  0  0  0  0  0  0  0  0  0
  1  2  1  0
  2  3  2  0
  3  4  1  0
  4  5  2  0
  5  6  1  0
  6  7  1  0
  7  8  2  0
  7  9  1  0
  9 10  2  0
 10 11  1  0
 11 12  2  0
 12 13  1  0
 13 14  1  0
 14 15  1  0
 15 16  1  0
 16 17  1  0
 17 18  1  0
 18 19  1  0
 19 20  2  0
 20 21  1  0
 21 22  2  0
 22 23  1  0
 23 24  1  0
 24 25  1  0
 24 26  2  0
 23 27  2  0
 18 28  1  0
 28 29  1  0
 13 30  2  0
  5 31  1  0
 31 32  2  0
 32  2  1  0
 30  9  1  0
 29 15  1  0
 27 19  1  0
  1 33  1  0
  1 34  1  0
  1 35  1  0
  3 36  1  0
  4 37  1  0
  6 38  1  0
 10 39  1  0
 11 40  1  0
 12 41  1  0
 14 42  1  0
 14 43  1  0
 16 44  1  0
 16 45  1  0
 17 46  1  0
 17 47  1  0
 18 48  1  0
 20 49  1  0
 21 50  1  0
 22 51  1  0
 25 52  1  0
 27 53  1  0
 28 54  1  0
 28 55  1  0
 29 56  1  0
 29 57  1  0
 30 58  1  0
 31 59  1  0
 32 60  1  0
M  CHG  1  25  -1
M  END
>  <UniqueID>  (80) 
76

>  <SMILES>  (80) 
Cc1ccc(NC(=O)c2cccc(CN3CCC(c4cccc(C([NH-])=O)c4)CC3)c2)cc1

>  <Energy>  (80) 
78.0953900018475

>  <Genealogy>  (80) 
Cc1ccc(NC(=O)c2cccc(CN3CCC(c4cccc(C([NH-])=O)c4)CC3)c2)cc1 (protonated)
Cc1ccc(NC(=O)c2cccc(CN3CCC(c4cccc(C([NH-])=O)c4)CC3)c2)cc1 (3D coordinates assigned)
Cc1ccc(NC(=O)c2cccc(CN3CCC(c4cccc(C([NH-])=O)c4)CC3)c2)cc1 (nonaromatic ring conformer: 78.0953900018475 kcal/mol)

>  <smiles>  (80) 
Cc1ccc(NC(=O)c2cccc(CN3CCC(c4cccc(C(N)=O)c4)CC3)c2)cc1

>  <score_type>  (80) 
oracle

>  <origin>  (80) 
adg

>  <m_score__min__energy>  (80) 
-13.390000000000001

>  <m_primary>  (80) 
energy

$$$$
80:0
     RDKit          3D

 51 53  0  0  0  0  0  0  0  0999 V2000
   58.4710   30.5540   45.1170 C   0  0  0  0  0  0  0  0  0  0  0  0
   59.0640   29.4790   45.8380 O   0  0  0  0  0  0  0  0  0  0  0  0
   59.2650   29.4610   47.2270 C   0  0  0  0  0  0  0  0  0  0  0  0
   58.9200   30.5590   48.0400 C   0  0  0  0  0  0  0  0  0  0  0  0
   59.1210   30.5170   49.4300 C   0  0  0  0  0  0  0  0  0  0  0  0
   58.7650   31.6870   50.2680 C   0  0  0  0  0  0  0  0  0  0  0  0
   58.1860   31.5020   51.3710 O   0  0  0  0  0  0  0  0  0  0  0  0
   59.0090   33.0340   49.8400 N   0  0  0  0  0  0  0  0  0  0  0  0
   59.4020   33.4510   48.5250 C   0  0  0  0  0  0  0  0  0  0  0  0
   60.7360   33.7740   48.2180 C   0  0  0  0  0  0  0  0  0  0  0  0
   61.0800   34.1890   46.9290 C   0  0  0  0  0  0  0  0  0  0  0  0
   60.0970   34.3020   45.9430 C   0  0  0  0  0  0  0  0  0  0  0  0
   58.7650   34.0060   46.2460 C   0  0  0  0  0  0  0  0  0  0  0  0
   57.4190   34.1700   44.9020 Br  0  0  0  0  0  0  0  0  0  0  0  0
   58.4180   33.5890   47.5370 C   0  0  0  0  0  0  0  0  0  0  0  0
   59.6890   29.3690   50.0030 C   0  0  0  0  0  0  0  0  0  0  0  0
   60.0280   28.2760   49.2070 C   0  0  0  0  0  0  0  0  0  0  0  0
   59.8240   28.3100   47.8190 C   0  0  0  0  0  0  0  0  0  0  0  0
   60.2370   27.1320   46.9720 C   0  0  0  0  0  0  0  0  0  0  0  0
   59.1660   26.7660   46.0420 N   0  0  0  0  0  0  0  0  0  0  0  0
   59.1180   27.1780   44.7830 N   0  0  0  0  0  0  0  0  0  0  0  0
   58.0830   26.5790   44.1680 C   0  0  0  0  0  0  0  0  0  0  0  0
   57.7740   26.7240   42.7110 C   0  0  0  0  0  0  0  0  0  0  0  0
   57.4360   25.7500   45.0730 C   0  0  0  0  0  0  0  0  0  0  0  0
   56.3330   24.7740   44.7790 C   0  0  0  0  0  0  0  0  0  0  0  0
   55.1490   25.0620   45.6450 C   0  0  0  0  0  0  0  0  0  0  0  0
   54.4650   24.1160   46.1180 O   0  0  0  0  0  0  0  0  0  0  0  0
   54.7690   26.3760   45.8890 O   0  0  0  0  0  0  0  0  0  0  0  0
   58.1490   25.8990   46.2590 C   0  0  0  0  0  0  0  0  0  0  0  0
   57.9380   25.1180   47.5230 C   0  0  0  0  0  0  0  0  0  0  0  0
   58.0646   31.2907   45.8256 H   0  0  0  0  0  0  0  0  0  0  0  0
   59.2315   31.0347   44.4842 H   0  0  0  0  0  0  0  0  0  0  0  0
   57.6587   30.1671   44.4842 H   0  0  0  0  0  0  0  0  0  0  0  0
   58.4879   31.4603   47.5807 H   0  0  0  0  0  0  0  0  0  0  0  0
   61.5109   33.6997   48.9952 H   0  0  0  0  0  0  0  0  0  0  0  0
   62.1270   34.4272   46.6901 H   0  0  0  0  0  0  0  0  0  0  0  0
   60.3713   34.6241   44.9276 H   0  0  0  0  0  0  0  0  0  0  0  0
   57.3673   33.3686   47.7768 H   0  0  0  0  0  0  0  0  0  0  0  0
   59.8680   29.3313   51.0877 H   0  0  0  0  0  0  0  0  0  0  0  0
   60.4599   27.3774   49.6717 H   0  0  0  0  0  0  0  0  0  0  0  0
   61.1384   27.3964   46.3996 H   0  0  0  0  0  0  0  0  0  0  0  0
   60.4429   26.2757   47.6311 H   0  0  0  0  0  0  0  0  0  0  0  0
   59.8040   27.8310   44.3410 H   0  0  0  0  0  0  0  0  0  0  0  0
   56.7842   27.1885   42.5906 H   0  0  0  0  0  0  0  0  0  0  0  0
   58.5369   27.3581   42.2357 H   0  0  0  0  0  0  0  0  0  0  0  0
   57.7738   25.7320   42.2357 H   0  0  0  0  0  0  0  0  0  0  0  0
   56.0410   24.8622   43.7221 H   0  0  0  0  0  0  0  0  0  0  0  0
   56.6901   23.7540   44.9843 H   0  0  0  0  0  0  0  0  0  0  0  0
   58.1143   25.7705   48.3909 H   0  0  0  0  0  0  0  0  0  0  0  0
   56.9055   24.7398   47.5523 H   0  0  0  0  0  0  0  0  0  0  0  0
   58.6396   24.2713   47.5523 H   0  0  0  0  0  0  0  0  0  0  0  0
  1  2  1  0
  2  3  1  0
  3  4  2  0
  4  5  1  0
  5  6  1  0
  6  7  2  0
  6  8  1  0
  8  9  1  0
  9 10  2  0
 10 11  1  0
 11 12  2  0
 12 13  1  0
 13 14  1  0
 13 15  2  0
  5 16  2  0
 16 17  1  0
 17 18  2  0
 18 19  1  0
 19 20  1  0
 20 21  1  0
 21 22  2  0
 22 23  1  0
 22 24  1  0
 24 25  1  0
 25 26  1  0
 26 27  2  0
 26 28  1  0
 24 29  2  0
 29 30  1  0
 18  3  1  0
 29 20  1  0
 15  9  1  0
  1 31  1  0
  1 32  1  0
  1 33  1  0
  4 34  1  0
 10 35  1  0
 11 36  1  0
 12 37  1  0
 15 38  1  0
 16 39  1  0
 17 40  1  0
 19 41  1  0
 19 42  1  0
 21 43  1  0
 23 44  1  0
 23 45  1  0
 23 46  1  0
 25 47  1  0
 25 48  1  0
 30 49  1  0
 30 50  1  0
 30 51  1  0
M  CHG  3   8  -1  21   1  28  -1
M  END
>  <UniqueID>  (81) 
77

>  <SMILES>  (81) 
COc1cc(C(=O)[N-]c2cccc(Br)c2)ccc1Cn1[nH+]c(C)c(CC(=O)[O-])c1C

>  <Energy>  (81) 
84.40180222343143

>  <Genealogy>  (81) 
COc1cc(C(=O)[N-]c2cccc(Br)c2)ccc1Cn1[nH+]c(C)c(CC(=O)[O-])c1C (protonated)
COc1cc(C(=O)[N-]c2cccc(Br)c2)ccc1Cn1[nH+]c(C)c(CC(=O)[O-])c1C (3D coordinates assigned)
COc1cc(C(=O)[N-]c2cccc(Br)c2)ccc1Cn1[nH+]c(C)c(CC(=O)[O-])c1C (optimized conformer: 84.40180222343143 kcal/mol)

>  <smiles>  (81) 
COc1cc(C(=O)Nc2cccc(Br)c2)ccc1Cn1nc(C)c(CC(=O)O)c1C

>  <score_type>  (81) 
oracle

>  <origin>  (81) 
adg

>  <m_score__min__energy>  (81) 
-11.039999999999999

>  <m_primary>  (81) 
energy

$$$$
81:0
     RDKit          3D

 51 53  0  0  0  0  0  0  0  0999 V2000
   58.0130   26.6340   44.9350 C   0  0  0  0  0  0  0  0  0  0  0  0
   57.5330   27.7510   45.6770 O   0  0  0  0  0  0  0  0  0  0  0  0
   57.6020   29.0840   45.2420 C   0  0  0  0  0  0  0  0  0  0  0  0
   58.8090   29.8100   45.2520 C   0  0  0  0  0  0  0  0  0  0  0  0
   58.8410   31.1360   44.8140 C   0  0  0  0  0  0  0  0  0  0  0  0
   57.6690   31.7640   44.3710 C   0  0  0  0  0  0  0  0  0  0  0  0
   57.7170   33.1790   43.8660 C   0  0  0  0  0  0  0  0  0  0  0  0
   57.4160   34.1030   44.9670 N   0  0  0  0  0  0  0  0  0  0  0  0
   57.4020   33.4080   46.2600 C   0  0  0  0  0  0  0  0  0  0  0  0
   58.7590   33.4750   46.9090 C   0  0  0  0  0  0  0  0  0  0  0  0
   59.8440   34.0660   46.2490 C   0  0  0  0  0  0  0  0  0  0  0  0
   61.0870   34.1460   46.8800 C   0  0  0  0  0  0  0  0  0  0  0  0
   61.2420   33.6270   48.1760 C   0  0  0  0  0  0  0  0  0  0  0  0
   62.5000   33.7160   48.8680 N   0  0  0  0  0  0  0  0  0  0  0  0
   63.6880   33.0850   48.2830 C   0  0  0  0  0  0  0  0  0  0  0  0
   64.8460   33.0530   49.2950 C   0  0  0  0  0  0  0  0  0  0  0  0
   64.3700   32.7580   50.6630 N   0  0  0  0  0  0  0  0  0  0  0  0
   63.8700   31.3780   50.7850 C   0  0  0  0  0  0  0  0  0  0  0  0
   63.3870   33.7500   51.1730 C   0  0  0  0  0  0  0  0  0  0  0  0
   62.6670   34.5440   50.0670 C   0  0  0  0  0  0  0  0  0  0  0  0
   60.1650   33.0770   48.8040 N   0  0  0  0  0  0  0  0  0  0  0  0
   58.9450   32.9880   48.2090 C   0  0  0  0  0  0  0  0  0  0  0  0
   56.4680   31.0400   44.3450 C   0  0  0  0  0  0  0  0  0  0  0  0
   56.4290   29.7110   44.7820 C   0  0  0  0  0  0  0  0  0  0  0  0
   55.2130   29.0280   44.7480 O   0  0  0  0  0  0  0  0  0  0  0  0
   58.3499   25.8501   45.6292 H   0  0  0  0  0  0  0  0  0  0  0  0
   57.2047   26.2400   44.3014 H   0  0  0  0  0  0  0  0  0  0  0  0
   58.8551   26.9492   44.3014 H   0  0  0  0  0  0  0  0  0  0  0  0
   59.7326   29.3295   45.6071 H   0  0  0  0  0  0  0  0  0  0  0  0
   59.7911   31.6903   44.8168 H   0  0  0  0  0  0  0  0  0  0  0  0
   58.7212   33.3935   43.4716 H   0  0  0  0  0  0  0  0  0  0  0  0
   56.9732   33.3078   43.0659 H   0  0  0  0  0  0  0  0  0  0  0  0
   56.4560   34.4880   44.8040 H   0  0  0  0  0  0  0  0  0  0  0  0
   56.6615   33.8845   46.9192 H   0  0  0  0  0  0  0  0  0  0  0  0
   57.1385   32.3530   46.0942 H   0  0  0  0  0  0  0  0  0  0  0  0
   59.7167   34.4674   45.2328 H   0  0  0  0  0  0  0  0  0  0  0  0
   61.9398   34.6127   46.3652 H   0  0  0  0  0  0  0  0  0  0  0  0
   63.4399   32.0551   47.9866 H   0  0  0  0  0  0  0  0  0  0  0  0
   64.0024   33.6713   47.4070 H   0  0  0  0  0  0  0  0  0  0  0  0
   65.5628   32.2756   48.9918 H   0  0  0  0  0  0  0  0  0  0  0  0
   65.3204   34.0454   49.3041 H   0  0  0  0  0  0  0  0  0  0  0  0
   63.7748   31.1152   51.8489 H   0  0  0  0  0  0  0  0  0  0  0  0
   62.8865   31.3000   50.2986 H   0  0  0  0  0  0  0  0  0  0  0  0
   64.5753   30.6881   50.2986 H   0  0  0  0  0  0  0  0  0  0  0  0
   62.6292   33.2140   51.7632 H   0  0  0  0  0  0  0  0  0  0  0  0
   63.9523   34.4793   51.7718 H   0  0  0  0  0  0  0  0  0  0  0  0
   61.6776   34.8573   50.4316 H   0  0  0  0  0  0  0  0  0  0  0  0
   63.2722   35.4258   49.8097 H   0  0  0  0  0  0  0  0  0  0  0  0
   58.1025   32.5325   48.7501 H   0  0  0  0  0  0  0  0  0  0  0  0
   55.5491   31.5207   43.9781 H   0  0  0  0  0  0  0  0  0  0  0  0
   55.1460   28.0370   44.9460 H   0  0  0  0  0  0  0  0  0  0  0  0
  1  2  1  0
  2  3  1  0
  3  4  2  0
  4  5  1  0
  5  6  2  0
  6  7  1  0
  7  8  1  0
  8  9  1  0
  9 10  1  0
 10 11  2  0
 11 12  1  0
 12 13  2  0
 13 14  1  0
 14 15  1  0
 15 16  1  0
 16 17  1  0
 17 18  1  0
 17 19  1  0
 19 20  1  0
 13 21  1  0
 21 22  2  0
  6 23  1  0
 23 24  2  0
 24 25  1  0
 24  3  1  0
 22 10  1  0
 20 14  1  0
  1 26  1  0
  1 27  1  0
  1 28  1  0
  4 29  1  0
  5 30  1  0
  7 31  1  0
  7 32  1  0
  8 33  1  0
  9 34  1  0
  9 35  1  0
 11 36  1  0
 12 37  1  0
 15 38  1  0
 15 39  1  0
 16 40  1  0
 16 41  1  0
 18 42  1  0
 18 43  1  0
 18 44  1  0
 19 45  1  0
 19 46  1  0
 20 47  1  0
 20 48  1  0
 22 49  1  0
 23 50  1  0
 25 51  1  0
M  END
>  <UniqueID>  (82) 
78

>  <SMILES>  (82) 
COc1ccc(CNCc2ccc(N3CCN(C)CC3)nc2)cc1O

>  <Energy>  (82) 
60.62522567517557

>  <Genealogy>  (82) 
COc1ccc(CNCc2ccc(N3CCN(C)CC3)nc2)cc1O (3D coordinates assigned)
COc1ccc(CNCc2ccc(N3CCN(C)CC3)nc2)cc1O (nonaromatic ring conformer: 60.62522567517557 kcal/mol)

>  <smiles>  (82) 
COc1ccc(CNCc2ccc(N3CCN(C)CC3)nc2)cc1O

>  <score_type>  (82) 
oracle

>  <origin>  (82) 
adg

>  <m_score__min__energy>  (82) 
-8.0199999999999996

>  <m_primary>  (82) 
energy

$$$$
82:0
     RDKit          3D

 31 32  0  0  0  0  0  0  0  0999 V2000
   59.2510   22.0350   44.5090 C   0  0  0  0  0  0  0  0  0  0  0  0
   57.9830   21.9140   44.9030 C   0  0  0  0  0  0  0  0  0  0  0  0
   57.1010   23.0680   45.1940 C   0  0  0  0  0  0  0  0  0  0  0  0
   57.6840   24.3210   45.4160 C   0  0  0  0  0  0  0  0  0  0  0  0
   56.9190   25.4200   45.6970 N   0  0  0  0  0  0  0  0  0  0  0  0
   57.5850   26.7180   45.9240 C   0  0  1  0  0  0  0  0  0  0  0  0
   58.6670   26.9780   44.8720 C   0  0  0  0  0  0  0  0  0  0  0  0
   58.3000   28.3280   44.3030 C   0  0  2  0  0  0  0  0  0  0  0  0
   59.4140   29.1750   44.1560 O   0  0  0  0  0  0  0  0  0  0  0  0
   57.2800   28.8700   45.3030 C   0  0  1  0  0  0  0  0  0  0  0  0
   56.2440   29.7780   44.6270 C   0  0  0  0  0  0  0  0  0  0  0  0
   55.0220   29.1060   44.4900 O   0  0  0  0  0  0  0  0  0  0  0  0
   56.6390   27.7680   45.8950 O   0  0  0  0  0  0  0  0  0  0  0  0
   55.5510   25.2990   45.7200 C   0  0  0  0  0  0  0  0  0  0  0  0
   54.8170   26.2980   45.9520 O   0  0  0  0  0  0  0  0  0  0  0  0
   54.9670   24.0990   45.4800 N   0  0  0  0  0  0  0  0  0  0  0  0
   55.6970   22.9900   45.2150 C   0  0  0  0  0  0  0  0  0  0  0  0
   55.1000   21.9110   44.9580 O   0  0  0  0  0  0  0  0  0  0  0  0
   59.8529   21.1363   44.3089 H   0  0  0  0  0  0  0  0  0  0  0  0
   59.6952   23.0335   44.3841 H   0  0  0  0  0  0  0  0  0  0  0  0
   57.5690   20.9014   45.0183 H   0  0  0  0  0  0  0  0  0  0  0  0
   58.7779   24.4241   45.3636 H   0  0  0  0  0  0  0  0  0  0  0  0
   58.0610   26.6795   46.9149 H   0  0  0  0  0  0  0  0  0  0  0  0
   59.6646   27.0059   45.3346 H   0  0  0  0  0  0  0  0  0  0  0  0
   58.7118   26.1911   44.1047 H   0  0  0  0  0  0  0  0  0  0  0  0
   57.8958   28.2588   43.2823 H   0  0  0  0  0  0  0  0  0  0  0  0
   59.2560   29.7620   43.3710 H   0  0  0  0  0  0  0  0  0  0  0  0
   57.7982   29.4815   46.0563 H   0  0  0  0  0  0  0  0  0  0  0  0
   56.0957   30.6786   45.2409 H   0  0  0  0  0  0  0  0  0  0  0  0
   56.6116   30.0578   43.6287 H   0  0  0  0  0  0  0  0  0  0  0  0
   55.1410   28.2100   44.9020 H   0  0  0  0  0  0  0  0  0  0  0  0
  1  2  2  0
  2  3  1  0
  3  4  2  0
  4  5  1  0
  5  6  1  0
  6  7  1  0
  7  8  1  0
  8  9  1  0
  8 10  1  0
 10 11  1  0
 11 12  1  0
 10 13  1  0
  5 14  1  0
 14 15  2  0
 14 16  1  0
 16 17  1  0
 17 18  2  0
 17  3  1  0
 13  6  1  0
  1 19  1  0
  1 20  1  0
  2 21  1  0
  4 22  1  0
  6 23  1  1
  7 24  1  0
  7 25  1  0
  8 26  1  6
  9 27  1  0
 10 28  1  1
 11 29  1  0
 11 30  1  0
 12 31  1  0
M  CHG  1  16  -1
M  END
>  <UniqueID>  (83) 
79

>  <SMILES>  (83) 
C=Cc1cn([C@H]2C[C@H](O)C(CO)O2)c(=O)[n-]c1=O

>  <Energy>  (83) 
38.7163173357

>  <Genealogy>  (83) 
C=Cc1cn(C2CC(O)C(CO)O2)c(=O)[n-]c1=O (protonated)
C=Cc1cn([C@H]2C[C@H](O)C(CO)O2)c(=O)[n-]c1=O (chirality)
C=Cc1cn([C@H]2C[C@H](O)C(CO)O2)c(=O)[n-]c1=O (3D coordinates assigned)
C=Cc1cn([C@H]2C[C@H](O)C(CO)O2)c(=O)[n-]c1=O (nonaromatic ring conformer: 38.7163173357 kcal/mol)

>  <smiles>  (83) 
C=Cc1cn(C2CC(O)C(CO)O2)c(=O)[nH]c1=O

>  <score_type>  (83) 
oracle

>  <origin>  (83) 
adg

>  <m_score__min__energy>  (83) 
-8.3900000000000006

>  <m_primary>  (83) 
energy

$$$$
83:0
     RDKit          3D

 54 56  0  0  0  0  0  0  0  0999 V2000
   56.6460   21.8450   42.6830 C   0  0  0  0  0  0  0  0  0  0  0  0
   55.9260   22.8220   43.4260 O   0  0  0  0  0  0  0  0  0  0  0  0
   56.3560   23.3740   44.6420 C   0  0  0  0  0  0  0  0  0  0  0  0
   56.6180   22.5840   45.7750 C   0  0  0  0  0  0  0  0  0  0  0  0
   57.0390   23.1810   46.9730 C   0  0  0  0  0  0  0  0  0  0  0  0
   57.3130   22.4340   48.1270 O   0  0  0  0  0  0  0  0  0  0  0  0
   56.3300   22.0300   49.0770 C   0  0  0  0  0  0  0  0  0  0  0  0
   57.1980   24.5680   47.0280 C   0  0  0  0  0  0  0  0  0  0  0  0
   56.9550   25.3690   45.9020 C   0  0  0  0  0  0  0  0  0  0  0  0
   57.1460   26.8350   45.9920 C   0  0  0  0  0  0  0  0  0  0  0  0
   57.3450   27.3540   47.1220 O   0  0  0  0  0  0  0  0  0  0  0  0
   57.1150   27.6650   44.8120 N   0  0  0  0  0  0  0  0  0  0  0  0
   57.5020   29.0470   44.8170 C   0  0  0  0  0  0  0  0  0  0  0  0
   56.8200   30.0520   43.7030 S   0  0  0  0  0  0  0  0  0  0  0  0
   58.5710   29.5020   45.6770 N   0  0  0  0  0  0  0  0  0  0  0  0
   58.8300   30.8820   45.9630 C   0  0  0  0  0  0  0  0  0  0  0  0
   57.7740   31.7990   45.9470 C   0  0  0  0  0  0  0  0  0  0  0  0
   57.9990   33.1350   46.2870 C   0  0  0  0  0  0  0  0  0  0  0  0
   59.2720   33.5510   46.6900 C   0  0  0  0  0  0  0  0  0  0  0  0
   60.3370   32.6370   46.7290 C   0  0  0  0  0  0  0  0  0  0  0  0
   61.6860   33.0560   47.1600 C   0  0  0  0  0  0  0  0  0  0  0  0
   62.3460   33.8270   46.4120 O   0  0  0  0  0  0  0  0  0  0  0  0
   62.3050   32.4800   48.3420 N   0  0  0  0  0  0  0  0  0  0  0  0
   61.9140   33.2020   49.5830 C   0  0  0  0  0  0  0  0  0  0  0  0
   63.0020   34.1920   50.0360 C   0  0  0  0  0  0  0  0  0  0  0  0
   64.2620   33.5800   50.2900 O   0  0  0  0  0  0  0  0  0  0  0  0
   64.4980   32.4170   49.5090 C   0  0  0  0  0  0  0  0  0  0  0  0
   63.7720   32.4310   48.1530 C   0  0  0  0  0  0  0  0  0  0  0  0
   60.1100   31.3030   46.3510 C   0  0  0  0  0  0  0  0  0  0  0  0
   56.5240   24.7600   44.7160 C   0  0  0  0  0  0  0  0  0  0  0  0
   57.1528   21.1573   43.3761 H   0  0  0  0  0  0  0  0  0  0  0  0
   55.9479   21.2784   42.0493 H   0  0  0  0  0  0  0  0  0  0  0  0
   57.3939   22.3440   42.0493 H   0  0  0  0  0  0  0  0  0  0  0  0
   56.4923   21.4925   45.7221 H   0  0  0  0  0  0  0  0  0  0  0  0
   56.7164   22.1888   50.0946 H   0  0  0  0  0  0  0  0  0  0  0  0
   55.4161   22.6254   48.9348 H   0  0  0  0  0  0  0  0  0  0  0  0
   56.0989   20.9640   48.9348 H   0  0  0  0  0  0  0  0  0  0  0  0
   57.5187   25.0393   47.9687 H   0  0  0  0  0  0  0  0  0  0  0  0
   56.7720   27.2620   43.9120 H   0  0  0  0  0  0  0  0  0  0  0  0
   59.1130   28.7990   46.2240 H   0  0  0  0  0  0  0  0  0  0  0  0
   56.7636   31.4672   45.6659 H   0  0  0  0  0  0  0  0  0  0  0  0
   57.1739   33.8608   46.2377 H   0  0  0  0  0  0  0  0  0  0  0  0
   59.4396   34.5994   46.9778 H   0  0  0  0  0  0  0  0  0  0  0  0
   61.9750   31.4920   48.4480 H   0  0  0  0  0  0  0  0  0  0  0  0
   60.9838   33.7577   49.3934 H   0  0  0  0  0  0  0  0  0  0  0  0
   61.7750   32.4583   50.3815 H   0  0  0  0  0  0  0  0  0  0  0  0
   63.1352   34.9468   49.2469 H   0  0  0  0  0  0  0  0  0  0  0  0
   62.6613   34.6325   50.9846 H   0  0  0  0  0  0  0  0  0  0  0  0
   65.5793   32.3352   49.3242 H   0  0  0  0  0  0  0  0  0  0  0  0
   64.1059   31.5606   50.0772 H   0  0  0  0  0  0  0  0  0  0  0  0
   64.0917   33.3152   47.5821 H   0  0  0  0  0  0  0  0  0  0  0  0
   64.0264   31.5102   47.6077 H   0  0  0  0  0  0  0  0  0  0  0  0
   60.9423   30.5838   46.3595 H   0  0  0  0  0  0  0  0  0  0  0  0
   56.3152   25.3803   43.8319 H   0  0  0  0  0  0  0  0  0  0  0  0
  1  2  1  0
  2  3  1  0
  3  4  2  0
  4  5  1  0
  5  6  1  0
  6  7  1  0
  5  8  2  0
  8  9  1  0
  9 10  1  0
 10 11  2  0
 10 12  1  0
 12 13  1  0
 13 14  2  0
 13 15  1  0
 15 16  1  0
 16 17  2  0
 17 18  1  0
 18 19  2  0
 19 20  1  0
 20 21  1  0
 21 22  2  0
 21 23  1  0
 23 24  1  0
 24 25  1  0
 25 26  1  0
 26 27  1  0
 27 28  1  0
 20 29  2  0
  9 30  2  0
 30  3  1  0
 29 16  1  0
 28 23  1  0
  1 31  1  0
  1 32  1  0
  1 33  1  0
  4 34  1  0
  7 35  1  0
  7 36  1  0
  7 37  1  0
  8 38  1  0
 12 39  1  0
 15 40  1  0
 17 41  1  0
 18 42  1  0
 19 43  1  0
 23 44  1  0
 24 45  1  0
 24 46  1  0
 25 47  1  0
 25 48  1  0
 27 49  1  0
 27 50  1  0
 28 51  1  0
 28 52  1  0
 29 53  1  0
 30 54  1  0
M  CHG  1  23   1
M  END
>  <UniqueID>  (84) 
80

>  <SMILES>  (84) 
COc1cc(OC)cc(C(=O)NC(=S)Nc2cccc(C(=O)[NH+]3CCOCC3)c2)c1

>  <Energy>  (84) 
87.51985621424862

>  <Genealogy>  (84) 
COc1cc(OC)cc(C(=O)NC(=S)Nc2cccc(C(=O)[NH+]3CCOCC3)c2)c1 (protonated)
COc1cc(OC)cc(C(=O)NC(=S)Nc2cccc(C(=O)[NH+]3CCOCC3)c2)c1 (3D coordinates assigned)
COc1cc(OC)cc(C(=O)NC(=S)Nc2cccc(C(=O)[NH+]3CCOCC3)c2)c1 (nonaromatic ring conformer: 87.51985621424862 kcal/mol)

>  <smiles>  (84) 
COc1cc(OC)cc(C(=O)NC(=S)Nc2cccc(C(=O)N3CCOCC3)c2)c1

>  <score_type>  (84) 
oracle

>  <origin>  (84) 
adg

>  <m_score__min__energy>  (84) 
-7.3300000000000001

>  <m_primary>  (84) 
energy

$$$$
84:0
     RDKit          3D

 53 56  0  0  0  0  0  0  0  0999 V2000
   53.9370   28.4790   54.0210 C   0  0  0  0  0  0  0  0  0  0  0  0
   54.4500   29.4760   53.2840 C   0  0  0  0  0  0  0  0  0  0  0  0
   53.7310   30.3480   52.4600 C   0  0  0  0  0  0  0  0  0  0  0  0
   52.4100   30.3230   52.1970 C   0  0  0  0  0  0  0  0  0  0  0  0
   51.8070   30.8160   50.9450 C   0  0  0  0  0  0  0  0  0  0  0  0
   51.6820   30.0620   49.8390 N   0  0  0  0  0  0  0  0  0  0  0  0
   51.0130   30.8660   48.9850 C   0  0  0  0  0  0  0  0  0  0  0  0
   50.7120   30.5110   47.8160 O   0  0  0  0  0  0  0  0  0  0  0  0
   50.6810   32.0750   49.4860 N   0  0  0  0  0  0  0  0  0  0  0  0
   51.1790   32.0240   50.7310 C   0  0  0  0  0  0  0  0  0  0  0  0
   51.0190   33.0420   51.6640 O   0  0  0  0  0  0  0  0  0  0  0  0
   54.6600   31.2250   51.9170 C   0  0  0  0  0  0  0  0  0  0  0  0
   55.8870   30.8770   52.4420 C   0  0  0  0  0  0  0  0  0  0  0  0
   57.1390   31.6000   52.1420 C   0  0  0  0  0  0  0  0  0  0  0  0
   57.6240   32.3690   53.0170 O   0  0  0  0  0  0  0  0  0  0  0  0
   57.8570   31.3670   50.9130 N   0  0  2  0  0  0  0  0  0  0  0  0
   59.3120   31.4490   51.1110 C   0  0  0  0  0  0  0  0  0  0  0  0
   59.8520   32.2230   49.9080 C   0  0  1  0  0  0  0  0  0  0  0  0
   60.4270   33.5940   50.3760 C   0  0  0  0  0  0  0  0  0  0  0  0
   59.5820   34.2100   51.3140 O   0  0  0  0  0  0  0  0  0  0  0  0
   60.9170   31.4230   49.0730 C   0  0  0  0  0  0  0  0  0  0  0  0
   60.9700   31.8320   47.5940 C   0  0  0  0  0  0  0  0  0  0  0  0
   62.4020   31.5940   47.1560 C   0  0  0  0  0  0  0  0  0  0  0  0
   63.2450   31.8720   48.3870 C   0  0  0  0  0  0  0  0  0  0  0  0
   62.3720   31.5180   49.5850 C   0  0  0  0  0  0  0  0  0  0  0  0
   58.5610   32.4580   49.1150 C   0  0  0  0  0  0  0  0  0  0  0  0
   57.4860   32.3220   50.0080 O   0  0  0  0  0  0  0  0  0  0  0  0
   55.7690   29.7970   53.2520 N   0  0  0  0  0  0  0  0  0  0  0  0
   56.8600   29.0810   53.9210 C   0  0  0  0  0  0  0  0  0  0  0  0
   54.5998   27.8522   54.6357 H   0  0  0  0  0  0  0  0  0  0  0  0
   52.8537   28.2884   54.0105 H   0  0  0  0  0  0  0  0  0  0  0  0
   51.7393   29.9089   52.9642 H   0  0  0  0  0  0  0  0  0  0  0  0
   54.4570   32.0394   51.2060 H   0  0  0  0  0  0  0  0  0  0  0  0
   57.6120   30.4270   50.5180 H   0  0  0  0  0  0  0  0  0  0  0  0
   59.5422   31.9828   52.0449 H   0  0  0  0  0  0  0  0  0  0  0  0
   59.7674   30.4507   51.1883 H   0  0  0  0  0  0  0  0  0  0  0  0
   61.4131   33.4307   50.8353 H   0  0  0  0  0  0  0  0  0  0  0  0
   60.5097   34.2527   49.4989 H   0  0  0  0  0  0  0  0  0  0  0  0
   58.7890   33.6230   51.4230 H   0  0  0  0  0  0  0  0  0  0  0  0
   60.5496   30.3936   49.1970 H   0  0  0  0  0  0  0  0  0  0  0  0
   60.2793   31.2153   47.0001 H   0  0  0  0  0  0  0  0  0  0  0  0
   60.6695   32.8804   47.4507 H   0  0  0  0  0  0  0  0  0  0  0  0
   62.5360   30.5541   46.8233 H   0  0  0  0  0  0  0  0  0  0  0  0
   62.6856   32.2365   46.3094 H   0  0  0  0  0  0  0  0  0  0  0  0
   64.1515   31.2490   48.3777 H   0  0  0  0  0  0  0  0  0  0  0  0
   63.5703   32.9222   48.4228 H   0  0  0  0  0  0  0  0  0  0  0  0
   62.6866   30.5532   50.0095 H   0  0  0  0  0  0  0  0  0  0  0  0
   62.4611   32.2795   50.3737 H   0  0  0  0  0  0  0  0  0  0  0  0
   58.5646   33.4696   48.6830 H   0  0  0  0  0  0  0  0  0  0  0  0
   58.4748   31.7334   48.2919 H   0  0  0  0  0  0  0  0  0  0  0  0
   56.7372   29.1616   55.0112 H   0  0  0  0  0  0  0  0  0  0  0  0
   56.8378   28.0213   53.6268 H   0  0  0  0  0  0  0  0  0  0  0  0
   57.8234   29.5231   53.6268 H   0  0  0  0  0  0  0  0  0  0  0  0
  1  2  2  0
  2  3  1  0
  3  4  2  3
  4  5  1  0
  5  6  1  0
  6  7  1  0
  7  8  2  0
  7  9  1  0
  9 10  1  0
 10 11  1  0
  3 12  1  0
 12 13  2  0
 13 14  1  0
 14 15  2  0
 14 16  1  0
 16 17  1  0
 17 18  1  0
 18 19  1  1
 19 20  1  0
 18 21  1  0
 21 22  1  0
 22 23  1  0
 23 24  1  0
 24 25  1  0
 18 26  1  0
 26 27  1  0
 13 28  1  0
 28 29  1  0
 28  2  1  0
 10  5  2  0
 27 16  1  0
 25 21  1  0
  1 30  1  0
  1 31  1  0
  4 32  1  0
 12 33  1  0
 16 34  1  6
 17 35  1  0
 17 36  1  0
 19 37  1  0
 19 38  1  0
 20 39  1  0
 21 40  1  0
 22 41  1  0
 22 42  1  0
 23 43  1  0
 23 44  1  0
 24 45  1  0
 24 46  1  0
 25 47  1  0
 25 48  1  0
 26 49  1  0
 26 50  1  0
 29 51  1  0
 29 52  1  0
 29 53  1  0
M  CHG  4   6  -1   9  -1  11  -1  16   1
M  END
>  <UniqueID>  (85) 
81

>  <SMILES>  (85) 
C=c1c(=Cc2[n-]c(=O)[n-]c2[O-])cc(C(=O)[N@@H+]2C[C@@](CO)(C3CCCC3)CO2)n1C

>  <Energy>  (85) 
134.98135794915757

>  <Genealogy>  (85) 
C=c1c(=Cc2[n-]c(=O)[n-]c2[O-])cc(C(=O)[NH+]2CC(CO)(C3CCCC3)CO2)n1C (protonated)
C=c1c(=Cc2[n-]c(=O)[n-]c2[O-])cc(C(=O)[N@@H+]2C[C@@](CO)(C3CCCC3)CO2)n1C (chirality)
C=c1c(=Cc2[n-]c(=O)[n-]c2[O-])cc(C(=O)[N@@H+]2C[C@@](CO)(C3CCCC3)CO2)n1C (3D coordinates assigned)
C=c1c(=Cc2[n-]c(=O)[n-]c2[O-])cc(C(=O)[N@@H+]2C[C@@](CO)(C3CCCC3)CO2)n1C (nonaromatic ring conformer: 134.98135794915757 kcal/mol)

>  <smiles>  (85) 
C=c1c(=Cc2[nH]c(=O)[nH]c2O)cc(C(=O)N2CC(CO)(C3CCCC3)CO2)n1C

>  <score_type>  (85) 
oracle

>  <origin>  (85) 
adg

>  <m_score__min__energy>  (85) 
-16.91

>  <m_primary>  (85) 
energy

$$$$
85:0
     RDKit          3D

 43 45  0  0  0  0  0  0  0  0999 V2000
   58.0320   23.5240   48.1230 H   0  0  0  0  0  0  0  0  0  0  0  0
   57.2500   23.2680   47.4800 N   0  0  0  0  0  0  0  0  0  0  0  0
   56.3320   24.2520   47.0100 C   0  0  0  0  0  0  0  0  0  0  0  0
   55.1020   23.9740   46.9930 O   0  0  0  0  0  0  0  0  0  0  0  0
   56.8010   25.5870   46.5450 C   0  0  0  0  0  0  0  0  0  0  0  0
   58.1740   25.8980   46.6130 C   0  0  0  0  0  0  0  0  0  0  0  0
   58.8781   25.1514   47.0089 H   0  0  0  0  0  0  0  0  0  0  0  0
   58.6570   27.1390   46.1860 C   0  0  0  0  0  0  0  0  0  0  0  0
   60.0620   27.4040   46.2770 N   0  0  0  0  0  0  0  0  0  0  0  0
   60.5720   28.0340   47.2580 N   0  0  0  0  0  0  0  0  0  0  0  0
   60.4180   29.4490   47.4180 C   0  0  0  0  0  0  0  0  0  0  0  0
   61.1260   30.3630   46.6170 C   0  0  0  0  0  0  0  0  0  0  0  0
   61.8236   29.9946   45.8504 H   0  0  0  0  0  0  0  0  0  0  0  0
   60.9460   31.7370   46.7920 C   0  0  0  0  0  0  0  0  0  0  0  0
   61.5125   32.4453   46.1695 H   0  0  0  0  0  0  0  0  0  0  0  0
   60.0460   32.2220   47.7580 C   0  0  0  0  0  0  0  0  0  0  0  0
   59.8160   33.6780   47.9260 C   0  0  0  0  0  0  0  0  0  0  0  0
   59.8250   34.1700   49.0860 O   0  0  0  0  0  0  0  0  0  0  0  0
   59.6200   34.5950   46.7820 C   0  0  0  0  0  0  0  0  0  0  0  0
   60.4021   35.3462   46.5976 H   0  0  0  0  0  0  0  0  0  0  0  0
   58.5660   34.5860   45.9500 C   0  0  0  0  0  0  0  0  0  0  0  0
   57.9528   35.4978   45.8988 H   0  0  0  0  0  0  0  0  0  0  0  0
   58.1650   33.4460   45.0970 C   0  0  0  0  0  0  0  0  0  0  0  0
   58.4890   33.4030   43.7290 C   0  0  0  0  0  0  0  0  0  0  0  0
   59.0611   34.2254   43.2747 H   0  0  0  0  0  0  0  0  0  0  0  0
   58.0860   32.3180   42.9450 C   0  0  0  0  0  0  0  0  0  0  0  0
   58.3252   32.2978   41.8715 H   0  0  0  0  0  0  0  0  0  0  0  0
   57.3800   31.2590   43.5220 C   0  0  0  0  0  0  0  0  0  0  0  0
   56.9890   30.2090   42.7600 F   0  0  0  0  0  0  0  0  0  0  0  0
   57.0850   31.2800   44.8880 C   0  0  0  0  0  0  0  0  0  0  0  0
   56.5382   30.4419   45.3447 H   0  0  0  0  0  0  0  0  0  0  0  0
   57.4840   32.3650   45.6750 C   0  0  0  0  0  0  0  0  0  0  0  0
   57.2626   32.3705   46.7525 H   0  0  0  0  0  0  0  0  0  0  0  0
   59.3600   31.3040   48.5710 C   0  0  0  0  0  0  0  0  0  0  0  0
   58.6752   31.6697   49.3503 H   0  0  0  0  0  0  0  0  0  0  0  0
   59.5420   29.9290   48.3960 C   0  0  0  0  0  0  0  0  0  0  0  0
   58.9921   29.2199   49.0322 H   0  0  0  0  0  0  0  0  0  0  0  0
   57.7610   28.0920   45.6810 C   0  0  0  0  0  0  0  0  0  0  0  0
   58.1341   29.0702   45.3435 H   0  0  0  0  0  0  0  0  0  0  0  0
   56.3980   27.8040   45.6050 C   0  0  0  0  0  0  0  0  0  0  0  0
   55.5210   28.7580   45.1020 O   0  0  0  0  0  0  0  0  0  0  0  0
   55.9110   26.5610   46.0320 C   0  0  0  0  0  0  0  0  0  0  0  0
   54.5450   26.3130   45.9400 O   0  0  0  0  0  0  0  0  0  0  0  0
  1  2  1  0
  2  3  1  0
  3  4  2  0
  3  5  1  0
  5  6  2  0
  6  7  1  0
  6  8  1  0
  8  9  1  0
  9 10  2  0
 10 11  1  0
 11 12  2  0
 12 13  1  0
 12 14  1  0
 14 15  1  0
 14 16  2  0
 16 17  1  0
 17 18  2  0
 17 19  1  0
 19 20  1  0
 19 21  2  3
 21 22  1  0
 21 23  1  0
 23 24  2  0
 24 25  1  0
 24 26  1  0
 26 27  1  0
 26 28  2  0
 28 29  1  0
 28 30  1  0
 30 31  1  0
 30 32  2  0
 32 33  1  0
 16 34  1  0
 34 35  1  0
 34 36  2  0
 36 37  1  0
  8 38  2  0
 38 39  1  0
 38 40  1  0
 40 41  1  0
 40 42  2  0
 42 43  1  0
 42  5  1  0
 36 11  1  0
 32 23  1  0
M  CHG  3   2  -1  41  -1  43  -1
M  END
>  <UniqueID>  (86) 
82

>  <SMILES>  (86) 
[NH-]C(=O)c1cc(/N=N/c2ccc(C(=O)C=Cc3ccc(F)cc3)cc2)cc([O-])c1[O-]

>  <Energy>  (86) 
58.979944263931564

>  <Genealogy>  (86) 
[NH-]C(=O)c1cc(N=Nc2ccc(C(=O)C=Cc3ccc(F)cc3)cc2)cc([O-])c1[O-] (protonated)
[NH-]C(=O)c1cc(/N=N/c2ccc(C(=O)C=Cc3ccc(F)cc3)cc2)cc([O-])c1[O-] (cis-trans isomerization)
[NH-]C(=O)c1cc(/N=N/c2ccc(C(=O)C=Cc3ccc(F)cc3)cc2)cc([O-])c1[O-] (3D coordinates assigned)
[NH-]C(=O)c1cc(/N=N/c2ccc(C(=O)C=Cc3ccc(F)cc3)cc2)cc([O-])c1[O-] (optimized conformer: 58.979944263931564 kcal/mol)

>  <smiles>  (86) 
NC(=O)c1cc(N=Nc2ccc(C(=O)C=Cc3ccc(F)cc3)cc2)cc(O)c1O

>  <score_type>  (86) 
oracle

>  <origin>  (86) 
adg

>  <m_score__min__energy>  (86) 
-18.609999999999999

>  <m_primary>  (86) 
energy

$$$$
86:0
     RDKit          3D

 47 49  0  0  0  0  0  0  0  0999 V2000
   55.1260   24.2020   46.5350 N   0  0  0  0  0  0  0  0  0  0  0  0
   56.2270   24.4980   47.4470 C   0  0  0  0  0  0  0  0  0  0  0  0
   57.0880   25.6170   46.9140 C   0  0  0  0  0  0  0  0  0  0  0  0
   58.4770   25.5870   47.1200 C   0  0  0  0  0  0  0  0  0  0  0  0
   59.2920   26.6000   46.6090 C   0  0  0  0  0  0  0  0  0  0  0  0
   58.7320   27.6520   45.8660 C   0  0  0  0  0  0  0  0  0  0  0  0
   59.6030   28.7660   45.3450 C   0  0  0  0  0  0  0  0  0  0  0  0
   59.9800   29.7450   46.4690 C   0  0  1  0  0  0  0  0  0  0  0  0
   59.9480   31.1130   45.9490 N   0  0  0  0  0  0  0  0  0  0  0  0
   58.7880   31.8550   45.5410 C   0  0  0  0  0  0  0  0  0  0  0  0
   58.6840   33.0540   45.9100 O   0  0  0  0  0  0  0  0  0  0  0  0
   57.7290   31.2890   44.6850 C   0  0  0  0  0  0  0  0  0  0  0  0
   56.7060   30.5550   45.1780 N   0  0  0  0  0  0  0  0  0  0  0  0
   55.8980   30.0880   44.1910 C   0  0  0  0  0  0  0  0  0  0  0  0
   54.7750   29.3200   44.4700 O   0  0  0  0  0  0  0  0  0  0  0  0
   56.2700   30.4230   42.8960 C   0  0  0  0  0  0  0  0  0  0  0  0
   57.6750   31.3360   43.0030 S   0  0  0  0  0  0  0  0  0  0  0  0
   59.0080   29.6040   47.6190 C   0  0  0  0  0  0  0  0  0  0  0  0
   57.7710   29.6160   47.3710 O   0  0  0  0  0  0  0  0  0  0  0  0
   59.4570   29.4500   48.9810 N   0  0  0  0  0  0  0  0  0  0  0  0
   60.8030   28.9520   49.2900 C   0  0  0  0  0  0  0  0  0  0  0  0
   60.8070   28.2600   50.6570 C   0  0  0  0  0  0  0  0  0  0  0  0
   60.2450   29.1000   51.6460 O   0  0  0  0  0  0  0  0  0  0  0  0
   58.8750   29.3120   51.3660 C   0  0  0  0  0  0  0  0  0  0  0  0
   58.6990   30.0930   50.0610 C   0  0  0  0  0  0  0  0  0  0  0  0
   57.3460   27.6820   45.6540 C   0  0  0  0  0  0  0  0  0  0  0  0
   56.5260   26.6700   46.1650 C   0  0  0  0  0  0  0  0  0  0  0  0
   55.1580   26.7170   45.9240 O   0  0  0  0  0  0  0  0  0  0  0  0
   54.3210   24.8300   46.7620 H   0  0  0  0  0  0  0  0  0  0  0  0
   55.4290   24.4180   45.5570 H   0  0  0  0  0  0  0  0  0  0  0  0
   55.8153   24.7951   48.4228 H   0  0  0  0  0  0  0  0  0  0  0  0
   56.8490   23.5964   47.5481 H   0  0  0  0  0  0  0  0  0  0  0  0
   58.9266   24.7593   47.6882 H   0  0  0  0  0  0  0  0  0  0  0  0
   60.3768   26.5736   46.7893 H   0  0  0  0  0  0  0  0  0  0  0  0
   60.5218   28.3352   44.9205 H   0  0  0  0  0  0  0  0  0  0  0  0
   59.0429   29.3167   44.5750 H   0  0  0  0  0  0  0  0  0  0  0  0
   60.9931   29.5172   46.8319 H   0  0  0  0  0  0  0  0  0  0  0  0
   55.7427   30.1426   41.9723 H   0  0  0  0  0  0  0  0  0  0  0  0
   61.1112   28.2326   48.5170 H   0  0  0  0  0  0  0  0  0  0  0  0
   61.5040   29.7994   49.3132 H   0  0  0  0  0  0  0  0  0  0  0  0
   60.2181   27.3331   50.5938 H   0  0  0  0  0  0  0  0  0  0  0  0
   61.8470   28.0343   50.9352 H   0  0  0  0  0  0  0  0  0  0  0  0
   58.3713   28.3384   51.2739 H   0  0  0  0  0  0  0  0  0  0  0  0
   58.4345   29.8961   52.1875 H   0  0  0  0  0  0  0  0  0  0  0  0
   57.6325   30.1168   49.7925 H   0  0  0  0  0  0  0  0  0  0  0  0
   59.0730   31.1178   50.2020 H   0  0  0  0  0  0  0  0  0  0  0  0
   56.8998   28.5082   45.0811 H   0  0  0  0  0  0  0  0  0  0  0  0
  1  2  1  0
  2  3  1  0
  3  4  2  0
  4  5  1  0
  5  6  2  0
  6  7  1  0
  7  8  1  0
  8  9  1  0
  9 10  1  0
 10 11  2  0
 10 12  1  0
 12 13  2  0
 13 14  1  0
 14 15  1  0
 14 16  2  0
 16 17  1  0
  8 18  1  0
 18 19  2  0
 18 20  1  0
 20 21  1  0
 21 22  1  0
 22 23  1  0
 23 24  1  0
 24 25  1  0
  6 26  1  0
 26 27  2  0
 27 28  1  0
 27  3  1  0
 17 12  1  0
 25 20  1  0
  1 29  1  0
  1 30  1  0
  2 31  1  0
  2 32  1  0
  4 33  1  0
  5 34  1  0
  7 35  1  0
  7 36  1  0
  8 37  1  1
 16 38  1  0
 21 39  1  0
 21 40  1  0
 22 41  1  0
 22 42  1  0
 24 43  1  0
 24 44  1  0
 25 45  1  0
 25 46  1  0
 26 47  1  0
M  CHG  3   9  -1  15  -1  28  -1
M  END
>  <UniqueID>  (87) 
83

>  <SMILES>  (87) 
NCc1ccc(C[C@@H]([N-]C(=O)c2nc([O-])cs2)C(=O)N2CCOCC2)cc1[O-]

>  <Energy>  (87) 
77.64388969134475

>  <Genealogy>  (87) 
NCc1ccc(CC([N-]C(=O)c2nc([O-])cs2)C(=O)N2CCOCC2)cc1[O-] (protonated)
NCc1ccc(C[C@@H]([N-]C(=O)c2nc([O-])cs2)C(=O)N2CCOCC2)cc1[O-] (chirality)
NCc1ccc(C[C@@H]([N-]C(=O)c2nc([O-])cs2)C(=O)N2CCOCC2)cc1[O-] (3D coordinates assigned)
NCc1ccc(C[C@@H]([N-]C(=O)c2nc([O-])cs2)C(=O)N2CCOCC2)cc1[O-] (nonaromatic ring conformer: 77.64388969134475 kcal/mol)

>  <smiles>  (87) 
NCc1ccc(CC(NC(=O)c2nc(O)cs2)C(=O)N2CCOCC2)cc1O

>  <score_type>  (87) 
oracle

>  <origin>  (87) 
adg

>  <m_score__min__energy>  (87) 
-15.09

>  <m_primary>  (87) 
energy

$$$$
