0:0
     RDKit          3D

 66 69  0  0  1  0  0  0  0  0999 V2000
   55.0270   30.1380   52.3240 C   0  0  0  0  0  0  0  0  0  0  0  0
   56.2410   30.1570   51.6400 O   0  0  0  0  0  0  0  0  0  0  0  0
   57.1310   31.2060   51.6510 C   0  0  0  0  0  0  0  0  0  0  0  0
   56.8130   32.3270   52.3880 C   0  0  0  0  0  0  0  0  0  0  0  0
   57.7330   33.3500   52.3670 C   0  0  0  0  0  0  0  0  0  0  0  0
   58.9030   33.2800   51.6640 C   0  0  0  0  0  0  0  0  0  0  0  0
   59.2480   32.1440   50.9080 C   0  0  0  0  0  0  0  0  0  0  0  0
   60.4550   32.2500   50.1510 C   0  0  0  0  0  0  0  0  0  0  0  0
   61.3120   31.3150   49.8540 C   0  0  0  0  0  0  0  0  0  0  0  0
   61.1840   30.3150   48.8280 C   0  0  0  0  0  0  0  0  0  0  0  0
   61.8550   30.1400   47.8110 O   0  0  0  0  0  0  0  0  0  0  0  0
   60.1140   29.3640   49.0020 N   0  0  0  0  0  0  0  0  0  0  0  0
   60.0280   28.3810   47.9470 C   0  0  0  0  0  0  0  0  0  0  0  0
   60.4720   27.0910   48.1540 C   0  0  0  0  0  0  0  0  0  0  0  0
   60.3590   26.1970   47.0980 C   0  0  0  0  0  0  0  0  0  0  0  0
   59.8260   26.5660   45.8750 C   0  0  0  0  0  0  0  0  0  0  0  0
   59.3890   27.8680   45.6950 C   0  0  0  0  0  0  0  0  0  0  0  0
   58.8420   28.3230   44.5040 O   0  0  0  0  0  0  0  0  0  0  0  0
   57.8900   29.3060   44.4650 C   0  0  0  0  0  0  0  0  0  0  0  0
   58.1930   30.6360   44.4230 C   0  0  0  0  0  0  0  0  0  0  0  0
   57.1800   31.5710   44.3850 C   0  0  0  0  0  0  0  0  0  0  0  0
   57.4360   32.8260   44.3450 N   0  0  0  0  0  0  0  0  0  0  0  0
   56.8340   33.7830   45.2430 C   0  0  0  0  0  0  0  0  0  0  0  0
   57.1400   33.4370   46.6890 C   0  0  0  0  0  0  0  0  0  0  0  0
   58.6170   33.4360   46.8530 C   0  0  0  0  0  0  0  0  0  0  0  0
   59.1940   34.5560   47.4390 C   0  0  0  0  0  0  0  0  0  0  0  0
   60.5630   34.5910   47.6080 C   0  0  0  0  0  0  0  0  0  0  0  0
   61.3800   33.5550   47.2170 C   0  0  0  0  0  0  0  0  0  0  0  0
   63.1090   33.5560   47.4110 S   0  0  0  0  0  0  0  0  0  0  0  0
   63.7750   31.9920   47.1070 N   0  0  0  0  0  0  0  0  0  0  0  0
   63.7230   34.5030   46.3970 O   0  0  0  0  0  0  0  0  0  0  0  0
   63.4830   34.0050   48.8040 O   0  0  0  0  0  0  0  0  0  0  0  0
   60.8020   32.4280   46.6290 C   0  0  0  0  0  0  0  0  0  0  0  0
   59.4190   32.3810   46.4510 C   0  0  0  0  0  0  0  0  0  0  0  0
   55.8930   31.1940   44.3900 N   0  0  0  0  0  0  0  0  0  0  0  0
   55.6020   29.8740   44.4340 C   0  0  0  0  0  0  0  0  0  0  0  0
   56.5930   28.9380   44.4700 N   0  0  0  0  0  0  0  0  0  0  0  0
   59.4890   28.7770   46.7300 C   0  0  0  0  0  0  0  0  0  0  0  0
   58.3350   31.1360   50.9270 C   0  0  0  0  0  0  0  0  0  0  0  0
   55.2166   30.1410   53.4075 H   0  0  0  0  0  0  0  0  0  0  0  0
   54.4390   31.0271   52.0522 H   0  0  0  0  0  0  0  0  0  0  0  0
   54.4671   29.2310   52.0522 H   0  0  0  0  0  0  0  0  0  0  0  0
   55.8766   32.3995   52.9605 H   0  0  0  0  0  0  0  0  0  0  0  0
   57.5175   34.2635   52.9407 H   0  0  0  0  0  0  0  0  0  0  0  0
   59.5943   34.1353   51.6898 H   0  0  0  0  0  0  0  0  0  0  0  0
   60.6919   33.2537   49.7684 H   0  0  0  0  0  0  0  0  0  0  0  0
   62.2341   31.2871   50.4531 H   0  0  0  0  0  0  0  0  0  0  0  0
   59.4640   29.3800   49.8060 H   0  0  0  0  0  0  0  0  0  0  0  0
   60.8994   26.7826   49.1195 H   0  0  0  0  0  0  0  0  0  0  0  0
   60.7042   25.1619   47.2377 H   0  0  0  0  0  0  0  0  0  0  0  0
   59.7505   25.8348   45.0567 H   0  0  0  0  0  0  0  0  0  0  0  0
   59.2437   30.9617   44.4195 H   0  0  0  0  0  0  0  0  0  0  0  0
   57.2310   34.7845   45.0207 H   0  0  0  0  0  0  0  0  0  0  0  0
   55.7436   33.7611   45.0999 H   0  0  0  0  0  0  0  0  0  0  0  0
   56.6899   34.1866   47.3565 H   0  0  0  0  0  0  0  0  0  0  0  0
   56.7243   32.4511   46.9444 H   0  0  0  0  0  0  0  0  0  0  0  0
   58.5693   35.4014   47.7631 H   0  0  0  0  0  0  0  0  0  0  0  0
   61.0176   35.4788   48.0719 H   0  0  0  0  0  0  0  0  0  0  0  0
   64.7970   32.0950   46.9550 H   0  0  0  0  0  0  0  0  0  0  0  0
   63.6130   31.3520   47.8930 H   0  0  0  0  0  0  0  0  0  0  0  0
   61.4316   31.5847   46.3090 H   0  0  0  0  0  0  0  0  0  0  0  0
   58.9604   31.4958   45.9860 H   0  0  0  0  0  0  0  0  0  0  0  0
   54.5506   29.5507   44.4408 H   0  0  0  0  0  0  0  0  0  0  0  0
   56.3450   27.9320   44.5030 H   0  0  0  0  0  0  0  0  0  0  0  0
   59.1427   29.8117   46.5907 H   0  0  0  0  0  0  0  0  0  0  0  0
   58.5479   30.2242   50.3497 H   0  0  0  0  0  0  0  0  0  0  0  0
  1  2  1  0
  2  3  1  0
  3  4  2  0
  4  5  1  0
  5  6  2  0
  6  7  1  0
  7  8  1  0
  8  9  2  0
  9 10  1  0
 10 11  2  0
 10 12  1  0
 12 13  1  0
 13 14  2  0
 14 15  1  0
 15 16  2  0
 16 17  1  0
 17 18  1  0
 18 19  1  0
 19 20  2  0
 20 21  1  0
 21 22  2  0
 22 23  1  0
 23 24  1  0
 24 25  1  0
 25 26  2  0
 26 27  1  0
 27 28  2  0
 28 29  1  0
 29 30  1  0
 29 31  2  0
 29 32  2  0
 28 33  1  0
 33 34  2  0
 21 35  1  0
 35 36  2  0
 36 37  1  0
 17 38  2  0
  7 39  2  0
 39  3  1  0
 38 13  1  0
 37 19  1  0
 34 25  1  0
  1 40  1  0
  1 41  1  0
  1 42  1  0
  4 43  1  0
  5 44  1  0
  6 45  1  0
  8 46  1  0
  9 47  1  0
 12 48  1  0
 14 49  1  0
 15 50  1  0
 16 51  1  0
 20 52  1  0
 23 53  1  0
 23 54  1  0
 24 55  1  0
 24 56  1  0
 26 57  1  0
 27 58  1  0
 30 59  1  0
 30 60  1  0
 33 61  1  0
 34 62  1  0
 36 63  1  0
 37 64  1  0
 38 65  1  0
 39 66  1  0
M  END
>  <smiles>  (1) 
COc1cccc(C=CC(=O)Nc2cccc(Oc3cc(=NCCc4ccc(S(N)(=O)=O)cc4)nc[nH]3)c2)c1

>  <score_type>  (1) 
oracle

>  <origin>  (1) 
adg

>  <m_score__min__energy>  (1) 
-11.52

>  <m_primary>  (1) 
energy

$$$$
1:0
     RDKit          3D

 69 72  0  0  0  0  0  0  0  0999 V2000
   59.9380   35.7300   46.0080 O   0  0  0  0  0  0  0  0  0  0  0  0
   59.6560   34.5000   45.9990 C   0  0  0  0  0  0  0  0  0  0  0  0
   58.2260   34.0450   45.9120 C   0  0  0  0  0  0  0  0  0  0  0  0
   57.8180   33.1350   47.0810 C   0  0  0  0  0  0  0  0  0  0  0  0
   58.8780   33.1020   48.1930 C   0  0  0  0  0  0  0  0  0  0  0  0
   59.1850   31.7180   48.6170 N   0  0  0  0  0  0  0  0  0  0  0  0
   59.2470   31.4030   49.9510 C   0  0  0  0  0  0  0  0  0  0  0  0
   59.0180   32.2790   50.8300 O   0  0  0  0  0  0  0  0  0  0  0  0
   59.5560   30.1060   50.3530 C   0  0  0  0  0  0  0  0  0  0  0  0
   59.6920   29.6750   52.0960 S   0  0  0  0  0  0  0  0  0  0  0  0
   58.0830   30.3990   52.5810 C   0  0  0  0  0  0  0  0  0  0  0  0
   56.9860   29.3740   52.7020 C   0  0  0  0  0  0  0  0  0  0  0  0
   57.2550   28.2240   53.1500 O   0  0  0  0  0  0  0  0  0  0  0  0
   55.6170   29.7080   52.4020 N   0  0  0  0  0  0  0  0  0  0  0  0
   54.5090   28.8180   52.6970 C   0  0  0  0  0  0  0  0  0  0  0  0
   53.2530   29.6600   52.5280 C   0  0  0  0  0  0  0  0  0  0  0  0
   53.6710   30.8650   51.6980 C   0  0  0  0  0  0  0  0  0  0  0  0
   55.1780   30.9910   51.8820 C   0  0  0  0  0  0  0  0  0  0  0  0
   59.7540   29.1360   49.3790 C   0  0  0  0  0  0  0  0  0  0  0  0
   59.6990   29.4580   48.0560 N   0  0  0  0  0  0  0  0  0  0  0  0
   59.8950   28.3870   47.0640 C   0  0  0  0  0  0  0  0  0  0  0  0
   58.5640   27.8240   46.6390 C   0  0  0  0  0  0  0  0  0  0  0  0
   57.7390   28.5390   45.7550 C   0  0  0  0  0  0  0  0  0  0  0  0
   56.4790   28.0420   45.4090 C   0  0  0  0  0  0  0  0  0  0  0  0
   56.0270   26.8360   45.9540 C   0  0  0  0  0  0  0  0  0  0  0  0
   54.7690   26.3510   45.6210 O   0  0  0  0  0  0  0  0  0  0  0  0
   56.8400   26.1220   46.8390 C   0  0  0  0  0  0  0  0  0  0  0  0
   58.1030   26.6120   47.1820 C   0  0  0  0  0  0  0  0  0  0  0  0
   59.4230   30.7460   47.6740 C   0  0  0  0  0  0  0  0  0  0  0  0
   59.3790   31.0380   46.4450 O   0  0  0  0  0  0  0  0  0  0  0  0
   60.7050   33.5220   46.0140 N   0  0  0  0  0  0  0  0  0  0  0  0
   62.0880   33.8540   46.3480 C   0  0  0  0  0  0  0  0  0  0  0  0
   62.4290   33.4000   47.7420 C   0  0  0  0  0  0  0  0  0  0  0  0
   62.0390   34.1620   48.8560 C   0  0  0  0  0  0  0  0  0  0  0  0
   62.3380   33.7240   50.1510 C   0  0  0  0  0  0  0  0  0  0  0  0
   63.0250   32.5220   50.3430 C   0  0  0  0  0  0  0  0  0  0  0  0
   63.4110   31.7560   49.2410 C   0  0  0  0  0  0  0  0  0  0  0  0
   63.1120   32.1880   47.9430 C   0  0  0  0  0  0  0  0  0  0  0  0
   57.5746   34.9314   45.9128 H   0  0  0  0  0  0  0  0  0  0  0  0
   58.1202   33.4613   44.9857 H   0  0  0  0  0  0  0  0  0  0  0  0
   56.8728   33.5056   47.5044 H   0  0  0  0  0  0  0  0  0  0  0  0
   57.7098   32.1128   46.6893 H   0  0  0  0  0  0  0  0  0  0  0  0
   59.7996   33.5733   47.8208 H   0  0  0  0  0  0  0  0  0  0  0  0
   58.4796   33.6460   49.0621 H   0  0  0  0  0  0  0  0  0  0  0  0
   58.2032   30.8995   53.5531 H   0  0  0  0  0  0  0  0  0  0  0  0
   57.7881   31.1029   51.7888 H   0  0  0  0  0  0  0  0  0  0  0  0
   54.5002   27.9701   51.9963 H   0  0  0  0  0  0  0  0  0  0  0  0
   54.5836   28.3965   53.7103 H   0  0  0  0  0  0  0  0  0  0  0  0
   52.4743   29.0858   52.0046 H   0  0  0  0  0  0  0  0  0  0  0  0
   52.8344   29.9626   53.4992 H   0  0  0  0  0  0  0  0  0  0  0  0
   53.4264   30.7036   50.6377 H   0  0  0  0  0  0  0  0  0  0  0  0
   53.1460   31.7780   52.0155 H   0  0  0  0  0  0  0  0  0  0  0  0
   55.6660   31.2023   50.9191 H   0  0  0  0  0  0  0  0  0  0  0  0
   55.4373   31.8159   52.5620 H   0  0  0  0  0  0  0  0  0  0  0  0
   59.9573   28.0973   49.6785 H   0  0  0  0  0  0  0  0  0  0  0  0
   60.4142   28.7962   46.1848 H   0  0  0  0  0  0  0  0  0  0  0  0
   60.4974   27.5847   47.5151 H   0  0  0  0  0  0  0  0  0  0  0  0
   58.0858   29.4939   45.3333 H   0  0  0  0  0  0  0  0  0  0  0  0
   55.8422   28.6003   44.7071 H   0  0  0  0  0  0  0  0  0  0  0  0
   56.4849   25.1726   47.2663 H   0  0  0  0  0  0  0  0  0  0  0  0
   58.7389   26.0472   47.8796 H   0  0  0  0  0  0  0  0  0  0  0  0
   60.4550   32.5150   45.8820 H   0  0  0  0  0  0  0  0  0  0  0  0
   62.7602   33.3570   45.6331 H   0  0  0  0  0  0  0  0  0  0  0  0
   62.2094   34.9460   46.2950 H   0  0  0  0  0  0  0  0  0  0  0  0
   61.4960   35.1074   48.7096 H   0  0  0  0  0  0  0  0  0  0  0  0
   62.0320   34.3265   51.0190 H   0  0  0  0  0  0  0  0  0  0  0  0
   63.2614   32.1797   51.3613 H   0  0  0  0  0  0  0  0  0  0  0  0
   63.9517   30.8102   49.3931 H   0  0  0  0  0  0  0  0  0  0  0  0
   63.4123   31.5775   47.0787 H   0  0  0  0  0  0  0  0  0  0  0  0
  1  2  2  0
  2  3  1  0
  3  4  1  0
  4  5  1  0
  5  6  1  0
  6  7  1  0
  7  8  2  0
  7  9  1  0
  9 10  1  0
 10 11  1  0
 11 12  1  0
 12 13  2  0
 12 14  1  0
 14 15  1  0
 15 16  1  0
 16 17  1  0
 17 18  1  0
  9 19  2  0
 19 20  1  0
 20 21  1  0
 21 22  1  0
 22 23  2  0
 23 24  1  0
 24 25  2  0
 25 26  1  0
 25 27  1  0
 27 28  2  0
 20 29  1  0
 29 30  2  0
  2 31  1  0
 31 32  1  0
 32 33  1  0
 33 34  2  0
 34 35  1  0
 35 36  2  0
 36 37  1  0
 37 38  2  0
 29  6  1  0
 38 33  1  0
 18 14  1  0
 28 22  1  0
  3 39  1  0
  3 40  1  0
  4 41  1  0
  4 42  1  0
  5 43  1  0
  5 44  1  0
 11 45  1  0
 11 46  1  0
 15 47  1  0
 15 48  1  0
 16 49  1  0
 16 50  1  0
 17 51  1  0
 17 52  1  0
 18 53  1  0
 18 54  1  0
 19 55  1  0
 21 56  1  0
 21 57  1  0
 23 58  1  0
 24 59  1  0
 27 60  1  0
 28 61  1  0
 31 62  1  0
 32 63  1  0
 32 64  1  0
 34 65  1  0
 35 66  1  0
 36 67  1  0
 37 68  1  0
 38 69  1  0
M  CHG  1  26  -1
M  END
>  <UniqueID>  (2) 
1

>  <SMILES>  (2) 
O=C(CCCn1c(=O)c(SCC(=O)N2CCCC2)cn(Cc2ccc([O-])cc2)c1=O)NCc1ccccc1

>  <Energy>  (2) 
63.13224669630852

>  <Genealogy>  (2) 
O=C(CCCn1c(=O)c(SCC(=O)N2CCCC2)cn(Cc2ccc([O-])cc2)c1=O)NCc1ccccc1 (protonated)
O=C(CCCn1c(=O)c(SCC(=O)N2CCCC2)cn(Cc2ccc([O-])cc2)c1=O)NCc1ccccc1 (3D coordinates assigned)
O=C(CCCn1c(=O)c(SCC(=O)N2CCCC2)cn(Cc2ccc([O-])cc2)c1=O)NCc1ccccc1 (nonaromatic ring conformer: 63.13224669630852 kcal/mol)

>  <smiles>  (2) 
O=C(CCCn1c(=O)c(SCC(=O)N2CCCC2)cn(Cc2ccc(O)cc2)c1=O)NCc1ccccc1

>  <score_type>  (2) 
oracle

>  <origin>  (2) 
adg

>  <m_score__min__energy>  (2) 
-12.470000000000001

>  <m_primary>  (2) 
energy

$$$$
2:0
     RDKit          3D

 48 51  0  0  0  0  0  0  0  0999 V2000
   57.0460   31.1346   42.1507 H   0  0  0  0  0  0  0  0  0  0  0  0
   57.3800   31.9860   42.7620 C   0  0  0  0  0  0  0  0  0  0  0  0
   57.2622   33.0129   42.3858 H   0  0  0  0  0  0  0  0  0  0  0  0
   57.9280   31.7730   43.9600 C   0  0  0  0  0  0  0  0  0  0  0  0
   58.4090   32.7880   44.8660 C   0  0  0  0  0  0  0  0  0  0  0  0
   58.4020   34.0320   44.6650 O   0  0  0  0  0  0  0  0  0  0  0  0
   58.9040   32.1070   46.0520 C   0  0  0  0  0  0  0  0  0  0  0  0
   59.4740   32.7300   47.0930 C   0  0  0  0  0  0  0  0  0  0  0  0
   58.8321   33.2475   47.8210 H   0  0  0  0  0  0  0  0  0  0  0  0
   60.9320   32.7430   47.2920 C   0  0  0  0  0  0  0  0  0  0  0  0
   61.6640   33.8410   46.8140 C   0  0  0  0  0  0  0  0  0  0  0  0
   61.1395   34.6832   46.3391 H   0  0  0  0  0  0  0  0  0  0  0  0
   63.0540   33.8700   46.9380 C   0  0  0  0  0  0  0  0  0  0  0  0
   63.6214   34.7313   46.5555 H   0  0  0  0  0  0  0  0  0  0  0  0
   63.7250   32.8090   47.5460 C   0  0  0  0  0  0  0  0  0  0  0  0
   64.8212   32.8308   47.6342 H   0  0  0  0  0  0  0  0  0  0  0  0
   63.0070   31.7190   48.0430 C   0  0  0  0  0  0  0  0  0  0  0  0
   63.5415   30.8891   48.5283 H   0  0  0  0  0  0  0  0  0  0  0  0
   61.6070   31.6740   47.9280 C   0  0  0  0  0  0  0  0  0  0  0  0
   60.8860   30.5690   48.5080 N   0  0  0  0  0  0  0  0  0  0  0  0
   60.7750   29.2980   47.7830 C   0  0  0  0  0  0  0  0  0  0  0  0
   60.7671   29.4951   46.7008 H   0  0  0  0  0  0  0  0  0  0  0  0
   61.6333   28.6594   48.0389 H   0  0  0  0  0  0  0  0  0  0  0  0
   59.4800   28.5830   48.1780 C   0  0  0  0  0  0  0  0  0  0  0  0
   59.2075   27.8591   47.3959 H   0  0  0  0  0  0  0  0  0  0  0  0
   59.6289   28.0541   49.1310 H   0  0  0  0  0  0  0  0  0  0  0  0
   58.4430   29.5330   48.3230 O   0  0  0  0  0  0  0  0  0  0  0  0
   58.6320   30.3100   49.4970 C   0  0  0  0  0  0  0  0  0  0  0  0
   58.0082   31.2127   49.4188 H   0  0  0  0  0  0  0  0  0  0  0  0
   58.3504   29.6739   50.3491 H   0  0  0  0  0  0  0  0  0  0  0  0
   60.0960   30.7490   49.7300 C   0  0  0  0  0  0  0  0  0  0  0  0
   60.1141   31.8099   50.0199 H   0  0  0  0  0  0  0  0  0  0  0  0
   60.5303   30.1304   50.5292 H   0  0  0  0  0  0  0  0  0  0  0  0
   58.7590   30.6780   45.9540 N   0  0  0  0  0  0  0  0  0  0  0  0
   59.6990   30.2180   45.9910 H   0  0  0  0  0  0  0  0  0  0  0  0
   58.1160   30.3300   46.6980 H   0  0  0  0  0  0  0  0  0  0  0  0
   58.1640   30.4960   44.6500 C   0  0  0  0  0  0  0  0  0  0  0  0
   57.9290   29.2830   44.1200 C   0  0  0  0  0  0  0  0  0  0  0  0
   58.1524   29.1162   43.0559 H   0  0  0  0  0  0  0  0  0  0  0  0
   57.3820   28.1680   44.9160 C   0  0  0  0  0  0  0  0  0  0  0  0
   56.0200   28.1150   45.2560 C   0  0  0  0  0  0  0  0  0  0  0  0
   55.1440   29.1060   44.8320 O   0  0  0  0  0  0  0  0  0  0  0  0
   55.5470   27.0750   45.9910 N   0  0  0  0  0  0  0  0  0  0  0  0
   56.3650   26.0710   46.3940 C   0  0  0  0  0  0  0  0  0  0  0  0
   55.9040   25.1210   47.0770 O   0  0  0  0  0  0  0  0  0  0  0  0
   57.6800   26.0890   46.0580 N   0  0  0  0  0  0  0  0  0  0  0  0
   58.2040   27.1070   45.3270 C   0  0  0  0  0  0  0  0  0  0  0  0
   59.4290   27.0920   45.0310 O   0  0  0  0  0  0  0  0  0  0  0  0
  1  2  1  0
  2  3  1  0
  2  4  2  0
  4  5  1  0
  5  6  2  0
  5  7  1  0
  7  8  2  0
  8  9  1  0
  8 10  1  0
 10 11  2  0
 11 12  1  0
 11 13  1  0
 13 14  1  0
 13 15  2  0
 15 16  1  0
 15 17  1  0
 17 18  1  0
 17 19  2  0
 19 20  1  0
 20 21  1  0
 21 22  1  0
 21 23  1  0
 21 24  1  0
 24 25  1  0
 24 26  1  0
 24 27  1  0
 27 28  1  0
 28 29  1  0
 28 30  1  0
 28 31  1  0
 31 32  1  0
 31 33  1  0
  7 34  1  0
 34 35  1  0
 34 36  1  0
 34 37  1  0
 37 38  2  3
 38 39  1  0
 38 40  1  0
 40 41  2  0
 41 42  1  0
 41 43  1  0
 43 44  1  0
 44 45  2  0
 44 46  1  0
 46 47  1  0
 47 48  2  0
 37  4  1  0
 47 40  1  0
 19 10  1  0
 31 20  1  0
M  CHG  4  34   1  42  -1  43  -1  46  -1
M  END
>  <UniqueID>  (3) 
2

>  <SMILES>  (3) 
C=C1C(=O)/C(=C/c2ccccc2N2CCOCC2)[NH2+]C1=Cc1c([O-])[n-]c(=O)[n-]c1=O

>  <Energy>  (3) 
97.0274098536032

>  <Genealogy>  (3) 
C=C1C(=O)C(=Cc2ccccc2N2CCOCC2)[NH2+]C1=Cc1c([O-])[n-]c(=O)[n-]c1=O (protonated)
C=C1C(=O)/C(=C/c2ccccc2N2CCOCC2)[NH2+]C1=Cc1c([O-])[n-]c(=O)[n-]c1=O (cis-trans isomerization)
C=C1C(=O)/C(=C/c2ccccc2N2CCOCC2)[NH2+]C1=Cc1c([O-])[n-]c(=O)[n-]c1=O (3D coordinates assigned)
C=C1C(=O)/C(=C/c2ccccc2N2CCOCC2)[NH2+]C1=Cc1c([O-])[n-]c(=O)[n-]c1=O (nonaromatic ring conformer: 97.0274098536032 kcal/mol)

>  <smiles>  (3) 
C=C1C(=O)C(=Cc2ccccc2N2CCOCC2)NC1=Cc1c(O)[nH]c(=O)[nH]c1=O

>  <score_type>  (3) 
oracle

>  <origin>  (3) 
adg

>  <m_score__min__energy>  (3) 
-14.640000000000001

>  <m_primary>  (3) 
energy

$$$$
3:0
     RDKit          3D

 44 46  0  0  0  0  0  0  0  0999 V2000
   50.4280   33.2000   52.3700 O   0  0  0  0  0  0  0  0  0  0  0  0
   51.0140   32.3550   51.6440 C   0  0  0  0  0  0  0  0  0  0  0  0
   51.4500   32.7200   50.3770 O   0  0  0  0  0  0  0  0  0  0  0  0
   51.1960   30.9510   52.1210 C   0  0  0  0  0  0  0  0  0  0  0  0
   52.6470   30.6840   52.3840 C   0  0  0  0  0  0  0  0  0  0  0  0
   53.0900   29.7740   53.3430 C   0  0  0  0  0  0  0  0  0  0  0  0
   54.7740   29.8170   53.3640 S   0  0  0  0  0  0  0  0  0  0  0  0
   54.8660   30.9900   52.1520 C   0  0  0  0  0  0  0  0  0  0  0  0
   55.9540   31.5310   51.6860 N   0  0  0  0  0  0  0  0  0  0  0  0
   57.2260   30.8800   51.5560 C   0  0  0  0  0  0  0  0  0  0  0  0
   57.2780   29.6290   51.6900 O   0  0  0  0  0  0  0  0  0  0  0  0
   58.4790   31.6430   51.3390 C   0  0  0  0  0  0  0  0  0  0  0  0
   59.6470   31.3000   52.0380 C   0  0  0  0  0  0  0  0  0  0  0  0
   60.8320   32.0060   51.8210 C   0  0  0  0  0  0  0  0  0  0  0  0
   60.8610   33.0710   50.9170 C   0  0  0  0  0  0  0  0  0  0  0  0
   59.6910   33.4510   50.2340 C   0  0  0  0  0  0  0  0  0  0  0  0
   59.6660   34.4970   49.3010 O   0  0  0  0  0  0  0  0  0  0  0  0
   59.2950   34.3900   47.9550 C   0  0  0  0  0  0  0  0  0  0  0  0
   59.2990   35.3980   47.2000 O   0  0  0  0  0  0  0  0  0  0  0  0
   58.8550   33.1330   47.4390 N   0  0  0  0  0  0  0  0  0  0  0  0
   59.7550   32.0040   47.2250 C   0  0  0  0  0  0  0  0  0  0  0  0
   61.1900   32.4570   47.2810 C   0  0  0  0  0  0  0  0  0  0  0  0
   62.0830   31.8970   48.2110 C   0  0  0  0  0  0  0  0  0  0  0  0
   63.4050   32.3470   48.2760 C   0  0  0  0  0  0  0  0  0  0  0  0
   63.8450   33.3580   47.4170 C   0  0  0  0  0  0  0  0  0  0  0  0
   62.9620   33.9210   46.4910 C   0  0  0  0  0  0  0  0  0  0  0  0
   61.6390   33.4740   46.4230 C   0  0  0  0  0  0  0  0  0  0  0  0
   58.5100   32.7320   50.4490 C   0  0  0  0  0  0  0  0  0  0  0  0
   53.6370   31.3640   51.7410 N   0  0  0  0  0  0  0  0  0  0  0  0
   50.6244   30.8045   53.0493 H   0  0  0  0  0  0  0  0  0  0  0  0
   50.8351   30.2569   51.3477 H   0  0  0  0  0  0  0  0  0  0  0  0
   52.4517   29.1392   53.9752 H   0  0  0  0  0  0  0  0  0  0  0  0
   59.6287   30.4707   52.7605 H   0  0  0  0  0  0  0  0  0  0  0  0
   61.7459   31.7227   52.3637 H   0  0  0  0  0  0  0  0  0  0  0  0
   61.8010   33.6138   50.7388 H   0  0  0  0  0  0  0  0  0  0  0  0
   59.5824   31.2499   48.0070 H   0  0  0  0  0  0  0  0  0  0  0  0
   59.5560   31.5728   46.2328 H   0  0  0  0  0  0  0  0  0  0  0  0
   61.7405   31.1021   48.8898 H   0  0  0  0  0  0  0  0  0  0  0  0
   64.1003   31.9046   49.0046 H   0  0  0  0  0  0  0  0  0  0  0  0
   64.8857   33.7105   47.4696 H   0  0  0  0  0  0  0  0  0  0  0  0
   63.3085   34.7166   45.8150 H   0  0  0  0  0  0  0  0  0  0  0  0
   60.9468   33.9209   45.6942 H   0  0  0  0  0  0  0  0  0  0  0  0
   57.5933   33.0223   49.9148 H   0  0  0  0  0  0  0  0  0  0  0  0
   53.4650   32.0940   51.0140 H   0  0  0  0  0  0  0  0  0  0  0  0
  1  2  2  0
  2  3  1  0
  2  4  1  0
  4  5  1  0
  5  6  2  0
  6  7  1  0
  7  8  1  0
  8  9  2  3
  9 10  1  0
 10 11  2  0
 10 12  1  0
 12 13  2  0
 13 14  1  0
 14 15  2  0
 15 16  1  0
 16 17  1  0
 17 18  1  0
 18 19  2  0
 18 20  1  0
 20 21  1  0
 21 22  1  0
 22 23  2  0
 23 24  1  0
 24 25  2  0
 25 26  1  0
 26 27  2  0
 16 28  2  0
  8 29  1  0
 29  5  1  0
 28 12  1  0
 27 22  1  0
  4 30  1  0
  4 31  1  0
  6 32  1  0
 13 33  1  0
 14 34  1  0
 15 35  1  0
 21 36  1  0
 21 37  1  0
 23 38  1  0
 24 39  1  0
 25 40  1  0
 26 41  1  0
 27 42  1  0
 28 43  1  0
 29 44  1  0
M  CHG  2   3  -1  20  -1
M  END
>  <UniqueID>  (4) 
3

>  <SMILES>  (4) 
O=C([O-])Cc1csc(=NC(=O)c2cccc(OC(=O)[N-]Cc3ccccc3)c2)[nH]1

>  <Energy>  (4) 
81.65647710539558

>  <Genealogy>  (4) 
O=C([O-])Cc1csc(=NC(=O)c2cccc(OC(=O)[N-]Cc3ccccc3)c2)[nH]1 (protonated)
O=C([O-])Cc1csc(=NC(=O)c2cccc(OC(=O)[N-]Cc3ccccc3)c2)[nH]1 (3D coordinates assigned)
O=C([O-])Cc1csc(=NC(=O)c2cccc(OC(=O)[N-]Cc3ccccc3)c2)[nH]1 (optimized conformer: 81.65647710539558 kcal/mol)

>  <smiles>  (4) 
O=C(O)Cc1csc(=NC(=O)c2cccc(OC(=O)NCc3ccccc3)c2)[nH]1

>  <score_type>  (4) 
oracle

>  <origin>  (4) 
adg

>  <m_score__min__energy>  (4) 
-13.08

>  <m_primary>  (4) 
energy

$$$$
4:0
     RDKit          3D

 49 52  0  0  0  0  0  0  0  0999 V2000
   56.1500   30.5300   52.0640 C   0  0  0  0  0  0  0  0  0  0  0  0
   57.4450   30.4270   51.4830 O   0  0  0  0  0  0  0  0  0  0  0  0
   58.2000   31.5170   51.0230 C   0  0  0  0  0  0  0  0  0  0  0  0
   58.1340   31.9660   49.6890 C   0  0  0  0  0  0  0  0  0  0  0  0
   58.9060   33.0600   49.2660 C   0  0  0  0  0  0  0  0  0  0  0  0
   58.8100   33.5420   47.8430 C   0  0  0  0  0  0  0  0  0  0  0  0
   59.8020   32.8420   46.9970 N   0  0  0  0  0  0  0  0  0  0  0  0
   59.9310   33.4500   45.6570 C   0  0  0  0  0  0  0  0  0  0  0  0
   58.6350   33.3380   44.8390 C   0  0  0  0  0  0  0  0  0  0  0  0
   58.0070   31.9730   44.9450 C   0  0  0  0  0  0  0  0  0  0  0  0
   56.9700   31.6280   44.0670 C   0  0  0  0  0  0  0  0  0  0  0  0
   56.3270   30.3930   44.1830 C   0  0  0  0  0  0  0  0  0  0  0  0
   56.6980   29.4940   45.1950 C   0  0  0  0  0  0  0  0  0  0  0  0
   56.0750   28.2090   45.3220 N   0  0  0  0  0  0  0  0  0  0  0  0
   56.5710   27.1050   46.0900 C   0  0  0  0  0  0  0  0  0  0  0  0
   57.5600   27.2880   46.8480 O   0  0  0  0  0  0  0  0  0  0  0  0
   55.9150   25.7860   46.0720 C   0  0  0  0  0  0  0  0  0  0  0  0
   54.6450   25.5920   45.6530 N   0  0  0  0  0  0  0  0  0  0  0  0
   54.4570   24.2750   45.8280 C   0  0  0  0  0  0  0  0  0  0  0  0
   53.2370   23.5880   45.5110 C   0  0  0  0  0  0  0  0  0  0  0  0
   52.2530   23.0350   45.2550 N   0  0  0  0  0  0  0  0  0  0  0  0
   55.5910   23.7030   46.3490 C   0  0  0  0  0  0  0  0  0  0  0  0
   56.5220   24.6600   46.5110 N   0  0  0  0  0  0  0  0  0  0  0  0
   57.7450   29.8280   46.0610 C   0  0  0  0  0  0  0  0  0  0  0  0
   58.3840   31.0740   45.9630 C   0  0  0  0  0  0  0  0  0  0  0  0
   59.5360   31.3910   46.8880 C   0  0  0  0  0  0  0  0  0  0  0  0
   59.7410   33.7110   50.1850 C   0  0  0  0  0  0  0  0  0  0  0  0
   59.8090   33.2710   51.5080 C   0  0  0  0  0  0  0  0  0  0  0  0
   59.0430   32.1760   51.9290 C   0  0  0  0  0  0  0  0  0  0  0  0
   59.1120   31.7370   53.2500 O   0  0  0  0  0  0  0  0  0  0  0  0
   56.2384   30.5230   53.1604 H   0  0  0  0  0  0  0  0  0  0  0  0
   55.6765   31.4686   51.7403 H   0  0  0  0  0  0  0  0  0  0  0  0
   55.5341   29.6780   51.7403 H   0  0  0  0  0  0  0  0  0  0  0  0
   57.4726   31.4556   48.9735 H   0  0  0  0  0  0  0  0  0  0  0  0
   57.7990   33.3410   47.4590 H   0  0  0  0  0  0  0  0  0  0  0  0
   59.0148   34.6224   47.8160 H   0  0  0  0  0  0  0  0  0  0  0  0
   60.1846   34.5139   45.7741 H   0  0  0  0  0  0  0  0  0  0  0  0
   60.7191   32.9066   45.1152 H   0  0  0  0  0  0  0  0  0  0  0  0
   57.9183   34.0865   45.2079 H   0  0  0  0  0  0  0  0  0  0  0  0
   58.8885   33.5102   43.7825 H   0  0  0  0  0  0  0  0  0  0  0  0
   56.6607   32.3338   43.2821 H   0  0  0  0  0  0  0  0  0  0  0  0
   55.5265   30.1241   43.4781 H   0  0  0  0  0  0  0  0  0  0  0  0
   55.7173   22.6380   46.5935 H   0  0  0  0  0  0  0  0  0  0  0  0
   58.0704   29.1074   46.8258 H   0  0  0  0  0  0  0  0  0  0  0  0
   59.3003   31.0009   47.8891 H   0  0  0  0  0  0  0  0  0  0  0  0
   60.4369   30.9201   46.4678 H   0  0  0  0  0  0  0  0  0  0  0  0
   60.3449   34.5719   49.8622 H   0  0  0  0  0  0  0  0  0  0  0  0
   60.4669   33.7863   52.2232 H   0  0  0  0  0  0  0  0  0  0  0  0
   58.5840   30.9340   53.5700 H   0  0  0  0  0  0  0  0  0  0  0  0
  1  2  1  0
  2  3  1  0
  3  4  2  0
  4  5  1  0
  5  6  1  0
  6  7  1  0
  7  8  1  0
  8  9  1  0
  9 10  1  0
 10 11  2  0
 11 12  1  0
 12 13  2  0
 13 14  1  0
 14 15  1  0
 15 16  2  0
 15 17  1  0
 17 18  2  0
 18 19  1  0
 19 20  1  0
 20 21  3  0
 19 22  2  0
 22 23  1  0
 13 24  1  0
 24 25  2  0
 25 26  1  0
  5 27  2  0
 27 28  1  0
 28 29  2  0
 29 30  1  0
 29  3  1  0
 26  7  1  0
 25 10  1  0
 23 17  1  0
  1 31  1  0
  1 32  1  0
  1 33  1  0
  4 34  1  0
  6 35  1  0
  6 36  1  0
  8 37  1  0
  8 38  1  0
  9 39  1  0
  9 40  1  0
 11 41  1  0
 12 42  1  0
 22 43  1  0
 24 44  1  0
 26 45  1  0
 26 46  1  0
 27 47  1  0
 28 48  1  0
 30 49  1  0
M  CHG  2  14  -1  23  -1
M  END
>  <UniqueID>  (5) 
4

>  <SMILES>  (5) 
COc1cc(CN2CCc3ccc([N-]C(=O)c4nc(C#N)c[n-]4)cc3C2)ccc1O

>  <Energy>  (5) 
88.08473564761135

>  <Genealogy>  (5) 
COc1cc(CN2CCc3ccc([N-]C(=O)c4nc(C#N)c[n-]4)cc3C2)ccc1O (protonated)
COc1cc(CN2CCc3ccc([N-]C(=O)c4nc(C#N)c[n-]4)cc3C2)ccc1O (3D coordinates assigned)
COc1cc(CN2CCc3ccc([N-]C(=O)c4nc(C#N)c[n-]4)cc3C2)ccc1O (nonaromatic ring conformer: 88.08473564761135 kcal/mol)

>  <smiles>  (5) 
COc1cc(CN2CCc3ccc(NC(=O)c4nc(C#N)c[nH]4)cc3C2)ccc1O

>  <score_type>  (5) 
oracle

>  <origin>  (5) 
adg

>  <m_score__min__energy>  (5) 
-11.380000000000001

>  <m_primary>  (5) 
energy

$$$$
5:0
     RDKit          3D

 41 43  0  0  0  0  0  0  0  0999 V2000
   55.6930   29.7400   45.9250 H   0  0  0  0  0  0  0  0  0  0  0  0
   55.8450   29.0080   45.2410 O   0  0  0  0  0  0  0  0  0  0  0  0
   56.2760   27.7400   45.6220 C   0  0  0  0  0  0  0  0  0  0  0  0
   55.4420   26.7570   45.9970 N   0  0  0  0  0  0  0  0  0  0  0  0
   56.2850   25.7450   46.2900 C   0  0  0  0  0  0  0  0  0  0  0  0
   55.8840   24.6230   46.6940 O   0  0  0  0  0  0  0  0  0  0  0  0
   57.5940   26.0330   46.1270 N   0  0  0  0  0  0  0  0  0  0  0  0
   57.5800   27.3010   45.6740 C   0  0  0  0  0  0  0  0  0  0  0  0
   58.7830   28.1230   45.4670 C   0  0  0  0  0  0  0  0  0  0  0  0
   59.5640   27.7142   44.8090 H   0  0  0  0  0  0  0  0  0  0  0  0
   59.0100   29.3330   46.0140 C   0  0  0  0  0  0  0  0  0  0  0  0
   58.7730   30.5170   45.3340 C   0  0  0  0  0  0  0  0  0  0  0  0
   58.4395   30.6176   44.2906 H   0  0  0  0  0  0  0  0  0  0  0  0
   59.0350   31.5450   46.2150 C   0  0  0  0  0  0  0  0  0  0  0  0
   58.8860   33.0030   45.9040 C   0  0  0  0  0  0  0  0  0  0  0  0
   58.8277   33.5740   46.8424 H   0  0  0  0  0  0  0  0  0  0  0  0
   59.7540   33.3440   45.3206 H   0  0  0  0  0  0  0  0  0  0  0  0
   57.9670   33.1614   45.3206 H   0  0  0  0  0  0  0  0  0  0  0  0
   59.4470   31.0510   47.4020 N   0  0  0  0  0  0  0  0  0  0  0  0
   59.8650   31.8420   48.5290 C   0  0  0  0  0  0  0  0  0  0  0  0
   58.9000   32.4190   49.3660 C   0  0  0  0  0  0  0  0  0  0  0  0
   57.8310   32.2667   49.1559 H   0  0  0  0  0  0  0  0  0  0  0  0
   59.2900   33.1860   50.4650 C   0  0  0  0  0  0  0  0  0  0  0  0
   58.5289   33.6352   51.1199 H   0  0  0  0  0  0  0  0  0  0  0  0
   60.6450   33.3830   50.7330 C   0  0  0  0  0  0  0  0  0  0  0  0
   60.9503   33.9842   51.6021 H   0  0  0  0  0  0  0  0  0  0  0  0
   61.6150   32.8190   49.9010 C   0  0  0  0  0  0  0  0  0  0  0  0
   62.6816   32.9808   50.1157 H   0  0  0  0  0  0  0  0  0  0  0  0
   61.2330   32.0430   48.7870 C   0  0  0  0  0  0  0  0  0  0  0  0
   62.1700   31.4690   47.9100 O   0  0  0  0  0  0  0  0  0  0  0  0
   63.1910   32.1740   47.2040 C   0  0  0  0  0  0  0  0  0  0  0  0
   64.0862   32.2453   47.8393 H   0  0  0  0  0  0  0  0  0  0  0  0
   63.4231   31.6274   46.2781 H   0  0  0  0  0  0  0  0  0  0  0  0
   62.7220   33.5790   46.8400 C   0  0  0  0  0  0  0  0  0  0  0  0
   62.5309   34.1515   47.7596 H   0  0  0  0  0  0  0  0  0  0  0  0
   63.5004   34.0838   46.2489 H   0  0  0  0  0  0  0  0  0  0  0  0
   61.7965   33.5150   46.2489 H   0  0  0  0  0  0  0  0  0  0  0  0
   59.4700   29.6990   47.2900 C   0  0  0  0  0  0  0  0  0  0  0  0
   59.9740   28.8910   48.2370 C   0  0  0  0  0  0  0  0  0  0  0  0
   60.3000   29.3095   49.2006 H   0  0  0  0  0  0  0  0  0  0  0  0
   60.0608   27.8107   48.0490 H   0  0  0  0  0  0  0  0  0  0  0  0
  1  2  1  0
  2  3  1  0
  3  4  1  0
  4  5  1  0
  5  6  2  0
  5  7  1  0
  7  8  1  0
  8  9  1  0
  9 10  1  0
  9 11  2  0
 11 12  1  0
 12 13  1  0
 12 14  2  0
 14 15  1  0
 15 16  1  0
 15 17  1  0
 15 18  1  0
 14 19  1  0
 19 20  1  0
 20 21  2  0
 21 22  1  0
 21 23  1  0
 23 24  1  0
 23 25  2  0
 25 26  1  0
 25 27  1  0
 27 28  1  0
 27 29  2  0
 29 30  1  0
 30 31  1  0
 31 32  1  0
 31 33  1  0
 31 34  1  0
 34 35  1  0
 34 36  1  0
 34 37  1  0
 19 38  1  0
 38 39  2  0
 39 40  1  0
 39 41  1  0
  8  3  2  0
 38 11  1  0
 29 20  1  0
M  CHG  2   4  -1   7  -1
M  END
>  <UniqueID>  (6) 
5

>  <SMILES>  (6) 
C=c1/c(=C\c2[n-]c(=O)[n-]c2O)cc(C)n1-c1ccccc1OCC

>  <Energy>  (6) 
114.89454370223366

>  <Genealogy>  (6) 
C=c1c(=Cc2[n-]c(=O)[n-]c2O)cc(C)n1-c1ccccc1OCC (protonated)
C=c1/c(=C\c2[n-]c(=O)[n-]c2O)cc(C)n1-c1ccccc1OCC (cis-trans isomerization)
C=c1/c(=C\c2[n-]c(=O)[n-]c2O)cc(C)n1-c1ccccc1OCC (3D coordinates assigned)
C=c1/c(=C\c2[n-]c(=O)[n-]c2O)cc(C)n1-c1ccccc1OCC (optimized conformer: 114.89454370223366 kcal/mol)

>  <smiles>  (6) 
C=c1c(=Cc2[nH]c(=O)[nH]c2O)cc(C)n1-c1ccccc1OCC

>  <score_type>  (6) 
oracle

>  <origin>  (6) 
adg

>  <m_score__min__energy>  (6) 
-12.369999999999999

>  <m_primary>  (6) 
energy

$$$$
6:0
     RDKit          3D

 53 55  0  0  0  0  0  0  0  0999 V2000
   59.0966   30.6079   44.5563 H   0  0  0  0  0  0  0  0  0  0  0  0
   59.2390   30.0680   45.5040 C   0  0  0  0  0  0  0  0  0  0  0  0
   60.2260   30.4410   46.3550 N   0  0  0  0  0  0  0  0  0  0  0  0
   60.4030   29.8110   47.5490 C   0  0  0  0  0  0  0  0  0  0  0  0
   61.3870   30.1250   48.3390 N   0  0  0  0  0  0  0  0  0  0  0  0
   62.1690   31.3310   48.2840 C   0  0  0  0  0  0  0  0  0  0  0  0
   63.0110   31.5850   47.1880 C   0  0  0  0  0  0  0  0  0  0  0  0
   63.0737   30.8557   46.3669 H   0  0  0  0  0  0  0  0  0  0  0  0
   63.7670   32.7540   47.1340 C   0  0  0  0  0  0  0  0  0  0  0  0
   64.4221   32.9438   46.2710 H   0  0  0  0  0  0  0  0  0  0  0  0
   63.6960   33.6830   48.1690 C   0  0  0  0  0  0  0  0  0  0  0  0
   64.3046   34.5981   48.1226 H   0  0  0  0  0  0  0  0  0  0  0  0
   62.8540   33.4620   49.2720 C   0  0  0  0  0  0  0  0  0  0  0  0
   62.8150   34.4890   50.3720 C   0  0  0  0  0  0  0  0  0  0  0  0
   62.8343   33.9819   51.3479 H   0  0  0  0  0  0  0  0  0  0  0  0
   63.6886   35.1519   50.2859 H   0  0  0  0  0  0  0  0  0  0  0  0
   61.8936   35.0837   50.2859 H   0  0  0  0  0  0  0  0  0  0  0  0
   62.0460   32.2960   49.3130 C   0  0  0  0  0  0  0  0  0  0  0  0
   61.1350   32.0270   50.4890 C   0  0  0  0  0  0  0  0  0  0  0  0
   61.6878   32.1902   51.4259 H   0  0  0  0  0  0  0  0  0  0  0  0
   60.2728   32.7089   50.4484 H   0  0  0  0  0  0  0  0  0  0  0  0
   60.7815   30.9861   50.4484 H   0  0  0  0  0  0  0  0  0  0  0  0
   59.5780   28.7900   47.8950 N   0  0  0  0  0  0  0  0  0  0  0  0
   58.5830   28.3660   47.0690 C   0  0  0  0  0  0  0  0  0  0  0  0
   57.7540   27.3010   47.4440 O   0  0  0  0  0  0  0  0  0  0  0  0
   57.6890   26.0670   46.7340 C   0  0  0  0  0  0  0  0  0  0  0  0
   58.4650   25.3878   47.1169 H   0  0  0  0  0  0  0  0  0  0  0  0
   57.8511   26.2635   45.6639 H   0  0  0  0  0  0  0  0  0  0  0  0
   56.3460   25.4300   46.9110 C   0  0  0  0  0  0  0  0  0  0  0  0
   56.2140   24.4550   47.7000 O   0  0  0  0  0  0  0  0  0  0  0  0
   55.2130   25.9580   46.2160 N   0  0  0  0  0  0  0  0  0  0  0  0
   54.1830   25.1150   45.6290 C   0  0  0  0  0  0  0  0  0  0  0  0
   53.5995   24.6375   46.4300 H   0  0  0  0  0  0  0  0  0  0  0  0
   53.5165   25.7301   45.0066 H   0  0  0  0  0  0  0  0  0  0  0  0
   54.6542   24.3400   45.0066 H   0  0  0  0  0  0  0  0  0  0  0  0
   58.4020   28.9970   45.8310 C   0  0  0  0  0  0  0  0  0  0  0  0
   57.4130   28.5150   44.8510 C   0  0  0  0  0  0  0  0  0  0  0  0
   57.7610   27.6510   44.0050 O   0  0  0  0  0  0  0  0  0  0  0  0
   56.0460   28.9500   44.8820 N   0  0  0  0  0  0  0  0  0  0  0  0
   55.5000   30.1130   44.1820 C   0  0  0  0  0  0  0  0  0  0  0  0
   55.0547   29.7821   43.2321 H   0  0  0  0  0  0  0  0  0  0  0  0
   54.7418   30.5803   44.8276 H   0  0  0  0  0  0  0  0  0  0  0  0
   56.5700   31.1350   43.8920 C   0  0  0  0  0  0  0  0  0  0  0  0
   57.1670   31.1970   42.6220 C   0  0  0  0  0  0  0  0  0  0  0  0
   56.8794   30.4733   41.8451 H   0  0  0  0  0  0  0  0  0  0  0  0
   58.1260   32.1760   42.3420 C   0  0  0  0  0  0  0  0  0  0  0  0
   58.5859   32.2243   41.3439 H   0  0  0  0  0  0  0  0  0  0  0  0
   58.5010   33.0930   43.3280 C   0  0  0  0  0  0  0  0  0  0  0  0
   59.2506   33.8661   43.1033 H   0  0  0  0  0  0  0  0  0  0  0  0
   57.9240   33.0280   44.5990 C   0  0  0  0  0  0  0  0  0  0  0  0
   58.2219   33.7480   45.3755 H   0  0  0  0  0  0  0  0  0  0  0  0
   56.9690   32.0490   44.8840 C   0  0  0  0  0  0  0  0  0  0  0  0
   56.5267   31.9926   45.8896 H   0  0  0  0  0  0  0  0  0  0  0  0
  1  2  1  0
  2  3  1  0
  3  4  1  0
  4  5  2  0
  5  6  1  0
  6  7  2  0
  7  8  1  0
  7  9  1  0
  9 10  1  0
  9 11  2  0
 11 12  1  0
 11 13  1  0
 13 14  1  0
 14 15  1  0
 14 16  1  0
 14 17  1  0
 13 18  2  0
 18 19  1  0
 19 20  1  0
 19 21  1  0
 19 22  1  0
  4 23  1  0
 23 24  2  0
 24 25  1  0
 25 26  1  0
 26 27  1  0
 26 28  1  0
 26 29  1  0
 29 30  2  0
 29 31  1  0
 31 32  1  0
 32 33  1  0
 32 34  1  0
 32 35  1  0
 24 36  1  0
 36 37  1  0
 37 38  2  0
 37 39  1  0
 39 40  1  0
 40 41  1  0
 40 42  1  0
 40 43  1  0
 43 44  2  0
 44 45  1  0
 44 46  1  0
 46 47  1  0
 46 48  2  0
 48 49  1  0
 48 50  1  0
 50 51  1  0
 50 52  2  0
 52 53  1  0
 36  2  2  0
 52 43  1  0
 18  6  1  0
M  CHG  3   3  -1  31  -1  39  -1
M  END
>  <UniqueID>  (7) 
6

>  <SMILES>  (7) 
C[N-]C(=O)COc1n/c(=N/c2cccc(C)c2C)[n-]cc1C(=O)[N-]Cc1ccccc1

>  <Energy>  (7) 
59.514320320650185

>  <Genealogy>  (7) 
C[N-]C(=O)COc1nc(=Nc2cccc(C)c2C)[n-]cc1C(=O)[N-]Cc1ccccc1 (protonated)
C[N-]C(=O)COc1n/c(=N/c2cccc(C)c2C)[n-]cc1C(=O)[N-]Cc1ccccc1 (cis-trans isomerization)
C[N-]C(=O)COc1n/c(=N/c2cccc(C)c2C)[n-]cc1C(=O)[N-]Cc1ccccc1 (3D coordinates assigned)
C[N-]C(=O)COc1n/c(=N/c2cccc(C)c2C)[n-]cc1C(=O)[N-]Cc1ccccc1 (optimized conformer: 59.514320320650185 kcal/mol)

>  <smiles>  (7) 
CNC(=O)COc1nc(=Nc2cccc(C)c2C)[nH]cc1C(=O)NCc1ccccc1

>  <score_type>  (7) 
oracle

>  <origin>  (7) 
adg

>  <m_score__min__energy>  (7) 
-13.15

>  <m_primary>  (7) 
energy

$$$$
7:0
     RDKit          3D

 34 35  0  0  0  0  0  0  0  0999 V2000
   63.3930   33.7530   47.0970 C   0  0  0  0  0  0  0  0  0  0  0  0
   62.2320   33.8890   48.4380 S   0  0  0  0  0  0  0  0  0  0  0  0
   62.6570   34.9700   49.3920 O   0  0  0  0  0  0  0  0  0  0  0  0
   62.1920   32.5830   49.1790 O   0  0  0  0  0  0  0  0  0  0  0  0
   60.6470   34.2310   47.8220 N   0  0  0  0  0  0  0  0  0  0  0  0
   59.8680   33.3610   46.9880 C   0  0  0  0  0  0  0  0  0  0  0  0
   60.1330   31.9840   46.8820 C   0  0  0  0  0  0  0  0  0  0  0  0
   59.3430   31.1740   46.0610 C   0  0  0  0  0  0  0  0  0  0  0  0
   58.2820   31.7280   45.3290 C   0  0  0  0  0  0  0  0  0  0  0  0
   57.4180   30.8590   44.4550 C   0  0  0  0  0  0  0  0  0  0  0  0
   56.7230   29.8580   45.2550 N   0  0  0  0  0  0  0  0  0  0  0  0
   57.3440   28.6650   45.7470 C   0  0  0  0  0  0  0  0  0  0  0  0
   57.8150   28.6210   46.9150 O   0  0  0  0  0  0  0  0  0  0  0  0
   57.4740   27.4760   44.8500 C   0  0  0  0  0  0  0  0  0  0  0  0
   57.1360   26.2290   45.6040 C   0  0  0  0  0  0  0  0  0  0  0  0
   58.2360   25.0260   46.0330 S   0  0  0  0  0  0  0  0  0  0  0  0
   57.0700   24.1410   46.8600 C   0  0  0  0  0  0  0  0  0  0  0  0
   57.2890   23.0480   47.4420 O   0  0  0  0  0  0  0  0  0  0  0  0
   55.8570   24.7330   46.8410 N   0  0  0  0  0  0  0  0  0  0  0  0
   55.8950   25.9010   46.1460 C   0  0  0  0  0  0  0  0  0  0  0  0
   54.7680   26.6980   45.9960 O   0  0  0  0  0  0  0  0  0  0  0  0
   58.0170   33.1010   45.4360 C   0  0  0  0  0  0  0  0  0  0  0  0
   58.8060   33.9100   46.2590 C   0  0  0  0  0  0  0  0  0  0  0  0
   64.4088   33.6340   47.5021 H   0  0  0  0  0  0  0  0  0  0  0  0
   63.1396   32.8784   46.4799 H   0  0  0  0  0  0  0  0  0  0  0  0
   63.3486   34.6625   46.4799 H   0  0  0  0  0  0  0  0  0  0  0  0
   60.9662   31.5420   47.4480 H   0  0  0  0  0  0  0  0  0  0  0  0
   59.5543   30.0969   45.9885 H   0  0  0  0  0  0  0  0  0  0  0  0
   56.6773   31.4878   43.9393 H   0  0  0  0  0  0  0  0  0  0  0  0
   58.0575   30.3459   43.7217 H   0  0  0  0  0  0  0  0  0  0  0  0
   56.7863   27.5848   43.9984 H   0  0  0  0  0  0  0  0  0  0  0  0
   58.5098   27.4091   44.4858 H   0  0  0  0  0  0  0  0  0  0  0  0
   57.1843   33.5435   44.8696 H   0  0  0  0  0  0  0  0  0  0  0  0
   58.5909   34.9861   46.3345 H   0  0  0  0  0  0  0  0  0  0  0  0
  1  2  1  0
  2  3  2  0
  2  4  2  0
  2  5  1  0
  5  6  1  0
  6  7  2  0
  7  8  1  0
  8  9  2  0
  9 10  1  0
 10 11  1  0
 11 12  1  0
 12 13  2  0
 12 14  1  0
 14 15  1  0
 15 16  1  0
 16 17  1  0
 17 18  2  0
 17 19  1  0
 19 20  1  0
 20 21  1  0
  9 22  1  0
 22 23  2  0
 23  6  1  0
 20 15  2  0
  1 24  1  0
  1 25  1  0
  1 26  1  0
  7 27  1  0
  8 28  1  0
 10 29  1  0
 10 30  1  0
 14 31  1  0
 14 32  1  0
 22 33  1  0
 23 34  1  0
M  CHG  4   5  -1  11  -1  19  -1  21  -1
M  END
>  <UniqueID>  (8) 
7

>  <SMILES>  (8) 
CS(=O)(=O)[N-]c1ccc(C[N-]C(=O)Cc2sc(=O)[n-]c2[O-])cc1

>  <Energy>  (8) 
59.40043523529119

>  <Genealogy>  (8) 
CS(=O)(=O)[N-]c1ccc(C[N-]C(=O)Cc2sc(=O)[n-]c2[O-])cc1 (protonated)
CS(=O)(=O)[N-]c1ccc(C[N-]C(=O)Cc2sc(=O)[n-]c2[O-])cc1 (3D coordinates assigned)
CS(=O)(=O)[N-]c1ccc(C[N-]C(=O)Cc2sc(=O)[n-]c2[O-])cc1 (optimized conformer: 59.40043523529119 kcal/mol)

>  <smiles>  (8) 
CS(=O)(=O)Nc1ccc(CNC(=O)Cc2sc(=O)[nH]c2O)cc1

>  <score_type>  (8) 
oracle

>  <origin>  (8) 
adg

>  <m_score__min__energy>  (8) 
-15.81

>  <m_primary>  (8) 
energy

$$$$
8:0
     RDKit          3D

 58 62  0  0  0  0  0  0  0  0999 V2000
   60.0133   28.8457   44.2570 H   0  0  0  0  0  0  0  0  0  0  0  0
   58.9890   29.0820   44.5810 C   0  0  0  0  0  0  0  0  0  0  0  0
   58.6030   30.3750   44.7140 N   0  0  0  0  0  0  0  0  0  0  0  0
   57.3480   30.7000   45.1280 C   0  0  0  0  0  0  0  0  0  0  0  0
   56.9640   31.9400   45.2180 N   0  0  0  0  0  0  0  0  0  0  0  0
   57.7620   33.1030   44.9470 C   0  0  0  0  0  0  0  0  0  0  0  0
   57.2340   34.1630   44.5030 O   0  0  0  0  0  0  0  0  0  0  0  0
   59.2370   33.0520   45.2100 C   0  0  0  0  0  0  0  0  0  0  0  0
   59.5695   32.0040   45.1768 H   0  0  0  0  0  0  0  0  0  0  0  0
   59.7448   33.6499   44.4389 H   0  0  0  0  0  0  0  0  0  0  0  0
   59.5790   33.6290   46.5520 C   0  0  0  0  0  0  0  0  0  0  0  0
   58.8570   34.5960   47.2450 C   0  0  0  0  0  0  0  0  0  0  0  0
   57.9024   35.0275   46.9096 H   0  0  0  0  0  0  0  0  0  0  0  0
   59.4960   34.9300   48.3900 N   0  0  0  0  0  0  0  0  0  0  0  0
   59.1850   35.6340   49.0940 H   0  0  0  0  0  0  0  0  0  0  0  0
   60.6140   34.1860   48.4220 C   0  0  0  0  0  0  0  0  0  0  0  0
   61.6160   34.2120   49.3900 C   0  0  0  0  0  0  0  0  0  0  0  0
   61.5316   34.8556   50.2780 H   0  0  0  0  0  0  0  0  0  0  0  0
   62.7390   33.3880   49.1940 C   0  0  0  0  0  0  0  0  0  0  0  0
   63.5488   33.3822   49.9384 H   0  0  0  0  0  0  0  0  0  0  0  0
   62.8340   32.5680   48.0480 C   0  0  0  0  0  0  0  0  0  0  0  0
   63.7174   31.9279   47.9070 H   0  0  0  0  0  0  0  0  0  0  0  0
   61.8100   32.5630   47.0870 C   0  0  0  0  0  0  0  0  0  0  0  0
   61.8764   31.9330   46.1877 H   0  0  0  0  0  0  0  0  0  0  0  0
   60.7040   33.3860   47.3130 C   0  0  0  0  0  0  0  0  0  0  0  0
   56.4650   29.7110   45.4250 N   0  0  0  0  0  0  0  0  0  0  0  0
   56.8030   28.4010   45.3050 C   0  0  0  0  0  0  0  0  0  0  0  0
   55.9550   27.5160   45.5970 O   0  0  0  0  0  0  0  0  0  0  0  0
   58.0870   28.0470   44.8550 C   0  0  0  0  0  0  0  0  0  0  0  0
   58.5150   26.6100   44.6990 C   0  0  0  0  0  0  0  0  0  0  0  0
   59.3066   26.5506   43.9376 H   0  0  0  0  0  0  0  0  0  0  0  0
   57.6423   26.0145   44.3929 H   0  0  0  0  0  0  0  0  0  0  0  0
   59.1370   25.9600   46.2410 S   0  0  0  0  0  0  0  0  0  0  0  0
   60.4980   25.3590   46.0300 O   0  0  0  0  0  0  0  0  0  0  0  0
   58.2060   24.8960   46.7500 O   0  0  0  0  0  0  0  0  0  0  0  0
   59.2340   27.2470   47.4270 C   0  0  0  0  0  0  0  0  0  0  0  0
   60.5980   27.6160   48.3360 S   0  0  0  0  0  0  0  0  0  0  0  0
   59.8530   28.9280   49.0970 C   0  0  0  0  0  0  0  0  0  0  0  0
   60.4540   29.7810   50.1750 C   0  0  0  0  0  0  0  0  0  0  0  0
   61.2662   30.3840   49.7429 H   0  0  0  0  0  0  0  0  0  0  0  0
   60.8366   29.1195   50.9662 H   0  0  0  0  0  0  0  0  0  0  0  0
   59.4330   30.7000   50.7810 C   0  0  0  0  0  0  0  0  0  0  0  0
   58.2750   30.1870   51.2770 N   0  0  0  0  0  0  0  0  0  0  0  0
   57.3280   30.9650   51.8640 C   0  0  0  0  0  0  0  0  0  0  0  0
   56.0620   30.3430   52.3620 C   0  0  0  0  0  0  0  0  0  0  0  0
   56.0616   30.3428   53.4620 H   0  0  0  0  0  0  0  0  0  0  0  0
   55.2007   30.9205   51.9951 H   0  0  0  0  0  0  0  0  0  0  0  0
   55.9928   29.3083   51.9951 H   0  0  0  0  0  0  0  0  0  0  0  0
   57.5300   32.3490   51.9560 C   0  0  0  0  0  0  0  0  0  0  0  0
   56.7636   32.9927   52.4124 H   0  0  0  0  0  0  0  0  0  0  0  0
   58.7130   32.9030   51.4630 C   0  0  0  0  0  0  0  0  0  0  0  0
   58.8895   33.9859   51.5413 H   0  0  0  0  0  0  0  0  0  0  0  0
   59.6720   32.0780   50.8700 C   0  0  0  0  0  0  0  0  0  0  0  0
   60.6058   32.5060   50.4767 H   0  0  0  0  0  0  0  0  0  0  0  0
   58.5500   29.0240   48.6280 C   0  0  0  0  0  0  0  0  0  0  0  0
   57.8447   29.7898   48.9830 H   0  0  0  0  0  0  0  0  0  0  0  0
   58.2170   28.0940   47.6940 N   0  0  0  0  0  0  0  0  0  0  0  0
   57.2820   28.0440   47.2350 H   0  0  0  0  0  0  0  0  0  0  0  0
  1  2  1  0
  2  3  1  0
  3  4  1  0
  4  5  2  0
  5  6  1  0
  6  7  2  0
  6  8  1  0
  8  9  1  0
  8 10  1  0
  8 11  1  0
 11 12  2  0
 12 13  1  0
 12 14  1  0
 14 15  1  0
 14 16  1  0
 16 17  2  0
 17 18  1  0
 17 19  1  0
 19 20  1  0
 19 21  2  0
 21 22  1  0
 21 23  1  0
 23 24  1  0
 23 25  2  0
  4 26  1  0
 26 27  1  0
 27 28  2  0
 27 29  1  0
 29 30  1  0
 30 31  1  0
 30 32  1  0
 30 33  1  0
 33 34  2  0
 33 35  2  0
 33 36  1  0
 36 37  1  0
 37 38  1  0
 38 39  1  0
 39 40  1  0
 39 41  1  0
 39 42  1  0
 42 43  2  0
 43 44  1  0
 44 45  1  0
 45 46  1  0
 45 47  1  0
 45 48  1  0
 44 49  2  0
 49 50  1  0
 49 51  1  0
 51 52  1  0
 51 53  2  0
 53 54  1  0
 38 55  2  0
 55 56  1  0
 55 57  1  0
 57 58  1  0
 29  2  2  0
 57 36  2  0
 25 11  1  0
 53 42  1  0
 25 16  1  0
M  CHG  3   3  -1  26  -1  57   1
M  END
>  <UniqueID>  (9) 
8

>  <SMILES>  (9) 
Cc1cccc(Cc2c[nH+]c(S(=O)(=O)Cc3c[n-]/c(=N\C(=O)Cc4c[nH]c5ccccc45)[n-]c3=O)s2)n1

>  <Energy>  (9) 
123.78632015105191

>  <Genealogy>  (9) 
Cc1cccc(Cc2c[nH+]c(S(=O)(=O)Cc3c[n-]c(=NC(=O)Cc4c[nH]c5ccccc45)[n-]c3=O)s2)n1 (protonated)
Cc1cccc(Cc2c[nH+]c(S(=O)(=O)Cc3c[n-]/c(=N\C(=O)Cc4c[nH]c5ccccc45)[n-]c3=O)s2)n1 (cis-trans isomerization)
Cc1cccc(Cc2c[nH+]c(S(=O)(=O)Cc3c[n-]/c(=N\C(=O)Cc4c[nH]c5ccccc45)[n-]c3=O)s2)n1 (3D coordinates assigned)
Cc1cccc(Cc2c[nH+]c(S(=O)(=O)Cc3c[n-]/c(=N\C(=O)Cc4c[nH]c5ccccc45)[n-]c3=O)s2)n1 (optimized conformer: 123.78632015105191 kcal/mol)

>  <smiles>  (9) 
Cc1cccc(Cc2cnc(S(=O)(=O)Cc3c[nH]c(=NC(=O)Cc4c[nH]c5ccccc45)[nH]c3=O)s2)n1

>  <score_type>  (9) 
oracle

>  <origin>  (9) 
adg

>  <m_score__min__energy>  (9) 
-12.85

>  <m_primary>  (9) 
energy

$$$$
9:0
     RDKit          3D

 35 37  0  0  0  0  0  0  0  0999 V2000
   60.0120   27.4246   45.7456 H   0  0  0  0  0  0  0  0  0  0  0  0
   58.9250   27.2670   45.8050 C   0  0  0  0  0  0  0  0  0  0  0  0
   58.0720   28.2740   45.4730 N   0  0  0  0  0  0  0  0  0  0  0  0
   56.7180   28.1260   45.5320 C   0  0  0  0  0  0  0  0  0  0  0  0
   55.9150   29.1020   45.2140 N   0  0  0  0  0  0  0  0  0  0  0  0
   56.0550   30.0280   44.1260 C   0  0  0  0  0  0  0  0  0  0  0  0
   55.3020   29.8940   43.1260 O   0  0  0  0  0  0  0  0  0  0  0  0
   57.0780   31.0380   44.1420 N   0  0  0  0  0  0  0  0  0  0  0  0
   57.6080   31.6350   45.1710 C   0  0  0  0  0  0  0  0  0  0  0  0
   58.0230   33.2640   45.1630 S   0  0  0  0  0  0  0  0  0  0  0  0
   58.6240   33.2180   46.7350 C   0  0  0  0  0  0  0  0  0  0  0  0
   59.2880   34.3580   47.4400 C   0  0  0  0  0  0  0  0  0  0  0  0
   59.1704   35.2738   46.8421 H   0  0  0  0  0  0  0  0  0  0  0  0
   58.8206   34.4928   48.4266 H   0  0  0  0  0  0  0  0  0  0  0  0
   60.7510   34.0690   47.6240 C   0  0  0  0  0  0  0  0  0  0  0  0
   61.5760   33.8470   46.5090 C   0  0  0  0  0  0  0  0  0  0  0  0
   61.1439   33.8548   45.4975 H   0  0  0  0  0  0  0  0  0  0  0  0
   62.9450   33.6160   46.6800 C   0  0  0  0  0  0  0  0  0  0  0  0
   63.5852   33.4349   45.8040 H   0  0  0  0  0  0  0  0  0  0  0  0
   63.5000   33.6150   47.9620 C   0  0  0  0  0  0  0  0  0  0  0  0
   64.5761   33.4292   48.0944 H   0  0  0  0  0  0  0  0  0  0  0  0
   62.6890   33.8500   49.0780 C   0  0  0  0  0  0  0  0  0  0  0  0
   63.4520   33.8630   50.8280 Br  0  0  0  0  0  0  0  0  0  0  0  0
   61.3190   34.0810   48.9100 C   0  0  0  0  0  0  0  0  0  0  0  0
   60.6841   34.2727   49.7876 H   0  0  0  0  0  0  0  0  0  0  0  0
   58.5130   31.9160   47.2150 C   0  0  0  0  0  0  0  0  0  0  0  0
   58.8575   31.6193   48.2166 H   0  0  0  0  0  0  0  0  0  0  0  0
   57.9440   31.0420   46.3440 N   0  0  0  0  0  0  0  0  0  0  0  0
   57.8400   30.0300   46.5730 H   0  0  0  0  0  0  0  0  0  0  0  0
   56.1790   26.8980   45.9480 C   0  0  0  0  0  0  0  0  0  0  0  0
   54.8020   26.7140   46.0220 O   0  0  0  0  0  0  0  0  0  0  0  0
   57.0390   25.8520   46.2930 C   0  0  0  0  0  0  0  0  0  0  0  0
   56.6273   24.8861   46.6210 H   0  0  0  0  0  0  0  0  0  0  0  0
   58.4200   26.0340   46.2210 C   0  0  0  0  0  0  0  0  0  0  0  0
   59.1036   25.2149   46.4891 H   0  0  0  0  0  0  0  0  0  0  0  0
  1  2  1  0
  2  3  1  0
  3  4  1  0
  4  5  2  0
  5  6  1  0
  6  7  2  0
  6  8  1  0
  8  9  2  3
  9 10  1  0
 10 11  1  0
 11 12  1  0
 12 13  1  0
 12 14  1  0
 12 15  1  0
 15 16  2  0
 16 17  1  0
 16 18  1  0
 18 19  1  0
 18 20  2  0
 20 21  1  0
 20 22  1  0
 22 23  1  0
 22 24  2  0
 24 25  1  0
 11 26  2  0
 26 27  1  0
 26 28  1  0
 28 29  1  0
  4 30  1  0
 30 31  1  0
 30 32  2  0
 32 33  1  0
 32 34  1  0
 34 35  1  0
 34  2  2  0
 28  9  1  0
 24 15  1  0
M  CHG  2   3  -1  31  -1
M  END
>  <UniqueID>  (10) 
9

>  <SMILES>  (10) 
O=C(N=c1[nH]cc(Cc2cccc(Br)c2)s1)/N=c1\[n-]cccc1[O-]

>  <Energy>  (10) 
74.02961431639699

>  <Genealogy>  (10) 
O=C(N=c1[nH]cc(Cc2cccc(Br)c2)s1)N=c1[n-]cccc1[O-] (protonated)
O=C(N=c1[nH]cc(Cc2cccc(Br)c2)s1)/N=c1\[n-]cccc1[O-] (cis-trans isomerization)
O=C(N=c1[nH]cc(Cc2cccc(Br)c2)s1)/N=c1\[n-]cccc1[O-] (3D coordinates assigned)
O=C(N=c1[nH]cc(Cc2cccc(Br)c2)s1)/N=c1\[n-]cccc1[O-] (optimized conformer: 74.02961431639699 kcal/mol)

>  <smiles>  (10) 
O=C(N=c1[nH]cc(Cc2cccc(Br)c2)s1)N=c1[nH]cccc1O

>  <score_type>  (10) 
oracle

>  <origin>  (10) 
adg

>  <m_score__min__energy>  (10) 
-14.199999999999999

>  <m_primary>  (10) 
energy

$$$$
10:0
     RDKit          3D

 70 74  0  0  0  0  0  0  0  0999 V2000
   67.2840   28.3620   51.4330 C   0  0  0  0  0  0  0  0  0  0  0  0
   67.0800   29.3790   52.4090 O   0  0  0  0  0  0  0  0  0  0  0  0
   66.4130   30.5900   52.1700 C   0  0  0  0  0  0  0  0  0  0  0  0
   65.8320   30.8890   50.9240 C   0  0  0  0  0  0  0  0  0  0  0  0
   65.1710   32.1090   50.7140 C   0  0  0  0  0  0  0  0  0  0  0  0
   65.0610   33.0300   51.7740 C   0  0  0  0  0  0  0  0  0  0  0  0
   65.6580   32.7410   53.0090 C   0  0  0  0  0  0  0  0  0  0  0  0
   66.3300   31.5220   53.2150 C   0  0  0  0  0  0  0  0  0  0  0  0
   66.9260   31.1980   54.4450 O   0  0  0  0  0  0  0  0  0  0  0  0
   68.3310   31.1640   54.6770 C   0  0  0  0  0  0  0  0  0  0  0  0
   64.3960   34.3700   51.5660 C   0  0  0  0  0  0  0  0  0  0  0  0
   63.4220   34.3560   50.4560 N   0  0  0  0  0  0  0  0  0  0  0  0
   62.1630   33.6730   50.8350 C   0  0  0  0  0  0  0  0  0  0  0  0
   61.3300   33.3570   49.6190 C   0  0  0  0  0  0  0  0  0  0  0  0
   60.5580   34.3540   49.0030 C   0  0  0  0  0  0  0  0  0  0  0  0
   59.7770   34.0510   47.8850 C   0  0  0  0  0  0  0  0  0  0  0  0
   59.7510   32.7450   47.3630 C   0  0  0  0  0  0  0  0  0  0  0  0
   58.9210   32.4210   46.1750 C   0  0  0  0  0  0  0  0  0  0  0  0
   58.8200   33.3280   45.1040 C   0  0  0  0  0  0  0  0  0  0  0  0
   58.0560   33.0120   43.9780 C   0  0  0  0  0  0  0  0  0  0  0  0
   57.3870   31.7900   43.9040 C   0  0  0  0  0  0  0  0  0  0  0  0
   57.4680   30.8780   44.9640 C   0  0  0  0  0  0  0  0  0  0  0  0
   56.6620   29.3160   44.8600 S   0  0  0  0  0  0  0  0  0  0  0  0
   55.1730   29.5180   44.8180 O   0  0  0  0  0  0  0  0  0  0  0  0
   57.0830   28.6290   43.5910 O   0  0  0  0  0  0  0  0  0  0  0  0
   57.0670   28.3020   46.2050 N   0  0  0  0  0  0  0  0  0  0  0  0
   58.1520   27.3720   46.1760 C   0  0  0  0  0  0  0  0  0  0  0  0
   59.4770   27.8370   46.1680 C   0  0  0  0  0  0  0  0  0  0  0  0
   60.5420   26.9330   46.1440 C   0  0  0  0  0  0  0  0  0  0  0  0
   60.2930   25.5600   46.1050 C   0  0  0  0  0  0  0  0  0  0  0  0
   58.9780   25.0880   46.0840 C   0  0  0  0  0  0  0  0  0  0  0  0
   57.9000   25.9880   46.1070 C   0  0  0  0  0  0  0  0  0  0  0  0
   56.2430   25.3770   46.0870 S   0  0  0  0  0  0  0  0  0  0  0  0
   55.1390   26.7030   45.9950 N   0  0  0  0  0  0  0  0  0  0  0  0
   55.9860   24.5890   47.3410 O   0  0  0  0  0  0  0  0  0  0  0  0
   56.0280   24.4860   44.8950 O   0  0  0  0  0  0  0  0  0  0  0  0
   58.2320   31.1970   46.0960 C   0  0  0  0  0  0  0  0  0  0  0  0
   60.5220   31.7480   47.9890 C   0  0  0  0  0  0  0  0  0  0  0  0
   61.3030   32.0530   49.1070 C   0  0  0  0  0  0  0  0  0  0  0  0
   64.0430   33.8210   49.2240 C   0  0  0  0  0  0  0  0  0  0  0  0
   64.5160   32.3660   49.3820 C   0  0  0  0  0  0  0  0  0  0  0  0
   67.4763   27.4034   51.9370 H   0  0  0  0  0  0  0  0  0  0  0  0
   66.3860   28.2719   50.8041 H   0  0  0  0  0  0  0  0  0  0  0  0
   68.1472   28.6252   50.8041 H   0  0  0  0  0  0  0  0  0  0  0  0
   65.8966   30.1578   50.1047 H   0  0  0  0  0  0  0  0  0  0  0  0
   65.6005   33.4753   53.8260 H   0  0  0  0  0  0  0  0  0  0  0  0
   68.5238   31.1593   55.7600 H   0  0  0  0  0  0  0  0  0  0  0  0
   68.7554   30.2553   54.2251 H   0  0  0  0  0  0  0  0  0  0  0  0
   68.7988   32.0511   54.2251 H   0  0  0  0  0  0  0  0  0  0  0  0
   63.8712   34.6500   52.4913 H   0  0  0  0  0  0  0  0  0  0  0  0
   65.1823   35.0952   51.3093 H   0  0  0  0  0  0  0  0  0  0  0  0
   62.4058   32.7360   51.3576 H   0  0  0  0  0  0  0  0  0  0  0  0
   61.5857   34.3423   51.4898 H   0  0  0  0  0  0  0  0  0  0  0  0
   60.5679   35.3789   49.4023 H   0  0  0  0  0  0  0  0  0  0  0  0
   59.1772   34.8405   47.4087 H   0  0  0  0  0  0  0  0  0  0  0  0
   59.3463   34.2926   45.1537 H   0  0  0  0  0  0  0  0  0  0  0  0
   57.9816   33.7290   43.1471 H   0  0  0  0  0  0  0  0  0  0  0  0
   56.7945   31.5421   43.0110 H   0  0  0  0  0  0  0  0  0  0  0  0
   59.6775   28.9185   46.1807 H   0  0  0  0  0  0  0  0  0  0  0  0
   61.5777   27.3035   46.1559 H   0  0  0  0  0  0  0  0  0  0  0  0
   61.1324   24.8493   46.0908 H   0  0  0  0  0  0  0  0  0  0  0  0
   58.7860   24.0054   46.0493 H   0  0  0  0  0  0  0  0  0  0  0  0
   55.5200   27.3710   45.2870 H   0  0  0  0  0  0  0  0  0  0  0  0
   58.2931   30.4830   46.9305 H   0  0  0  0  0  0  0  0  0  0  0  0
   60.5098   30.7209   47.5954 H   0  0  0  0  0  0  0  0  0  0  0  0
   61.9003   31.2644   49.5881 H   0  0  0  0  0  0  0  0  0  0  0  0
   63.3044   33.8646   48.4100 H   0  0  0  0  0  0  0  0  0  0  0  0
   64.9278   34.4362   49.0035 H   0  0  0  0  0  0  0  0  0  0  0  0
   63.6458   31.7004   49.2835 H   0  0  0  0  0  0  0  0  0  0  0  0
   65.2658   32.1737   48.6004 H   0  0  0  0  0  0  0  0  0  0  0  0
  1  2  1  0
  2  3  1  0
  3  4  2  0
  4  5  1  0
  5  6  2  0
  6  7  1  0
  7  8  2  0
  8  9  1  0
  9 10  1  0
  6 11  1  0
 11 12  1  0
 12 13  1  0
 13 14  1  0
 14 15  2  0
 15 16  1  0
 16 17  2  0
 17 18  1  0
 18 19  2  0
 19 20  1  0
 20 21  2  0
 21 22  1  0
 22 23  1  0
 23 24  2  0
 23 25  2  0
 23 26  1  0
 26 27  1  0
 27 28  2  0
 28 29  1  0
 29 30  2  0
 30 31  1  0
 31 32  2  0
 32 33  1  0
 33 34  1  0
 33 35  2  0
 33 36  2  0
 22 37  2  0
 17 38  1  0
 38 39  2  0
 12 40  1  0
 40 41  1  0
  8  3  1  0
 39 14  1  0
 41  5  1  0
 37 18  1  0
 32 27  1  0
  1 42  1  0
  1 43  1  0
  1 44  1  0
  4 45  1  0
  7 46  1  0
 10 47  1  0
 10 48  1  0
 10 49  1  0
 11 50  1  0
 11 51  1  0
 13 52  1  0
 13 53  1  0
 15 54  1  0
 16 55  1  0
 19 56  1  0
 20 57  1  0
 21 58  1  0
 28 59  1  0
 29 60  1  0
 30 61  1  0
 31 62  1  0
 34 63  1  0
 37 64  1  0
 38 65  1  0
 39 66  1  0
 40 67  1  0
 40 68  1  0
 41 69  1  0
 41 70  1  0
M  CHG  2  26  -1  34  -1
M  END
>  <UniqueID>  (11) 
10

>  <SMILES>  (11) 
COc1cc2c(cc1OC)CN(Cc1ccc(-c3cccc(S(=O)(=O)[N-]c4ccccc4S([NH-])(=O)=O)c3)cc1)CC2

>  <Energy>  (11) 
94.20949885637641

>  <Genealogy>  (11) 
COc1cc2c(cc1OC)CN(Cc1ccc(-c3cccc(S(=O)(=O)[N-]c4ccccc4S([NH-])(=O)=O)c3)cc1)CC2 (protonated)
COc1cc2c(cc1OC)CN(Cc1ccc(-c3cccc(S(=O)(=O)[N-]c4ccccc4S([NH-])(=O)=O)c3)cc1)CC2 (3D coordinates assigned)
COc1cc2c(cc1OC)CN(Cc1ccc(-c3cccc(S(=O)(=O)[N-]c4ccccc4S([NH-])(=O)=O)c3)cc1)CC2 (nonaromatic ring conformer: 94.20949885637641 kcal/mol)

>  <smiles>  (11) 
COc1cc2c(cc1OC)CN(Cc1ccc(-c3cccc(S(=O)(=O)Nc4ccccc4S(N)(=O)=O)c3)cc1)CC2

>  <score_type>  (11) 
oracle

>  <origin>  (11) 
adg

>  <m_score__min__energy>  (11) 
-15.94

>  <m_primary>  (11) 
energy

$$$$
11:0
     RDKit          3D

 59 62  0  0  1  0  0  0  0  0999 V2000
   56.7480   24.0480   43.7030 C   0  0  0  0  0  0  0  0  0  0  0  0
   55.4840   24.0610   44.4990 C   0  0  0  0  0  0  0  0  0  0  0  0
   55.5680   24.2490   45.8020 C   0  0  0  0  0  0  0  0  0  0  0  0
   55.5740   25.5550   46.3690 N   0  0  0  0  0  0  0  0  0  0  0  0
   56.6060   26.3160   46.2520 C   0  0  0  0  0  0  0  0  0  0  0  0
   57.7570   25.9420   46.8890 C   0  0  0  0  0  0  0  0  0  0  0  0
   58.8670   26.7580   46.7640 C   0  0  0  0  0  0  0  0  0  0  0  0
   58.7780   27.8830   46.0260 N   0  0  0  0  0  0  0  0  0  0  0  0
   57.6530   28.2610   45.3950 C   0  0  0  0  0  0  0  0  0  0  0  0
   57.5440   29.4740   44.5960 C   0  0  0  0  0  0  0  0  0  0  0  0
   56.7850   29.4590   43.4190 C   0  0  0  0  0  0  0  0  0  0  0  0
   56.6410   30.5670   42.6220 C   0  0  0  0  0  0  0  0  0  0  0  0
   57.2580   31.6990   42.9980 N   0  0  0  0  0  0  0  0  0  0  0  0
   57.9950   31.7600   44.1180 C   0  0  0  0  0  0  0  0  0  0  0  0
   58.5550   32.8520   44.4290 N   0  0  0  0  0  0  0  0  0  0  0  0
   58.1000   33.7710   45.4530 C   0  0  2  0  0  0  0  0  0  0  0  0
   59.1350   34.9100   45.4830 C   0  0  0  0  0  0  0  0  0  0  0  0
   60.4010   34.2480   46.0100 C   0  0  0  0  0  0  0  0  0  0  0  0
   60.2520   34.1670   47.4900 C   0  0  2  0  0  0  0  0  0  0  0  0
   61.2980   33.4470   48.1510 N   0  0  0  0  0  0  0  0  0  0  0  0
   62.6200   33.9040   47.9810 C   0  0  0  0  0  0  0  0  0  0  0  0
   63.5460   32.9590   47.2550 C   0  0  0  0  0  0  0  0  0  0  0  0
   63.3870   31.6440   47.6800 O   0  0  0  0  0  0  0  0  0  0  0  0
   62.0820   31.2110   47.4380 C   0  0  0  0  0  0  0  0  0  0  0  0
   61.0900   32.0340   48.2000 C   0  0  0  0  0  0  0  0  0  0  0  0
   58.8730   33.7390   47.8480 C   0  0  0  0  0  0  0  0  0  0  0  0
   58.1330   33.0060   46.7610 C   0  0  0  0  0  0  0  0  0  0  0  0
   58.1540   30.6620   44.9330 C   0  0  0  0  0  0  0  0  0  0  0  0
   56.5850   27.4560   45.5280 N   0  0  0  0  0  0  0  0  0  0  0  0
   57.6109   24.0391   44.3852 H   0  0  0  0  0  0  0  0  0  0  0  0
   56.7727   23.1496   43.0688 H   0  0  0  0  0  0  0  0  0  0  0  0
   56.7912   24.9457   43.0688 H   0  0  0  0  0  0  0  0  0  0  0  0
   54.5085   23.9175   44.0113 H   0  0  0  0  0  0  0  0  0  0  0  0
   55.6351   23.3752   46.4668 H   0  0  0  0  0  0  0  0  0  0  0  0
   57.7989   25.0179   47.4842 H   0  0  0  0  0  0  0  0  0  0  0  0
   59.8116   26.4921   47.2610 H   0  0  0  0  0  0  0  0  0  0  0  0
   59.6350   28.4720   45.9550 H   0  0  0  0  0  0  0  0  0  0  0  0
   56.2859   28.5247   43.1224 H   0  0  0  0  0  0  0  0  0  0  0  0
   56.0382   30.5290   41.7027 H   0  0  0  0  0  0  0  0  0  0  0  0
   57.1550   32.5430   42.4030 H   0  0  0  0  0  0  0  0  0  0  0  0
   57.0904   34.1705   45.2768 H   0  0  0  0  0  0  0  0  0  0  0  0
   58.8078   35.7172   46.1548 H   0  0  0  0  0  0  0  0  0  0  0  0
   59.2807   35.3740   44.4964 H   0  0  0  0  0  0  0  0  0  0  0  0
   61.2824   34.8523   45.7494 H   0  0  0  0  0  0  0  0  0  0  0  0
   60.5407   33.2499   45.5693 H   0  0  0  0  0  0  0  0  0  0  0  0
   60.3848   35.1825   47.8915 H   0  0  0  0  0  0  0  0  0  0  0  0
   62.5828   34.8452   47.4128 H   0  0  0  0  0  0  0  0  0  0  0  0
   63.0342   34.0136   48.9941 H   0  0  0  0  0  0  0  0  0  0  0  0
   63.3335   33.0119   46.1770 H   0  0  0  0  0  0  0  0  0  0  0  0
   64.5805   33.2634   47.4722 H   0  0  0  0  0  0  0  0  0  0  0  0
   61.8689   31.2968   46.3623 H   0  0  0  0  0  0  0  0  0  0  0  0
   61.9945   30.1652   47.7678 H   0  0  0  0  0  0  0  0  0  0  0  0
   60.0903   31.8240   47.7919 H   0  0  0  0  0  0  0  0  0  0  0  0
   61.2063   31.7474   49.2556 H   0  0  0  0  0  0  0  0  0  0  0  0
   58.2939   34.6369   48.1096 H   0  0  0  0  0  0  0  0  0  0  0  0
   58.9777   33.0292   48.6818 H   0  0  0  0  0  0  0  0  0  0  0  0
   57.0987   32.8348   47.0940 H   0  0  0  0  0  0  0  0  0  0  0  0
   58.6650   32.0607   46.5781 H   0  0  0  0  0  0  0  0  0  0  0  0
   58.7633   30.7329   45.8461 H   0  0  0  0  0  0  0  0  0  0  0  0
  1  2  1  0
  2  3  2  0
  3  4  1  0
  4  5  2  0
  5  6  1  0
  6  7  2  0
  7  8  1  0
  8  9  1  0
  9 10  1  0
 10 11  1  0
 11 12  2  0
 12 13  1  0
 13 14  1  0
 14 15  2  0
 15 16  1  0
 16 17  1  0
 17 18  1  0
 18 19  1  0
 19 20  1  0
 20 21  1  0
 21 22  1  0
 22 23  1  0
 23 24  1  0
 24 25  1  0
 19 26  1  0
 26 27  1  0
 14 28  1  0
  9 29  2  0
 29  5  1  0
 28 10  2  0
 27 16  1  0
 25 20  1  0
  1 30  1  0
  1 31  1  0
  1 32  1  0
  2 33  1  0
  3 34  1  0
  6 35  1  0
  7 36  1  0
  8 37  1  0
 11 38  1  0
 12 39  1  0
 13 40  1  0
 16 41  1  6
 17 42  1  0
 17 43  1  0
 18 44  1  0
 18 45  1  0
 19 46  1  1
 21 47  1  0
 21 48  1  0
 22 49  1  0
 22 50  1  0
 24 51  1  0
 24 52  1  0
 25 53  1  0
 25 54  1  0
 26 55  1  0
 26 56  1  0
 27 57  1  0
 27 58  1  0
 28 59  1  0
M  END
>  <smiles>  (12) 
CC=CN=c1cc[nH]c(-c2cc[nH]c(=NC3CCC(N4CCOCC4)CC3)c2)n1

>  <score_type>  (12) 
oracle

>  <origin>  (12) 
adg

>  <m_score__min__energy>  (12) 
-9.2899999999999991

>  <m_primary>  (12) 
energy

$$$$
12:0
     RDKit          3D

 40 42  0  0  0  0  0  0  0  0999 V2000
   61.0990   32.6040   49.3130 O   0  0  0  0  0  0  0  0  0  0  0  0
   60.8200   32.2010   48.1530 C   0  0  0  0  0  0  0  0  0  0  0  0
   61.0600   30.8270   47.8140 N   0  0  0  0  0  0  0  0  0  0  0  0
   60.2360   30.0100   47.2180 C   0  0  0  0  0  0  0  0  0  0  0  0
   59.2520   29.2770   47.9150 C   0  0  0  0  0  0  0  0  0  0  0  0
   58.4060   28.4170   47.2130 C   0  0  0  0  0  0  0  0  0  0  0  0
   58.5270   28.2910   45.8240 C   0  0  0  0  0  0  0  0  0  0  0  0
   57.5930   27.4000   45.0540 C   0  0  0  0  0  0  0  0  0  0  0  0
   57.1890   26.2280   45.8920 C   0  0  0  0  0  0  0  0  0  0  0  0
   58.2250   25.0080   46.4180 S   0  0  0  0  0  0  0  0  0  0  0  0
   56.9750   24.1460   47.1390 C   0  0  0  0  0  0  0  0  0  0  0  0
   57.1280   23.0570   47.7520 O   0  0  0  0  0  0  0  0  0  0  0  0
   55.7750   24.7440   46.9880 N   0  0  0  0  0  0  0  0  0  0  0  0
   55.8930   25.9010   46.2870 C   0  0  0  0  0  0  0  0  0  0  0  0
   54.7880   26.6900   45.9900 O   0  0  0  0  0  0  0  0  0  0  0  0
   59.4880   29.0650   45.1600 C   0  0  0  0  0  0  0  0  0  0  0  0
   60.3070   29.8920   45.8640 N   0  0  0  0  0  0  0  0  0  0  0  0
   60.1950   33.1240   47.1890 C   0  0  0  0  0  0  0  0  0  0  0  0
   60.1670   34.3580   47.4430 O   0  0  0  0  0  0  0  0  0  0  0  0
   59.5780   32.6230   45.9950 N   0  0  0  0  0  0  0  0  0  0  0  0
   58.5630   33.3900   45.2760 C   0  0  0  0  0  0  0  0  0  0  0  0
   57.8370   32.4950   44.3050 C   0  0  0  0  0  0  0  0  0  0  0  0
   58.0020   32.6810   42.9220 C   0  0  0  0  0  0  0  0  0  0  0  0
   57.3950   31.8070   42.0160 C   0  0  0  0  0  0  0  0  0  0  0  0
   56.6240   30.7390   42.4840 C   0  0  0  0  0  0  0  0  0  0  0  0
   56.4570   30.5450   43.8570 C   0  0  0  0  0  0  0  0  0  0  0  0
   57.0620   31.4180   44.7670 C   0  0  0  0  0  0  0  0  0  0  0  0
   59.1523   29.3828   49.0054 H   0  0  0  0  0  0  0  0  0  0  0  0
   57.6426   27.8370   47.7523 H   0  0  0  0  0  0  0  0  0  0  0  0
   56.6963   27.9711   44.7715 H   0  0  0  0  0  0  0  0  0  0  0  0
   58.1062   27.0363   44.1516 H   0  0  0  0  0  0  0  0  0  0  0  0
   59.5804   29.0036   44.0656 H   0  0  0  0  0  0  0  0  0  0  0  0
   59.7490   31.6340   45.7040 H   0  0  0  0  0  0  0  0  0  0  0  0
   57.8433   33.8074   45.9956 H   0  0  0  0  0  0  0  0  0  0  0  0
   59.0502   34.2060   44.7221 H   0  0  0  0  0  0  0  0  0  0  0  0
   58.6115   33.5181   42.5509 H   0  0  0  0  0  0  0  0  0  0  0  0
   57.5240   31.9595   40.9343 H   0  0  0  0  0  0  0  0  0  0  0  0
   56.1483   30.0506   41.7701 H   0  0  0  0  0  0  0  0  0  0  0  0
   55.8489   29.7046   44.2231 H   0  0  0  0  0  0  0  0  0  0  0  0
   56.9306   31.2609   45.8478 H   0  0  0  0  0  0  0  0  0  0  0  0
  1  2  2  0
  2  3  1  0
  3  4  2  3
  4  5  1  0
  5  6  2  0
  6  7  1  0
  7  8  1  0
  8  9  1  0
  9 10  1  0
 10 11  1  0
 11 12  2  0
 11 13  1  0
 13 14  1  0
 14 15  1  0
  7 16  2  0
 16 17  1  0
  2 18  1  0
 18 19  2  0
 18 20  1  0
 20 21  1  0
 21 22  1  0
 22 23  2  0
 23 24  1  0
 24 25  2  0
 25 26  1  0
 26 27  2  0
 17  4  1  0
 27 22  1  0
 14  9  2  0
  5 28  1  0
  6 29  1  0
  8 30  1  0
  8 31  1  0
 16 32  1  0
 20 33  1  0
 21 34  1  0
 21 35  1  0
 23 36  1  0
 24 37  1  0
 25 38  1  0
 26 39  1  0
 27 40  1  0
M  CHG  3  13  -1  15  -1  17  -1
M  END
>  <UniqueID>  (13) 
11

>  <SMILES>  (13) 
O=C(N=c1ccc(Cc2sc(=O)[n-]c2[O-])c[n-]1)C(=O)NCc1ccccc1

>  <Energy>  (13) 
77.40600058123204

>  <Genealogy>  (13) 
O=C(N=c1ccc(Cc2sc(=O)[n-]c2[O-])c[n-]1)C(=O)NCc1ccccc1 (protonated)
O=C(N=c1ccc(Cc2sc(=O)[n-]c2[O-])c[n-]1)C(=O)NCc1ccccc1 (3D coordinates assigned)
O=C(N=c1ccc(Cc2sc(=O)[n-]c2[O-])c[n-]1)C(=O)NCc1ccccc1 (optimized conformer: 77.40600058123204 kcal/mol)

>  <smiles>  (13) 
O=C(N=c1ccc(Cc2sc(=O)[nH]c2O)c[nH]1)C(=O)NCc1ccccc1

>  <score_type>  (13) 
oracle

>  <origin>  (13) 
adg

>  <m_score__min__energy>  (13) 
-16.300000000000001

>  <m_primary>  (13) 
energy

$$$$
13:0
     RDKit          3D

 59 63  0  0  0  0  0  0  0  0999 V2000
   58.9969   34.7396   46.1457 H   0  0  0  0  0  0  0  0  0  0  0  0
   58.7050   33.7040   45.9170 C   0  0  0  0  0  0  0  0  0  0  0  0
   57.2490   33.2200   45.2280 S   0  0  0  0  0  0  0  0  0  0  0  0
   57.6650   31.5870   45.2530 C   0  0  0  0  0  0  0  0  0  0  0  0
   56.9130   30.5950   44.8780 N   0  0  0  0  0  0  0  0  0  0  0  0
   57.2590   29.2040   44.9240 C   0  0  0  0  0  0  0  0  0  0  0  0
   57.3770   28.5750   46.1690 C   0  0  0  0  0  0  0  0  0  0  0  0
   57.1902   29.1459   47.0905 H   0  0  0  0  0  0  0  0  0  0  0  0
   57.7310   27.2250   46.2470 C   0  0  0  0  0  0  0  0  0  0  0  0
   57.8080   26.7370   47.2298 H   0  0  0  0  0  0  0  0  0  0  0  0
   57.9890   26.4870   45.0810 C   0  0  0  0  0  0  0  0  0  0  0  0
   58.3590   25.0560   45.1610 C   0  0  0  0  0  0  0  0  0  0  0  0
   59.4390   24.7250   45.7230 O   0  0  0  0  0  0  0  0  0  0  0  0
   57.5000   24.0340   44.6240 N   0  0  0  0  0  0  0  0  0  0  0  0
   57.0540   24.1180   43.2290 C   0  0  0  0  0  0  0  0  0  0  0  0
   56.8811   25.1711   42.9626 H   0  0  0  0  0  0  0  0  0  0  0  0
   57.8277   23.6946   42.5716 H   0  0  0  0  0  0  0  0  0  0  0  0
   55.7520   23.3280   43.0580 C   0  0  0  0  0  0  0  0  0  0  0  0
   54.9491   23.8300   43.6178 H   0  0  0  0  0  0  0  0  0  0  0  0
   55.5027   23.2855   41.9875 H   0  0  0  0  0  0  0  0  0  0  0  0
   55.9000   22.0060   43.5430 O   0  0  0  0  0  0  0  0  0  0  0  0
   56.1250   22.0320   44.9410 C   0  0  0  0  0  0  0  0  0  0  0  0
   55.3065   22.5828   45.4275 H   0  0  0  0  0  0  0  0  0  0  0  0
   56.1636   20.9967   45.3106 H   0  0  0  0  0  0  0  0  0  0  0  0
   57.4560   22.7190   45.2670 C   0  0  0  0  0  0  0  0  0  0  0  0
   57.5480   22.8408   46.3564 H   0  0  0  0  0  0  0  0  0  0  0  0
   58.2868   22.1019   44.8942 H   0  0  0  0  0  0  0  0  0  0  0  0
   57.9260   27.1340   43.8360 C   0  0  0  0  0  0  0  0  0  0  0  0
   58.1591   26.5756   42.9174 H   0  0  0  0  0  0  0  0  0  0  0  0
   57.5690   28.4830   43.7570 C   0  0  0  0  0  0  0  0  0  0  0  0
   57.5303   28.9829   42.7779 H   0  0  0  0  0  0  0  0  0  0  0  0
   58.8870   31.3960   45.7880 N   0  0  0  0  0  0  0  0  0  0  0  0
   59.4800   32.5650   46.1490 C   0  0  0  0  0  0  0  0  0  0  0  0
   60.8370   32.6250   46.7510 C   0  0  0  0  0  0  0  0  0  0  0  0
   61.6420   33.7300   46.4120 C   0  0  0  0  0  0  0  0  0  0  0  0
   61.2484   34.4956   45.7272 H   0  0  0  0  0  0  0  0  0  0  0  0
   62.9280   33.8700   46.9290 C   0  0  0  0  0  0  0  0  0  0  0  0
   63.5398   34.7411   46.6517 H   0  0  0  0  0  0  0  0  0  0  0  0
   63.4390   32.9100   47.7950 C   0  0  0  0  0  0  0  0  0  0  0  0
   64.4522   33.0259   48.2074 H   0  0  0  0  0  0  0  0  0  0  0  0
   62.6680   31.7990   48.1420 C   0  0  0  0  0  0  0  0  0  0  0  0
   63.0820   31.0490   48.8320 H   0  0  0  0  0  0  0  0  0  0  0  0
   61.3670   31.6200   47.6240 C   0  0  0  0  0  0  0  0  0  0  0  0
   60.6070   30.3670   48.0640 C   0  0  0  0  0  0  0  0  0  0  0  0
   59.5338   30.6037   48.1117 H   0  0  0  0  0  0  0  0  0  0  0  0
   60.6940   29.2500   46.9880 C   0  0  0  0  0  0  0  0  0  0  0  0
   59.9142   29.4375   46.2352 H   0  0  0  0  0  0  0  0  0  0  0  0
   61.7125   29.2941   46.5749 H   0  0  0  0  0  0  0  0  0  0  0  0
   60.5050   27.8230   47.5290 C   0  0  0  0  0  0  0  0  0  0  0  0
   59.8872   27.2510   46.8211 H   0  0  0  0  0  0  0  0  0  0  0  0
   61.4974   27.3623   47.6428 H   0  0  0  0  0  0  0  0  0  0  0  0
   59.8470   27.8290   48.8390 N   0  0  0  0  0  0  0  0  0  0  0  0
   59.7140   26.8310   49.1280 H   0  0  0  0  0  0  0  0  0  0  0  0
   60.7330   28.4590   49.8190 C   0  0  0  0  0  0  0  0  0  0  0  0
   60.3087   28.3247   50.8249 H   0  0  0  0  0  0  0  0  0  0  0  0
   61.7230   27.9846   49.7494 H   0  0  0  0  0  0  0  0  0  0  0  0
   60.8920   29.9590   49.5390 C   0  0  0  0  0  0  0  0  0  0  0  0
   60.1944   30.5071   50.1894 H   0  0  0  0  0  0  0  0  0  0  0  0
   61.9450   30.2076   49.7377 H   0  0  0  0  0  0  0  0  0  0  0  0
  1  2  1  0
  2  3  1  0
  3  4  1  0
  4  5  2  0
  5  6  1  0
  6  7  2  0
  7  8  1  0
  7  9  1  0
  9 10  1  0
  9 11  2  0
 11 12  1  0
 12 13  2  0
 12 14  1  0
 14 15  1  0
 15 16  1  0
 15 17  1  0
 15 18  1  0
 18 19  1  0
 18 20  1  0
 18 21  1  0
 21 22  1  0
 22 23  1  0
 22 24  1  0
 22 25  1  0
 25 26  1  0
 25 27  1  0
 11 28  1  0
 28 29  1  0
 28 30  2  0
 30 31  1  0
  4 32  1  0
 32 33  1  0
 33 34  1  0
 34 35  2  0
 35 36  1  0
 35 37  1  0
 37 38  1  0
 37 39  2  0
 39 40  1  0
 39 41  1  0
 41 42  1  0
 41 43  2  0
 43 44  1  0
 44 45  1  0
 44 46  1  0
 46 47  1  0
 46 48  1  0
 46 49  1  0
 49 50  1  0
 49 51  1  0
 49 52  1  0
 52 53  1  0
 52 54  1  0
 54 55  1  0
 54 56  1  0
 54 57  1  0
 57 58  1  0
 57 59  1  0
 33  2  2  0
 43 34  1  0
 57 44  1  0
 30  6  1  0
 25 14  1  0
M  CHG  1  32  -1
M  END
>  <UniqueID>  (14) 
12

>  <SMILES>  (14) 
O=C(c1ccc(/N=c2/[n-]c(-c3ccccc3C3CCNCC3)cs2)cc1)N1CCOCC1

>  <Energy>  (14) 
123.82177633637563

>  <Genealogy>  (14) 
O=C(c1ccc(N=c2[n-]c(-c3ccccc3C3CCNCC3)cs2)cc1)N1CCOCC1 (protonated)
O=C(c1ccc(/N=c2/[n-]c(-c3ccccc3C3CCNCC3)cs2)cc1)N1CCOCC1 (cis-trans isomerization)
O=C(c1ccc(/N=c2/[n-]c(-c3ccccc3C3CCNCC3)cs2)cc1)N1CCOCC1 (3D coordinates assigned)
O=C(c1ccc(/N=c2/[n-]c(-c3ccccc3C3CCNCC3)cs2)cc1)N1CCOCC1 (nonaromatic ring conformer: 123.82177633637563 kcal/mol)

>  <smiles>  (14) 
O=C(c1ccc(N=c2[nH]c(-c3ccccc3C3CCNCC3)cs2)cc1)N1CCOCC1

>  <score_type>  (14) 
oracle

>  <origin>  (14) 
adg

>  <m_score__min__energy>  (14) 
-11.449999999999999

>  <m_primary>  (14) 
energy

$$$$
14:0
     RDKit          3D

 36 40  0  0  0  0  0  0  0  0999 V2000
   58.7450   27.6457   44.5369 H   0  0  0  0  0  0  0  0  0  0  0  0
   58.4410   27.5330   45.5880 C   0  0  0  0  0  0  0  0  0  0  0  0
   57.1840   26.8200   45.8730 C   0  0  0  0  0  0  0  0  0  0  0  0
   57.1380   25.5330   46.2590 N   0  0  0  0  0  0  0  0  0  0  0  0
   55.8160   25.2710   46.3300 C   0  0  0  0  0  0  0  0  0  0  0  0
   55.3640   24.1490   46.6750 O   0  0  0  0  0  0  0  0  0  0  0  0
   55.0160   26.3040   45.9890 N   0  0  0  0  0  0  0  0  0  0  0  0
   55.8950   27.2730   45.6910 C   0  0  0  0  0  0  0  0  0  0  0  0
   55.5250   28.5250   45.2140 O   0  0  0  0  0  0  0  0  0  0  0  0
   59.2370   28.0530   46.5340 C   0  0  0  0  0  0  0  0  0  0  0  0
   60.0530   27.4040   47.4610 C   0  0  0  0  0  0  0  0  0  0  0  0
   60.1401   26.3132   47.5727 H   0  0  0  0  0  0  0  0  0  0  0  0
   60.7220   28.3190   48.2030 N   0  0  0  0  0  0  0  0  0  0  0  0
   60.3560   29.5160   47.7710 N   0  0  0  0  0  0  0  0  0  0  0  0
   60.7580   30.7460   48.2000 C   0  0  0  0  0  0  0  0  0  0  0  0
   61.6090   30.9210   49.1710 N   0  0  0  0  0  0  0  0  0  0  0  0
   62.9150   31.5660   49.0770 C   0  0  0  0  0  0  0  0  0  0  0  0
   63.4003   31.0447   49.9153 H   0  0  0  0  0  0  0  0  0  0  0  0
   63.2880   31.9130   47.6480 C   0  0  0  0  0  0  0  0  0  0  0  0
   64.3365   31.8476   47.3218 H   0  0  0  0  0  0  0  0  0  0  0  0
   62.9579   31.5762   46.6542 H   0  0  0  0  0  0  0  0  0  0  0  0
   62.8580   33.0090   48.6090 C   0  0  0  0  0  0  0  0  0  0  0  0
   63.5952   33.7369   48.9788 H   0  0  0  0  0  0  0  0  0  0  0  0
   62.0878   33.7943   48.5996 H   0  0  0  0  0  0  0  0  0  0  0  0
   60.2330   31.8390   47.5790 N   0  0  0  0  0  0  0  0  0  0  0  0
   59.3340   31.7070   46.5560 C   0  0  0  0  0  0  0  0  0  0  0  0
   58.7820   32.9060   45.8990 C   0  0  0  0  0  0  0  0  0  0  0  0
   57.4270   33.0730   45.6240 C   0  0  0  0  0  0  0  0  0  0  0  0
   56.6277   32.3539   45.8566 H   0  0  0  0  0  0  0  0  0  0  0  0
   57.2250   34.5640   44.8750 S   0  0  0  0  0  0  0  0  0  0  0  0
   58.8420   35.0150   44.8890 C   0  0  0  0  0  0  0  0  0  0  0  0
   59.2531   35.9558   44.4942 H   0  0  0  0  0  0  0  0  0  0  0  0
   59.5700   33.9950   45.4850 C   0  0  0  0  0  0  0  0  0  0  0  0
   60.6609   34.0344   45.6209 H   0  0  0  0  0  0  0  0  0  0  0  0
   58.9500   30.4640   46.1450 N   0  0  0  0  0  0  0  0  0  0  0  0
   59.4770   29.3880   46.7720 C   0  0  0  0  0  0  0  0  0  0  0  0
  1  2  1  0
  2  3  1  0
  3  4  1  0
  4  5  1  0
  5  6  2  0
  5  7  1  0
  7  8  1  0
  8  9  1  0
  2 10  2  3
 10 11  1  0
 11 12  1  0
 11 13  2  0
 13 14  1  0
 14 15  1  0
 15 16  2  0
 16 17  1  0
 17 18  1  0
 17 19  1  0
 19 20  1  0
 19 21  1  0
 19 22  1  0
 22 23  1  0
 22 24  1  0
 15 25  1  0
 25 26  2  0
 26 27  1  0
 27 28  2  0
 28 29  1  0
 28 30  1  0
 30 31  1  0
 31 32  1  0
 31 33  2  0
 33 34  1  0
 26 35  1  0
 35 36  2  0
  8  3  2  0
 36 10  1  0
 36 14  1  0
 22 17  1  0
 33 27  1  0
M  CHG  3   4  -1   7  -1   9  -1
M  END
>  <UniqueID>  (15) 
13

>  <SMILES>  (15) 
O=c1[n-]c([O-])c(C=c2cnn3/c(=N\C4CC4)nc(-c4ccsc4)nc23)[n-]1

>  <Energy>  (15) 
407.8816305945884

>  <Genealogy>  (15) 
O=c1[n-]c([O-])c(C=c2cnn3c(=NC4CC4)nc(-c4ccsc4)nc23)[n-]1 (protonated)
O=c1[n-]c([O-])c(C=c2cnn3/c(=N\C4CC4)nc(-c4ccsc4)nc23)[n-]1 (cis-trans isomerization)
O=c1[n-]c([O-])c(C=c2cnn3/c(=N\C4CC4)nc(-c4ccsc4)nc23)[n-]1 (3D coordinates assigned)
O=c1[n-]c([O-])c(C=c2cnn3/c(=N\C4CC4)nc(-c4ccsc4)nc23)[n-]1 (nonaromatic ring conformer: 407.8816305945884 kcal/mol)

>  <smiles>  (15) 
O=c1[nH]c(O)c(C=c2cnn3c(=NC4CC4)nc(-c4ccsc4)nc23)[nH]1

>  <score_type>  (15) 
oracle

>  <origin>  (15) 
adg

>  <m_score__min__energy>  (15) 
-15.75

>  <m_primary>  (15) 
energy

$$$$
15:0
     RDKit          3D

 43 45  0  0  0  0  0  0  0  0999 V2000
   59.7550   34.3330   46.0470 C   0  0  0  0  0  0  0  0  0  0  0  0
   58.9150   33.2050   45.5260 C   0  0  0  0  0  0  0  0  0  0  0  0
   58.5810   32.1270   46.3590 C   0  0  0  0  0  0  0  0  0  0  0  0
   57.8280   31.0590   45.8630 C   0  0  0  0  0  0  0  0  0  0  0  0
   57.4100   31.0520   44.5260 C   0  0  0  0  0  0  0  0  0  0  0  0
   56.4570   29.7110   43.9030 S   0  0  0  0  0  0  0  0  0  0  0  0
   55.8430   30.0700   42.5790 O   0  0  0  0  0  0  0  0  0  0  0  0
   55.3580   29.3950   44.8790 O   0  0  0  0  0  0  0  0  0  0  0  0
   57.4590   28.3070   43.7020 N   0  0  0  0  0  0  0  0  0  0  0  0
   58.5860   27.9960   44.5430 C   0  0  0  0  0  0  0  0  0  0  0  0
   59.6850   28.8740   44.6410 C   0  0  0  0  0  0  0  0  0  0  0  0
   60.7530   28.5850   45.4940 C   0  0  0  0  0  0  0  0  0  0  0  0
   60.7430   27.4210   46.2600 C   0  0  0  0  0  0  0  0  0  0  0  0
   59.6660   26.5380   46.1730 C   0  0  0  0  0  0  0  0  0  0  0  0
   58.5900   26.8120   45.3190 C   0  0  0  0  0  0  0  0  0  0  0  0
   57.5190   25.8630   45.2360 N   0  0  0  0  0  0  0  0  0  0  0  0
   56.4490   25.8830   46.2320 C   0  0  0  0  0  0  0  0  0  0  0  0
   55.9180   24.4610   46.4420 C   0  0  0  0  0  0  0  0  0  0  0  0
   55.5880   23.8590   45.2050 O   0  0  0  0  0  0  0  0  0  0  0  0
   56.7580   23.6840   44.4270 C   0  0  0  0  0  0  0  0  0  0  0  0
   57.3590   25.0370   44.0370 C   0  0  0  0  0  0  0  0  0  0  0  0
   57.7630   32.1160   43.6850 C   0  0  0  0  0  0  0  0  0  0  0  0
   58.5150   33.1850   44.1810 C   0  0  0  0  0  0  0  0  0  0  0  0
   59.7452   34.3198   47.1469 H   0  0  0  0  0  0  0  0  0  0  0  0
   60.7883   34.2168   45.6881 H   0  0  0  0  0  0  0  0  0  0  0  0
   59.3476   35.2897   45.6881 H   0  0  0  0  0  0  0  0  0  0  0  0
   58.9133   32.1221   47.4076 H   0  0  0  0  0  0  0  0  0  0  0  0
   57.5628   30.2213   46.5247 H   0  0  0  0  0  0  0  0  0  0  0  0
   57.2050   27.6700   42.9160 H   0  0  0  0  0  0  0  0  0  0  0  0
   59.7016   29.7952   44.0401 H   0  0  0  0  0  0  0  0  0  0  0  0
   61.6043   29.2784   45.5611 H   0  0  0  0  0  0  0  0  0  0  0  0
   61.5840   27.1982   46.9332 H   0  0  0  0  0  0  0  0  0  0  0  0
   59.6619   25.6202   46.7794 H   0  0  0  0  0  0  0  0  0  0  0  0
   56.8412   26.2719   47.1833 H   0  0  0  0  0  0  0  0  0  0  0  0
   55.6325   26.5302   45.8792 H   0  0  0  0  0  0  0  0  0  0  0  0
   56.6905   23.8579   46.9416 H   0  0  0  0  0  0  0  0  0  0  0  0
   55.0107   24.5119   47.0619 H   0  0  0  0  0  0  0  0  0  0  0  0
   57.4974   23.1157   45.0104 H   0  0  0  0  0  0  0  0  0  0  0  0
   56.4929   23.1383   43.5094 H   0  0  0  0  0  0  0  0  0  0  0  0
   58.3406   24.8803   43.5658 H   0  0  0  0  0  0  0  0  0  0  0  0
   56.6893   25.5454   43.3277 H   0  0  0  0  0  0  0  0  0  0  0  0
   57.4474   32.1100   42.6313 H   0  0  0  0  0  0  0  0  0  0  0  0
   58.7944   34.0140   43.5142 H   0  0  0  0  0  0  0  0  0  0  0  0
  1  2  1  0
  2  3  2  0
  3  4  1  0
  4  5  2  0
  5  6  1  0
  6  7  2  0
  6  8  2  0
  6  9  1  0
  9 10  1  0
 10 11  2  0
 11 12  1  0
 12 13  2  0
 13 14  1  0
 14 15  2  0
 15 16  1  0
 16 17  1  0
 17 18  1  0
 18 19  1  0
 19 20  1  0
 20 21  1  0
  5 22  1  0
 22 23  2  0
 23  2  1  0
 15 10  1  0
 21 16  1  0
  1 24  1  0
  1 25  1  0
  1 26  1  0
  3 27  1  0
  4 28  1  0
  9 29  1  0
 11 30  1  0
 12 31  1  0
 13 32  1  0
 14 33  1  0
 17 34  1  0
 17 35  1  0
 18 36  1  0
 18 37  1  0
 20 38  1  0
 20 39  1  0
 21 40  1  0
 21 41  1  0
 22 42  1  0
 23 43  1  0
M  END
>  <UniqueID>  (16) 
14

>  <SMILES>  (16) 
Cc1ccc(S(=O)(=O)Nc2ccccc2N2CCOCC2)cc1

>  <Energy>  (16) 
53.93225046800458

>  <Genealogy>  (16) 
Cc1ccc(S(=O)(=O)Nc2ccccc2N2CCOCC2)cc1 (3D coordinates assigned)
Cc1ccc(S(=O)(=O)Nc2ccccc2N2CCOCC2)cc1 (nonaromatic ring conformer: 53.93225046800458 kcal/mol)

>  <smiles>  (16) 
Cc1ccc(S(=O)(=O)Nc2ccccc2N2CCOCC2)cc1

>  <score_type>  (16) 
oracle

>  <origin>  (16) 
adg

>  <m_score__min__energy>  (16) 
-8.0700000000000003

>  <m_primary>  (16) 
energy

$$$$
16:0
     RDKit          3D

 63 66  0  0  0  0  0  0  0  0999 V2000
   63.0120   33.8670   46.3850 C   0  0  0  0  0  0  0  0  0  0  0  0
   62.3560   32.9510   47.3240 N   0  0  0  0  0  0  0  0  0  0  0  0
   61.2230   32.1460   46.8510 C   0  0  0  0  0  0  0  0  0  0  0  0
   62.8140   32.8460   48.6980 C   0  0  0  0  0  0  0  0  0  0  0  0
   63.0040   34.0000   49.4900 C   0  0  0  0  0  0  0  0  0  0  0  0
   63.4340   33.8940   50.8160 C   0  0  0  0  0  0  0  0  0  0  0  0
   63.6900   32.6420   51.3750 C   0  0  0  0  0  0  0  0  0  0  0  0
   63.5350   31.4830   50.6050 C   0  0  0  0  0  0  0  0  0  0  0  0
   63.8080   30.1530   51.1870 C   0  0  0  0  0  0  0  0  0  0  0  0
   65.0000   29.8280   51.4410 O   0  0  0  0  0  0  0  0  0  0  0  0
   62.7580   29.2210   51.4890 N   0  0  0  0  0  0  0  0  0  0  0  0
   61.4320   29.5670   52.0090 C   0  0  0  0  0  0  0  0  0  0  0  0
   60.5340   30.0250   50.8880 C   0  0  0  0  0  0  0  0  0  0  0  0
   59.8350   31.2330   50.9880 C   0  0  0  0  0  0  0  0  0  0  0  0
   58.9190   31.5980   50.0010 C   0  0  0  0  0  0  0  0  0  0  0  0
   58.7140   30.7750   48.8910 C   0  0  0  0  0  0  0  0  0  0  0  0
   59.4200   29.5660   48.7610 C   0  0  0  0  0  0  0  0  0  0  0  0
   59.2040   28.6940   47.5890 C   0  0  0  0  0  0  0  0  0  0  0  0
   60.1930   28.1460   47.0210 O   0  0  0  0  0  0  0  0  0  0  0  0
   57.8830   28.5150   47.0590 N   0  0  0  0  0  0  0  0  0  0  0  0
   57.3340   29.2240   45.9400 C   0  0  0  0  0  0  0  0  0  0  0  0
   57.9020   30.4540   45.5880 C   0  0  0  0  0  0  0  0  0  0  0  0
   57.4050   31.1870   44.4980 C   0  0  0  0  0  0  0  0  0  0  0  0
   58.0660   32.4560   44.1320 C   0  0  0  0  0  0  0  0  0  0  0  0
   58.2620   32.6990   42.9100 O   0  0  0  0  0  0  0  0  0  0  0  0
   58.5200   33.4010   45.1210 N   0  0  0  0  0  0  0  0  0  0  0  0
   59.6320   34.3040   44.8690 C   0  0  0  0  0  0  0  0  0  0  0  0
   59.7400   35.1870   46.1090 C   0  0  0  0  0  0  0  0  0  0  0  0
   58.8450   34.5510   47.1750 C   0  0  0  0  0  0  0  0  0  0  0  0
   57.9470   33.5610   46.4500 C   0  0  0  0  0  0  0  0  0  0  0  0
   56.3250   30.6780   43.7630 C   0  0  0  0  0  0  0  0  0  0  0  0
   55.7270   29.4690   44.1320 C   0  0  0  0  0  0  0  0  0  0  0  0
   56.2150   28.7480   45.2270 C   0  0  0  0  0  0  0  0  0  0  0  0
   55.5630   27.5790   45.6140 O   0  0  0  0  0  0  0  0  0  0  0  0
   60.3270   29.1970   49.7690 C   0  0  0  0  0  0  0  0  0  0  0  0
   63.0800   31.5870   49.2800 C   0  0  0  0  0  0  0  0  0  0  0  0
   63.5626   34.6358   46.9469 H   0  0  0  0  0  0  0  0  0  0  0  0
   63.7129   33.3031   45.7519 H   0  0  0  0  0  0  0  0  0  0  0  0
   62.2525   34.3490   45.7519 H   0  0  0  0  0  0  0  0  0  0  0  0
   60.6677   31.7514   47.7147 H   0  0  0  0  0  0  0  0  0  0  0  0
   60.5560   32.7739   46.2420 H   0  0  0  0  0  0  0  0  0  0  0  0
   61.5964   31.3096   46.2420 H   0  0  0  0  0  0  0  0  0  0  0  0
   62.8115   34.9934   49.0586 H   0  0  0  0  0  0  0  0  0  0  0  0
   63.5711   34.8022   51.4213 H   0  0  0  0  0  0  0  0  0  0  0  0
   64.0144   32.5650   52.4232 H   0  0  0  0  0  0  0  0  0  0  0  0
   60.9890   28.6829   52.4907 H   0  0  0  0  0  0  0  0  0  0  0  0
   61.5358   30.3821   52.7403 H   0  0  0  0  0  0  0  0  0  0  0  0
   60.0083   31.8971   51.8476 H   0  0  0  0  0  0  0  0  0  0  0  0
   58.3557   32.5379   50.0973 H   0  0  0  0  0  0  0  0  0  0  0  0
   57.9957   31.0747   48.1137 H   0  0  0  0  0  0  0  0  0  0  0  0
   58.7463   30.8505   46.1711 H   0  0  0  0  0  0  0  0  0  0  0  0
   60.5618   33.7349   44.7219 H   0  0  0  0  0  0  0  0  0  0  0  0
   59.4703   34.9013   43.9596 H   0  0  0  0  0  0  0  0  0  0  0  0
   60.7819   35.2234   46.4600 H   0  0  0  0  0  0  0  0  0  0  0  0
   59.4270   36.2188   45.8910 H   0  0  0  0  0  0  0  0  0  0  0  0
   59.4585   34.0294   47.9244 H   0  0  0  0  0  0  0  0  0  0  0  0
   58.2526   35.3126   47.7032 H   0  0  0  0  0  0  0  0  0  0  0  0
   57.9343   32.5970   46.9797 H   0  0  0  0  0  0  0  0  0  0  0  0
   56.9080   33.9190   46.4013 H   0  0  0  0  0  0  0  0  0  0  0  0
   55.9462   31.2324   42.8917 H   0  0  0  0  0  0  0  0  0  0  0  0
   54.8703   29.0838   43.5595 H   0  0  0  0  0  0  0  0  0  0  0  0
   60.8812   28.2507   49.6824 H   0  0  0  0  0  0  0  0  0  0  0  0
   62.9285   30.6734   48.6864 H   0  0  0  0  0  0  0  0  0  0  0  0
  1  2  1  0
  2  3  1  0
  2  4  1  0
  4  5  2  0
  5  6  1  0
  6  7  2  0
  7  8  1  0
  8  9  1  0
  9 10  2  0
  9 11  1  0
 11 12  1  0
 12 13  1  0
 13 14  2  0
 14 15  1  0
 15 16  2  0
 16 17  1  0
 17 18  1  0
 18 19  2  0
 18 20  1  0
 20 21  1  0
 21 22  2  0
 22 23  1  0
 23 24  1  0
 24 25  2  0
 24 26  1  0
 26 27  1  0
 27 28  1  0
 28 29  1  0
 29 30  1  0
 23 31  2  0
 31 32  1  0
 32 33  2  0
 33 34  1  0
 17 35  2  0
  8 36  2  0
 36  4  1  0
 35 13  1  0
 33 21  1  0
 30 26  1  0
  1 37  1  0
  1 38  1  0
  1 39  1  0
  3 40  1  0
  3 41  1  0
  3 42  1  0
  5 43  1  0
  6 44  1  0
  7 45  1  0
 12 46  1  0
 12 47  1  0
 14 48  1  0
 15 49  1  0
 16 50  1  0
 22 51  1  0
 27 52  1  0
 27 53  1  0
 28 54  1  0
 28 55  1  0
 29 56  1  0
 29 57  1  0
 30 58  1  0
 30 59  1  0
 31 60  1  0
 32 61  1  0
 35 62  1  0
 36 63  1  0
M  CHG  3  11  -1  20  -1  34  -1
M  END
>  <UniqueID>  (17) 
15

>  <SMILES>  (17) 
CN(C)c1cccc(C(=O)[N-]Cc2cccc(C(=O)[N-]c3cc(C(=O)N4CCCC4)ccc3[O-])c2)c1

>  <Energy>  (17) 
84.05160275084442

>  <Genealogy>  (17) 
CN(C)c1cccc(C(=O)[N-]Cc2cccc(C(=O)[N-]c3cc(C(=O)N4CCCC4)ccc3[O-])c2)c1 (protonated)
CN(C)c1cccc(C(=O)[N-]Cc2cccc(C(=O)[N-]c3cc(C(=O)N4CCCC4)ccc3[O-])c2)c1 (3D coordinates assigned)
CN(C)c1cccc(C(=O)[N-]Cc2cccc(C(=O)[N-]c3cc(C(=O)N4CCCC4)ccc3[O-])c2)c1 (nonaromatic ring conformer: 84.05160275084442 kcal/mol)

>  <smiles>  (17) 
CN(C)c1cccc(C(=O)NCc2cccc(C(=O)Nc3cc(C(=O)N4CCCC4)ccc3O)c2)c1

>  <score_type>  (17) 
oracle

>  <origin>  (17) 
adg

>  <m_score__min__energy>  (17) 
-15.75

>  <m_primary>  (17) 
energy

$$$$
17:0
     RDKit          3D

 63 66  0  0  0  0  0  0  0  0999 V2000
   53.0150   19.3830   46.5390 C   0  0  0  0  0  0  0  0  0  0  0  0
   52.9000   20.7970   46.0680 C   0  0  0  0  0  0  0  0  0  0  0  0
   51.7870   21.3080   45.5060 N   0  0  0  0  0  0  0  0  0  0  0  0
   52.0030   22.5880   45.2360 N   0  0  0  0  0  0  0  0  0  0  0  0
   53.2470   22.9070   45.6420 C   0  0  0  0  0  0  0  0  0  0  0  0
   53.8640   24.2530   45.4360 C   0  0  0  0  0  0  0  0  0  0  0  0
   53.8570   21.7890   46.1840 C   0  0  0  0  0  0  0  0  0  0  0  0
   55.2660   21.6600   46.6970 C   0  0  0  0  0  0  0  0  0  0  0  0
   56.0710   20.6490   45.8790 C   0  0  0  0  0  0  0  0  0  0  0  0
   55.5500   20.5790   44.5150 N   0  0  0  0  0  0  0  0  0  0  0  0
   56.4900   21.5980   43.4700 S   0  0  0  0  0  0  0  0  0  0  0  0
   55.5710   22.3640   42.5590 O   0  0  0  0  0  0  0  0  0  0  0  0
   57.3980   20.7430   42.6330 O   0  0  0  0  0  0  0  0  0  0  0  0
   57.4720   22.7040   44.4290 C   0  0  0  0  0  0  0  0  0  0  0  0
   58.8440   22.4660   44.5600 C   0  0  0  0  0  0  0  0  0  0  0  0
   59.6360   23.3310   45.3190 C   0  0  0  0  0  0  0  0  0  0  0  0
   59.0620   24.4380   45.9490 C   0  0  0  0  0  0  0  0  0  0  0  0
   57.6840   24.6930   45.8270 C   0  0  0  0  0  0  0  0  0  0  0  0
   57.0740   25.8670   46.4940 C   0  0  0  0  0  0  0  0  0  0  0  0
   57.0730   25.9470   47.7530 O   0  0  0  0  0  0  0  0  0  0  0  0
   56.4390   26.8870   45.7130 N   0  0  0  0  0  0  0  0  0  0  0  0
   56.9360   28.2170   45.5160 C   0  0  0  0  0  0  0  0  0  0  0  0
   58.2090   28.5330   46.0090 C   0  0  0  0  0  0  0  0  0  0  0  0
   58.7320   29.8250   45.8610 C   0  0  0  0  0  0  0  0  0  0  0  0
   60.3400   30.2100   46.4790 S   0  0  0  0  0  0  0  0  0  0  0  0
   61.3740   29.5740   45.5920 O   0  0  0  0  0  0  0  0  0  0  0  0
   60.4910   29.6280   47.8580 O   0  0  0  0  0  0  0  0  0  0  0  0
   60.6200   31.9320   46.5400 N   0  0  0  0  0  0  0  0  0  0  0  0
   61.9320   32.2220   47.1420 C   0  0  0  0  0  0  0  0  0  0  0  0
   62.0920   33.7340   47.3990 C   0  0  0  0  0  0  0  0  0  0  0  0
   61.0610   34.4720   46.7700 O   0  0  0  0  0  0  0  0  0  0  0  0
   59.8070   34.1230   47.3340 C   0  0  0  0  0  0  0  0  0  0  0  0
   59.5560   32.6000   47.3020 C   0  0  0  0  0  0  0  0  0  0  0  0
   57.9680   30.8110   45.2230 C   0  0  0  0  0  0  0  0  0  0  0  0
   56.6870   30.5110   44.7530 C   0  0  0  0  0  0  0  0  0  0  0  0
   56.1600   29.2250   44.9110 C   0  0  0  0  0  0  0  0  0  0  0  0
   54.8580   28.9730   44.4940 O   0  0  0  0  0  0  0  0  0  0  0  0
   56.8940   23.8140   45.0610 C   0  0  0  0  0  0  0  0  0  0  0  0
   53.0167   19.3619   47.6388 H   0  0  0  0  0  0  0  0  0  0  0  0
   52.1613   18.8005   46.1624 H   0  0  0  0  0  0  0  0  0  0  0  0
   53.9516   18.9461   46.1624 H   0  0  0  0  0  0  0  0  0  0  0  0
   54.0749   24.7130   46.4127 H   0  0  0  0  0  0  0  0  0  0  0  0
   54.8020   24.1439   44.8719 H   0  0  0  0  0  0  0  0  0  0  0  0
   53.1691   24.8924   44.8719 H   0  0  0  0  0  0  0  0  0  0  0  0
   55.7592   22.6414   46.6373 H   0  0  0  0  0  0  0  0  0  0  0  0
   55.2230   21.3054   47.7374 H   0  0  0  0  0  0  0  0  0  0  0  0
   57.1254   20.9611   45.8503 H   0  0  0  0  0  0  0  0  0  0  0  0
   55.9872   19.6576   46.3481 H   0  0  0  0  0  0  0  0  0  0  0  0
   59.3002   21.5963   44.0646 H   0  0  0  0  0  0  0  0  0  0  0  0
   60.7145   23.1400   45.4209 H   0  0  0  0  0  0  0  0  0  0  0  0
   59.6920   25.1150   46.5446 H   0  0  0  0  0  0  0  0  0  0  0  0
   58.8037   27.7596   46.5171 H   0  0  0  0  0  0  0  0  0  0  0  0
   62.0184   31.6824   48.0967 H   0  0  0  0  0  0  0  0  0  0  0  0
   62.7197   31.8963   46.4467 H   0  0  0  0  0  0  0  0  0  0  0  0
   62.0562   33.9195   48.4827 H   0  0  0  0  0  0  0  0  0  0  0  0
   63.0568   34.0581   46.9816 H   0  0  0  0  0  0  0  0  0  0  0  0
   59.7816   34.4642   48.3794 H   0  0  0  0  0  0  0  0  0  0  0  0
   59.0213   34.6071   46.7354 H   0  0  0  0  0  0  0  0  0  0  0  0
   59.5452   32.2108   48.3308 H   0  0  0  0  0  0  0  0  0  0  0  0
   58.5875   32.4034   46.8189 H   0  0  0  0  0  0  0  0  0  0  0  0
   58.3776   31.8234   45.0919 H   0  0  0  0  0  0  0  0  0  0  0  0
   56.0899   31.2899   44.2563 H   0  0  0  0  0  0  0  0  0  0  0  0
   55.8147   23.9999   44.9577 H   0  0  0  0  0  0  0  0  0  0  0  0
  1  2  1  0
  2  3  2  0
  3  4  1  0
  4  5  1  0
  5  6  1  0
  5  7  2  0
  7  8  1  0
  8  9  1  0
  9 10  1  0
 10 11  1  0
 11 12  2  0
 11 13  2  0
 11 14  1  0
 14 15  2  0
 15 16  1  0
 16 17  2  0
 17 18  1  0
 18 19  1  0
 19 20  2  0
 19 21  1  0
 21 22  1  0
 22 23  2  0
 23 24  1  0
 24 25  1  0
 25 26  2  0
 25 27  2  0
 25 28  1  0
 28 29  1  0
 29 30  1  0
 30 31  1  0
 31 32  1  0
 32 33  1  0
 24 34  2  0
 34 35  1  0
 35 36  2  0
 36 37  1  0
 18 38  2  0
  7  2  1  0
 38 14  1  0
 36 22  1  0
 33 28  1  0
  1 39  1  0
  1 40  1  0
  1 41  1  0
  6 42  1  0
  6 43  1  0
  6 44  1  0
  8 45  1  0
  8 46  1  0
  9 47  1  0
  9 48  1  0
 15 49  1  0
 16 50  1  0
 17 51  1  0
 23 52  1  0
 29 53  1  0
 29 54  1  0
 30 55  1  0
 30 56  1  0
 32 57  1  0
 32 58  1  0
 33 59  1  0
 33 60  1  0
 34 61  1  0
 35 62  1  0
 38 63  1  0
M  CHG  4   4  -1  10  -1  21  -1  37  -1
M  END
>  <UniqueID>  (18) 
16

>  <SMILES>  (18) 
Cc1n[n-]c(C)c1CC[N-]S(=O)(=O)c1cccc(C(=O)[N-]c2cc(S(=O)(=O)N3CCOCC3)ccc2[O-])c1

>  <Energy>  (18) 
102.05857874489342

>  <Genealogy>  (18) 
Cc1n[n-]c(C)c1CC[N-]S(=O)(=O)c1cccc(C(=O)[N-]c2cc(S(=O)(=O)N3CCOCC3)ccc2[O-])c1 (protonated)
Cc1n[n-]c(C)c1CC[N-]S(=O)(=O)c1cccc(C(=O)[N-]c2cc(S(=O)(=O)N3CCOCC3)ccc2[O-])c1 (3D coordinates assigned)
Cc1n[n-]c(C)c1CC[N-]S(=O)(=O)c1cccc(C(=O)[N-]c2cc(S(=O)(=O)N3CCOCC3)ccc2[O-])c1 (nonaromatic ring conformer: 102.05857874489342 kcal/mol)

>  <smiles>  (18) 
Cc1n[nH]c(C)c1CCNS(=O)(=O)c1cccc(C(=O)Nc2cc(S(=O)(=O)N3CCOCC3)ccc2O)c1

>  <score_type>  (18) 
oracle

>  <origin>  (18) 
adg

>  <m_score__min__energy>  (18) 
-17.57

>  <m_primary>  (18) 
energy

$$$$
18:0
     RDKit          3D

 50 53  0  0  0  0  0  0  0  0999 V2000
   57.7200   26.4210   43.6440 O   0  0  0  0  0  0  0  0  0  0  0  0
   57.3720   26.2810   44.8470 C   0  0  0  0  0  0  0  0  0  0  0  0
   57.1820   24.9010   45.3980 C   0  0  0  0  0  0  0  0  0  0  0  0
   55.7310   24.5350   45.3750 C   0  0  0  0  0  0  0  0  0  0  0  0
   55.1190   23.0320   44.9240 S   0  0  0  0  0  0  0  0  0  0  0  0
   53.5250   23.5380   45.0960 C   0  0  0  0  0  0  0  0  0  0  0  0
   52.5230   22.8070   44.8900 O   0  0  0  0  0  0  0  0  0  0  0  0
   53.4270   24.8290   45.4770 N   0  0  0  0  0  0  0  0  0  0  0  0
   54.6570   25.3870   45.6270 C   0  0  0  0  0  0  0  0  0  0  0  0
   54.8150   26.7150   46.0030 O   0  0  0  0  0  0  0  0  0  0  0  0
   57.0680   27.4250   45.6600 N   0  0  0  0  0  0  0  0  0  0  0  0
   57.3340   28.7850   45.2750 C   0  0  0  0  0  0  0  0  0  0  0  0
   56.4690   29.4900   44.4190 C   0  0  0  0  0  0  0  0  0  0  0  0
   56.7580   30.8060   44.0500 C   0  0  0  0  0  0  0  0  0  0  0  0
   57.9280   31.4320   44.5080 C   0  0  0  0  0  0  0  0  0  0  0  0
   58.2170   32.8660   44.1340 C   0  0  0  0  0  0  0  0  0  0  0  0
   57.8790   33.8190   45.2550 C   0  0  0  0  0  0  0  0  0  0  0  0
   56.9700   34.6770   45.0840 O   0  0  0  0  0  0  0  0  0  0  0  0
   58.6260   33.8010   46.5390 C   0  0  0  0  0  0  0  0  0  0  0  0
   59.7570   34.6140   46.7390 C   0  0  0  0  0  0  0  0  0  0  0  0
   60.4300   34.6020   47.9640 C   0  0  0  0  0  0  0  0  0  0  0  0
   59.9930   33.7720   48.9970 C   0  0  0  0  0  0  0  0  0  0  0  0
   58.8890   32.9360   48.8120 C   0  0  0  0  0  0  0  0  0  0  0  0
   58.4570   32.1070   49.8990 N   0  0  0  0  0  0  0  0  0  0  0  0
   58.4330   30.6740   49.9190 C   0  0  0  0  0  0  0  0  0  0  0  0
   57.7990   30.0960   50.8420 O   0  0  0  0  0  0  0  0  0  0  0  0
   59.2130   29.8680   48.9080 C   0  0  0  0  0  0  0  0  0  0  0  0
   60.7040   30.1600   48.7880 C   0  0  0  0  0  0  0  0  0  0  0  0
   60.2300   28.9160   49.5190 C   0  0  0  0  0  0  0  0  0  0  0  0
   58.1900   32.9750   47.5930 C   0  0  0  0  0  0  0  0  0  0  0  0
   58.8040   30.7230   45.3490 C   0  0  0  0  0  0  0  0  0  0  0  0
   59.9370   31.3080   45.8140 F   0  0  0  0  0  0  0  0  0  0  0  0
   58.5100   29.4070   45.7190 C   0  0  0  0  0  0  0  0  0  0  0  0
   57.7483   24.1834   44.7861 H   0  0  0  0  0  0  0  0  0  0  0  0
   57.5444   24.8741   46.4362 H   0  0  0  0  0  0  0  0  0  0  0  0
   56.5370   27.2640   46.5460 H   0  0  0  0  0  0  0  0  0  0  0  0
   55.5596   29.0024   44.0378 H   0  0  0  0  0  0  0  0  0  0  0  0
   56.0643   31.3552   43.3964 H   0  0  0  0  0  0  0  0  0  0  0  0
   59.2864   32.9627   43.8953 H   0  0  0  0  0  0  0  0  0  0  0  0
   57.5922   33.1247   43.2665 H   0  0  0  0  0  0  0  0  0  0  0  0
   60.1138   35.2633   45.9259 H   0  0  0  0  0  0  0  0  0  0  0  0
   61.3069   35.2489   48.1142 H   0  0  0  0  0  0  0  0  0  0  0  0
   60.5206   33.7759   49.9622 H   0  0  0  0  0  0  0  0  0  0  0  0
   58.3882   29.7954   48.1838 H   0  0  0  0  0  0  0  0  0  0  0  0
   61.2059   30.0677   47.8135 H   0  0  0  0  0  0  0  0  0  0  0  0
   61.3528   31.0114   49.0414 H   0  0  0  0  0  0  0  0  0  0  0  0
   60.3896   27.9228   49.0739 H   0  0  0  0  0  0  0  0  0  0  0  0
   60.3946   28.4940   50.5214 H   0  0  0  0  0  0  0  0  0  0  0  0
   57.2922   32.3533   47.4609 H   0  0  0  0  0  0  0  0  0  0  0  0
   59.2080   28.8541   46.3648 H   0  0  0  0  0  0  0  0  0  0  0  0
  1  2  2  0
  2  3  1  0
  3  4  1  0
  4  5  1  0
  5  6  1  0
  6  7  2  0
  6  8  1  0
  8  9  1  0
  9 10  1  0
  2 11  1  0
 11 12  1  0
 12 13  2  0
 13 14  1  0
 14 15  2  0
 15 16  1  0
 16 17  1  0
 17 18  2  0
 17 19  1  0
 19 20  2  0
 20 21  1  0
 21 22  2  0
 22 23  1  0
 23 24  1  0
 24 25  1  0
 25 26  2  0
 25 27  1  0
 27 28  1  0
 28 29  1  0
 23 30  2  0
 15 31  1  0
 31 32  1  0
 31 33  2  0
  9  4  2  0
 33 12  1  0
 30 19  1  0
 29 27  1  0
  3 34  1  0
  3 35  1  0
 11 36  1  0
 13 37  1  0
 14 38  1  0
 16 39  1  0
 16 40  1  0
 20 41  1  0
 21 42  1  0
 22 43  1  0
 27 44  1  0
 28 45  1  0
 28 46  1  0
 29 47  1  0
 29 48  1  0
 30 49  1  0
 33 50  1  0
M  CHG  3   8  -1  10  -1  24  -1
M  END
>  <UniqueID>  (19) 
17

>  <SMILES>  (19) 
O=C(Cc1sc(=O)[n-]c1[O-])Nc1ccc(CC(=O)c2cccc([N-]C(=O)C3CC3)c2)c(F)c1

>  <Energy>  (19) 
356.0372173913205

>  <Genealogy>  (19) 
O=C(Cc1sc(=O)[n-]c1[O-])Nc1ccc(CC(=O)c2cccc([N-]C(=O)C3CC3)c2)c(F)c1 (protonated)
O=C(Cc1sc(=O)[n-]c1[O-])Nc1ccc(CC(=O)c2cccc([N-]C(=O)C3CC3)c2)c(F)c1 (3D coordinates assigned)
O=C(Cc1sc(=O)[n-]c1[O-])Nc1ccc(CC(=O)c2cccc([N-]C(=O)C3CC3)c2)c(F)c1 (nonaromatic ring conformer: 356.0372173913205 kcal/mol)

>  <smiles>  (19) 
O=C(Cc1sc(=O)[nH]c1O)Nc1ccc(CC(=O)c2cccc(NC(=O)C3CC3)c2)c(F)c1

>  <score_type>  (19) 
oracle

>  <origin>  (19) 
adg

>  <m_score__min__energy>  (19) 
-17.420000000000002

>  <m_primary>  (19) 
energy

$$$$
19:0
     RDKit          3D

 38 40  0  0  0  0  0  0  0  0999 V2000
   57.2620   33.4460   47.3310 O   0  0  0  0  0  0  0  0  0  0  0  0
   58.4860   33.7710   47.1900 C   0  0  0  0  0  0  0  0  0  0  0  0
   58.9220   34.5920   46.0220 C   0  0  0  0  0  0  0  0  0  0  0  0
   57.9350   34.5670   44.8650 C   0  0  0  0  0  0  0  0  0  0  0  0
   59.2710   33.9220   44.7420 C   0  0  0  0  0  0  0  0  0  0  0  0
   59.3730   33.3140   48.1870 N   0  0  0  0  0  0  0  0  0  0  0  0
   59.1210   32.0160   48.7730 C   0  0  0  0  0  0  0  0  0  0  0  0
   58.9050   31.0670   47.6820 C   0  0  0  0  0  0  0  0  0  0  0  0
   58.7080   30.2940   46.7770 C   0  0  0  0  0  0  0  0  0  0  0  0
   58.4820   29.3540   45.7110 C   0  0  0  0  0  0  0  0  0  0  0  0
   59.0590   28.1000   45.8560 C   0  0  0  0  0  0  0  0  0  0  0  0
   59.8010   27.7620   46.9390 F   0  0  0  0  0  0  0  0  0  0  0  0
   58.8890   27.1530   44.8850 C   0  0  0  0  0  0  0  0  0  0  0  0
   58.1420   27.4570   43.7700 C   0  0  0  0  0  0  0  0  0  0  0  0
   57.5560   28.7150   43.6140 C   0  0  0  0  0  0  0  0  0  0  0  0
   57.7320   29.6630   44.5950 C   0  0  0  0  0  0  0  0  0  0  0  0
   57.0420   31.2620   44.4920 Cl  0  0  0  0  0  0  0  0  0  0  0  0
   60.5110   34.0960   48.6350 C   0  0  0  0  0  0  0  0  0  0  0  0
   61.7550   33.7550   47.8730 C   0  0  0  0  0  0  0  0  0  0  0  0
   62.7530   32.8850   48.3270 C   0  0  0  0  0  0  0  0  0  0  0  0
   63.6820   32.8510   47.3670 N   0  0  0  0  0  0  0  0  0  0  0  0
   63.3230   33.6460   46.3420 C   0  0  0  0  0  0  0  0  0  0  0  0
   62.1250   34.2050   46.6650 N   0  0  0  0  0  0  0  0  0  0  0  0
   59.4412   35.3399   46.6392 H   0  0  0  0  0  0  0  0  0  0  0  0
   57.0270   33.9491   44.9269 H   0  0  0  0  0  0  0  0  0  0  0  0
   57.3765   35.3250   44.2962 H   0  0  0  0  0  0  0  0  0  0  0  0
   59.3461   32.8253   44.7028 H   0  0  0  0  0  0  0  0  0  0  0  0
   60.1050   34.0105   44.0302 H   0  0  0  0  0  0  0  0  0  0  0  0
   59.9866   31.7030   49.3753 H   0  0  0  0  0  0  0  0  0  0  0  0
   58.2383   32.0553   49.4283 H   0  0  0  0  0  0  0  0  0  0  0  0
   59.3448   26.1578   44.9938 H   0  0  0  0  0  0  0  0  0  0  0  0
   58.0040   26.6958   42.9879 H   0  0  0  0  0  0  0  0  0  0  0  0
   56.9611   28.9449   42.7178 H   0  0  0  0  0  0  0  0  0  0  0  0
   60.2876   35.1636   48.4926 H   0  0  0  0  0  0  0  0  0  0  0  0
   60.6866   33.8670   49.6965 H   0  0  0  0  0  0  0  0  0  0  0  0
   62.7693   32.3391   49.2818 H   0  0  0  0  0  0  0  0  0  0  0  0
   64.5720   32.2740   47.4160 H   0  0  0  0  0  0  0  0  0  0  0  0
   63.8921   33.8129   45.4155 H   0  0  0  0  0  0  0  0  0  0  0  0
  1  2  2  0
  2  3  1  0
  3  4  1  0
  4  5  1  0
  2  6  1  0
  6  7  1  0
  7  8  1  0
  8  9  3  0
  9 10  1  0
 10 11  2  0
 11 12  1  0
 11 13  1  0
 13 14  2  0
 14 15  1  0
 15 16  2  0
 16 17  1  0
  6 18  1  0
 18 19  1  0
 19 20  2  0
 20 21  1  0
 21 22  1  0
 22 23  2  0
  5  3  1  0
 16 10  1  0
 23 19  1  0
  3 24  1  0
  4 25  1  0
  4 26  1  0
  5 27  1  0
  5 28  1  0
  7 29  1  0
  7 30  1  0
 13 31  1  0
 14 32  1  0
 15 33  1  0
 18 34  1  0
 18 35  1  0
 20 36  1  0
 21 37  1  0
 22 38  1  0
M  END
>  <smiles>  (20) 
O=C(C1CC1)N(CC#Cc1c(F)cccc1Cl)Cc1c[nH]cn1

>  <score_type>  (20) 
oracle

>  <origin>  (20) 
adg

>  <m_score__min__energy>  (20) 
-7.2800000000000002

>  <m_primary>  (20) 
energy

$$$$
20:0
     RDKit          3D

 46 48  0  0  0  0  0  0  0  0999 V2000
   59.8852   30.8098   47.0202 H   0  0  0  0  0  0  0  0  0  0  0  0
   60.6460   30.8440   47.8140 C   0  0  0  0  0  0  0  0  0  0  0  0
   60.6020   29.9440   48.8120 C   0  0  0  0  0  0  0  0  0  0  0  0
   59.5440   28.9100   48.8400 C   0  0  0  0  0  0  0  0  0  0  0  0
   58.3320   29.2570   48.8690 O   0  0  0  0  0  0  0  0  0  0  0  0
   59.8880   27.5510   48.8250 O   0  0  0  0  0  0  0  0  0  0  0  0
   59.9770   26.7740   47.6320 C   0  0  0  0  0  0  0  0  0  0  0  0
   59.6371   25.7485   47.8392 H   0  0  0  0  0  0  0  0  0  0  0  0
   61.0219   26.7590   47.2885 H   0  0  0  0  0  0  0  0  0  0  0  0
   59.1140   27.3770   46.5590 C   0  0  0  0  0  0  0  0  0  0  0  0
   59.6700   28.2250   45.5900 C   0  0  0  0  0  0  0  0  0  0  0  0
   60.7542   28.4106   45.5820 H   0  0  0  0  0  0  0  0  0  0  0  0
   58.8530   28.8350   44.6350 C   0  0  0  0  0  0  0  0  0  0  0  0
   59.2997   29.4859   43.8690 H   0  0  0  0  0  0  0  0  0  0  0  0
   57.4630   28.6220   44.6470 C   0  0  0  0  0  0  0  0  0  0  0  0
   56.5880   29.2840   43.6540 C   0  0  0  0  0  0  0  0  0  0  0  0
   56.0959   28.6489   42.9027 H   0  0  0  0  0  0  0  0  0  0  0  0
   56.3520   30.6060   43.6050 C   0  0  0  0  0  0  0  0  0  0  0  0
   55.3082   30.9326   43.4876 H   0  0  0  0  0  0  0  0  0  0  0  0
   57.3900   31.6540   43.6970 C   0  0  0  0  0  0  0  0  0  0  0  0
   57.9100   32.0820   42.6330 O   0  0  0  0  0  0  0  0  0  0  0  0
   57.7890   32.2590   44.9800 C   0  0  0  0  0  0  0  0  0  0  0  0
   57.7500   31.5790   46.0420 O   0  0  0  0  0  0  0  0  0  0  0  0
   58.2050   33.5940   45.0110 O   0  0  0  0  0  0  0  0  0  0  0  0
   58.6240   34.2340   46.2110 C   0  0  0  0  0  0  0  0  0  0  0  0
   58.2529   33.6672   47.0777 H   0  0  0  0  0  0  0  0  0  0  0  0
   59.7229   34.2728   46.2415 H   0  0  0  0  0  0  0  0  0  0  0  0
   58.2200   35.2567   46.2415 H   0  0  0  0  0  0  0  0  0  0  0  0
   56.9100   27.7490   45.6010 C   0  0  0  0  0  0  0  0  0  0  0  0
   55.5420   27.4980   45.6180 O   0  0  0  0  0  0  0  0  0  0  0  0
   57.7310   27.1410   46.5560 C   0  0  0  0  0  0  0  0  0  0  0  0
   57.2893   26.4730   47.3101 H   0  0  0  0  0  0  0  0  0  0  0  0
   61.5580   30.0590   49.9870 C   0  0  0  0  0  0  0  0  0  0  0  0
   61.8640   29.0472   50.2913 H   0  0  0  0  0  0  0  0  0  0  0  0
   61.0281   30.5856   50.7944 H   0  0  0  0  0  0  0  0  0  0  0  0
   62.7310   30.8170   49.6760 O   0  0  0  0  0  0  0  0  0  0  0  0
   62.7370   31.8200   48.7040 C   0  0  0  0  0  0  0  0  0  0  0  0
   63.7830   32.7470   48.6480 C   0  0  0  0  0  0  0  0  0  0  0  0
   64.6063   32.6936   49.3756 H   0  0  0  0  0  0  0  0  0  0  0  0
   63.7800   33.7430   47.6640 C   0  0  0  0  0  0  0  0  0  0  0  0
   64.5975   34.4779   47.6239 H   0  0  0  0  0  0  0  0  0  0  0  0
   62.7380   33.8050   46.7310 C   0  0  0  0  0  0  0  0  0  0  0  0
   62.7362   34.5904   45.9609 H   0  0  0  0  0  0  0  0  0  0  0  0
   61.7000   32.8700   46.7770 C   0  0  0  0  0  0  0  0  0  0  0  0
   60.8863   32.9139   46.0381 H   0  0  0  0  0  0  0  0  0  0  0  0
   61.6970   31.8750   47.7670 C   0  0  0  0  0  0  0  0  0  0  0  0
  1  2  1  0
  2  3  2  0
  3  4  1  0
  4  5  2  0
  4  6  1  0
  6  7  1  0
  7  8  1  0
  7  9  1  0
  7 10  1  0
 10 11  2  0
 11 12  1  0
 11 13  1  0
 13 14  1  0
 13 15  2  0
 15 16  1  0
 16 17  1  0
 16 18  2  0
 18 19  1  0
 18 20  1  0
 20 21  2  0
 20 22  1  0
 22 23  2  0
 22 24  1  0
 24 25  1  0
 25 26  1  0
 25 27  1  0
 25 28  1  0
 15 29  1  0
 29 30  1  0
 29 31  2  0
 31 32  1  0
  3 33  1  0
 33 34  1  0
 33 35  1  0
 33 36  1  0
 36 37  1  0
 37 38  2  0
 38 39  1  0
 38 40  1  0
 40 41  1  0
 40 42  2  0
 42 43  1  0
 42 44  1  0
 44 45  1  0
 44 46  2  0
 46  2  1  0
 31 10  1  0
 46 37  1  0
M  CHG  1  30  -1
M  END
>  <UniqueID>  (21) 
18

>  <SMILES>  (21) 
COC(=O)C(=O)/C=C\c1ccc(COC(=O)C2=Cc3ccccc3OC2)cc1[O-]

>  <Energy>  (21) 
54.94017263848126

>  <Genealogy>  (21) 
COC(=O)C(=O)C=Cc1ccc(COC(=O)C2=Cc3ccccc3OC2)cc1[O-] (protonated)
COC(=O)C(=O)/C=C\c1ccc(COC(=O)C2=Cc3ccccc3OC2)cc1[O-] (cis-trans isomerization)
COC(=O)C(=O)/C=C\c1ccc(COC(=O)C2=Cc3ccccc3OC2)cc1[O-] (3D coordinates assigned)
COC(=O)C(=O)/C=C\c1ccc(COC(=O)C2=Cc3ccccc3OC2)cc1[O-] (nonaromatic ring conformer: 54.94017263848126 kcal/mol)

>  <smiles>  (21) 
COC(=O)C(=O)C=Cc1ccc(COC(=O)C2=Cc3ccccc3OC2)cc1O

>  <score_type>  (21) 
oracle

>  <origin>  (21) 
adg

>  <m_score__min__energy>  (21) 
-12.76

>  <m_primary>  (21) 
energy

$$$$
21:0
     RDKit          3D

 37 39  0  0  0  0  0  0  0  0999 V2000
   55.7750   30.8770   44.4850 O   0  0  0  0  0  0  0  0  0  0  0  0
   56.9920   30.6480   44.7100 C   0  0  0  0  0  0  0  0  0  0  0  0
   57.9760   31.5370   44.1610 N   0  0  0  0  0  0  0  0  0  0  0  0
   57.8820   32.9950   44.1250 C   0  0  0  0  0  0  0  0  0  0  0  0
   58.4870   33.5990   45.3650 C   0  0  0  0  0  0  0  0  0  0  0  0
   59.2400   34.7820   45.2760 C   0  0  0  0  0  0  0  0  0  0  0  0
   59.8260   35.3320   46.4190 C   0  0  0  0  0  0  0  0  0  0  0  0
   59.6650   34.7080   47.6590 C   0  0  0  0  0  0  0  0  0  0  0  0
   58.9150   33.5320   47.7580 C   0  0  0  0  0  0  0  0  0  0  0  0
   58.3240   32.9800   46.6170 C   0  0  0  0  0  0  0  0  0  0  0  0
   57.3590   29.4530   45.4850 C   0  0  0  0  0  0  0  0  0  0  0  0
   56.8610   28.1890   45.1470 C   0  0  0  0  0  0  0  0  0  0  0  0
   57.2350   27.0840   45.9260 C   0  0  0  0  0  0  0  0  0  0  0  0
   56.7500   25.7180   45.6170 C   0  0  0  0  0  0  0  0  0  0  0  0
   57.6870   24.7070   45.3350 C   0  0  0  0  0  0  0  0  0  0  0  0
   57.2650   23.4100   45.0350 C   0  0  0  0  0  0  0  0  0  0  0  0
   55.9030   23.0990   45.0200 C   0  0  0  0  0  0  0  0  0  0  0  0
   55.4970   21.8020   44.7160 O   0  0  0  0  0  0  0  0  0  0  0  0
   54.9610   24.0920   45.3150 C   0  0  0  0  0  0  0  0  0  0  0  0
   55.3760   25.3930   45.6210 C   0  0  0  0  0  0  0  0  0  0  0  0
   54.4150   26.3410   45.9550 O   0  0  0  0  0  0  0  0  0  0  0  0
   58.1010   27.2660   46.9590 N   0  0  0  0  0  0  0  0  0  0  0  0
   58.5940   28.4950   47.2600 C   0  0  0  0  0  0  0  0  0  0  0  0
   59.3940   28.6320   48.2210 O   0  0  0  0  0  0  0  0  0  0  0  0
   58.2250   29.5750   46.5240 N   0  0  0  0  0  0  0  0  0  0  0  0
   58.4199   33.3697   43.2416 H   0  0  0  0  0  0  0  0  0  0  0  0
   56.8206   33.2795   44.0751 H   0  0  0  0  0  0  0  0  0  0  0  0
   59.3687   35.2773   44.3023 H   0  0  0  0  0  0  0  0  0  0  0  0
   60.4151   36.2578   46.3426 H   0  0  0  0  0  0  0  0  0  0  0  0
   60.1283   35.1420   48.5573 H   0  0  0  0  0  0  0  0  0  0  0  0
   58.7897   33.0406   48.7342 H   0  0  0  0  0  0  0  0  0  0  0  0
   57.7294   32.0582   46.6993 H   0  0  0  0  0  0  0  0  0  0  0  0
   56.1882   28.0645   44.2857 H   0  0  0  0  0  0  0  0  0  0  0  0
   58.7618   24.9403   45.3510 H   0  0  0  0  0  0  0  0  0  0  0  0
   58.0076   22.6304   44.8097 H   0  0  0  0  0  0  0  0  0  0  0  0
   56.1210   21.0110   44.8240 H   0  0  0  0  0  0  0  0  0  0  0  0
   53.8884   23.8481   45.3062 H   0  0  0  0  0  0  0  0  0  0  0  0
  1  2  2  0
  2  3  1  0
  3  4  1  0
  4  5  1  0
  5  6  2  0
  6  7  1  0
  7  8  2  0
  8  9  1  0
  9 10  2  0
  2 11  1  0
 11 12  1  0
 12 13  2  0
 13 14  1  0
 14 15  2  0
 15 16  1  0
 16 17  2  0
 17 18  1  0
 17 19  1  0
 19 20  2  0
 20 21  1  0
 13 22  1  0
 22 23  1  0
 23 24  2  0
 23 25  1  0
 10  5  1  0
 25 11  2  0
 20 14  1  0
  4 26  1  0
  4 27  1  0
  6 28  1  0
  7 29  1  0
  8 30  1  0
  9 31  1  0
 10 32  1  0
 12 33  1  0
 15 34  1  0
 16 35  1  0
 18 36  1  0
 19 37  1  0
M  CHG  3   3  -1  21  -1  22  -1
M  END
>  <UniqueID>  (22) 
19

>  <SMILES>  (22) 
O=C([N-]Cc1ccccc1)c1cc(-c2ccc(O)cc2[O-])[n-]c(=O)n1

>  <Energy>  (22) 
47.927969352200535

>  <Genealogy>  (22) 
O=C([N-]Cc1ccccc1)c1cc(-c2ccc(O)cc2[O-])[n-]c(=O)n1 (protonated)
O=C([N-]Cc1ccccc1)c1cc(-c2ccc(O)cc2[O-])[n-]c(=O)n1 (3D coordinates assigned)
O=C([N-]Cc1ccccc1)c1cc(-c2ccc(O)cc2[O-])[n-]c(=O)n1 (optimized conformer: 47.927969352200535 kcal/mol)

>  <smiles>  (22) 
O=C(NCc1ccccc1)c1cc(-c2ccc(O)cc2O)[nH]c(=O)n1

>  <score_type>  (22) 
oracle

>  <origin>  (22) 
adg

>  <m_score__min__energy>  (22) 
-14.85

>  <m_primary>  (22) 
energy

$$$$
22:0
     RDKit          3D

 51 54  0  0  0  0  0  0  0  0999 V2000
   56.8860   22.6570   48.4870 C   0  0  0  0  0  0  0  0  0  0  0  0
   56.9410   23.8630   47.5950 C   0  0  0  0  0  0  0  0  0  0  0  0
   55.7750   24.3430   46.9820 C   0  0  0  0  0  0  0  0  0  0  0  0
   55.8360   25.4930   46.1820 C   0  0  0  0  0  0  0  0  0  0  0  0
   54.7800   25.9200   45.6360 O   0  0  0  0  0  0  0  0  0  0  0  0
   57.0650   26.1590   46.0060 C   0  0  0  0  0  0  0  0  0  0  0  0
   57.1770   27.3180   45.2180 C   0  0  0  0  0  0  0  0  0  0  0  0
   58.4100   27.9890   45.1070 C   0  0  0  0  0  0  0  0  0  0  0  0
   58.5410   29.2130   44.3710 N   0  0  0  0  0  0  0  0  0  0  0  0
   57.4640   30.5660   44.5180 S   0  0  0  0  0  0  0  0  0  0  0  0
   57.2220   31.1740   43.1590 O   0  0  0  0  0  0  0  0  0  0  0  0
   56.1530   30.0910   45.0850 O   0  0  0  0  0  0  0  0  0  0  0  0
   58.1960   31.7780   45.5710 C   0  0  0  0  0  0  0  0  0  0  0  0
   59.2030   31.3990   46.4680 C   0  0  0  0  0  0  0  0  0  0  0  0
   59.6830   32.3070   47.4170 C   0  0  0  0  0  0  0  0  0  0  0  0
   59.1550   33.6030   47.4810 C   0  0  0  0  0  0  0  0  0  0  0  0
   59.6290   34.5670   48.5340 C   0  0  0  0  0  0  0  0  0  0  0  0
   60.6280   33.7230   49.8070 S   0  0  0  0  0  0  0  0  0  0  0  0
   59.2410   33.3640   50.8870 C   0  0  0  0  0  0  0  0  0  0  0  0
   58.6590   34.2780   51.6830 N   0  0  0  0  0  0  0  0  0  0  0  0
   57.6980   33.6740   52.3640 N   0  0  0  0  0  0  0  0  0  0  0  0
   57.7010   32.3870   51.9580 C   0  0  0  0  0  0  0  0  0  0  0  0
   56.7980   31.3420   52.5320 C   0  0  0  0  0  0  0  0  0  0  0  0
   58.6550   32.1590   51.0250 N   0  0  0  0  0  0  0  0  0  0  0  0
   59.0560   30.8940   50.4190 C   0  0  0  0  0  0  0  0  0  0  0  0
   58.1730   33.9950   46.5550 C   0  0  0  0  0  0  0  0  0  0  0  0
   57.6970   33.0880   45.6050 C   0  0  0  0  0  0  0  0  0  0  0  0
   59.5390   27.4570   45.7390 C   0  0  0  0  0  0  0  0  0  0  0  0
   59.4420   26.2940   46.5070 C   0  0  0  0  0  0  0  0  0  0  0  0
   58.2120   25.6470   46.6530 C   0  0  0  0  0  0  0  0  0  0  0  0
   58.1190   24.5270   47.4240 N   0  0  0  0  0  0  0  0  0  0  0  0
   56.9006   22.9781   49.5390 H   0  0  0  0  0  0  0  0  0  0  0  0
   55.9613   22.0955   48.2878 H   0  0  0  0  0  0  0  0  0  0  0  0
   57.7557   22.0137   48.2878 H   0  0  0  0  0  0  0  0  0  0  0  0
   54.8180   23.8206   47.1278 H   0  0  0  0  0  0  0  0  0  0  0  0
   56.2955   27.7032   44.6846 H   0  0  0  0  0  0  0  0  0  0  0  0
   59.6185   30.3814   46.4256 H   0  0  0  0  0  0  0  0  0  0  0  0
   60.4770   32.0029   48.1149 H   0  0  0  0  0  0  0  0  0  0  0  0
   60.2415   35.3460   48.0566 H   0  0  0  0  0  0  0  0  0  0  0  0
   58.7474   35.0084   49.0217 H   0  0  0  0  0  0  0  0  0  0  0  0
   58.9170   35.2830   51.7800 H   0  0  0  0  0  0  0  0  0  0  0  0
   56.8369   31.3870   53.6304 H   0  0  0  0  0  0  0  0  0  0  0  0
   55.7669   31.5225   52.1939 H   0  0  0  0  0  0  0  0  0  0  0  0
   57.1261   30.3480   52.1939 H   0  0  0  0  0  0  0  0  0  0  0  0
   59.2870   30.1654   51.2101 H   0  0  0  0  0  0  0  0  0  0  0  0
   58.2355   30.5100   49.7950 H   0  0  0  0  0  0  0  0  0  0  0  0
   59.9479   31.0528   49.7950 H   0  0  0  0  0  0  0  0  0  0  0  0
   57.7773   35.0211   46.5784 H   0  0  0  0  0  0  0  0  0  0  0  0
   56.9294   33.4021   44.8824 H   0  0  0  0  0  0  0  0  0  0  0  0
   60.5118   27.9589   45.6303 H   0  0  0  0  0  0  0  0  0  0  0  0
   60.3374   25.8860   46.9987 H   0  0  0  0  0  0  0  0  0  0  0  0
  1  2  1  0
  2  3  2  0
  3  4  1  0
  4  5  2  0
  4  6  1  0
  6  7  2  0
  7  8  1  0
  8  9  1  0
  9 10  1  0
 10 11  2  0
 10 12  2  0
 10 13  1  0
 13 14  2  0
 14 15  1  0
 15 16  2  0
 16 17  1  0
 17 18  1  0
 18 19  1  0
 19 20  2  0
 20 21  1  0
 21 22  2  0
 22 23  1  0
 22 24  1  0
 24 25  1  0
 16 26  1  0
 26 27  2  0
  8 28  2  0
 28 29  1  0
 29 30  2  0
 30 31  1  0
 31  2  1  0
 30  6  1  0
 27 13  1  0
 24 19  1  0
  1 32  1  0
  1 33  1  0
  1 34  1  0
  3 35  1  0
  7 36  1  0
 14 37  1  0
 15 38  1  0
 17 39  1  0
 17 40  1  0
 20 41  1  0
 23 42  1  0
 23 43  1  0
 23 44  1  0
 25 45  1  0
 25 46  1  0
 25 47  1  0
 26 48  1  0
 27 49  1  0
 28 50  1  0
 29 51  1  0
M  CHG  3   9  -1  20   1  31  -1
M  END
>  <UniqueID>  (23) 
20

>  <SMILES>  (23) 
Cc1cc(=O)c2cc([N-]S(=O)(=O)c3ccc(CSc4[nH+]nc(C)n4C)cc3)ccc2[n-]1

>  <Energy>  (23) 
90.78827627833076

>  <Genealogy>  (23) 
Cc1cc(=O)c2cc([N-]S(=O)(=O)c3ccc(CSc4[nH+]nc(C)n4C)cc3)ccc2[n-]1 (protonated)
Cc1cc(=O)c2cc([N-]S(=O)(=O)c3ccc(CSc4[nH+]nc(C)n4C)cc3)ccc2[n-]1 (3D coordinates assigned)
Cc1cc(=O)c2cc([N-]S(=O)(=O)c3ccc(CSc4[nH+]nc(C)n4C)cc3)ccc2[n-]1 (optimized conformer: 90.78827627833076 kcal/mol)

>  <smiles>  (23) 
Cc1cc(=O)c2cc(NS(=O)(=O)c3ccc(CSc4nnc(C)n4C)cc3)ccc2[nH]1

>  <score_type>  (23) 
oracle

>  <origin>  (23) 
adg

>  <m_score__min__energy>  (23) 
-11.210000000000001

>  <m_primary>  (23) 
energy

$$$$
23:0
     RDKit          3D

 49 51  0  0  0  0  0  0  0  0999 V2000
   60.1600   27.5480   46.1300 C   0  0  0  0  0  0  0  0  0  0  0  0
   58.9250   26.6860   46.0780 C   0  0  0  0  0  0  0  0  0  0  0  0
   59.0700   25.2910   45.9640 C   0  0  0  0  0  0  0  0  0  0  0  0
   57.9460   24.4630   45.9110 C   0  0  0  0  0  0  0  0  0  0  0  0
   56.6670   25.0150   45.9830 C   0  0  0  0  0  0  0  0  0  0  0  0
   56.5080   26.3970   46.0990 C   0  0  0  0  0  0  0  0  0  0  0  0
   57.6250   27.2480   46.1410 C   0  0  0  0  0  0  0  0  0  0  0  0
   57.4050   28.7390   46.2570 C   0  0  0  0  0  0  0  0  0  0  0  0
   56.4550   29.1950   45.2510 N   0  0  0  0  0  0  0  0  0  0  0  0
   56.7590   29.2890   43.8570 C   0  0  0  0  0  0  0  0  0  0  0  0
   57.5950   28.5050   43.3310 O   0  0  0  0  0  0  0  0  0  0  0  0
   56.1550   30.3970   43.0570 C   0  0  0  0  0  0  0  0  0  0  0  0
   57.3970   31.6530   42.5930 S   0  0  0  0  0  0  0  0  0  0  0  0
   58.1450   31.6750   44.2320 C   0  0  0  0  0  0  0  0  0  0  0  0
   58.9900   30.6660   44.5730 N   0  0  0  0  0  0  0  0  0  0  0  0
   59.6100   30.6570   45.7500 N   0  0  0  0  0  0  0  0  0  0  0  0
   59.4320   31.6540   46.6500 C   0  0  0  0  0  0  0  0  0  0  0  0
   60.1240   31.5770   47.9840 C   0  0  0  0  0  0  0  0  0  0  0  0
   61.4770   32.2340   47.9110 C   0  0  0  0  0  0  0  0  0  0  0  0
   61.7260   33.2370   46.9600 C   0  0  0  0  0  0  0  0  0  0  0  0
   62.9910   33.8270   46.8720 C   0  0  0  0  0  0  0  0  0  0  0  0
   64.0200   33.4090   47.7230 C   0  0  0  0  0  0  0  0  0  0  0  0
   63.7860   32.4050   48.6640 C   0  0  0  0  0  0  0  0  0  0  0  0
   62.5200   31.8180   48.7590 C   0  0  0  0  0  0  0  0  0  0  0  0
   58.5560   32.7000   46.3240 C   0  0  0  0  0  0  0  0  0  0  0  0
   58.3590   33.6340   47.1470 O   0  0  0  0  0  0  0  0  0  0  0  0
   57.9100   32.6940   45.1190 N   0  0  0  0  0  0  0  0  0  0  0  0
   57.0130   33.7340   44.8020 N   0  0  0  0  0  0  0  0  0  0  0  0
   60.4311   27.7373   47.1791 H   0  0  0  0  0  0  0  0  0  0  0  0
   60.9892   27.0315   45.6244 H   0  0  0  0  0  0  0  0  0  0  0  0
   59.9611   28.5045   45.6244 H   0  0  0  0  0  0  0  0  0  0  0  0
   60.0762   24.8490   45.9162 H   0  0  0  0  0  0  0  0  0  0  0  0
   58.0698   23.3744   45.8124 H   0  0  0  0  0  0  0  0  0  0  0  0
   55.7832   24.3610   45.9484 H   0  0  0  0  0  0  0  0  0  0  0  0
   55.4963   26.8247   46.1582 H   0  0  0  0  0  0  0  0  0  0  0  0
   57.0110   28.9699   47.2577 H   0  0  0  0  0  0  0  0  0  0  0  0
   58.3644   29.2533   46.0989 H   0  0  0  0  0  0  0  0  0  0  0  0
   55.7149   29.9760   42.1410 H   0  0  0  0  0  0  0  0  0  0  0  0
   55.3879   30.8864   43.6751 H   0  0  0  0  0  0  0  0  0  0  0  0
   59.1690   29.8890   43.9010 H   0  0  0  0  0  0  0  0  0  0  0  0
   59.5119   32.0903   48.7402 H   0  0  0  0  0  0  0  0  0  0  0  0
   60.2545   30.5198   48.2583 H   0  0  0  0  0  0  0  0  0  0  0  0
   60.9227   33.5599   46.2815 H   0  0  0  0  0  0  0  0  0  0  0  0
   63.1771   34.6204   46.1331 H   0  0  0  0  0  0  0  0  0  0  0  0
   65.0150   33.8724   47.6503 H   0  0  0  0  0  0  0  0  0  0  0  0
   64.5967   32.0756   49.3305 H   0  0  0  0  0  0  0  0  0  0  0  0
   62.3386   31.0265   49.5010 H   0  0  0  0  0  0  0  0  0  0  0  0
   56.6750   34.4120   45.5180 H   0  0  0  0  0  0  0  0  0  0  0  0
   56.6680   33.8660   43.8280 H   0  0  0  0  0  0  0  0  0  0  0  0
  1  2  1  0
  2  3  2  0
  3  4  1  0
  4  5  2  0
  5  6  1  0
  6  7  2  0
  7  8  1  0
  8  9  1  0
  9 10  1  0
 10 11  2  0
 10 12  1  0
 12 13  1  0
 13 14  1  0
 14 15  2  0
 15 16  1  0
 16 17  2  0
 17 18  1  0
 18 19  1  0
 19 20  2  0
 20 21  1  0
 21 22  2  0
 22 23  1  0
 23 24  2  0
 17 25  1  0
 25 26  2  0
 25 27  1  0
 27 28  1  0
  7  2  1  0
 27 14  1  0
 24 19  1  0
  1 29  1  0
  1 30  1  0
  1 31  1  0
  3 32  1  0
  4 33  1  0
  5 34  1  0
  6 35  1  0
  8 36  1  0
  8 37  1  0
 12 38  1  0
 12 39  1  0
 15 40  1  0
 18 41  1  0
 18 42  1  0
 20 43  1  0
 21 44  1  0
 22 45  1  0
 23 46  1  0
 24 47  1  0
 28 48  1  0
 28 49  1  0
M  CHG  2   9  -1  15   1
M  END
>  <UniqueID>  (24) 
21

>  <SMILES>  (24) 
Cc1ccccc1C[N-]C(=O)CSc1[nH+]nc(Cc2ccccc2)c(=O)n1N

>  <Energy>  (24) 
49.317041685295095

>  <Genealogy>  (24) 
Cc1ccccc1C[N-]C(=O)CSc1[nH+]nc(Cc2ccccc2)c(=O)n1N (protonated)
Cc1ccccc1C[N-]C(=O)CSc1[nH+]nc(Cc2ccccc2)c(=O)n1N (3D coordinates assigned)
Cc1ccccc1C[N-]C(=O)CSc1[nH+]nc(Cc2ccccc2)c(=O)n1N (optimized conformer: 49.317041685295095 kcal/mol)

>  <smiles>  (24) 
Cc1ccccc1CNC(=O)CSc1nnc(Cc2ccccc2)c(=O)n1N

>  <score_type>  (24) 
oracle

>  <origin>  (24) 
adg

>  <m_score__min__energy>  (24) 
-9.6600000000000001

>  <m_primary>  (24) 
energy

$$$$
24:0
     RDKit          3D

 34 35  0  0  0  0  0  0  0  0999 V2000
   57.5650   27.9820   45.4730 O   0  0  0  0  0  0  0  0  0  0  0  0
   56.3100   27.8840   45.4970 C   0  0  0  0  0  0  0  0  0  0  0  0
   55.5160   29.0050   45.0980 N   0  0  0  0  0  0  0  0  0  0  0  0
   55.6500   29.6790   43.8110 C   0  0  0  0  0  0  0  0  0  0  0  0
   56.7620   30.7250   43.8610 C   0  0  0  0  0  0  0  0  0  0  0  0
   56.8160   31.3270   45.1520 O   0  0  0  0  0  0  0  0  0  0  0  0
   57.5840   32.4550   45.4700 C   0  0  0  0  0  0  0  0  0  0  0  0
   57.9870   33.3940   44.4990 C   0  0  0  0  0  0  0  0  0  0  0  0
   58.7530   34.5040   44.8700 C   0  0  0  0  0  0  0  0  0  0  0  0
   59.1220   34.6870   46.2050 C   0  0  0  0  0  0  0  0  0  0  0  0
   59.8640   35.7650   46.5630 F   0  0  0  0  0  0  0  0  0  0  0  0
   58.7260   33.7590   47.1730 C   0  0  0  0  0  0  0  0  0  0  0  0
   57.9610   32.6490   46.8050 C   0  0  0  0  0  0  0  0  0  0  0  0
   55.6830   26.6800   45.9560 N   0  0  0  0  0  0  0  0  0  0  0  0
   56.2540   25.3640   45.9110 C   0  0  0  0  0  0  0  0  0  0  0  0
   55.8880   24.4450   46.9020 C   0  0  0  0  0  0  0  0  0  0  0  0
   56.4170   23.1510   46.9010 C   0  0  0  0  0  0  0  0  0  0  0  0
   55.9690   22.0180   48.1640 Cl  0  0  0  0  0  0  0  0  0  0  0  0
   57.3020   22.7590   45.8930 C   0  0  0  0  0  0  0  0  0  0  0  0
   57.6430   23.6550   44.8760 C   0  0  0  0  0  0  0  0  0  0  0  0
   57.1100   24.9530   44.8670 C   0  0  0  0  0  0  0  0  0  0  0  0
   57.4030   25.8130   43.8090 O   0  0  0  0  0  0  0  0  0  0  0  0
   55.8892   28.9348   43.0371 H   0  0  0  0  0  0  0  0  0  0  0  0
   54.7011   30.1834   43.5761 H   0  0  0  0  0  0  0  0  0  0  0  0
   57.7259   30.2407   43.6456 H   0  0  0  0  0  0  0  0  0  0  0  0
   56.5559   31.5031   43.1113 H   0  0  0  0  0  0  0  0  0  0  0  0
   57.6984   33.2535   43.4469 H   0  0  0  0  0  0  0  0  0  0  0  0
   59.0655   35.2343   44.1091 H   0  0  0  0  0  0  0  0  0  0  0  0
   59.0166   33.9027   48.2241 H   0  0  0  0  0  0  0  0  0  0  0  0
   57.6523   31.9215   47.5701 H   0  0  0  0  0  0  0  0  0  0  0  0
   55.1784   24.7437   47.6877 H   0  0  0  0  0  0  0  0  0  0  0  0
   57.7300   21.7457   45.9000 H   0  0  0  0  0  0  0  0  0  0  0  0
   58.3327   23.3411   44.0786 H   0  0  0  0  0  0  0  0  0  0  0  0
   57.0160   26.7470   43.7590 H   0  0  0  0  0  0  0  0  0  0  0  0
  1  2  2  0
  2  3  1  0
  3  4  1  0
  4  5  1  0
  5  6  1  0
  6  7  1  0
  7  8  2  0
  8  9  1  0
  9 10  2  0
 10 11  1  0
 10 12  1  0
 12 13  2  0
  2 14  1  0
 14 15  1  0
 15 16  2  0
 16 17  1  0
 17 18  1  0
 17 19  2  0
 19 20  1  0
 20 21  2  0
 21 22  1  0
 13  7  1  0
 21 15  1  0
  4 23  1  0
  4 24  1  0
  5 25  1  0
  5 26  1  0
  8 27  1  0
  9 28  1  0
 12 29  1  0
 13 30  1  0
 16 31  1  0
 19 32  1  0
 20 33  1  0
 22 34  1  0
M  CHG  2   3  -1  14  -1
M  END
>  <UniqueID>  (25) 
22

>  <SMILES>  (25) 
O=C([N-]CCOc1ccc(F)cc1)[N-]c1cc(Cl)ccc1O

>  <Energy>  (25) 
34.56912061615011

>  <Genealogy>  (25) 
O=C([N-]CCOc1ccc(F)cc1)[N-]c1cc(Cl)ccc1O (protonated)
O=C([N-]CCOc1ccc(F)cc1)[N-]c1cc(Cl)ccc1O (3D coordinates assigned)
O=C([N-]CCOc1ccc(F)cc1)[N-]c1cc(Cl)ccc1O (optimized conformer: 34.56912061615011 kcal/mol)

>  <smiles>  (25) 
O=C(NCCOc1ccc(F)cc1)Nc1cc(Cl)ccc1O

>  <score_type>  (25) 
oracle

>  <origin>  (25) 
adg

>  <m_score__min__energy>  (25) 
-11.6

>  <m_primary>  (25) 
energy

$$$$
25:0
     RDKit          3D

 38 39  0  0  0  0  0  0  0  0999 V2000
   57.8550   34.5180   44.9210 C   0  0  0  0  0  0  0  0  0  0  0  0
   58.9050   34.7690   45.9990 C   0  0  0  0  0  0  0  0  0  0  0  0
   60.0110   33.7020   45.9980 C   0  0  0  0  0  0  0  0  0  0  0  0
   59.5310   32.4190   46.5200 N   0  0  0  0  0  0  0  0  0  0  0  0
   58.8890   31.4250   45.8710 C   0  0  0  0  0  0  0  0  0  0  0  0
   58.4770   31.4240   44.1220 S   0  0  0  0  0  0  0  0  0  0  0  0
   57.7770   29.7370   44.0990 C   0  0  0  0  0  0  0  0  0  0  0  0
   56.3710   29.7620   44.6270 C   0  0  0  0  0  0  0  0  0  0  0  0
   55.7450   30.8540   44.6420 O   0  0  0  0  0  0  0  0  0  0  0  0
   55.7610   28.6100   45.2230 N   0  0  0  0  0  0  0  0  0  0  0  0
   56.4440   27.4480   45.7110 C   0  0  0  0  0  0  0  0  0  0  0  0
   57.8470   27.3980   45.7590 C   0  0  0  0  0  0  0  0  0  0  0  0
   58.5050   26.2490   46.2420 C   0  0  0  0  0  0  0  0  0  0  0  0
   59.9010   26.1690   46.3460 O   0  0  0  0  0  0  0  0  0  0  0  0
   60.7730   27.2950   46.3340 C   0  0  0  0  0  0  0  0  0  0  0  0
   57.7440   25.1420   46.6330 C   0  0  0  0  0  0  0  0  0  0  0  0
   56.3510   25.1710   46.5430 C   0  0  0  0  0  0  0  0  0  0  0  0
   55.7010   26.3170   46.0790 C   0  0  0  0  0  0  0  0  0  0  0  0
   54.3130   26.3360   45.9970 O   0  0  0  0  0  0  0  0  0  0  0  0
   58.5340   30.4320   46.7110 N   0  0  0  0  0  0  0  0  0  0  0  0
   58.9430   30.7790   47.9230 N   0  0  0  0  0  0  0  0  0  0  0  0
   59.5330   31.9800   47.7940 C   0  0  0  0  0  0  0  0  0  0  0  0
   60.0120   32.6250   48.7640 O   0  0  0  0  0  0  0  0  0  0  0  0
   56.8899   34.2873   45.3958 H   0  0  0  0  0  0  0  0  0  0  0  0
   57.7502   35.4164   44.2950 H   0  0  0  0  0  0  0  0  0  0  0  0
   58.1678   33.6693   44.2950 H   0  0  0  0  0  0  0  0  0  0  0  0
   59.3634   35.7534   45.8235 H   0  0  0  0  0  0  0  0  0  0  0  0
   58.4001   34.7284   46.9754 H   0  0  0  0  0  0  0  0  0  0  0  0
   60.3645   33.5568   44.9665 H   0  0  0  0  0  0  0  0  0  0  0  0
   60.8249   34.0529   46.6495 H   0  0  0  0  0  0  0  0  0  0  0  0
   57.7726   29.3576   43.0665 H   0  0  0  0  0  0  0  0  0  0  0  0
   58.3912   29.0804   44.7327 H   0  0  0  0  0  0  0  0  0  0  0  0
   58.4363   28.2617   45.4172 H   0  0  0  0  0  0  0  0  0  0  0  0
   61.0028   27.5918   47.3680 H   0  0  0  0  0  0  0  0  0  0  0  0
   61.7049   27.0315   45.8124 H   0  0  0  0  0  0  0  0  0  0  0  0
   60.2847   28.1314   45.8124 H   0  0  0  0  0  0  0  0  0  0  0  0
   58.2473   24.2414   47.0145 H   0  0  0  0  0  0  0  0  0  0  0  0
   55.7638   24.2890   46.8383 H   0  0  0  0  0  0  0  0  0  0  0  0
  1  2  1  0
  2  3  1  0
  3  4  1  0
  4  5  1  0
  5  6  1  0
  6  7  1  0
  7  8  1  0
  8  9  2  0
  8 10  1  0
 10 11  1  0
 11 12  2  0
 12 13  1  0
 13 14  1  0
 14 15  1  0
 13 16  2  0
 16 17  1  0
 17 18  2  0
 18 19  1  0
  5 20  2  0
 20 21  1  0
 21 22  1  0
 22 23  2  0
 22  4  1  0
 18 11  1  0
  1 24  1  0
  1 25  1  0
  1 26  1  0
  2 27  1  0
  2 28  1  0
  3 29  1  0
  3 30  1  0
  7 31  1  0
  7 32  1  0
 12 33  1  0
 15 34  1  0
 15 35  1  0
 15 36  1  0
 16 37  1  0
 17 38  1  0
M  CHG  3  10  -1  19  -1  21  -1
M  END
>  <UniqueID>  (26) 
23

>  <SMILES>  (26) 
CCCn1c(SCC(=O)[N-]c2cc(OC)ccc2[O-])n[n-]c1=O

>  <Energy>  (26) 
68.71483315407396

>  <Genealogy>  (26) 
CCCn1c(SCC(=O)[N-]c2cc(OC)ccc2[O-])n[n-]c1=O (protonated)
CCCn1c(SCC(=O)[N-]c2cc(OC)ccc2[O-])n[n-]c1=O (3D coordinates assigned)
CCCn1c(SCC(=O)[N-]c2cc(OC)ccc2[O-])n[n-]c1=O (optimized conformer: 68.71483315407396 kcal/mol)

>  <smiles>  (26) 
CCCn1c(SCC(=O)Nc2cc(OC)ccc2O)n[nH]c1=O

>  <score_type>  (26) 
oracle

>  <origin>  (26) 
adg

>  <m_score__min__energy>  (26) 
-14.16

>  <m_primary>  (26) 
energy

$$$$
26:0
     RDKit          3D

 56 59  0  0  0  0  0  0  0  0999 V2000
   55.1490   26.6790   46.0010 N   0  0  0  0  0  0  0  0  0  0  0  0
   56.2940   25.9850   46.4940 C   0  0  0  0  0  0  0  0  0  0  0  0
   56.1590   24.7930   46.8810 O   0  0  0  0  0  0  0  0  0  0  0  0
   57.6200   26.6590   46.5420 C   0  0  0  0  0  0  0  0  0  0  0  0
   58.5490   26.2760   47.5320 C   0  0  0  0  0  0  0  0  0  0  0  0
   59.7980   26.8910   47.6170 C   0  0  0  0  0  0  0  0  0  0  0  0
   60.1500   27.8920   46.7140 C   0  0  0  0  0  0  0  0  0  0  0  0
   59.2500   28.2850   45.7250 C   0  0  0  0  0  0  0  0  0  0  0  0
   57.9760   27.6930   45.6360 C   0  0  0  0  0  0  0  0  0  0  0  0
   57.0660   28.0960   44.5980 N   0  0  0  0  0  0  0  0  0  0  0  0
   56.3580   29.3430   44.5310 C   0  0  0  0  0  0  0  0  0  0  0  0
   55.1150   29.3410   44.7300 O   0  0  0  0  0  0  0  0  0  0  0  0
   57.0540   30.6280   44.2860 C   0  0  0  0  0  0  0  0  0  0  0  0
   57.1860   31.1200   42.9770 C   0  0  0  0  0  0  0  0  0  0  0  0
   57.8540   32.3240   42.7400 C   0  0  0  0  0  0  0  0  0  0  0  0
   58.3900   33.0520   43.8040 C   0  0  0  0  0  0  0  0  0  0  0  0
   58.2540   32.5860   45.1220 C   0  0  0  0  0  0  0  0  0  0  0  0
   58.8120   33.3290   46.2210 N   0  0  0  0  0  0  0  0  0  0  0  0
   59.2670   34.6010   46.1910 C   0  0  0  0  0  0  0  0  0  0  0  0
   59.2520   35.4110   45.0610 O   0  0  0  0  0  0  0  0  0  0  0  0
   59.7110   35.0020   47.4350 C   0  0  0  0  0  0  0  0  0  0  0  0
   59.5260   33.9150   48.2700 C   0  0  0  0  0  0  0  0  0  0  0  0
   59.7870   33.8840   49.7450 C   0  0  0  0  0  0  0  0  0  0  0  0
   59.2910   32.5980   50.3260 C   0  0  0  0  0  0  0  0  0  0  0  0
   58.0660   32.4570   50.5900 O   0  0  0  0  0  0  0  0  0  0  0  0
   60.2160   31.5410   50.5960 N   0  0  0  0  0  0  0  0  0  0  0  0
   61.6410   31.7660   50.7840 C   0  0  0  0  0  0  0  0  0  0  0  0
   62.2600   32.1460   49.4710 C   0  0  0  0  0  0  0  0  0  0  0  0
   63.0890   33.2780   49.3780 C   0  0  0  0  0  0  0  0  0  0  0  0
   63.6970   33.6060   48.1620 C   0  0  0  0  0  0  0  0  0  0  0  0
   63.4910   32.8040   47.0360 C   0  0  0  0  0  0  0  0  0  0  0  0
   62.6810   31.6690   47.1260 C   0  0  0  0  0  0  0  0  0  0  0  0
   62.0710   31.3370   48.3390 C   0  0  0  0  0  0  0  0  0  0  0  0
   58.9630   32.9120   47.4960 C   0  0  0  0  0  0  0  0  0  0  0  0
   58.6070   31.6400   47.9430 O   0  0  0  0  0  0  0  0  0  0  0  0
   57.5750   31.3790   45.3550 C   0  0  0  0  0  0  0  0  0  0  0  0
   55.1730   27.1710   45.0800 H   0  0  0  0  0  0  0  0  0  0  0  0
   58.2850   25.4821   48.2462 H   0  0  0  0  0  0  0  0  0  0  0  0
   60.5076   26.5847   48.3997 H   0  0  0  0  0  0  0  0  0  0  0  0
   61.1375   28.3718   46.7816 H   0  0  0  0  0  0  0  0  0  0  0  0
   59.5384   29.0662   45.0063 H   0  0  0  0  0  0  0  0  0  0  0  0
   56.7614   30.5546   42.1344 H   0  0  0  0  0  0  0  0  0  0  0  0
   57.9580   32.6997   41.7114 H   0  0  0  0  0  0  0  0  0  0  0  0
   58.9214   33.9952   43.6091 H   0  0  0  0  0  0  0  0  0  0  0  0
   60.1264   35.9838   47.7063 H   0  0  0  0  0  0  0  0  0  0  0  0
   60.8685   33.9719   49.9254 H   0  0  0  0  0  0  0  0  0  0  0  0
   59.2594   34.7229   50.2225 H   0  0  0  0  0  0  0  0  0  0  0  0
   61.7922   32.5781   51.5103 H   0  0  0  0  0  0  0  0  0  0  0  0
   62.1127   30.8469   51.1617 H   0  0  0  0  0  0  0  0  0  0  0  0
   63.2597   33.9072   50.2640 H   0  0  0  0  0  0  0  0  0  0  0  0
   64.3385   34.4968   48.0916 H   0  0  0  0  0  0  0  0  0  0  0  0
   63.9664   33.0662   46.0793 H   0  0  0  0  0  0  0  0  0  0  0  0
   62.5231   31.0356   46.2406 H   0  0  0  0  0  0  0  0  0  0  0  0
   61.4403   30.4383   48.4071 H   0  0  0  0  0  0  0  0  0  0  0  0
   58.8540   31.3170   48.8700 H   0  0  0  0  0  0  0  0  0  0  0  0
   57.4491   31.0166   46.3859 H   0  0  0  0  0  0  0  0  0  0  0  0
  1  2  1  0
  2  3  2  0
  2  4  1  0
  4  5  2  0
  5  6  1  0
  6  7  2  0
  7  8  1  0
  8  9  2  0
  9 10  1  0
 10 11  1  0
 11 12  2  0
 11 13  1  0
 13 14  2  0
 14 15  1  0
 15 16  2  0
 16 17  1  0
 17 18  1  0
 18 19  1  0
 19 20  1  0
 19 21  2  0
 21 22  1  0
 22 23  1  0
 23 24  1  0
 24 25  2  0
 24 26  1  0
 26 27  1  0
 27 28  1  0
 28 29  2  0
 29 30  1  0
 30 31  2  0
 31 32  1  0
 32 33  2  0
 22 34  2  0
 34 35  1  0
 17 36  2  0
  9  4  1  0
 36 13  1  0
 34 18  1  0
 33 28  1  0
  1 37  1  0
  5 38  1  0
  6 39  1  0
  7 40  1  0
  8 41  1  0
 14 42  1  0
 15 43  1  0
 16 44  1  0
 21 45  1  0
 23 46  1  0
 23 47  1  0
 27 48  1  0
 27 49  1  0
 29 50  1  0
 30 51  1  0
 31 52  1  0
 32 53  1  0
 33 54  1  0
 35 55  1  0
 36 56  1  0
M  CHG  4   1  -1  10  -1  20  -1  26  -1
M  END
>  <UniqueID>  (27) 
24

>  <SMILES>  (27) 
[NH-]C(=O)c1ccccc1[N-]C(=O)c1cccc(-n2c([O-])cc(CC(=O)[N-]Cc3ccccc3)c2O)c1

>  <Energy>  (27) 
96.77488958067846

>  <Genealogy>  (27) 
[NH-]C(=O)c1ccccc1[N-]C(=O)c1cccc(-n2c([O-])cc(CC(=O)[N-]Cc3ccccc3)c2O)c1 (protonated)
[NH-]C(=O)c1ccccc1[N-]C(=O)c1cccc(-n2c([O-])cc(CC(=O)[N-]Cc3ccccc3)c2O)c1 (3D coordinates assigned)
[NH-]C(=O)c1ccccc1[N-]C(=O)c1cccc(-n2c([O-])cc(CC(=O)[N-]Cc3ccccc3)c2O)c1 (optimized conformer: 96.77488958067846 kcal/mol)

>  <smiles>  (27) 
NC(=O)c1ccccc1NC(=O)c1cccc(-n2c(O)cc(CC(=O)NCc3ccccc3)c2O)c1

>  <score_type>  (27) 
oracle

>  <origin>  (27) 
adg

>  <m_score__min__energy>  (27) 
-17.850000000000001

>  <m_primary>  (27) 
energy

$$$$
27:0
     RDKit          3D

 31 32  0  0  0  0  0  0  0  0999 V2000
   58.5220   31.6480   47.7380 C   0  0  0  0  0  0  0  0  0  0  0  0
   58.3790   32.2630   46.3830 C   0  0  0  0  0  0  0  0  0  0  0  0
   58.7500   33.5770   46.1030 C   0  0  0  0  0  0  0  0  0  0  0  0
   58.4670   33.8570   44.4660 S   0  0  0  0  0  0  0  0  0  0  0  0
   57.9010   32.3010   44.1840 C   0  0  0  0  0  0  0  0  0  0  0  0
   57.3910   31.6740   42.5860 S   0  0  0  0  0  0  0  0  0  0  0  0
   57.1750   29.9520   43.1640 C   0  0  0  0  0  0  0  0  0  0  0  0
   55.9140   29.7680   43.9690 C   0  0  0  0  0  0  0  0  0  0  0  0
   54.7970   30.0470   43.4560 O   0  0  0  0  0  0  0  0  0  0  0  0
   55.9350   29.1270   45.2490 N   0  0  0  0  0  0  0  0  0  0  0  0
   57.0660   28.4620   45.8240 C   0  0  0  0  0  0  0  0  0  0  0  0
   58.0120   29.1580   46.2790 O   0  0  0  0  0  0  0  0  0  0  0  0
   57.1810   26.9840   45.8130 C   0  0  0  0  0  0  0  0  0  0  0  0
   58.4430   26.3830   45.6620 C   0  0  0  0  0  0  0  0  0  0  0  0
   58.5730   24.9920   45.6890 C   0  0  0  0  0  0  0  0  0  0  0  0
   57.4450   24.1860   45.8430 C   0  0  0  0  0  0  0  0  0  0  0  0
   56.1840   24.7690   45.9860 C   0  0  0  0  0  0  0  0  0  0  0  0
   56.0460   26.1620   45.9770 C   0  0  0  0  0  0  0  0  0  0  0  0
   54.7770   26.7160   46.1160 O   0  0  0  0  0  0  0  0  0  0  0  0
   57.9240   31.5600   45.3100 N   0  0  0  0  0  0  0  0  0  0  0  0
   58.3442   32.4128   48.5084 H   0  0  0  0  0  0  0  0  0  0  0  0
   57.7887   30.8359   47.8513 H   0  0  0  0  0  0  0  0  0  0  0  0
   59.5383   31.2428   47.8513 H   0  0  0  0  0  0  0  0  0  0  0  0
   59.1557   34.3027   46.8233 H   0  0  0  0  0  0  0  0  0  0  0  0
   57.1344   29.2881   42.2879 H   0  0  0  0  0  0  0  0  0  0  0  0
   58.0267   29.7087   43.8162 H   0  0  0  0  0  0  0  0  0  0  0  0
   59.3343   27.0122   45.5216 H   0  0  0  0  0  0  0  0  0  0  0  0
   59.5670   24.5316   45.5886 H   0  0  0  0  0  0  0  0  0  0  0  0
   57.5487   23.0909   45.8518 H   0  0  0  0  0  0  0  0  0  0  0  0
   55.2959   24.1312   46.1062 H   0  0  0  0  0  0  0  0  0  0  0  0
   57.6250   30.5600   45.3500 H   0  0  0  0  0  0  0  0  0  0  0  0
  1  2  1  0
  2  3  2  0
  3  4  1  0
  4  5  1  0
  5  6  1  0
  6  7  1  0
  7  8  1  0
  8  9  2  0
  8 10  1  0
 10 11  1  0
 11 12  2  0
 11 13  1  0
 13 14  2  0
 14 15  1  0
 15 16  2  0
 16 17  1  0
 17 18  2  0
 18 19  1  0
  5 20  2  0
 20  2  1  0
 18 13  1  0
  1 21  1  0
  1 22  1  0
  1 23  1  0
  3 24  1  0
  7 25  1  0
  7 26  1  0
 14 27  1  0
 15 28  1  0
 16 29  1  0
 17 30  1  0
 20 31  1  0
M  CHG  3  10  -1  19  -1  20   1
M  END
>  <UniqueID>  (28) 
25

>  <SMILES>  (28) 
Cc1csc(SCC(=O)[N-]C(=O)c2ccccc2[O-])[nH+]1

>  <Energy>  (28) 
61.02606347631663

>  <Genealogy>  (28) 
Cc1csc(SCC(=O)[N-]C(=O)c2ccccc2[O-])[nH+]1 (protonated)
Cc1csc(SCC(=O)[N-]C(=O)c2ccccc2[O-])[nH+]1 (3D coordinates assigned)
Cc1csc(SCC(=O)[N-]C(=O)c2ccccc2[O-])[nH+]1 (optimized conformer: 61.02606347631663 kcal/mol)

>  <smiles>  (28) 
Cc1csc(SCC(=O)NC(=O)c2ccccc2O)n1

>  <score_type>  (28) 
oracle

>  <origin>  (28) 
adg

>  <m_score__min__energy>  (28) 
-11.59

>  <m_primary>  (28) 
energy

$$$$
28:0
     RDKit          3D

 38 40  0  0  1  0  0  0  0  0999 V2000
   55.6800   25.4890   46.0730 O   0  0  0  0  0  0  0  0  0  0  0  0
   56.6660   26.0720   45.6100 C   0  0  0  0  0  0  0  0  0  0  0  0
   57.3850   25.6160   44.3990 C   0  0  0  0  0  0  0  0  0  0  0  0
   57.7110   24.1700   44.4510 C   0  0  0  0  0  0  0  0  0  0  0  0
   56.8090   23.2970   43.8650 C   0  0  0  0  0  0  0  0  0  0  0  0
   57.0560   21.9320   43.8770 C   0  0  0  0  0  0  0  0  0  0  0  0
   56.2570   21.1090   43.3540 O   0  0  0  0  0  0  0  0  0  0  0  0
   58.1960   21.4910   44.4780 N   0  0  0  0  0  0  0  0  0  0  0  0
   59.0680   22.3540   45.0460 C   0  0  0  0  0  0  0  0  0  0  0  0
   60.1170   21.9290   45.5970 O   0  0  0  0  0  0  0  0  0  0  0  0
   58.8300   23.6920   45.0350 N   0  0  0  0  0  0  0  0  0  0  0  0
   57.1520   27.2420   46.2540 N   0  0  0  0  0  0  0  0  0  0  0  0
   57.3760   28.3170   45.5730 C   0  0  0  0  0  0  0  0  0  0  0  0
   56.7450   29.5060   45.6130 N   0  0  0  0  0  0  0  0  0  0  0  0
   57.3470   30.3160   44.7070 C   0  0  0  0  0  0  0  0  0  0  0  0
   57.0150   31.7300   44.3770 C   0  0  0  0  0  0  0  0  0  0  0  0
   57.8460   32.6230   45.2300 C   0  0  0  0  0  0  0  0  0  0  0  0
   58.3200   33.7920   44.6380 C   0  0  0  0  0  0  0  0  0  0  0  0
   59.1000   34.7000   45.3230 C   0  0  0  0  0  0  0  0  0  0  0  0
   59.4120   34.4300   46.6340 C   0  0  0  0  0  0  0  0  0  0  0  0
   58.9390   33.2650   47.2260 C   0  0  0  0  0  0  0  0  0  0  0  0
   58.1570   32.3570   46.5310 C   0  0  0  0  0  0  0  0  0  0  0  0
   58.3410   29.6230   44.1170 N   0  0  0  0  0  0  0  0  0  0  0  0
   58.3560   28.3990   44.6490 N   0  0  0  0  0  0  0  0  0  0  0  0
   56.7521   25.8049   43.5193 H   0  0  0  0  0  0  0  0  0  0  0  0
   58.3315   26.1732   44.3389 H   0  0  0  0  0  0  0  0  0  0  0  0
   55.8965   23.6864   43.3900 H   0  0  0  0  0  0  0  0  0  0  0  0
   58.4070   20.4710   44.5030 H   0  0  0  0  0  0  0  0  0  0  0  0
   59.4750   24.3670   45.4600 H   0  0  0  0  0  0  0  0  0  0  0  0
   57.2315   31.9238   43.3161 H   0  0  0  0  0  0  0  0  0  0  0  0
   55.9474   31.9191   44.5624 H   0  0  0  0  0  0  0  0  0  0  0  0
   58.0633   33.9977   43.5883 H   0  0  0  0  0  0  0  0  0  0  0  0
   59.4627   35.6157   44.8332 H   0  0  0  0  0  0  0  0  0  0  0  0
   60.0322   35.1316   47.2111 H   0  0  0  0  0  0  0  0  0  0  0  0
   59.1927   33.0581   48.2761 H   0  0  0  0  0  0  0  0  0  0  0  0
   57.7943   31.4401   47.0185 H   0  0  0  0  0  0  0  0  0  0  0  0
   59.0040   29.9360   43.3780 H   0  0  0  0  0  0  0  0  0  0  0  0
   59.0200   27.6490   44.3830 H   0  0  0  0  0  0  0  0  0  0  0  0
  1  2  2  0
  2  3  1  0
  3  4  1  0
  4  5  2  0
  5  6  1  0
  6  7  2  0
  6  8  1  0
  8  9  1  0
  9 10  2  0
  9 11  1  0
  2 12  1  0
 12 13  2  0
 13 14  1  0
 14 15  2  0
 15 16  1  0
 16 17  1  0
 17 18  2  0
 18 19  1  0
 19 20  2  0
 20 21  1  0
 21 22  2  0
 15 23  1  0
 23 24  1  0
 11  4  1  0
 24 13  1  0
 22 17  1  0
  3 25  1  0
  3 26  1  0
  5 27  1  0
  8 28  1  0
 11 29  1  0
 16 30  1  0
 16 31  1  0
 18 32  1  0
 19 33  1  0
 20 34  1  0
 21 35  1  0
 22 36  1  0
 23 37  1  0
 24 38  1  0
M  END
>  <smiles>  (29) 
O=C(Cc1cc(=O)[nH]c(=O)[nH]1)N=c1nc(Cc2ccccc2)[nH][nH]1

>  <score_type>  (29) 
oracle

>  <origin>  (29) 
adg

>  <m_score__min__energy>  (29) 
-9.3100000000000005

>  <m_primary>  (29) 
energy

$$$$
29:0
     RDKit          3D

 26 27  0  0  0  0  0  0  0  0999 V2000
   60.4020   30.1890   46.7810 O   0  0  0  0  0  0  0  0  0  0  0  0
   59.4430   29.5410   46.3300 C   0  0  0  0  0  0  0  0  0  0  0  0
   58.3400   30.2870   45.7930 N   0  0  0  0  0  0  0  0  0  0  0  0
   58.4180   31.7030   45.8130 C   0  0  0  0  0  0  0  0  0  0  0  0
   58.8230   32.4320   46.9080 C   0  0  0  0  0  0  0  0  0  0  0  0
   58.8480   33.8070   46.7780 C   0  0  0  0  0  0  0  0  0  0  0  0
   58.4930   34.4620   45.6160 C   0  0  0  0  0  0  0  0  0  0  0  0
   58.0880   33.7280   44.5170 C   0  0  0  0  0  0  0  0  0  0  0  0
   58.0620   32.3620   44.6480 C   0  0  0  0  0  0  0  0  0  0  0  0
   57.5410   31.4430   43.2310 Cl  0  0  0  0  0  0  0  0  0  0  0  0
   59.4110   28.1780   46.3310 O   0  0  0  0  0  0  0  0  0  0  0  0
   58.3240   27.3540   46.2570 C   0  0  0  0  0  0  0  0  0  0  0  0
   58.4460   25.9960   46.5620 C   0  0  0  0  0  0  0  0  0  0  0  0
   57.3250   25.2020   46.4760 C   0  0  0  0  0  0  0  0  0  0  0  0
   56.1300   25.7740   46.0940 C   0  0  0  0  0  0  0  0  0  0  0  0
   55.0600   25.0830   45.9970 O   0  0  0  0  0  0  0  0  0  0  0  0
   56.0330   27.1040   45.8010 N   0  0  0  0  0  0  0  0  0  0  0  0
   57.1180   27.8750   45.8840 N   0  0  0  0  0  0  0  0  0  0  0  0
   57.4900   29.8040   45.3910 H   0  0  0  0  0  0  0  0  0  0  0  0
   59.1147   31.9401   47.8476 H   0  0  0  0  0  0  0  0  0  0  0  0
   59.1661   34.4089   47.6420 H   0  0  0  0  0  0  0  0  0  0  0  0
   58.5321   35.5601   45.5650 H   0  0  0  0  0  0  0  0  0  0  0  0
   57.7984   34.2185   43.5760 H   0  0  0  0  0  0  0  0  0  0  0  0
   59.4149   25.5715   46.8637 H   0  0  0  0  0  0  0  0  0  0  0  0
   57.3816   24.1283   46.7083 H   0  0  0  0  0  0  0  0  0  0  0  0
   55.1470   27.5520   45.5120 H   0  0  0  0  0  0  0  0  0  0  0  0
  1  2  2  0
  2  3  1  0
  3  4  1  0
  4  5  2  0
  5  6  1  0
  6  7  2  0
  7  8  1  0
  8  9  2  0
  9 10  1  0
  2 11  1  0
 11 12  1  0
 12 13  1  0
 13 14  2  0
 14 15  1  0
 15 16  2  0
 15 17  1  0
 17 18  1  0
  9  4  1  0
 18 12  2  0
  3 19  1  0
  5 20  1  0
  6 21  1  0
  7 22  1  0
  8 23  1  0
 13 24  1  0
 14 25  1  0
 17 26  1  0
M  END
>  <smiles>  (30) 
O=C(Nc1ccccc1Cl)Oc1ccc(=O)[nH]n1

>  <score_type>  (30) 
oracle

>  <origin>  (30) 
adg

>  <m_score__min__energy>  (30) 
-6.4900000000000002

>  <m_primary>  (30) 
energy

$$$$
30:0
     RDKit          3D

 60 64  0  0  0  0  0  0  0  0999 V2000
   58.1440   33.0050   43.3880 C   0  0  0  0  0  0  0  0  0  0  0  0
   58.1700   34.0510   44.3550 O   0  0  0  0  0  0  0  0  0  0  0  0
   58.5910   33.8910   45.6830 C   0  0  0  0  0  0  0  0  0  0  0  0
   59.7440   34.5180   46.1910 C   0  0  0  0  0  0  0  0  0  0  0  0
   60.1410   34.3010   47.5130 C   0  0  0  0  0  0  0  0  0  0  0  0
   59.3880   33.4660   48.3520 C   0  0  0  0  0  0  0  0  0  0  0  0
   59.8720   33.1350   49.7380 C   0  0  0  0  0  0  0  0  0  0  0  0
   60.3120   31.7460   49.7890 N   0  0  0  0  0  0  0  0  0  0  0  0
   61.3010   31.2470   48.8900 C   0  0  0  0  0  0  0  0  0  0  0  0
   62.2850   31.9700   48.5840 O   0  0  0  0  0  0  0  0  0  0  0  0
   61.0710   29.9340   48.2060 C   0  0  0  0  0  0  0  0  0  0  0  0
   60.9590   30.0970   46.3900 S   0  0  0  0  0  0  0  0  0  0  0  0
   60.1010   28.5360   46.1490 C   0  0  0  0  0  0  0  0  0  0  0  0
   60.7390   27.3590   46.0150 N   0  0  0  0  0  0  0  0  0  0  0  0
   59.8070   26.4280   45.8760 N   0  0  0  0  0  0  0  0  0  0  0  0
   58.6150   27.0550   45.9180 C   0  0  0  0  0  0  0  0  0  0  0  0
   57.3340   26.3490   45.7880 C   0  0  0  0  0  0  0  0  0  0  0  0
   56.1260   26.7260   46.3650 C   0  0  0  0  0  0  0  0  0  0  0  0
   55.1580   25.8350   46.0500 N   0  0  0  0  0  0  0  0  0  0  0  0
   55.7510   24.8920   45.2970 C   0  0  0  0  0  0  0  0  0  0  0  0
   55.1670   23.7410   44.7690 C   0  0  0  0  0  0  0  0  0  0  0  0
   55.9920   22.8520   44.0560 C   0  0  0  0  0  0  0  0  0  0  0  0
   57.3680   23.1250   43.8960 C   0  0  0  0  0  0  0  0  0  0  0  0
   57.9300   24.2950   44.4390 C   0  0  0  0  0  0  0  0  0  0  0  0
   57.0820   25.1680   45.1210 C   0  0  0  0  0  0  0  0  0  0  0  0
   58.7600   28.3840   46.1010 N   0  0  0  0  0  0  0  0  0  0  0  0
   57.7220   29.4040   46.3040 C   0  0  0  0  0  0  0  0  0  0  0  0
   57.5670   30.3110   45.0700 C   0  0  1  0  0  0  0  0  0  0  0  0
   58.1450   29.6890   43.8050 C   0  0  0  0  0  0  0  0  0  0  0  0
   56.9520   29.0530   43.1660 C   0  0  0  0  0  0  0  0  0  0  0  0
   55.8010   29.8950   43.6810 C   0  0  0  0  0  0  0  0  0  0  0  0
   56.1930   30.5610   44.8610 O   0  0  0  0  0  0  0  0  0  0  0  0
   58.2320   32.8510   47.8480 C   0  0  0  0  0  0  0  0  0  0  0  0
   57.8360   33.0670   46.5250 C   0  0  0  0  0  0  0  0  0  0  0  0
   58.1198   32.0321   43.9008 H   0  0  0  0  0  0  0  0  0  0  0  0
   57.2482   33.1100   42.7583 H   0  0  0  0  0  0  0  0  0  0  0  0
   59.0439   33.0653   42.7583 H   0  0  0  0  0  0  0  0  0  0  0  0
   60.3357   35.1823   45.5440 H   0  0  0  0  0  0  0  0  0  0  0  0
   61.0492   34.7877   47.8981 H   0  0  0  0  0  0  0  0  0  0  0  0
   60.7132   33.7943   49.9982 H   0  0  0  0  0  0  0  0  0  0  0  0
   59.0503   33.2822   50.4544 H   0  0  0  0  0  0  0  0  0  0  0  0
   61.9057   29.2598   48.4482 H   0  0  0  0  0  0  0  0  0  0  0  0
   60.1102   29.5359   48.5643 H   0  0  0  0  0  0  0  0  0  0  0  0
   55.9788   27.6204   46.9882 H   0  0  0  0  0  0  0  0  0  0  0  0
   54.1580   25.8660   46.3510 H   0  0  0  0  0  0  0  0  0  0  0  0
   54.0952   23.5347   44.9057 H   0  0  0  0  0  0  0  0  0  0  0  0
   55.5621   21.9380   43.6202 H   0  0  0  0  0  0  0  0  0  0  0  0
   58.0047   22.4185   43.3433 H   0  0  0  0  0  0  0  0  0  0  0  0
   59.0024   24.5141   44.3294 H   0  0  0  0  0  0  0  0  0  0  0  0
   56.7629   28.9026   46.5007 H   0  0  0  0  0  0  0  0  0  0  0  0
   58.0201   30.0322   47.1564 H   0  0  0  0  0  0  0  0  0  0  0  0
   58.1241   31.2382   45.2696 H   0  0  0  0  0  0  0  0  0  0  0  0
   58.5811   30.4579   43.1503 H   0  0  0  0  0  0  0  0  0  0  0  0
   58.9596   28.9775   44.0056 H   0  0  0  0  0  0  0  0  0  0  0  0
   57.0178   29.1017   42.0691 H   0  0  0  0  0  0  0  0  0  0  0  0
   56.8493   27.9844   43.4061 H   0  0  0  0  0  0  0  0  0  0  0  0
   55.5198   30.6362   42.9184 H   0  0  0  0  0  0  0  0  0  0  0  0
   54.9406   29.2446   43.8972 H   0  0  0  0  0  0  0  0  0  0  0  0
   57.6339   32.1951   48.4977 H   0  0  0  0  0  0  0  0  0  0  0  0
   56.9238   32.5855   46.1428 H   0  0  0  0  0  0  0  0  0  0  0  0
  1  2  1  0
  2  3  1  0
  3  4  2  0
  4  5  1  0
  5  6  2  0
  6  7  1  0
  7  8  1  0
  8  9  1  0
  9 10  2  0
  9 11  1  0
 11 12  1  0
 12 13  1  0
 13 14  2  0
 14 15  1  0
 15 16  2  0
 16 17  1  0
 17 18  2  0
 18 19  1  0
 19 20  1  0
 20 21  2  0
 21 22  1  0
 22 23  2  0
 23 24  1  0
 24 25  2  0
 16 26  1  0
 26 27  1  0
 27 28  1  0
 28 29  1  0
 29 30  1  0
 30 31  1  0
 31 32  1  0
  6 33  1  0
 33 34  2  0
 34  3  1  0
 26 13  1  0
 32 28  1  0
 25 17  1  0
 25 20  1  0
  1 35  1  0
  1 36  1  0
  1 37  1  0
  4 38  1  0
  5 39  1  0
  7 40  1  0
  7 41  1  0
 11 42  1  0
 11 43  1  0
 18 44  1  0
 19 45  1  0
 21 46  1  0
 22 47  1  0
 23 48  1  0
 24 49  1  0
 27 50  1  0
 27 51  1  0
 28 52  1  1
 29 53  1  0
 29 54  1  0
 30 55  1  0
 30 56  1  0
 31 57  1  0
 31 58  1  0
 33 59  1  0
 34 60  1  0
M  CHG  1   8  -1
M  END
>  <UniqueID>  (31) 
26

>  <SMILES>  (31) 
COc1ccc(C[N-]C(=O)CSc2nnc(-c3c[nH]c4ccccc34)n2C[C@H]2CCCO2)cc1

>  <Energy>  (31) 
134.40730325493124

>  <Genealogy>  (31) 
COc1ccc(C[N-]C(=O)CSc2nnc(-c3c[nH]c4ccccc34)n2CC2CCCO2)cc1 (protonated)
COc1ccc(C[N-]C(=O)CSc2nnc(-c3c[nH]c4ccccc34)n2C[C@H]2CCCO2)cc1 (chirality)
COc1ccc(C[N-]C(=O)CSc2nnc(-c3c[nH]c4ccccc34)n2C[C@H]2CCCO2)cc1 (3D coordinates assigned)
COc1ccc(C[N-]C(=O)CSc2nnc(-c3c[nH]c4ccccc34)n2C[C@H]2CCCO2)cc1 (nonaromatic ring conformer: 134.40730325493124 kcal/mol)

>  <smiles>  (31) 
COc1ccc(CNC(=O)CSc2nnc(-c3c[nH]c4ccccc34)n2CC2CCCO2)cc1

>  <score_type>  (31) 
oracle

>  <origin>  (31) 
adg

>  <m_score__min__energy>  (31) 
-11.02

>  <m_primary>  (31) 
energy

$$$$
31:0
     RDKit          3D

 56 59  0  0  0  0  0  0  0  0999 V2000
   57.6550   28.5670   43.2160 O   0  0  0  0  0  0  0  0  0  0  0  0
   56.6720   29.4390   43.9480 S   0  0  0  0  0  0  0  0  0  0  0  0
   55.5820   29.8440   42.9920 O   0  0  0  0  0  0  0  0  0  0  0  0
   55.9590   28.5350   45.2460 N   0  0  0  0  0  0  0  0  0  0  0  0
   56.5720   27.4270   45.9130 C   0  0  0  0  0  0  0  0  0  0  0  0
   57.9520   27.3940   46.1800 C   0  0  0  0  0  0  0  0  0  0  0  0
   58.5050   26.3310   46.9000 C   0  0  0  0  0  0  0  0  0  0  0  0
   57.6940   25.2780   47.3270 C   0  0  0  0  0  0  0  0  0  0  0  0
   56.3280   25.2630   47.0070 C   0  0  0  0  0  0  0  0  0  0  0  0
   55.5160   24.1380   47.3830 N   0  0  0  0  0  0  0  0  0  0  0  0
   55.8580   23.3240   48.5520 C   0  0  0  0  0  0  0  0  0  0  0  0
   56.3010   21.9160   48.1080 C   0  0  0  0  0  0  0  0  0  0  0  0
   55.9990   21.6750   46.6800 N   0  0  0  0  0  0  0  0  0  0  0  0
   56.2710   20.2780   46.2830 C   0  0  0  0  0  0  0  0  0  0  0  0
   56.9810   20.2530   44.9240 C   0  0  0  0  0  0  0  0  0  0  0  0
   57.1290   21.6440   44.3580 C   0  0  0  0  0  0  0  0  0  0  0  0
   58.0430   22.5470   44.9290 C   0  0  0  0  0  0  0  0  0  0  0  0
   58.1530   23.8480   44.4260 C   0  0  0  0  0  0  0  0  0  0  0  0
   57.3440   24.2610   43.3600 C   0  0  0  0  0  0  0  0  0  0  0  0
   56.4270   23.3700   42.7940 C   0  0  0  0  0  0  0  0  0  0  0  0
   56.3150   22.0670   43.2930 C   0  0  0  0  0  0  0  0  0  0  0  0
   54.6200   22.0880   46.3560 C   0  0  0  0  0  0  0  0  0  0  0  0
   54.5170   23.6170   46.4420 C   0  0  0  0  0  0  0  0  0  0  0  0
   55.7710   26.3380   46.2920 C   0  0  0  0  0  0  0  0  0  0  0  0
   54.4140   26.3390   45.9800 O   0  0  0  0  0  0  0  0  0  0  0  0
   57.4710   30.9030   44.5120 C   0  0  0  0  0  0  0  0  0  0  0  0
   58.0550   30.9310   45.7890 C   0  0  0  0  0  0  0  0  0  0  0  0
   58.7000   32.0830   46.2440 C   0  0  0  0  0  0  0  0  0  0  0  0
   58.7630   33.2160   45.4270 C   0  0  0  0  0  0  0  0  0  0  0  0
   59.6310   34.7960   46.0540 Br  0  0  0  0  0  0  0  0  0  0  0  0
   58.1830   33.1920   44.1510 C   0  0  0  0  0  0  0  0  0  0  0  0
   57.5410   32.0410   43.6930 C   0  0  0  0  0  0  0  0  0  0  0  0
   58.5991   28.2078   45.8209 H   0  0  0  0  0  0  0  0  0  0  0  0
   59.5806   26.3243   47.1304 H   0  0  0  0  0  0  0  0  0  0  0  0
   58.1276   24.4568   47.9166 H   0  0  0  0  0  0  0  0  0  0  0  0
   56.6787   23.8063   49.1033 H   0  0  0  0  0  0  0  0  0  0  0  0
   54.9729   23.2348   49.1991 H   0  0  0  0  0  0  0  0  0  0  0  0
   57.3852   21.8168   48.2653 H   0  0  0  0  0  0  0  0  0  0  0  0
   55.7479   21.1768   48.7061 H   0  0  0  0  0  0  0  0  0  0  0  0
   56.9126   19.8018   47.0390 H   0  0  0  0  0  0  0  0  0  0  0  0
   55.3200   19.7306   46.2060 H   0  0  0  0  0  0  0  0  0  0  0  0
   57.9795   19.8089   45.0493 H   0  0  0  0  0  0  0  0  0  0  0  0
   56.3750   19.6565   44.2262 H   0  0  0  0  0  0  0  0  0  0  0  0
   58.6730   22.2299   45.7731 H   0  0  0  0  0  0  0  0  0  0  0  0
   58.8766   24.5481   44.8689 H   0  0  0  0  0  0  0  0  0  0  0  0
   57.4299   25.2853   42.9684 H   0  0  0  0  0  0  0  0  0  0  0  0
   55.7928   23.6934   41.9555 H   0  0  0  0  0  0  0  0  0  0  0  0
   55.5871   21.3714   42.8500 H   0  0  0  0  0  0  0  0  0  0  0  0
   54.3673   21.7591   45.3372 H   0  0  0  0  0  0  0  0  0  0  0  0
   53.9199   21.6300   47.0702 H   0  0  0  0  0  0  0  0  0  0  0  0
   54.6943   24.0501   45.4465 H   0  0  0  0  0  0  0  0  0  0  0  0
   53.5121   23.8907   46.7958 H   0  0  0  0  0  0  0  0  0  0  0  0
   58.0041   30.0413   46.4338 H   0  0  0  0  0  0  0  0  0  0  0  0
   59.1580   32.0991   47.2440 H   0  0  0  0  0  0  0  0  0  0  0  0
   58.2342   34.0835   43.5087 H   0  0  0  0  0  0  0  0  0  0  0  0
   57.0896   32.0253   42.6900 H   0  0  0  0  0  0  0  0  0  0  0  0
  1  2  2  0
  2  3  2  0
  2  4  1  0
  4  5  1  0
  5  6  2  0
  6  7  1  0
  7  8  2  0
  8  9  1  0
  9 10  1  0
 10 11  1  0
 11 12  1  0
 12 13  1  0
 13 14  1  0
 14 15  1  0
 15 16  1  0
 16 17  2  0
 17 18  1  0
 18 19  2  0
 19 20  1  0
 20 21  2  0
 13 22  1  0
 22 23  1  0
  9 24  2  0
 24 25  1  0
  2 26  1  0
 26 27  2  0
 27 28  1  0
 28 29  2  0
 29 30  1  0
 29 31  1  0
 31 32  2  0
 24  5  1  0
 32 26  1  0
 23 10  1  0
 21 16  1  0
  6 33  1  0
  7 34  1  0
  8 35  1  0
 11 36  1  0
 11 37  1  0
 12 38  1  0
 12 39  1  0
 14 40  1  0
 14 41  1  0
 15 42  1  0
 15 43  1  0
 17 44  1  0
 18 45  1  0
 19 46  1  0
 20 47  1  0
 21 48  1  0
 22 49  1  0
 22 50  1  0
 23 51  1  0
 23 52  1  0
 27 53  1  0
 28 54  1  0
 31 55  1  0
 32 56  1  0
M  CHG  2   4  -1  25  -1
M  END
>  <UniqueID>  (32) 
27

>  <SMILES>  (32) 
O=S(=O)([N-]c1cccc(N2CCN(CCc3ccccc3)CC2)c1[O-])c1ccc(Br)cc1

>  <Energy>  (32) 
74.7575039423972

>  <Genealogy>  (32) 
O=S(=O)([N-]c1cccc(N2CCN(CCc3ccccc3)CC2)c1[O-])c1ccc(Br)cc1 (protonated)
O=S(=O)([N-]c1cccc(N2CCN(CCc3ccccc3)CC2)c1[O-])c1ccc(Br)cc1 (3D coordinates assigned)
O=S(=O)([N-]c1cccc(N2CCN(CCc3ccccc3)CC2)c1[O-])c1ccc(Br)cc1 (nonaromatic ring conformer: 74.7575039423972 kcal/mol)

>  <smiles>  (32) 
O=S(=O)(Nc1cccc(N2CCN(CCc3ccccc3)CC2)c1O)c1ccc(Br)cc1

>  <score_type>  (32) 
oracle

>  <origin>  (32) 
adg

>  <m_score__min__energy>  (32) 
-14.75

>  <m_primary>  (32) 
energy

$$$$
32:0
     RDKit          3D

 45 47  0  0  0  0  0  0  0  0999 V2000
   59.1830   23.9510   45.6070 C   0  0  0  0  0  0  0  0  0  0  0  0
   57.7560   23.7850   45.1420 C   0  0  0  0  0  0  0  0  0  0  0  0
   57.4820   22.7970   44.1860 C   0  0  0  0  0  0  0  0  0  0  0  0
   56.1740   22.6250   43.7500 C   0  0  0  0  0  0  0  0  0  0  0  0
   55.9010   21.7420   42.8950 O   0  0  0  0  0  0  0  0  0  0  0  0
   55.1900   23.4070   44.2480 N   0  0  0  0  0  0  0  0  0  0  0  0
   55.4510   24.3740   45.1660 C   0  0  0  0  0  0  0  0  0  0  0  0
   54.4920   25.0660   45.6030 O   0  0  0  0  0  0  0  0  0  0  0  0
   56.7350   24.5880   45.6090 N   0  0  0  0  0  0  0  0  0  0  0  0
   56.9830   25.6470   46.6130 C   0  0  0  0  0  0  0  0  0  0  0  0
   57.0040   27.0140   45.9730 C   0  0  0  0  0  0  0  0  0  0  0  0
   55.9230   27.5530   45.6170 O   0  0  0  0  0  0  0  0  0  0  0  0
   58.2100   27.7850   45.9030 N   0  0  0  0  0  0  0  0  0  0  0  0
   58.2860   29.2130   45.8480 C   0  0  0  0  0  0  0  0  0  0  0  0
   58.3110   29.8500   44.6020 C   0  0  0  0  0  0  0  0  0  0  0  0
   58.4030   31.2430   44.5230 C   0  0  0  0  0  0  0  0  0  0  0  0
   58.4910   32.0120   45.6920 C   0  0  0  0  0  0  0  0  0  0  0  0
   58.5640   33.7720   45.5950 S   0  0  0  0  0  0  0  0  0  0  0  0
   57.3150   34.3530   46.1960 O   0  0  0  0  0  0  0  0  0  0  0  0
   58.6180   34.1850   44.1510 O   0  0  0  0  0  0  0  0  0  0  0  0
   59.9610   34.4150   46.4340 N   0  0  0  0  0  0  0  0  0  0  0  0
   59.6740   34.6260   47.8560 C   0  0  0  0  0  0  0  0  0  0  0  0
   60.2100   33.4340   48.6360 C   0  0  0  0  0  0  0  0  0  0  0  0
   61.1360   32.7020   47.6850 C   0  0  0  0  0  0  0  0  0  0  0  0
   61.0910   33.4810   46.3780 C   0  0  0  0  0  0  0  0  0  0  0  0
   58.5160   31.3710   46.9380 C   0  0  0  0  0  0  0  0  0  0  0  0
   58.4210   29.9800   47.0170 C   0  0  0  0  0  0  0  0  0  0  0  0
   59.2123   23.9544   46.7066 H   0  0  0  0  0  0  0  0  0  0  0  0
   59.7919   23.1176   45.2266 H   0  0  0  0  0  0  0  0  0  0  0  0
   59.5843   24.9019   45.2266 H   0  0  0  0  0  0  0  0  0  0  0  0
   58.2907   22.1671   43.7869 H   0  0  0  0  0  0  0  0  0  0  0  0
   56.1851   25.6176   47.3697 H   0  0  0  0  0  0  0  0  0  0  0  0
   57.9642   25.4646   47.0756 H   0  0  0  0  0  0  0  0  0  0  0  0
   58.2580   29.2519   43.6804 H   0  0  0  0  0  0  0  0  0  0  0  0
   58.4063   31.7372   43.5403 H   0  0  0  0  0  0  0  0  0  0  0  0
   60.1654   35.5475   48.2015 H   0  0  0  0  0  0  0  0  0  0  0  0
   58.5895   34.7235   48.0124 H   0  0  0  0  0  0  0  0  0  0  0  0
   60.7634   33.7744   49.5237 H   0  0  0  0  0  0  0  0  0  0  0  0
   59.3972   32.7835   48.9912 H   0  0  0  0  0  0  0  0  0  0  0  0
   62.1604   32.6850   48.0854 H   0  0  0  0  0  0  0  0  0  0  0  0
   60.8255   31.6563   47.5432 H   0  0  0  0  0  0  0  0  0  0  0  0
   62.0290   34.0403   46.2464 H   0  0  0  0  0  0  0  0  0  0  0  0
   60.9688   32.7904   45.5306 H   0  0  0  0  0  0  0  0  0  0  0  0
   58.6109   31.9663   47.8581 H   0  0  0  0  0  0  0  0  0  0  0  0
   58.4520   29.4833   47.9980 H   0  0  0  0  0  0  0  0  0  0  0  0
  1  2  1  0
  2  3  2  0
  3  4  1  0
  4  5  2  0
  4  6  1  0
  6  7  1  0
  7  8  2  0
  7  9  1  0
  9 10  1  0
 10 11  1  0
 11 12  2  0
 11 13  1  0
 13 14  1  0
 14 15  2  0
 15 16  1  0
 16 17  2  0
 17 18  1  0
 18 19  2  0
 18 20  2  0
 18 21  1  0
 21 22  1  0
 22 23  1  0
 23 24  1  0
 24 25  1  0
 17 26  1  0
 26 27  2  0
  9  2  1  0
 27 14  1  0
 25 21  1  0
  1 28  1  0
  1 29  1  0
  1 30  1  0
  3 31  1  0
 10 32  1  0
 10 33  1  0
 15 34  1  0
 16 35  1  0
 22 36  1  0
 22 37  1  0
 23 38  1  0
 23 39  1  0
 24 40  1  0
 24 41  1  0
 25 42  1  0
 25 43  1  0
 26 44  1  0
 27 45  1  0
M  CHG  2   6  -1  13  -1
M  END
>  <UniqueID>  (33) 
28

>  <SMILES>  (33) 
Cc1cc(=O)[n-]c(=O)n1CC(=O)[N-]c1ccc(S(=O)(=O)N2CCCC2)cc1

>  <Energy>  (33) 
56.78885580466054

>  <Genealogy>  (33) 
Cc1cc(=O)[n-]c(=O)n1CC(=O)[N-]c1ccc(S(=O)(=O)N2CCCC2)cc1 (protonated)
Cc1cc(=O)[n-]c(=O)n1CC(=O)[N-]c1ccc(S(=O)(=O)N2CCCC2)cc1 (3D coordinates assigned)
Cc1cc(=O)[n-]c(=O)n1CC(=O)[N-]c1ccc(S(=O)(=O)N2CCCC2)cc1 (nonaromatic ring conformer: 56.78885580466054 kcal/mol)

>  <smiles>  (33) 
Cc1cc(=O)[nH]c(=O)n1CC(=O)Nc1ccc(S(=O)(=O)N2CCCC2)cc1

>  <score_type>  (33) 
oracle

>  <origin>  (33) 
adg

>  <m_score__min__energy>  (33) 
-11.880000000000001

>  <m_primary>  (33) 
energy

$$$$
33:0
     RDKit          3D

 35 36  0  0  0  0  0  0  0  0999 V2000
   60.1250   30.1370   45.2820 H   0  0  0  0  0  0  0  0  0  0  0  0
   60.0020   29.1490   45.0950 O   0  0  0  0  0  0  0  0  0  0  0  0
   58.7970   28.4810   45.3350 C   0  0  0  0  0  0  0  0  0  0  0  0
   57.5680   29.0940   45.0310 C   0  0  0  0  0  0  0  0  0  0  0  0
   57.5560   30.4070   44.4460 N   0  0  0  0  0  0  0  0  0  0  0  0
   57.2120   31.5180   45.0340 C   0  0  0  0  0  0  0  0  0  0  0  0
   56.1545   31.6497   45.3068 H   0  0  0  0  0  0  0  0  0  0  0  0
   58.1540   32.6160   45.3590 C   0  0  0  0  0  0  0  0  0  0  0  0
   58.0250   33.8830   44.7580 C   0  0  0  0  0  0  0  0  0  0  0  0
   57.2240   34.0623   44.0257 H   0  0  0  0  0  0  0  0  0  0  0  0
   58.9090   34.9130   45.0870 C   0  0  0  0  0  0  0  0  0  0  0  0
   58.8129   35.8952   44.6011 H   0  0  0  0  0  0  0  0  0  0  0  0
   59.9150   34.6980   46.0320 C   0  0  0  0  0  0  0  0  0  0  0  0
   60.6141   35.5086   46.2853 H   0  0  0  0  0  0  0  0  0  0  0  0
   60.0330   33.4540   46.6550 C   0  0  0  0  0  0  0  0  0  0  0  0
   60.8200   33.2895   47.4057 H   0  0  0  0  0  0  0  0  0  0  0  0
   59.1540   32.4160   46.3280 C   0  0  0  0  0  0  0  0  0  0  0  0
   59.2890   31.1850   46.9620 O   0  0  0  0  0  0  0  0  0  0  0  0
   56.3670   28.3940   45.2500 C   0  0  0  0  0  0  0  0  0  0  0  0
   55.1520   28.9600   44.8750 O   0  0  0  0  0  0  0  0  0  0  0  0
   56.3840   27.1170   45.8200 C   0  0  0  0  0  0  0  0  0  0  0  0
   55.1330   26.4570   46.0650 N   0  0  0  0  0  0  0  0  0  0  0  0
   54.7870   25.1410   45.6180 C   0  0  0  0  0  0  0  0  0  0  0  0
   53.6950   24.6130   45.9630 O   0  0  0  0  0  0  0  0  0  0  0  0
   55.7730   24.3490   44.8300 C   0  0  0  0  0  0  0  0  0  0  0  0
   56.4432   23.8107   45.5163 H   0  0  0  0  0  0  0  0  0  0  0  0
   55.2394   23.6256   44.1960 H   0  0  0  0  0  0  0  0  0  0  0  0
   56.3643   25.0261   44.1960 H   0  0  0  0  0  0  0  0  0  0  0  0
   57.6110   26.5350   46.1920 C   0  0  0  0  0  0  0  0  0  0  0  0
   57.6290   25.3220   46.8720 O   0  0  0  0  0  0  0  0  0  0  0  0
   58.8220   27.1950   45.9070 C   0  0  0  0  0  0  0  0  0  0  0  0
   60.1350   26.5680   46.3010 C   0  0  0  0  0  0  0  0  0  0  0  0
   60.2098   26.5323   47.3979 H   0  0  0  0  0  0  0  0  0  0  0  0
   60.1896   25.5466   45.8963 H   0  0  0  0  0  0  0  0  0  0  0  0
   60.9637   27.1676   45.8963 H   0  0  0  0  0  0  0  0  0  0  0  0
  1  2  1  0
  2  3  1  0
  3  4  2  0
  4  5  1  0
  5  6  2  0
  6  7  1  0
  6  8  1  0
  8  9  2  0
  9 10  1  0
  9 11  1  0
 11 12  1  0
 11 13  2  0
 13 14  1  0
 13 15  1  0
 15 16  1  0
 15 17  2  0
 17 18  1  0
  4 19  1  0
 19 20  1  0
 19 21  2  0
 21 22  1  0
 22 23  1  0
 23 24  2  0
 23 25  1  0
 25 26  1  0
 25 27  1  0
 25 28  1  0
 21 29  1  0
 29 30  1  0
 29 31  2  0
 31 32  1  0
 32 33  1  0
 32 34  1  0
 32 35  1  0
 31  3  1  0
 17  8  1  0
M  CHG  4  18  -1  20  -1  22  -1  30  -1
M  END
>  <UniqueID>  (34) 
29

>  <SMILES>  (34) 
CC(=O)[N-]c1c([O-])c(C)c(O)c(/N=C\c2ccccc2[O-])c1[O-]

>  <Energy>  (34) 
54.1246733356957

>  <Genealogy>  (34) 
CC(=O)[N-]c1c([O-])c(C)c(O)c(N=Cc2ccccc2[O-])c1[O-] (protonated)
CC(=O)[N-]c1c([O-])c(C)c(O)c(/N=C\c2ccccc2[O-])c1[O-] (cis-trans isomerization)
CC(=O)[N-]c1c([O-])c(C)c(O)c(/N=C\c2ccccc2[O-])c1[O-] (3D coordinates assigned)
CC(=O)[N-]c1c([O-])c(C)c(O)c(/N=C\c2ccccc2[O-])c1[O-] (optimized conformer: 54.1246733356957 kcal/mol)

>  <smiles>  (34) 
CC(=O)Nc1c(O)c(C)c(O)c(N=Cc2ccccc2O)c1O

>  <score_type>  (34) 
oracle

>  <origin>  (34) 
adg

>  <m_score__min__energy>  (34) 
-16.850000000000001

>  <m_primary>  (34) 
energy

$$$$
34:0
     RDKit          3D

 55 58  0  0  0  0  0  0  0  0999 V2000
   57.6210   28.1340   43.7800 C   0  0  0  0  0  0  0  0  0  0  0  0
   56.6500   29.6130   43.9600 S   0  0  0  0  0  0  0  0  0  0  0  0
   55.4820   29.3410   44.8660 O   0  0  0  0  0  0  0  0  0  0  0  0
   56.1290   30.0390   42.6160 O   0  0  0  0  0  0  0  0  0  0  0  0
   57.6510   30.8890   44.6460 C   0  0  0  0  0  0  0  0  0  0  0  0
   57.3800   32.2330   44.3550 C   0  0  0  0  0  0  0  0  0  0  0  0
   58.1800   33.2440   44.8950 C   0  0  0  0  0  0  0  0  0  0  0  0
   59.2660   32.9230   45.7230 C   0  0  0  0  0  0  0  0  0  0  0  0
   60.0900   34.0170   46.3500 C   0  0  0  0  0  0  0  0  0  0  0  0
   60.3220   33.7280   47.7650 N   0  0  0  0  0  0  0  0  0  0  0  0
   59.3730   33.1260   48.6520 C   0  0  0  0  0  0  0  0  0  0  0  0
   58.1300   33.0980   48.4470 O   0  0  0  0  0  0  0  0  0  0  0  0
   60.0530   32.5380   49.7940 C   0  0  0  0  0  0  0  0  0  0  0  0
   59.5280   31.9290   50.7630 O   0  0  0  0  0  0  0  0  0  0  0  0
   61.4670   32.7830   49.5730 C   0  0  0  0  0  0  0  0  0  0  0  0
   62.5750   32.4010   50.3240 C   0  0  0  0  0  0  0  0  0  0  0  0
   63.8550   32.7430   49.8450 C   0  0  0  0  0  0  0  0  0  0  0  0
   65.2960   32.2410   50.7320 S   0  0  0  0  0  0  0  0  0  0  0  0
   66.4010   31.9750   49.7490 O   0  0  0  0  0  0  0  0  0  0  0  0
   65.0050   30.9560   51.4550 O   0  0  0  0  0  0  0  0  0  0  0  0
   65.8250   33.4490   51.8850 N   0  0  1  0  0  0  0  0  0  0  0  0
   66.9910   34.1880   51.3900 C   0  0  0  0  0  0  0  0  0  0  0  0
   66.9730   35.5560   52.0600 C   0  0  0  0  0  0  0  0  0  0  0  0
   65.5800   35.7050   52.6520 C   0  0  0  0  0  0  0  0  0  0  0  0
   64.8090   34.4770   52.1690 C   0  0  2  0  0  0  0  0  0  0  0  0
   63.7670   34.0030   53.2030 C   0  0  0  0  0  0  0  0  0  0  0  0
   64.1440   32.7690   53.7510 O   0  0  0  0  0  0  0  0  0  0  0  0
   63.9860   33.4720   48.6400 C   0  0  0  0  0  0  0  0  0  0  0  0
   62.8510   33.8430   47.8990 C   0  0  0  0  0  0  0  0  0  0  0  0
   61.5930   33.4760   48.3810 C   0  0  0  0  0  0  0  0  0  0  0  0
   59.5390   31.5740   46.0060 C   0  0  0  0  0  0  0  0  0  0  0  0
   58.7370   30.5640   45.4670 C   0  0  0  0  0  0  0  0  0  0  0  0
   57.8788   27.7413   44.7747 H   0  0  0  0  0  0  0  0  0  0  0  0
   57.0416   27.3800   43.2270 H   0  0  0  0  0  0  0  0  0  0  0  0
   58.5432   28.3659   43.2270 H   0  0  0  0  0  0  0  0  0  0  0  0
   56.5354   32.4929   43.6999 H   0  0  0  0  0  0  0  0  0  0  0  0
   57.9568   34.2972   44.6695 H   0  0  0  0  0  0  0  0  0  0  0  0
   61.0570   34.0866   45.8302 H   0  0  0  0  0  0  0  0  0  0  0  0
   59.5469   34.9696   46.2630 H   0  0  0  0  0  0  0  0  0  0  0  0
   62.4544   31.8468   51.2665 H   0  0  0  0  0  0  0  0  0  0  0  0
   66.0980   32.9590   52.7710 H   0  0  0  0  0  0  0  0  0  0  0  0
   67.9156   33.6524   51.6510 H   0  0  0  0  0  0  0  0  0  0  0  0
   66.9546   34.2882   50.2952 H   0  0  0  0  0  0  0  0  0  0  0  0
   67.7341   35.6050   52.8527 H   0  0  0  0  0  0  0  0  0  0  0  0
   67.1992   36.3613   51.3457 H   0  0  0  0  0  0  0  0  0  0  0  0
   65.6273   35.7238   53.7508 H   0  0  0  0  0  0  0  0  0  0  0  0
   65.0979   36.6433   52.3404 H   0  0  0  0  0  0  0  0  0  0  0  0
   64.2203   34.7059   51.2684 H   0  0  0  0  0  0  0  0  0  0  0  0
   63.6913   34.7485   54.0083 H   0  0  0  0  0  0  0  0  0  0  0  0
   62.7953   33.8867   52.7007 H   0  0  0  0  0  0  0  0  0  0  0  0
   64.0470   32.0950   53.0280 H   0  0  0  0  0  0  0  0  0  0  0  0
   64.9868   33.7515   48.2791 H   0  0  0  0  0  0  0  0  0  0  0  0
   62.9513   34.4092   46.9613 H   0  0  0  0  0  0  0  0  0  0  0  0
   60.3877   31.3116   46.6547 H   0  0  0  0  0  0  0  0  0  0  0  0
   58.9602   29.5100   45.6889 H   0  0  0  0  0  0  0  0  0  0  0  0
  1  2  1  0
  2  3  2  0
  2  4  2  0
  2  5  1  0
  5  6  2  0
  6  7  1  0
  7  8  2  0
  8  9  1  0
  9 10  1  0
 10 11  1  0
 11 12  2  0
 11 13  1  0
 13 14  2  0
 13 15  1  0
 15 16  2  0
 16 17  1  0
 17 18  1  0
 18 19  2  0
 18 20  2  0
 18 21  1  0
 21 22  1  0
 22 23  1  0
 23 24  1  0
 24 25  1  0
 25 26  1  0
 26 27  1  0
 17 28  2  0
 28 29  1  0
 29 30  2  0
  8 31  1  0
 31 32  2  0
 32  5  1  0
 30 10  1  0
 30 15  1  0
 25 21  1  0
  1 33  1  0
  1 34  1  0
  1 35  1  0
  6 36  1  0
  7 37  1  0
  9 38  1  0
  9 39  1  0
 16 40  1  0
 21 41  1  1
 22 42  1  0
 22 43  1  0
 23 44  1  0
 23 45  1  0
 24 46  1  0
 24 47  1  0
 25 48  1  6
 26 49  1  0
 26 50  1  0
 27 51  1  0
 28 52  1  0
 29 53  1  0
 31 54  1  0
 32 55  1  0
M  CHG  1  21   1
M  END
>  <UniqueID>  (35) 
30

>  <SMILES>  (35) 
CS(=O)(=O)c1ccc(CN2C(=O)C(=O)c3cc(S(=O)(=O)[N@H+]4CCC[C@@H]4CO)ccc32)cc1

>  <Energy>  (35) 
85.57366553101244

>  <Genealogy>  (35) 
CS(=O)(=O)c1ccc(CN2C(=O)C(=O)c3cc(S(=O)(=O)[NH+]4CCCC4CO)ccc32)cc1 (protonated)
CS(=O)(=O)c1ccc(CN2C(=O)C(=O)c3cc(S(=O)(=O)[N@H+]4CCC[C@@H]4CO)ccc32)cc1 (chirality)
CS(=O)(=O)c1ccc(CN2C(=O)C(=O)c3cc(S(=O)(=O)[N@H+]4CCC[C@@H]4CO)ccc32)cc1 (3D coordinates assigned)
CS(=O)(=O)c1ccc(CN2C(=O)C(=O)c3cc(S(=O)(=O)[N@H+]4CCC[C@@H]4CO)ccc32)cc1 (nonaromatic ring conformer: 85.57366553101244 kcal/mol)

>  <smiles>  (35) 
CS(=O)(=O)c1ccc(CN2C(=O)C(=O)c3cc(S(=O)(=O)N4CCCC4CO)ccc32)cc1

>  <score_type>  (35) 
oracle

>  <origin>  (35) 
adg

>  <m_score__min__energy>  (35) 
-8.8399999999999999

>  <m_primary>  (35) 
energy

$$$$
35:0
     RDKit          3D

 39 40  0  0  0  0  0  0  0  0999 V2000
   58.4640   31.8380   48.2820 H   0  0  0  0  0  0  0  0  0  0  0  0
   58.3590   32.5830   47.5570 N   0  0  0  0  0  0  0  0  0  0  0  0
   59.2550   32.7950   46.6450 C   0  0  0  0  0  0  0  0  0  0  0  0
   60.6920   32.8740   47.0230 C   0  0  0  0  0  0  0  0  0  0  0  0
   61.5100   33.8130   46.3760 C   0  0  0  0  0  0  0  0  0  0  0  0
   61.0820   34.4655   45.6007 H   0  0  0  0  0  0  0  0  0  0  0  0
   62.8590   33.9270   46.7060 C   0  0  0  0  0  0  0  0  0  0  0  0
   63.6540   34.8670   46.0620 O   0  0  0  0  0  0  0  0  0  0  0  0
   63.4160   33.0930   47.6740 C   0  0  0  0  0  0  0  0  0  0  0  0
   64.4828   33.1855   47.9258 H   0  0  0  0  0  0  0  0  0  0  0  0
   62.6260   32.1360   48.3300 C   0  0  0  0  0  0  0  0  0  0  0  0
   63.2820   31.2290   49.3370 C   0  0  0  0  0  0  0  0  0  0  0  0
   63.0353   31.5701   50.3532 H   0  0  0  0  0  0  0  0  0  0  0  0
   62.9173   30.2008   49.1967 H   0  0  0  0  0  0  0  0  0  0  0  0
   64.3727   31.2535   49.1967 H   0  0  0  0  0  0  0  0  0  0  0  0
   61.2410   32.0550   48.0380 C   0  0  0  0  0  0  0  0  0  0  0  0
   60.3790   31.1730   48.7730 N   0  0  0  0  0  0  0  0  0  0  0  0
   59.7900   29.9660   48.2670 C   0  0  0  0  0  0  0  0  0  0  0  0
   58.6020   29.6950   48.5810 O   0  0  0  0  0  0  0  0  0  0  0  0
   60.5200   29.0290   47.3890 C   0  0  0  0  0  0  0  0  0  0  0  0
   61.5301   28.7070   47.6822 H   0  0  0  0  0  0  0  0  0  0  0  0
   59.9980   28.5560   46.2480 C   0  0  0  0  0  0  0  0  0  0  0  0
   60.6284   28.5693   45.3467 H   0  0  0  0  0  0  0  0  0  0  0  0
   58.6220   28.0160   46.1280 C   0  0  0  0  0  0  0  0  0  0  0  0
   58.3580   26.7390   46.6500 C   0  0  0  0  0  0  0  0  0  0  0  0
   59.1662   26.1687   47.1313 H   0  0  0  0  0  0  0  0  0  0  0  0
   57.0770   26.1870   46.5630 C   0  0  0  0  0  0  0  0  0  0  0  0
   56.8840   25.1819   46.9662 H   0  0  0  0  0  0  0  0  0  0  0  0
   56.0410   26.9090   45.9650 C   0  0  0  0  0  0  0  0  0  0  0  0
   54.7690   26.3540   45.8830 O   0  0  0  0  0  0  0  0  0  0  0  0
   56.2850   28.1880   45.4560 C   0  0  0  0  0  0  0  0  0  0  0  0
   55.2550   28.9150   44.8700 O   0  0  0  0  0  0  0  0  0  0  0  0
   57.5680   28.7430   45.5380 C   0  0  0  0  0  0  0  0  0  0  0  0
   57.7544   29.7514   45.1400 H   0  0  0  0  0  0  0  0  0  0  0  0
   58.8040   32.9390   45.2140 C   0  0  0  0  0  0  0  0  0  0  0  0
   58.5995   33.9999   45.0075 H   0  0  0  0  0  0  0  0  0  0  0  0
   59.6027   32.5626   44.5579 H   0  0  0  0  0  0  0  0  0  0  0  0
   57.5880   32.1590   44.9590 C   0  0  0  0  0  0  0  0  0  0  0  0
   56.6290   31.5430   44.7560 N   0  0  0  0  0  0  0  0  0  0  0  0
  1  2  1  0
  2  3  2  3
  3  4  1  0
  4  5  2  0
  5  6  1  0
  5  7  1  0
  7  8  1  0
  7  9  2  0
  9 10  1  0
  9 11  1  0
 11 12  1  0
 12 13  1  0
 12 14  1  0
 12 15  1  0
 11 16  2  0
 16 17  1  0
 17 18  1  0
 18 19  2  0
 18 20  1  0
 20 21  1  0
 20 22  2  0
 22 23  1  0
 22 24  1  0
 24 25  2  0
 25 26  1  0
 25 27  1  0
 27 28  1  0
 27 29  2  0
 29 30  1  0
 29 31  1  0
 31 32  1  0
 31 33  2  0
 33 34  1  0
  3 35  1  0
 35 36  1  0
 35 37  1  0
 35 38  1  0
 38 39  3  0
 16  4  1  0
 33 24  1  0
M  CHG  4   8  -1  17  -1  30  -1  32  -1
M  END
>  <UniqueID>  (36) 
31

>  <SMILES>  (36) 
Cc1cc([O-])cc(C(=N)CC#N)c1[N-]C(=O)/C=C/c1ccc([O-])c([O-])c1

>  <Energy>  (36) 
54.66852360350164

>  <Genealogy>  (36) 
Cc1cc([O-])cc(C(=N)CC#N)c1[N-]C(=O)C=Cc1ccc([O-])c([O-])c1 (protonated)
Cc1cc([O-])cc(C(=N)CC#N)c1[N-]C(=O)/C=C/c1ccc([O-])c([O-])c1 (cis-trans isomerization)
Cc1cc([O-])cc(C(=N)CC#N)c1[N-]C(=O)/C=C/c1ccc([O-])c([O-])c1 (3D coordinates assigned)
Cc1cc([O-])cc(C(=N)CC#N)c1[N-]C(=O)/C=C/c1ccc([O-])c([O-])c1 (optimized conformer: 54.66852360350164 kcal/mol)

>  <smiles>  (36) 
Cc1cc(O)cc(C(=N)CC#N)c1NC(=O)C=Cc1ccc(O)c(O)c1

>  <score_type>  (36) 
oracle

>  <origin>  (36) 
adg

>  <m_score__min__energy>  (36) 
-16.329999999999998

>  <m_primary>  (36) 
energy

$$$$
36:0
     RDKit          3D

 41 44  0  0  0  0  0  0  0  0999 V2000
   55.5520   26.4140   46.2800 N   0  0  0  0  0  0  0  0  0  0  0  0
   56.8660   27.3190   45.6150 S   0  0  0  0  0  0  0  0  0  0  0  0
   57.4470   26.5660   44.4520 O   0  0  0  0  0  0  0  0  0  0  0  0
   56.3680   28.6520   45.1260 O   0  0  0  0  0  0  0  0  0  0  0  0
   58.0970   27.5700   46.8500 C   0  0  0  0  0  0  0  0  0  0  0  0
   58.9240   26.5130   47.2560 C   0  0  0  0  0  0  0  0  0  0  0  0
   59.9050   26.7260   48.2280 C   0  0  0  0  0  0  0  0  0  0  0  0
   60.0580   27.9870   48.8090 C   0  0  0  0  0  0  0  0  0  0  0  0
   59.2130   29.0470   48.4320 C   0  0  0  0  0  0  0  0  0  0  0  0
   59.3570   30.3600   49.0010 N   0  0  0  0  0  0  0  0  0  0  0  0
   58.6600   30.8100   50.1740 C   0  0  0  0  0  0  0  0  0  0  0  0
   57.7660   30.0970   50.7030 O   0  0  0  0  0  0  0  0  0  0  0  0
   58.9210   32.1810   50.7190 C   0  0  0  0  0  0  0  0  0  0  0  0
   60.0050   32.8180   49.9780 N   0  0  0  0  0  0  0  0  0  0  0  0
   61.4140   32.5990   50.1750 C   0  0  0  0  0  0  0  0  0  0  0  0
   61.9200   32.1010   51.2150 O   0  0  0  0  0  0  0  0  0  0  0  0
   62.1470   33.0060   48.9790 C   0  0  0  0  0  0  0  0  0  0  0  0
   63.4910   32.9910   48.6080 C   0  0  0  0  0  0  0  0  0  0  0  0
   63.8190   33.4290   47.3020 C   0  0  0  0  0  0  0  0  0  0  0  0
   62.8060   33.8530   46.4020 C   0  0  0  0  0  0  0  0  0  0  0  0
   61.4580   33.8410   46.8120 C   0  0  0  0  0  0  0  0  0  0  0  0
   60.3560   34.1990   46.0100 C   0  0  0  0  0  0  0  0  0  0  0  0
   59.0430   34.1030   46.5390 C   0  0  0  0  0  0  0  0  0  0  0  0
   58.8230   33.6540   47.8640 C   0  0  0  0  0  0  0  0  0  0  0  0
   59.9390   33.3210   48.6370 C   0  0  0  0  0  0  0  0  0  0  0  0
   61.1930   33.4240   48.1030 C   0  0  0  0  0  0  0  0  0  0  0  0
   58.2470   28.8320   47.4380 C   0  0  0  0  0  0  0  0  0  0  0  0
   54.7580   27.0810   46.4130 H   0  0  0  0  0  0  0  0  0  0  0  0
   58.8005   25.5155   46.8091 H   0  0  0  0  0  0  0  0  0  0  0  0
   60.5593   25.8974   48.5368 H   0  0  0  0  0  0  0  0  0  0  0  0
   60.8414   28.1518   49.5634 H   0  0  0  0  0  0  0  0  0  0  0  0
   59.9150   31.0640   48.4670 H   0  0  0  0  0  0  0  0  0  0  0  0
   58.0094   32.7894   50.6248 H   0  0  0  0  0  0  0  0  0  0  0  0
   59.2087   32.0986   51.7775 H   0  0  0  0  0  0  0  0  0  0  0  0
   64.2699   32.6505   49.3061 H   0  0  0  0  0  0  0  0  0  0  0  0
   64.8710   33.4409   46.9809 H   0  0  0  0  0  0  0  0  0  0  0  0
   63.0724   34.1894   45.3891 H   0  0  0  0  0  0  0  0  0  0  0  0
   60.5129   34.5509   44.9797 H   0  0  0  0  0  0  0  0  0  0  0  0
   58.1838   34.3813   45.9111 H   0  0  0  0  0  0  0  0  0  0  0  0
   57.8051   33.5699   48.2723 H   0  0  0  0  0  0  0  0  0  0  0  0
   57.6011   29.6627   47.1173 H   0  0  0  0  0  0  0  0  0  0  0  0
  1  2  1  0
  2  3  2  0
  2  4  2  0
  2  5  1  0
  5  6  2  0
  6  7  1  0
  7  8  2  0
  8  9  1  0
  9 10  1  0
 10 11  1  0
 11 12  2  0
 11 13  1  0
 13 14  1  0
 14 15  1  0
 15 16  2  0
 15 17  1  0
 17 18  1  0
 18 19  2  0
 19 20  1  0
 20 21  2  0
 21 22  1  0
 22 23  2  0
 23 24  1  0
 24 25  2  0
 25 26  1  0
  9 27  2  0
 27  5  1  0
 25 14  1  0
 26 17  2  0
 26 21  1  0
  1 28  1  0
  6 29  1  0
  7 30  1  0
  8 31  1  0
 10 32  1  0
 13 33  1  0
 13 34  1  0
 18 35  1  0
 19 36  1  0
 20 37  1  0
 22 38  1  0
 23 39  1  0
 24 40  1  0
 27 41  1  0
M  CHG  1   1  -1
M  END
>  <UniqueID>  (37) 
32

>  <SMILES>  (37) 
[NH-]S(=O)(=O)c1cccc(NC(=O)CN2C(=O)c3cccc4cccc2c34)c1

>  <Energy>  (37) 
88.99649643980891

>  <Genealogy>  (37) 
[NH-]S(=O)(=O)c1cccc(NC(=O)CN2C(=O)c3cccc4cccc2c34)c1 (protonated)
[NH-]S(=O)(=O)c1cccc(NC(=O)CN2C(=O)c3cccc4cccc2c34)c1 (3D coordinates assigned)
[NH-]S(=O)(=O)c1cccc(NC(=O)CN2C(=O)c3cccc4cccc2c34)c1 (nonaromatic ring conformer: 88.99649643980891 kcal/mol)

>  <smiles>  (37) 
NS(=O)(=O)c1cccc(NC(=O)CN2C(=O)c3cccc4cccc2c34)c1

>  <score_type>  (37) 
oracle

>  <origin>  (37) 
adg

>  <m_score__min__energy>  (37) 
-11.880000000000001

>  <m_primary>  (37) 
energy

$$$$
37:0
     RDKit          3D

 53 55  0  0  1  0  0  0  0  0999 V2000
   63.0840   33.7440   46.7200 C   0  0  0  0  0  0  0  0  0  0  0  0
   62.3960   33.3010   47.9190 N   0  0  0  0  0  0  0  0  0  0  0  0
   63.1350   32.4740   48.8560 C   0  0  0  0  0  0  0  0  0  0  0  0
   61.0430   33.6420   48.2060 C   0  0  0  0  0  0  0  0  0  0  0  0
   60.4470   33.2560   49.2480 O   0  0  0  0  0  0  0  0  0  0  0  0
   60.3440   34.4670   47.2480 N   0  0  0  0  0  0  0  0  0  0  0  0
   59.5970   33.9940   46.3510 C   0  0  0  0  0  0  0  0  0  0  0  0
   58.8080   34.5300   45.4140 N   0  0  0  0  0  0  0  0  0  0  0  0
   58.1490   33.7310   44.6190 C   0  0  0  0  0  0  0  0  0  0  0  0
   58.2610   32.4090   44.7370 C   0  0  0  0  0  0  0  0  0  0  0  0
   57.6210   31.3480   43.9610 C   0  0  0  0  0  0  0  0  0  0  0  0
   57.4790   30.1120   44.4150 C   0  0  0  0  0  0  0  0  0  0  0  0
   58.5930   29.3840   44.6050 N   0  0  0  0  0  0  0  0  0  0  0  0
   58.4500   28.1250   45.0670 C   0  0  0  0  0  0  0  0  0  0  0  0
   59.4460   27.4170   45.2560 O   0  0  0  0  0  0  0  0  0  0  0  0
   57.1830   27.6270   45.3280 C   0  0  0  0  0  0  0  0  0  0  0  0
   57.0630   26.3890   45.7820 C   0  0  0  0  0  0  0  0  0  0  0  0
   55.8710   25.5870   45.6570 C   0  0  0  0  0  0  0  0  0  0  0  0
   54.5750   25.8990   45.8530 N   0  0  0  0  0  0  0  0  0  0  0  0
   53.7760   24.8390   45.6220 C   0  0  0  0  0  0  0  0  0  0  0  0
   54.5960   23.8320   45.2690 N   0  0  0  0  0  0  0  0  0  0  0  0
   55.8800   24.2400   45.2760 C   0  0  0  0  0  0  0  0  0  0  0  0
   57.0880   23.4460   44.9510 C   0  0  0  0  0  0  0  0  0  0  0  0
   56.8030   22.0320   44.6140 C   0  0  0  0  0  0  0  0  0  0  0  0
   57.7530   24.1070   43.7530 C   0  0  0  0  0  0  0  0  0  0  0  0
   58.0400   23.5450   46.1130 C   0  0  0  0  0  0  0  0  0  0  0  0
   56.0880   28.3560   45.1390 N   0  0  0  0  0  0  0  0  0  0  0  0
   56.2060   29.6230   44.6750 C   0  0  0  0  0  0  0  0  0  0  0  0
   55.2030   30.3310   44.4850 O   0  0  0  0  0  0  0  0  0  0  0  0
   59.4060   32.1420   46.1020 S   0  0  0  0  0  0  0  0  0  0  0  0
   63.9780   34.3196   47.0018 H   0  0  0  0  0  0  0  0  0  0  0  0
   63.3839   32.8689   46.1248 H   0  0  0  0  0  0  0  0  0  0  0  0
   62.4114   34.3792   46.1248 H   0  0  0  0  0  0  0  0  0  0  0  0
   62.8757   32.7642   49.8848 H   0  0  0  0  0  0  0  0  0  0  0  0
   62.8749   31.4172   48.6965 H   0  0  0  0  0  0  0  0  0  0  0  0
   64.2143   32.6141   48.6965 H   0  0  0  0  0  0  0  0  0  0  0  0
   58.7430   35.6030   45.3480 H   0  0  0  0  0  0  0  0  0  0  0  0
   57.4941   34.1543   43.8432 H   0  0  0  0  0  0  0  0  0  0  0  0
   57.2410   31.5866   42.9567 H   0  0  0  0  0  0  0  0  0  0  0  0
   59.5240   29.8090   44.3910 H   0  0  0  0  0  0  0  0  0  0  0  0
   57.9311   25.9421   46.2887 H   0  0  0  0  0  0  0  0  0  0  0  0
   52.6797   24.8039   45.7048 H   0  0  0  0  0  0  0  0  0  0  0  0
   54.3130   22.8550   45.0180 H   0  0  0  0  0  0  0  0  0  0  0  0
   56.6858   21.4507   45.5405 H   0  0  0  0  0  0  0  0  0  0  0  0
   55.8753   21.9751   44.0256 H   0  0  0  0  0  0  0  0  0  0  0  0
   57.6362   21.6202   44.0256 H   0  0  0  0  0  0  0  0  0  0  0  0
   58.4925   24.8421   44.1035 H   0  0  0  0  0  0  0  0  0  0  0  0
   58.2568   23.3414   43.1447 H   0  0  0  0  0  0  0  0  0  0  0  0
   56.9905   24.6154   43.1447 H   0  0  0  0  0  0  0  0  0  0  0  0
   57.4757   23.4863   47.0554 H   0  0  0  0  0  0  0  0  0  0  0  0
   58.7629   22.7172   46.0663 H   0  0  0  0  0  0  0  0  0  0  0  0
   58.5771   24.5038   46.0663 H   0  0  0  0  0  0  0  0  0  0  0  0
   55.1540   27.9650   45.3390 H   0  0  0  0  0  0  0  0  0  0  0  0
  1  2  1  0
  2  3  1  0
  2  4  1  0
  4  5  2  0
  4  6  1  0
  6  7  2  0
  7  8  1  0
  8  9  1  0
  9 10  2  0
 10 11  1  0
 11 12  2  0
 12 13  1  0
 13 14  1  0
 14 15  2  0
 14 16  1  0
 16 17  2  0
 17 18  1  0
 18 19  1  0
 19 20  2  0
 20 21  1  0
 21 22  1  0
 22 23  1  0
 23 24  1  0
 23 25  1  0
 23 26  1  0
 16 27  1  0
 27 28  1  0
 28 29  2  0
 10 30  1  0
 30  7  1  0
 28 12  1  0
 22 18  2  0
  1 31  1  0
  1 32  1  0
  1 33  1  0
  3 34  1  0
  3 35  1  0
  3 36  1  0
  8 37  1  0
  9 38  1  0
 11 39  1  0
 13 40  1  0
 17 41  1  0
 20 42  1  0
 21 43  1  0
 24 44  1  0
 24 45  1  0
 24 46  1  0
 25 47  1  0
 25 48  1  0
 25 49  1  0
 26 50  1  0
 26 51  1  0
 26 52  1  0
 27 53  1  0
M  END
>  <smiles>  (38) 
CN(C)C(=O)N=c1[nH]cc(C=c2[nH]c(=O)c(=Cc3nc[nH]c3C(C)(C)C)[nH]c2=O)s1

>  <score_type>  (38) 
oracle

>  <origin>  (38) 
adg

>  <m_score__min__energy>  (38) 
-9.0299999999999994

>  <m_primary>  (38) 
energy

$$$$
38:0
     RDKit          3D

 47 49  0  0  1  0  0  0  0  0999 V2000
   55.1260   24.4470   45.7460 C   0  0  0  0  0  0  0  0  0  0  0  0
   55.5510   25.7270   46.2420 N   0  0  0  0  0  0  0  0  0  0  0  0
   56.3460   26.5200   45.6260 C   0  0  0  0  0  0  0  0  0  0  0  0
   57.5010   25.9790   45.0760 C   0  0  0  0  0  0  0  0  0  0  0  0
   58.3790   26.8240   44.3980 C   0  0  0  0  0  0  0  0  0  0  0  0
   58.0460   28.1370   44.3150 N   0  0  0  0  0  0  0  0  0  0  0  0
   56.9050   28.6070   44.8710 C   0  0  0  0  0  0  0  0  0  0  0  0
   56.6590   29.8480   44.7510 N   0  0  0  0  0  0  0  0  0  0  0  0
   57.5120   30.8480   45.2790 C   0  0  0  0  0  0  0  0  0  0  0  0
   58.4700   30.6200   46.2390 C   0  0  0  0  0  0  0  0  0  0  0  0
   59.2870   31.6310   46.7260 C   0  0  0  0  0  0  0  0  0  0  0  0
   59.1270   32.8910   46.2300 C   0  0  0  0  0  0  0  0  0  0  0  0
   60.1060   34.2930   46.7280 S   0  0  0  0  0  0  0  0  0  0  0  0
   61.0910   33.9890   48.1500 C   0  0  0  0  0  0  0  0  0  0  0  0
   60.6270   34.0660   49.4570 C   0  0  0  0  0  0  0  0  0  0  0  0
   61.4250   33.8330   50.5520 C   0  0  0  0  0  0  0  0  0  0  0  0
   62.7600   33.5030   50.3390 C   0  0  0  0  0  0  0  0  0  0  0  0
   63.2630   33.4140   49.0690 C   0  0  0  0  0  0  0  0  0  0  0  0
   64.6230   33.0910   48.8510 N   0  0  0  0  0  0  0  0  0  0  0  0
   65.7460   32.7240   50.0960 S   0  0  0  0  0  0  0  0  0  0  0  0
   65.6160   34.0540   51.2940 C   0  0  0  0  0  0  0  0  0  0  0  0
   65.3580   31.4270   50.7580 O   0  0  0  0  0  0  0  0  0  0  0  0
   67.1750   32.7060   49.6160 O   0  0  0  0  0  0  0  0  0  0  0  0
   62.4180   33.6600   47.9810 C   0  0  0  0  0  0  0  0  0  0  0  0
   62.9310   33.5710   46.6810 O   0  0  0  0  0  0  0  0  0  0  0  0
   58.1530   33.1540   45.2480 C   0  0  0  0  0  0  0  0  0  0  0  0
   57.3360   32.1490   44.7600 C   0  0  0  0  0  0  0  0  0  0  0  0
   56.0370   27.8260   45.5310 N   0  0  0  0  0  0  0  0  0  0  0  0
   54.9048   23.7807   46.5928 H   0  0  0  0  0  0  0  0  0  0  0  0
   54.2216   24.5733   45.1328 H   0  0  0  0  0  0  0  0  0  0  0  0
   55.9263   24.0072   45.1328 H   0  0  0  0  0  0  0  0  0  0  0  0
   57.7188   24.9052   45.1733 H   0  0  0  0  0  0  0  0  0  0  0  0
   59.3065   26.4408   43.9475 H   0  0  0  0  0  0  0  0  0  0  0  0
   58.6790   28.8250   43.8110 H   0  0  0  0  0  0  0  0  0  0  0  0
   58.5931   29.6010   46.6347 H   0  0  0  0  0  0  0  0  0  0  0  0
   60.0458   31.4206   47.4941 H   0  0  0  0  0  0  0  0  0  0  0  0
   59.5712   34.3257   49.6238 H   0  0  0  0  0  0  0  0  0  0  0  0
   61.0182   33.9056   51.5714 H   0  0  0  0  0  0  0  0  0  0  0  0
   63.4176   33.3117   51.1998 H   0  0  0  0  0  0  0  0  0  0  0  0
   64.9570   33.0790   47.8410 H   0  0  0  0  0  0  0  0  0  0  0  0
   65.6568   33.6367   52.3110 H   0  0  0  0  0  0  0  0  0  0  0  0
   66.4496   34.7576   51.1526 H   0  0  0  0  0  0  0  0  0  0  0  0
   64.6619   34.5828   51.1526 H   0  0  0  0  0  0  0  0  0  0  0  0
   62.2960   33.2080   45.9670 H   0  0  0  0  0  0  0  0  0  0  0  0
   58.0392   34.1775   44.8613 H   0  0  0  0  0  0  0  0  0  0  0  0
   56.5750   32.3570   43.9934 H   0  0  0  0  0  0  0  0  0  0  0  0
   55.1450   28.2020   45.9660 H   0  0  0  0  0  0  0  0  0  0  0  0
  1  2  1  0
  2  3  2  0
  3  4  1  0
  4  5  2  0
  5  6  1  0
  6  7  1  0
  7  8  2  0
  8  9  1  0
  9 10  2  0
 10 11  1  0
 11 12  2  0
 12 13  1  0
 13 14  1  0
 14 15  2  0
 15 16  1  0
 16 17  2  0
 17 18  1  0
 18 19  1  0
 19 20  1  0
 20 21  1  0
 20 22  2  0
 20 23  2  0
 18 24  2  0
 24 25  1  0
 12 26  1  0
 26 27  2  0
  7 28  1  0
 28  3  1  0
 27  9  1  0
 24 14  1  0
  1 29  1  0
  1 30  1  0
  1 31  1  0
  4 32  1  0
  5 33  1  0
  6 34  1  0
 10 35  1  0
 11 36  1  0
 15 37  1  0
 16 38  1  0
 17 39  1  0
 19 40  1  0
 21 41  1  0
 21 42  1  0
 21 43  1  0
 25 44  1  0
 26 45  1  0
 27 46  1  0
 28 47  1  0
M  END
>  <smiles>  (39) 
CN=c1cc[nH]c(=Nc2ccc(Sc3cccc(NS(C)(=O)=O)c3O)cc2)[nH]1

>  <score_type>  (39) 
oracle

>  <origin>  (39) 
adg

>  <m_score__min__energy>  (39) 
-10.01

>  <m_primary>  (39) 
energy

$$$$
39:0
     RDKit          3D

 25 26  0  0  0  0  0  0  0  0999 V2000
   58.2633   26.7471   46.2478 H   0  0  0  0  0  0  0  0  0  0  0  0
   57.1740   26.8320   46.3750 C   0  0  0  0  0  0  0  0  0  0  0  0
   56.9543   27.3292   47.3313 H   0  0  0  0  0  0  0  0  0  0  0  0
   56.6160   27.6170   45.2790 N   0  0  0  0  0  0  0  0  0  0  0  0
   56.8090   28.8910   45.1250 C   0  0  0  0  0  0  0  0  0  0  0  0
   55.8010   29.7480   44.8580 N   0  0  0  0  0  0  0  0  0  0  0  0
   56.2090   31.0110   44.7410 N   0  0  0  0  0  0  0  0  0  0  0  0
   57.5430   31.1610   44.9010 C   0  0  0  0  0  0  0  0  0  0  0  0
   58.2340   32.4860   44.8740 C   0  0  0  0  0  0  0  0  0  0  0  0
   58.5865   32.6891   43.8520 H   0  0  0  0  0  0  0  0  0  0  0  0
   59.0844   32.4567   45.5711 H   0  0  0  0  0  0  0  0  0  0  0  0
   57.2820   33.5970   45.3060 C   0  0  0  0  0  0  0  0  0  0  0  0
   57.2443   33.6410   46.4045 H   0  0  0  0  0  0  0  0  0  0  0  0
   57.6396   34.5599   44.9125 H   0  0  0  0  0  0  0  0  0  0  0  0
   56.2756   33.3911   44.9125 H   0  0  0  0  0  0  0  0  0  0  0  0
   58.2960   29.6880   45.2320 S   0  0  0  0  0  0  0  0  0  0  0  0
   56.5620   25.4630   46.3710 C   0  0  0  0  0  0  0  0  0  0  0  0
   57.3330   24.3870   46.6850 N   0  0  0  0  0  0  0  0  0  0  0  0
   56.8260   23.1290   46.6690 C   0  0  0  0  0  0  0  0  0  0  0  0
   57.5580   22.1510   46.9690 O   0  0  0  0  0  0  0  0  0  0  0  0
   55.5280   22.9220   46.3280 N   0  0  0  0  0  0  0  0  0  0  0  0
   54.7190   23.9620   45.9960 C   0  0  0  0  0  0  0  0  0  0  0  0
   53.5190   23.7450   45.6790 O   0  0  0  0  0  0  0  0  0  0  0  0
   55.2220   25.2670   46.0050 C   0  0  0  0  0  0  0  0  0  0  0  0
   54.4080   26.3400   45.6570 O   0  0  0  0  0  0  0  0  0  0  0  0
  1  2  1  0
  2  3  1  0
  2  4  1  0
  4  5  2  0
  5  6  1  0
  6  7  1  0
  7  8  2  0
  8  9  1  0
  9 10  1  0
  9 11  1  0
  9 12  1  0
 12 13  1  0
 12 14  1  0
 12 15  1  0
  8 16  1  0
  2 17  1  0
 17 18  1  0
 18 19  1  0
 19 20  2  0
 19 21  1  0
 21 22  1  0
 22 23  2  0
 22 24  1  0
 24 25  1  0
 16  5  1  0
 24 17  2  0
M  CHG  4   6  -1  18  -1  21  -1  25  -1
M  END
>  <UniqueID>  (40) 
33

>  <SMILES>  (40) 
CCc1n[n-]/c(=N/Cc2[n-]c(=O)[n-]c(=O)c2[O-])s1

>  <Energy>  (40) 
56.11342091735435

>  <Genealogy>  (40) 
CCc1n[n-]c(=NCc2[n-]c(=O)[n-]c(=O)c2[O-])s1 (protonated)
CCc1n[n-]/c(=N/Cc2[n-]c(=O)[n-]c(=O)c2[O-])s1 (cis-trans isomerization)
CCc1n[n-]/c(=N/Cc2[n-]c(=O)[n-]c(=O)c2[O-])s1 (3D coordinates assigned)
CCc1n[n-]/c(=N/Cc2[n-]c(=O)[n-]c(=O)c2[O-])s1 (optimized conformer: 56.11342091735435 kcal/mol)

>  <smiles>  (40) 
CCc1n[nH]c(=NCc2[nH]c(=O)[nH]c(=O)c2O)s1

>  <score_type>  (40) 
oracle

>  <origin>  (40) 
adg

>  <m_score__min__energy>  (40) 
-15.06

>  <m_primary>  (40) 
energy

$$$$
40:0
     RDKit          3D

 40 43  0  0  0  0  0  0  0  0999 V2000
   55.8570   30.1670   43.3030 O   0  0  0  0  0  0  0  0  0  0  0  0
   56.4220   29.8350   44.3790 C   0  0  0  0  0  0  0  0  0  0  0  0
   55.8380   28.8470   45.2360 N   0  0  0  0  0  0  0  0  0  0  0  0
   56.4460   27.6110   45.6290 C   0  0  0  0  0  0  0  0  0  0  0  0
   57.7890   27.3450   45.8040 C   0  0  0  0  0  0  0  0  0  0  0  0
   57.8330   26.0420   46.2640 C   0  0  0  0  0  0  0  0  0  0  0  0
   58.9990   25.3520   46.5800 O   0  0  0  0  0  0  0  0  0  0  0  0
   56.6030   25.4980   46.3860 N   0  0  0  0  0  0  0  0  0  0  0  0
   55.7630   26.4770   46.0000 C   0  0  0  0  0  0  0  0  0  0  0  0
   54.3810   26.3370   45.9870 O   0  0  0  0  0  0  0  0  0  0  0  0
   57.6740   30.4910   44.7860 C   0  0  0  0  0  0  0  0  0  0  0  0
   58.7580   29.8520   44.7100 O   0  0  0  0  0  0  0  0  0  0  0  0
   57.6910   31.8570   45.3350 C   0  0  0  0  0  0  0  0  0  0  0  0
   56.6480   32.7690   45.2150 C   0  0  0  0  0  0  0  0  0  0  0  0
   56.9990   33.9620   45.7380 N   0  0  0  0  0  0  0  0  0  0  0  0
   58.2520   33.8120   46.2020 C   0  0  0  0  0  0  0  0  0  0  0  0
   59.0330   34.7890   46.8170 C   0  0  0  0  0  0  0  0  0  0  0  0
   60.3250   34.4340   47.2350 C   0  0  0  0  0  0  0  0  0  0  0  0
   60.7970   33.1170   47.0580 C   0  0  0  0  0  0  0  0  0  0  0  0
   59.9810   32.1350   46.4660 C   0  0  0  0  0  0  0  0  0  0  0  0
   60.4520   30.8210   46.3780 O   0  0  0  0  0  0  0  0  0  0  0  0
   60.4420   29.8990   47.4360 C   0  0  0  0  0  0  0  0  0  0  0  0
   60.5170   30.2970   48.7850 C   0  0  0  0  0  0  0  0  0  0  0  0
   60.4860   29.3400   49.8030 C   0  0  0  0  0  0  0  0  0  0  0  0
   60.3890   27.9820   49.4860 C   0  0  0  0  0  0  0  0  0  0  0  0
   60.3320   27.5790   48.1490 C   0  0  0  0  0  0  0  0  0  0  0  0
   60.3660   28.5350   47.1290 C   0  0  0  0  0  0  0  0  0  0  0  0
   58.7120   32.5310   45.9970 C   0  0  0  0  0  0  0  0  0  0  0  0
   58.6371   28.0206   45.6184 H   0  0  0  0  0  0  0  0  0  0  0  0
   59.4590   24.7670   45.8940 H   0  0  0  0  0  0  0  0  0  0  0  0
   55.6724   32.5483   44.7573 H   0  0  0  0  0  0  0  0  0  0  0  0
   56.4160   34.8280   45.7660 H   0  0  0  0  0  0  0  0  0  0  0  0
   58.6482   35.8081   46.9702 H   0  0  0  0  0  0  0  0  0  0  0  0
   60.9739   35.1883   47.7039 H   0  0  0  0  0  0  0  0  0  0  0  0
   61.8136   32.8545   47.3861 H   0  0  0  0  0  0  0  0  0  0  0  0
   60.6002   31.3643   49.0380 H   0  0  0  0  0  0  0  0  0  0  0  0
   60.5380   29.6559   50.8554 H   0  0  0  0  0  0  0  0  0  0  0  0
   60.3575   27.2306   50.2888 H   0  0  0  0  0  0  0  0  0  0  0  0
   60.2604   26.5102   47.8991 H   0  0  0  0  0  0  0  0  0  0  0  0
   60.3328   28.2131   46.0777 H   0  0  0  0  0  0  0  0  0  0  0  0
  1  2  2  0
  2  3  1  0
  3  4  1  0
  4  5  1  0
  5  6  2  0
  6  7  1  0
  6  8  1  0
  8  9  1  0
  9 10  1  0
  2 11  1  0
 11 12  2  0
 11 13  1  0
 13 14  2  0
 14 15  1  0
 15 16  1  0
 16 17  2  0
 17 18  1  0
 18 19  2  0
 19 20  1  0
 20 21  1  0
 21 22  1  0
 22 23  2  0
 23 24  1  0
 24 25  2  0
 25 26  1  0
 26 27  2  0
 20 28  2  0
  9  4  2  0
 28 13  1  0
 28 16  1  0
 27 22  1  0
  5 29  1  0
  7 30  1  0
 14 31  1  0
 15 32  1  0
 17 33  1  0
 18 34  1  0
 19 35  1  0
 23 36  1  0
 24 37  1  0
 25 38  1  0
 26 39  1  0
 27 40  1  0
M  CHG  3   3  -1   8  -1  10  -1
M  END
>  <UniqueID>  (41) 
34

>  <SMILES>  (41) 
O=C([N-]c1cc(O)[n-]c1[O-])C(=O)c1c[nH]c2cccc(Oc3ccccc3)c12

>  <Energy>  (41) 
116.35498417270449

>  <Genealogy>  (41) 
O=C([N-]c1cc(O)[n-]c1[O-])C(=O)c1c[nH]c2cccc(Oc3ccccc3)c12 (protonated)
O=C([N-]c1cc(O)[n-]c1[O-])C(=O)c1c[nH]c2cccc(Oc3ccccc3)c12 (3D coordinates assigned)
O=C([N-]c1cc(O)[n-]c1[O-])C(=O)c1c[nH]c2cccc(Oc3ccccc3)c12 (optimized conformer: 116.35498417270449 kcal/mol)

>  <smiles>  (41) 
O=C(Nc1cc(O)[nH]c1O)C(=O)c1c[nH]c2cccc(Oc3ccccc3)c12

>  <score_type>  (41) 
oracle

>  <origin>  (41) 
adg

>  <m_score__min__energy>  (41) 
-15.74

>  <m_primary>  (41) 
energy

$$$$
41:0
     RDKit          3D

 51 54  0  0  0  0  0  0  0  0999 V2000
   63.0570   33.8240   46.7900 C   0  0  0  0  0  0  0  0  0  0  0  0
   61.5200   33.8420   47.6840 S   0  0  0  0  0  0  0  0  0  0  0  0
   60.4770   34.5700   46.8820 O   0  0  0  0  0  0  0  0  0  0  0  0
   61.7080   34.5560   48.9940 O   0  0  0  0  0  0  0  0  0  0  0  0
   60.9970   32.1870   47.9760 C   0  0  0  0  0  0  0  0  0  0  0  0
   60.0470   31.9040   48.9640 C   0  0  0  0  0  0  0  0  0  0  0  0
   59.6560   30.5850   49.1970 C   0  0  0  0  0  0  0  0  0  0  0  0
   60.2220   29.5540   48.4350 C   0  0  0  0  0  0  0  0  0  0  0  0
   59.8570   28.1260   48.6970 C   0  0  0  0  0  0  0  0  0  0  0  0
   60.1140   27.3400   47.5000 N   0  0  0  0  0  0  0  0  0  0  0  0
   59.5180   27.6250   46.2320 C   0  0  0  0  0  0  0  0  0  0  0  0
   60.2430   27.9680   45.2590 O   0  0  0  0  0  0  0  0  0  0  0  0
   58.0610   27.4760   46.0690 C   0  0  0  0  0  0  0  0  0  0  0  0
   57.3610   26.3180   46.3440 C   0  0  0  0  0  0  0  0  0  0  0  0
   56.0650   26.6110   45.9530 C   0  0  0  0  0  0  0  0  0  0  0  0
   55.0380   25.8110   45.9930 N   0  0  0  0  0  0  0  0  0  0  0  0
   55.0280   24.4350   45.5870 C   0  0  0  0  0  0  0  0  0  0  0  0
   56.1030   23.9110   45.1930 O   0  0  0  0  0  0  0  0  0  0  0  0
   53.7820   23.6450   45.5430 C   0  0  0  0  0  0  0  0  0  0  0  0
   52.7970   23.7260   44.5740 C   0  0  0  0  0  0  0  0  0  0  0  0
   51.7800   22.8890   44.8550 N   0  0  0  0  0  0  0  0  0  0  0  0
   52.1270   22.2870   46.0100 C   0  0  0  0  0  0  0  0  0  0  0  0
   51.3350   21.3410   46.6500 O   0  0  0  0  0  0  0  0  0  0  0  0
   53.3470   22.7240   46.4750 C   0  0  0  0  0  0  0  0  0  0  0  0
   55.9920   27.8610   45.4650 N   0  0  0  0  0  0  0  0  0  0  0  0
   57.2030   28.3890   45.5470 N   0  0  0  0  0  0  0  0  0  0  0  0
   57.4760   29.7480   45.1720 C   0  0  0  0  0  0  0  0  0  0  0  0
   57.1890   30.2070   43.8750 C   0  0  0  0  0  0  0  0  0  0  0  0
   57.4950   31.5210   43.5070 C   0  0  0  0  0  0  0  0  0  0  0  0
   58.1050   32.3800   44.4260 C   0  0  0  0  0  0  0  0  0  0  0  0
   58.4170   31.9230   45.7100 C   0  0  0  0  0  0  0  0  0  0  0  0
   58.1110   30.6100   46.0810 C   0  0  0  0  0  0  0  0  0  0  0  0
   61.1580   29.8500   47.4910 N   0  0  0  0  0  0  0  0  0  0  0  0
   61.5500   31.1290   47.2450 C   0  0  0  0  0  0  0  0  0  0  0  0
   63.8953   33.8142   47.5021 H   0  0  0  0  0  0  0  0  0  0  0  0
   63.1027   32.9253   46.1574 H   0  0  0  0  0  0  0  0  0  0  0  0
   63.1238   34.7214   46.1574 H   0  0  0  0  0  0  0  0  0  0  0  0
   59.6089   32.7208   49.5564 H   0  0  0  0  0  0  0  0  0  0  0  0
   58.9098   30.3564   49.9722 H   0  0  0  0  0  0  0  0  0  0  0  0
   60.4628   27.7380   49.5292 H   0  0  0  0  0  0  0  0  0  0  0  0
   58.7914   28.0592   48.9617 H   0  0  0  0  0  0  0  0  0  0  0  0
   57.7437   25.3806   46.7738 H   0  0  0  0  0  0  0  0  0  0  0  0
   52.8391   24.3846   43.6939 H   0  0  0  0  0  0  0  0  0  0  0  0
   51.0760   21.4580   47.6210 H   0  0  0  0  0  0  0  0  0  0  0  0
   53.8644   22.4072   47.3926 H   0  0  0  0  0  0  0  0  0  0  0  0
   56.7213   29.5293   43.1457 H   0  0  0  0  0  0  0  0  0  0  0  0
   57.2558   31.8786   42.4946 H   0  0  0  0  0  0  0  0  0  0  0  0
   58.3395   33.4156   44.1388 H   0  0  0  0  0  0  0  0  0  0  0  0
   58.9040   32.5975   46.4296 H   0  0  0  0  0  0  0  0  0  0  0  0
   58.3685   30.2510   47.0884 H   0  0  0  0  0  0  0  0  0  0  0  0
   62.3034   31.3325   46.4698 H   0  0  0  0  0  0  0  0  0  0  0  0
  1  2  1  0
  2  3  2  0
  2  4  2  0
  2  5  1  0
  5  6  2  0
  6  7  1  0
  7  8  2  0
  8  9  1  0
  9 10  1  0
 10 11  1  0
 11 12  2  0
 11 13  1  0
 13 14  2  0
 14 15  1  0
 15 16  2  3
 16 17  1  0
 17 18  2  0
 17 19  1  0
 19 20  2  0
 20 21  1  0
 21 22  1  0
 22 23  1  0
 22 24  2  0
 15 25  1  0
 25 26  1  0
 26 27  1  0
 27 28  2  0
 28 29  1  0
 29 30  2  0
 30 31  1  0
 31 32  2  0
  8 33  1  0
 33 34  2  0
 34  5  1  0
 26 13  1  0
 32 27  1  0
 24 19  1  0
  1 35  1  0
  1 36  1  0
  1 37  1  0
  6 38  1  0
  7 39  1  0
  9 40  1  0
  9 41  1  0
 14 42  1  0
 20 43  1  0
 23 44  1  0
 24 45  1  0
 28 46  1  0
 29 47  1  0
 30 48  1  0
 31 49  1  0
 32 50  1  0
 34 51  1  0
M  CHG  3  10  -1  21  -1  25  -1
M  END
>  <UniqueID>  (42) 
35

>  <SMILES>  (42) 
CS(=O)(=O)c1ccc(C[N-]C(=O)c2cc(=NC(=O)c3c[n-]c(O)c3)[n-]n2-c2ccccc2)nc1

>  <Energy>  (42) 
118.92174965729374

>  <Genealogy>  (42) 
CS(=O)(=O)c1ccc(C[N-]C(=O)c2cc(=NC(=O)c3c[n-]c(O)c3)[n-]n2-c2ccccc2)nc1 (protonated)
CS(=O)(=O)c1ccc(C[N-]C(=O)c2cc(=NC(=O)c3c[n-]c(O)c3)[n-]n2-c2ccccc2)nc1 (3D coordinates assigned)
CS(=O)(=O)c1ccc(C[N-]C(=O)c2cc(=NC(=O)c3c[n-]c(O)c3)[n-]n2-c2ccccc2)nc1 (optimized conformer: 118.92174965729374 kcal/mol)

>  <smiles>  (42) 
CS(=O)(=O)c1ccc(CNC(=O)c2cc(=NC(=O)c3c[nH]c(O)c3)[nH]n2-c2ccccc2)nc1

>  <score_type>  (42) 
oracle

>  <origin>  (42) 
adg

>  <m_score__min__energy>  (42) 
-14.050000000000001

>  <m_primary>  (42) 
energy

$$$$
42:0
     RDKit          3D

 48 51  0  0  0  0  0  0  0  0999 V2000
   55.9112   29.7850   52.6574 H   0  0  0  0  0  0  0  0  0  0  0  0
   56.6120   30.5190   52.2330 C   0  0  0  0  0  0  0  0  0  0  0  0
   57.4190   30.1680   51.1960 N   0  0  0  0  0  0  0  0  0  0  0  0
   58.3160   31.0330   50.6460 C   0  0  0  0  0  0  0  0  0  0  0  0
   59.1680   30.6170   49.5050 C   0  0  0  0  0  0  0  0  0  0  0  0
   59.2870   29.2960   49.1870 N   0  0  0  0  0  0  0  0  0  0  0  0
   60.0810   29.0950   48.1130 C   0  0  0  0  0  0  0  0  0  0  0  0
   60.2590   27.9400   47.5490 N   0  0  0  0  0  0  0  0  0  0  0  0
   59.2070   27.0460   47.1630 C   0  0  0  0  0  0  0  0  0  0  0  0
   58.9440   26.0190   47.8460 O   0  0  0  0  0  0  0  0  0  0  0  0
   58.3530   27.3980   45.9840 C   0  0  0  0  0  0  0  0  0  0  0  0
   59.0023   27.6415   45.1301 H   0  0  0  0  0  0  0  0  0  0  0  0
   57.7108   26.5366   45.7483 H   0  0  0  0  0  0  0  0  0  0  0  0
   57.4550   28.6060   46.2920 C   0  0  0  0  0  0  0  0  0  0  0  0
   56.4369   28.2490   46.5064 H   0  0  0  0  0  0  0  0  0  0  0  0
   57.8752   29.1359   47.1596 H   0  0  0  0  0  0  0  0  0  0  0  0
   57.4040   29.5460   45.1560 N   0  0  0  0  0  0  0  0  0  0  0  0
   58.5530   30.1790   44.7680 C   0  0  0  0  0  0  0  0  0  0  0  0
   59.5058   29.9244   45.2552 H   0  0  0  0  0  0  0  0  0  0  0  0
   58.5290   31.1430   43.7620 C   0  0  0  0  0  0  0  0  0  0  0  0
   59.4522   31.6526   43.4489 H   0  0  0  0  0  0  0  0  0  0  0  0
   57.3110   31.4460   43.1630 C   0  0  0  0  0  0  0  0  0  0  0  0
   57.2490   32.3210   42.2590 O   0  0  0  0  0  0  0  0  0  0  0  0
   56.1860   30.7980   43.5550 N   0  0  0  0  0  0  0  0  0  0  0  0
   56.2190   29.8570   44.5360 C   0  0  0  0  0  0  0  0  0  0  0  0
   55.1430   29.2930   44.8720 O   0  0  0  0  0  0  0  0  0  0  0  0
   60.6660   30.5300   47.4870 S   0  0  0  0  0  0  0  0  0  0  0  0
   59.8940   31.4770   48.6520 C   0  0  0  0  0  0  0  0  0  0  0  0
   59.8620   32.9780   48.5720 C   0  0  0  0  0  0  0  0  0  0  0  0
   59.3686   33.3786   49.4698 H   0  0  0  0  0  0  0  0  0  0  0  0
   60.8936   33.3545   48.5085 H   0  0  0  0  0  0  0  0  0  0  0  0
   59.1040   33.4210   47.3500 C   0  0  0  0  0  0  0  0  0  0  0  0
   59.7450   34.1730   46.3510 C   0  0  0  0  0  0  0  0  0  0  0  0
   60.8023   34.4524   46.4698 H   0  0  0  0  0  0  0  0  0  0  0  0
   59.0450   34.5680   45.2060 C   0  0  0  0  0  0  0  0  0  0  0  0
   59.5504   35.1621   44.4303 H   0  0  0  0  0  0  0  0  0  0  0  0
   57.7030   34.2080   45.0470 C   0  0  0  0  0  0  0  0  0  0  0  0
   57.1527   34.5211   44.1475 H   0  0  0  0  0  0  0  0  0  0  0  0
   57.0610   33.4510   46.0300 C   0  0  0  0  0  0  0  0  0  0  0  0
   56.0067   33.1649   45.9011 H   0  0  0  0  0  0  0  0  0  0  0  0
   57.7560   33.0560   47.1780 C   0  0  0  0  0  0  0  0  0  0  0  0
   57.2472   32.4583   47.9486 H   0  0  0  0  0  0  0  0  0  0  0  0
   58.3950   32.3460   51.1500 C   0  0  0  0  0  0  0  0  0  0  0  0
   59.1018   33.0655   50.7111 H   0  0  0  0  0  0  0  0  0  0  0  0
   57.5700   32.7290   52.2110 C   0  0  0  0  0  0  0  0  0  0  0  0
   57.6275   33.7513   52.6131 H   0  0  0  0  0  0  0  0  0  0  0  0
   56.6730   31.8110   52.7590 C   0  0  0  0  0  0  0  0  0  0  0  0
   56.0213   32.1020   53.5960 H   0  0  0  0  0  0  0  0  0  0  0  0
  1  2  1  0
  2  3  2  0
  3  4  1  0
  4  5  1  0
  5  6  1  0
  6  7  1  0
  7  8  2  0
  8  9  1  0
  9 10  2  0
  9 11  1  0
 11 12  1  0
 11 13  1  0
 11 14  1  0
 14 15  1  0
 14 16  1  0
 14 17  1  0
 17 18  1  0
 18 19  1  0
 18 20  2  0
 20 21  1  0
 20 22  1  0
 22 23  2  0
 22 24  1  0
 24 25  1  0
 25 26  2  0
  7 27  1  0
 27 28  1  0
 28 29  1  0
 29 30  1  0
 29 31  1  0
 29 32  1  0
 32 33  2  0
 33 34  1  0
 33 35  1  0
 35 36  1  0
 35 37  2  0
 37 38  1  0
 37 39  1  0
 39 40  1  0
 39 41  2  0
 41 42  1  0
  4 43  2  0
 43 44  1  0
 43 45  1  0
 45 46  1  0
 45 47  2  0
 47 48  1  0
 47  2  1  0
 28  5  2  0
 41 32  1  0
 25 17  1  0
M  CHG  2   6  -1  24  -1
M  END
>  <UniqueID>  (43) 
36

>  <SMILES>  (43) 
O=C(CCn1ccc(=O)[n-]c1=O)/N=c1\[n-]c(-c2ccccn2)c(Cc2ccccc2)s1

>  <Energy>  (43) 
84.48725179165439

>  <Genealogy>  (43) 
O=C(CCn1ccc(=O)[n-]c1=O)N=c1[n-]c(-c2ccccn2)c(Cc2ccccc2)s1 (protonated)
O=C(CCn1ccc(=O)[n-]c1=O)/N=c1\[n-]c(-c2ccccn2)c(Cc2ccccc2)s1 (cis-trans isomerization)
O=C(CCn1ccc(=O)[n-]c1=O)/N=c1\[n-]c(-c2ccccn2)c(Cc2ccccc2)s1 (3D coordinates assigned)
O=C(CCn1ccc(=O)[n-]c1=O)/N=c1\[n-]c(-c2ccccn2)c(Cc2ccccc2)s1 (optimized conformer: 84.48725179165439 kcal/mol)

>  <smiles>  (43) 
O=C(CCn1ccc(=O)[nH]c1=O)N=c1[nH]c(-c2ccccn2)c(Cc2ccccc2)s1

>  <score_type>  (43) 
oracle

>  <origin>  (43) 
adg

>  <m_score__min__energy>  (43) 
-13

>  <m_primary>  (43) 
energy

$$$$
43:0
     RDKit          3D

 53 56  0  0  0  0  0  0  0  0999 V2000
   59.7800   26.5080   47.1560 C   0  0  0  0  0  0  0  0  0  0  0  0
   59.0280   25.5920   46.2500 C   0  0  0  0  0  0  0  0  0  0  0  0
   59.3970   24.3200   45.9950 N   0  0  0  0  0  0  0  0  0  0  0  0
   58.4250   23.7520   45.2930 N   0  0  0  0  0  0  0  0  0  0  0  0
   58.4470   22.3550   44.8750 C   0  0  0  0  0  0  0  0  0  0  0  0
   57.4190   24.6320   45.1020 C   0  0  0  0  0  0  0  0  0  0  0  0
   56.1010   24.3170   44.4660 C   0  0  0  0  0  0  0  0  0  0  0  0
   57.7790   25.8170   45.7090 C   0  0  0  0  0  0  0  0  0  0  0  0
   56.9410   26.9440   45.9650 N   0  0  0  0  0  0  0  0  0  0  0  0
   57.2500   28.4680   45.2060 S   0  0  0  0  0  0  0  0  0  0  0  0
   57.6450   28.2360   43.7750 O   0  0  0  0  0  0  0  0  0  0  0  0
   56.0130   29.3200   45.2340 O   0  0  0  0  0  0  0  0  0  0  0  0
   58.5650   29.2760   46.0530 C   0  0  0  0  0  0  0  0  0  0  0  0
   58.4220   29.6400   47.3980 C   0  0  0  0  0  0  0  0  0  0  0  0
   59.4380   30.3440   48.0490 C   0  0  0  0  0  0  0  0  0  0  0  0
   60.6130   30.6960   47.3620 C   0  0  0  0  0  0  0  0  0  0  0  0
   61.6800   31.4680   48.0390 C   0  0  0  0  0  0  0  0  0  0  0  0
   62.2610   30.9620   49.2160 C   0  0  0  0  0  0  0  0  0  0  0  0
   63.2850   31.6620   49.8580 C   0  0  0  0  0  0  0  0  0  0  0  0
   63.7350   32.8760   49.3380 C   0  0  0  0  0  0  0  0  0  0  0  0
   63.1630   33.3950   48.1760 C   0  0  0  0  0  0  0  0  0  0  0  0
   62.1380   32.6950   47.5120 C   0  0  0  0  0  0  0  0  0  0  0  0
   61.5180   33.2340   46.3730 O   0  0  0  0  0  0  0  0  0  0  0  0
   60.1500   33.5120   46.2490 C   0  0  0  0  0  0  0  0  0  0  0  0
   59.6400   33.8410   44.9880 C   0  0  0  0  0  0  0  0  0  0  0  0
   58.2830   34.1330   44.8280 C   0  0  0  0  0  0  0  0  0  0  0  0
   57.4260   34.1130   45.9330 C   0  0  0  0  0  0  0  0  0  0  0  0
   57.9300   33.8070   47.2000 C   0  0  0  0  0  0  0  0  0  0  0  0
   59.2860   33.5110   47.3620 C   0  0  0  0  0  0  0  0  0  0  0  0
   60.7480   30.3350   46.0100 C   0  0  0  0  0  0  0  0  0  0  0  0
   59.7310   29.6270   45.3630 C   0  0  0  0  0  0  0  0  0  0  0  0
   59.5652   26.2463   48.2026 H   0  0  0  0  0  0  0  0  0  0  0  0
   60.8588   26.4067   46.9667 H   0  0  0  0  0  0  0  0  0  0  0  0
   59.4705   27.5464   46.9667 H   0  0  0  0  0  0  0  0  0  0  0  0
   58.4572   21.7065   45.7635 H   0  0  0  0  0  0  0  0  0  0  0  0
   57.5522   22.1382   44.2731 H   0  0  0  0  0  0  0  0  0  0  0  0
   59.3482   22.1665   44.2731 H   0  0  0  0  0  0  0  0  0  0  0  0
   55.3496   24.1374   45.2490 H   0  0  0  0  0  0  0  0  0  0  0  0
   55.7837   25.1646   43.8408 H   0  0  0  0  0  0  0  0  0  0  0  0
   56.2012   23.4175   43.8408 H   0  0  0  0  0  0  0  0  0  0  0  0
   57.5059   29.3704   47.9439 H   0  0  0  0  0  0  0  0  0  0  0  0
   59.3179   30.6247   49.1058 H   0  0  0  0  0  0  0  0  0  0  0  0
   61.9063   30.0082   49.6337 H   0  0  0  0  0  0  0  0  0  0  0  0
   63.7373   31.2557   50.7747 H   0  0  0  0  0  0  0  0  0  0  0  0
   64.5422   33.4249   49.8450 H   0  0  0  0  0  0  0  0  0  0  0  0
   63.5153   34.3573   47.7762 H   0  0  0  0  0  0  0  0  0  0  0  0
   60.3116   33.8699   44.1173 H   0  0  0  0  0  0  0  0  0  0  0  0
   57.8881   34.3790   43.8312 H   0  0  0  0  0  0  0  0  0  0  0  0
   56.3568   34.3378   45.8050 H   0  0  0  0  0  0  0  0  0  0  0  0
   57.2583   33.7991   48.0711 H   0  0  0  0  0  0  0  0  0  0  0  0
   59.6802   33.2764   48.3618 H   0  0  0  0  0  0  0  0  0  0  0  0
   61.6587   30.6111   45.4583 H   0  0  0  0  0  0  0  0  0  0  0  0
   59.8477   29.3444   44.3064 H   0  0  0  0  0  0  0  0  0  0  0  0
  1  2  1  0
  2  3  2  0
  3  4  1  0
  4  5  1  0
  4  6  1  0
  6  7  1  0
  6  8  2  0
  8  9  1  0
  9 10  1  0
 10 11  2  0
 10 12  2  0
 10 13  1  0
 13 14  2  0
 14 15  1  0
 15 16  2  0
 16 17  1  0
 17 18  2  0
 18 19  1  0
 19 20  2  0
 20 21  1  0
 21 22  2  0
 22 23  1  0
 23 24  1  0
 24 25  2  0
 25 26  1  0
 26 27  2  0
 27 28  1  0
 28 29  2  0
 16 30  1  0
 30 31  2  0
  8  2  1  0
 31 13  1  0
 22 17  1  0
 29 24  1  0
  1 32  1  0
  1 33  1  0
  1 34  1  0
  5 35  1  0
  5 36  1  0
  5 37  1  0
  7 38  1  0
  7 39  1  0
  7 40  1  0
 14 41  1  0
 15 42  1  0
 18 43  1  0
 19 44  1  0
 20 45  1  0
 21 46  1  0
 25 47  1  0
 26 48  1  0
 27 49  1  0
 28 50  1  0
 29 51  1  0
 30 52  1  0
 31 53  1  0
M  CHG  1   9  -1
M  END
>  <UniqueID>  (44) 
37

>  <SMILES>  (44) 
Cc1nn(C)c(C)c1[N-]S(=O)(=O)c1ccc(-c2ccccc2Oc2ccccc2)cc1

>  <Energy>  (44) 
106.05446120778974

>  <Genealogy>  (44) 
Cc1nn(C)c(C)c1[N-]S(=O)(=O)c1ccc(-c2ccccc2Oc2ccccc2)cc1 (protonated)
Cc1nn(C)c(C)c1[N-]S(=O)(=O)c1ccc(-c2ccccc2Oc2ccccc2)cc1 (3D coordinates assigned)
Cc1nn(C)c(C)c1[N-]S(=O)(=O)c1ccc(-c2ccccc2Oc2ccccc2)cc1 (optimized conformer: 106.05446120778974 kcal/mol)

>  <smiles>  (44) 
Cc1nn(C)c(C)c1NS(=O)(=O)c1ccc(-c2ccccc2Oc2ccccc2)cc1

>  <score_type>  (44) 
oracle

>  <origin>  (44) 
adg

>  <m_score__min__energy>  (44) 
-10.58

>  <m_primary>  (44) 
energy

$$$$
44:0
     RDKit          3D

 45 47  0  0  0  0  0  0  0  0999 V2000
   56.6410   29.3890   42.6560 C   0  0  0  0  0  0  0  0  0  0  0  0
   56.4500   29.8890   44.3520 S   0  0  0  0  0  0  0  0  0  0  0  0
   55.1420   29.3890   44.9030 O   0  0  0  0  0  0  0  0  0  0  0  0
   57.5670   29.2990   45.1660 O   0  0  0  0  0  0  0  0  0  0  0  0
   56.5240   31.6180   44.4720 N   0  0  0  0  0  0  0  0  0  0  0  0
   57.4090   32.3620   45.3220 C   0  0  0  0  0  0  0  0  0  0  0  0
   57.6860   33.7270   45.1140 C   0  0  0  0  0  0  0  0  0  0  0  0
   58.5220   34.4150   45.9990 C   0  0  0  0  0  0  0  0  0  0  0  0
   59.0880   33.7530   47.0930 C   0  0  0  0  0  0  0  0  0  0  0  0
   58.8480   32.3890   47.2920 C   0  0  0  0  0  0  0  0  0  0  0  0
   59.4200   31.7360   48.4350 N   0  0  0  0  0  0  0  0  0  0  0  0
   59.5020   30.3170   48.6030 C   0  0  0  0  0  0  0  0  0  0  0  0
   59.3660   29.8290   49.7550 O   0  0  0  0  0  0  0  0  0  0  0  0
   59.7710   29.4250   47.4560 C   0  0  0  0  0  0  0  0  0  0  0  0
   60.5010   29.8930   46.3510 C   0  0  0  0  0  0  0  0  0  0  0  0
   60.7390   29.0570   45.2570 C   0  0  0  0  0  0  0  0  0  0  0  0
   60.2370   27.7520   45.2510 C   0  0  0  0  0  0  0  0  0  0  0  0
   59.4940   27.2790   46.3400 C   0  0  0  0  0  0  0  0  0  0  0  0
   58.7590   25.6790   46.3030 S   0  0  0  0  0  0  0  0  0  0  0  0
   58.1290   25.4030   47.6380 O   0  0  0  0  0  0  0  0  0  0  0  0
   59.7870   24.6160   46.0310 O   0  0  0  0  0  0  0  0  0  0  0  0
   57.5360   25.6400   45.0740 N   0  0  0  0  0  0  0  0  0  0  0  0
   56.3210   24.8780   45.1390 C   0  0  0  0  0  0  0  0  0  0  0  0
   56.2630   23.5310   44.7410 C   0  0  0  0  0  0  0  0  0  0  0  0
   55.0610   22.8270   44.8270 C   0  0  0  0  0  0  0  0  0  0  0  0
   53.9280   23.4680   45.3270 C   0  0  0  0  0  0  0  0  0  0  0  0
   53.9970   24.7700   45.7110 N   0  0  0  0  0  0  0  0  0  0  0  0
   55.1530   25.4830   45.6290 C   0  0  0  0  0  0  0  0  0  0  0  0
   55.1660   26.6890   45.9940 O   0  0  0  0  0  0  0  0  0  0  0  0
   59.2810   28.1100   47.4490 C   0  0  0  0  0  0  0  0  0  0  0  0
   58.0000   31.7020   46.4050 C   0  0  0  0  0  0  0  0  0  0  0  0
   57.0333   28.3620   42.6185 H   0  0  0  0  0  0  0  0  0  0  0  0
   55.6649   29.4274   42.1503 H   0  0  0  0  0  0  0  0  0  0  0  0
   57.3429   30.0684   42.1503 H   0  0  0  0  0  0  0  0  0  0  0  0
   57.2443   34.2525   44.2545 H   0  0  0  0  0  0  0  0  0  0  0  0
   58.7353   35.4814   45.8339 H   0  0  0  0  0  0  0  0  0  0  0  0
   59.7241   34.3064   47.7995 H   0  0  0  0  0  0  0  0  0  0  0  0
   60.8873   30.9229   46.3469 H   0  0  0  0  0  0  0  0  0  0  0  0
   61.3216   29.4257   44.3999 H   0  0  0  0  0  0  0  0  0  0  0  0
   60.4260   27.0953   44.3890 H   0  0  0  0  0  0  0  0  0  0  0  0
   57.1663   23.0311   44.3612 H   0  0  0  0  0  0  0  0  0  0  0  0
   55.0079   21.7770   44.5036 H   0  0  0  0  0  0  0  0  0  0  0  0
   52.9781   22.9197   45.4107 H   0  0  0  0  0  0  0  0  0  0  0  0
   58.7263   27.7288   48.3191 H   0  0  0  0  0  0  0  0  0  0  0  0
   57.7988   30.6324   46.5646 H   0  0  0  0  0  0  0  0  0  0  0  0
  1  2  1  0
  2  3  2  0
  2  4  2  0
  2  5  1  0
  5  6  1  0
  6  7  2  0
  7  8  1  0
  8  9  2  0
  9 10  1  0
 10 11  1  0
 11 12  1  0
 12 13  2  0
 12 14  1  0
 14 15  2  0
 15 16  1  0
 16 17  2  0
 17 18  1  0
 18 19  1  0
 19 20  2  0
 19 21  2  0
 19 22  1  0
 22 23  1  0
 23 24  2  0
 24 25  1  0
 25 26  2  0
 26 27  1  0
 27 28  1  0
 28 29  2  0
 18 30  2  0
 10 31  2  0
 31  6  1  0
 30 14  1  0
 28 23  1  0
  1 32  1  0
  1 33  1  0
  1 34  1  0
  7 35  1  0
  8 36  1  0
  9 37  1  0
 15 38  1  0
 16 39  1  0
 17 40  1  0
 24 41  1  0
 25 42  1  0
 26 43  1  0
 30 44  1  0
 31 45  1  0
M  CHG  4   5  -1  11  -1  22  -1  27  -1
M  END
>  <UniqueID>  (45) 
38

>  <SMILES>  (45) 
CS(=O)(=O)[N-]c1cccc([N-]C(=O)c2cccc(S(=O)(=O)[N-]c3ccc[n-]c3=O)c2)c1

>  <Energy>  (45) 
56.341072756325566

>  <Genealogy>  (45) 
CS(=O)(=O)[N-]c1cccc([N-]C(=O)c2cccc(S(=O)(=O)[N-]c3ccc[n-]c3=O)c2)c1 (protonated)
CS(=O)(=O)[N-]c1cccc([N-]C(=O)c2cccc(S(=O)(=O)[N-]c3ccc[n-]c3=O)c2)c1 (3D coordinates assigned)
CS(=O)(=O)[N-]c1cccc([N-]C(=O)c2cccc(S(=O)(=O)[N-]c3ccc[n-]c3=O)c2)c1 (optimized conformer: 56.341072756325566 kcal/mol)

>  <smiles>  (45) 
CS(=O)(=O)Nc1cccc(NC(=O)c2cccc(S(=O)(=O)Nc3ccc[nH]c3=O)c2)c1

>  <score_type>  (45) 
oracle

>  <origin>  (45) 
adg

>  <m_score__min__energy>  (45) 
-14.98

>  <m_primary>  (45) 
energy

$$$$
45:0
     RDKit          3D

 48 50  0  0  1  0  0  0  0  0999 V2000
   57.4130   25.3650   44.2680 C   0  0  0  0  0  0  0  0  0  0  0  0
   57.2100   25.9770   45.5680 N   0  0  0  0  0  0  0  0  0  0  0  0
   56.6400   25.1560   46.6360 C   0  0  0  0  0  0  0  0  0  0  0  0
   57.5620   27.3500   45.8190 C   0  0  0  0  0  0  0  0  0  0  0  0
   58.5400   27.6400   46.6940 N   0  0  0  0  0  0  0  0  0  0  0  0
   58.9150   28.8920   46.9560 C   0  0  0  0  0  0  0  0  0  0  0  0
   59.8310   29.1810   47.7950 N   0  0  0  0  0  0  0  0  0  0  0  0
   60.2170   30.5120   48.0820 C   0  0  0  0  0  0  0  0  0  0  0  0
   59.5440   31.2570   49.0150 C   0  0  0  0  0  0  0  0  0  0  0  0
   59.9200   32.5610   49.2850 C   0  0  0  0  0  0  0  0  0  0  0  0
   60.9860   33.1090   48.6010 C   0  0  0  0  0  0  0  0  0  0  0  0
   61.6760   32.3810   47.6620 C   0  0  0  0  0  0  0  0  0  0  0  0
   62.7880   33.0200   46.9750 C   0  0  0  0  0  0  0  0  0  0  0  0
   64.1030   32.4530   46.9690 N   0  0  0  0  0  0  0  0  0  0  0  0
   62.5570   34.1080   46.3760 O   0  0  0  0  0  0  0  0  0  0  0  0
   61.2920   31.0870   47.4030 C   0  0  0  0  0  0  0  0  0  0  0  0
   58.2800   29.8860   46.3120 N   0  0  0  0  0  0  0  0  0  0  0  0
   57.2970   29.6010   45.4330 C   0  0  0  0  0  0  0  0  0  0  0  0
   56.7280   30.5790   44.8500 N   0  0  0  0  0  0  0  0  0  0  0  0
   57.4030   31.5000   43.9630 C   0  0  0  0  0  0  0  0  0  0  0  0
   57.8880   32.6130   44.8460 C   0  0  0  0  0  0  0  0  0  0  0  0
   58.8600   33.4680   44.3390 C   0  0  0  0  0  0  0  0  0  0  0  0
   59.3670   34.5210   45.0760 C   0  0  0  0  0  0  0  0  0  0  0  0
   58.8590   34.6860   46.3550 C   0  0  0  0  0  0  0  0  0  0  0  0
   57.8960   33.8500   46.8760 C   0  0  0  0  0  0  0  0  0  0  0  0
   57.3930   32.7930   46.1220 C   0  0  0  0  0  0  0  0  0  0  0  0
   56.9170   28.3590   45.1650 N   0  0  0  0  0  0  0  0  0  0  0  0
   57.7568   24.3285   44.4003 H   0  0  0  0  0  0  0  0  0  0  0  0
   56.4656   25.3685   43.7091 H   0  0  0  0  0  0  0  0  0  0  0  0
   58.1705   25.9340   43.7091 H   0  0  0  0  0  0  0  0  0  0  0  0
   56.9290   25.5722   47.6124 H   0  0  0  0  0  0  0  0  0  0  0  0
   55.5434   25.1514   46.5494 H   0  0  0  0  0  0  0  0  0  0  0  0
   57.0190   24.1270   46.5494 H   0  0  0  0  0  0  0  0  0  0  0  0
   58.6950   30.8131   49.5555 H   0  0  0  0  0  0  0  0  0  0  0  0
   59.3760   33.1534   50.0354 H   0  0  0  0  0  0  0  0  0  0  0  0
   61.2882   34.1456   48.8110 H   0  0  0  0  0  0  0  0  0  0  0  0
   64.3140   31.4640   47.1080 H   0  0  0  0  0  0  0  0  0  0  0  0
   64.8960   33.1130   46.8090 H   0  0  0  0  0  0  0  0  0  0  0  0
   61.8384   30.4978   46.6518 H   0  0  0  0  0  0  0  0  0  0  0  0
   58.5600   30.8930   46.5040 H   0  0  0  0  0  0  0  0  0  0  0  0
   58.2502   31.0054   43.4653 H   0  0  0  0  0  0  0  0  0  0  0  0
   56.7378   31.8666   43.1673 H   0  0  0  0  0  0  0  0  0  0  0  0
   59.2372   33.3009   43.3193 H   0  0  0  0  0  0  0  0  0  0  0  0
   60.1352   35.1945   44.6682 H   0  0  0  0  0  0  0  0  0  0  0  0
   59.2375   35.5122   46.9748 H   0  0  0  0  0  0  0  0  0  0  0  0
   57.5212   34.0189   47.8963 H   0  0  0  0  0  0  0  0  0  0  0  0
   56.6239   32.1213   46.5310 H   0  0  0  0  0  0  0  0  0  0  0  0
   56.1680   28.1740   44.4960 H   0  0  0  0  0  0  0  0  0  0  0  0
  1  2  1  0
  2  3  1  0
  2  4  1  0
  4  5  2  0
  5  6  1  0
  6  7  2  0
  7  8  1  0
  8  9  2  0
  9 10  1  0
 10 11  2  0
 11 12  1  0
 12 13  1  0
 13 14  1  0
 13 15  2  0
 12 16  2  0
  6 17  1  0
 17 18  1  0
 18 19  2  0
 19 20  1  0
 20 21  1  0
 21 22  2  0
 22 23  1  0
 23 24  2  0
 24 25  1  0
 25 26  2  0
 18 27  1  0
 27  4  1  0
 16  8  1  0
 26 21  1  0
  1 28  1  0
  1 29  1  0
  1 30  1  0
  3 31  1  0
  3 32  1  0
  3 33  1  0
  9 34  1  0
 10 35  1  0
 11 36  1  0
 14 37  1  0
 14 38  1  0
 16 39  1  0
 17 40  1  0
 20 41  1  0
 20 42  1  0
 22 43  1  0
 23 44  1  0
 24 45  1  0
 25 46  1  0
 26 47  1  0
 27 48  1  0
M  END
>  <smiles>  (46) 
CN(C)c1nc(=Nc2cccc(C(N)=O)c2)[nH]c(=NCc2ccccc2)[nH]1

>  <score_type>  (46) 
oracle

>  <origin>  (46) 
adg

>  <m_score__min__energy>  (46) 
-8.7899999999999991

>  <m_primary>  (46) 
energy

$$$$
46:0
     RDKit          3D

 56 59  0  0  0  0  0  0  0  0999 V2000
   55.3380   29.7610   44.4930 O   0  0  0  0  0  0  0  0  0  0  0  0
   56.4670   30.3200   44.4520 C   0  0  0  0  0  0  0  0  0  0  0  0
   57.6420   29.5920   43.8710 C   0  0  0  0  0  0  0  0  0  0  0  0
   58.4640   28.9830   44.9380 N   0  0  0  0  0  0  0  0  0  0  0  0
   59.1850   29.8280   45.7380 C   0  0  0  0  0  0  0  0  0  0  0  0
   59.9950   29.3490   46.7730 C   0  0  0  0  0  0  0  0  0  0  0  0
   60.7650   30.3140   47.5950 C   0  0  0  0  0  0  0  0  0  0  0  0
   61.8830   30.7130   47.1700 O   0  0  0  0  0  0  0  0  0  0  0  0
   60.2760   30.8050   48.9080 C   0  0  0  0  0  0  0  0  0  0  0  0
   58.8930   30.9050   49.1530 C   0  0  0  0  0  0  0  0  0  0  0  0
   58.4240   31.3760   50.3830 C   0  0  0  0  0  0  0  0  0  0  0  0
   59.3260   31.7610   51.3780 C   0  0  0  0  0  0  0  0  0  0  0  0
   58.8690   32.2170   52.5700 F   0  0  0  0  0  0  0  0  0  0  0  0
   60.7020   31.6790   51.1410 C   0  0  0  0  0  0  0  0  0  0  0  0
   61.1770   31.2080   49.9130 C   0  0  0  0  0  0  0  0  0  0  0  0
   60.0250   27.9700   47.0280 C   0  0  0  0  0  0  0  0  0  0  0  0
   60.7010   27.5240   47.9980 O   0  0  0  0  0  0  0  0  0  0  0  0
   59.2860   27.0930   46.2170 C   0  0  0  0  0  0  0  0  0  0  0  0
   59.3100   25.7020   46.4520 C   0  0  0  0  0  0  0  0  0  0  0  0
   58.5680   24.8370   45.6510 C   0  0  0  0  0  0  0  0  0  0  0  0
   57.7940   25.3400   44.6100 C   0  0  0  0  0  0  0  0  0  0  0  0
   57.7550   26.7120   44.3600 C   0  0  0  0  0  0  0  0  0  0  0  0
   58.4970   27.6190   45.1570 C   0  0  0  0  0  0  0  0  0  0  0  0
   56.6460   31.6360   44.9860 N   0  0  0  0  0  0  0  0  0  0  0  0
   57.5300   32.6360   44.3980 C   0  0  0  0  0  0  0  0  0  0  0  0
   57.6560   33.8540   45.3220 C   0  0  0  0  0  0  0  0  0  0  0  0
   58.0100   33.4560   46.7610 C   0  0  0  0  0  0  0  0  0  0  0  0
   59.4360   33.6420   47.0320 N   0  0  0  0  0  0  0  0  0  0  0  0
   60.4860   33.5330   46.0330 C   0  0  0  0  0  0  0  0  0  0  0  0
   61.8110   33.8150   46.7720 C   0  0  0  0  0  0  0  0  0  0  0  0
   61.4590   34.1980   48.2190 C   0  0  0  0  0  0  0  0  0  0  0  0
   59.9940   34.0370   48.2700 C   0  0  0  0  0  0  0  0  0  0  0  0
   59.3030   34.2400   49.3050 O   0  0  0  0  0  0  0  0  0  0  0  0
   57.2791   28.8000   43.1994 H   0  0  0  0  0  0  0  0  0  0  0  0
   58.2623   30.3112   43.3161 H   0  0  0  0  0  0  0  0  0  0  0  0
   59.1259   30.9123   45.5623 H   0  0  0  0  0  0  0  0  0  0  0  0
   58.1769   30.6106   48.3716 H   0  0  0  0  0  0  0  0  0  0  0  0
   57.3418   31.4436   50.5678 H   0  0  0  0  0  0  0  0  0  0  0  0
   61.4125   31.9859   51.9227 H   0  0  0  0  0  0  0  0  0  0  0  0
   62.2604   31.1519   49.7308 H   0  0  0  0  0  0  0  0  0  0  0  0
   59.9192   25.2976   47.2738 H   0  0  0  0  0  0  0  0  0  0  0  0
   58.5941   23.7540   45.8419 H   0  0  0  0  0  0  0  0  0  0  0  0
   57.2098   24.6524   43.9808 H   0  0  0  0  0  0  0  0  0  0  0  0
   57.1397   27.0952   43.5326 H   0  0  0  0  0  0  0  0  0  0  0  0
   58.5254   32.1936   44.2450 H   0  0  0  0  0  0  0  0  0  0  0  0
   57.1071   32.9621   43.4363 H   0  0  0  0  0  0  0  0  0  0  0  0
   58.4453   34.5138   44.9326 H   0  0  0  0  0  0  0  0  0  0  0  0
   56.6817   34.3642   45.3428 H   0  0  0  0  0  0  0  0  0  0  0  0
   57.4293   34.0787   47.4575 H   0  0  0  0  0  0  0  0  0  0  0  0
   57.7687   32.3911   46.8945 H   0  0  0  0  0  0  0  0  0  0  0  0
   60.4979   32.5217   45.6005 H   0  0  0  0  0  0  0  0  0  0  0  0
   60.3287   34.2409   45.2059 H   0  0  0  0  0  0  0  0  0  0  0  0
   62.4442   32.9155   46.7647 H   0  0  0  0  0  0  0  0  0  0  0  0
   62.3648   34.6277   46.2792 H   0  0  0  0  0  0  0  0  0  0  0  0
   61.9538   33.5256   48.9353 H   0  0  0  0  0  0  0  0  0  0  0  0
   61.7884   35.2129   48.4862 H   0  0  0  0  0  0  0  0  0  0  0  0
  1  2  2  0
  2  3  1  0
  3  4  1  0
  4  5  1  0
  5  6  2  0
  6  7  1  0
  7  8  2  0
  7  9  1  0
  9 10  2  0
 10 11  1  0
 11 12  2  0
 12 13  1  0
 12 14  1  0
 14 15  2  0
  6 16  1  0
 16 17  2  0
 16 18  1  0
 18 19  2  0
 19 20  1  0
 20 21  2  0
 21 22  1  0
 22 23  2  0
  2 24  1  0
 24 25  1  0
 25 26  1  0
 26 27  1  0
 27 28  1  0
 28 29  1  0
 29 30  1  0
 30 31  1  0
 31 32  1  0
 32 33  2  0
 23  4  1  0
 32 28  1  0
 15  9  1  0
 23 18  1  0
  3 34  1  0
  3 35  1  0
  5 36  1  0
 10 37  1  0
 11 38  1  0
 14 39  1  0
 15 40  1  0
 19 41  1  0
 20 42  1  0
 21 43  1  0
 22 44  1  0
 25 45  1  0
 25 46  1  0
 26 47  1  0
 26 48  1  0
 27 49  1  0
 27 50  1  0
 29 51  1  0
 29 52  1  0
 30 53  1  0
 30 54  1  0
 31 55  1  0
 31 56  1  0
M  CHG  1  24  -1
M  END
>  <UniqueID>  (47) 
39

>  <SMILES>  (47) 
O=C(Cn1cc(C(=O)c2ccc(F)cc2)c(=O)c2ccccc21)[N-]CCCN1CCCC1=O

>  <Energy>  (47) 
75.1995945250491

>  <Genealogy>  (47) 
O=C(Cn1cc(C(=O)c2ccc(F)cc2)c(=O)c2ccccc21)[N-]CCCN1CCCC1=O (protonated)
O=C(Cn1cc(C(=O)c2ccc(F)cc2)c(=O)c2ccccc21)[N-]CCCN1CCCC1=O (3D coordinates assigned)
O=C(Cn1cc(C(=O)c2ccc(F)cc2)c(=O)c2ccccc21)[N-]CCCN1CCCC1=O (nonaromatic ring conformer: 75.1995945250491 kcal/mol)

>  <smiles>  (47) 
O=C(Cn1cc(C(=O)c2ccc(F)cc2)c(=O)c2ccccc21)NCCCN1CCCC1=O

>  <score_type>  (47) 
oracle

>  <origin>  (47) 
adg

>  <m_score__min__energy>  (47) 
-10.960000000000001

>  <m_primary>  (47) 
energy

$$$$
47:0
     RDKit          3D

 71 74  0  0  0  0  0  0  0  0999 V2000
   66.0706   31.3151   50.2159 H   0  0  0  0  0  0  0  0  0  0  0  0
   65.0490   31.5880   50.5190 C   0  0  0  0  0  0  0  0  0  0  0  0
   64.3430   32.5640   49.6640 C   0  0  0  0  0  0  0  0  0  0  0  0
   65.0370   33.3620   48.9780 O   0  0  0  0  0  0  0  0  0  0  0  0
   62.9080   32.6790   49.6650 N   0  0  0  0  0  0  0  0  0  0  0  0
   62.3720   32.2590   50.4600 H   0  0  0  0  0  0  0  0  0  0  0  0
   62.1800   33.3310   48.6090 C   0  0  0  0  0  0  0  0  0  0  0  0
   62.7930   33.8360   47.6280 O   0  0  0  0  0  0  0  0  0  0  0  0
   60.6830   33.4570   48.6650 C   0  0  1  0  0  0  0  0  0  0  0  0
   60.2287   32.5435   48.2537 H   0  0  0  0  0  0  0  0  0  0  0  0
   60.2510   33.6140   50.0560 N   0  0  0  0  0  0  0  0  0  0  0  0
   59.0140   33.0900   50.5500 C   0  0  0  0  0  0  0  0  0  0  0  0
   58.5960   33.4490   51.6830 O   0  0  0  0  0  0  0  0  0  0  0  0
   58.2820   32.1840   49.7740 O   0  0  0  0  0  0  0  0  0  0  0  0
   58.5510   30.7870   49.7410 C   0  0  0  0  0  0  0  0  0  0  0  0
   59.2017   30.5148   50.5851 H   0  0  0  0  0  0  0  0  0  0  0  0
   57.6109   30.2212   49.8191 H   0  0  0  0  0  0  0  0  0  0  0  0
   59.2400   30.4620   48.4450 C   0  0  0  0  0  0  0  0  0  0  0  0
   60.6400   30.3470   48.4110 C   0  0  0  0  0  0  0  0  0  0  0  0
   61.2200   30.4462   49.3404 H   0  0  0  0  0  0  0  0  0  0  0  0
   61.3000   30.1070   47.2010 C   0  0  0  0  0  0  0  0  0  0  0  0
   62.3954   30.0087   47.1822 H   0  0  0  0  0  0  0  0  0  0  0  0
   60.5670   29.9920   46.0150 C   0  0  0  0  0  0  0  0  0  0  0  0
   61.0866   29.8095   45.0628 H   0  0  0  0  0  0  0  0  0  0  0  0
   59.1740   30.1090   46.0400 C   0  0  0  0  0  0  0  0  0  0  0  0
   58.5983   30.0170   45.1072 H   0  0  0  0  0  0  0  0  0  0  0  0
   58.5110   30.3430   47.2500 C   0  0  0  0  0  0  0  0  0  0  0  0
   57.4149   30.4341   47.2655 H   0  0  0  0  0  0  0  0  0  0  0  0
   60.2170   34.6520   47.8160 C   0  0  0  0  0  0  0  0  0  0  0  0
   59.7224   35.3838   48.4716 H   0  0  0  0  0  0  0  0  0  0  0  0
   61.1000   35.0922   47.3295 H   0  0  0  0  0  0  0  0  0  0  0  0
   59.2500   34.2280   46.7400 C   0  0  0  0  0  0  0  0  0  0  0  0
   59.6510   34.2170   45.3940 C   0  0  0  0  0  0  0  0  0  0  0  0
   60.6620   34.5529   45.1200 H   0  0  0  0  0  0  0  0  0  0  0  0
   58.7680   33.7800   44.4010 C   0  0  0  0  0  0  0  0  0  0  0  0
   59.0830   33.7783   43.3471 H   0  0  0  0  0  0  0  0  0  0  0  0
   57.4840   33.3450   44.7480 C   0  0  0  0  0  0  0  0  0  0  0  0
   56.7906   33.0011   43.9664 H   0  0  0  0  0  0  0  0  0  0  0  0
   57.0820   33.3470   46.0850 C   0  0  0  0  0  0  0  0  0  0  0  0
   56.0736   33.0010   46.3560 H   0  0  0  0  0  0  0  0  0  0  0  0
   57.9590   33.7880   47.0790 C   0  0  0  0  0  0  0  0  0  0  0  0
   57.6379   33.7909   48.1311 H   0  0  0  0  0  0  0  0  0  0  0  0
   64.5730   31.0000   51.6270 C   0  0  0  0  0  0  0  0  0  0  0  0
   65.3149   30.5578   52.3082 H   0  0  0  0  0  0  0  0  0  0  0  0
   63.1540   30.8850   52.0270 C   0  0  0  0  0  0  0  0  0  0  0  0
   62.3770   29.8630   51.4680 C   0  0  0  0  0  0  0  0  0  0  0  0
   62.8474   29.1233   50.8035 H   0  0  0  0  0  0  0  0  0  0  0  0
   61.0120   29.7730   51.7450 C   0  0  0  0  0  0  0  0  0  0  0  0
   60.4166   28.9613   51.3016 H   0  0  0  0  0  0  0  0  0  0  0  0
   60.3950   30.7110   52.5850 C   0  0  0  0  0  0  0  0  0  0  0  0
   58.9400   30.6420   52.8430 C   0  0  0  0  0  0  0  0  0  0  0  0
   58.3640   31.5880   53.4480 O   0  0  0  0  0  0  0  0  0  0  0  0
   58.1720   29.5130   52.4010 N   0  0  0  0  0  0  0  0  0  0  0  0
   58.5590   28.8950   51.6510 H   0  0  0  0  0  0  0  0  0  0  0  0
   56.8010   29.3370   52.7780 C   0  0  0  0  0  0  0  0  0  0  0  0
   56.4470   28.2360   53.5730 C   0  0  0  0  0  0  0  0  0  0  0  0
   57.2174   27.5165   53.8875 H   0  0  0  0  0  0  0  0  0  0  0  0
   55.1200   28.0510   53.9660 C   0  0  0  0  0  0  0  0  0  0  0  0
   54.8462   27.1849   54.5863 H   0  0  0  0  0  0  0  0  0  0  0  0
   54.1400   28.9650   53.5720 C   0  0  0  0  0  0  0  0  0  0  0  0
   53.0949   28.8156   53.8809 H   0  0  0  0  0  0  0  0  0  0  0  0
   54.4830   30.0680   52.7870 C   0  0  0  0  0  0  0  0  0  0  0  0
   53.7068   30.7853   52.4820 H   0  0  0  0  0  0  0  0  0  0  0  0
   55.8140   30.2660   52.3850 C   0  0  0  0  0  0  0  0  0  0  0  0
   56.1570   31.4270   51.6210 N   0  0  0  0  0  0  0  0  0  0  0  0
   55.4780   31.8600   50.9560 H   0  0  0  0  0  0  0  0  0  0  0  0
   57.1250   31.8220   51.6520 H   0  0  0  0  0  0  0  0  0  0  0  0
   61.1720   31.7320   53.1580 C   0  0  0  0  0  0  0  0  0  0  0  0
   60.7049   32.4562   53.8416 H   0  0  0  0  0  0  0  0  0  0  0  0
   62.5370   31.8330   52.8640 C   0  0  0  0  0  0  0  0  0  0  0  0
   63.1295   32.6566   53.2889 H   0  0  0  0  0  0  0  0  0  0  0  0
  1  2  1  0
  2  3  1  0
  3  4  2  0
  3  5  1  0
  5  6  1  0
  5  7  1  0
  7  8  2  0
  7  9  1  0
  9 10  1  6
  9 11  1  0
 11 12  1  0
 12 13  2  0
 12 14  1  0
 14 15  1  0
 15 16  1  0
 15 17  1  0
 15 18  1  0
 18 19  2  0
 19 20  1  0
 19 21  1  0
 21 22  1  0
 21 23  2  0
 23 24  1  0
 23 25  1  0
 25 26  1  0
 25 27  2  0
 27 28  1  0
  9 29  1  0
 29 30  1  0
 29 31  1  0
 29 32  1  0
 32 33  2  0
 33 34  1  0
 33 35  1  0
 35 36  1  0
 35 37  2  0
 37 38  1  0
 37 39  1  0
 39 40  1  0
 39 41  2  0
 41 42  1  0
  2 43  2  0
 43 44  1  0
 43 45  1  0
 45 46  2  0
 46 47  1  0
 46 48  1  0
 48 49  1  0
 48 50  2  0
 50 51  1  0
 51 52  2  0
 51 53  1  0
 53 54  1  0
 53 55  1  0
 55 56  2  0
 56 57  1  0
 56 58  1  0
 58 59  1  0
 58 60  2  0
 60 61  1  0
 60 62  1  0
 62 63  1  0
 62 64  2  0
 64 65  1  0
 65 66  1  0
 65 67  1  0
 50 68  1  0
 68 69  1  0
 68 70  2  0
 70 71  1  0
 27 18  1  0
 41 32  1  0
 70 45  1  0
 64 55  1  0
M  CHG  1  11  -1
M  END
>  <UniqueID>  (48) 
40

>  <SMILES>  (48) 
Nc1ccccc1NC(=O)c1ccc(/C=C\C(=O)NC(=O)[C@H](Cc2ccccc2)[N-]C(=O)OCc2ccccc2)cc1

>  <Energy>  (48) 
80.9150866305976

>  <Genealogy>  (48) 
Nc1ccccc1NC(=O)c1ccc(C=CC(=O)NC(=O)C(Cc2ccccc2)[N-]C(=O)OCc2ccccc2)cc1 (protonated)
Nc1ccccc1NC(=O)c1ccc(C=CC(=O)NC(=O)[C@H](Cc2ccccc2)[N-]C(=O)OCc2ccccc2)cc1 (chirality)
Nc1ccccc1NC(=O)c1ccc(/C=C\C(=O)NC(=O)[C@H](Cc2ccccc2)[N-]C(=O)OCc2ccccc2)cc1 (cis-trans isomerization)
Nc1ccccc1NC(=O)c1ccc(/C=C\C(=O)NC(=O)[C@H](Cc2ccccc2)[N-]C(=O)OCc2ccccc2)cc1 (3D coordinates assigned)
Nc1ccccc1NC(=O)c1ccc(/C=C\C(=O)NC(=O)[C@H](Cc2ccccc2)[N-]C(=O)OCc2ccccc2)cc1 (optimized conformer: 80.9150866305976 kcal/mol)

>  <smiles>  (48) 
Nc1ccccc1NC(=O)c1ccc(C=CC(=O)NC(=O)C(Cc2ccccc2)NC(=O)OCc2ccccc2)cc1

>  <score_type>  (48) 
oracle

>  <origin>  (48) 
adg

>  <m_score__min__energy>  (48) 
-12.119999999999999

>  <m_primary>  (48) 
energy

$$$$
48:0
     RDKit          3D

 47 49  0  0  0  0  0  0  0  0999 V2000
   60.3640   28.7890   44.8980 C   0  0  0  0  0  0  0  0  0  0  0  0
   59.0590   28.5570   45.1710 C   0  0  0  0  0  0  0  0  0  0  0  0
   58.7280   27.4470   45.9880 C   0  0  0  0  0  0  0  0  0  0  0  0
   59.6350   26.7460   46.5230 O   0  0  0  0  0  0  0  0  0  0  0  0
   57.3790   27.1230   46.1880 C   0  0  0  0  0  0  0  0  0  0  0  0
   57.0060   26.0780   46.9500 C   0  0  0  0  0  0  0  0  0  0  0  0
   56.9190   24.6750   46.4020 C   0  0  0  0  0  0  0  0  0  0  0  0
   55.6520   24.4640   45.5620 C   0  0  0  0  0  0  0  0  0  0  0  0
   55.7520   23.2350   44.7440 N   0  0  0  0  0  0  0  0  0  0  0  0
   56.6200   22.2260   45.3810 C   0  0  0  0  0  0  0  0  0  0  0  0
   56.6530   20.9410   44.5240 C   0  0  0  0  0  0  0  0  0  0  0  0
   56.0590   21.1240   43.2510 O   0  0  0  0  0  0  0  0  0  0  0  0
   56.6180   22.2610   42.6220 C   0  0  0  0  0  0  0  0  0  0  0  0
   56.2570   23.5470   43.3910 C   0  0  0  0  0  0  0  0  0  0  0  0
   56.4320   27.8760   45.5800 N   0  0  0  0  0  0  0  0  0  0  0  0
   56.7310   28.9530   44.8190 C   0  0  0  0  0  0  0  0  0  0  0  0
   55.4670   29.7470   44.1230 S   0  0  0  0  0  0  0  0  0  0  0  0
   58.0440   29.3450   44.6420 N   0  0  0  0  0  0  0  0  0  0  0  0
   58.3290   30.6130   43.9200 C   0  0  0  0  0  0  0  0  0  0  0  0
   58.1220   31.8330   44.7910 C   0  0  0  0  0  0  0  0  0  0  0  0
   58.3120   31.7240   46.1810 C   0  0  0  0  0  0  0  0  0  0  0  0
   58.1590   32.8420   47.0070 C   0  0  0  0  0  0  0  0  0  0  0  0
   57.8290   34.0820   46.4540 C   0  0  0  0  0  0  0  0  0  0  0  0
   57.6550   34.2060   45.0730 C   0  0  0  0  0  0  0  0  0  0  0  0
   57.8060   33.0920   44.2430 C   0  0  0  0  0  0  0  0  0  0  0  0
   60.6505   29.6431   44.2667 H   0  0  0  0  0  0  0  0  0  0  0  0
   61.1383   28.1235   45.3074 H   0  0  0  0  0  0  0  0  0  0  0  0
   56.7564   26.2527   48.0070 H   0  0  0  0  0  0  0  0  0  0  0  0
   57.7995   24.4850   45.7707 H   0  0  0  0  0  0  0  0  0  0  0  0
   56.8824   23.9792   47.2532 H   0  0  0  0  0  0  0  0  0  0  0  0
   54.7857   24.3782   46.2344 H   0  0  0  0  0  0  0  0  0  0  0  0
   55.5343   25.3240   44.8863 H   0  0  0  0  0  0  0  0  0  0  0  0
   57.6395   22.6286   45.4734 H   0  0  0  0  0  0  0  0  0  0  0  0
   56.2224   21.9851   46.3779 H   0  0  0  0  0  0  0  0  0  0  0  0
   57.7008   20.6367   44.3842 H   0  0  0  0  0  0  0  0  0  0  0  0
   56.0760   20.1695   45.0549 H   0  0  0  0  0  0  0  0  0  0  0  0
   57.7124   22.1545   42.5918 H   0  0  0  0  0  0  0  0  0  0  0  0
   56.2113   22.3347   41.6026 H   0  0  0  0  0  0  0  0  0  0  0  0
   57.1547   24.1766   43.4792 H   0  0  0  0  0  0  0  0  0  0  0  0
   55.4668   24.0747   42.8368 H   0  0  0  0  0  0  0  0  0  0  0  0
   59.3742   30.5970   43.5774 H   0  0  0  0  0  0  0  0  0  0  0  0
   57.6283   30.6820   43.0749 H   0  0  0  0  0  0  0  0  0  0  0  0
   58.5827   30.7528   46.6208 H   0  0  0  0  0  0  0  0  0  0  0  0
   58.2987   32.7451   48.0938 H   0  0  0  0  0  0  0  0  0  0  0  0
   57.7063   34.9600   47.1052 H   0  0  0  0  0  0  0  0  0  0  0  0
   57.3985   35.1833   44.6381 H   0  0  0  0  0  0  0  0  0  0  0  0
   57.6774   33.1986   43.1557 H   0  0  0  0  0  0  0  0  0  0  0  0
  1  2  2  0
  2  3  1  0
  3  4  2  0
  3  5  1  0
  5  6  2  3
  6  7  1  0
  7  8  1  0
  8  9  1  0
  9 10  1  0
 10 11  1  0
 11 12  1  0
 12 13  1  0
 13 14  1  0
  5 15  1  0
 15 16  1  0
 16 17  2  0
 16 18  1  0
 18 19  1  0
 19 20  1  0
 20 21  2  0
 21 22  1  0
 22 23  2  0
 23 24  1  0
 24 25  2  0
 18  2  1  0
 25 20  1  0
 14  9  1  0
  1 26  1  0
  1 27  1  0
  6 28  1  0
  7 29  1  0
  7 30  1  0
  8 31  1  0
  8 32  1  0
 10 33  1  0
 10 34  1  0
 11 35  1  0
 11 36  1  0
 13 37  1  0
 13 38  1  0
 14 39  1  0
 14 40  1  0
 19 41  1  0
 19 42  1  0
 21 43  1  0
 22 44  1  0
 23 45  1  0
 24 46  1  0
 25 47  1  0
M  CHG  1  15  -1
M  END
>  <UniqueID>  (49) 
41

>  <SMILES>  (49) 
C=c1c(=O)c(=CCCN2CCOCC2)[n-]c(=S)n1Cc1ccccc1

>  <Energy>  (49) 
72.60727953008839

>  <Genealogy>  (49) 
C=c1c(=O)c(=CCCN2CCOCC2)[n-]c(=S)n1Cc1ccccc1 (protonated)
C=c1c(=O)c(=CCCN2CCOCC2)[n-]c(=S)n1Cc1ccccc1 (3D coordinates assigned)
C=c1c(=O)c(=CCCN2CCOCC2)[n-]c(=S)n1Cc1ccccc1 (nonaromatic ring conformer: 72.60727953008839 kcal/mol)

>  <smiles>  (49) 
C=c1c(=O)c(=CCCN2CCOCC2)[nH]c(=S)n1Cc1ccccc1

>  <score_type>  (49) 
oracle

>  <origin>  (49) 
adg

>  <m_score__min__energy>  (49) 
-9.8499999999999996

>  <m_primary>  (49) 
energy

$$$$
49:0
     RDKit          3D

 46 47  0  0  0  0  0  0  0  0999 V2000
   59.4560   31.9250   49.5410 C   0  0  0  0  0  0  0  0  0  0  0  0
   59.1320   32.3640   48.1320 C   0  0  0  0  0  0  0  0  0  0  0  0
   58.4220   31.5180   47.3360 N   0  0  0  0  0  0  0  0  0  0  0  0
   58.0600   31.8410   46.0640 C   0  0  0  0  0  0  0  0  0  0  0  0
   57.3230   30.9370   45.2830 O   0  0  0  0  0  0  0  0  0  0  0  0
   57.4140   29.5420   45.3750 C   0  0  0  0  0  0  0  0  0  0  0  0
   57.8190   28.9900   46.4350 O   0  0  0  0  0  0  0  0  0  0  0  0
   57.1050   28.7080   44.1640 C   0  0  0  0  0  0  0  0  0  0  0  0
   56.6490   29.5980   43.0040 C   0  0  0  0  0  0  0  0  0  0  0  0
   58.3200   27.8640   43.7640 C   0  0  0  0  0  0  0  0  0  0  0  0
   58.3890   33.1010   45.5360 C   0  0  0  0  0  0  0  0  0  0  0  0
   57.9230   33.4680   44.1450 C   0  0  0  0  0  0  0  0  0  0  0  0
   59.1930   33.9840   46.3030 C   0  0  0  0  0  0  0  0  0  0  0  0
   59.6380   35.3120   45.7170 C   0  0  0  0  0  0  0  0  0  0  0  0
   59.5290   33.6330   47.6410 C   0  0  0  0  0  0  0  0  0  0  0  0
   60.3020   34.5880   48.5440 C   0  0  0  0  0  0  0  0  0  0  0  0
   61.6920   34.0880   48.8720 C   0  0  0  0  0  0  0  0  0  0  0  0
   62.5350   33.5550   47.8770 C   0  0  0  0  0  0  0  0  0  0  0  0
   63.8270   33.1280   48.1990 C   0  0  0  0  0  0  0  0  0  0  0  0
   64.2970   33.2410   49.5100 C   0  0  0  0  0  0  0  0  0  0  0  0
   65.9190   32.7040   49.9110 Cl  0  0  0  0  0  0  0  0  0  0  0  0
   63.4750   33.7850   50.5010 C   0  0  0  0  0  0  0  0  0  0  0  0
   62.1830   34.2130   50.1830 C   0  0  0  0  0  0  0  0  0  0  0  0
   58.9603   32.5966   50.2574 H   0  0  0  0  0  0  0  0  0  0  0  0
   59.0991   30.8961   49.6957 H   0  0  0  0  0  0  0  0  0  0  0  0
   60.5444   31.9627   49.6957 H   0  0  0  0  0  0  0  0  0  0  0  0
   58.1030   30.6060   47.7310 H   0  0  0  0  0  0  0  0  0  0  0  0
   56.2828   28.0211   44.4133 H   0  0  0  0  0  0  0  0  0  0  0  0
   56.1816   30.5102   43.4035 H   0  0  0  0  0  0  0  0  0  0  0  0
   57.5183   29.8711   42.3877 H   0  0  0  0  0  0  0  0  0  0  0  0
   55.9196   29.0520   42.3877 H   0  0  0  0  0  0  0  0  0  0  0  0
   58.8330   27.5076   44.6694 H   0  0  0  0  0  0  0  0  0  0  0  0
   57.9871   27.0016   43.1677 H   0  0  0  0  0  0  0  0  0  0  0  0
   59.0119   28.4769   43.1677 H   0  0  0  0  0  0  0  0  0  0  0  0
   57.0605   34.1472   44.2145 H   0  0  0  0  0  0  0  0  0  0  0  0
   58.7404   33.9675   43.6043 H   0  0  0  0  0  0  0  0  0  0  0  0
   57.6290   32.5563   43.6043 H   0  0  0  0  0  0  0  0  0  0  0  0
   59.8727   36.0123   46.5322 H   0  0  0  0  0  0  0  0  0  0  0  0
   60.5335   35.1576   45.0971 H   0  0  0  0  0  0  0  0  0  0  0  0
   58.8303   35.7283   45.0971 H   0  0  0  0  0  0  0  0  0  0  0  0
   60.3887   35.5597   48.0358 H   0  0  0  0  0  0  0  0  0  0  0  0
   59.7477   34.6710   49.4905 H   0  0  0  0  0  0  0  0  0  0  0  0
   62.1748   33.4743   46.8408 H   0  0  0  0  0  0  0  0  0  0  0  0
   64.4748   32.7022   47.4185 H   0  0  0  0  0  0  0  0  0  0  0  0
   63.8455   33.8764   51.5327 H   0  0  0  0  0  0  0  0  0  0  0  0
   61.5454   34.6511   50.9650 H   0  0  0  0  0  0  0  0  0  0  0  0
  1  2  1  0
  2  3  2  0
  3  4  1  0
  4  5  1  0
  5  6  1  0
  6  7  2  0
  6  8  1  0
  8  9  1  0
  8 10  1  0
  4 11  2  0
 11 12  1  0
 11 13  1  0
 13 14  1  0
 13 15  2  0
 15 16  1  0
 16 17  1  0
 17 18  2  0
 18 19  1  0
 19 20  2  0
 20 21  1  0
 20 22  1  0
 22 23  2  0
 15  2  1  0
 23 17  1  0
  1 24  1  0
  1 25  1  0
  1 26  1  0
  3 27  1  0
  8 28  1  0
  9 29  1  0
  9 30  1  0
  9 31  1  0
 10 32  1  0
 10 33  1  0
 10 34  1  0
 12 35  1  0
 12 36  1  0
 12 37  1  0
 14 38  1  0
 14 39  1  0
 14 40  1  0
 16 41  1  0
 16 42  1  0
 18 43  1  0
 19 44  1  0
 22 45  1  0
 23 46  1  0
M  CHG  1   3   1
M  END
>  <UniqueID>  (50) 
42

>  <SMILES>  (50) 
Cc1[nH+]c(OC(=O)C(C)C)c(C)c(C)c1Cc1ccc(Cl)cc1

>  <Energy>  (50) 
51.35420549546307

>  <Genealogy>  (50) 
Cc1[nH+]c(OC(=O)C(C)C)c(C)c(C)c1Cc1ccc(Cl)cc1 (protonated)
Cc1[nH+]c(OC(=O)C(C)C)c(C)c(C)c1Cc1ccc(Cl)cc1 (3D coordinates assigned)
Cc1[nH+]c(OC(=O)C(C)C)c(C)c(C)c1Cc1ccc(Cl)cc1 (optimized conformer: 51.35420549546307 kcal/mol)

>  <smiles>  (50) 
Cc1nc(OC(=O)C(C)C)c(C)c(C)c1Cc1ccc(Cl)cc1

>  <score_type>  (50) 
oracle

>  <origin>  (50) 
adg

>  <m_score__min__energy>  (50) 
-6.4699999999999998

>  <m_primary>  (50) 
energy

$$$$
50:0
     RDKit          3D

 41 42  0  0  0  0  0  0  0  0999 V2000
   54.7540   22.9350   47.9450 C   0  0  0  0  0  0  0  0  0  0  0  0
   54.0240   23.6630   46.9650 O   0  0  0  0  0  0  0  0  0  0  0  0
   54.2120   23.4820   45.5930 C   0  0  0  0  0  0  0  0  0  0  0  0
   53.2150   23.3400   44.8330 O   0  0  0  0  0  0  0  0  0  0  0  0
   55.5690   23.4320   45.0190 C   0  0  0  0  0  0  0  0  0  0  0  0
   56.1730   22.1060   44.1760 S   0  0  0  0  0  0  0  0  0  0  0  0
   57.7040   22.7280   43.8830 C   0  0  0  0  0  0  0  0  0  0  0  0
   57.7690   23.9950   44.4440 C   0  0  0  0  0  0  0  0  0  0  0  0
   56.5800   24.4020   45.0730 C   0  0  0  0  0  0  0  0  0  0  0  0
   56.4270   25.9900   45.8270 S   0  0  0  0  0  0  0  0  0  0  0  0
   57.0910   25.9600   47.1750 O   0  0  0  0  0  0  0  0  0  0  0  0
   54.9730   26.3400   45.9940 O   0  0  0  0  0  0  0  0  0  0  0  0
   57.2090   27.1980   44.8520 N   0  0  0  0  0  0  0  0  0  0  0  0
   57.2160   28.4830   45.5520 C   0  0  0  0  0  0  0  0  0  0  0  0
   56.2210   29.4250   44.9340 C   0  0  0  0  0  0  0  0  0  0  0  0
   55.1230   28.9900   44.4980 O   0  0  0  0  0  0  0  0  0  0  0  0
   56.5120   30.8200   44.7930 N   0  0  0  0  0  0  0  0  0  0  0  0
   57.7920   31.3450   44.3330 C   0  0  0  0  0  0  0  0  0  0  0  0
   58.4030   32.1870   45.4140 C   0  0  0  0  0  0  0  0  0  0  0  0
   58.1390   33.5640   45.4760 C   0  0  0  0  0  0  0  0  0  0  0  0
   58.6810   34.3420   46.5020 C   0  0  0  0  0  0  0  0  0  0  0  0
   59.4750   33.7480   47.4950 C   0  0  0  0  0  0  0  0  0  0  0  0
   60.0880   34.5890   48.5760 C   0  0  0  0  0  0  0  0  0  0  0  0
   59.7410   32.3720   47.4340 C   0  0  0  0  0  0  0  0  0  0  0  0
   59.1990   31.5940   46.4070 C   0  0  0  0  0  0  0  0  0  0  0  0
   54.4362   23.2519   48.9493 H   0  0  0  0  0  0  0  0  0  0  0  0
   54.5609   21.8591   47.8218 H   0  0  0  0  0  0  0  0  0  0  0  0
   55.8294   23.1310   47.8218 H   0  0  0  0  0  0  0  0  0  0  0  0
   58.5147   22.2195   43.3406 H   0  0  0  0  0  0  0  0  0  0  0  0
   58.6701   24.6245   44.4005 H   0  0  0  0  0  0  0  0  0  0  0  0
   56.9538   28.3213   46.6080 H   0  0  0  0  0  0  0  0  0  0  0  0
   58.2202   28.9250   45.4738 H   0  0  0  0  0  0  0  0  0  0  0  0
   58.4664   30.5097   44.0932 H   0  0  0  0  0  0  0  0  0  0  0  0
   57.6355   31.9587   43.4336 H   0  0  0  0  0  0  0  0  0  0  0  0
   57.5016   34.0334   44.7123 H   0  0  0  0  0  0  0  0  0  0  0  0
   58.4847   35.4239   46.5316 H   0  0  0  0  0  0  0  0  0  0  0  0
   59.7977   34.1907   49.5594 H   0  0  0  0  0  0  0  0  0  0  0  0
   61.1836   34.5674   48.4805 H   0  0  0  0  0  0  0  0  0  0  0  0
   59.7320   35.6254   48.4805 H   0  0  0  0  0  0  0  0  0  0  0  0
   60.3789   31.9032   48.1977 H   0  0  0  0  0  0  0  0  0  0  0  0
   59.3970   30.5124   46.3766 H   0  0  0  0  0  0  0  0  0  0  0  0
  1  2  1  0
  2  3  1  0
  3  4  2  0
  3  5  1  0
  5  6  1  0
  6  7  1  0
  7  8  2  0
  8  9  1  0
  9 10  1  0
 10 11  2  0
 10 12  2  0
 10 13  1  0
 13 14  1  0
 14 15  1  0
 15 16  2  0
 15 17  1  0
 17 18  1  0
 18 19  1  0
 19 20  2  0
 20 21  1  0
 21 22  2  0
 22 23  1  0
 22 24  1  0
 24 25  2  0
  9  5  2  0
 25 19  1  0
  1 26  1  0
  1 27  1  0
  1 28  1  0
  7 29  1  0
  8 30  1  0
 14 31  1  0
 14 32  1  0
 18 33  1  0
 18 34  1  0
 20 35  1  0
 21 36  1  0
 23 37  1  0
 23 38  1  0
 23 39  1  0
 24 40  1  0
 25 41  1  0
M  CHG  2  13  -1  17  -1
M  END
>  <UniqueID>  (51) 
43

>  <SMILES>  (51) 
COC(=O)c1sccc1S(=O)(=O)[N-]CC(=O)[N-]Cc1ccc(C)cc1

>  <Energy>  (51) 
60.72754670379561

>  <Genealogy>  (51) 
COC(=O)c1sccc1S(=O)(=O)[N-]CC(=O)[N-]Cc1ccc(C)cc1 (protonated)
COC(=O)c1sccc1S(=O)(=O)[N-]CC(=O)[N-]Cc1ccc(C)cc1 (3D coordinates assigned)
COC(=O)c1sccc1S(=O)(=O)[N-]CC(=O)[N-]Cc1ccc(C)cc1 (optimized conformer: 60.72754670379561 kcal/mol)

>  <smiles>  (51) 
COC(=O)c1sccc1S(=O)(=O)NCC(=O)NCc1ccc(C)cc1

>  <score_type>  (51) 
oracle

>  <origin>  (51) 
adg

>  <m_score__min__energy>  (51) 
-11.6

>  <m_primary>  (51) 
energy

$$$$
51:0
     RDKit          3D

 53 55  0  0  0  0  0  0  0  0999 V2000
   62.0280   30.5220   50.3120 N   0  0  0  0  0  0  0  0  0  0  0  0
   61.3180   29.7980   49.7530 C   0  0  0  0  0  0  0  0  0  0  0  0
   60.4340   28.8990   49.0590 C   0  0  0  0  0  0  0  0  0  0  0  0
   59.2440   29.3780   48.4980 C   0  0  0  0  0  0  0  0  0  0  0  0
   58.3710   28.4980   47.8520 C   0  0  0  0  0  0  0  0  0  0  0  0
   58.6850   27.1380   47.7370 C   0  0  0  0  0  0  0  0  0  0  0  0
   57.7450   26.2740   47.0810 N   0  0  0  0  0  0  0  0  0  0  0  0
   56.9300   26.5700   45.9390 C   0  0  0  0  0  0  0  0  0  0  0  0
   55.6800   26.6870   46.0420 O   0  0  0  0  0  0  0  0  0  0  0  0
   57.5770   26.6940   44.5920 C   0  0  0  0  0  0  0  0  0  0  0  0
   58.2530   28.0540   44.4060 C   0  0  0  0  0  0  0  0  0  0  0  0
   57.3510   28.9960   43.7450 N   0  0  0  0  0  0  0  0  0  0  0  0
   56.6880   30.1000   44.3710 C   0  0  0  0  0  0  0  0  0  0  0  0
   55.4290   30.1130   44.3960 O   0  0  0  0  0  0  0  0  0  0  0  0
   57.4300   31.2340   44.9610 C   0  0  0  0  0  0  0  0  0  0  0  0
   58.0160   31.1260   46.2330 C   0  0  0  0  0  0  0  0  0  0  0  0
   58.7430   32.1930   46.7690 C   0  0  0  0  0  0  0  0  0  0  0  0
   58.8980   33.3800   46.0420 C   0  0  0  0  0  0  0  0  0  0  0  0
   59.8210   34.7220   46.7220 S   0  0  0  0  0  0  0  0  0  0  0  0
   60.0040   35.7740   45.6640 O   0  0  0  0  0  0  0  0  0  0  0  0
   59.0490   35.3350   47.8580 O   0  0  0  0  0  0  0  0  0  0  0  0
   61.3840   34.2060   47.3070 N   0  0  0  0  0  0  0  0  0  0  0  0
   61.7200   32.8720   46.7850 C   0  0  0  0  0  0  0  0  0  0  0  0
   63.1970   32.5420   47.0800 C   0  0  0  0  0  0  0  0  0  0  0  0
   63.7460   33.3380   48.2770 C   0  0  0  0  0  0  0  0  0  0  0  0
   62.6700   33.5250   49.3510 C   0  0  0  0  0  0  0  0  0  0  0  0
   61.4050   34.2120   48.7840 C   0  0  0  0  0  0  0  0  0  0  0  0
   58.3360   33.4820   44.7620 C   0  0  0  0  0  0  0  0  0  0  0  0
   57.6230   32.4090   44.2180 C   0  0  0  0  0  0  0  0  0  0  0  0
   59.8830   26.6630   48.3010 C   0  0  0  0  0  0  0  0  0  0  0  0
   60.7520   27.5400   48.9580 C   0  0  0  0  0  0  0  0  0  0  0  0
   58.9959   30.4475   48.5657 H   0  0  0  0  0  0  0  0  0  0  0  0
   57.4286   28.8772   47.4300 H   0  0  0  0  0  0  0  0  0  0  0  0
   58.3344   25.9032   44.4873 H   0  0  0  0  0  0  0  0  0  0  0  0
   56.7926   26.5961   43.8271 H   0  0  0  0  0  0  0  0  0  0  0  0
   58.5342   28.4547   45.3911 H   0  0  0  0  0  0  0  0  0  0  0  0
   59.1460   27.9209   43.7777 H   0  0  0  0  0  0  0  0  0  0  0  0
   57.9022   30.1967   46.8105 H   0  0  0  0  0  0  0  0  0  0  0  0
   59.1958   32.0998   47.7672 H   0  0  0  0  0  0  0  0  0  0  0  0
   61.0766   32.1207   47.2662 H   0  0  0  0  0  0  0  0  0  0  0  0
   61.5600   32.8613   45.6968 H   0  0  0  0  0  0  0  0  0  0  0  0
   63.2821   31.4677   47.3008 H   0  0  0  0  0  0  0  0  0  0  0  0
   63.7868   32.8182   46.1935 H   0  0  0  0  0  0  0  0  0  0  0  0
   64.5972   32.7933   48.7114 H   0  0  0  0  0  0  0  0  0  0  0  0
   64.0639   34.3296   47.9226 H   0  0  0  0  0  0  0  0  0  0  0  0
   62.3908   32.5389   49.7506 H   0  0  0  0  0  0  0  0  0  0  0  0
   63.0838   34.1692   50.1408 H   0  0  0  0  0  0  0  0  0  0  0  0
   60.5163   33.6793   49.1535 H   0  0  0  0  0  0  0  0  0  0  0  0
   61.4100   35.2599   49.1184 H   0  0  0  0  0  0  0  0  0  0  0  0
   58.4562   34.4096   44.1832 H   0  0  0  0  0  0  0  0  0  0  0  0
   57.2107   32.4864   43.2011 H   0  0  0  0  0  0  0  0  0  0  0  0
   60.1378   25.5956   48.2248 H   0  0  0  0  0  0  0  0  0  0  0  0
   61.6871   27.1609   49.3961 H   0  0  0  0  0  0  0  0  0  0  0  0
  1  2  3  0
  2  3  1  0
  3  4  2  0
  4  5  1  0
  5  6  2  0
  6  7  1  0
  7  8  1  0
  8  9  2  0
  8 10  1  0
 10 11  1  0
 11 12  1  0
 12 13  1  0
 13 14  2  0
 13 15  1  0
 15 16  2  0
 16 17  1  0
 17 18  2  0
 18 19  1  0
 19 20  2  0
 19 21  2  0
 19 22  1  0
 22 23  1  0
 23 24  1  0
 24 25  1  0
 25 26  1  0
 26 27  1  0
 18 28  1  0
 28 29  2  0
  6 30  1  0
 30 31  2  0
 31  3  1  0
 29 15  1  0
 27 22  1  0
  4 32  1  0
  5 33  1  0
 10 34  1  0
 10 35  1  0
 11 36  1  0
 11 37  1  0
 16 38  1  0
 17 39  1  0
 23 40  1  0
 23 41  1  0
 24 42  1  0
 24 43  1  0
 25 44  1  0
 25 45  1  0
 26 46  1  0
 26 47  1  0
 27 48  1  0
 27 49  1  0
 28 50  1  0
 29 51  1  0
 30 52  1  0
 31 53  1  0
M  CHG  2   7  -1  12  -1
M  END
>  <UniqueID>  (52) 
44

>  <SMILES>  (52) 
N#Cc1ccc([N-]C(=O)CC[N-]C(=O)c2ccc(S(=O)(=O)N3CCCCC3)cc2)cc1

>  <Energy>  (52) 
55.38458989000774

>  <Genealogy>  (52) 
N#Cc1ccc([N-]C(=O)CC[N-]C(=O)c2ccc(S(=O)(=O)N3CCCCC3)cc2)cc1 (protonated)
N#Cc1ccc([N-]C(=O)CC[N-]C(=O)c2ccc(S(=O)(=O)N3CCCCC3)cc2)cc1 (3D coordinates assigned)
N#Cc1ccc([N-]C(=O)CC[N-]C(=O)c2ccc(S(=O)(=O)N3CCCCC3)cc2)cc1 (nonaromatic ring conformer: 55.38458989000774 kcal/mol)

>  <smiles>  (52) 
N#Cc1ccc(NC(=O)CCNC(=O)c2ccc(S(=O)(=O)N3CCCCC3)cc2)cc1

>  <score_type>  (52) 
oracle

>  <origin>  (52) 
adg

>  <m_score__min__energy>  (52) 
-12.26

>  <m_primary>  (52) 
energy

$$$$
52:0
     RDKit          3D

 43 44  0  0  0  0  0  0  0  0999 V2000
   56.6850   34.5890   44.8730 C   0  0  0  0  0  0  0  0  0  0  0  0
   57.9250   33.9480   45.4310 C   0  0  0  0  0  0  0  0  0  0  0  0
   58.7670   34.6510   46.2410 N   0  0  0  0  0  0  0  0  0  0  0  0
   59.8100   33.8970   46.6660 C   0  0  0  0  0  0  0  0  0  0  0  0
   60.7150   34.3160   47.5010 N   0  0  0  0  0  0  0  0  0  0  0  0
   61.5280   33.4140   48.2630 C   0  0  0  0  0  0  0  0  0  0  0  0
   61.0360   32.8570   49.2850 O   0  0  0  0  0  0  0  0  0  0  0  0
   62.9290   33.0370   47.8010 C   0  0  0  0  0  0  0  0  0  0  0  0
   63.9850   33.3610   48.8820 C   0  0  0  0  0  0  0  0  0  0  0  0
   62.9800   31.5280   47.4880 C   0  0  0  0  0  0  0  0  0  0  0  0
   63.2540   33.8450   46.5270 C   0  0  0  0  0  0  0  0  0  0  0  0
   59.7380   32.3270   46.0780 S   0  0  0  0  0  0  0  0  0  0  0  0
   58.3010   32.6090   45.2210 C   0  0  0  0  0  0  0  0  0  0  0  0
   57.5870   31.5690   44.4530 C   0  0  0  0  0  0  0  0  0  0  0  0
   57.4720   31.6980   43.2040 O   0  0  0  0  0  0  0  0  0  0  0  0
   57.0030   30.4450   45.1210 N   0  0  0  0  0  0  0  0  0  0  0  0
   57.5480   29.1210   45.2180 C   0  0  0  0  0  0  0  0  0  0  0  0
   58.9270   28.8740   45.1190 C   0  0  0  0  0  0  0  0  0  0  0  0
   59.4210   27.5740   45.2450 C   0  0  0  0  0  0  0  0  0  0  0  0
   58.5490   26.5100   45.4920 C   0  0  0  0  0  0  0  0  0  0  0  0
   59.0500   25.2550   45.6170 F   0  0  0  0  0  0  0  0  0  0  0  0
   57.1690   26.7460   45.6170 C   0  0  0  0  0  0  0  0  0  0  0  0
   56.0740   25.4030   45.9480 S   0  0  0  0  0  0  0  0  0  0  0  0
   54.4380   25.9100   45.7140 N   0  0  0  0  0  0  0  0  0  0  0  0
   56.3890   24.2670   45.0140 O   0  0  0  0  0  0  0  0  0  0  0  0
   56.2370   24.9290   47.3670 O   0  0  0  0  0  0  0  0  0  0  0  0
   56.6760   28.0540   45.4810 C   0  0  0  0  0  0  0  0  0  0  0  0
   56.0406   34.9221   45.6999 H   0  0  0  0  0  0  0  0  0  0  0  0
   56.9660   35.4548   44.2554 H   0  0  0  0  0  0  0  0  0  0  0  0
   56.1411   33.8591   44.2554 H   0  0  0  0  0  0  0  0  0  0  0  0
   63.5421   33.2251   49.8797 H   0  0  0  0  0  0  0  0  0  0  0  0
   64.8457   32.6856   48.7679 H   0  0  0  0  0  0  0  0  0  0  0  0
   64.3188   34.4029   48.7679 H   0  0  0  0  0  0  0  0  0  0  0  0
   62.9992   30.9588   48.4291 H   0  0  0  0  0  0  0  0  0  0  0  0
   62.0909   31.2440   46.9058 H   0  0  0  0  0  0  0  0  0  0  0  0
   63.8862   31.3047   46.9058 H   0  0  0  0  0  0  0  0  0  0  0  0
   63.6507   34.8313   46.8096 H   0  0  0  0  0  0  0  0  0  0  0  0
   64.0047   33.3047   45.9317 H   0  0  0  0  0  0  0  0  0  0  0  0
   62.3382   33.9750   45.9317 H   0  0  0  0  0  0  0  0  0  0  0  0
   59.6212   29.7086   44.9414 H   0  0  0  0  0  0  0  0  0  0  0  0
   60.5007   27.3866   45.1495 H   0  0  0  0  0  0  0  0  0  0  0  0
   54.2770   26.7180   46.3530 H   0  0  0  0  0  0  0  0  0  0  0  0
   55.5971   28.2434   45.5815 H   0  0  0  0  0  0  0  0  0  0  0  0
  1  2  1  0
  2  3  1  0
  3  4  1  0
  4  5  2  3
  5  6  1  0
  6  7  2  0
  6  8  1  0
  8  9  1  0
  8 10  1  0
  8 11  1  0
  4 12  1  0
 12 13  1  0
 13 14  1  0
 14 15  2  0
 14 16  1  0
 16 17  1  0
 17 18  2  0
 18 19  1  0
 19 20  2  0
 20 21  1  0
 20 22  1  0
 22 23  1  0
 23 24  1  0
 23 25  2  0
 23 26  2  0
 22 27  2  0
 13  2  2  0
 27 17  1  0
  1 28  1  0
  1 29  1  0
  1 30  1  0
  9 31  1  0
  9 32  1  0
  9 33  1  0
 10 34  1  0
 10 35  1  0
 10 36  1  0
 11 37  1  0
 11 38  1  0
 11 39  1  0
 18 40  1  0
 19 41  1  0
 24 42  1  0
 27 43  1  0
M  CHG  3   3  -1  16  -1  24  -1
M  END
>  <UniqueID>  (53) 
45

>  <SMILES>  (53) 
Cc1[n-]c(=NC(=O)C(C)(C)C)sc1C(=O)[N-]c1ccc(F)c(S([NH-])(=O)=O)c1

>  <Energy>  (53) 
79.70335602716058

>  <Genealogy>  (53) 
Cc1[n-]c(=NC(=O)C(C)(C)C)sc1C(=O)[N-]c1ccc(F)c(S([NH-])(=O)=O)c1 (protonated)
Cc1[n-]c(=NC(=O)C(C)(C)C)sc1C(=O)[N-]c1ccc(F)c(S([NH-])(=O)=O)c1 (3D coordinates assigned)
Cc1[n-]c(=NC(=O)C(C)(C)C)sc1C(=O)[N-]c1ccc(F)c(S([NH-])(=O)=O)c1 (optimized conformer: 79.70335602716058 kcal/mol)

>  <smiles>  (53) 
Cc1[nH]c(=NC(=O)C(C)(C)C)sc1C(=O)Nc1ccc(F)c(S(N)(=O)=O)c1

>  <score_type>  (53) 
oracle

>  <origin>  (53) 
adg

>  <m_score__min__energy>  (53) 
-13.779999999999999

>  <m_primary>  (53) 
energy

$$$$
53:0
     RDKit          3D

 38 39  0  0  0  0  0  0  0  0999 V2000
   62.1180   33.8450   47.8040 C   0  0  0  0  0  0  0  0  0  0  0  0
   60.8900   34.4410   47.4020 O   0  0  0  0  0  0  0  0  0  0  0  0
   59.8540   33.7550   46.7520 C   0  0  0  0  0  0  0  0  0  0  0  0
   59.0920   34.4460   45.8040 C   0  0  0  0  0  0  0  0  0  0  0  0
   58.0200   33.8200   45.1630 C   0  0  0  0  0  0  0  0  0  0  0  0
   57.6910   32.4940   45.4650 C   0  0  0  0  0  0  0  0  0  0  0  0
   56.5040   31.9310   44.8920 N   0  0  0  0  0  0  0  0  0  0  0  0
   56.4880   30.8380   43.9590 C   0  0  0  0  0  0  0  0  0  0  0  0
   57.3160   30.8380   43.0100 O   0  0  0  0  0  0  0  0  0  0  0  0
   55.5280   29.6870   44.0890 C   0  0  0  0  0  0  0  0  0  0  0  0
   55.8980   28.8550   45.2270 N   0  0  0  0  0  0  0  0  0  0  0  0
   57.0470   28.0060   45.2430 C   0  0  0  0  0  0  0  0  0  0  0  0
   58.1030   28.3710   44.6570 O   0  0  0  0  0  0  0  0  0  0  0  0
   57.0260   26.7360   46.0070 C   0  0  0  0  0  0  0  0  0  0  0  0
   58.1950   26.2690   46.6280 C   0  0  0  0  0  0  0  0  0  0  0  0
   58.1670   25.1420   47.3850 N   0  0  0  0  0  0  0  0  0  0  0  0
   57.0180   24.4420   47.5530 C   0  0  0  0  0  0  0  0  0  0  0  0
   57.0060   22.9690   48.5660 S   0  0  0  0  0  0  0  0  0  0  0  0
   55.2480   22.6260   48.2440 C   0  0  0  0  0  0  0  0  0  0  0  0
   55.8740   24.8600   46.9530 N   0  0  0  0  0  0  0  0  0  0  0  0
   55.8490   25.9800   46.1870 C   0  0  0  0  0  0  0  0  0  0  0  0
   54.7650   26.3220   45.6420 O   0  0  0  0  0  0  0  0  0  0  0  0
   58.4940   31.7670   46.3680 C   0  0  0  0  0  0  0  0  0  0  0  0
   58.2660   30.4140   46.6220 O   0  0  0  0  0  0  0  0  0  0  0  0
   59.5550   32.4060   47.0200 C   0  0  0  0  0  0  0  0  0  0  0  0
   62.1708   33.8194   48.9024 H   0  0  0  0  0  0  0  0  0  0  0  0
   62.1741   32.8195   47.4102 H   0  0  0  0  0  0  0  0  0  0  0  0
   62.9584   34.4355   47.4102 H   0  0  0  0  0  0  0  0  0  0  0  0
   59.3387   35.4902   45.5614 H   0  0  0  0  0  0  0  0  0  0  0  0
   57.4311   34.3729   44.4164 H   0  0  0  0  0  0  0  0  0  0  0  0
   54.5102   30.0767   44.2384 H   0  0  0  0  0  0  0  0  0  0  0  0
   55.5647   29.0810   43.1717 H   0  0  0  0  0  0  0  0  0  0  0  0
   59.1391   26.8190   46.5007 H   0  0  0  0  0  0  0  0  0  0  0  0
   54.7137   22.5218   49.1999 H   0  0  0  0  0  0  0  0  0  0  0  0
   54.8119   23.4560   47.6688 H   0  0  0  0  0  0  0  0  0  0  0  0
   55.1558   21.6929   47.6688 H   0  0  0  0  0  0  0  0  0  0  0  0
   57.5800   29.8740   46.1100 H   0  0  0  0  0  0  0  0  0  0  0  0
   60.1612   31.8483   47.7491 H   0  0  0  0  0  0  0  0  0  0  0  0
  1  2  1  0
  2  3  1  0
  3  4  2  0
  4  5  1  0
  5  6  2  0
  6  7  1  0
  7  8  1  0
  8  9  2  0
  8 10  1  0
 10 11  1  0
 11 12  1  0
 12 13  2  0
 12 14  1  0
 14 15  2  0
 15 16  1  0
 16 17  2  0
 17 18  1  0
 18 19  1  0
 17 20  1  0
 20 21  1  0
 21 22  2  0
  6 23  1  0
 23 24  1  0
 23 25  2  0
 25  3  1  0
 21 14  1  0
  1 26  1  0
  1 27  1  0
  1 28  1  0
  4 29  1  0
  5 30  1  0
 10 31  1  0
 10 32  1  0
 15 33  1  0
 19 34  1  0
 19 35  1  0
 19 36  1  0
 24 37  1  0
 25 38  1  0
M  CHG  3   7  -1  11  -1  20  -1
M  END
>  <UniqueID>  (54) 
46

>  <SMILES>  (54) 
COc1ccc([N-]C(=O)C[N-]C(=O)c2cnc(SC)[n-]c2=O)c(O)c1

>  <Energy>  (54) 
38.80786429919405

>  <Genealogy>  (54) 
COc1ccc([N-]C(=O)C[N-]C(=O)c2cnc(SC)[n-]c2=O)c(O)c1 (protonated)
COc1ccc([N-]C(=O)C[N-]C(=O)c2cnc(SC)[n-]c2=O)c(O)c1 (3D coordinates assigned)
COc1ccc([N-]C(=O)C[N-]C(=O)c2cnc(SC)[n-]c2=O)c(O)c1 (optimized conformer: 38.80786429919405 kcal/mol)

>  <smiles>  (54) 
COc1ccc(NC(=O)CNC(=O)c2cnc(SC)[nH]c2=O)c(O)c1

>  <score_type>  (54) 
oracle

>  <origin>  (54) 
adg

>  <m_score__min__energy>  (54) 
-12.85

>  <m_primary>  (54) 
energy

$$$$
54:0
     RDKit          3D

 42 44  0  0  0  0  0  0  0  0999 V2000
   56.4860   30.6160   43.4360 C   0  0  0  0  0  0  0  0  0  0  0  0
   57.1980   31.1370   44.4470 C   0  0  0  0  0  0  0  0  0  0  0  0
   57.0530   32.4640   44.6630 N   0  0  0  0  0  0  0  0  0  0  0  0
   57.5460   33.0910   45.7530 C   0  0  0  0  0  0  0  0  0  0  0  0
   57.3860   34.3370   45.8490 O   0  0  0  0  0  0  0  0  0  0  0  0
   58.1830   32.3760   46.7390 N   0  0  0  0  0  0  0  0  0  0  0  0
   58.6540   33.0440   47.9870 C   0  0  0  0  0  0  0  0  0  0  0  0
   60.1740   33.3190   47.9560 C   0  0  0  0  0  0  0  0  0  0  0  0
   60.6200   34.1430   49.1800 C   0  0  0  0  0  0  0  0  0  0  0  0
   59.8150   33.8320   50.4610 C   0  0  0  0  0  0  0  0  0  0  0  0
   59.2000   32.4280   50.4320 C   0  0  0  0  0  0  0  0  0  0  0  0
   58.2130   32.2700   49.2590 C   0  0  0  0  0  0  0  0  0  0  0  0
   58.4080   31.0300   46.5470 C   0  0  0  0  0  0  0  0  0  0  0  0
   59.0280   30.3690   47.4290 O   0  0  0  0  0  0  0  0  0  0  0  0
   57.9890   30.3740   45.3550 C   0  0  0  0  0  0  0  0  0  0  0  0
   58.3890   29.0870   45.1440 C   0  0  0  0  0  0  0  0  0  0  0  0
   57.7410   27.8660   45.6700 C   0  0  0  0  0  0  0  0  0  0  0  0
   58.5460   26.8540   46.2140 C   0  0  0  0  0  0  0  0  0  0  0  0
   57.9700   25.6780   46.6970 C   0  0  0  0  0  0  0  0  0  0  0  0
   56.5870   25.4900   46.6260 C   0  0  0  0  0  0  0  0  0  0  0  0
   56.0240   24.3190   47.1160 O   0  0  0  0  0  0  0  0  0  0  0  0
   55.7720   26.4780   46.0570 C   0  0  0  0  0  0  0  0  0  0  0  0
   54.3950   26.2650   45.9820 O   0  0  0  0  0  0  0  0  0  0  0  0
   56.3490   27.6620   45.5640 C   0  0  0  0  0  0  0  0  0  0  0  0
   55.5440   28.6230   44.9610 O   0  0  0  0  0  0  0  0  0  0  0  0
   56.5590   29.5424   43.2079 H   0  0  0  0  0  0  0  0  0  0  0  0
   55.8293   31.2625   42.8353 H   0  0  0  0  0  0  0  0  0  0  0  0
   58.1625   34.0269   48.0350 H   0  0  0  0  0  0  0  0  0  0  0  0
   60.7117   32.3594   47.9551 H   0  0  0  0  0  0  0  0  0  0  0  0
   60.4038   33.8952   47.0476 H   0  0  0  0  0  0  0  0  0  0  0  0
   61.6811   33.9289   49.3755 H   0  0  0  0  0  0  0  0  0  0  0  0
   60.4447   35.2016   48.9377 H   0  0  0  0  0  0  0  0  0  0  0  0
   60.4871   33.9065   51.3286 H   0  0  0  0  0  0  0  0  0  0  0  0
   58.9927   34.5595   50.5280 H   0  0  0  0  0  0  0  0  0  0  0  0
   60.0055   31.6867   50.3242 H   0  0  0  0  0  0  0  0  0  0  0  0
   58.6490   32.2722   51.3712 H   0  0  0  0  0  0  0  0  0  0  0  0
   58.1333   31.2017   49.0093 H   0  0  0  0  0  0  0  0  0  0  0  0
   57.2485   32.6892   49.5816 H   0  0  0  0  0  0  0  0  0  0  0  0
   59.2833   28.9428   44.5200 H   0  0  0  0  0  0  0  0  0  0  0  0
   59.6368   26.9880   46.2601 H   0  0  0  0  0  0  0  0  0  0  0  0
   58.6073   24.8959   47.1354 H   0  0  0  0  0  0  0  0  0  0  0  0
   53.9550   25.4430   46.3770 H   0  0  0  0  0  0  0  0  0  0  0  0
  1  2  2  0
  2  3  1  0
  3  4  1  0
  4  5  2  0
  4  6  1  0
  6  7  1  0
  7  8  1  0
  8  9  1  0
  9 10  1  0
 10 11  1  0
 11 12  1  0
  6 13  1  0
 13 14  2  0
 13 15  1  0
 15 16  2  3
 16 17  1  0
 17 18  2  0
 18 19  1  0
 19 20  2  0
 20 21  1  0
 20 22  1  0
 22 23  1  0
 22 24  2  0
 24 25  1  0
 15  2  1  0
 24 17  1  0
 12  7  1  0
  1 26  1  0
  1 27  1  0
  7 28  1  0
  8 29  1  0
  8 30  1  0
  9 31  1  0
  9 32  1  0
 10 33  1  0
 10 34  1  0
 11 35  1  0
 11 36  1  0
 12 37  1  0
 12 38  1  0
 16 39  1  0
 18 40  1  0
 19 41  1  0
 23 42  1  0
M  CHG  3   3  -1  21  -1  25  -1
M  END
>  <UniqueID>  (55) 
47

>  <SMILES>  (55) 
C=c1[n-]c(=O)n(C2CCCCC2)c(=O)c1=Cc1ccc([O-])c(O)c1[O-]

>  <Energy>  (55) 
78.4854460222414

>  <Genealogy>  (55) 
C=c1[n-]c(=O)n(C2CCCCC2)c(=O)c1=Cc1ccc([O-])c(O)c1[O-] (protonated)
C=c1[n-]c(=O)n(C2CCCCC2)c(=O)c1=Cc1ccc([O-])c(O)c1[O-] (3D coordinates assigned)
C=c1[n-]c(=O)n(C2CCCCC2)c(=O)c1=Cc1ccc([O-])c(O)c1[O-] (nonaromatic ring conformer: 78.4854460222414 kcal/mol)

>  <smiles>  (55) 
C=c1[nH]c(=O)n(C2CCCCC2)c(=O)c1=Cc1ccc(O)c(O)c1O

>  <score_type>  (55) 
oracle

>  <origin>  (55) 
adg

>  <m_score__min__energy>  (55) 
-15.35

>  <m_primary>  (55) 
energy

$$$$
55:0
     RDKit          3D

 40 42  0  0  0  0  0  0  0  0999 V2000
   56.3220   29.9550   43.0730 O   0  0  0  0  0  0  0  0  0  0  0  0
   56.5550   30.0460   44.3090 C   0  0  0  0  0  0  0  0  0  0  0  0
   56.1160   29.0120   45.2000 N   0  0  0  0  0  0  0  0  0  0  0  0
   56.8620   27.8520   45.6010 C   0  0  0  0  0  0  0  0  0  0  0  0
   58.2690   27.8230   45.5580 C   0  0  0  0  0  0  0  0  0  0  0  0
   58.9610   26.6670   45.9330 C   0  0  0  0  0  0  0  0  0  0  0  0
   58.2600   25.5300   46.3390 C   0  0  0  0  0  0  0  0  0  0  0  0
   56.8630   25.5420   46.3610 C   0  0  0  0  0  0  0  0  0  0  0  0
   56.1640   26.6960   45.9870 C   0  0  0  0  0  0  0  0  0  0  0  0
   54.7740   26.6920   46.0070 O   0  0  0  0  0  0  0  0  0  0  0  0
   57.3290   31.1970   44.8320 C   0  0  0  0  0  0  0  0  0  0  0  0
   58.3520   30.9990   45.7760 C   0  0  0  0  0  0  0  0  0  0  0  0
   59.0850   32.0830   46.2690 C   0  0  0  0  0  0  0  0  0  0  0  0
   58.8140   33.3830   45.8190 C   0  0  0  0  0  0  0  0  0  0  0  0
   59.5940   34.5570   46.3510 C   0  0  0  0  0  0  0  0  0  0  0  0
   60.1680   34.2510   47.6230 O   0  0  0  0  0  0  0  0  0  0  0  0
   61.4950   33.8480   47.8430 C   0  0  0  0  0  0  0  0  0  0  0  0
   62.3590   33.4990   46.7840 C   0  0  0  0  0  0  0  0  0  0  0  0
   63.6750   33.1060   47.0460 C   0  0  0  0  0  0  0  0  0  0  0  0
   64.1410   33.0520   48.3600 C   0  0  0  0  0  0  0  0  0  0  0  0
   63.2930   33.3900   49.4160 C   0  0  0  0  0  0  0  0  0  0  0  0
   61.9740   33.7870   49.1650 C   0  0  0  0  0  0  0  0  0  0  0  0
   61.1550   34.1200   50.2440 O   0  0  0  0  0  0  0  0  0  0  0  0
   57.7850   33.5880   44.8880 C   0  0  0  0  0  0  0  0  0  0  0  0
   57.0520   32.5050   44.3950 C   0  0  0  0  0  0  0  0  0  0  0  0
   58.8258   28.7125   45.2284 H   0  0  0  0  0  0  0  0  0  0  0  0
   60.0606   26.6536   45.9080 H   0  0  0  0  0  0  0  0  0  0  0  0
   58.8073   24.6250   46.6415 H   0  0  0  0  0  0  0  0  0  0  0  0
   56.3112   24.6429   46.6728 H   0  0  0  0  0  0  0  0  0  0  0  0
   58.5778   29.9823   46.1299 H   0  0  0  0  0  0  0  0  0  0  0  0
   59.8776   31.9151   47.0130 H   0  0  0  0  0  0  0  0  0  0  0  0
   60.3982   34.8061   45.6431 H   0  0  0  0  0  0  0  0  0  0  0  0
   58.9098   35.4101   46.4693 H   0  0  0  0  0  0  0  0  0  0  0  0
   61.9955   33.5362   45.7465 H   0  0  0  0  0  0  0  0  0  0  0  0
   64.3441   32.8389   46.2147 H   0  0  0  0  0  0  0  0  0  0  0  0
   65.1768   32.7430   48.5638 H   0  0  0  0  0  0  0  0  0  0  0  0
   63.6630   33.3442   50.4509 H   0  0  0  0  0  0  0  0  0  0  0  0
   60.1990   34.4300   50.1200 H   0  0  0  0  0  0  0  0  0  0  0  0
   57.5537   34.6069   44.5440 H   0  0  0  0  0  0  0  0  0  0  0  0
   56.2523   32.6768   43.6595 H   0  0  0  0  0  0  0  0  0  0  0  0
  1  2  2  0
  2  3  1  0
  3  4  1  0
  4  5  2  0
  5  6  1  0
  6  7  2  0
  7  8  1  0
  8  9  2  0
  9 10  1  0
  2 11  1  0
 11 12  2  0
 12 13  1  0
 13 14  2  0
 14 15  1  0
 15 16  1  0
 16 17  1  0
 17 18  2  0
 18 19  1  0
 19 20  2  0
 20 21  1  0
 21 22  2  0
 22 23  1  0
 14 24  1  0
 24 25  2  0
  9  4  1  0
 25 11  1  0
 22 17  1  0
  5 26  1  0
  6 27  1  0
  7 28  1  0
  8 29  1  0
 12 30  1  0
 13 31  1  0
 15 32  1  0
 15 33  1  0
 18 34  1  0
 19 35  1  0
 20 36  1  0
 21 37  1  0
 23 38  1  0
 24 39  1  0
 25 40  1  0
M  CHG  2   3  -1  10  -1
M  END
>  <UniqueID>  (56) 
48

>  <SMILES>  (56) 
O=C([N-]c1ccccc1[O-])c1ccc(COc2ccccc2O)cc1

>  <Energy>  (56) 
47.58638988287906

>  <Genealogy>  (56) 
O=C([N-]c1ccccc1[O-])c1ccc(COc2ccccc2O)cc1 (protonated)
O=C([N-]c1ccccc1[O-])c1ccc(COc2ccccc2O)cc1 (3D coordinates assigned)
O=C([N-]c1ccccc1[O-])c1ccc(COc2ccccc2O)cc1 (optimized conformer: 47.58638988287906 kcal/mol)

>  <smiles>  (56) 
O=C(Nc1ccccc1O)c1ccc(COc2ccccc2O)cc1

>  <score_type>  (56) 
oracle

>  <origin>  (56) 
adg

>  <m_score__min__energy>  (56) 
-14.390000000000001

>  <m_primary>  (56) 
energy

$$$$
56:0
     RDKit          3D

 45 47  0  0  0  0  0  0  0  0999 V2000
   59.2760   30.6090   47.0640 C   0  0  0  0  0  0  0  0  0  0  0  0
   58.5000   31.2660   46.1850 C   0  0  0  0  0  0  0  0  0  0  0  0
   57.9780   30.7590   44.9820 C   0  0  0  0  0  0  0  0  0  0  0  0
   57.9800   29.5140   44.4620 C   0  0  0  0  0  0  0  0  0  0  0  0
   57.4130   28.3110   45.1020 C   0  0  0  0  0  0  0  0  0  0  0  0
   56.0250   28.1520   45.2560 C   0  0  0  0  0  0  0  0  0  0  0  0
   55.1470   29.1490   44.8480 O   0  0  0  0  0  0  0  0  0  0  0  0
   55.5310   27.0130   45.8040 N   0  0  0  0  0  0  0  0  0  0  0  0
   56.3570   26.0080   46.1940 C   0  0  0  0  0  0  0  0  0  0  0  0
   55.8770   24.9610   46.7020 O   0  0  0  0  0  0  0  0  0  0  0  0
   57.7000   26.1270   46.0300 N   0  0  0  0  0  0  0  0  0  0  0  0
   58.2440   27.2470   45.4880 C   0  0  0  0  0  0  0  0  0  0  0  0
   59.4930   27.3220   45.3450 O   0  0  0  0  0  0  0  0  0  0  0  0
   57.3880   31.8280   44.3340 C   0  0  0  0  0  0  0  0  0  0  0  0
   57.5130   32.9200   45.1640 C   0  0  0  0  0  0  0  0  0  0  0  0
   57.0290   34.2960   44.8190 C   0  0  0  0  0  0  0  0  0  0  0  0
   58.1830   32.5880   46.2920 N   0  0  0  0  0  0  0  0  0  0  0  0
   58.5440   33.5290   47.3660 C   0  0  0  0  0  0  0  0  0  0  0  0
   60.0290   33.5060   47.6250 C   0  0  0  0  0  0  0  0  0  0  0  0
   60.5210   33.4330   48.9390 C   0  0  0  0  0  0  0  0  0  0  0  0
   61.8970   33.4200   49.1790 C   0  0  0  0  0  0  0  0  0  0  0  0
   62.8060   33.4730   48.1150 C   0  0  0  0  0  0  0  0  0  0  0  0
   64.2090   33.4540   48.4120 N   0  0  0  0  0  0  0  0  0  0  0  0
   64.9170   33.0080   49.9310 S   0  0  0  0  0  0  0  0  0  0  0  0
   64.2590   31.4490   50.4860 C   0  0  0  0  0  0  0  0  0  0  0  0
   66.4020   32.8650   49.7470 O   0  0  0  0  0  0  0  0  0  0  0  0
   64.6600   34.0790   50.9530 O   0  0  0  0  0  0  0  0  0  0  0  0
   62.3160   33.5400   46.7980 C   0  0  0  0  0  0  0  0  0  0  0  0
   60.9390   33.5560   46.5570 C   0  0  0  0  0  0  0  0  0  0  0  0
   59.6247   31.1158   47.9759 H   0  0  0  0  0  0  0  0  0  0  0  0
   59.5624   29.5645   46.8715 H   0  0  0  0  0  0  0  0  0  0  0  0
   58.4453   29.3841   43.4738 H   0  0  0  0  0  0  0  0  0  0  0  0
   56.9096   31.8100   43.3437 H   0  0  0  0  0  0  0  0  0  0  0  0
   56.8314   34.8578   45.7439 H   0  0  0  0  0  0  0  0  0  0  0  0
   57.7975   34.8180   44.2300 H   0  0  0  0  0  0  0  0  0  0  0  0
   56.1029   34.2220   44.2300 H   0  0  0  0  0  0  0  0  0  0  0  0
   58.2459   34.5455   47.0695 H   0  0  0  0  0  0  0  0  0  0  0  0
   58.0221   33.2286   48.2865 H   0  0  0  0  0  0  0  0  0  0  0  0
   59.8183   33.3858   49.7840 H   0  0  0  0  0  0  0  0  0  0  0  0
   62.2698   33.3677   50.2126 H   0  0  0  0  0  0  0  0  0  0  0  0
   64.2492   31.4258   51.5857 H   0  0  0  0  0  0  0  0  0  0  0  0
   63.2332   31.3284   50.1076 H   0  0  0  0  0  0  0  0  0  0  0  0
   64.8881   30.6299   50.1076 H   0  0  0  0  0  0  0  0  0  0  0  0
   63.0198   33.5800   45.9536 H   0  0  0  0  0  0  0  0  0  0  0  0
   60.5659   33.6081   45.5235 H   0  0  0  0  0  0  0  0  0  0  0  0
  1  2  2  0
  2  3  1  0
  3  4  2  3
  4  5  1  0
  5  6  2  0
  6  7  1  0
  6  8  1  0
  8  9  1  0
  9 10  2  0
  9 11  1  0
 11 12  1  0
 12 13  2  0
  3 14  1  0
 14 15  2  0
 15 16  1  0
 15 17  1  0
 17 18  1  0
 18 19  1  0
 19 20  2  0
 20 21  1  0
 21 22  2  0
 22 23  1  0
 23 24  1  0
 24 25  1  0
 24 26  2  0
 24 27  2  0
 22 28  1  0
 28 29  2  0
 17  2  1  0
 29 19  1  0
 12  5  1  0
  1 30  1  0
  1 31  1  0
  4 32  1  0
 14 33  1  0
 16 34  1  0
 16 35  1  0
 16 36  1  0
 18 37  1  0
 18 38  1  0
 20 39  1  0
 21 40  1  0
 25 41  1  0
 25 42  1  0
 25 43  1  0
 28 44  1  0
 29 45  1  0
M  CHG  4   7  -1   8  -1  11  -1  23  -1
M  END
>  <UniqueID>  (57) 
49

>  <SMILES>  (57) 
C=c1c(=Cc2c([O-])[n-]c(=O)[n-]c2=O)cc(C)n1Cc1ccc([N-]S(C)(=O)=O)cc1

>  <Energy>  (57) 
89.11312190619142

>  <Genealogy>  (57) 
C=c1c(=Cc2c([O-])[n-]c(=O)[n-]c2=O)cc(C)n1Cc1ccc([N-]S(C)(=O)=O)cc1 (protonated)
C=c1c(=Cc2c([O-])[n-]c(=O)[n-]c2=O)cc(C)n1Cc1ccc([N-]S(C)(=O)=O)cc1 (3D coordinates assigned)
C=c1c(=Cc2c([O-])[n-]c(=O)[n-]c2=O)cc(C)n1Cc1ccc([N-]S(C)(=O)=O)cc1 (optimized conformer: 89.11312190619142 kcal/mol)

>  <smiles>  (57) 
C=c1c(=Cc2c(O)[nH]c(=O)[nH]c2=O)cc(C)n1Cc1ccc(NS(C)(=O)=O)cc1

>  <score_type>  (57) 
oracle

>  <origin>  (57) 
adg

>  <m_score__min__energy>  (57) 
-16.800000000000001

>  <m_primary>  (57) 
energy

$$$$
57:0
     RDKit          3D

 62 66  0  0  0  0  0  0  0  0999 V2000
   61.4910   30.9280   46.8840 O   0  0  0  0  0  0  0  0  0  0  0  0
   62.0850   32.0020   47.1680 C   0  0  0  0  0  0  0  0  0  0  0  0
   63.3540   31.9770   47.9700 C   0  0  0  0  0  0  0  0  0  0  0  0
   63.1250   31.7940   49.4800 C   0  0  0  0  0  0  0  0  0  0  0  0
   61.7500   32.2220   49.9300 C   0  0  0  0  0  0  0  0  0  0  0  0
   60.7540   31.4410   50.5050 C   0  0  0  0  0  0  0  0  0  0  0  0
   60.7790   29.9540   50.7260 C   0  0  0  0  0  0  0  0  0  0  0  0
   60.2960   29.1650   49.5260 C   0  0  0  0  0  0  0  0  0  0  0  0
   60.7480   27.8600   49.2520 C   0  0  0  0  0  0  0  0  0  0  0  0
   60.2260   27.1350   48.1800 C   0  0  0  0  0  0  0  0  0  0  0  0
   59.2310   27.6930   47.3680 C   0  0  0  0  0  0  0  0  0  0  0  0
   58.6610   26.9020   46.2590 C   0  0  0  0  0  0  0  0  0  0  0  0
   58.0080   25.6940   46.5680 C   0  0  0  0  0  0  0  0  0  0  0  0
   57.4260   24.9230   45.5620 C   0  0  0  0  0  0  0  0  0  0  0  0
   57.4810   25.3510   44.2350 C   0  0  0  0  0  0  0  0  0  0  0  0
   58.1190   26.5490   43.9120 C   0  0  0  0  0  0  0  0  0  0  0  0
   58.7200   27.3400   44.9100 C   0  0  0  0  0  0  0  0  0  0  0  0
   59.2800   28.6890   44.5180 C   0  0  0  0  0  0  0  0  0  0  0  0
   58.2010   29.6680   44.4110 N   0  0  0  0  0  0  0  0  0  0  0  0
   58.2750   30.8820   43.8420 C   0  0  0  0  0  0  0  0  0  0  0  0
   57.0250   31.4540   43.9070 C   0  0  0  0  0  0  0  0  0  0  0  0
   56.1680   30.6030   44.5090 N   0  0  0  0  0  0  0  0  0  0  0  0
   56.9200   29.5200   44.7990 C   0  0  0  0  0  0  0  0  0  0  0  0
   58.7960   29.0040   47.6160 C   0  0  0  0  0  0  0  0  0  0  0  0
   59.3090   29.7250   48.6970 C   0  0  0  0  0  0  0  0  0  0  0  0
   59.6660   32.2050   50.7650 N   0  0  0  0  0  0  0  0  0  0  0  0
   60.0320   33.4350   50.3510 C   0  0  0  0  0  0  0  0  0  0  0  0
   59.2800   34.4410   50.4310 O   0  0  0  0  0  0  0  0  0  0  0  0
   61.2770   33.4750   49.8450 N   0  0  0  0  0  0  0  0  0  0  0  0
   61.9330   34.5740   49.3330 O   0  0  0  0  0  0  0  0  0  0  0  0
   61.5040   33.2620   46.8200 N   0  0  0  0  0  0  0  0  0  0  0  0
   60.1100   33.5070   46.5890 C   0  0  0  0  0  0  0  0  0  0  0  0
   59.1110   32.8400   47.3220 C   0  0  0  0  0  0  0  0  0  0  0  0
   57.7620   33.0440   47.0180 C   0  0  0  0  0  0  0  0  0  0  0  0
   57.4010   33.9000   45.9760 C   0  0  0  0  0  0  0  0  0  0  0  0
   58.3860   34.5530   45.2390 C   0  0  0  0  0  0  0  0  0  0  0  0
   59.7370   34.3560   45.5420 C   0  0  0  0  0  0  0  0  0  0  0  0
   63.9769   31.1451   47.6095 H   0  0  0  0  0  0  0  0  0  0  0  0
   63.8408   32.9539   47.8338 H   0  0  0  0  0  0  0  0  0  0  0  0
   63.2582   30.7304   49.7272 H   0  0  0  0  0  0  0  0  0  0  0  0
   63.8526   32.4341   50.0004 H   0  0  0  0  0  0  0  0  0  0  0  0
   61.8123   29.6511   50.9509 H   0  0  0  0  0  0  0  0  0  0  0  0
   60.0943   29.7353   51.5587 H   0  0  0  0  0  0  0  0  0  0  0  0
   61.5211   27.4070   49.8900 H   0  0  0  0  0  0  0  0  0  0  0  0
   60.5977   26.1208   47.9720 H   0  0  0  0  0  0  0  0  0  0  0  0
   57.9562   25.3547   47.6131 H   0  0  0  0  0  0  0  0  0  0  0  0
   56.9237   23.9776   45.8146 H   0  0  0  0  0  0  0  0  0  0  0  0
   57.0206   24.7429   43.4423 H   0  0  0  0  0  0  0  0  0  0  0  0
   58.1530   26.8801   42.8636 H   0  0  0  0  0  0  0  0  0  0  0  0
   59.9981   29.0210   45.2823 H   0  0  0  0  0  0  0  0  0  0  0  0
   59.7842   28.6007   43.5443 H   0  0  0  0  0  0  0  0  0  0  0  0
   59.1743   31.3380   43.4023 H   0  0  0  0  0  0  0  0  0  0  0  0
   56.7642   32.4525   43.5263 H   0  0  0  0  0  0  0  0  0  0  0  0
   56.5306   28.6191   45.2958 H   0  0  0  0  0  0  0  0  0  0  0  0
   58.0473   29.4662   46.9559 H   0  0  0  0  0  0  0  0  0  0  0  0
   58.9371   30.7399   48.9011 H   0  0  0  0  0  0  0  0  0  0  0  0
   62.0480   34.6940   48.3320 H   0  0  0  0  0  0  0  0  0  0  0  0
   59.3924   32.1562   48.1364 H   0  0  0  0  0  0  0  0  0  0  0  0
   56.9838   32.5293   47.6006 H   0  0  0  0  0  0  0  0  0  0  0  0
   56.3390   34.0587   45.7371 H   0  0  0  0  0  0  0  0  0  0  0  0
   58.1006   35.2254   44.4165 H   0  0  0  0  0  0  0  0  0  0  0  0
   60.5104   34.8715   44.9537 H   0  0  0  0  0  0  0  0  0  0  0  0
  1  2  2  0
  2  3  1  0
  3  4  1  0
  4  5  1  0
  5  6  2  0
  6  7  1  0
  7  8  1  0
  8  9  2  0
  9 10  1  0
 10 11  2  0
 11 12  1  0
 12 13  2  0
 13 14  1  0
 14 15  2  0
 15 16  1  0
 16 17  2  0
 17 18  1  0
 18 19  1  0
 19 20  1  0
 20 21  2  0
 21 22  1  0
 22 23  2  0
 11 24  1  0
 24 25  2  0
  6 26  1  0
 26 27  1  0
 27 28  2  0
 27 29  1  0
 29 30  1  0
  2 31  1  0
 31 32  1  0
 32 33  2  0
 33 34  1  0
 34 35  2  0
 35 36  1  0
 36 37  2  0
 29  5  1  0
 37 32  1  0
 25  8  1  0
 17 12  1  0
 23 19  1  0
  3 38  1  0
  3 39  1  0
  4 40  1  0
  4 41  1  0
  7 42  1  0
  7 43  1  0
  9 44  1  0
 10 45  1  0
 13 46  1  0
 14 47  1  0
 15 48  1  0
 16 49  1  0
 18 50  1  0
 18 51  1  0
 20 52  1  0
 21 53  1  0
 23 54  1  0
 24 55  1  0
 25 56  1  0
 30 57  1  0
 33 58  1  0
 34 59  1  0
 35 60  1  0
 36 61  1  0
 37 62  1  0
M  CHG  2  26  -1  31  -1
M  END
>  <UniqueID>  (58) 
50

>  <SMILES>  (58) 
O=C(CCc1c(Cc2ccc(-c3ccccc3Cn3ccnc3)cc2)[n-]c(=O)n1O)[N-]c1ccccc1

>  <Energy>  (58) 
131.1177772916638

>  <Genealogy>  (58) 
O=C(CCc1c(Cc2ccc(-c3ccccc3Cn3ccnc3)cc2)[n-]c(=O)n1O)[N-]c1ccccc1 (protonated)
O=C(CCc1c(Cc2ccc(-c3ccccc3Cn3ccnc3)cc2)[n-]c(=O)n1O)[N-]c1ccccc1 (3D coordinates assigned)
O=C(CCc1c(Cc2ccc(-c3ccccc3Cn3ccnc3)cc2)[n-]c(=O)n1O)[N-]c1ccccc1 (optimized conformer: 131.1177772916638 kcal/mol)

>  <smiles>  (58) 
O=C(CCc1c(Cc2ccc(-c3ccccc3Cn3ccnc3)cc2)[nH]c(=O)n1O)Nc1ccccc1

>  <score_type>  (58) 
oracle

>  <origin>  (58) 
adg

>  <m_score__min__energy>  (58) 
-15.02

>  <m_primary>  (58) 
energy

$$$$
58:0
     RDKit          3D

 35 37  0  0  0  0  0  0  0  0999 V2000
   58.9090   30.9870   49.2700 H   0  0  0  0  0  0  0  0  0  0  0  0
   58.6640   31.9090   48.9370 O   0  0  0  0  0  0  0  0  0  0  0  0
   58.5230   32.2370   47.5870 C   0  0  0  0  0  0  0  0  0  0  0  0
   58.0460   33.5170   47.2750 C   0  0  0  0  0  0  0  0  0  0  0  0
   57.8293   34.2296   48.0845 H   0  0  0  0  0  0  0  0  0  0  0  0
   57.8430   33.8970   45.9470 C   0  0  0  0  0  0  0  0  0  0  0  0
   57.4649   34.9036   45.7151 H   0  0  0  0  0  0  0  0  0  0  0  0
   58.1190   33.0020   44.9150 C   0  0  0  0  0  0  0  0  0  0  0  0
   57.9537   33.3006   43.8693 H   0  0  0  0  0  0  0  0  0  0  0  0
   58.6050   31.7270   45.2080 C   0  0  0  0  0  0  0  0  0  0  0  0
   58.8230   31.0271   44.3879 H   0  0  0  0  0  0  0  0  0  0  0  0
   58.8200   31.3250   46.5420 C   0  0  0  0  0  0  0  0  0  0  0  0
   59.3800   29.9810   46.8140 C   0  0  0  0  0  0  0  0  0  0  0  0
   60.1726   29.5777   46.1666 H   0  0  0  0  0  0  0  0  0  0  0  0
   58.9410   29.2760   47.8120 N   0  0  0  0  0  0  0  0  0  0  0  0
   59.7500   28.4420   48.6080 N   0  0  0  0  0  0  0  0  0  0  0  0
   60.2820   27.2630   48.2390 C   0  0  0  0  0  0  0  0  0  0  0  0
   60.0240   26.5750   46.9330 C   0  0  0  0  0  0  0  0  0  0  0  0
   60.5106   27.1401   46.1244 H   0  0  0  0  0  0  0  0  0  0  0  0
   60.4319   25.5546   46.9830 H   0  0  0  0  0  0  0  0  0  0  0  0
   58.5470   26.4940   46.6600 C   0  0  0  0  0  0  0  0  0  0  0  0
   57.9240   27.4580   45.8500 C   0  0  0  0  0  0  0  0  0  0  0  0
   58.5228   28.2615   45.3962 H   0  0  0  0  0  0  0  0  0  0  0  0
   56.5470   27.4010   45.6180 C   0  0  0  0  0  0  0  0  0  0  0  0
   56.0655   28.1571   44.9804 H   0  0  0  0  0  0  0  0  0  0  0  0
   55.7800   26.3830   46.1960 C   0  0  0  0  0  0  0  0  0  0  0  0
   54.4100   26.3300   45.9670 O   0  0  0  0  0  0  0  0  0  0  0  0
   56.3920   25.4210   47.0040 C   0  0  0  0  0  0  0  0  0  0  0  0
   55.7893   24.6206   47.4579 H   0  0  0  0  0  0  0  0  0  0  0  0
   57.7700   25.4750   47.2360 C   0  0  0  0  0  0  0  0  0  0  0  0
   58.2479   24.7159   47.8726 H   0  0  0  0  0  0  0  0  0  0  0  0
   61.1110   26.7840   49.1910 N   0  0  0  0  0  0  0  0  0  0  0  0
   61.1280   27.6690   50.1800 N   0  0  0  0  0  0  0  0  0  0  0  0
   60.3110   28.6720   49.8110 C   0  0  0  0  0  0  0  0  0  0  0  0
   60.1380   29.7120   50.4980 O   0  0  0  0  0  0  0  0  0  0  0  0
  1  2  1  0
  2  3  1  0
  3  4  2  0
  4  5  1  0
  4  6  1  0
  6  7  1  0
  6  8  2  0
  8  9  1  0
  8 10  1  0
 10 11  1  0
 10 12  2  0
 12 13  1  0
 13 14  1  0
 13 15  2  0
 15 16  1  0
 16 17  1  0
 17 18  1  0
 18 19  1  0
 18 20  1  0
 18 21  1  0
 21 22  2  0
 22 23  1  0
 22 24  1  0
 24 25  1  0
 24 26  2  0
 26 27  1  0
 26 28  1  0
 28 29  1  0
 28 30  2  0
 30 31  1  0
 17 32  2  0
 32 33  1  0
 33 34  1  0
 34 35  2  0
 12  3  1  0
 34 16  1  0
 30 21  1  0
M  CHG  2  27  -1  33  -1
M  END
>  <UniqueID>  (59) 
51

>  <SMILES>  (59) 
O=c1[n-]nc(Cc2ccc([O-])cc2)n1/N=C/c1ccccc1O

>  <Energy>  (59) 
78.99267335339077

>  <Genealogy>  (59) 
O=c1[n-]nc(Cc2ccc([O-])cc2)n1N=Cc1ccccc1O (protonated)
O=c1[n-]nc(Cc2ccc([O-])cc2)n1/N=C/c1ccccc1O (cis-trans isomerization)
O=c1[n-]nc(Cc2ccc([O-])cc2)n1/N=C/c1ccccc1O (3D coordinates assigned)
O=c1[n-]nc(Cc2ccc([O-])cc2)n1/N=C/c1ccccc1O (optimized conformer: 78.99267335339077 kcal/mol)

>  <smiles>  (59) 
O=c1[nH]nc(Cc2ccc(O)cc2)n1N=Cc1ccccc1O

>  <score_type>  (59) 
oracle

>  <origin>  (59) 
adg

>  <m_score__min__energy>  (59) 
-10.82

>  <m_primary>  (59) 
energy

$$$$
59:0
     RDKit          3D

 63 66  0  0  0  0  0  0  0  0999 V2000
   55.1440   29.3350   44.8700 N   0  0  0  0  0  0  0  0  0  0  0  0
   56.4260   28.7490   45.0980 C   0  0  0  0  0  0  0  0  0  0  0  0
   57.4640   29.3350   44.6810 O   0  0  0  0  0  0  0  0  0  0  0  0
   56.5290   27.4500   45.7850 C   0  0  0  0  0  0  0  0  0  0  0  0
   55.4970   26.7340   45.9450 O   0  0  0  0  0  0  0  0  0  0  0  0
   57.8000   27.0080   46.2760 N   0  0  0  0  0  0  0  0  0  0  0  0
   58.8840   27.8810   46.7390 C   0  0  2  0  0  0  0  0  0  0  0  0
   59.9380   27.1090   47.4670 C   0  0  0  0  0  0  0  0  0  0  0  0
   60.7140   26.1640   47.1720 O   0  0  0  0  0  0  0  0  0  0  0  0
   59.7120   27.9510   48.6630 N   0  0  0  0  0  0  0  0  0  0  0  0
   60.5910   28.4520   49.6590 C   0  0  0  0  0  0  0  0  0  0  0  0
   60.8150   27.6270   50.8580 C   0  0  0  0  0  0  0  0  0  0  0  0
   61.0180   26.3910   50.7290 O   0  0  0  0  0  0  0  0  0  0  0  0
   60.6720   28.1660   52.1300 O   0  0  0  0  0  0  0  0  0  0  0  0
   61.1100   29.6850   49.4570 C   0  0  0  0  0  0  0  0  0  0  0  0
   62.1270   30.3330   50.3860 C   0  0  0  0  0  0  0  0  0  0  0  0
   62.5670   31.7230   49.9410 C   0  0  0  0  0  0  0  0  0  0  0  0
   63.5940   31.8140   48.9800 C   0  0  0  0  0  0  0  0  0  0  0  0
   63.9890   33.0480   48.4660 C   0  0  0  0  0  0  0  0  0  0  0  0
   63.3750   34.2160   48.9060 C   0  0  0  0  0  0  0  0  0  0  0  0
   62.3900   34.1590   49.8920 C   0  0  0  0  0  0  0  0  0  0  0  0
   62.0120   32.9270   50.4720 C   0  0  0  0  0  0  0  0  0  0  0  0
   60.9540   32.8880   51.5650 C   0  0  0  0  0  0  0  0  0  0  0  0
   59.5750   33.4370   51.1610 C   0  0  0  0  0  0  0  0  0  0  0  0
   58.4440   32.9470   52.0850 C   0  0  0  0  0  0  0  0  0  0  0  0
   57.3820   32.2570   51.3540 N   0  0  0  0  0  0  0  0  0  0  0  0
   56.8860   30.9370   51.6250 C   0  0  0  0  0  0  0  0  0  0  0  0
   57.4750   29.9510   51.1150 O   0  0  0  0  0  0  0  0  0  0  0  0
   55.6470   30.7140   52.3850 C   0  0  0  0  0  0  0  0  0  0  0  0
   55.6810   30.4330   53.7590 C   0  0  0  0  0  0  0  0  0  0  0  0
   54.4860   30.2740   54.4690 C   0  0  0  0  0  0  0  0  0  0  0  0
   53.2540   30.4060   53.8180 C   0  0  0  0  0  0  0  0  0  0  0  0
   53.2160   30.6810   52.4430 C   0  0  0  0  0  0  0  0  0  0  0  0
   51.6900   30.9030   51.6010 S   0  0  0  0  0  0  0  0  0  0  0  0
   51.4270   32.5860   51.3170 N   0  0  0  0  0  0  0  0  0  0  0  0
   50.5520   30.3620   52.4220 O   0  0  0  0  0  0  0  0  0  0  0  0
   51.7270   30.1740   50.2880 O   0  0  0  0  0  0  0  0  0  0  0  0
   54.4120   30.8200   51.7330 C   0  0  0  0  0  0  0  0  0  0  0  0
   60.7110   30.4260   48.1830 C   0  0  0  0  0  0  0  0  0  0  0  0
   58.8940   30.4190   47.8790 S   0  0  0  0  0  0  0  0  0  0  0  0
   58.6240   28.5980   47.9610 C   0  0  1  0  0  0  0  0  0  0  0  0
   54.4600   29.4590   45.6510 H   0  0  0  0  0  0  0  0  0  0  0  0
   59.0794   28.4392   45.8115 H   0  0  0  0  0  0  0  0  0  0  0  0
   61.6795   30.4147   51.3875 H   0  0  0  0  0  0  0  0  0  0  0  0
   63.0227   29.6945   50.3766 H   0  0  0  0  0  0  0  0  0  0  0  0
   64.0914   30.8973   48.6303 H   0  0  0  0  0  0  0  0  0  0  0  0
   64.7876   33.0982   47.7112 H   0  0  0  0  0  0  0  0  0  0  0  0
   63.6665   35.1856   48.4760 H   0  0  0  0  0  0  0  0  0  0  0  0
   61.9002   35.0867   50.2230 H   0  0  0  0  0  0  0  0  0  0  0  0
   60.8255   31.8411   51.8771 H   0  0  0  0  0  0  0  0  0  0  0  0
   61.3205   33.5439   52.3684 H   0  0  0  0  0  0  0  0  0  0  0  0
   59.6091   34.5358   51.1993 H   0  0  0  0  0  0  0  0  0  0  0  0
   59.3566   33.0709   50.1470 H   0  0  0  0  0  0  0  0  0  0  0  0
   58.8693   32.2544   52.8262 H   0  0  0  0  0  0  0  0  0  0  0  0
   57.9989   33.8308   52.5654 H   0  0  0  0  0  0  0  0  0  0  0  0
   56.6463   30.3378   54.2777 H   0  0  0  0  0  0  0  0  0  0  0  0
   54.5148   30.0441   55.5443 H   0  0  0  0  0  0  0  0  0  0  0  0
   52.3172   30.2943   54.3836 H   0  0  0  0  0  0  0  0  0  0  0  0
   51.0120   32.6920   50.3710 H   0  0  0  0  0  0  0  0  0  0  0  0
   54.3829   31.0147   50.6508 H   0  0  0  0  0  0  0  0  0  0  0  0
   61.0477   31.4699   48.2656 H   0  0  0  0  0  0  0  0  0  0  0  0
   61.1859   29.9045   47.3389 H   0  0  0  0  0  0  0  0  0  0  0  0
   57.5958   28.5566   48.3497 H   0  0  0  0  0  0  0  0  0  0  0  0
  1  2  1  0
  2  3  2  0
  2  4  1  0
  4  5  2  0
  4  6  1  0
  6  7  1  0
  7  8  1  0
  8  9  2  0
  8 10  1  0
 10 11  1  0
 11 12  1  0
 12 13  2  0
 12 14  1  0
 11 15  2  0
 15 16  1  0
 16 17  1  0
 17 18  2  0
 18 19  1  0
 19 20  2  0
 20 21  1  0
 21 22  2  0
 22 23  1  0
 23 24  1  0
 24 25  1  0
 25 26  1  0
 26 27  1  0
 27 28  2  0
 27 29  1  0
 29 30  2  0
 30 31  1  0
 31 32  2  0
 32 33  1  0
 33 34  1  0
 34 35  1  0
 34 36  2  0
 34 37  2  0
 33 38  2  0
 15 39  1  0
 39 40  1  0
 40 41  1  0
 41  7  1  0
 41 10  1  0
 22 17  1  0
 38 29  1  0
  1 42  1  0
  7 43  1  6
 16 44  1  0
 16 45  1  0
 18 46  1  0
 19 47  1  0
 20 48  1  0
 21 49  1  0
 23 50  1  0
 23 51  1  0
 24 52  1  0
 24 53  1  0
 25 54  1  0
 25 55  1  0
 30 56  1  0
 31 57  1  0
 32 58  1  0
 35 59  1  0
 38 60  1  0
 39 61  1  0
 39 62  1  0
 41 63  1  1
M  CHG  5   1  -1   6  -1  14  -1  26  -1  35  -1
M  END
>  <UniqueID>  (60) 
52

>  <SMILES>  (60) 
[NH-]C(=O)C(=O)[N-][C@@H]1C(=O)N2C(C(=O)[O-])=C(Cc3ccccc3CCC[N-]C(=O)c3cccc(S([NH-])(=O)=O)c3)CS[C@@H]12

>  <Energy>  (60) 
125.04786032838268

>  <Genealogy>  (60) 
[NH-]C(=O)C(=O)[N-]C1C(=O)N2C(C(=O)[O-])=C(Cc3ccccc3CCC[N-]C(=O)c3cccc(S([NH-])(=O)=O)c3)CSC12 (protonated)
[NH-]C(=O)C(=O)[N-][C@@H]1C(=O)N2C(C(=O)[O-])=C(Cc3ccccc3CCC[N-]C(=O)c3cccc(S([NH-])(=O)=O)c3)CS[C@@H]12 (chirality)
[NH-]C(=O)C(=O)[N-][C@@H]1C(=O)N2C(C(=O)[O-])=C(Cc3ccccc3CCC[N-]C(=O)c3cccc(S([NH-])(=O)=O)c3)CS[C@@H]12 (3D coordinates assigned)
[NH-]C(=O)C(=O)[N-][C@@H]1C(=O)N2C(C(=O)[O-])=C(Cc3ccccc3CCC[N-]C(=O)c3cccc(S([NH-])(=O)=O)c3)CS[C@@H]12 (nonaromatic ring conformer: 125.04786032838268 kcal/mol)

>  <smiles>  (60) 
NC(=O)C(=O)NC1C(=O)N2C(C(=O)O)=C(Cc3ccccc3CCCNC(=O)c3cccc(S(N)(=O)=O)c3)CSC12

>  <score_type>  (60) 
oracle

>  <origin>  (60) 
adg

>  <m_score__min__energy>  (60) 
-19.539999999999999

>  <m_primary>  (60) 
energy

$$$$
60:0
     RDKit          3D

 38 40  0  0  0  0  0  0  0  0999 V2000
   56.7890   25.2520   46.7580 N   0  0  0  0  0  0  0  0  0  0  0  0
   56.5180   26.4000   46.2320 C   0  0  0  0  0  0  0  0  0  0  0  0
   55.1810   26.6830   45.9930 O   0  0  0  0  0  0  0  0  0  0  0  0
   57.5680   27.3510   45.9060 C   0  0  0  0  0  0  0  0  0  0  0  0
   58.2860   27.1950   44.7450 C   0  0  0  0  0  0  0  0  0  0  0  0
   59.2690   28.1240   44.4840 C   0  0  0  0  0  0  0  0  0  0  0  0
   59.5310   29.1850   45.3610 C   0  0  0  0  0  0  0  0  0  0  0  0
   58.8120   29.3470   46.5340 C   0  0  0  0  0  0  0  0  0  0  0  0
   59.0770   30.4620   47.4890 C   0  0  0  0  0  0  0  0  0  0  0  0
   59.4090   31.7050   46.8760 N   0  0  0  0  0  0  0  0  0  0  0  0
   58.3400   32.4200   46.2020 C   0  0  0  0  0  0  0  0  0  0  0  0
   57.4760   31.6210   45.6910 O   0  0  0  0  0  0  0  0  0  0  0  0
   58.0900   33.8530   46.0150 C   0  0  0  0  0  0  0  0  0  0  0  0
   59.2470   34.6570   45.6250 C   0  0  0  0  0  0  0  0  0  0  0  0
   59.0620   35.5180   44.6970 O   0  0  0  0  0  0  0  0  0  0  0  0
   60.5710   34.6140   46.1420 N   0  0  0  0  0  0  0  0  0  0  0  0
   61.2590   33.4650   46.6250 C   0  0  0  0  0  0  0  0  0  0  0  0
   62.6100   33.7550   46.7580 C   0  0  0  0  0  0  0  0  0  0  0  0
   63.5020   32.7990   47.2100 C   0  0  0  0  0  0  0  0  0  0  0  0
   62.9700   31.5610   47.5150 C   0  0  0  0  0  0  0  0  0  0  0  0
   61.6270   31.2730   47.3820 C   0  0  0  0  0  0  0  0  0  0  0  0
   60.7400   32.2140   46.9360 C   0  0  0  0  0  0  0  0  0  0  0  0
   57.8270   28.3930   46.7670 C   0  0  0  0  0  0  0  0  0  0  0  0
   57.6260   25.2410   47.3900 H   0  0  0  0  0  0  0  0  0  0  0  0
   54.4200   26.2540   46.4960 H   0  0  0  0  0  0  0  0  0  0  0  0
   58.0844   26.3637   44.0534 H   0  0  0  0  0  0  0  0  0  0  0  0
   59.8637   28.0305   43.5633 H   0  0  0  0  0  0  0  0  0  0  0  0
   60.3248   29.9049   45.1127 H   0  0  0  0  0  0  0  0  0  0  0  0
   58.1746   30.6115   48.1000 H   0  0  0  0  0  0  0  0  0  0  0  0
   59.9552   30.1627   48.0800 H   0  0  0  0  0  0  0  0  0  0  0  0
   57.3244   33.9624   45.2328 H   0  0  0  0  0  0  0  0  0  0  0  0
   57.7819   34.2327   47.0004 H   0  0  0  0  0  0  0  0  0  0  0  0
   61.0800   35.5440   46.1600 H   0  0  0  0  0  0  0  0  0  0  0  0
   62.9766   34.7596   46.5002 H   0  0  0  0  0  0  0  0  0  0  0  0
   64.5754   33.0127   47.3204 H   0  0  0  0  0  0  0  0  0  0  0  0
   63.6449   30.7723   47.8789 H   0  0  0  0  0  0  0  0  0  0  0  0
   61.2628   30.2675   47.6396 H   0  0  0  0  0  0  0  0  0  0  0  0
   57.2256   28.4754   47.6843 H   0  0  0  0  0  0  0  0  0  0  0  0
  1  2  2  3
  2  3  1  0
  2  4  1  0
  4  5  2  0
  5  6  1  0
  6  7  2  0
  7  8  1  0
  8  9  1  0
  9 10  1  0
 10 11  1  0
 11 12  2  0
 11 13  1  0
 13 14  1  0
 14 15  2  0
 14 16  1  0
 16 17  1  0
 17 18  2  0
 18 19  1  0
 19 20  2  0
 20 21  1  0
 21 22  2  0
  8 23  2  0
 23  4  1  0
 22 10  1  0
 22 17  1  0
  1 24  1  0
  3 25  1  0
  5 26  1  0
  6 27  1  0
  7 28  1  0
  9 29  1  0
  9 30  1  0
 13 31  1  0
 13 32  1  0
 16 33  1  0
 18 34  1  0
 19 35  1  0
 20 36  1  0
 21 37  1  0
 23 38  1  0
M  END
>  <smiles>  (61) 
N=C(O)c1cccc(CN2C(=O)CC(=O)Nc3ccccc32)c1

>  <score_type>  (61) 
oracle

>  <origin>  (61) 
adg

>  <m_score__min__energy>  (61) 
-7.5

>  <m_primary>  (61) 
energy

$$$$
61:0
     RDKit          3D

 48 50  0  0  0  0  0  0  0  0999 V2000
   57.8970   30.2610   51.1930 C   0  0  0  0  0  0  0  0  0  0  0  0
   59.1710   29.7130   50.5700 C   0  0  0  0  0  0  0  0  0  0  0  0
   58.9500   29.4470   49.1890 O   0  0  0  0  0  0  0  0  0  0  0  0
   59.8700   28.7520   48.3990 C   0  0  0  0  0  0  0  0  0  0  0  0
   60.0670   27.5200   48.5790 O   0  0  0  0  0  0  0  0  0  0  0  0
   60.6450   29.4940   47.3510 C   0  0  0  0  0  0  0  0  0  0  0  0
   59.8010   30.5170   46.6870 N   0  0  0  0  0  0  0  0  0  0  0  0
   59.2160   30.2410   45.4610 C   0  0  0  0  0  0  0  0  0  0  0  0
   59.2770   28.8570   44.8220 C   0  0  0  0  0  0  0  0  0  0  0  0
   58.2620   27.9490   45.3670 N   0  0  0  0  0  0  0  0  0  0  0  0
   58.5190   26.8610   46.1270 C   0  0  0  0  0  0  0  0  0  0  0  0
   57.3370   26.2330   46.4770 C   0  0  0  0  0  0  0  0  0  0  0  0
   56.3330   26.9800   45.9030 C   0  0  0  0  0  0  0  0  0  0  0  0
   54.9720   26.7150   45.9920 O   0  0  0  0  0  0  0  0  0  0  0  0
   56.9190   28.0320   45.2290 C   0  0  0  0  0  0  0  0  0  0  0  0
   56.1940   29.0910   44.4550 C   0  0  0  0  0  0  0  0  0  0  0  0
   58.6080   31.2780   44.7330 C   0  0  0  0  0  0  0  0  0  0  0  0
   58.4830   32.5460   45.2770 C   0  0  0  0  0  0  0  0  0  0  0  0
   57.9250   33.4530   44.6000 O   0  0  0  0  0  0  0  0  0  0  0  0
   58.9610   32.7980   46.5680 C   0  0  0  0  0  0  0  0  0  0  0  0
   58.8000   34.0670   47.1550 C   0  0  0  0  0  0  0  0  0  0  0  0
   59.2580   34.3150   48.4460 C   0  0  0  0  0  0  0  0  0  0  0  0
   59.8820   33.2980   49.1810 C   0  0  0  0  0  0  0  0  0  0  0  0
   60.3440   33.4960   50.4910 O   0  0  0  0  0  0  0  0  0  0  0  0
   59.5070   33.5470   51.6420 C   0  0  0  0  0  0  0  0  0  0  0  0
   60.0540   32.0380   48.6010 C   0  0  0  0  0  0  0  0  0  0  0  0
   59.6160   31.7590   47.2810 C   0  0  0  0  0  0  0  0  0  0  0  0
   57.9801   30.2252   52.2893 H   0  0  0  0  0  0  0  0  0  0  0  0
   57.7494   31.3022   50.8702 H   0  0  0  0  0  0  0  0  0  0  0  0
   57.0397   29.6521   50.8702 H   0  0  0  0  0  0  0  0  0  0  0  0
   59.9781   30.4528   50.6759 H   0  0  0  0  0  0  0  0  0  0  0  0
   59.4566   28.7816   51.0807 H   0  0  0  0  0  0  0  0  0  0  0  0
   61.5053   29.9900   47.8242 H   0  0  0  0  0  0  0  0  0  0  0  0
   60.9836   28.7739   46.5915 H   0  0  0  0  0  0  0  0  0  0  0  0
   59.1153   28.9597   43.7388 H   0  0  0  0  0  0  0  0  0  0  0  0
   60.2659   28.4278   45.0406 H   0  0  0  0  0  0  0  0  0  0  0  0
   59.5229   26.5237   46.4242 H   0  0  0  0  0  0  0  0  0  0  0  0
   57.2230   25.3250   47.0874 H   0  0  0  0  0  0  0  0  0  0  0  0
   55.7141   29.7920   45.1537 H   0  0  0  0  0  0  0  0  0  0  0  0
   56.9090   29.6365   43.8216 H   0  0  0  0  0  0  0  0  0  0  0  0
   55.4268   28.6217   43.8216 H   0  0  0  0  0  0  0  0  0  0  0  0
   58.2271   31.0807   43.7201 H   0  0  0  0  0  0  0  0  0  0  0  0
   58.3074   34.8707   46.5881 H   0  0  0  0  0  0  0  0  0  0  0  0
   59.1296   35.3128   48.8908 H   0  0  0  0  0  0  0  0  0  0  0  0
   60.1282   33.5092   52.5490 H   0  0  0  0  0  0  0  0  0  0  0  0
   58.9278   34.4821   51.6330 H   0  0  0  0  0  0  0  0  0  0  0  0
   58.8185   32.6891   51.6330 H   0  0  0  0  0  0  0  0  0  0  0  0
   60.5416   31.2422   49.1832 H   0  0  0  0  0  0  0  0  0  0  0  0
  1  2  1  0
  2  3  1  0
  3  4  1  0
  4  5  2  0
  4  6  1  0
  6  7  1  0
  7  8  1  0
  8  9  1  0
  9 10  1  0
 10 11  1  0
 11 12  2  0
 12 13  1  0
 13 14  1  0
 13 15  2  0
 15 16  1  0
  8 17  2  0
 17 18  1  0
 18 19  2  0
 18 20  1  0
 20 21  2  0
 21 22  1  0
 22 23  2  0
 23 24  1  0
 24 25  1  0
 23 26  1  0
 26 27  2  0
 27  7  1  0
 15 10  1  0
 27 20  1  0
  1 28  1  0
  1 29  1  0
  1 30  1  0
  2 31  1  0
  2 32  1  0
  6 33  1  0
  6 34  1  0
  9 35  1  0
  9 36  1  0
 11 37  1  0
 12 38  1  0
 16 39  1  0
 16 40  1  0
 16 41  1  0
 17 42  1  0
 21 43  1  0
 22 44  1  0
 25 45  1  0
 25 46  1  0
 25 47  1  0
 26 48  1  0
M  CHG  1  14  -1
M  END
>  <UniqueID>  (62) 
53

>  <SMILES>  (62) 
CCOC(=O)Cn1c(Cn2ccc([O-])c2C)cc(=O)c2ccc(OC)cc21

>  <Energy>  (62) 
85.45490291875515

>  <Genealogy>  (62) 
CCOC(=O)Cn1c(Cn2ccc([O-])c2C)cc(=O)c2ccc(OC)cc21 (protonated)
CCOC(=O)Cn1c(Cn2ccc([O-])c2C)cc(=O)c2ccc(OC)cc21 (3D coordinates assigned)
CCOC(=O)Cn1c(Cn2ccc([O-])c2C)cc(=O)c2ccc(OC)cc21 (optimized conformer: 85.45490291875515 kcal/mol)

>  <smiles>  (62) 
CCOC(=O)Cn1c(Cn2ccc(O)c2C)cc(=O)c2ccc(OC)cc21

>  <score_type>  (62) 
oracle

>  <origin>  (62) 
adg

>  <m_score__min__energy>  (62) 
-11.02

>  <m_primary>  (62) 
energy

$$$$
62:0
     RDKit          3D

 29 30  0  0  0  0  0  0  0  0999 V2000
   56.4160   30.5560   44.8030 O   0  0  0  0  0  0  0  0  0  0  0  0
   57.4290   31.1770   44.3850 C   0  0  0  0  0  0  0  0  0  0  0  0
   58.0680   32.2510   45.1790 C   0  0  0  0  0  0  0  0  0  0  0  0
   57.4840   33.5290   45.1550 C   0  0  0  0  0  0  0  0  0  0  0  0
   58.0440   34.5810   45.8810 C   0  0  0  0  0  0  0  0  0  0  0  0
   59.1920   34.3720   46.6410 C   0  0  0  0  0  0  0  0  0  0  0  0
   59.7860   33.1090   46.6790 C   0  0  0  0  0  0  0  0  0  0  0  0
   59.2380   32.0350   45.9480 C   0  0  0  0  0  0  0  0  0  0  0  0
   59.8220   30.7550   45.9680 O   0  0  0  0  0  0  0  0  0  0  0  0
   59.4080   29.6640   46.7900 C   0  0  0  0  0  0  0  0  0  0  0  0
   58.8450   28.5600   45.9500 C   0  0  0  0  0  0  0  0  0  0  0  0
   58.1410   27.4630   46.3930 C   0  0  0  0  0  0  0  0  0  0  0  0
   57.8440   26.7500   45.2940 N   0  0  0  0  0  0  0  0  0  0  0  0
   57.1750   25.4550   45.2500 C   0  0  0  0  0  0  0  0  0  0  0  0
   55.8870   25.5230   46.0040 C   0  0  0  0  0  0  0  0  0  0  0  0
   55.5070   24.5430   46.6970 O   0  0  0  0  0  0  0  0  0  0  0  0
   55.1340   26.6900   45.9890 O   0  0  0  0  0  0  0  0  0  0  0  0
   58.3480   27.3690   44.2380 N   0  0  0  0  0  0  0  0  0  0  0  0
   58.9600   28.4840   44.6090 N   0  0  0  0  0  0  0  0  0  0  0  0
   57.8504   30.9143   43.4034 H   0  0  0  0  0  0  0  0  0  0  0  0
   56.5764   33.7018   44.5580 H   0  0  0  0  0  0  0  0  0  0  0  0
   57.5778   35.5769   45.8529 H   0  0  0  0  0  0  0  0  0  0  0  0
   59.6314   35.2031   47.2122 H   0  0  0  0  0  0  0  0  0  0  0  0
   60.6902   32.9503   47.2850 H   0  0  0  0  0  0  0  0  0  0  0  0
   60.2741   29.2854   47.3526 H   0  0  0  0  0  0  0  0  0  0  0  0
   58.6302   30.0158   47.4837 H   0  0  0  0  0  0  0  0  0  0  0  0
   57.8762   27.2203   47.4327 H   0  0  0  0  0  0  0  0  0  0  0  0
   56.9712   25.1850   44.2033 H   0  0  0  0  0  0  0  0  0  0  0  0
   57.8246   24.6956   45.7099 H   0  0  0  0  0  0  0  0  0  0  0  0
  1  2  2  0
  2  3  1  0
  3  4  2  0
  4  5  1  0
  5  6  2  0
  6  7  1  0
  7  8  2  0
  8  9  1  0
  9 10  1  0
 10 11  1  0
 11 12  2  0
 12 13  1  0
 13 14  1  0
 14 15  1  0
 15 16  2  0
 15 17  1  0
 13 18  1  0
 18 19  2  0
  8  3  1  0
 19 11  1  0
  2 20  1  0
  4 21  1  0
  5 22  1  0
  6 23  1  0
  7 24  1  0
 10 25  1  0
 10 26  1  0
 12 27  1  0
 14 28  1  0
 14 29  1  0
M  CHG  1  17  -1
M  END
>  <UniqueID>  (63) 
54

>  <SMILES>  (63) 
O=Cc1ccccc1OCc1cn(CC(=O)[O-])nn1

>  <Energy>  (63) 
62.8871400464759

>  <Genealogy>  (63) 
O=Cc1ccccc1OCc1cn(CC(=O)[O-])nn1 (protonated)
O=Cc1ccccc1OCc1cn(CC(=O)[O-])nn1 (3D coordinates assigned)
O=Cc1ccccc1OCc1cn(CC(=O)[O-])nn1 (optimized conformer: 62.8871400464759 kcal/mol)

>  <smiles>  (63) 
O=Cc1ccccc1OCc1cn(CC(=O)O)nn1

>  <score_type>  (63) 
oracle

>  <origin>  (63) 
adg

>  <m_score__min__energy>  (63) 
-9.5199999999999996

>  <m_primary>  (63) 
energy

$$$$
63:0
     RDKit          3D

 37 39  0  0  0  0  0  0  0  0999 V2000
   60.0775   29.5429   48.5727 H   0  0  0  0  0  0  0  0  0  0  0  0
   59.7490   28.9550   47.7030 C   0  0  0  0  0  0  0  0  0  0  0  0
   59.9337   27.8711   47.6703 H   0  0  0  0  0  0  0  0  0  0  0  0
   59.1230   29.5600   46.6820 C   0  0  0  0  0  0  0  0  0  0  0  0
   58.6500   28.9420   45.5140 C   0  0  0  0  0  0  0  0  0  0  0  0
   58.4520   27.6430   45.2190 C   0  0  0  0  0  0  0  0  0  0  0  0
   59.2412   27.1286   44.6510 H   0  0  0  0  0  0  0  0  0  0  0  0
   57.2660   26.8540   45.5940 C   0  0  0  0  0  0  0  0  0  0  0  0
   57.3020   25.6200   46.1290 N   0  0  0  0  0  0  0  0  0  0  0  0
   56.0080   25.3690   46.4230 C   0  0  0  0  0  0  0  0  0  0  0  0
   55.6270   24.2850   46.9350 O   0  0  0  0  0  0  0  0  0  0  0  0
   55.1560   26.3760   46.1350 N   0  0  0  0  0  0  0  0  0  0  0  0
   55.9710   27.3120   45.6240 C   0  0  0  0  0  0  0  0  0  0  0  0
   55.5420   28.5630   45.1990 O   0  0  0  0  0  0  0  0  0  0  0  0
   58.3800   29.9620   44.6200 C   0  0  0  0  0  0  0  0  0  0  0  0
   58.0436   29.8484   43.5789 H   0  0  0  0  0  0  0  0  0  0  0  0
   58.6130   31.1490   45.2830 C   0  0  0  0  0  0  0  0  0  0  0  0
   58.4810   32.5040   44.6540 C   0  0  0  0  0  0  0  0  0  0  0  0
   58.4066   33.2682   45.4417 H   0  0  0  0  0  0  0  0  0  0  0  0
   59.3637   32.7059   44.0295 H   0  0  0  0  0  0  0  0  0  0  0  0
   57.5759   32.5317   44.0295 H   0  0  0  0  0  0  0  0  0  0  0  0
   59.0310   30.9120   46.5500 N   0  0  0  0  0  0  0  0  0  0  0  0
   59.4220   31.9380   47.5330 C   0  0  0  0  0  0  0  0  0  0  0  0
   58.8015   32.8329   47.3780 H   0  0  0  0  0  0  0  0  0  0  0  0
   59.2722   31.5189   48.5390 H   0  0  0  0  0  0  0  0  0  0  0  0
   60.8830   32.3260   47.4000 C   0  0  0  0  0  0  0  0  0  0  0  0
   61.8690   31.4030   47.8000 C   0  0  0  0  0  0  0  0  0  0  0  0
   61.5674   30.4270   48.2080 H   0  0  0  0  0  0  0  0  0  0  0  0
   63.2250   31.7140   47.6840 C   0  0  0  0  0  0  0  0  0  0  0  0
   63.9843   30.9883   48.0108 H   0  0  0  0  0  0  0  0  0  0  0  0
   63.6190   32.9420   47.1550 C   0  0  0  0  0  0  0  0  0  0  0  0
   64.6881   33.1867   47.0710 H   0  0  0  0  0  0  0  0  0  0  0  0
   62.6580   33.8610   46.7320 C   0  0  0  0  0  0  0  0  0  0  0  0
   62.9741   34.8261   46.3092 H   0  0  0  0  0  0  0  0  0  0  0  0
   61.2920   33.5630   46.8420 C   0  0  0  0  0  0  0  0  0  0  0  0
   60.3430   34.5400   46.3690 C   0  0  0  0  0  0  0  0  0  0  0  0
   59.5880   35.3280   45.9820 N   0  0  0  0  0  0  0  0  0  0  0  0
  1  2  1  0
  2  3  1  0
  2  4  2  0
  4  5  1  0
  5  6  2  0
  6  7  1  0
  6  8  1  0
  8  9  1  0
  9 10  1  0
 10 11  2  0
 10 12  1  0
 12 13  1  0
 13 14  1  0
  5 15  1  0
 15 16  1  0
 15 17  2  0
 17 18  1  0
 18 19  1  0
 18 20  1  0
 18 21  1  0
 17 22  1  0
 22 23  1  0
 23 24  1  0
 23 25  1  0
 23 26  1  0
 26 27  2  0
 27 28  1  0
 27 29  1  0
 29 30  1  0
 29 31  2  0
 31 32  1  0
 31 33  1  0
 33 34  1  0
 33 35  2  0
 35 36  1  0
 36 37  3  0
 22  4  1  0
 35 26  1  0
 13  8  2  0
M  CHG  3   9  -1  12  -1  14  -1
M  END
>  <UniqueID>  (64) 
55

>  <SMILES>  (64) 
C=c1/c(=C\c2[n-]c(=O)[n-]c2[O-])cc(C)n1Cc1ccccc1C#N

>  <Energy>  (64) 
108.74319881028944

>  <Genealogy>  (64) 
C=c1c(=Cc2[n-]c(=O)[n-]c2[O-])cc(C)n1Cc1ccccc1C#N (protonated)
C=c1/c(=C\c2[n-]c(=O)[n-]c2[O-])cc(C)n1Cc1ccccc1C#N (cis-trans isomerization)
C=c1/c(=C\c2[n-]c(=O)[n-]c2[O-])cc(C)n1Cc1ccccc1C#N (3D coordinates assigned)
C=c1/c(=C\c2[n-]c(=O)[n-]c2[O-])cc(C)n1Cc1ccccc1C#N (optimized conformer: 108.74319881028944 kcal/mol)

>  <smiles>  (64) 
C=c1c(=Cc2[nH]c(=O)[nH]c2O)cc(C)n1Cc1ccccc1C#N

>  <score_type>  (64) 
oracle

>  <origin>  (64) 
adg

>  <m_score__min__energy>  (64) 
-15.529999999999999

>  <m_primary>  (64) 
energy

$$$$
64:0
     RDKit          3D

 44 45  0  0  0  0  0  0  0  0999 V2000
   54.6280   26.0180   45.9020 N   0  0  0  0  0  0  0  0  0  0  0  0
   56.0430   26.1150   46.0490 C   0  0  0  0  0  0  0  0  0  0  0  0
   56.7370   25.0680   46.1250 O   0  0  0  0  0  0  0  0  0  0  0  0
   56.6850   27.3900   46.1230 N   0  0  0  0  0  0  0  0  0  0  0  0
   57.1760   28.1250   44.9590 C   0  0  2  0  0  0  0  0  0  0  0  0
   58.7130   28.3180   45.0360 C   0  0  0  0  0  0  0  0  0  0  0  0
   59.2850   28.1580   46.4290 C   0  0  0  0  0  0  0  0  0  0  0  0
   59.8430   26.9290   46.8290 C   0  0  0  0  0  0  0  0  0  0  0  0
   60.3830   26.7810   48.1100 C   0  0  0  0  0  0  0  0  0  0  0  0
   60.3790   27.8560   49.0020 C   0  0  0  0  0  0  0  0  0  0  0  0
   59.8400   29.0850   48.6110 C   0  0  0  0  0  0  0  0  0  0  0  0
   59.3020   29.2400   47.3300 C   0  0  0  0  0  0  0  0  0  0  0  0
   56.3980   29.4190   44.8100 C   0  0  0  0  0  0  0  0  0  0  0  0
   55.1410   29.4170   44.8830 O   0  0  0  0  0  0  0  0  0  0  0  0
   57.0570   30.6810   44.6140 N   0  0  0  0  0  0  0  0  0  0  0  0
   57.8180   31.4250   45.6140 C   0  0  0  0  0  0  0  0  0  0  0  0
   57.9170   32.8860   45.2620 C   0  0  0  0  0  0  0  0  0  0  0  0
   57.8810   33.2360   44.0520 O   0  0  0  0  0  0  0  0  0  0  0  0
   58.1310   33.8910   46.2620 N   0  0  0  0  0  0  0  0  0  0  0  0
   58.6410   33.6590   47.6110 C   0  0  0  0  0  0  0  0  0  0  0  0
   60.1470   33.7480   47.6360 C   0  0  0  0  0  0  0  0  0  0  0  0
   60.8550   33.7510   46.4200 C   0  0  0  0  0  0  0  0  0  0  0  0
   62.2530   33.7790   46.4110 C   0  0  0  0  0  0  0  0  0  0  0  0
   62.9600   33.8090   47.6160 C   0  0  0  0  0  0  0  0  0  0  0  0
   62.2680   33.8230   48.8320 C   0  0  0  0  0  0  0  0  0  0  0  0
   60.8670   33.8060   48.8480 C   0  0  0  0  0  0  0  0  0  0  0  0
   60.2020   33.8440   50.0710 O   0  0  0  0  0  0  0  0  0  0  0  0
   53.9940   26.7020   46.3700 H   0  0  0  0  0  0  0  0  0  0  0  0
   57.0015   27.5432   44.0419 H   0  0  0  0  0  0  0  0  0  0  0  0
   59.1883   27.5743   44.3794 H   0  0  0  0  0  0  0  0  0  0  0  0
   58.9198   29.3523   44.7240 H   0  0  0  0  0  0  0  0  0  0  0  0
   59.8542   26.0801   46.1295 H   0  0  0  0  0  0  0  0  0  0  0  0
   60.8121   25.8156   48.4163 H   0  0  0  0  0  0  0  0  0  0  0  0
   60.7996   27.7355   50.0112 H   0  0  0  0  0  0  0  0  0  0  0  0
   59.8391   29.9321   49.3128 H   0  0  0  0  0  0  0  0  0  0  0  0
   58.8896   30.2128   47.0241 H   0  0  0  0  0  0  0  0  0  0  0  0
   57.3185   31.3259   46.5890 H   0  0  0  0  0  0  0  0  0  0  0  0
   58.8362   31.0102   45.6499 H   0  0  0  0  0  0  0  0  0  0  0  0
   58.2234   34.4171   48.2899 H   0  0  0  0  0  0  0  0  0  0  0  0
   58.3415   32.6507   47.9331 H   0  0  0  0  0  0  0  0  0  0  0  0
   60.3039   33.7311   45.4682 H   0  0  0  0  0  0  0  0  0  0  0  0
   62.7966   33.7774   45.4547 H   0  0  0  0  0  0  0  0  0  0  0  0
   64.0599   33.8216   47.6086 H   0  0  0  0  0  0  0  0  0  0  0  0
   62.8262   33.8475   49.7795 H   0  0  0  0  0  0  0  0  0  0  0  0
  1  2  1  0
  2  3  2  0
  2  4  1  0
  4  5  1  0
  5  6  1  0
  6  7  1  0
  7  8  2  0
  8  9  1  0
  9 10  2  0
 10 11  1  0
 11 12  2  0
  5 13  1  0
 13 14  2  0
 13 15  1  0
 15 16  1  0
 16 17  1  0
 17 18  2  0
 17 19  1  0
 19 20  1  0
 20 21  1  0
 21 22  2  0
 22 23  1  0
 23 24  2  0
 24 25  1  0
 25 26  2  0
 26 27  1  0
 12  7  1  0
 26 21  1  0
  1 28  1  0
  5 29  1  6
  6 30  1  0
  6 31  1  0
  8 32  1  0
  9 33  1  0
 10 34  1  0
 11 35  1  0
 12 36  1  0
 16 37  1  0
 16 38  1  0
 20 39  1  0
 20 40  1  0
 22 41  1  0
 23 42  1  0
 24 43  1  0
 25 44  1  0
M  CHG  5   1  -1   4  -1  15  -1  19  -1  27  -1
M  END
>  <UniqueID>  (65) 
56

>  <SMILES>  (65) 
[NH-]C(=O)[N-][C@H](Cc1ccccc1)C(=O)[N-]CC(=O)[N-]Cc1ccccc1[O-]

>  <Energy>  (65) 
39.71467433051746

>  <Genealogy>  (65) 
[NH-]C(=O)[N-]C(Cc1ccccc1)C(=O)[N-]CC(=O)[N-]Cc1ccccc1[O-] (protonated)
[NH-]C(=O)[N-][C@H](Cc1ccccc1)C(=O)[N-]CC(=O)[N-]Cc1ccccc1[O-] (chirality)
[NH-]C(=O)[N-][C@H](Cc1ccccc1)C(=O)[N-]CC(=O)[N-]Cc1ccccc1[O-] (3D coordinates assigned)
[NH-]C(=O)[N-][C@H](Cc1ccccc1)C(=O)[N-]CC(=O)[N-]Cc1ccccc1[O-] (optimized conformer: 39.71467433051746 kcal/mol)

>  <smiles>  (65) 
NC(=O)NC(Cc1ccccc1)C(=O)NCC(=O)NCc1ccccc1O

>  <score_type>  (65) 
oracle

>  <origin>  (65) 
adg

>  <m_score__min__energy>  (65) 
-17.52

>  <m_primary>  (65) 
energy

$$$$
65:0
     RDKit          3D

 60 63  0  0  0  0  0  0  0  0999 V2000
   61.0260   30.6670   46.4040 O   0  0  0  0  0  0  0  0  0  0  0  0
   59.9160   31.2450   46.5650 C   0  0  0  0  0  0  0  0  0  0  0  0
   59.8460   32.7400   46.5100 C   0  0  0  0  0  0  0  0  0  0  0  0
   58.4880   33.1690   46.4790 O   0  0  0  0  0  0  0  0  0  0  0  0
   57.7870   33.4210   45.2930 C   0  0  0  0  0  0  0  0  0  0  0  0
   57.4680   34.6000   44.9790 O   0  0  0  0  0  0  0  0  0  0  0  0
   57.4130   32.3050   44.4110 C   0  0  0  0  0  0  0  0  0  0  0  0
   57.7520   32.3150   43.0490 C   0  0  0  0  0  0  0  0  0  0  0  0
   57.3650   31.2470   42.2370 C   0  0  0  0  0  0  0  0  0  0  0  0
   56.6470   30.1820   42.7850 C   0  0  0  0  0  0  0  0  0  0  0  0
   56.3290   30.2020   44.1440 C   0  0  0  0  0  0  0  0  0  0  0  0
   56.7130   31.2510   44.9190 N   0  0  0  0  0  0  0  0  0  0  0  0
   58.7220   30.4800   46.7750 N   0  0  0  0  0  0  0  0  0  0  0  0
   58.7220   29.0860   47.1180 C   0  0  0  0  0  0  0  0  0  0  0  0
   57.9160   28.1780   46.4090 C   0  0  0  0  0  0  0  0  0  0  0  0
   57.9850   26.8030   46.6750 C   0  0  0  0  0  0  0  0  0  0  0  0
   57.0040   25.6580   45.7640 S   0  0  0  0  0  0  0  0  0  0  0  0
   57.2970   25.7890   44.2950 O   0  0  0  0  0  0  0  0  0  0  0  0
   55.5570   25.9930   45.9910 O   0  0  0  0  0  0  0  0  0  0  0  0
   57.3280   24.0320   46.3280 N   0  0  0  0  0  0  0  0  0  0  0  0
   58.4470   23.3800   45.6170 C   0  0  0  0  0  0  0  0  0  0  0  0
   58.0510   22.8420   44.2350 C   0  0  0  0  0  0  0  0  0  0  0  0
   56.8290   21.9300   44.3370 C   0  0  0  0  0  0  0  0  0  0  0  0
   55.6750   22.6510   45.0290 C   0  0  0  0  0  0  0  0  0  0  0  0
   56.1130   23.1960   46.3980 C   0  0  0  0  0  0  0  0  0  0  0  0
   58.8820   26.3300   47.6370 C   0  0  0  0  0  0  0  0  0  0  0  0
   59.6950   27.2210   48.3380 C   0  0  0  0  0  0  0  0  0  0  0  0
   59.6100   28.5970   48.0990 C   0  0  0  0  0  0  0  0  0  0  0  0
   60.4320   29.4560   48.8400 O   0  0  0  0  0  0  0  0  0  0  0  0
   59.9740   30.5500   49.5920 C   0  0  0  0  0  0  0  0  0  0  0  0
   60.7300   31.7310   49.7400 C   0  0  0  0  0  0  0  0  0  0  0  0
   60.2170   32.8070   50.4690 C   0  0  0  0  0  0  0  0  0  0  0  0
   58.9460   32.7220   51.0440 C   0  0  0  0  0  0  0  0  0  0  0  0
   58.1910   31.5560   50.9010 C   0  0  0  0  0  0  0  0  0  0  0  0
   58.7030   30.4740   50.1770 C   0  0  0  0  0  0  0  0  0  0  0  0
   60.3392   33.1596   47.3992 H   0  0  0  0  0  0  0  0  0  0  0  0
   60.3532   33.0894   45.5986 H   0  0  0  0  0  0  0  0  0  0  0  0
   58.3180   33.1574   42.6247 H   0  0  0  0  0  0  0  0  0  0  0  0
   57.6251   31.2446   41.1682 H   0  0  0  0  0  0  0  0  0  0  0  0
   56.3356   29.3372   42.1531 H   0  0  0  0  0  0  0  0  0  0  0  0
   55.7668   29.3676   44.5887 H   0  0  0  0  0  0  0  0  0  0  0  0
   57.8020   30.9560   46.6310 H   0  0  0  0  0  0  0  0  0  0  0  0
   57.2247   28.5498   45.6383 H   0  0  0  0  0  0  0  0  0  0  0  0
   59.2553   24.1148   45.4881 H   0  0  0  0  0  0  0  0  0  0  0  0
   58.7649   22.5200   46.2248 H   0  0  0  0  0  0  0  0  0  0  0  0
   57.8152   23.6881   43.5727 H   0  0  0  0  0  0  0  0  0  0  0  0
   58.8918   22.2605   43.8290 H   0  0  0  0  0  0  0  0  0  0  0  0
   56.5147   21.6327   43.3257 H   0  0  0  0  0  0  0  0  0  0  0  0
   57.0979   21.0427   44.9289 H   0  0  0  0  0  0  0  0  0  0  0  0
   55.3424   23.4880   44.3975 H   0  0  0  0  0  0  0  0  0  0  0  0
   54.8534   21.9356   45.1812 H   0  0  0  0  0  0  0  0  0  0  0  0
   55.2940   23.8030   46.8113 H   0  0  0  0  0  0  0  0  0  0  0  0
   56.3472   22.3306   47.0354 H   0  0  0  0  0  0  0  0  0  0  0  0
   58.9471   25.2513   47.8421 H   0  0  0  0  0  0  0  0  0  0  0  0
   60.4078   26.8391   49.0838 H   0  0  0  0  0  0  0  0  0  0  0  0
   61.7265   31.8055   49.2802 H   0  0  0  0  0  0  0  0  0  0  0  0
   60.8145   33.7225   50.5906 H   0  0  0  0  0  0  0  0  0  0  0  0
   58.5402   33.5739   51.6094 H   0  0  0  0  0  0  0  0  0  0  0  0
   57.1928   31.4882   51.3581 H   0  0  0  0  0  0  0  0  0  0  0  0
   58.1042   29.5580   50.0663 H   0  0  0  0  0  0  0  0  0  0  0  0
  1  2  2  0
  2  3  1  0
  3  4  1  0
  4  5  1  0
  5  6  2  0
  5  7  1  0
  7  8  2  0
  8  9  1  0
  9 10  2  0
 10 11  1  0
 11 12  2  0
  2 13  1  0
 13 14  1  0
 14 15  2  0
 15 16  1  0
 16 17  1  0
 17 18  2  0
 17 19  2  0
 17 20  1  0
 20 21  1  0
 21 22  1  0
 22 23  1  0
 23 24  1  0
 24 25  1  0
 16 26  2  0
 26 27  1  0
 27 28  2  0
 28 29  1  0
 29 30  1  0
 30 31  2  0
 31 32  1  0
 32 33  2  0
 33 34  1  0
 34 35  2  0
 12  7  1  0
 28 14  1  0
 35 30  1  0
 25 20  1  0
  3 36  1  0
  3 37  1  0
  8 38  1  0
  9 39  1  0
 10 40  1  0
 11 41  1  0
 13 42  1  0
 15 43  1  0
 21 44  1  0
 21 45  1  0
 22 46  1  0
 22 47  1  0
 23 48  1  0
 23 49  1  0
 24 50  1  0
 24 51  1  0
 25 52  1  0
 25 53  1  0
 26 54  1  0
 27 55  1  0
 31 56  1  0
 32 57  1  0
 33 58  1  0
 34 59  1  0
 35 60  1  0
M  END
>  <UniqueID>  (66) 
57

>  <SMILES>  (66) 
O=C(COC(=O)c1ccccn1)Nc1cc(S(=O)(=O)N2CCCCC2)ccc1Oc1ccccc1

>  <Energy>  (66) 
66.91186407503236

>  <Genealogy>  (66) 
O=C(COC(=O)c1ccccn1)Nc1cc(S(=O)(=O)N2CCCCC2)ccc1Oc1ccccc1 (3D coordinates assigned)
O=C(COC(=O)c1ccccn1)Nc1cc(S(=O)(=O)N2CCCCC2)ccc1Oc1ccccc1 (nonaromatic ring conformer: 66.91186407503236 kcal/mol)

>  <smiles>  (66) 
O=C(COC(=O)c1ccccn1)Nc1cc(S(=O)(=O)N2CCCCC2)ccc1Oc1ccccc1

>  <score_type>  (66) 
oracle

>  <origin>  (66) 
adg

>  <m_score__min__energy>  (66) 
-9.3900000000000006

>  <m_primary>  (66) 
energy

$$$$
66:0
     RDKit          3D

 47 49  0  0  0  0  0  0  0  0999 V2000
   56.6140   28.1610   54.1130 O   0  0  0  0  0  0  0  0  0  0  0  0
   56.6510   29.1320   53.3120 C   0  0  0  0  0  0  0  0  0  0  0  0
   55.3980   29.5740   52.6320 C   0  0  0  0  0  0  0  0  0  0  0  0
   54.2630   28.8600   53.2060 N   0  0  0  0  0  0  0  0  0  0  0  0
   52.9450   29.4030   53.3520 C   0  0  0  0  0  0  0  0  0  0  0  0
   52.3050   29.1630   54.4090 O   0  0  0  0  0  0  0  0  0  0  0  0
   52.3280   30.2610   52.3210 C   0  0  0  0  0  0  0  0  0  0  0  0
   52.3530   29.8640   50.9750 C   0  0  0  0  0  0  0  0  0  0  0  0
   51.7840   30.6760   49.9890 C   0  0  0  0  0  0  0  0  0  0  0  0
   51.2000   31.8980   50.3370 C   0  0  0  0  0  0  0  0  0  0  0  0
   50.6370   32.7010   49.3520 O   0  0  0  0  0  0  0  0  0  0  0  0
   51.1920   32.3130   51.6740 C   0  0  0  0  0  0  0  0  0  0  0  0
   50.6280   33.5340   52.0240 O   0  0  0  0  0  0  0  0  0  0  0  0
   51.7590   31.5000   52.6620 C   0  0  0  0  0  0  0  0  0  0  0  0
   57.8950   29.7510   52.9620 N   0  0  0  0  0  0  0  0  0  0  0  0
   58.2350   30.3260   51.6910 C   0  0  0  0  0  0  0  0  0  0  0  0
   58.3090   31.7190   51.5850 C   0  0  0  0  0  0  0  0  0  0  0  0
   58.6540   32.3180   50.3700 C   0  0  0  0  0  0  0  0  0  0  0  0
   58.9420   31.5280   49.2560 C   0  0  0  0  0  0  0  0  0  0  0  0
   58.8900   30.1320   49.3520 C   0  0  0  0  0  0  0  0  0  0  0  0
   59.2760   29.1420   47.9460 S   0  0  0  0  0  0  0  0  0  0  0  0
   58.1860   28.1290   47.7290 O   0  0  0  0  0  0  0  0  0  0  0  0
   60.5700   28.4250   48.2100 O   0  0  0  0  0  0  0  0  0  0  0  0
   59.4320   30.1720   46.5370 N   0  0  0  0  0  0  0  0  0  0  0  0
   58.1170   30.4770   45.9300 C   0  0  0  0  0  0  0  0  0  0  0  0
   57.8160   29.6120   44.6930 C   0  0  0  0  0  0  0  0  0  0  0  0
   58.3870   28.3330   44.8430 O   0  0  0  0  0  0  0  0  0  0  0  0
   59.8010   28.4160   44.7810 C   0  0  0  0  0  0  0  0  0  0  0  0
   60.3870   29.6170   45.5620 C   0  0  0  0  0  0  0  0  0  0  0  0
   58.5500   29.5310   50.5730 C   0  0  0  0  0  0  0  0  0  0  0  0
   55.2631   30.6561   52.7765 H   0  0  0  0  0  0  0  0  0  0  0  0
   55.4653   29.3566   51.5558 H   0  0  0  0  0  0  0  0  0  0  0  0
   52.8224   28.9096   50.6944 H   0  0  0  0  0  0  0  0  0  0  0  0
   51.7958   30.3529   48.9376 H   0  0  0  0  0  0  0  0  0  0  0  0
   51.7593   31.8324   53.7106 H   0  0  0  0  0  0  0  0  0  0  0  0
   58.0945   32.3465   52.4627 H   0  0  0  0  0  0  0  0  0  0  0  0
   58.6986   33.4143   50.2917 H   0  0  0  0  0  0  0  0  0  0  0  0
   59.2103   32.0029   48.3008 H   0  0  0  0  0  0  0  0  0  0  0  0
   57.3335   30.3002   46.6816 H   0  0  0  0  0  0  0  0  0  0  0  0
   58.1389   31.5269   45.6026 H   0  0  0  0  0  0  0  0  0  0  0  0
   56.7268   29.5122   44.5758 H   0  0  0  0  0  0  0  0  0  0  0  0
   58.2468   30.0953   43.8037 H   0  0  0  0  0  0  0  0  0  0  0  0
   60.2222   27.4902   45.1998 H   0  0  0  0  0  0  0  0  0  0  0  0
   60.0694   28.5574   43.7237 H   0  0  0  0  0  0  0  0  0  0  0  0
   61.2871   29.2838   46.0994 H   0  0  0  0  0  0  0  0  0  0  0  0
   60.6219   30.4080   44.8346 H   0  0  0  0  0  0  0  0  0  0  0  0
   58.5295   28.4344   50.6571 H   0  0  0  0  0  0  0  0  0  0  0  0
  1  2  2  0
  2  3  1  0
  3  4  1  0
  4  5  1  0
  5  6  2  0
  5  7  1  0
  7  8  2  0
  8  9  1  0
  9 10  2  0
 10 11  1  0
 10 12  1  0
 12 13  1  0
 12 14  2  0
  2 15  1  0
 15 16  1  0
 16 17  2  0
 17 18  1  0
 18 19  2  0
 19 20  1  0
 20 21  1  0
 21 22  2  0
 21 23  2  0
 21 24  1  0
 24 25  1  0
 25 26  1  0
 26 27  1  0
 27 28  1  0
 28 29  1  0
 20 30  2  0
 14  7  1  0
 30 16  1  0
 29 24  1  0
  3 31  1  0
  3 32  1  0
  8 33  1  0
  9 34  1  0
 14 35  1  0
 17 36  1  0
 18 37  1  0
 19 38  1  0
 25 39  1  0
 25 40  1  0
 26 41  1  0
 26 42  1  0
 28 43  1  0
 28 44  1  0
 29 45  1  0
 29 46  1  0
 30 47  1  0
M  CHG  4   4  -1  11  -1  13  -1  15  -1
M  END
>  <UniqueID>  (67) 
58

>  <SMILES>  (67) 
O=C(C[N-]C(=O)c1ccc([O-])c([O-])c1)[N-]c1cccc(S(=O)(=O)N2CCOCC2)c1

>  <Energy>  (67) 
65.54968586070459

>  <Genealogy>  (67) 
O=C(C[N-]C(=O)c1ccc([O-])c([O-])c1)[N-]c1cccc(S(=O)(=O)N2CCOCC2)c1 (protonated)
O=C(C[N-]C(=O)c1ccc([O-])c([O-])c1)[N-]c1cccc(S(=O)(=O)N2CCOCC2)c1 (3D coordinates assigned)
O=C(C[N-]C(=O)c1ccc([O-])c([O-])c1)[N-]c1cccc(S(=O)(=O)N2CCOCC2)c1 (nonaromatic ring conformer: 65.54968586070459 kcal/mol)

>  <smiles>  (67) 
O=C(CNC(=O)c1ccc(O)c(O)c1)Nc1cccc(S(=O)(=O)N2CCOCC2)c1

>  <score_type>  (67) 
oracle

>  <origin>  (67) 
adg

>  <m_score__min__energy>  (67) 
-19.370000000000001

>  <m_primary>  (67) 
energy

$$$$
67:0
     RDKit          3D

 46 49  0  0  0  0  0  0  0  0999 V2000
   62.6831   35.1637   48.6831 H   0  0  0  0  0  0  0  0  0  0  0  0
   62.3450   34.1290   48.5250 C   0  0  0  0  0  0  0  0  0  0  0  0
   56.9910   23.6940   46.1930 C   0  0  0  0  0  0  0  0  0  0  0  0
   57.0529   22.6084   46.3589 H   0  0  0  0  0  0  0  0  0  0  0  0
   58.1570   24.4370   45.9830 C   0  0  0  0  0  0  0  0  0  0  0  0
   59.1336   23.9312   45.9649 H   0  0  0  0  0  0  0  0  0  0  0  0
   58.0850   25.8280   45.7950 C   0  0  0  0  0  0  0  0  0  0  0  0
   59.2620   26.6020   45.5190 N   0  0  0  0  0  0  0  0  0  0  0  0
   59.4100   27.8900   45.6530 C   0  0  0  0  0  0  0  0  0  0  0  0
   59.7870   30.5610   46.0010 N   0  0  0  0  0  0  0  0  0  0  0  0
   59.0410   30.1180   44.9550 C   0  0  0  0  0  0  0  0  0  0  0  0
   58.4990   30.9590   44.1210 N   0  0  0  0  0  0  0  0  0  0  0  0
   57.4920   31.9590   44.4780 C   0  0  0  0  0  0  0  0  0  0  0  0
   57.0819   32.4031   43.5590 H   0  0  0  0  0  0  0  0  0  0  0  0
   56.6929   31.4680   45.0528 H   0  0  0  0  0  0  0  0  0  0  0  0
   58.1010   33.0460   45.3240 C   0  0  0  0  0  0  0  0  0  0  0  0
   58.8780   34.0590   44.7370 C   0  0  0  0  0  0  0  0  0  0  0  0
   59.0288   34.0723   43.6475 H   0  0  0  0  0  0  0  0  0  0  0  0
   59.4600   35.0500   45.5330 C   0  0  0  0  0  0  0  0  0  0  0  0
   60.0665   35.8416   45.0689 H   0  0  0  0  0  0  0  0  0  0  0  0
   59.2720   35.0360   46.9180 C   0  0  0  0  0  0  0  0  0  0  0  0
   59.7286   35.8177   47.5429 H   0  0  0  0  0  0  0  0  0  0  0  0
   58.5040   34.0290   47.5090 C   0  0  0  0  0  0  0  0  0  0  0  0
   58.3587   34.0174   48.5993 H   0  0  0  0  0  0  0  0  0  0  0  0
   57.9200   33.0360   46.7160 C   0  0  0  0  0  0  0  0  0  0  0  0
   57.3168   32.2445   47.1847 H   0  0  0  0  0  0  0  0  0  0  0  0
   58.8610   28.7820   44.7720 N   0  0  0  0  0  0  0  0  0  0  0  0
   58.3260   28.4610   43.9350 H   0  0  0  0  0  0  0  0  0  0  0  0
   60.3600   29.6840   46.8590 C   0  0  0  0  0  0  0  0  0  0  0  0
   61.0530   30.1400   47.8620 N   0  0  0  0  0  0  0  0  0  0  0  0
   61.4510   31.5030   48.0900 C   0  0  0  0  0  0  0  0  0  0  0  0
   60.9250   32.2690   49.1500 C   0  0  0  0  0  0  0  0  0  0  0  0
   60.1652   31.8344   49.8162 H   0  0  0  0  0  0  0  0  0  0  0  0
   62.8940   33.3650   47.4930 C   0  0  0  0  0  0  0  0  0  0  0  0
   63.6721   33.7951   46.8452 H   0  0  0  0  0  0  0  0  0  0  0  0
   55.7470   24.3310   46.1920 C   0  0  0  0  0  0  0  0  0  0  0  0
   54.8308   23.7478   46.3668 H   0  0  0  0  0  0  0  0  0  0  0  0
   55.6660   25.7090   45.9690 C   0  0  0  0  0  0  0  0  0  0  0  0
   54.4270   26.3380   45.9510 O   0  0  0  0  0  0  0  0  0  0  0  0
   62.4560   32.0540   47.2820 C   0  0  0  0  0  0  0  0  0  0  0  0
   62.9024   31.4512   46.4774 H   0  0  0  0  0  0  0  0  0  0  0  0
   60.1640   28.3520   46.6830 N   0  0  0  0  0  0  0  0  0  0  0  0
   56.8320   26.4530   45.7590 C   0  0  0  0  0  0  0  0  0  0  0  0
   56.7645   27.5336   45.5647 H   0  0  0  0  0  0  0  0  0  0  0  0
   61.3660   33.5790   49.3570 C   0  0  0  0  0  0  0  0  0  0  0  0
   60.9418   34.1781   50.1762 H   0  0  0  0  0  0  0  0  0  0  0  0
  1  2  1  0
  2  3  2  0
  3  4  1  0
  3  5  1  0
  5  6  1  0
  5  7  2  0
  7  8  1  0
  8  9  2  0
  9 10  1  0
 10 11  1  0
 11 12  2  3
 12 13  1  0
 13 14  1  0
 13 15  1  0
 13 16  1  0
 16 17  2  0
 17 18  1  0
 17 19  1  0
 19 20  1  0
 19 21  2  0
 21 22  1  0
 21 23  1  0
 23 24  1  0
 23 25  2  0
 25 26  1  0
 11 27  1  0
 27 28  1  0
 27 29  1  0
 29 30  2  0
 30 31  1  0
 31 32  2  0
 32 33  1  0
 32 34  1  0
 34 35  1  0
 34 36  2  0
 36 37  1  0
 36 38  1  0
 38 39  1  0
 38 40  2  0
 40 41  1  0
 29 42  1  0
  7 43  1  0
 43 44  1  0
 43 45  2  0
 45 46  1  0
 45  2  1  0
 42  9  1  0
 25 16  1  0
 40 31  1  0
M  CHG  3  10  -1  39  -1  42  -1
M  END
>  <UniqueID>  (68) 
59

>  <SMILES>  (68) 
[O-]c1cccc(/N=c2/[n-]/c(=N\c3ccccc3)[n-]c(=NCc3ccccc3)[nH]2)c1

>  <Energy>  (68) 
65.5350462302867

>  <Genealogy>  (68) 
[O-]c1cccc(N=c2[n-]c(=Nc3ccccc3)[n-]c(=NCc3ccccc3)[nH]2)c1 (protonated)
[O-]c1cccc(/N=c2/[n-]/c(=N\c3ccccc3)[n-]c(=NCc3ccccc3)[nH]2)c1 (cis-trans isomerization)
[O-]c1cccc(/N=c2/[n-]/c(=N\c3ccccc3)[n-]c(=NCc3ccccc3)[nH]2)c1 (3D coordinates assigned)
[O-]c1cccc(/N=c2/[n-]/c(=N\c3ccccc3)[n-]c(=NCc3ccccc3)[nH]2)c1 (optimized conformer: 65.5350462302867 kcal/mol)

>  <smiles>  (68) 
Oc1cccc(N=c2[nH]c(=NCc3ccccc3)[nH]c(=Nc3ccccc3)[nH]2)c1

>  <score_type>  (68) 
oracle

>  <origin>  (68) 
adg

>  <m_score__min__energy>  (68) 
-14.41

>  <m_primary>  (68) 
energy

$$$$
68:0
     RDKit          3D

 49 52  0  0  0  0  0  0  0  0999 V2000
   55.5980   28.7700   44.8740 O   0  0  0  0  0  0  0  0  0  0  0  0
   56.6380   29.1790   45.4540 C   0  0  0  0  0  0  0  0  0  0  0  0
   57.3820   28.2320   46.3560 C   0  0  0  0  0  0  0  0  0  0  0  0
   57.2170   26.8580   45.8860 N   0  0  0  0  0  0  0  0  0  0  0  0
   56.0550   26.1770   45.7740 C   0  0  0  0  0  0  0  0  0  0  0  0
   54.8030   26.7130   46.0530 O   0  0  0  0  0  0  0  0  0  0  0  0
   56.2970   24.8810   45.3630 C   0  0  0  0  0  0  0  0  0  0  0  0
   57.6580   24.7580   45.2320 C   0  0  0  0  0  0  0  0  0  0  0  0
   58.1980   25.9840   45.5700 C   0  0  0  0  0  0  0  0  0  0  0  0
   59.5550   26.2840   45.6000 O   0  0  0  0  0  0  0  0  0  0  0  0
   58.3520   23.4870   44.8670 C   0  0  0  0  0  0  0  0  0  0  0  0
   57.3660   22.3950   44.5060 C   0  0  0  0  0  0  0  0  0  0  0  0
   56.0250   22.5150   44.6340 C   0  0  0  0  0  0  0  0  0  0  0  0
   55.3310   23.7610   45.1480 C   0  0  0  0  0  0  0  0  0  0  0  0
   57.0650   30.5290   45.2260 N   0  0  0  0  0  0  0  0  0  0  0  0
   58.3960   30.9530   44.8010 C   0  0  0  0  0  0  0  0  0  0  0  0
   58.8070   32.2210   45.5050 C   0  0  0  0  0  0  0  0  0  0  0  0
   58.0540   33.3930   45.3530 C   0  0  0  0  0  0  0  0  0  0  0  0
   58.4450   34.5510   46.0250 C   0  0  0  0  0  0  0  0  0  0  0  0
   59.5450   34.5390   46.8220 N   0  0  0  0  0  0  0  0  0  0  0  0
   60.3010   33.4200   47.0050 C   0  0  0  0  0  0  0  0  0  0  0  0
   61.4610   33.4760   47.8660 N   0  0  0  0  0  0  0  0  0  0  0  0
   62.6970   32.7590   47.5210 C   0  0  0  0  0  0  0  0  0  0  0  0
   63.9080   33.4440   48.1610 C   0  0  0  0  0  0  0  0  0  0  0  0
   63.6990   33.6490   49.5440 O   0  0  0  0  0  0  0  0  0  0  0  0
   62.6430   34.5690   49.7300 C   0  0  0  0  0  0  0  0  0  0  0  0
   61.3170   33.9830   49.2380 C   0  0  0  0  0  0  0  0  0  0  0  0
   59.9260   32.2300   46.3500 C   0  0  0  0  0  0  0  0  0  0  0  0
   58.4509   28.4915   46.3539 H   0  0  0  0  0  0  0  0  0  0  0  0
   56.9792   28.3147   47.3762 H   0  0  0  0  0  0  0  0  0  0  0  0
   59.0085   23.6741   44.0045 H   0  0  0  0  0  0  0  0  0  0  0  0
   58.9330   23.1506   45.7384 H   0  0  0  0  0  0  0  0  0  0  0  0
   57.7650   21.4469   44.1161 H   0  0  0  0  0  0  0  0  0  0  0  0
   55.3999   21.6564   44.3478 H   0  0  0  0  0  0  0  0  0  0  0  0
   54.5757   24.0774   44.4136 H   0  0  0  0  0  0  0  0  0  0  0  0
   54.8636   23.5202   46.1142 H   0  0  0  0  0  0  0  0  0  0  0  0
   59.1196   30.1590   45.0376 H   0  0  0  0  0  0  0  0  0  0  0  0
   58.3750   31.1434   43.7178 H   0  0  0  0  0  0  0  0  0  0  0  0
   57.1621   33.3997   44.7092 H   0  0  0  0  0  0  0  0  0  0  0  0
   57.8613   35.4761   45.9093 H   0  0  0  0  0  0  0  0  0  0  0  0
   62.6301   31.7241   47.8879 H   0  0  0  0  0  0  0  0  0  0  0  0
   62.8199   32.7653   46.4279 H   0  0  0  0  0  0  0  0  0  0  0  0
   64.7960   32.8101   48.0210 H   0  0  0  0  0  0  0  0  0  0  0  0
   64.0542   34.4219   47.6789 H   0  0  0  0  0  0  0  0  0  0  0  0
   62.5567   34.8071   50.8005 H   0  0  0  0  0  0  0  0  0  0  0  0
   62.8623   35.4785   49.1514 H   0  0  0  0  0  0  0  0  0  0  0  0
   61.0172   33.1575   49.9003 H   0  0  0  0  0  0  0  0  0  0  0  0
   60.5510   34.7724   49.2491 H   0  0  0  0  0  0  0  0  0  0  0  0
   60.5099   31.3101   46.5013 H   0  0  0  0  0  0  0  0  0  0  0  0
  1  2  2  0
  2  3  1  0
  3  4  1  0
  4  5  1  0
  5  6  1  0
  5  7  2  0
  7  8  1  0
  8  9  2  0
  9 10  1  0
  8 11  1  0
 11 12  1  0
 12 13  2  0
 13 14  1  0
  2 15  1  0
 15 16  1  0
 16 17  1  0
 17 18  2  0
 18 19  1  0
 19 20  2  0
 20 21  1  0
 21 22  1  0
 22 23  1  0
 23 24  1  0
 24 25  1  0
 25 26  1  0
 26 27  1  0
 21 28  2  0
  9  4  1  0
 28 17  1  0
 14  7  1  0
 27 22  1  0
  3 29  1  0
  3 30  1  0
 11 31  1  0
 11 32  1  0
 12 33  1  0
 13 34  1  0
 14 35  1  0
 14 36  1  0
 16 37  1  0
 16 38  1  0
 18 39  1  0
 19 40  1  0
 23 41  1  0
 23 42  1  0
 24 43  1  0
 24 44  1  0
 26 45  1  0
 26 46  1  0
 27 47  1  0
 27 48  1  0
 28 49  1  0
M  CHG  3   6  -1  10  -1  15  -1
M  END
>  <UniqueID>  (69) 
60

>  <SMILES>  (69) 
O=C(Cn1c([O-])c2c(c1[O-])CC=CC2)[N-]Cc1ccnc(N2CCOCC2)c1

>  <Energy>  (69) 
86.35648374455428

>  <Genealogy>  (69) 
O=C(Cn1c([O-])c2c(c1[O-])CC=CC2)[N-]Cc1ccnc(N2CCOCC2)c1 (protonated)
O=C(Cn1c([O-])c2c(c1[O-])CC=CC2)[N-]Cc1ccnc(N2CCOCC2)c1 (3D coordinates assigned)
O=C(Cn1c([O-])c2c(c1[O-])CC=CC2)[N-]Cc1ccnc(N2CCOCC2)c1 (nonaromatic ring conformer: 86.35648374455428 kcal/mol)

>  <smiles>  (69) 
O=C(Cn1c(O)c2c(c1O)CC=CC2)NCc1ccnc(N2CCOCC2)c1

>  <score_type>  (69) 
oracle

>  <origin>  (69) 
adg

>  <m_score__min__energy>  (69) 
-15.380000000000001

>  <m_primary>  (69) 
energy

$$$$
69:0
     RDKit          3D

 48 51  0  0  0  0  0  0  0  0999 V2000
   55.1450   27.2940   46.0550 H   0  0  0  0  0  0  0  0  0  0  0  0
   54.7150   26.3430   45.9980 N   0  0  0  0  0  0  0  0  0  0  0  0
   55.5230   25.1700   45.9810 C   0  0  0  0  0  0  0  0  0  0  0  0
   55.4040   24.3380   45.0430 O   0  0  0  0  0  0  0  0  0  0  0  0
   56.5420   24.9470   47.0580 C   0  0  0  0  0  0  0  0  0  0  0  0
   56.4779   23.9026   47.3974 H   0  0  0  0  0  0  0  0  0  0  0  0
   56.3271   25.6453   47.8803 H   0  0  0  0  0  0  0  0  0  0  0  0
   57.9690   25.2210   46.5620 C   0  0  0  0  0  0  0  0  0  0  0  0
   58.3832   24.2925   46.1421 H   0  0  0  0  0  0  0  0  0  0  0  0
   58.5642   25.5716   47.4180 H   0  0  0  0  0  0  0  0  0  0  0  0
   58.0040   26.2990   45.4950 C   0  0  0  0  0  0  0  0  0  0  0  0
   57.9350   25.8980   44.1500 C   0  0  0  0  0  0  0  0  0  0  0  0
   57.9387   24.8262   43.9026 H   0  0  0  0  0  0  0  0  0  0  0  0
   57.8620   26.8390   43.1260 C   0  0  0  0  0  0  0  0  0  0  0  0
   57.8549   26.5095   42.0765 H   0  0  0  0  0  0  0  0  0  0  0  0
   57.7980   28.1960   43.4290 C   0  0  0  0  0  0  0  0  0  0  0  0
   57.7201   28.9334   42.6165 H   0  0  0  0  0  0  0  0  0  0  0  0
   57.8320   28.6300   44.7600 C   0  0  0  0  0  0  0  0  0  0  0  0
   57.5990   30.0640   45.0220 C   0  0  0  0  0  0  0  0  0  0  0  0
   56.4410   30.7060   44.7930 N   0  0  0  0  0  0  0  0  0  0  0  0
   56.6330   31.9290   45.2060 O   0  0  0  0  0  0  0  0  0  0  0  0
   57.8210   32.1380   45.7030 N   0  0  0  0  0  0  0  0  0  0  0  0
   58.4640   30.9620   45.6060 C   0  0  0  0  0  0  0  0  0  0  0  0
   59.8190   30.6820   46.1140 C   0  0  0  0  0  0  0  0  0  0  0  0
   60.2420   29.6769   45.9698 H   0  0  0  0  0  0  0  0  0  0  0  0
   60.5530   31.6060   46.7440 C   0  0  0  0  0  0  0  0  0  0  0  0
   61.5045   31.9295   46.2967 H   0  0  0  0  0  0  0  0  0  0  0  0
   60.1210   32.2040   48.0240 C   0  0  0  0  0  0  0  0  0  0  0  0
   59.2770   31.5280   48.8540 N   0  0  0  0  0  0  0  0  0  0  0  0
   58.8710   32.0400   50.0460 C   0  0  0  0  0  0  0  0  0  0  0  0
   58.0090   31.3050   50.8680 C   0  0  0  0  0  0  0  0  0  0  0  0
   57.6537   30.3146   50.5474 H   0  0  0  0  0  0  0  0  0  0  0  0
   57.6000   31.8310   52.0970 C   0  0  0  0  0  0  0  0  0  0  0  0
   56.9242   31.2524   52.7439 H   0  0  0  0  0  0  0  0  0  0  0  0
   58.0480   33.0910   52.5060 C   0  0  0  0  0  0  0  0  0  0  0  0
   57.7227   33.4999   53.4740 H   0  0  0  0  0  0  0  0  0  0  0  0
   58.9080   33.8340   51.6900 C   0  0  0  0  0  0  0  0  0  0  0  0
   59.2562   34.8257   52.0145 H   0  0  0  0  0  0  0  0  0  0  0  0
   59.3250   33.3110   50.4570 C   0  0  0  0  0  0  0  0  0  0  0  0
   60.1920   34.0240   49.6190 C   0  0  0  0  0  0  0  0  0  0  0  0
   60.5552   35.0182   49.9186 H   0  0  0  0  0  0  0  0  0  0  0  0
   60.5940   33.4690   48.4020 C   0  0  0  0  0  0  0  0  0  0  0  0
   61.2790   34.0220   47.7425 H   0  0  0  0  0  0  0  0  0  0  0  0
   58.0110   27.6860   45.8090 C   0  0  0  0  0  0  0  0  0  0  0  0
   58.2220   28.1520   47.2350 C   0  0  0  0  0  0  0  0  0  0  0  0
   57.8704   27.3755   47.9303 H   0  0  0  0  0  0  0  0  0  0  0  0
   59.2926   28.3390   47.4050 H   0  0  0  0  0  0  0  0  0  0  0  0
   57.6562   29.0799   47.4050 H   0  0  0  0  0  0  0  0  0  0  0  0
  1  2  1  0
  2  3  1  0
  3  4  2  0
  3  5  1  0
  5  6  1  0
  5  7  1  0
  5  8  1  0
  8  9  1  0
  8 10  1  0
  8 11  1  0
 11 12  2  0
 12 13  1  0
 12 14  1  0
 14 15  1  0
 14 16  2  0
 16 17  1  0
 16 18  1  0
 18 19  1  0
 19 20  2  0
 20 21  1  0
 21 22  1  0
 22 23  2  0
 23 24  1  0
 24 25  1  0
 24 26  2  0
 26 27  1  0
 26 28  1  0
 28 29  2  0
 29 30  1  0
 30 31  2  0
 31 32  1  0
 31 33  1  0
 33 34  1  0
 33 35  2  0
 35 36  1  0
 35 37  1  0
 37 38  1  0
 37 39  2  0
 39 40  1  0
 40 41  1  0
 40 42  2  0
 42 43  1  0
 18 44  2  0
 44 45  1  0
 45 46  1  0
 45 47  1  0
 45 48  1  0
 44 11  1  0
 23 19  1  0
 42 28  1  0
 39 30  1  0
M  CHG  1   2  -1
M  END
>  <UniqueID>  (70) 
61

>  <SMILES>  (70) 
Cc1c(CCC([NH-])=O)cccc1-c1nonc1/C=C/c1ccc2ccccc2n1

>  <Energy>  (70) 
93.53902326883333

>  <Genealogy>  (70) 
Cc1c(CCC([NH-])=O)cccc1-c1nonc1C=Cc1ccc2ccccc2n1 (protonated)
Cc1c(CCC([NH-])=O)cccc1-c1nonc1/C=C/c1ccc2ccccc2n1 (cis-trans isomerization)
Cc1c(CCC([NH-])=O)cccc1-c1nonc1/C=C/c1ccc2ccccc2n1 (3D coordinates assigned)
Cc1c(CCC([NH-])=O)cccc1-c1nonc1/C=C/c1ccc2ccccc2n1 (optimized conformer: 93.53902326883333 kcal/mol)

>  <smiles>  (70) 
Cc1c(CCC(N)=O)cccc1-c1nonc1C=Cc1ccc2ccccc2n1

>  <score_type>  (70) 
oracle

>  <origin>  (70) 
adg

>  <m_score__min__energy>  (70) 
-13.550000000000001

>  <m_primary>  (70) 
energy

$$$$
70:0
     RDKit          3D

 40 41  0  0  0  0  0  0  0  0999 V2000
   54.1500   26.5740   46.3510 H   0  0  0  0  0  0  0  0  0  0  0  0
   55.0720   26.2660   45.9660 N   0  0  0  0  0  0  0  0  0  0  0  0
   56.0710   27.0830   45.8750 C   0  0  0  0  0  0  0  0  0  0  0  0
   55.8990   28.3190   45.3320 N   0  0  0  0  0  0  0  0  0  0  0  0
   56.9240   29.2100   45.2140 C   0  0  0  0  0  0  0  0  0  0  0  0
   56.7000   30.4750   44.6610 O   0  0  0  0  0  0  0  0  0  0  0  0
   57.0220   30.7950   43.3130 C   0  0  0  0  0  0  0  0  0  0  0  0
   57.8021   31.5703   43.2965 H   0  0  0  0  0  0  0  0  0  0  0  0
   57.3895   29.8940   42.8000 H   0  0  0  0  0  0  0  0  0  0  0  0
   56.1233   31.1681   42.8000 H   0  0  0  0  0  0  0  0  0  0  0  0
   58.2120   28.8530   45.6550 C   0  0  0  0  0  0  0  0  0  0  0  0
   59.3550   29.8250   45.5810 C   0  0  0  0  0  0  0  0  0  0  0  0
   60.0455   29.5197   44.7810 H   0  0  0  0  0  0  0  0  0  0  0  0
   58.9684   30.8319   45.3651 H   0  0  0  0  0  0  0  0  0  0  0  0
   60.0610   29.8370   46.8540 N   0  0  0  0  0  0  0  0  0  0  0  0
   59.5200   30.4350   48.0350 C   0  0  0  0  0  0  0  0  0  0  0  0
   58.5510   29.8990   48.6360 O   0  0  0  0  0  0  0  0  0  0  0  0
   60.0770   31.7330   48.5240 C   0  0  0  0  0  0  0  0  0  0  0  0
   59.6019   31.9962   49.4806 H   0  0  0  0  0  0  0  0  0  0  0  0
   61.1633   31.6307   48.6632 H   0  0  0  0  0  0  0  0  0  0  0  0
   59.8080   32.8170   47.5200 C   0  0  0  0  0  0  0  0  0  0  0  0
   58.6160   32.8270   46.8650 N   0  0  0  0  0  0  0  0  0  0  0  0
   58.3040   33.8070   45.9790 C   0  0  0  0  0  0  0  0  0  0  0  0
   56.9970   33.7710   45.2600 C   0  0  0  0  0  0  0  0  0  0  0  0
   56.1763   33.7484   45.9921 H   0  0  0  0  0  0  0  0  0  0  0  0
   56.9009   34.6668   44.6289 H   0  0  0  0  0  0  0  0  0  0  0  0
   56.9503   32.8712   44.6289 H   0  0  0  0  0  0  0  0  0  0  0  0
   59.1940   34.8020   45.7280 N   0  0  0  0  0  0  0  0  0  0  0  0
   60.3930   34.8440   46.3630 C   0  0  0  0  0  0  0  0  0  0  0  0
   61.0980   35.6610   46.1498 H   0  0  0  0  0  0  0  0  0  0  0  0
   60.7360   33.8480   47.2910 C   0  0  0  0  0  0  0  0  0  0  0  0
   61.9560   33.8540   47.9860 O   0  0  0  0  0  0  0  0  0  0  0  0
   63.1470   33.2260   47.5260 C   0  0  0  0  0  0  0  0  0  0  0  0
   63.7505   32.9078   48.3889 H   0  0  0  0  0  0  0  0  0  0  0  0
   62.8867   32.3479   46.9168 H   0  0  0  0  0  0  0  0  0  0  0  0
   63.7245   33.9368   46.9168 H   0  0  0  0  0  0  0  0  0  0  0  0
   58.4020   27.5900   46.2330 C   0  0  0  0  0  0  0  0  0  0  0  0
   59.3961   27.3009   46.6048 H   0  0  0  0  0  0  0  0  0  0  0  0
   57.3330   26.6980   46.3380 C   0  0  0  0  0  0  0  0  0  0  0  0
   57.4821   25.7021   46.7806 H   0  0  0  0  0  0  0  0  0  0  0  0
  1  2  1  0
  2  3  2  0
  3  4  1  0
  4  5  1  0
  5  6  1  0
  6  7  1  0
  7  8  1  0
  7  9  1  0
  7 10  1  0
  5 11  2  0
 11 12  1  0
 12 13  1  0
 12 14  1  0
 12 15  1  0
 15 16  1  0
 16 17  2  0
 16 18  1  0
 18 19  1  0
 18 20  1  0
 18 21  1  0
 21 22  2  0
 22 23  1  0
 23 24  1  0
 24 25  1  0
 24 26  1  0
 24 27  1  0
 23 28  2  0
 28 29  1  0
 29 30  1  0
 29 31  2  0
 31 32  1  0
 32 33  1  0
 33 34  1  0
 33 35  1  0
 33 36  1  0
 11 37  1  0
 37 38  1  0
 37 39  2  0
 39 40  1  0
 39  3  1  0
 31 21  1  0
M  CHG  2   4  -1  15  -1
M  END
>  <UniqueID>  (71) 
62

>  <SMILES>  (71) 
[H]/N=c1/ccc(C[N-]C(=O)Cc2nc(C)ncc2OC)c(OC)[n-]1

>  <Energy>  (71) 
32.55937998972704

>  <Genealogy>  (71) 
COc1cnc(C)nc1CC(=O)[N-]Cc1ccc(=N)[n-]c1OC (protonated)
[H]/N=c1/ccc(C[N-]C(=O)Cc2nc(C)ncc2OC)c(OC)[n-]1 (cis-trans isomerization)
[H]/N=c1/ccc(C[N-]C(=O)Cc2nc(C)ncc2OC)c(OC)[n-]1 (3D coordinates assigned)
[H]/N=c1/ccc(C[N-]C(=O)Cc2nc(C)ncc2OC)c(OC)[n-]1 (optimized conformer: 32.55937998972704 kcal/mol)

>  <smiles>  (71) 
COc1cnc(C)nc1CC(=O)NCc1ccc(=N)[nH]c1OC

>  <score_type>  (71) 
oracle

>  <origin>  (71) 
adg

>  <m_score__min__energy>  (71) 
-10.449999999999999

>  <m_primary>  (71) 
energy

$$$$
71:0
     RDKit          3D

110114  0  0  0  0  0  0  0  0999 V2000
   62.4770   32.0340   52.7880 C   0  0  0  0  0  0  0  0  0  0  0  0
   62.7570   30.7150   52.1090 C   0  0  0  0  0  0  0  0  0  0  0  0
   62.3470   30.4690   50.8420 C   0  0  0  0  0  0  0  0  0  0  0  0
   61.6420   29.2340   50.4440 C   0  0  0  0  0  0  0  0  0  0  0  0
   61.0850   29.0480   49.2240 N   0  0  0  0  0  0  0  0  0  0  0  0
   60.6510   27.7720   49.2640 C   0  0  0  0  0  0  0  0  0  0  0  0
   60.1480   27.0700   48.0890 C   0  0  0  0  0  0  0  0  0  0  0  0
   59.1690   27.5830   47.4100 N   0  0  0  0  0  0  0  0  0  0  0  0
   59.2100   27.8170   46.0040 C   0  0  0  0  0  0  0  0  0  0  0  0
   60.2830   28.1710   45.4580 O   0  0  0  0  0  0  0  0  0  0  0  0
   57.9420   27.7130   45.1820 C   0  0  2  0  0  0  0  0  0  0  0  0
   57.8220   26.3750   44.3980 C   0  0  0  0  0  0  0  0  0  0  0  0
   57.1820   25.2620   45.2530 C   0  0  1  0  0  0  0  0  0  0  0  0
   58.1700   24.5860   46.1960 C   0  0  0  0  0  0  0  0  0  0  0  0
   57.3670   24.2430   47.4700 C   0  0  0  0  0  0  0  0  0  0  0  0
   56.2250   25.1490   47.4760 N   0  0  0  0  0  0  0  0  0  0  0  0
   56.1670   25.7700   46.2020 C   0  0  0  0  0  0  0  0  0  0  0  0
   55.3450   26.6780   45.9350 O   0  0  0  0  0  0  0  0  0  0  0  0
   57.8510   28.8440   44.2530 N   0  0  0  0  0  0  0  0  0  0  0  0
   57.1440   30.0330   44.6180 C   0  0  0  0  0  0  0  0  0  0  0  0
   55.8940   30.0820   44.4820 O   0  0  0  0  0  0  0  0  0  0  0  0
   57.9120   31.2450   45.0430 C   0  0  1  0  0  0  0  0  0  0  0  0
   57.4490   32.5350   44.3180 C   0  0  0  0  0  0  0  0  0  0  0  0
   57.8720   33.9190   44.8970 C   0  0  0  0  0  0  0  0  0  0  0  0
   57.4720   34.1720   46.3590 C   0  0  0  0  0  0  0  0  0  0  0  0
   59.3580   34.2010   44.6860 C   0  0  0  0  0  0  0  0  0  0  0  0
   57.8580   31.3800   46.4870 N   0  0  0  0  0  0  0  0  0  0  0  0
   58.8510   31.2460   47.5270 C   0  0  0  0  0  0  0  0  0  0  0  0
   58.7550   30.2350   48.2740 O   0  0  0  0  0  0  0  0  0  0  0  0
   60.0310   32.1890   47.7750 C   0  0  2  0  0  0  0  0  0  0  0  0
   61.3470   31.4530   47.4550 C   0  0  0  0  0  0  0  0  0  0  0  0
   62.5380   32.3860   47.1800 C   0  0  0  0  0  0  0  0  0  0  0  0
   63.1830   32.8970   48.4500 C   0  0  0  0  0  0  0  0  0  0  0  0
   62.6940   34.0310   49.1230 C   0  0  0  0  0  0  0  0  0  0  0  0
   63.3080   34.4820   50.2940 C   0  0  0  0  0  0  0  0  0  0  0  0
   64.3970   33.7840   50.8090 C   0  0  0  0  0  0  0  0  0  0  0  0
   64.9070   32.6720   50.1410 C   0  0  0  0  0  0  0  0  0  0  0  0
   64.3020   32.2340   48.9610 C   0  0  0  0  0  0  0  0  0  0  0  0
   60.0900   32.7450   49.1220 N   0  0  0  0  0  0  0  0  0  0  0  0
   59.6480   34.0510   49.4660 C   0  0  0  0  0  0  0  0  0  0  0  0
   59.5740   34.9600   48.5820 O   0  0  0  0  0  0  0  0  0  0  0  0
   59.3410   34.3080   50.7990 O   0  0  0  0  0  0  0  0  0  0  0  0
   59.6240   33.4250   51.8790 C   0  0  0  0  0  0  0  0  0  0  0  0
   58.6230   32.3130   51.9070 C   0  0  0  0  0  0  0  0  0  0  0  0
   57.3130   32.5470   52.3340 C   0  0  0  0  0  0  0  0  0  0  0  0
   56.3830   31.4990   52.3750 C   0  0  0  0  0  0  0  0  0  0  0  0
   56.7750   30.2080   52.0170 C   0  0  0  0  0  0  0  0  0  0  0  0
   58.0990   29.9570   51.6200 C   0  0  0  0  0  0  0  0  0  0  0  0
   59.0130   31.0130   51.5580 C   0  0  0  0  0  0  0  0  0  0  0  0
   60.9330   27.2240   50.4980 C   0  0  0  0  0  0  0  0  0  0  0  0
   60.7180   25.8000   50.9320 C   0  0  0  0  0  0  0  0  0  0  0  0
   61.5550   28.1530   51.2500 N   0  0  0  0  0  0  0  0  0  0  0  0
   63.5860   29.7390   52.9160 C   0  0  0  0  0  0  0  0  0  0  0  0
   64.8400   29.2290   52.2470 C   0  0  0  0  0  0  0  0  0  0  0  0
   65.8360   30.1350   51.8330 C   0  0  0  0  0  0  0  0  0  0  0  0
   67.0060   29.6630   51.2350 C   0  0  0  0  0  0  0  0  0  0  0  0
   67.1810   28.2900   51.0340 C   0  0  0  0  0  0  0  0  0  0  0  0
   66.1850   27.3870   51.4280 C   0  0  0  0  0  0  0  0  0  0  0  0
   65.0130   27.8550   52.0230 C   0  0  0  0  0  0  0  0  0  0  0  0
   62.5059   31.8981   53.8792 H   0  0  0  0  0  0  0  0  0  0  0  0
   63.2391   32.7690   52.4898 H   0  0  0  0  0  0  0  0  0  0  0  0
   61.4820   32.3960   52.4898 H   0  0  0  0  0  0  0  0  0  0  0  0
   62.5492   31.2269   50.0709 H   0  0  0  0  0  0  0  0  0  0  0  0
   60.5951   26.1133   47.7810 H   0  0  0  0  0  0  0  0  0  0  0  0
   57.1050   27.7374   45.8954 H   0  0  0  0  0  0  0  0  0  0  0  0
   57.1999   26.5402   43.5060 H   0  0  0  0  0  0  0  0  0  0  0  0
   58.8358   26.0508   44.1203 H   0  0  0  0  0  0  0  0  0  0  0  0
   56.7725   24.5875   44.4866 H   0  0  0  0  0  0  0  0  0  0  0  0
   58.5716   23.6701   45.7379 H   0  0  0  0  0  0  0  0  0  0  0  0
   59.0270   25.2381   46.4204 H   0  0  0  0  0  0  0  0  0  0  0  0
   57.0263   23.1976   47.4381 H   0  0  0  0  0  0  0  0  0  0  0  0
   57.9788   24.3570   48.3770 H   0  0  0  0  0  0  0  0  0  0  0  0
   58.4760   28.8900   43.4090 H   0  0  0  0  0  0  0  0  0  0  0  0
   58.9605   31.1029   44.7424 H   0  0  0  0  0  0  0  0  0  0  0  0
   57.8360   32.4836   43.2896 H   0  0  0  0  0  0  0  0  0  0  0  0
   56.3550   32.5240   44.4318 H   0  0  0  0  0  0  0  0  0  0  0  0
   57.2833   34.6374   44.3077 H   0  0  0  0  0  0  0  0  0  0  0  0
   58.2104   33.7049   47.0273 H   0  0  0  0  0  0  0  0  0  0  0  0
   57.4397   35.2551   46.5481 H   0  0  0  0  0  0  0  0  0  0  0  0
   56.4795   33.7370   46.5481 H   0  0  0  0  0  0  0  0  0  0  0  0
   59.8556   34.2954   45.6625 H   0  0  0  0  0  0  0  0  0  0  0  0
   59.8119   33.3730   44.1218 H   0  0  0  0  0  0  0  0  0  0  0  0
   59.4769   35.1377   44.1218 H   0  0  0  0  0  0  0  0  0  0  0  0
   59.8820   33.0493   47.1059 H   0  0  0  0  0  0  0  0  0  0  0  0
   61.6013   30.8118   48.3119 H   0  0  0  0  0  0  0  0  0  0  0  0
   61.1734   30.8802   46.5321 H   0  0  0  0  0  0  0  0  0  0  0  0
   63.2917   31.8334   46.5999 H   0  0  0  0  0  0  0  0  0  0  0  0
   62.1577   33.2569   46.6260 H   0  0  0  0  0  0  0  0  0  0  0  0
   61.8205   34.5674   48.7239 H   0  0  0  0  0  0  0  0  0  0  0  0
   62.9340   35.3814   50.8051 H   0  0  0  0  0  0  0  0  0  0  0  0
   64.8591   34.1130   51.7515 H   0  0  0  0  0  0  0  0  0  0  0  0
   65.7831   32.1412   50.5419 H   0  0  0  0  0  0  0  0  0  0  0  0
   64.7092   31.3609   48.4300 H   0  0  0  0  0  0  0  0  0  0  0  0
   60.6323   33.0043   51.7509 H   0  0  0  0  0  0  0  0  0  0  0  0
   59.5700   33.9832   52.8253 H   0  0  0  0  0  0  0  0  0  0  0  0
   57.0100   33.5593   52.6396 H   0  0  0  0  0  0  0  0  0  0  0  0
   55.3467   31.6935   52.6886 H   0  0  0  0  0  0  0  0  0  0  0  0
   56.0455   29.3852   52.0458 H   0  0  0  0  0  0  0  0  0  0  0  0
   58.4146   28.9359   51.3596 H   0  0  0  0  0  0  0  0  0  0  0  0
   60.0463   30.8220   51.2327 H   0  0  0  0  0  0  0  0  0  0  0  0
   60.7103   25.7488   52.0308 H   0  0  0  0  0  0  0  0  0  0  0  0
   59.7552   25.4390   50.5413 H   0  0  0  0  0  0  0  0  0  0  0  0
   61.5313   25.1708   50.5413 H   0  0  0  0  0  0  0  0  0  0  0  0
   63.8818   30.2395   53.8498 H   0  0  0  0  0  0  0  0  0  0  0  0
   62.9468   28.8560   53.0635 H   0  0  0  0  0  0  0  0  0  0  0  0
   65.6918   31.2154   51.9810 H   0  0  0  0  0  0  0  0  0  0  0  0
   67.7888   30.3698   50.9225 H   0  0  0  0  0  0  0  0  0  0  0  0
   68.1038   27.9179   50.5650 H   0  0  0  0  0  0  0  0  0  0  0  0
   66.3271   26.3080   51.2681 H   0  0  0  0  0  0  0  0  0  0  0  0
   64.2245   27.1464   52.3165 H   0  0  0  0  0  0  0  0  0  0  0  0
  1  2  1  0
  2  3  2  3
  3  4  1  0
  4  5  2  0
  5  6  1  0
  6  7  1  0
  7  8  2  3
  8  9  1  0
  9 10  2  0
  9 11  1  0
 11 12  1  0
 12 13  1  0
 13 14  1  0
 14 15  1  0
 15 16  1  0
 16 17  1  0
 17 18  2  0
 11 19  1  0
 19 20  1  0
 20 21  2  0
 20 22  1  0
 22 23  1  0
 23 24  1  0
 24 25  1  0
 24 26  1  0
 22 27  1  0
 27 28  1  0
 28 29  2  0
 28 30  1  0
 30 31  1  0
 31 32  1  0
 32 33  1  0
 33 34  2  0
 34 35  1  0
 35 36  2  0
 36 37  1  0
 37 38  2  0
 30 39  1  0
 39 40  1  0
 40 41  2  0
 40 42  1  0
 42 43  1  0
 43 44  1  0
 44 45  2  0
 45 46  1  0
 46 47  2  0
 47 48  1  0
 48 49  2  0
  6 50  2  0
 50 51  1  0
 50 52  1  0
  2 53  1  0
 53 54  1  0
 54 55  2  0
 55 56  1  0
 56 57  2  0
 57 58  1  0
 58 59  2  0
 52  4  1  0
 59 54  1  0
 17 13  1  0
 38 33  1  0
 49 44  1  0
  1 60  1  0
  1 61  1  0
  1 62  1  0
  3 63  1  0
  7 64  1  0
 11 65  1  1
 12 66  1  0
 12 67  1  0
 13 68  1  6
 14 69  1  0
 14 70  1  0
 15 71  1  0
 15 72  1  0
 19 73  1  0
 22 74  1  1
 23 75  1  0
 23 76  1  0
 24 77  1  0
 25 78  1  0
 25 79  1  0
 25 80  1  0
 26 81  1  0
 26 82  1  0
 26 83  1  0
 30 84  1  6
 31 85  1  0
 31 86  1  0
 32 87  1  0
 32 88  1  0
 34 89  1  0
 35 90  1  0
 36 91  1  0
 37 92  1  0
 38 93  1  0
 43 94  1  0
 43 95  1  0
 45 96  1  0
 46 97  1  0
 47 98  1  0
 48 99  1  0
 49100  1  0
 51101  1  0
 51102  1  0
 51103  1  0
 53104  1  0
 53105  1  0
 55106  1  0
 56107  1  0
 57108  1  0
 58109  1  0
 59110  1  0
M  CHG  4  16  -1  27  -1  39  -1  52  -1
M  END
>  <UniqueID>  (72) 
63

>  <SMILES>  (72) 
CC(=Cc1nc(C=NC(=O)[C@H](C[C@H]2CC[N-]C2=O)NC(=O)C(CC(C)C)[N-]C(=O)C(CCc2ccccc2)[N-]C(=O)OCc2ccccc2)c(C)[n-]1)Cc1ccccc1

>  <Energy>  (72) 
170.18659455067015

>  <Genealogy>  (72) 
CC(=Cc1nc(C=NC(=O)C(CC2CC[N-]C2=O)NC(=O)C(CC(C)C)[N-]C(=O)C(CCc2ccccc2)[N-]C(=O)OCc2ccccc2)c(C)[n-]1)Cc1ccccc1 (protonated)
CC(=Cc1nc(C=NC(=O)[C@H](C[C@H]2CC[N-]C2=O)NC(=O)C(CC(C)C)[N-]C(=O)C(CCc2ccccc2)[N-]C(=O)OCc2ccccc2)c(C)[n-]1)Cc1ccccc1 (chirality)
CC(=Cc1nc(C=NC(=O)[C@H](C[C@H]2CC[N-]C2=O)NC(=O)C(CC(C)C)[N-]C(=O)C(CCc2ccccc2)[N-]C(=O)OCc2ccccc2)c(C)[n-]1)Cc1ccccc1 (3D coordinates assigned)
CC(=Cc1nc(C=NC(=O)[C@H](C[C@H]2CC[N-]C2=O)NC(=O)C(CC(C)C)[N-]C(=O)C(CCc2ccccc2)[N-]C(=O)OCc2ccccc2)c(C)[n-]1)Cc1ccccc1 (nonaromatic ring conformer: 170.18659455067015 kcal/mol)

>  <smiles>  (72) 
CC(=Cc1nc(C=NC(=O)C(CC2CCNC2=O)NC(=O)C(CC(C)C)NC(=O)C(CCc2ccccc2)NC(=O)OCc2ccccc2)c(C)[nH]1)Cc1ccccc1

>  <score_type>  (72) 
oracle

>  <origin>  (72) 
adg

>  <m_score__min__energy>  (72) 
-16.149999999999999

>  <m_primary>  (72) 
energy

$$$$
72:0
     RDKit          3D

 38 40  0  0  0  0  0  0  0  0999 V2000
   55.1710   29.3220   44.8640 N   0  0  0  0  0  0  0  0  0  0  0  0
   56.3960   29.6740   44.2270 C   0  0  0  0  0  0  0  0  0  0  0  0
   56.7050   29.1090   43.1430 O   0  0  0  0  0  0  0  0  0  0  0  0
   57.3260   30.6520   44.8460 C   0  0  0  0  0  0  0  0  0  0  0  0
   56.9990   32.0220   44.8120 C   0  0  0  0  0  0  0  0  0  0  0  0
   57.8760   32.9790   45.3260 C   0  0  0  0  0  0  0  0  0  0  0  0
   59.0990   32.5880   45.8680 C   0  0  0  0  0  0  0  0  0  0  0  0
   59.4370   31.2360   45.9200 C   0  0  0  0  0  0  0  0  0  0  0  0
   58.5500   30.2610   45.4450 C   0  0  0  0  0  0  0  0  0  0  0  0
   58.9070   28.8850   45.6170 N   0  0  0  0  0  0  0  0  0  0  0  0
   58.7130   28.1270   46.8180 C   0  0  0  0  0  0  0  0  0  0  0  0
   59.6690   28.0330   47.6320 O   0  0  0  0  0  0  0  0  0  0  0  0
   57.4080   27.4460   47.1450 C   0  0  0  0  0  0  0  0  0  0  0  0
   57.1840   26.2750   46.2930 N   0  0  0  0  0  0  0  0  0  0  0  0
   55.9950   25.8540   45.8040 C   0  0  0  0  0  0  0  0  0  0  0  0
   54.7830   26.5030   46.0160 O   0  0  0  0  0  0  0  0  0  0  0  0
   56.1570   24.6950   45.0720 C   0  0  0  0  0  0  0  0  0  0  0  0
   57.4960   24.4070   45.0880 C   0  0  0  0  0  0  0  0  0  0  0  0
   58.1080   25.3990   45.8280 C   0  0  0  0  0  0  0  0  0  0  0  0
   59.4800   25.4890   46.0520 O   0  0  0  0  0  0  0  0  0  0  0  0
   58.1080   23.2450   44.3760 C   0  0  0  0  0  0  0  0  0  0  0  0
   57.0490   22.3000   43.8430 C   0  0  0  0  0  0  0  0  0  0  0  0
   55.7260   22.5810   43.8360 C   0  0  0  0  0  0  0  0  0  0  0  0
   55.1320   23.8710   44.3650 C   0  0  0  0  0  0  0  0  0  0  0  0
   55.1480   28.6020   45.6190 H   0  0  0  0  0  0  0  0  0  0  0  0
   56.0413   32.3414   44.3753 H   0  0  0  0  0  0  0  0  0  0  0  0
   57.6011   34.0439   45.3031 H   0  0  0  0  0  0  0  0  0  0  0  0
   59.7971   33.3452   46.2544 H   0  0  0  0  0  0  0  0  0  0  0  0
   60.4084   30.9325   46.3375 H   0  0  0  0  0  0  0  0  0  0  0  0
   57.4266   27.1243   48.1967 H   0  0  0  0  0  0  0  0  0  0  0  0
   56.5918   28.1620   46.9684 H   0  0  0  0  0  0  0  0  0  0  0  0
   59.9300   26.3700   46.2620 H   0  0  0  0  0  0  0  0  0  0  0  0
   58.7103   23.6182   43.5346 H   0  0  0  0  0  0  0  0  0  0  0  0
   58.7349   22.6928   45.0916 H   0  0  0  0  0  0  0  0  0  0  0  0
   57.3753   21.3304   43.4389 H   0  0  0  0  0  0  0  0  0  0  0  0
   55.0398   21.8278   43.4214 H   0  0  0  0  0  0  0  0  0  0  0  0
   54.7269   24.4502   43.5221 H   0  0  0  0  0  0  0  0  0  0  0  0
   54.3380   23.6170   45.0826 H   0  0  0  0  0  0  0  0  0  0  0  0
  1  2  1  0
  2  3  2  0
  2  4  1  0
  4  5  2  0
  5  6  1  0
  6  7  2  0
  7  8  1  0
  8  9  2  0
  9 10  1  0
 10 11  1  0
 11 12  2  0
 11 13  1  0
 13 14  1  0
 14 15  1  0
 15 16  1  0
 15 17  2  0
 17 18  1  0
 18 19  2  0
 19 20  1  0
 18 21  1  0
 21 22  1  0
 22 23  2  0
 23 24  1  0
  9  4  1  0
 19 14  1  0
 24 17  1  0
  1 25  1  0
  5 26  1  0
  6 27  1  0
  7 28  1  0
  8 29  1  0
 13 30  1  0
 13 31  1  0
 20 32  1  0
 21 33  1  0
 21 34  1  0
 22 35  1  0
 23 36  1  0
 24 37  1  0
 24 38  1  0
M  CHG  3   1  -1  10  -1  16  -1
M  END
>  <UniqueID>  (73) 
64

>  <SMILES>  (73) 
[NH-]C(=O)c1ccccc1[N-]C(=O)Cn1c([O-])c2c(c1O)CC=CC2

>  <Energy>  (73) 
78.0648207209724

>  <Genealogy>  (73) 
[NH-]C(=O)c1ccccc1[N-]C(=O)Cn1c([O-])c2c(c1O)CC=CC2 (protonated)
[NH-]C(=O)c1ccccc1[N-]C(=O)Cn1c([O-])c2c(c1O)CC=CC2 (3D coordinates assigned)
[NH-]C(=O)c1ccccc1[N-]C(=O)Cn1c([O-])c2c(c1O)CC=CC2 (nonaromatic ring conformer: 78.0648207209724 kcal/mol)

>  <smiles>  (73) 
NC(=O)c1ccccc1NC(=O)Cn1c(O)c2c(c1O)CC=CC2

>  <score_type>  (73) 
oracle

>  <origin>  (73) 
adg

>  <m_score__min__energy>  (73) 
-14.48

>  <m_primary>  (73) 
energy

$$$$
73:0
     RDKit          3D

 38 40  0  0  0  0  0  0  0  0999 V2000
   62.1580   32.4680   47.4490 C   0  0  0  0  0  0  0  0  0  0  0  0
   61.1180   31.4450   47.3650 N   0  0  0  0  0  0  0  0  0  0  0  0
   61.0570   30.4680   46.4330 C   0  0  0  0  0  0  0  0  0  0  0  0
   59.9390   29.6890   46.6830 C   0  0  0  0  0  0  0  0  0  0  0  0
   59.5670   28.4470   45.9840 C   0  0  0  0  0  0  0  0  0  0  0  0
   58.3700   27.8240   46.0770 C   0  0  0  0  0  0  0  0  0  0  0  0
   58.1880   26.4650   46.6620 C   0  0  0  0  0  0  0  0  0  0  0  0
   59.1140   25.8940   47.2970 O   0  0  0  0  0  0  0  0  0  0  0  0
   56.9200   25.8130   46.5700 N   0  0  0  0  0  0  0  0  0  0  0  0
   55.7830   26.4780   46.0270 C   0  0  0  0  0  0  0  0  0  0  0  0
   54.6800   25.8790   45.9490 O   0  0  0  0  0  0  0  0  0  0  0  0
   55.8910   27.8310   45.5850 N   0  0  0  0  0  0  0  0  0  0  0  0
   57.1420   28.5210   45.6160 C   0  0  0  0  0  0  0  0  0  0  0  0
   57.1840   29.7200   45.2270 O   0  0  0  0  0  0  0  0  0  0  0  0
   59.3900   30.2280   47.8330 C   0  0  0  0  0  0  0  0  0  0  0  0
   58.3860   29.7830   48.4520 O   0  0  0  0  0  0  0  0  0  0  0  0
   60.1180   31.2910   48.2260 N   0  0  0  0  0  0  0  0  0  0  0  0
   59.8290   32.1690   49.3630 C   0  0  0  0  0  0  0  0  0  0  0  0
   59.3550   33.4690   48.8870 N   0  0  0  0  0  0  0  0  0  0  0  0
   58.9180   33.7060   47.5360 C   0  0  0  0  0  0  0  0  0  0  0  0
   59.6570   34.5770   46.7180 C   0  0  0  0  0  0  0  0  0  0  0  0
   59.2560   34.8260   45.4020 C   0  0  0  0  0  0  0  0  0  0  0  0
   58.1140   34.2080   44.8890 C   0  0  0  0  0  0  0  0  0  0  0  0
   57.3710   33.3390   45.6910 C   0  0  0  0  0  0  0  0  0  0  0  0
   57.7670   33.0860   47.0080 C   0  0  0  0  0  0  0  0  0  0  0  0
   62.3765   32.6829   48.5055 H   0  0  0  0  0  0  0  0  0  0  0  0
   63.0701   32.1053   46.9524 H   0  0  0  0  0  0  0  0  0  0  0  0
   61.8104   33.3859   46.9524 H   0  0  0  0  0  0  0  0  0  0  0  0
   61.7748   30.3168   45.6133 H   0  0  0  0  0  0  0  0  0  0  0  0
   60.3253   27.9882   45.3325 H   0  0  0  0  0  0  0  0  0  0  0  0
   59.0535   31.7069   49.9915 H   0  0  0  0  0  0  0  0  0  0  0  0
   60.7487   32.3137   49.9489 H   0  0  0  0  0  0  0  0  0  0  0  0
   59.3280   34.2640   49.5650 H   0  0  0  0  0  0  0  0  0  0  0  0
   60.5580   35.0668   47.1160 H   0  0  0  0  0  0  0  0  0  0  0  0
   59.8412   35.5099   44.7697 H   0  0  0  0  0  0  0  0  0  0  0  0
   57.7996   34.4055   43.8536 H   0  0  0  0  0  0  0  0  0  0  0  0
   56.4718   32.8522   45.2855 H   0  0  0  0  0  0  0  0  0  0  0  0
   57.1780   32.4003   47.6348 H   0  0  0  0  0  0  0  0  0  0  0  0
  1  2  1  0
  2  3  1  0
  3  4  2  0
  4  5  1  0
  5  6  2  3
  6  7  1  0
  7  8  2  0
  7  9  1  0
  9 10  1  0
 10 11  2  0
 10 12  1  0
 12 13  1  0
 13 14  2  0
  4 15  1  0
 15 16  2  0
 15 17  1  0
 17 18  1  0
 18 19  1  0
 19 20  1  0
 20 21  2  0
 21 22  1  0
 22 23  2  0
 23 24  1  0
 24 25  2  0
 17  2  1  0
 25 20  1  0
 13  6  1  0
  1 26  1  0
  1 27  1  0
  1 28  1  0
  3 29  1  0
  5 30  1  0
 18 31  1  0
 18 32  1  0
 19 33  1  0
 21 34  1  0
 22 35  1  0
 23 36  1  0
 24 37  1  0
 25 38  1  0
M  CHG  2   9  -1  12  -1
M  END
>  <UniqueID>  (74) 
65

>  <SMILES>  (74) 
Cn1cc(C=C2C(=O)[N-]C(=O)[N-]C2=O)c(=O)n1CNc1ccccc1

>  <Energy>  (74) 
80.39122616065389

>  <Genealogy>  (74) 
Cn1cc(C=C2C(=O)[N-]C(=O)[N-]C2=O)c(=O)n1CNc1ccccc1 (protonated)
Cn1cc(C=C2C(=O)[N-]C(=O)[N-]C2=O)c(=O)n1CNc1ccccc1 (3D coordinates assigned)
Cn1cc(C=C2C(=O)[N-]C(=O)[N-]C2=O)c(=O)n1CNc1ccccc1 (nonaromatic ring conformer: 80.39122616065389 kcal/mol)

>  <smiles>  (74) 
Cn1cc(C=C2C(=O)NC(=O)NC2=O)c(=O)n1CNc1ccccc1

>  <score_type>  (74) 
oracle

>  <origin>  (74) 
adg

>  <m_score__min__energy>  (74) 
-11.970000000000001

>  <m_primary>  (74) 
energy

$$$$
74:0
     RDKit          3D

 42 44  0  0  0  0  0  0  0  0999 V2000
   58.0690   33.7260   52.3940 O   0  0  0  0  0  0  0  0  0  0  0  0
   58.7940   33.5010   53.3990 C   0  0  0  0  0  0  0  0  0  0  0  0
   59.5440   34.5410   53.9350 O   0  0  0  0  0  0  0  0  0  0  0  0
   58.8440   32.1510   54.0040 C   0  0  0  0  0  0  0  0  0  0  0  0
   59.9960   31.3560   53.8830 C   0  0  0  0  0  0  0  0  0  0  0  0
   60.0410   30.0860   54.4630 C   0  0  0  0  0  0  0  0  0  0  0  0
   58.9360   29.5900   55.1560 C   0  0  0  0  0  0  0  0  0  0  0  0
   57.7600   30.3520   55.2560 C   0  0  0  0  0  0  0  0  0  0  0  0
   56.5490   29.8080   55.9760 C   0  0  0  0  0  0  0  0  0  0  0  0
   56.2920   28.3110   55.7100 C   0  0  0  0  0  0  0  0  0  0  0  0
   56.2430   27.9280   54.2190 C   0  0  0  0  0  0  0  0  0  0  0  0
   55.6650   29.0190   53.3400 C   0  0  0  0  0  0  0  0  0  0  0  0
   56.4860   29.6940   52.4150 C   0  0  0  0  0  0  0  0  0  0  0  0
   57.8190   29.3320   52.2530 O   0  0  0  0  0  0  0  0  0  0  0  0
   55.9690   30.7350   51.6430 C   0  0  0  0  0  0  0  0  0  0  0  0
   54.6320   31.1100   51.7680 C   0  0  0  0  0  0  0  0  0  0  0  0
   53.7890   30.4400   52.6670 C   0  0  0  0  0  0  0  0  0  0  0  0
   52.3380   30.8390   52.7550 C   0  0  0  0  0  0  0  0  0  0  0  0
   51.8030   31.1480   51.3930 C   0  0  0  0  0  0  0  0  0  0  0  0
   51.7780   30.2670   50.3750 N   0  0  0  0  0  0  0  0  0  0  0  0
   51.1670   30.9530   49.3850 C   0  0  0  0  0  0  0  0  0  0  0  0
   50.9570   30.4580   48.2480 O   0  0  0  0  0  0  0  0  0  0  0  0
   50.7930   32.2100   49.7120 N   0  0  0  0  0  0  0  0  0  0  0  0
   51.1990   32.3140   50.9880 C   0  0  0  0  0  0  0  0  0  0  0  0
   51.0200   33.4510   51.7640 O   0  0  0  0  0  0  0  0  0  0  0  0
   54.3020   29.3790   53.4400 C   0  0  0  0  0  0  0  0  0  0  0  0
   53.4620   28.6960   54.3140 O   0  0  0  0  0  0  0  0  0  0  0  0
   57.7340   31.6450   54.7020 C   0  0  0  0  0  0  0  0  0  0  0  0
   60.8670   31.7356   53.3287 H   0  0  0  0  0  0  0  0  0  0  0  0
   60.9510   29.4746   54.3731 H   0  0  0  0  0  0  0  0  0  0  0  0
   58.9860   28.5970   55.6265 H   0  0  0  0  0  0  0  0  0  0  0  0
   56.6951   29.9488   57.0571 H   0  0  0  0  0  0  0  0  0  0  0  0
   55.6749   30.3573   55.5963 H   0  0  0  0  0  0  0  0  0  0  0  0
   57.0977   27.7337   56.1870 H   0  0  0  0  0  0  0  0  0  0  0  0
   55.2985   28.0850   56.1246 H   0  0  0  0  0  0  0  0  0  0  0  0
   57.2669   27.7118   53.8799 H   0  0  0  0  0  0  0  0  0  0  0  0
   55.5836   27.0522   54.1284 H   0  0  0  0  0  0  0  0  0  0  0  0
   56.6205   31.2632   50.9312 H   0  0  0  0  0  0  0  0  0  0  0  0
   54.2361   31.9356   51.1584 H   0  0  0  0  0  0  0  0  0  0  0  0
   51.7599   30.0122   53.1933 H   0  0  0  0  0  0  0  0  0  0  0  0
   52.2502   31.7353   53.3866 H   0  0  0  0  0  0  0  0  0  0  0  0
   56.8342   32.2673   54.8165 H   0  0  0  0  0  0  0  0  0  0  0  0
  1  2  2  0
  2  3  1  0
  2  4  1  0
  4  5  2  0
  5  6  1  0
  6  7  2  0
  7  8  1  0
  8  9  1  0
  9 10  1  0
 10 11  1  0
 11 12  1  0
 12 13  2  0
 13 14  1  0
 13 15  1  0
 15 16  2  0
 16 17  1  0
 17 18  1  0
 18 19  1  0
 19 20  1  0
 20 21  1  0
 21 22  2  0
 21 23  1  0
 23 24  1  0
 24 25  1  0
 17 26  2  0
 26 27  1  0
  8 28  2  0
 28  4  1  0
 26 12  1  0
 24 19  2  0
  5 29  1  0
  6 30  1  0
  7 31  1  0
  9 32  1  0
  9 33  1  0
 10 34  1  0
 10 35  1  0
 11 36  1  0
 11 37  1  0
 15 38  1  0
 16 39  1  0
 18 40  1  0
 18 41  1  0
 28 42  1  0
M  CHG  6   3  -1  14  -1  20  -1  23  -1  25  -1  27  -1
M  END
>  <UniqueID>  (75) 
66

>  <SMILES>  (75) 
O=C([O-])c1cccc(CCCc2c([O-])ccc(Cc3[n-]c(=O)[n-]c3[O-])c2[O-])c1

>  <Energy>  (75) 
68.74247219931344

>  <Genealogy>  (75) 
O=C([O-])c1cccc(CCCc2c([O-])ccc(Cc3[n-]c(=O)[n-]c3[O-])c2[O-])c1 (protonated)
O=C([O-])c1cccc(CCCc2c([O-])ccc(Cc3[n-]c(=O)[n-]c3[O-])c2[O-])c1 (3D coordinates assigned)
O=C([O-])c1cccc(CCCc2c([O-])ccc(Cc3[n-]c(=O)[n-]c3[O-])c2[O-])c1 (optimized conformer: 68.74247219931344 kcal/mol)

>  <smiles>  (75) 
O=C(O)c1cccc(CCCc2c(O)ccc(Cc3[nH]c(=O)[nH]c3O)c2O)c1

>  <score_type>  (75) 
oracle

>  <origin>  (75) 
adg

>  <m_score__min__energy>  (75) 
-18.640000000000001

>  <m_primary>  (75) 
energy

$$$$
75:0
     RDKit          3D

 50 52  0  0  0  0  0  0  0  0999 V2000
   54.1180   23.9600   45.2610 C   0  0  0  0  0  0  0  0  0  0  0  0
   55.3380   24.3440   44.6370 O   0  0  0  0  0  0  0  0  0  0  0  0
   56.3780   25.0270   45.2890 C   0  0  0  0  0  0  0  0  0  0  0  0
   57.7070   24.5600   45.2800 C   0  0  0  0  0  0  0  0  0  0  0  0
   58.7140   25.2790   45.9340 C   0  0  0  0  0  0  0  0  0  0  0  0
   58.4060   26.4680   46.6050 C   0  0  0  0  0  0  0  0  0  0  0  0
   59.6640   27.4310   47.3750 S   0  0  0  0  0  0  0  0  0  0  0  0
   60.7900   26.5610   47.8650 O   0  0  0  0  0  0  0  0  0  0  0  0
   59.0600   28.1630   48.5420 O   0  0  0  0  0  0  0  0  0  0  0  0
   60.2770   28.5830   46.2290 N   0  0  0  0  0  0  0  0  0  0  0  0
   59.5800   29.7790   45.8540 C   0  0  0  0  0  0  0  0  0  0  0  0
   58.6100   29.7560   44.8400 C   0  0  0  0  0  0  0  0  0  0  0  0
   57.8980   30.9120   44.5050 C   0  0  0  0  0  0  0  0  0  0  0  0
   56.6850   30.8150   43.2330 Cl  0  0  0  0  0  0  0  0  0  0  0  0
   58.1490   32.1160   45.1890 C   0  0  0  0  0  0  0  0  0  0  0  0
   57.3680   33.3610   44.8680 C   0  0  0  0  0  0  0  0  0  0  0  0
   59.1350   32.1450   46.1880 C   0  0  0  0  0  0  0  0  0  0  0  0
   59.8680   30.9910   46.5100 C   0  0  0  0  0  0  0  0  0  0  0  0
   60.8730   31.0440   47.5950 C   0  0  0  0  0  0  0  0  0  0  0  0
   60.9450   30.0840   48.4120 O   0  0  0  0  0  0  0  0  0  0  0  0
   61.7690   32.1620   47.7290 N   0  0  0  0  0  0  0  0  0  0  0  0
   63.1040   32.2030   47.1450 C   0  0  0  0  0  0  0  0  0  0  0  0
   63.7390   33.4900   47.6550 C   0  0  0  0  0  0  0  0  0  0  0  0
   62.9110   33.9100   48.8650 C   0  0  0  0  0  0  0  0  0  0  0  0
   61.5440   33.2440   48.6800 C   0  0  1  0  0  0  0  0  0  0  0  0
   60.5030   34.2220   48.1280 C   0  0  0  0  0  0  0  0  0  0  0  0
   57.0840   26.9300   46.6210 C   0  0  0  0  0  0  0  0  0  0  0  0
   56.0760   26.2150   45.9660 C   0  0  0  0  0  0  0  0  0  0  0  0
   54.7710   26.6940   45.9860 O   0  0  0  0  0  0  0  0  0  0  0  0
   54.2374   23.9976   46.3539 H   0  0  0  0  0  0  0  0  0  0  0  0
   53.3171   24.6495   44.9557 H   0  0  0  0  0  0  0  0  0  0  0  0
   53.8564   22.9361   44.9557 H   0  0  0  0  0  0  0  0  0  0  0  0
   57.9547   23.6250   44.7560 H   0  0  0  0  0  0  0  0  0  0  0  0
   59.7498   24.9088   45.9206 H   0  0  0  0  0  0  0  0  0  0  0  0
   58.4075   28.8178   44.3026 H   0  0  0  0  0  0  0  0  0  0  0  0
   57.0600   33.8519   45.8030 H   0  0  0  0  0  0  0  0  0  0  0  0
   57.9973   34.0480   44.2832 H   0  0  0  0  0  0  0  0  0  0  0  0
   56.4756   33.0934   44.2832 H   0  0  0  0  0  0  0  0  0  0  0  0
   59.3360   33.0835   46.7254 H   0  0  0  0  0  0  0  0  0  0  0  0
   63.6912   31.3312   47.4693 H   0  0  0  0  0  0  0  0  0  0  0  0
   63.0668   32.1771   46.0459 H   0  0  0  0  0  0  0  0  0  0  0  0
   64.7838   33.3114   47.9490 H   0  0  0  0  0  0  0  0  0  0  0  0
   63.7496   34.2711   46.8805 H   0  0  0  0  0  0  0  0  0  0  0  0
   63.3852   33.5616   49.7944 H   0  0  0  0  0  0  0  0  0  0  0  0
   62.8241   35.0041   48.9388 H   0  0  0  0  0  0  0  0  0  0  0  0
   61.1482   32.8866   49.6421 H   0  0  0  0  0  0  0  0  0  0  0  0
   59.9813   34.7122   48.9632 H   0  0  0  0  0  0  0  0  0  0  0  0
   61.0049   34.9828   47.5121 H   0  0  0  0  0  0  0  0  0  0  0  0
   59.7750   33.6736   47.5121 H   0  0  0  0  0  0  0  0  0  0  0  0
   56.8368   27.8611   47.1520 H   0  0  0  0  0  0  0  0  0  0  0  0
  1  2  1  0
  2  3  1  0
  3  4  2  0
  4  5  1  0
  5  6  2  0
  6  7  1  0
  7  8  2  0
  7  9  2  0
  7 10  1  0
 10 11  1  0
 11 12  2  0
 12 13  1  0
 13 14  1  0
 13 15  2  0
 15 16  1  0
 15 17  1  0
 17 18  2  0
 18 19  1  0
 19 20  2  0
 19 21  1  0
 21 22  1  0
 22 23  1  0
 23 24  1  0
 24 25  1  0
 25 26  1  0
  6 27  1  0
 27 28  2  0
 28 29  1  0
 28  3  1  0
 18 11  1  0
 25 21  1  0
  1 30  1  0
  1 31  1  0
  1 32  1  0
  4 33  1  0
  5 34  1  0
 12 35  1  0
 16 36  1  0
 16 37  1  0
 16 38  1  0
 17 39  1  0
 22 40  1  0
 22 41  1  0
 23 42  1  0
 23 43  1  0
 24 44  1  0
 24 45  1  0
 25 46  1  1
 26 47  1  0
 26 48  1  0
 26 49  1  0
 27 50  1  0
M  CHG  2  10  -1  29  -1
M  END
>  <UniqueID>  (76) 
67

>  <SMILES>  (76) 
COc1ccc(S(=O)(=O)[N-]c2cc(Cl)c(C)cc2C(=O)N2CCC[C@H]2C)cc1[O-]

>  <Energy>  (76) 
58.22719777564454

>  <Genealogy>  (76) 
COc1ccc(S(=O)(=O)[N-]c2cc(Cl)c(C)cc2C(=O)N2CCCC2C)cc1[O-] (protonated)
COc1ccc(S(=O)(=O)[N-]c2cc(Cl)c(C)cc2C(=O)N2CCC[C@H]2C)cc1[O-] (chirality)
COc1ccc(S(=O)(=O)[N-]c2cc(Cl)c(C)cc2C(=O)N2CCC[C@H]2C)cc1[O-] (3D coordinates assigned)
COc1ccc(S(=O)(=O)[N-]c2cc(Cl)c(C)cc2C(=O)N2CCC[C@H]2C)cc1[O-] (nonaromatic ring conformer: 58.22719777564454 kcal/mol)

>  <smiles>  (76) 
COc1ccc(S(=O)(=O)Nc2cc(Cl)c(C)cc2C(=O)N2CCCC2C)cc1O

>  <score_type>  (76) 
oracle

>  <origin>  (76) 
adg

>  <m_score__min__energy>  (76) 
-13.83

>  <m_primary>  (76) 
energy

$$$$
76:0
     RDKit          3D

 27 28  0  0  0  0  0  0  0  0999 V2000
   57.4030   32.0110   41.5540 C   0  0  0  0  0  0  0  0  0  0  0  0
   57.8160   31.9610   42.9940 C   0  0  0  0  0  0  0  0  0  0  0  0
   58.1630   33.1390   43.6700 C   0  0  0  0  0  0  0  0  0  0  0  0
   58.5030   33.0980   45.0250 C   0  0  0  0  0  0  0  0  0  0  0  0
   58.4940   31.8840   45.7150 C   0  0  0  0  0  0  0  0  0  0  0  0
   58.1510   30.6930   45.0510 C   0  0  0  0  0  0  0  0  0  0  0  0
   58.1010   29.4350   45.7460 N   0  0  0  0  0  0  0  0  0  0  0  0
   57.0190   28.4970   45.6260 C   0  0  0  0  0  0  0  0  0  0  0  0
   55.8960   28.8830   45.2000 O   0  0  0  0  0  0  0  0  0  0  0  0
   57.1940   27.0850   46.0540 C   0  0  0  0  0  0  0  0  0  0  0  0
   56.0820   26.2360   46.2220 C   0  0  0  0  0  0  0  0  0  0  0  0
   54.7890   26.7000   46.0110 O   0  0  0  0  0  0  0  0  0  0  0  0
   56.2640   24.9470   46.6120 N   0  0  0  0  0  0  0  0  0  0  0  0
   57.5040   24.4510   46.8440 C   0  0  0  0  0  0  0  0  0  0  0  0
   57.6450   23.2550   47.2070 O   0  0  0  0  0  0  0  0  0  0  0  0
   58.5930   25.2430   46.6830 N   0  0  0  0  0  0  0  0  0  0  0  0
   58.4710   26.5380   46.2920 C   0  0  0  0  0  0  0  0  0  0  0  0
   59.5120   27.2270   46.1260 O   0  0  0  0  0  0  0  0  0  0  0  0
   57.7890   30.7450   43.6950 C   0  0  0  0  0  0  0  0  0  0  0  0
   56.3128   32.1430   41.4896 H   0  0  0  0  0  0  0  0  0  0  0  0
   57.9045   32.8550   41.0578 H   0  0  0  0  0  0  0  0  0  0  0  0
   57.6886   31.0717   41.0578 H   0  0  0  0  0  0  0  0  0  0  0  0
   58.1677   34.0986   43.1323 H   0  0  0  0  0  0  0  0  0  0  0  0
   58.7785   34.0248   45.5495 H   0  0  0  0  0  0  0  0  0  0  0  0
   58.7565   31.8593   46.7829 H   0  0  0  0  0  0  0  0  0  0  0  0
   58.8400   29.2360   46.4570 H   0  0  0  0  0  0  0  0  0  0  0  0
   57.4815   29.8244   43.1774 H   0  0  0  0  0  0  0  0  0  0  0  0
  1  2  1  0
  2  3  2  0
  3  4  1  0
  4  5  2  0
  5  6  1  0
  6  7  1  0
  7  8  1  0
  8  9  2  0
  8 10  1  0
 10 11  2  0
 11 12  1  0
 11 13  1  0
 13 14  1  0
 14 15  2  0
 14 16  1  0
 16 17  1  0
 17 18  2  0
  6 19  2  0
 19  2  1  0
 17 10  1  0
  1 20  1  0
  1 21  1  0
  1 22  1  0
  3 23  1  0
  4 24  1  0
  5 25  1  0
  7 26  1  0
 19 27  1  0
M  CHG  3  12  -1  13  -1  16  -1
M  END
>  <UniqueID>  (77) 
68

>  <SMILES>  (77) 
Cc1cccc(NC(=O)c2c([O-])[n-]c(=O)[n-]c2=O)c1

>  <Energy>  (77) 
36.99059205555805

>  <Genealogy>  (77) 
Cc1cccc(NC(=O)c2c([O-])[n-]c(=O)[n-]c2=O)c1 (protonated)
Cc1cccc(NC(=O)c2c([O-])[n-]c(=O)[n-]c2=O)c1 (3D coordinates assigned)
Cc1cccc(NC(=O)c2c([O-])[n-]c(=O)[n-]c2=O)c1 (optimized conformer: 36.99059205555805 kcal/mol)

>  <smiles>  (77) 
Cc1cccc(NC(=O)c2c(O)[nH]c(=O)[nH]c2=O)c1

>  <score_type>  (77) 
oracle

>  <origin>  (77) 
adg

>  <m_score__min__energy>  (77) 
-14.390000000000001

>  <m_primary>  (77) 
energy

$$$$
77:0
     RDKit          3D

 51 54  0  0  0  0  0  0  0  0999 V2000
   58.2327   23.7389   45.5557 H   0  0  0  0  0  0  0  0  0  0  0  0
   57.7860   24.7140   45.8000 C   0  0  0  0  0  0  0  0  0  0  0  0
   56.4110   24.9080   45.6470 C   0  0  0  0  0  0  0  0  0  0  0  0
   55.7764   24.0863   45.2836 H   0  0  0  0  0  0  0  0  0  0  0  0
   55.8420   26.1470   45.9560 C   0  0  0  0  0  0  0  0  0  0  0  0
   54.4750   26.3410   45.8020 O   0  0  0  0  0  0  0  0  0  0  0  0
   56.6480   27.1920   46.4200 C   0  0  0  0  0  0  0  0  0  0  0  0
   56.1950   28.1646   46.6624 H   0  0  0  0  0  0  0  0  0  0  0  0
   58.0350   27.0080   46.5790 C   0  0  0  0  0  0  0  0  0  0  0  0
   58.8920   28.1130   47.0770 C   0  0  0  0  0  0  0  0  0  0  0  0
   59.7250   27.9190   48.1960 C   0  0  0  0  0  0  0  0  0  0  0  0
   59.7286   26.9446   48.7064 H   0  0  0  0  0  0  0  0  0  0  0  0
   60.5550   28.9560   48.6720 C   0  0  0  0  0  0  0  0  0  0  0  0
   61.4050   28.7950   49.7810 O   0  0  0  0  0  0  0  0  0  0  0  0
   61.0100   28.8980   51.1490 C   0  0  0  0  0  0  0  0  0  0  0  0
   60.3530   28.0523   51.4001 H   0  0  0  0  0  0  0  0  0  0  0  0
   61.9108   28.8810   51.7801 H   0  0  0  0  0  0  0  0  0  0  0  0
   60.2580   30.2110   51.3970 C   0  0  0  0  0  0  0  0  0  0  0  0
   60.2183   30.4066   52.4787 H   0  0  0  0  0  0  0  0  0  0  0  0
   60.7877   31.0267   50.8832 H   0  0  0  0  0  0  0  0  0  0  0  0
   58.8780   30.1270   50.8660 N   0  0  0  0  0  0  0  0  0  0  0  0
   58.4860   31.3820   50.2080 C   0  0  0  0  0  0  0  0  0  0  0  0
   59.3728   31.8750   49.7830 H   0  0  0  0  0  0  0  0  0  0  0  0
   57.7762   31.1834   49.3915 H   0  0  0  0  0  0  0  0  0  0  0  0
   57.8510   32.2760   51.2590 C   0  0  0  0  0  0  0  0  0  0  0  0
   58.5885   32.9891   51.6559 H   0  0  0  0  0  0  0  0  0  0  0  0
   57.0239   32.8727   50.8468 H   0  0  0  0  0  0  0  0  0  0  0  0
   57.3820   31.3330   52.3500 C   0  0  0  0  0  0  0  0  0  0  0  0
   57.8027   31.6306   53.3218 H   0  0  0  0  0  0  0  0  0  0  0  0
   56.2872   31.3456   52.4563 H   0  0  0  0  0  0  0  0  0  0  0  0
   57.8940   29.9550   51.9480 C   0  0  0  0  0  0  0  0  0  0  0  0
   58.3713   29.4687   52.8115 H   0  0  0  0  0  0  0  0  0  0  0  0
   57.0598   29.3247   51.6061 H   0  0  0  0  0  0  0  0  0  0  0  0
   60.5320   30.1960   48.0210 C   0  0  0  0  0  0  0  0  0  0  0  0
   61.3120   31.2210   48.4550 N   0  0  0  0  0  0  0  0  0  0  0  0
   61.3030   32.4300   47.8340 C   0  0  0  0  0  0  0  0  0  0  0  0
   61.9440   33.2443   48.2028 H   0  0  0  0  0  0  0  0  0  0  0  0
   60.4750   32.6360   46.7230 C   0  0  0  0  0  0  0  0  0  0  0  0
   60.4740   33.7980   46.1360 N   0  0  0  0  0  0  0  0  0  0  0  0
   59.3540   34.6040   45.7230 C   0  0  0  0  0  0  0  0  0  0  0  0
   59.5820   35.7590   45.2750 O   0  0  0  0  0  0  0  0  0  0  0  0
   57.9310   34.1360   45.7990 C   0  0  0  0  0  0  0  0  0  0  0  0
   57.6331   34.0380   46.8533 H   0  0  0  0  0  0  0  0  0  0  0  0
   57.2776   34.8666   45.2997 H   0  0  0  0  0  0  0  0  0  0  0  0
   57.8388   33.1602   45.2997 H   0  0  0  0  0  0  0  0  0  0  0  0
   59.6940   31.6100   46.2880 N   0  0  0  0  0  0  0  0  0  0  0  0
   59.6990   30.3980   46.9040 C   0  0  0  0  0  0  0  0  0  0  0  0
   58.8870   29.3630   46.4350 C   0  0  0  0  0  0  0  0  0  0  0  0
   58.2411   29.5269   45.5598 H   0  0  0  0  0  0  0  0  0  0  0  0
   58.5950   25.7540   46.2620 C   0  0  0  0  0  0  0  0  0  0  0  0
   59.6769   25.5936   46.3794 H   0  0  0  0  0  0  0  0  0  0  0  0
  1  2  1  0
  2  3  2  0
  3  4  1  0
  3  5  1  0
  5  6  1  0
  5  7  2  0
  7  8  1  0
  7  9  1  0
  9 10  1  0
 10 11  2  0
 11 12  1  0
 11 13  1  0
 13 14  1  0
 14 15  1  0
 15 16  1  0
 15 17  1  0
 15 18  1  0
 18 19  1  0
 18 20  1  0
 18 21  1  0
 21 22  1  0
 22 23  1  0
 22 24  1  0
 22 25  1  0
 25 26  1  0
 25 27  1  0
 25 28  1  0
 28 29  1  0
 28 30  1  0
 28 31  1  0
 31 32  1  0
 31 33  1  0
 13 34  2  0
 34 35  1  0
 35 36  2  0
 36 37  1  0
 36 38  1  0
 38 39  2  0
 39 40  1  0
 40 41  2  0
 40 42  1  0
 42 43  1  0
 42 44  1  0
 42 45  1  0
 38 46  1  0
 46 47  1  0
 47 48  2  0
 48 49  1  0
  9 50  2  0
 50 51  1  0
 50  2  1  0
 48 10  1  0
 31 21  1  0
 47 34  1  0
M  CHG  2   6  -1  46  -1
M  END
>  <UniqueID>  (78) 
69

>  <SMILES>  (78) 
CC(=O)/N=c1/cnc2c(OCCN3CCCC3)cc(-c3cccc([O-])c3)cc2[n-]1

>  <Energy>  (78) 
67.64138552588254

>  <Genealogy>  (78) 
CC(=O)N=c1cnc2c(OCCN3CCCC3)cc(-c3cccc([O-])c3)cc2[n-]1 (protonated)
CC(=O)/N=c1/cnc2c(OCCN3CCCC3)cc(-c3cccc([O-])c3)cc2[n-]1 (cis-trans isomerization)
CC(=O)/N=c1/cnc2c(OCCN3CCCC3)cc(-c3cccc([O-])c3)cc2[n-]1 (3D coordinates assigned)
CC(=O)/N=c1/cnc2c(OCCN3CCCC3)cc(-c3cccc([O-])c3)cc2[n-]1 (nonaromatic ring conformer: 67.64138552588254 kcal/mol)

>  <smiles>  (78) 
CC(=O)N=c1cnc2c(OCCN3CCCC3)cc(-c3cccc(O)c3)cc2[nH]1

>  <score_type>  (78) 
oracle

>  <origin>  (78) 
adg

>  <m_score__min__energy>  (78) 
-11.890000000000001

>  <m_primary>  (78) 
energy

$$$$
78:0
     RDKit          3D

 43 45  0  0  0  0  0  0  0  0999 V2000
   58.8455   28.4391   48.0245 H   0  0  0  0  0  0  0  0  0  0  0  0
   58.5540   27.5620   47.4280 C   0  0  0  0  0  0  0  0  0  0  0  0
   58.4363   26.5816   47.9128 H   0  0  0  0  0  0  0  0  0  0  0  0
   58.3420   27.6880   46.1090 C   0  0  0  0  0  0  0  0  0  0  0  0
   57.9670   26.6880   45.1930 C   0  0  0  0  0  0  0  0  0  0  0  0
   57.5850   25.4080   45.3830 C   0  0  0  0  0  0  0  0  0  0  0  0
   58.3731   24.6754   45.6114 H   0  0  0  0  0  0  0  0  0  0  0  0
   56.1990   24.9090   45.3100 C   0  0  0  0  0  0  0  0  0  0  0  0
   55.1270   25.7510   45.6360 C   0  0  0  0  0  0  0  0  0  0  0  0
   55.3490   27.0790   45.9830 O   0  0  0  0  0  0  0  0  0  0  0  0
   53.8550   25.2730   45.6050 N   0  0  0  0  0  0  0  0  0  0  0  0
   53.6000   23.9810   45.2760 C   0  0  0  0  0  0  0  0  0  0  0  0
   52.0620   23.4370   45.2440 S   0  0  0  0  0  0  0  0  0  0  0  0
   54.6240   23.1380   44.9840 N   0  0  0  0  0  0  0  0  0  0  0  0
   55.9120   23.5670   45.0020 C   0  0  0  0  0  0  0  0  0  0  0  0
   56.8390   22.7530   44.7450 O   0  0  0  0  0  0  0  0  0  0  0  0
   58.0590   27.3110   43.9510 C   0  0  0  0  0  0  0  0  0  0  0  0
   57.7720   26.7020   42.6120 C   0  0  0  0  0  0  0  0  0  0  0  0
   57.3068   25.7149   42.7503 H   0  0  0  0  0  0  0  0  0  0  0  0
   57.0868   27.3550   42.0515 H   0  0  0  0  0  0  0  0  0  0  0  0
   58.7117   26.5892   42.0515 H   0  0  0  0  0  0  0  0  0  0  0  0
   58.4170   28.5950   44.1230 N   0  0  0  0  0  0  0  0  0  0  0  0
   58.5610   29.3020   43.3660 H   0  0  0  0  0  0  0  0  0  0  0  0
   58.5770   28.8310   45.4140 N   0  0  0  0  0  0  0  0  0  0  0  0
   59.0280   30.1250   45.9400 C   0  0  0  0  0  0  0  0  0  0  0  0
   58.7827   30.1827   47.0107 H   0  0  0  0  0  0  0  0  0  0  0  0
   60.1144   30.2046   45.7873 H   0  0  0  0  0  0  0  0  0  0  0  0
   58.3590   31.2660   45.2200 C   0  0  0  0  0  0  0  0  0  0  0  0
   57.5320   31.0130   44.3010 O   0  0  0  0  0  0  0  0  0  0  0  0
   58.6240   32.6380   45.5820 N   0  0  0  0  0  0  0  0  0  0  0  0
   58.2050   33.7100   44.6720 C   0  0  0  0  0  0  0  0  0  0  0  0
   58.3323   33.3746   43.6321 H   0  0  0  0  0  0  0  0  0  0  0  0
   57.1485   33.9502   44.8619 H   0  0  0  0  0  0  0  0  0  0  0  0
   59.0530   34.9630   44.9070 C   0  0  0  0  0  0  0  0  0  0  0  0
   60.0866   34.7644   44.5874 H   0  0  0  0  0  0  0  0  0  0  0  0
   58.6257   35.7929   44.3250 H   0  0  0  0  0  0  0  0  0  0  0  0
   59.0510   35.3200   46.2760 O   0  0  0  0  0  0  0  0  0  0  0  0
   59.6970   34.3130   47.0290 C   0  0  0  0  0  0  0  0  0  0  0  0
   60.7023   34.1431   46.6162 H   0  0  0  0  0  0  0  0  0  0  0  0
   59.7635   34.6439   48.0759 H   0  0  0  0  0  0  0  0  0  0  0  0
   58.9050   33.0020   46.9780 C   0  0  0  0  0  0  0  0  0  0  0  0
   59.4935   32.2023   47.4515 H   0  0  0  0  0  0  0  0  0  0  0  0
   57.9541   33.1337   47.5151 H   0  0  0  0  0  0  0  0  0  0  0  0
  1  2  1  0
  2  3  1  0
  2  4  2  0
  4  5  1  0
  5  6  2  0
  6  7  1  0
  6  8  1  0
  8  9  2  0
  9 10  1  0
  9 11  1  0
 11 12  1  0
 12 13  2  0
 12 14  1  0
 14 15  1  0
 15 16  2  0
  5 17  1  0
 17 18  1  0
 18 19  1  0
 18 20  1  0
 18 21  1  0
 17 22  2  0
 22 23  1  0
 22 24  1  0
 24 25  1  0
 25 26  1  0
 25 27  1  0
 25 28  1  0
 28 29  2  0
 28 30  1  0
 30 31  1  0
 31 32  1  0
 31 33  1  0
 31 34  1  0
 34 35  1  0
 34 36  1  0
 34 37  1  0
 37 38  1  0
 38 39  1  0
 38 40  1  0
 38 41  1  0
 41 42  1  0
 41 43  1  0
 24  4  1  0
 41 30  1  0
 15  8  1  0
M  CHG  4  10  -1  11  -1  14  -1  22   1
M  END
>  <UniqueID>  (79) 
70

>  <SMILES>  (79) 
C=c1/c(=C\c2c([O-])[n-]c(=S)[n-]c2=O)c(C)[nH+]n1CC(=O)N1CCOCC1

>  <Energy>  (79) 
92.61750866537508

>  <Genealogy>  (79) 
C=c1c(=Cc2c([O-])[n-]c(=S)[n-]c2=O)c(C)[nH+]n1CC(=O)N1CCOCC1 (protonated)
C=c1/c(=C\c2c([O-])[n-]c(=S)[n-]c2=O)c(C)[nH+]n1CC(=O)N1CCOCC1 (cis-trans isomerization)
C=c1/c(=C\c2c([O-])[n-]c(=S)[n-]c2=O)c(C)[nH+]n1CC(=O)N1CCOCC1 (3D coordinates assigned)
C=c1/c(=C\c2c([O-])[n-]c(=S)[n-]c2=O)c(C)[nH+]n1CC(=O)N1CCOCC1 (nonaromatic ring conformer: 92.61750866537508 kcal/mol)

>  <smiles>  (79) 
C=c1c(=Cc2c(O)[nH]c(=S)[nH]c2=O)c(C)nn1CC(=O)N1CCOCC1

>  <score_type>  (79) 
oracle

>  <origin>  (79) 
adg

>  <m_score__min__energy>  (79) 
-14.51

>  <m_primary>  (79) 
energy

$$$$
79:0
     RDKit          3D

 36 38  0  0  0  0  0  0  0  0999 V2000
   57.4010   32.2670   47.0180 O   0  0  0  0  0  0  0  0  0  0  0  0
   57.6890   32.7330   45.8830 C   0  0  0  0  0  0  0  0  0  0  0  0
   57.8850   31.8020   44.7250 C   0  0  0  0  0  0  0  0  0  0  0  0
   57.4720   30.3820   45.0740 C   0  0  0  0  0  0  0  0  0  0  0  0
   58.1840   29.5920   46.0150 C   0  0  0  0  0  0  0  0  0  0  0  0
   59.4030   30.0520   46.7030 C   0  0  0  0  0  0  0  0  0  0  0  0
   60.6770   30.1930   46.1580 C   0  0  0  0  0  0  0  0  0  0  0  0
   61.6420   30.5720   47.0990 C   0  0  0  0  0  0  0  0  0  0  0  0
   61.1440   30.7030   48.3890 C   0  0  0  0  0  0  0  0  0  0  0  0
   59.5050   30.3390   48.3560 S   0  0  0  0  0  0  0  0  0  0  0  0
   57.7050   28.3650   46.3530 N   0  0  0  0  0  0  0  0  0  0  0  0
   56.5810   27.8580   45.7930 C   0  0  0  0  0  0  0  0  0  0  0  0
   56.0510   26.3760   46.2260 S   0  0  0  0  0  0  0  0  0  0  0  0
   55.8970   28.5810   44.8750 N   0  0  0  0  0  0  0  0  0  0  0  0
   56.3080   29.8200   44.5060 C   0  0  0  0  0  0  0  0  0  0  0  0
   55.6290   30.4560   43.6560 O   0  0  0  0  0  0  0  0  0  0  0  0
   57.8740   34.1410   45.7040 N   0  0  0  0  0  0  0  0  0  0  0  0
   59.1780   34.7630   45.5020 C   0  0  0  0  0  0  0  0  0  0  0  0
   60.0920   34.4490   46.6550 C   0  0  0  0  0  0  0  0  0  0  0  0
   61.4170   34.0460   46.4340 C   0  0  0  0  0  0  0  0  0  0  0  0
   62.2460   33.7550   47.5180 C   0  0  0  0  0  0  0  0  0  0  0  0
   61.7420   33.8640   48.8160 C   0  0  0  0  0  0  0  0  0  0  0  0
   60.4500   34.2410   49.0170 N   0  0  0  0  0  0  0  0  0  0  0  0
   59.6210   34.5280   47.9750 C   0  0  0  0  0  0  0  0  0  0  0  0
   57.2772   32.1527   43.8779 H   0  0  0  0  0  0  0  0  0  0  0  0
   58.9538   31.7958   44.4651 H   0  0  0  0  0  0  0  0  0  0  0  0
   60.9024   30.0236   45.0948 H   0  0  0  0  0  0  0  0  0  0  0  0
   62.6964   30.7495   46.8407 H   0  0  0  0  0  0  0  0  0  0  0  0
   61.7227   30.9945   49.2779 H   0  0  0  0  0  0  0  0  0  0  0  0
   59.6226   34.3793   44.5719 H   0  0  0  0  0  0  0  0  0  0  0  0
   59.0474   35.8532   45.4363 H   0  0  0  0  0  0  0  0  0  0  0  0
   61.8023   33.9594   45.4073 H   0  0  0  0  0  0  0  0  0  0  0  0
   63.2875   33.4425   47.3517 H   0  0  0  0  0  0  0  0  0  0  0  0
   62.3904   33.6448   49.6771 H   0  0  0  0  0  0  0  0  0  0  0  0
   60.0850   34.3100   49.9940 H   0  0  0  0  0  0  0  0  0  0  0  0
   58.5790   34.8226   48.1685 H   0  0  0  0  0  0  0  0  0  0  0  0
  1  2  2  0
  2  3  1  0
  3  4  1  0
  4  5  2  0
  5  6  1  0
  6  7  2  0
  7  8  1  0
  8  9  2  0
  9 10  1  0
  5 11  1  0
 11 12  1  0
 12 13  2  0
 12 14  1  0
 14 15  1  0
 15 16  2  0
  2 17  1  0
 17 18  1  0
 18 19  1  0
 19 20  2  0
 20 21  1  0
 21 22  2  0
 22 23  1  0
 23 24  2  0
 15  4  1  0
 24 19  1  0
 10  6  1  0
  3 25  1  0
  3 26  1  0
  7 27  1  0
  8 28  1  0
  9 29  1  0
 18 30  1  0
 18 31  1  0
 20 32  1  0
 21 33  1  0
 22 34  1  0
 23 35  1  0
 24 36  1  0
M  CHG  4  11  -1  14  -1  17  -1  23   1
M  END
>  <UniqueID>  (80) 
71

>  <SMILES>  (80) 
O=C(Cc1c(-c2cccs2)[n-]c(=S)[n-]c1=O)[N-]Cc1ccc[nH+]c1

>  <Energy>  (80) 
66.50305829595607

>  <Genealogy>  (80) 
O=C(Cc1c(-c2cccs2)[n-]c(=S)[n-]c1=O)[N-]Cc1ccc[nH+]c1 (protonated)
O=C(Cc1c(-c2cccs2)[n-]c(=S)[n-]c1=O)[N-]Cc1ccc[nH+]c1 (3D coordinates assigned)
O=C(Cc1c(-c2cccs2)[n-]c(=S)[n-]c1=O)[N-]Cc1ccc[nH+]c1 (optimized conformer: 66.50305829595607 kcal/mol)

>  <smiles>  (80) 
O=C(Cc1c(-c2cccs2)[nH]c(=S)[nH]c1=O)NCc1cccnc1

>  <score_type>  (80) 
oracle

>  <origin>  (80) 
adg

>  <m_score__min__energy>  (80) 
-10.68

>  <m_primary>  (80) 
energy

$$$$
80:0
     RDKit          3D

 36 38  0  0  0  0  0  0  0  0999 V2000
   56.8428   30.3908   42.8161 H   0  0  0  0  0  0  0  0  0  0  0  0
   57.3340   30.3230   43.7980 C   0  0  0  0  0  0  0  0  0  0  0  0
   57.9610   31.3760   44.2420 N   0  0  0  0  0  0  0  0  0  0  0  0
   58.1410   31.7760   45.6100 C   0  0  0  0  0  0  0  0  0  0  0  0
   57.7840   31.0240   46.5580 O   0  0  0  0  0  0  0  0  0  0  0  0
   58.7010   33.1090   45.8870 C   0  0  0  0  0  0  0  0  0  0  0  0
   58.7961   33.8265   45.0586 H   0  0  0  0  0  0  0  0  0  0  0  0
   59.0990   33.4800   47.1110 C   0  0  0  0  0  0  0  0  0  0  0  0
   58.3329   33.7100   47.8661 H   0  0  0  0  0  0  0  0  0  0  0  0
   60.5260   33.5940   47.4920 C   0  0  0  0  0  0  0  0  0  0  0  0
   61.4980   33.4370   46.4890 C   0  0  0  0  0  0  0  0  0  0  0  0
   61.1861   33.2354   45.4536 H   0  0  0  0  0  0  0  0  0  0  0  0
   62.8580   33.5350   46.7970 C   0  0  0  0  0  0  0  0  0  0  0  0
   63.6114   33.3975   46.0074 H   0  0  0  0  0  0  0  0  0  0  0  0
   63.2610   33.8070   48.1050 C   0  0  0  0  0  0  0  0  0  0  0  0
   64.3319   33.8757   48.3468 H   0  0  0  0  0  0  0  0  0  0  0  0
   62.3070   33.9920   49.1070 C   0  0  0  0  0  0  0  0  0  0  0  0
   62.6285   34.2093   50.1363 H   0  0  0  0  0  0  0  0  0  0  0  0
   60.9430   33.9020   48.8070 C   0  0  0  0  0  0  0  0  0  0  0  0
   60.0170   34.1500   49.8150 O   0  0  0  0  0  0  0  0  0  0  0  0
   57.2420   29.0420   44.5330 C   0  0  0  0  0  0  0  0  0  0  0  0
   55.9920   28.5900   44.9860 C   0  0  0  0  0  0  0  0  0  0  0  0
   54.8490   29.3560   44.7830 O   0  0  0  0  0  0  0  0  0  0  0  0
   55.8880   27.4030   45.6370 N   0  0  0  0  0  0  0  0  0  0  0  0
   56.9650   26.6080   45.8640 C   0  0  0  0  0  0  0  0  0  0  0  0
   56.8050   25.3950   46.5440 C   0  0  0  0  0  0  0  0  0  0  0  0
   55.8087   25.0919   46.8982 H   0  0  0  0  0  0  0  0  0  0  0  0
   57.9080   24.5680   46.7740 C   0  0  0  0  0  0  0  0  0  0  0  0
   57.7450   23.3650   47.4510 O   0  0  0  0  0  0  0  0  0  0  0  0
   59.1750   24.9480   46.3240 C   0  0  0  0  0  0  0  0  0  0  0  0
   60.0404   24.2940   46.5067 H   0  0  0  0  0  0  0  0  0  0  0  0
   59.3470   26.1570   45.6420 C   0  0  0  0  0  0  0  0  0  0  0  0
   60.3465   26.4500   45.2883 H   0  0  0  0  0  0  0  0  0  0  0  0
   58.2440   27.0000   45.4070 C   0  0  0  0  0  0  0  0  0  0  0  0
   58.3730   28.2240   44.7230 C   0  0  0  0  0  0  0  0  0  0  0  0
   59.4960   28.5850   44.2700 O   0  0  0  0  0  0  0  0  0  0  0  0
  1  2  1  0
  2  3  2  0
  3  4  1  0
  4  5  2  0
  4  6  1  0
  6  7  1  0
  6  8  2  0
  8  9  1  0
  8 10  1  0
 10 11  2  0
 11 12  1  0
 11 13  1  0
 13 14  1  0
 13 15  2  0
 15 16  1  0
 15 17  1  0
 17 18  1  0
 17 19  2  0
 19 20  1  0
  2 21  1  0
 21 22  2  0
 22 23  1  0
 22 24  1  0
 24 25  1  0
 25 26  2  0
 26 27  1  0
 26 28  1  0
 28 29  1  0
 28 30  2  0
 30 31  1  0
 30 32  1  0
 32 33  1  0
 32 34  2  0
 34 35  1  0
 35 36  2  0
 19 10  1  0
 35 21  1  0
 34 25  1  0
M  CHG  4  20  -1  23  -1  24  -1  29  -1
M  END
>  <UniqueID>  (81) 
72

>  <SMILES>  (81) 
O=C(/C=C/c1ccccc1[O-])/N=C\c1c([O-])[n-]c2cc([O-])ccc2c1=O

>  <Energy>  (81) 
58.79981812186359

>  <Genealogy>  (81) 
O=C(C=Cc1ccccc1[O-])N=Cc1c([O-])[n-]c2cc([O-])ccc2c1=O (protonated)
O=C(/C=C/c1ccccc1[O-])/N=C\c1c([O-])[n-]c2cc([O-])ccc2c1=O (cis-trans isomerization)
O=C(/C=C/c1ccccc1[O-])/N=C\c1c([O-])[n-]c2cc([O-])ccc2c1=O (3D coordinates assigned)
O=C(/C=C/c1ccccc1[O-])/N=C\c1c([O-])[n-]c2cc([O-])ccc2c1=O (optimized conformer: 58.79981812186359 kcal/mol)

>  <smiles>  (81) 
O=C(C=Cc1ccccc1O)N=Cc1c(O)[nH]c2cc(O)ccc2c1=O

>  <score_type>  (81) 
oracle

>  <origin>  (81) 
adg

>  <m_score__min__energy>  (81) 
-15.9

>  <m_primary>  (81) 
energy

$$$$
81:0
     RDKit          3D

 49 51  0  0  0  0  0  0  0  0999 V2000
   54.7170   26.0120   45.9710 O   0  0  0  0  0  0  0  0  0  0  0  0
   55.9020   26.4100   46.1300 C   0  0  0  0  0  0  0  0  0  0  0  0
   56.7720   25.7890   47.1870 C   0  0  0  0  0  0  0  0  0  0  0  0
   57.8520   25.0160   46.5830 N   0  0  0  0  0  0  0  0  0  0  0  0
   58.8250   25.5590   45.6840 C   0  0  0  0  0  0  0  0  0  0  0  0
   58.5020   25.7290   44.4780 O   0  0  0  0  0  0  0  0  0  0  0  0
   60.1900   25.9750   46.1730 C   0  0  0  0  0  0  0  0  0  0  0  0
   60.2650   27.4510   46.4730 C   0  0  0  0  0  0  0  0  0  0  0  0
   59.8220   27.9470   47.7070 C   0  0  0  0  0  0  0  0  0  0  0  0
   59.8630   29.3180   47.9740 C   0  0  0  0  0  0  0  0  0  0  0  0
   60.3380   30.2250   47.0060 C   0  0  0  0  0  0  0  0  0  0  0  0
   60.3800   31.6460   47.2810 N   0  0  0  0  0  0  0  0  0  0  0  0
   59.2050   32.4490   47.5910 C   0  0  0  0  0  0  0  0  0  0  0  0
   59.7300   33.8260   47.9700 C   0  0  0  0  0  0  0  0  0  0  0  0
   61.1570   33.8870   47.4380 C   0  0  0  0  0  0  0  0  0  0  0  0
   61.6000   32.4400   47.2770 C   0  0  0  0  0  0  0  0  0  0  0  0
   60.7690   29.7190   45.7640 C   0  0  0  0  0  0  0  0  0  0  0  0
   60.7280   28.3470   45.5010 C   0  0  0  0  0  0  0  0  0  0  0  0
   56.3930   27.4640   45.2940 N   0  0  0  0  0  0  0  0  0  0  0  0
   57.0180   28.6800   45.7980 C   0  0  0  0  0  0  0  0  0  0  0  0
   57.1490   29.6730   44.6810 C   0  0  0  0  0  0  0  0  0  0  0  0
   57.9760   30.7990   44.8260 C   0  0  0  0  0  0  0  0  0  0  0  0
   58.1250   31.7050   43.7720 C   0  0  0  0  0  0  0  0  0  0  0  0
   57.4590   31.4870   42.5600 C   0  0  0  0  0  0  0  0  0  0  0  0
   57.6480   32.6240   41.2380 Cl  0  0  0  0  0  0  0  0  0  0  0  0
   56.6460   30.3590   42.4040 C   0  0  0  0  0  0  0  0  0  0  0  0
   56.4950   29.4510   43.4570 C   0  0  0  0  0  0  0  0  0  0  0  0
   57.2041   26.5849   47.8114 H   0  0  0  0  0  0  0  0  0  0  0  0
   56.1553   25.1138   47.7984 H   0  0  0  0  0  0  0  0  0  0  0  0
   60.4227   25.4152   47.0908 H   0  0  0  0  0  0  0  0  0  0  0  0
   60.9145   25.7566   45.3747 H   0  0  0  0  0  0  0  0  0  0  0  0
   59.4398   27.2527   48.4698 H   0  0  0  0  0  0  0  0  0  0  0  0
   59.5209   29.6930   48.9499 H   0  0  0  0  0  0  0  0  0  0  0  0
   58.5465   32.5189   46.7126 H   0  0  0  0  0  0  0  0  0  0  0  0
   58.6143   32.0035   48.4050 H   0  0  0  0  0  0  0  0  0  0  0  0
   59.1146   34.6114   47.5069 H   0  0  0  0  0  0  0  0  0  0  0  0
   59.6961   33.9871   49.0576 H   0  0  0  0  0  0  0  0  0  0  0  0
   61.1828   34.4059   46.4684 H   0  0  0  0  0  0  0  0  0  0  0  0
   61.8202   34.4408   48.1188 H   0  0  0  0  0  0  0  0  0  0  0  0
   62.1390   32.3084   46.3272 H   0  0  0  0  0  0  0  0  0  0  0  0
   62.2829   32.1348   48.0835 H   0  0  0  0  0  0  0  0  0  0  0  0
   61.1414   30.4104   44.9937 H   0  0  0  0  0  0  0  0  0  0  0  0
   61.0617   27.9681   44.5237 H   0  0  0  0  0  0  0  0  0  0  0  0
   56.3961   29.1077   46.5982 H   0  0  0  0  0  0  0  0  0  0  0  0
   58.0151   28.4423   46.1970 H   0  0  0  0  0  0  0  0  0  0  0  0
   58.5088   30.9686   45.7733 H   0  0  0  0  0  0  0  0  0  0  0  0
   58.7663   32.5902   43.8950 H   0  0  0  0  0  0  0  0  0  0  0  0
   56.1245   30.1860   41.4511 H   0  0  0  0  0  0  0  0  0  0  0  0
   55.8625   28.5605   43.3268 H   0  0  0  0  0  0  0  0  0  0  0  0
  1  2  2  0
  2  3  1  0
  3  4  1  0
  4  5  1  0
  5  6  2  0
  5  7  1  0
  7  8  1  0
  8  9  2  0
  9 10  1  0
 10 11  2  0
 11 12  1  0
 12 13  1  0
 13 14  1  0
 14 15  1  0
 15 16  1  0
 11 17  1  0
 17 18  2  0
  2 19  1  0
 19 20  1  0
 20 21  1  0
 21 22  2  0
 22 23  1  0
 23 24  2  0
 24 25  1  0
 24 26  1  0
 26 27  2  0
 18  8  1  0
 27 21  1  0
 16 12  1  0
  3 28  1  0
  3 29  1  0
  7 30  1  0
  7 31  1  0
  9 32  1  0
 10 33  1  0
 13 34  1  0
 13 35  1  0
 14 36  1  0
 14 37  1  0
 15 38  1  0
 15 39  1  0
 16 40  1  0
 16 41  1  0
 17 42  1  0
 18 43  1  0
 20 44  1  0
 20 45  1  0
 22 46  1  0
 23 47  1  0
 26 48  1  0
 27 49  1  0
M  CHG  2   4  -1  19  -1
M  END
>  <UniqueID>  (82) 
73

>  <SMILES>  (82) 
O=C(C[N-]C(=O)Cc1ccc(N2CCCC2)cc1)[N-]Cc1ccc(Cl)cc1

>  <Energy>  (82) 
46.23891000627043

>  <Genealogy>  (82) 
O=C(C[N-]C(=O)Cc1ccc(N2CCCC2)cc1)[N-]Cc1ccc(Cl)cc1 (protonated)
O=C(C[N-]C(=O)Cc1ccc(N2CCCC2)cc1)[N-]Cc1ccc(Cl)cc1 (3D coordinates assigned)
O=C(C[N-]C(=O)Cc1ccc(N2CCCC2)cc1)[N-]Cc1ccc(Cl)cc1 (nonaromatic ring conformer: 46.23891000627043 kcal/mol)

>  <smiles>  (82) 
O=C(CNC(=O)Cc1ccc(N2CCCC2)cc1)NCc1ccc(Cl)cc1

>  <score_type>  (82) 
oracle

>  <origin>  (82) 
adg

>  <m_score__min__energy>  (82) 
-12.369999999999999

>  <m_primary>  (82) 
energy

$$$$
82:0
     RDKit          3D

 58 61  0  0  0  0  0  0  0  0999 V2000
   55.1460   30.4670   44.4860 O   0  0  0  0  0  0  0  0  0  0  0  0
   56.2710   29.9030   44.4200 C   0  0  0  0  0  0  0  0  0  0  0  0
   57.4590   30.6570   43.8750 C   0  0  0  0  0  0  0  0  0  0  0  0
   57.7740   31.8800   44.6970 C   0  0  0  0  0  0  0  0  0  0  0  0
   58.1010   33.0940   44.0700 C   0  0  0  0  0  0  0  0  0  0  0  0
   58.4200   34.2190   44.8360 C   0  0  0  0  0  0  0  0  0  0  0  0
   58.4230   34.1380   46.2320 C   0  0  0  0  0  0  0  0  0  0  0  0
   58.1120   32.9310   46.8630 C   0  0  0  0  0  0  0  0  0  0  0  0
   57.7920   31.8030   46.1000 C   0  0  0  0  0  0  0  0  0  0  0  0
   56.3970   28.5700   44.9340 N   0  0  0  0  0  0  0  0  0  0  0  0
   57.6490   27.8320   45.0890 C   0  0  0  0  0  0  0  0  0  0  0  0
   58.5570   28.5180   46.0760 C   0  0  0  0  0  0  0  0  0  0  0  0
   58.2450   28.5270   47.4440 C   0  0  0  0  0  0  0  0  0  0  0  0
   59.0960   29.1550   48.3570 C   0  0  0  0  0  0  0  0  0  0  0  0
   60.2690   29.7950   47.9210 C   0  0  0  0  0  0  0  0  0  0  0  0
   61.1740   30.4450   48.9000 C   0  0  0  0  0  0  0  0  0  0  0  0
   61.5830   29.7890   49.8960 O   0  0  0  0  0  0  0  0  0  0  0  0
   61.5530   31.8240   48.7520 N   0  0  0  0  0  0  0  0  0  0  0  0
   62.7120   32.4030   49.3760 C   0  0  0  0  0  0  0  0  0  0  0  0
   62.5580   33.4900   50.2410 C   0  0  0  0  0  0  0  0  0  0  0  0
   63.6700   34.0810   50.8490 C   0  0  0  0  0  0  0  0  0  0  0  0
   64.9800   33.6110   50.5910 C   0  0  0  0  0  0  0  0  0  0  0  0
   66.1450   34.2250   51.2270 N   0  0  0  0  0  0  0  0  0  0  0  0
   65.9470   35.1580   52.3550 C   0  0  0  0  0  0  0  0  0  0  0  0
   67.2480   35.7680   52.8890 C   0  0  0  0  0  0  0  0  0  0  0  0
   68.3000   34.8350   52.8540 O   0  0  0  0  0  0  0  0  0  0  0  0
   68.6190   34.5780   51.5070 C   0  0  0  0  0  0  0  0  0  0  0  0
   67.5000   33.7880   50.8270 C   0  0  0  0  0  0  0  0  0  0  0  0
   65.1190   32.5230   49.6970 C   0  0  0  0  0  0  0  0  0  0  0  0
   64.0040   31.9340   49.0960 C   0  0  0  0  0  0  0  0  0  0  0  0
   60.5770   29.7840   46.5470 C   0  0  0  0  0  0  0  0  0  0  0  0
   59.7240   29.1570   45.6340 C   0  0  0  0  0  0  0  0  0  0  0  0
   58.3346   29.9912   43.8782 H   0  0  0  0  0  0  0  0  0  0  0  0
   57.2146   30.9862   42.8542 H   0  0  0  0  0  0  0  0  0  0  0  0
   58.1060   33.1595   42.9720 H   0  0  0  0  0  0  0  0  0  0  0  0
   58.6689   35.1688   44.3402 H   0  0  0  0  0  0  0  0  0  0  0  0
   58.6704   35.0251   46.8336 H   0  0  0  0  0  0  0  0  0  0  0  0
   58.1188   32.8675   47.9611 H   0  0  0  0  0  0  0  0  0  0  0  0
   57.5537   30.8526   46.5999 H   0  0  0  0  0  0  0  0  0  0  0  0
   57.4267   26.8167   45.4491 H   0  0  0  0  0  0  0  0  0  0  0  0
   58.1563   27.7905   44.1138 H   0  0  0  0  0  0  0  0  0  0  0  0
   57.3263   28.0374   47.7993 H   0  0  0  0  0  0  0  0  0  0  0  0
   58.8454   29.1485   49.4281 H   0  0  0  0  0  0  0  0  0  0  0  0
   60.8920   32.4660   48.2570 H   0  0  0  0  0  0  0  0  0  0  0  0
   61.5518   33.8846   50.4456 H   0  0  0  0  0  0  0  0  0  0  0  0
   63.5243   34.9251   51.5392 H   0  0  0  0  0  0  0  0  0  0  0  0
   65.2932   35.9759   52.0179 H   0  0  0  0  0  0  0  0  0  0  0  0
   65.5044   34.5769   53.1775 H   0  0  0  0  0  0  0  0  0  0  0  0
   67.5178   36.6361   52.2697 H   0  0  0  0  0  0  0  0  0  0  0  0
   67.0868   36.0716   53.9339 H   0  0  0  0  0  0  0  0  0  0  0  0
   68.7577   35.5337   50.9802 H   0  0  0  0  0  0  0  0  0  0  0  0
   69.5439   33.9837   51.4701 H   0  0  0  0  0  0  0  0  0  0  0  0
   67.5986   33.9107   49.7383 H   0  0  0  0  0  0  0  0  0  0  0  0
   67.6078   32.7387   51.1389 H   0  0  0  0  0  0  0  0  0  0  0  0
   66.1229   32.1341   49.4713 H   0  0  0  0  0  0  0  0  0  0  0  0
   64.1403   31.0954   48.3973 H   0  0  0  0  0  0  0  0  0  0  0  0
   61.4955   30.2723   46.1895 H   0  0  0  0  0  0  0  0  0  0  0  0
   59.9700   29.1651   44.5619 H   0  0  0  0  0  0  0  0  0  0  0  0
  1  2  2  0
  2  3  1  0
  3  4  1  0
  4  5  2  0
  5  6  1  0
  6  7  2  0
  7  8  1  0
  8  9  2  0
  2 10  1  0
 10 11  1  0
 11 12  1  0
 12 13  2  0
 13 14  1  0
 14 15  2  0
 15 16  1  0
 16 17  2  0
 16 18  1  0
 18 19  1  0
 19 20  2  0
 20 21  1  0
 21 22  2  0
 22 23  1  0
 23 24  1  0
 24 25  1  0
 25 26  1  0
 26 27  1  0
 27 28  1  0
 22 29  1  0
 29 30  2  0
 15 31  1  0
 31 32  2  0
  9  4  1  0
 32 12  1  0
 30 19  1  0
 28 23  1  0
  3 33  1  0
  3 34  1  0
  5 35  1  0
  6 36  1  0
  7 37  1  0
  8 38  1  0
  9 39  1  0
 11 40  1  0
 11 41  1  0
 13 42  1  0
 14 43  1  0
 18 44  1  0
 20 45  1  0
 21 46  1  0
 24 47  1  0
 24 48  1  0
 25 49  1  0
 25 50  1  0
 27 51  1  0
 27 52  1  0
 28 53  1  0
 28 54  1  0
 29 55  1  0
 30 56  1  0
 31 57  1  0
 32 58  1  0
M  CHG  1  10  -1
M  END
>  <UniqueID>  (83) 
74

>  <SMILES>  (83) 
O=C(Cc1ccccc1)[N-]Cc1ccc(C(=O)Nc2ccc(N3CCOCC3)cc2)cc1

>  <Energy>  (83) 
72.48576144576607

>  <Genealogy>  (83) 
O=C(Cc1ccccc1)[N-]Cc1ccc(C(=O)Nc2ccc(N3CCOCC3)cc2)cc1 (protonated)
O=C(Cc1ccccc1)[N-]Cc1ccc(C(=O)Nc2ccc(N3CCOCC3)cc2)cc1 (3D coordinates assigned)
O=C(Cc1ccccc1)[N-]Cc1ccc(C(=O)Nc2ccc(N3CCOCC3)cc2)cc1 (nonaromatic ring conformer: 72.48576144576607 kcal/mol)

>  <smiles>  (83) 
O=C(Cc1ccccc1)NCc1ccc(C(=O)Nc2ccc(N3CCOCC3)cc2)cc1

>  <score_type>  (83) 
oracle

>  <origin>  (83) 
adg

>  <m_score__min__energy>  (83) 
-10.19

>  <m_primary>  (83) 
energy

$$$$
83:0
     RDKit          3D

 46 49  0  0  0  0  0  0  0  0999 V2000
   57.6741   34.2688   45.8042 H   0  0  0  0  0  0  0  0  0  0  0  0
   58.5070   33.8840   46.4110 C   0  0  0  0  0  0  0  0  0  0  0  0
   58.4310   32.5080   46.9340 C   0  0  0  0  0  0  0  0  0  0  0  0
   58.1550   32.3400   48.1530 O   0  0  0  0  0  0  0  0  0  0  0  0
   58.6450   31.3630   46.0950 N   0  0  0  0  0  0  0  0  0  0  0  0
   59.5470   30.2950   46.5380 C   0  0  0  0  0  0  0  0  0  0  0  0
   59.8503   30.4820   47.5787 H   0  0  0  0  0  0  0  0  0  0  0  0
   60.4351   30.2786   45.8892 H   0  0  0  0  0  0  0  0  0  0  0  0
   58.8350   28.9430   46.4520 C   0  0  0  0  0  0  0  0  0  0  0  0
   58.0622   28.8962   47.2334 H   0  0  0  0  0  0  0  0  0  0  0  0
   59.5843   28.1500   46.5924 H   0  0  0  0  0  0  0  0  0  0  0  0
   58.1990   28.7480   45.1390 N   0  0  0  0  0  0  0  0  0  0  0  0
   57.7980   27.4180   44.7380 C   0  0  0  0  0  0  0  0  0  0  0  0
   58.1440   26.9170   43.4690 C   0  0  0  0  0  0  0  0  0  0  0  0
   58.7145   27.5469   42.7706 H   0  0  0  0  0  0  0  0  0  0  0  0
   57.7680   25.6240   43.0890 C   0  0  0  0  0  0  0  0  0  0  0  0
   58.0431   25.2422   42.0947 H   0  0  0  0  0  0  0  0  0  0  0  0
   57.0430   24.8160   43.9710 C   0  0  0  0  0  0  0  0  0  0  0  0
   56.6680   23.4820   43.5850 C   0  0  0  0  0  0  0  0  0  0  0  0
   56.3640   22.4100   43.2740 N   0  0  0  0  0  0  0  0  0  0  0  0
   56.6930   25.3060   45.2350 C   0  0  0  0  0  0  0  0  0  0  0  0
   56.1204   24.6734   45.9292 H   0  0  0  0  0  0  0  0  0  0  0  0
   57.0690   26.5960   45.6170 C   0  0  0  0  0  0  0  0  0  0  0  0
   56.7929   26.9722   46.6131 H   0  0  0  0  0  0  0  0  0  0  0  0
   58.1430   29.8610   44.1770 C   0  0  0  0  0  0  0  0  0  0  0  0
   57.3627   29.6535   43.4300 H   0  0  0  0  0  0  0  0  0  0  0  0
   59.1241   29.9555   43.6886 H   0  0  0  0  0  0  0  0  0  0  0  0
   57.8190   31.1790   44.8900 C   0  0  0  0  0  0  0  0  0  0  0  0
   56.7584   31.1752   45.1818 H   0  0  0  0  0  0  0  0  0  0  0  0
   58.0339   32.0059   44.1971 H   0  0  0  0  0  0  0  0  0  0  0  0
   59.5570   34.6820   46.6500 C   0  0  0  0  0  0  0  0  0  0  0  0
   59.4621   35.7466   46.3898 H   0  0  0  0  0  0  0  0  0  0  0  0
   60.8410   34.2250   47.2430 C   0  0  0  0  0  0  0  0  0  0  0  0
   61.8830   33.8230   46.3620 C   0  0  0  0  0  0  0  0  0  0  0  0
   61.7150   33.8488   45.2752 H   0  0  0  0  0  0  0  0  0  0  0  0
   63.1250   33.3930   46.8620 C   0  0  0  0  0  0  0  0  0  0  0  0
   63.9304   33.0741   46.1840 H   0  0  0  0  0  0  0  0  0  0  0  0
   63.3020   33.3840   48.2400 C   0  0  0  0  0  0  0  0  0  0  0  0
   62.3210   33.7690   49.0920 C   0  0  0  0  0  0  0  0  0  0  0  0
   61.0750   34.2010   48.6430 C   0  0  0  0  0  0  0  0  0  0  0  0
   60.2951   34.5144   49.3526 H   0  0  0  0  0  0  0  0  0  0  0  0
   62.7730   33.6630   50.3940 O   0  0  0  0  0  0  0  0  0  0  0  0
   64.1240   33.1830   50.3540 C   0  0  0  0  0  0  0  0  0  0  0  0
   64.8074   33.9152   50.8088 H   0  0  0  0  0  0  0  0  0  0  0  0
   64.2446   32.2455   50.9166 H   0  0  0  0  0  0  0  0  0  0  0  0
   64.4210   33.0150   48.9610 O   0  0  0  0  0  0  0  0  0  0  0  0
  1  2  1  0
  2  3  1  0
  3  4  2  0
  3  5  1  0
  5  6  1  0
  6  7  1  0
  6  8  1  0
  6  9  1  0
  9 10  1  0
  9 11  1  0
  9 12  1  0
 12 13  1  0
 13 14  2  0
 14 15  1  0
 14 16  1  0
 16 17  1  0
 16 18  2  0
 18 19  1  0
 19 20  3  0
 18 21  1  0
 21 22  1  0
 21 23  2  0
 23 24  1  0
 12 25  1  0
 25 26  1  0
 25 27  1  0
 25 28  1  0
 28 29  1  0
 28 30  1  0
  2 31  2  0
 31 32  1  0
 31 33  1  0
 33 34  2  0
 34 35  1  0
 34 36  1  0
 36 37  1  0
 36 38  2  0
 38 39  1  0
 39 40  2  0
 40 41  1  0
 39 42  1  0
 42 43  1  0
 43 44  1  0
 43 45  1  0
 43 46  1  0
 28  5  1  0
 40 33  1  0
 23 13  1  0
 46 38  1  0
M  END
>  <UniqueID>  (84) 
75

>  <SMILES>  (84) 
N#Cc1ccc(N2CCN(C(=O)/C=C/c3ccc4c(c3)OCO4)CC2)cc1

>  <Energy>  (84) 
86.21375793462585

>  <Genealogy>  (84) 
N#Cc1ccc(N2CCN(C(=O)/C=C/c3ccc4c(c3)OCO4)CC2)cc1 (cis-trans isomerization)
N#Cc1ccc(N2CCN(C(=O)/C=C/c3ccc4c(c3)OCO4)CC2)cc1 (3D coordinates assigned)
N#Cc1ccc(N2CCN(C(=O)/C=C/c3ccc4c(c3)OCO4)CC2)cc1 (nonaromatic ring conformer: 86.21375793462585 kcal/mol)

>  <smiles>  (84) 
N#Cc1ccc(N2CCN(C(=O)C=Cc3ccc4c(c3)OCO4)CC2)cc1

>  <score_type>  (84) 
oracle

>  <origin>  (84) 
adg

>  <m_score__min__energy>  (84) 
-7.7999999999999998

>  <m_primary>  (84) 
energy

$$$$
84:0
     RDKit          3D

 34 36  0  0  0  0  0  0  0  0999 V2000
   58.1386   31.8326   43.0575 H   0  0  0  0  0  0  0  0  0  0  0  0
   57.7410   31.2240   43.8830 C   0  0  0  0  0  0  0  0  0  0  0  0
   56.8610   30.1630   43.8250 C   0  0  0  0  0  0  0  0  0  0  0  0
   56.2130   29.6250   42.5950 C   0  0  0  0  0  0  0  0  0  0  0  0
   55.3952   28.9461   42.8784 H   0  0  0  0  0  0  0  0  0  0  0  0
   55.8091   30.4570   41.9995 H   0  0  0  0  0  0  0  0  0  0  0  0
   56.9565   29.0750   41.9995 H   0  0  0  0  0  0  0  0  0  0  0  0
   56.6370   29.7190   45.0390 O   0  0  0  0  0  0  0  0  0  0  0  0
   57.3070   30.4020   45.9210 N   0  0  0  0  0  0  0  0  0  0  0  0
   57.9990   31.3320   45.2390 C   0  0  0  0  0  0  0  0  0  0  0  0
   58.7290   32.2320   45.8300 N   0  0  0  0  0  0  0  0  0  0  0  0
   59.5210   32.0490   47.0130 C   0  0  0  0  0  0  0  0  0  0  0  0
   58.9830   31.9800   48.1510 O   0  0  0  0  0  0  0  0  0  0  0  0
   61.0070   31.8950   46.8800 C   0  0  0  0  0  0  0  0  0  0  0  0
   61.2942   32.0889   45.8360 H   0  0  0  0  0  0  0  0  0  0  0  0
   61.4899   32.6127   47.5595 H   0  0  0  0  0  0  0  0  0  0  0  0
   61.4650   30.4810   47.2690 C   0  0  0  0  0  0  0  0  0  0  0  0
   62.5282   30.3668   47.0110 H   0  0  0  0  0  0  0  0  0  0  0  0
   61.3065   30.3539   48.3501 H   0  0  0  0  0  0  0  0  0  0  0  0
   60.6750   29.4270   46.5530 C   0  0  0  0  0  0  0  0  0  0  0  0
   59.6150   28.7960   47.1150 N   0  0  0  0  0  0  0  0  0  0  0  0
   58.9570   28.0360   46.2410 N   0  0  0  0  0  0  0  0  0  0  0  0
   57.8440   27.3160   46.5370 C   0  0  0  0  0  0  0  0  0  0  0  0
   57.3930   27.3120   47.7140 O   0  0  0  0  0  0  0  0  0  0  0  0
   57.2090   26.5870   45.5040 C   0  0  0  0  0  0  0  0  0  0  0  0
   55.9810   25.7850   45.7420 C   0  0  0  0  0  0  0  0  0  0  0  0
   54.8990   26.3540   46.0450 O   0  0  0  0  0  0  0  0  0  0  0  0
   56.0010   24.3990   45.6350 O   0  0  0  0  0  0  0  0  0  0  0  0
   57.7780   26.6460   44.2120 C   0  0  0  0  0  0  0  0  0  0  0  0
   57.3110   26.0885   43.3867 H   0  0  0  0  0  0  0  0  0  0  0  0
   58.8980   27.3850   43.9760 N   0  0  0  0  0  0  0  0  0  0  0  0
   59.3040   27.4300   43.0140 H   0  0  0  0  0  0  0  0  0  0  0  0
   59.4690   28.0680   44.9950 C   0  0  0  0  0  0  0  0  0  0  0  0
   60.8130   29.0750   44.8970 S   0  0  0  0  0  0  0  0  0  0  0  0
  1  2  1  0
  2  3  2  0
  3  4  1  0
  4  5  1  0
  4  6  1  0
  4  7  1  0
  3  8  1  0
  8  9  1  0
  9 10  1  0
 10 11  2  0
 11 12  1  0
 12 13  2  0
 12 14  1  0
 14 15  1  0
 14 16  1  0
 14 17  1  0
 17 18  1  0
 17 19  1  0
 17 20  1  0
 20 21  2  0
 21 22  1  0
 22 23  1  0
 23 24  2  0
 23 25  1  0
 25 26  1  0
 26 27  2  0
 26 28  1  0
 25 29  2  0
 29 30  1  0
 29 31  1  0
 31 32  1  0
 31 33  2  0
 33 34  1  0
 10  2  1  0
 34 20  1  0
 33 22  1  0
M  CHG  3   9  -1  28  -1  31   1
M  END
>  <UniqueID>  (85) 
76

>  <SMILES>  (85) 
Cc1c/c(=N\C(=O)CCc2nn3c(=O)c(C(=O)[O-])c[nH+]c3s2)[n-]o1

>  <Energy>  (85) 
103.18991541416872

>  <Genealogy>  (85) 
Cc1cc(=NC(=O)CCc2nn3c(=O)c(C(=O)[O-])c[nH+]c3s2)[n-]o1 (protonated)
Cc1c/c(=N\C(=O)CCc2nn3c(=O)c(C(=O)[O-])c[nH+]c3s2)[n-]o1 (cis-trans isomerization)
Cc1c/c(=N\C(=O)CCc2nn3c(=O)c(C(=O)[O-])c[nH+]c3s2)[n-]o1 (3D coordinates assigned)
Cc1c/c(=N\C(=O)CCc2nn3c(=O)c(C(=O)[O-])c[nH+]c3s2)[n-]o1 (optimized conformer: 103.18991541416872 kcal/mol)

>  <smiles>  (85) 
Cc1cc(=NC(=O)CCc2nn3c(=O)c(C(=O)O)cnc3s2)[nH]o1

>  <score_type>  (85) 
oracle

>  <origin>  (85) 
adg

>  <m_score__min__energy>  (85) 
-9.9600000000000009

>  <m_primary>  (85) 
energy

$$$$
85:0
     RDKit          3D

 37 39  0  0  0  0  0  0  0  0999 V2000
   54.0400   26.3180   46.3700 H   0  0  0  0  0  0  0  0  0  0  0  0
   54.9770   26.3850   45.9910 O   0  0  0  0  0  0  0  0  0  0  0  0
   55.9780   25.5190   46.4190 C   0  0  0  0  0  0  0  0  0  0  0  0
   55.7510   24.2680   46.8550 N   0  0  0  0  0  0  0  0  0  0  0  0
   56.9930   23.8270   47.1420 C   0  0  0  0  0  0  0  0  0  0  0  0
   57.2150   22.6710   47.5870 O   0  0  0  0  0  0  0  0  0  0  0  0
   57.9790   24.7200   46.9110 N   0  0  0  0  0  0  0  0  0  0  0  0
   57.3230   25.8030   46.4570 C   0  0  0  0  0  0  0  0  0  0  0  0
   57.9430   27.0700   46.0070 C   0  0  0  0  0  0  0  0  0  0  0  0
   57.8358   27.3321   44.9441 H   0  0  0  0  0  0  0  0  0  0  0  0
   58.6290   27.9320   46.7890 C   0  0  0  0  0  0  0  0  0  0  0  0
   59.2860   27.6410   47.9780 C   0  0  0  0  0  0  0  0  0  0  0  0
   59.3564   26.6568   48.4641 H   0  0  0  0  0  0  0  0  0  0  0  0
   59.8330   28.8230   48.4320 C   0  0  0  0  0  0  0  0  0  0  0  0
   60.5760   28.9640   49.7260 C   0  0  0  0  0  0  0  0  0  0  0  0
   59.8781   28.8316   50.5659 H   0  0  0  0  0  0  0  0  0  0  0  0
   61.3651   28.1996   49.7809 H   0  0  0  0  0  0  0  0  0  0  0  0
   61.0302   29.9644   49.7809 H   0  0  0  0  0  0  0  0  0  0  0  0
   59.5390   29.8410   47.5890 N   0  0  0  0  0  0  0  0  0  0  0  0
   59.9910   31.2350   47.7480 C   0  0  0  0  0  0  0  0  0  0  0  0
   60.6621   31.2959   48.6174 H   0  0  0  0  0  0  0  0  0  0  0  0
   60.5132   31.5350   46.8275 H   0  0  0  0  0  0  0  0  0  0  0  0
   58.8090   32.1900   47.9630 C   0  0  0  0  0  0  0  0  0  0  0  0
   57.8888   31.5965   48.0675 H   0  0  0  0  0  0  0  0  0  0  0  0
   59.0115   32.7785   48.8700 H   0  0  0  0  0  0  0  0  0  0  0  0
   58.6390   33.1460   46.8240 C   0  0  0  0  0  0  0  0  0  0  0  0
   59.8140   34.2070   46.2600 S   0  0  0  0  0  0  0  0  0  0  0  0
   58.9020   34.8310   44.9920 C   0  0  0  0  0  0  0  0  0  0  0  0
   59.2309   35.6033   44.2812 H   0  0  0  0  0  0  0  0  0  0  0  0
   57.6620   34.2040   44.9960 C   0  0  0  0  0  0  0  0  0  0  0  0
   56.8722   34.4283   44.2640 H   0  0  0  0  0  0  0  0  0  0  0  0
   57.5120   33.2600   46.0190 C   0  0  0  0  0  0  0  0  0  0  0  0
   56.5964   32.6694   46.1700 H   0  0  0  0  0  0  0  0  0  0  0  0
   58.8010   29.3080   46.5790 C   0  0  0  0  0  0  0  0  0  0  0  0
   58.3150   30.0130   45.5420 C   0  0  0  0  0  0  0  0  0  0  0  0
   58.5090   31.0935   45.4724 H   0  0  0  0  0  0  0  0  0  0  0  0
   57.7235   29.5091   44.7634 H   0  0  0  0  0  0  0  0  0  0  0  0
  1  2  1  0
  2  3  1  0
  3  4  1  0
  4  5  1  0
  5  6  2  0
  5  7  1  0
  7  8  1  0
  8  9  1  0
  9 10  1  0
  9 11  2  0
 11 12  1  0
 12 13  1  0
 12 14  2  0
 14 15  1  0
 15 16  1  0
 15 17  1  0
 15 18  1  0
 14 19  1  0
 19 20  1  0
 20 21  1  0
 20 22  1  0
 20 23  1  0
 23 24  1  0
 23 25  1  0
 23 26  1  0
 26 27  1  0
 27 28  1  0
 28 29  1  0
 28 30  2  0
 30 31  1  0
 30 32  1  0
 32 33  1  0
 19 34  1  0
 34 35  2  0
 35 36  1  0
 35 37  1  0
  8  3  2  0
 34 11  1  0
 32 26  2  0
M  CHG  2   4  -1   7  -1
M  END
>  <UniqueID>  (86) 
77

>  <SMILES>  (86) 
C=c1/c(=C/c2[n-]c(=O)[n-]c2O)cc(C)n1CCc1cccs1

>  <Energy>  (86) 
121.6265098245384

>  <Genealogy>  (86) 
C=c1c(=Cc2[n-]c(=O)[n-]c2O)cc(C)n1CCc1cccs1 (protonated)
C=c1/c(=C/c2[n-]c(=O)[n-]c2O)cc(C)n1CCc1cccs1 (cis-trans isomerization)
C=c1/c(=C/c2[n-]c(=O)[n-]c2O)cc(C)n1CCc1cccs1 (3D coordinates assigned)
C=c1/c(=C/c2[n-]c(=O)[n-]c2O)cc(C)n1CCc1cccs1 (optimized conformer: 121.6265098245384 kcal/mol)

>  <smiles>  (86) 
C=c1c(=Cc2[nH]c(=O)[nH]c2O)cc(C)n1CCc1cccs1

>  <score_type>  (86) 
oracle

>  <origin>  (86) 
adg

>  <m_score__min__energy>  (86) 
-12.49

>  <m_primary>  (86) 
energy

$$$$
86:0
     RDKit          3D

 31 33  0  0  0  0  0  0  0  0999 V2000
   63.7230   33.0680   47.1210 C   0  0  0  0  0  0  0  0  0  0  0  0
   62.3120   33.4960   46.7220 C   0  0  0  0  0  0  0  0  0  0  0  0
   61.2380   32.9260   47.6580 C   0  0  0  0  0  0  0  0  0  0  0  0
   59.9410   32.8270   46.9810 N   0  0  0  0  0  0  0  0  0  0  0  0
   59.0360   33.8320   46.9130 C   0  0  0  0  0  0  0  0  0  0  0  0
   57.9350   33.4480   46.1660 C   0  0  0  0  0  0  0  0  0  0  0  0
   58.1950   32.1540   45.7660 C   0  0  0  0  0  0  0  0  0  0  0  0
   59.4190   31.7990   46.2700 C   0  0  0  0  0  0  0  0  0  0  0  0
   59.9940   30.4640   45.9960 C   0  0  0  0  0  0  0  0  0  0  0  0
   61.1170   30.1270   46.4550 O   0  0  0  0  0  0  0  0  0  0  0  0
   59.2040   29.5180   45.1570 C   0  0  0  0  0  0  0  0  0  0  0  0
   59.6990   28.2390   44.8620 C   0  0  0  0  0  0  0  0  0  0  0  0
   58.9420   27.3690   44.0750 C   0  0  0  0  0  0  0  0  0  0  0  0
   57.7310   27.7560   43.5930 N   0  0  0  0  0  0  0  0  0  0  0  0
   57.2190   28.9880   43.8570 C   0  0  0  0  0  0  0  0  0  0  0  0
   57.9370   29.9020   44.6440 C   0  0  0  0  0  0  0  0  0  0  0  0
   57.3900   31.2520   44.9390 C   0  0  0  0  0  0  0  0  0  0  0  0
   56.2690   31.6200   44.4960 O   0  0  0  0  0  0  0  0  0  0  0  0
   63.8025   33.0439   48.2179 H   0  0  0  0  0  0  0  0  0  0  0  0
   63.9306   32.0665   46.7162 H   0  0  0  0  0  0  0  0  0  0  0  0
   64.4520   33.7854   46.7162 H   0  0  0  0  0  0  0  0  0  0  0  0
   62.2559   34.5943   46.7482 H   0  0  0  0  0  0  0  0  0  0  0  0
   62.1171   33.1049   45.7125 H   0  0  0  0  0  0  0  0  0  0  0  0
   61.5468   31.9237   47.9897 H   0  0  0  0  0  0  0  0  0  0  0  0
   61.1307   33.6038   48.5177 H   0  0  0  0  0  0  0  0  0  0  0  0
   59.1585   34.8176   47.3859 H   0  0  0  0  0  0  0  0  0  0  0  0
   57.0416   34.0484   45.9395 H   0  0  0  0  0  0  0  0  0  0  0  0
   60.6790   27.9230   45.2489 H   0  0  0  0  0  0  0  0  0  0  0  0
   59.3274   26.3650   43.8437 H   0  0  0  0  0  0  0  0  0  0  0  0
   57.1810   27.0900   43.0050 H   0  0  0  0  0  0  0  0  0  0  0  0
   56.2362   29.2699   43.4513 H   0  0  0  0  0  0  0  0  0  0  0  0
  1  2  1  0
  2  3  1  0
  3  4  1  0
  4  5  1  0
  5  6  2  0
  6  7  1  0
  7  8  2  0
  8  9  1  0
  9 10  2  0
  9 11  1  0
 11 12  2  0
 12 13  1  0
 13 14  2  0
 14 15  1  0
 15 16  2  0
 16 17  1  0
 17 18  2  0
  8  4  1  0
 16 11  1  0
 17  7  1  0
  1 19  1  0
  1 20  1  0
  1 21  1  0
  2 22  1  0
  2 23  1  0
  3 24  1  0
  3 25  1  0
  5 26  1  0
  6 27  1  0
 12 28  1  0
 13 29  1  0
 14 30  1  0
 15 31  1  0
M  CHG  1  14   1
M  END
>  <UniqueID>  (87) 
78

>  <SMILES>  (87) 
CCCn1ccc2c1C(=O)c1cc[nH+]cc1C2=O

>  <Energy>  (87) 
61.56472171397625

>  <Genealogy>  (87) 
CCCn1ccc2c1C(=O)c1cc[nH+]cc1C2=O (protonated)
CCCn1ccc2c1C(=O)c1cc[nH+]cc1C2=O (3D coordinates assigned)
CCCn1ccc2c1C(=O)c1cc[nH+]cc1C2=O (nonaromatic ring conformer: 61.56472171397625 kcal/mol)

>  <smiles>  (87) 
CCCn1ccc2c1C(=O)c1ccncc1C2=O

>  <score_type>  (87) 
oracle

>  <origin>  (87) 
adg

>  <m_score__min__energy>  (87) 
-5.46

>  <m_primary>  (87) 
energy

$$$$
87:0
     RDKit          3D

 22 23  0  0  1  0  0  0  0  0999 V2000
   59.3300   29.7220   45.5990 C   0  0  0  0  0  0  0  0  0  0  0  0
   58.8010   30.9100   45.6370 C   0  0  0  0  0  0  0  0  0  0  0  0
   59.3610   31.9050   46.3930 N   0  0  0  0  0  0  0  0  0  0  0  0
   58.6000   33.0060   46.3340 C   0  0  0  0  0  0  0  0  0  0  0  0
   58.9040   34.4350   47.0990 S   0  0  0  0  0  0  0  0  0  0  0  0
   57.5250   32.7310   45.5250 N   0  0  0  0  0  0  0  0  0  0  0  0
   57.6600   31.4430   45.1010 C   0  0  0  0  0  0  0  0  0  0  0  0
   56.9320   30.9480   44.1420 C   0  0  0  0  0  0  0  0  0  0  0  0
   57.0720   31.1460   42.7870 C   0  0  0  0  0  0  0  0  0  0  0  0
   57.7290   32.0710   42.1160 C   0  0  0  0  0  0  0  0  0  0  0  0
   56.2740   30.2520   42.1260 N   0  0  0  0  0  0  0  0  0  0  0  0
   55.6650   29.5340   43.0300 N   0  0  0  0  0  0  0  0  0  0  0  0
   56.0370   29.9230   44.2940 C   0  0  0  0  0  0  0  0  0  0  0  0
   55.5290   29.3100   45.2440 O   0  0  0  0  0  0  0  0  0  0  0  0
   58.8680   28.9335   44.9867 H   0  0  0  0  0  0  0  0  0  0  0  0
   60.2393   29.5060   46.1791 H   0  0  0  0  0  0  0  0  0  0  0  0
   60.2430   31.8860   46.9550 H   0  0  0  0  0  0  0  0  0  0  0  0
   56.8480   33.4640   45.3470 H   0  0  0  0  0  0  0  0  0  0  0  0
   57.7219   32.0619   41.0161 H   0  0  0  0  0  0  0  0  0  0  0  0
   58.2843   32.8520   42.6560 H   0  0  0  0  0  0  0  0  0  0  0  0
   56.1480   30.1330   41.0980 H   0  0  0  0  0  0  0  0  0  0  0  0
   54.9830   28.7660   42.7810 H   0  0  0  0  0  0  0  0  0  0  0  0
  1  2  2  0
  2  3  1  0
  3  4  1  0
  4  5  2  0
  4  6  1  0
  6  7  1  0
  7  8  2  0
  8  9  1  0
  9 10  2  0
  9 11  1  0
 11 12  1  0
 12 13  1  0
 13 14  2  0
  7  2  1  0
 13  8  1  0
  1 15  1  0
  1 16  1  0
  3 17  1  0
  6 18  1  0
 10 19  1  0
 10 20  1  0
 11 21  1  0
 12 22  1  0
M  END
>  <smiles>  (88) 
C=c1[nH]c(=S)[nH]c1=c1c(=C)[nH][nH]c1=O

>  <score_type>  (88) 
oracle

>  <origin>  (88) 
adg

>  <m_score__min__energy>  (88) 
-6.0099999999999998

>  <m_primary>  (88) 
energy

$$$$
88:0
     RDKit          3D

 54 57  0  0  0  0  0  0  0  0999 V2000
   58.0310   25.3410   47.3160 C   0  0  0  0  0  0  0  0  0  0  0  0
   58.1320   26.1440   46.2460 C   0  0  0  0  0  0  0  0  0  0  0  0
   57.7280   25.8560   44.9320 C   0  0  0  0  0  0  0  0  0  0  0  0
   56.9360   24.8850   44.4330 C   0  0  0  0  0  0  0  0  0  0  0  0
   55.5590   24.5790   44.8680 C   0  0  0  0  0  0  0  0  0  0  0  0
   54.9680   23.3740   44.7680 N   0  0  0  0  0  0  0  0  0  0  0  0
   53.7980   23.5420   45.4230 C   0  0  0  0  0  0  0  0  0  0  0  0
   52.9420   22.6250   45.5310 O   0  0  0  0  0  0  0  0  0  0  0  0
   53.6260   24.7630   45.9710 N   0  0  0  0  0  0  0  0  0  0  0  0
   54.7560   25.4010   45.6210 C   0  0  0  0  0  0  0  0  0  0  0  0
   55.0470   26.7130   45.9790 O   0  0  0  0  0  0  0  0  0  0  0  0
   58.2950   26.8370   44.1320 C   0  0  0  0  0  0  0  0  0  0  0  0
   58.9360   27.7200   44.9740 C   0  0  0  0  0  0  0  0  0  0  0  0
   59.6650   28.9510   44.5220 C   0  0  0  0  0  0  0  0  0  0  0  0
   58.8360   27.3060   46.2570 N   0  0  0  0  0  0  0  0  0  0  0  0
   59.3550   27.9960   47.4080 C   0  0  0  0  0  0  0  0  0  0  0  0
   60.1690   27.3130   48.3180 C   0  0  0  0  0  0  0  0  0  0  0  0
   60.6710   27.9710   49.4380 C   0  0  0  0  0  0  0  0  0  0  0  0
   60.3650   29.3150   49.6600 C   0  0  0  0  0  0  0  0  0  0  0  0
   59.5370   30.0300   48.7670 C   0  0  0  0  0  0  0  0  0  0  0  0
   59.1630   31.4720   48.9670 C   0  0  0  0  0  0  0  0  0  0  0  0
   58.7720   31.8220   50.1180 O   0  0  0  0  0  0  0  0  0  0  0  0
   59.2480   32.4980   47.9370 N   0  0  1  0  0  0  0  0  0  0  0  0
   59.2860   33.8490   48.5410 C   0  0  0  0  0  0  0  0  0  0  0  0
   59.2660   34.9750   47.4790 C   0  0  0  0  0  0  0  0  0  0  0  0
   60.0380   34.6280   46.1820 C   0  0  2  0  0  0  0  0  0  0  0  0
   59.0830   34.3200   45.0180 C   0  0  0  0  0  0  0  0  0  0  0  0
   61.0260   33.4770   46.4200 C   0  0  0  0  0  0  0  0  0  0  0  0
   60.3070   32.2120   46.9280 C   0  0  0  0  0  0  0  0  0  0  0  0
   59.0390   29.3460   47.6350 C   0  0  0  0  0  0  0  0  0  0  0  0
   58.3867   25.6860   48.2981 H   0  0  0  0  0  0  0  0  0  0  0  0
   57.5925   24.3376   47.2112 H   0  0  0  0  0  0  0  0  0  0  0  0
   57.3548   24.2638   43.6276 H   0  0  0  0  0  0  0  0  0  0  0  0
   58.2430   26.8985   43.0350 H   0  0  0  0  0  0  0  0  0  0  0  0
   60.0024   29.5207   45.4004 H   0  0  0  0  0  0  0  0  0  0  0  0
   60.5364   28.6598   43.9171 H   0  0  0  0  0  0  0  0  0  0  0  0
   58.9908   29.5751   43.9171 H   0  0  0  0  0  0  0  0  0  0  0  0
   60.4130   26.2539   48.1485 H   0  0  0  0  0  0  0  0  0  0  0  0
   61.3110   27.4298   50.1504 H   0  0  0  0  0  0  0  0  0  0  0  0
   60.7752   29.8249   50.5442 H   0  0  0  0  0  0  0  0  0  0  0  0
   58.3400   32.4670   47.4130 H   0  0  0  0  0  0  0  0  0  0  0  0
   60.2056   33.9429   49.1372 H   0  0  0  0  0  0  0  0  0  0  0  0
   58.3864   33.9616   49.1639 H   0  0  0  0  0  0  0  0  0  0  0  0
   59.7177   35.8756   47.9205 H   0  0  0  0  0  0  0  0  0  0  0  0
   58.2144   35.1264   47.1939 H   0  0  0  0  0  0  0  0  0  0  0  0
   60.6206   35.5157   45.8946 H   0  0  0  0  0  0  0  0  0  0  0  0
   58.1076   34.0054   45.4174 H   0  0  0  0  0  0  0  0  0  0  0  0
   58.9533   35.2219   44.4017 H   0  0  0  0  0  0  0  0  0  0  0  0
   59.5046   33.5123   44.4017 H   0  0  0  0  0  0  0  0  0  0  0  0
   61.7678   33.7917   47.1688 H   0  0  0  0  0  0  0  0  0  0  0  0
   61.5131   33.2367   45.4635 H   0  0  0  0  0  0  0  0  0  0  0  0
   61.0538   31.5464   47.3854 H   0  0  0  0  0  0  0  0  0  0  0  0
   59.8130   31.7490   46.0611 H   0  0  0  0  0  0  0  0  0  0  0  0
   58.3941   29.8788   46.9207 H   0  0  0  0  0  0  0  0  0  0  0  0
  1  2  2  0
  2  3  1  0
  3  4  2  3
  4  5  1  0
  5  6  1  0
  6  7  1  0
  7  8  2  0
  7  9  1  0
  9 10  1  0
 10 11  1  0
  3 12  1  0
 12 13  2  0
 13 14  1  0
 13 15  1  0
 15 16  1  0
 16 17  2  0
 17 18  1  0
 18 19  2  0
 19 20  1  0
 20 21  1  0
 21 22  2  0
 21 23  1  0
 23 24  1  0
 24 25  1  0
 25 26  1  0
 26 27  1  0
 26 28  1  0
 28 29  1  0
 20 30  2  0
 15  2  1  0
 30 16  1  0
 10  5  2  0
 29 23  1  0
  1 31  1  0
  1 32  1  0
  4 33  1  0
 12 34  1  0
 14 35  1  0
 14 36  1  0
 14 37  1  0
 17 38  1  0
 18 39  1  0
 19 40  1  0
 23 41  1  6
 24 42  1  0
 24 43  1  0
 25 44  1  0
 25 45  1  0
 26 46  1  6
 27 47  1  0
 27 48  1  0
 27 49  1  0
 28 50  1  0
 28 51  1  0
 29 52  1  0
 29 53  1  0
 30 54  1  0
M  CHG  4   6  -1   9  -1  11  -1  23   1
M  END
>  <UniqueID>  (89) 
79

>  <SMILES>  (89) 
C=c1c(=Cc2[n-]c(=O)[n-]c2[O-])cc(C)n1-c1cccc(C(=O)[NH+]2CCC(C)CC2)c1

>  <Energy>  (89) 
147.32004262554386

>  <Genealogy>  (89) 
C=c1c(=Cc2[n-]c(=O)[n-]c2[O-])cc(C)n1-c1cccc(C(=O)[NH+]2CCC(C)CC2)c1 (protonated)
C=c1c(=Cc2[n-]c(=O)[n-]c2[O-])cc(C)n1-c1cccc(C(=O)[NH+]2CCC(C)CC2)c1 (3D coordinates assigned)
C=c1c(=Cc2[n-]c(=O)[n-]c2[O-])cc(C)n1-c1cccc(C(=O)[NH+]2CCC(C)CC2)c1 (nonaromatic ring conformer: 147.32004262554386 kcal/mol)

>  <smiles>  (89) 
C=c1c(=Cc2[nH]c(=O)[nH]c2O)cc(C)n1-c1cccc(C(=O)N2CCC(C)CC2)c1

>  <score_type>  (89) 
oracle

>  <origin>  (89) 
adg

>  <m_score__min__energy>  (89) 
-16.199999999999999

>  <m_primary>  (89) 
energy

$$$$
89:0
     RDKit          3D

 35 36  0  0  0  0  0  0  0  0999 V2000
   56.3150   19.4340   43.2820 H   0  0  0  0  0  0  0  0  0  0  0  0
   55.9860   20.3890   43.3660 O   0  0  0  0  0  0  0  0  0  0  0  0
   56.7850   21.3870   43.9200 C   0  0  0  0  0  0  0  0  0  0  0  0
   56.6800   22.7130   43.4790 C   0  0  0  0  0  0  0  0  0  0  0  0
   55.9610   22.9731   42.6881 H   0  0  0  0  0  0  0  0  0  0  0  0
   57.4870   23.7060   44.0420 C   0  0  0  0  0  0  0  0  0  0  0  0
   57.4041   24.7447   43.6895 H   0  0  0  0  0  0  0  0  0  0  0  0
   58.4040   23.3820   45.0570 C   0  0  0  0  0  0  0  0  0  0  0  0
   59.3100   24.4400   45.6310 C   0  0  0  0  0  0  0  0  0  0  0  0
   59.6019   25.1328   44.8280 H   0  0  0  0  0  0  0  0  0  0  0  0
   60.1905   23.9400   46.0609 H   0  0  0  0  0  0  0  0  0  0  0  0
   58.6200   25.2360   46.7480 C   0  0  0  0  0  0  0  0  0  0  0  0
   59.3879   25.7210   47.3686 H   0  0  0  0  0  0  0  0  0  0  0  0
   58.0163   24.5387   47.3475 H   0  0  0  0  0  0  0  0  0  0  0  0
   57.7210   26.2740   46.1960 N   0  0  0  0  0  0  0  0  0  0  0  0
   56.3630   26.0720   46.1590 C   0  0  0  0  0  0  0  0  0  0  0  0
   55.8580   24.9890   46.5620 O   0  0  0  0  0  0  0  0  0  0  0  0
   55.5380   27.0430   45.6930 N   0  0  0  0  0  0  0  0  0  0  0  0
   56.0180   28.2270   45.2470 C   0  0  0  0  0  0  0  0  0  0  0  0
   55.1310   29.1920   44.7820 O   0  0  0  0  0  0  0  0  0  0  0  0
   57.3930   28.4670   45.2510 C   0  0  0  0  0  0  0  0  0  0  0  0
   57.9170   29.7670   44.7800 C   0  0  0  0  0  0  0  0  0  0  0  0
   58.6532   30.2902   45.4079 H   0  0  0  0  0  0  0  0  0  0  0  0
   57.5430   30.3410   43.6300 C   0  0  0  0  0  0  0  0  0  0  0  0
   57.2525   29.6891   42.7930 H   0  0  0  0  0  0  0  0  0  0  0  0
   57.4990   31.8250   43.4220 C   0  0  0  0  0  0  0  0  0  0  0  0
   57.4840   32.3318   44.3982 H   0  0  0  0  0  0  0  0  0  0  0  0
   58.3881   32.1427   42.8576 H   0  0  0  0  0  0  0  0  0  0  0  0
   56.5926   32.0894   42.8576 H   0  0  0  0  0  0  0  0  0  0  0  0
   58.2400   27.4690   45.7610 C   0  0  0  0  0  0  0  0  0  0  0  0
   59.4830   27.6870   45.8310 O   0  0  0  0  0  0  0  0  0  0  0  0
   58.5100   22.0500   45.4900 C   0  0  0  0  0  0  0  0  0  0  0  0
   59.2329   21.7849   46.2756 H   0  0  0  0  0  0  0  0  0  0  0  0
   57.7000   21.0600   44.9260 C   0  0  0  0  0  0  0  0  0  0  0  0
   57.7826   20.0200   45.2747 H   0  0  0  0  0  0  0  0  0  0  0  0
  1  2  1  0
  2  3  1  0
  3  4  2  0
  4  5  1  0
  4  6  1  0
  6  7  1  0
  6  8  2  0
  8  9  1  0
  9 10  1  0
  9 11  1  0
  9 12  1  0
 12 13  1  0
 12 14  1  0
 12 15  1  0
 15 16  1  0
 16 17  2  0
 16 18  1  0
 18 19  1  0
 19 20  1  0
 19 21  2  0
 21 22  1  0
 22 23  1  0
 22 24  2  0
 24 25  1  0
 24 26  1  0
 26 27  1  0
 26 28  1  0
 26 29  1  0
 21 30  1  0
 30 31  2  0
  8 32  1  0
 32 33  1  0
 32 34  2  0
 34 35  1  0
 34  3  1  0
 30 15  1  0
M  CHG  2  18  -1  20  -1
M  END
>  <UniqueID>  (90) 
80

>  <SMILES>  (90) 
C/C=C\c1c([O-])[n-]c(=O)n(CCc2ccc(O)cc2)c1=O

>  <Energy>  (90) 
41.69926180742354

>  <Genealogy>  (90) 
CC=Cc1c([O-])[n-]c(=O)n(CCc2ccc(O)cc2)c1=O (protonated)
C/C=C\c1c([O-])[n-]c(=O)n(CCc2ccc(O)cc2)c1=O (cis-trans isomerization)
C/C=C\c1c([O-])[n-]c(=O)n(CCc2ccc(O)cc2)c1=O (3D coordinates assigned)
C/C=C\c1c([O-])[n-]c(=O)n(CCc2ccc(O)cc2)c1=O (optimized conformer: 41.69926180742354 kcal/mol)

>  <smiles>  (90) 
CC=Cc1c(O)[nH]c(=O)n(CCc2ccc(O)cc2)c1=O

>  <score_type>  (90) 
oracle

>  <origin>  (90) 
adg

>  <m_score__min__energy>  (90) 
-11.67

>  <m_primary>  (90) 
energy

$$$$
90:0
     RDKit          3D

 51 54  0  0  0  0  0  0  0  0999 V2000
   61.9590   29.2560   52.4800 O   0  0  0  0  0  0  0  0  0  0  0  0
   61.9300   29.9210   51.4100 C   0  0  0  0  0  0  0  0  0  0  0  0
   60.7450   29.8600   50.6020 N   0  0  0  0  0  0  0  0  0  0  0  0
   60.6620   29.4000   49.3890 C   0  0  0  0  0  0  0  0  0  0  0  0
   60.7460   30.1650   48.2770 N   0  0  0  0  0  0  0  0  0  0  0  0
   60.5690   29.4290   47.1490 C   0  0  0  0  0  0  0  0  0  0  0  0
   60.3430   28.0740   47.3700 C   0  0  0  0  0  0  0  0  0  0  0  0
   60.0000   27.0650   46.3210 C   0  0  0  0  0  0  0  0  0  0  0  0
   58.5080   26.8890   46.2500 C   0  0  0  0  0  0  0  0  0  0  0  0
   57.9200   25.6700   46.6250 C   0  0  0  0  0  0  0  0  0  0  0  0
   56.5390   25.4890   46.5100 C   0  0  0  0  0  0  0  0  0  0  0  0
   55.7350   26.5190   46.0110 C   0  0  0  0  0  0  0  0  0  0  0  0
   54.3630   26.3320   45.8970 O   0  0  0  0  0  0  0  0  0  0  0  0
   56.3150   27.7340   45.6240 C   0  0  0  0  0  0  0  0  0  0  0  0
   55.5220   28.7580   45.1200 O   0  0  0  0  0  0  0  0  0  0  0  0
   57.6980   27.9170   45.7390 C   0  0  0  0  0  0  0  0  0  0  0  0
   60.3430   27.7910   49.0300 S   0  0  0  0  0  0  0  0  0  0  0  0
   63.1270   30.7020   51.0200 C   0  0  0  0  0  0  0  0  0  0  0  0
   64.3300   30.5790   51.7320 C   0  0  0  0  0  0  0  0  0  0  0  0
   65.4500   31.3230   51.3560 C   0  0  0  0  0  0  0  0  0  0  0  0
   65.3750   32.2040   50.2760 C   0  0  0  0  0  0  0  0  0  0  0  0
   64.1790   32.3600   49.5660 C   0  0  0  0  0  0  0  0  0  0  0  0
   64.1570   33.2780   48.4630 N   0  0  0  0  0  0  0  0  0  0  0  0
   62.8840   33.5010   47.3030 S   0  0  0  0  0  0  0  0  0  0  0  0
   63.3520   34.3540   46.1570 O   0  0  0  0  0  0  0  0  0  0  0  0
   62.5070   32.1530   46.7570 O   0  0  0  0  0  0  0  0  0  0  0  0
   61.4360   34.2140   48.0700 C   0  0  0  0  0  0  0  0  0  0  0  0
   60.2060   33.9970   47.2330 C   0  0  0  0  0  0  0  0  0  0  0  0
   59.2880   32.9890   47.5710 C   0  0  0  0  0  0  0  0  0  0  0  0
   58.1580   32.7700   46.7760 C   0  0  0  0  0  0  0  0  0  0  0  0
   57.9360   33.5590   45.6440 C   0  0  0  0  0  0  0  0  0  0  0  0
   58.8460   34.5610   45.3010 C   0  0  0  0  0  0  0  0  0  0  0  0
   59.9810   34.7780   46.0880 C   0  0  0  0  0  0  0  0  0  0  0  0
   63.0520   31.6120   49.9520 C   0  0  0  0  0  0  0  0  0  0  0  0
   60.6017   29.8691   46.1414 H   0  0  0  0  0  0  0  0  0  0  0  0
   60.3735   27.4110   45.3459 H   0  0  0  0  0  0  0  0  0  0  0  0
   60.4669   26.1025   46.5772 H   0  0  0  0  0  0  0  0  0  0  0  0
   58.5490   24.8543   47.0108 H   0  0  0  0  0  0  0  0  0  0  0  0
   56.0834   24.5346   46.8125 H   0  0  0  0  0  0  0  0  0  0  0  0
   58.1524   28.8693   45.4281 H   0  0  0  0  0  0  0  0  0  0  0  0
   64.3908   29.8934   52.5901 H   0  0  0  0  0  0  0  0  0  0  0  0
   66.3930   31.2147   51.9118 H   0  0  0  0  0  0  0  0  0  0  0  0
   66.2637   32.7808   49.9803 H   0  0  0  0  0  0  0  0  0  0  0  0
   61.2858   33.7462   49.0542 H   0  0  0  0  0  0  0  0  0  0  0  0
   61.5974   35.2973   48.1720 H   0  0  0  0  0  0  0  0  0  0  0  0
   59.4583   32.3696   48.4640 H   0  0  0  0  0  0  0  0  0  0  0  0
   57.4440   31.9766   47.0419 H   0  0  0  0  0  0  0  0  0  0  0  0
   57.0439   33.3906   45.0229 H   0  0  0  0  0  0  0  0  0  0  0  0
   58.6695   35.1810   44.4097 H   0  0  0  0  0  0  0  0  0  0  0  0
   60.6997   35.5627   45.8094 H   0  0  0  0  0  0  0  0  0  0  0  0
   62.1022   31.7408   49.4122 H   0  0  0  0  0  0  0  0  0  0  0  0
  1  2  2  0
  2  3  1  0
  3  4  2  3
  4  5  1  0
  5  6  1  0
  6  7  2  0
  7  8  1  0
  8  9  1  0
  9 10  2  0
 10 11  1  0
 11 12  2  0
 12 13  1  0
 12 14  1  0
 14 15  1  0
 14 16  2  0
  7 17  1  0
  2 18  1  0
 18 19  2  0
 19 20  1  0
 20 21  2  0
 21 22  1  0
 22 23  1  0
 23 24  1  0
 24 25  2  0
 24 26  2  0
 24 27  1  0
 27 28  1  0
 28 29  2  0
 29 30  1  0
 30 31  2  0
 31 32  1  0
 32 33  2  0
 22 34  2  0
 17  4  1  0
 34 18  1  0
 16  9  1  0
 33 28  1  0
  6 35  1  0
  8 36  1  0
  8 37  1  0
 10 38  1  0
 11 39  1  0
 16 40  1  0
 19 41  1  0
 20 42  1  0
 21 43  1  0
 27 44  1  0
 27 45  1  0
 29 46  1  0
 30 47  1  0
 31 48  1  0
 32 49  1  0
 33 50  1  0
 34 51  1  0
M  CHG  4   5  -1  13  -1  15  -1  23  -1
M  END
>  <UniqueID>  (91) 
81

>  <SMILES>  (91) 
O=C(N=c1[n-]cc(Cc2ccc([O-])c([O-])c2)s1)c1cccc([N-]S(=O)(=O)Cc2ccccc2)c1

>  <Energy>  (91) 
86.10288283944185

>  <Genealogy>  (91) 
O=C(N=c1[n-]cc(Cc2ccc([O-])c([O-])c2)s1)c1cccc([N-]S(=O)(=O)Cc2ccccc2)c1 (protonated)
O=C(N=c1[n-]cc(Cc2ccc([O-])c([O-])c2)s1)c1cccc([N-]S(=O)(=O)Cc2ccccc2)c1 (3D coordinates assigned)
O=C(N=c1[n-]cc(Cc2ccc([O-])c([O-])c2)s1)c1cccc([N-]S(=O)(=O)Cc2ccccc2)c1 (optimized conformer: 86.10288283944185 kcal/mol)

>  <smiles>  (91) 
O=C(N=c1[nH]cc(Cc2ccc(O)c(O)c2)s1)c1cccc(NS(=O)(=O)Cc2ccccc2)c1

>  <score_type>  (91) 
oracle

>  <origin>  (91) 
adg

>  <m_score__min__energy>  (91) 
-21.73

>  <m_primary>  (91) 
energy

$$$$
