0:0
     RDKit          3D

 50 54  0  0  0  0  0  0  0  0999 V2000
   52.3560   24.9480   44.2680 H   0  0  0  0  0  0  0  0  0  0  0  0
   52.2480   23.9820   44.5520 O   0  0  0  0  0  0  0  0  0  0  0  0
   52.9600   23.4780   45.6340 C   0  0  0  0  0  0  0  0  0  0  0  0
   52.3650   22.9500   46.7310 N   0  0  0  0  0  0  0  0  0  0  0  0
   53.3970   22.5780   47.5140 C   0  0  0  0  0  0  0  0  0  0  0  0
   53.3090   21.9520   48.7540 C   0  0  0  0  0  0  0  0  0  0  0  0
   52.3315   21.7347   49.2092 H   0  0  0  0  0  0  0  0  0  0  0  0
   54.5040   21.6050   49.4090 C   0  0  0  0  0  0  0  0  0  0  0  0
   54.4611   21.1080   50.3894 H   0  0  0  0  0  0  0  0  0  0  0  0
   55.7660   21.8880   48.8210 C   0  0  0  0  0  0  0  0  0  0  0  0
   57.0240   21.4930   49.5020 C   0  0  0  0  0  0  0  0  0  0  0  0
   57.7610   20.3400   49.3150 C   0  0  0  0  0  0  0  0  0  0  0  0
   57.5078   19.5274   48.6181 H   0  0  0  0  0  0  0  0  0  0  0  0
   58.8380   20.3690   50.1210 N   0  0  0  0  0  0  0  0  0  0  0  0
   58.8190   21.5000   50.8110 N   0  0  0  0  0  0  0  0  0  0  0  0
   57.7280   22.2030   50.4560 C   0  0  0  0  0  0  0  0  0  0  0  0
   57.4423   23.1853   50.8603 H   0  0  0  0  0  0  0  0  0  0  0  0
   55.8130   22.5420   47.5680 C   0  0  0  0  0  0  0  0  0  0  0  0
   56.7761   22.7917   47.0988 H   0  0  0  0  0  0  0  0  0  0  0  0
   54.6080   22.8630   46.9410 C   0  0  0  0  0  0  0  0  0  0  0  0
   54.3460   23.4430   45.7170 C   0  0  0  0  0  0  0  0  0  0  0  0
   55.3290   23.8940   44.6700 C   0  0  0  0  0  0  0  0  0  0  0  0
   54.8019   24.5004   43.9187 H   0  0  0  0  0  0  0  0  0  0  0  0
   55.7759   23.0046   44.2017 H   0  0  0  0  0  0  0  0  0  0  0  0
   56.4270   24.7160   45.2830 C   0  0  0  0  0  0  0  0  0  0  0  0
   57.7550   24.3560   45.4760 C   0  0  0  0  0  0  0  0  0  0  0  0
   58.3800   23.0620   45.0680 C   0  0  0  0  0  0  0  0  0  0  0  0
   58.6566   22.4893   45.9655 H   0  0  0  0  0  0  0  0  0  0  0  0
   57.6631   22.4813   44.4690 H   0  0  0  0  0  0  0  0  0  0  0  0
   59.2806   23.2625   44.4690 H   0  0  0  0  0  0  0  0  0  0  0  0
   58.4120   25.2920   46.1950 N   0  0  0  0  0  0  0  0  0  0  0  0
   57.5040   26.2560   46.4550 C   0  0  0  0  0  0  0  0  0  0  0  0
   57.8020   27.4870   47.1990 C   0  0  0  0  0  0  0  0  0  0  0  0
   57.8428   27.4203   48.2962 H   0  0  0  0  0  0  0  0  0  0  0  0
   58.0290   28.6910   46.6400 C   0  0  0  0  0  0  0  0  0  0  0  0
   57.3860   29.1230   45.4910 C   0  0  0  0  0  0  0  0  0  0  0  0
   56.6086   28.5835   44.9301 H   0  0  0  0  0  0  0  0  0  0  0  0
   57.9120   30.3630   45.1880 C   0  0  0  0  0  0  0  0  0  0  0  0
   57.5720   31.1720   43.9800 C   0  0  0  0  0  0  0  0  0  0  0  0
   57.1634   32.1442   44.2929 H   0  0  0  0  0  0  0  0  0  0  0  0
   58.4790   31.3319   43.3786 H   0  0  0  0  0  0  0  0  0  0  0  0
   56.8231   30.6359   43.3786 H   0  0  0  0  0  0  0  0  0  0  0  0
   58.8390   30.7200   46.0960 N   0  0  0  0  0  0  0  0  0  0  0  0
   59.3750   31.6170   46.1080 H   0  0  0  0  0  0  0  0  0  0  0  0
   58.8990   29.7300   47.0110 C   0  0  0  0  0  0  0  0  0  0  0  0
   59.6140   29.8530   48.1350 C   0  0  0  0  0  0  0  0  0  0  0  0
   59.6429   29.0276   48.8616 H   0  0  0  0  0  0  0  0  0  0  0  0
   60.1730   30.7795   48.3326 H   0  0  0  0  0  0  0  0  0  0  0  0
   56.2920   25.9440   45.8870 C   0  0  0  0  0  0  0  0  0  0  0  0
   55.1330   26.7090   45.9540 O   0  0  0  0  0  0  0  0  0  0  0  0
  1  2  1  0
  2  3  1  0
  3  4  1  0
  4  5  1  0
  5  6  2  0
  6  7  1  0
  6  8  1  0
  8  9  1  0
  8 10  2  0
 10 11  1  0
 11 12  1  0
 12 13  1  0
 12 14  2  0
 14 15  1  0
 15 16  1  0
 16 17  1  0
 10 18  1  0
 18 19  1  0
 18 20  2  0
 20 21  1  0
 21 22  1  0
 22 23  1  0
 22 24  1  0
 22 25  1  0
 25 26  2  0
 26 27  1  0
 27 28  1  0
 27 29  1  0
 27 30  1  0
 26 31  1  0
 31 32  1  0
 32 33  1  0
 33 34  1  0
 33 35  2  0
 35 36  1  0
 36 37  1  0
 36 38  2  0
 38 39  1  0
 39 40  1  0
 39 41  1  0
 39 42  1  0
 38 43  1  0
 43 44  1  0
 43 45  1  0
 45 46  2  0
 46 47  1  0
 46 48  1  0
 32 49  2  0
 49 50  1  0
 21  3  2  0
 49 25  1  0
 20  5  1  0
 45 35  1  0
 16 11  2  0
M  CHG  4   4  -1  15  -1  31  -1  50  -1
M  END
>  <UniqueID>  (1) 
1

>  <SMILES>  (1) 
C=c1[nH]c(C)c/c1=C/c1[n-]c(C)c(Cc2c(O)[n-]c3ccc(-c4cn[n-]c4)cc23)c1[O-]

>  <Energy>  (1) 
176.9687758346246

>  <Genealogy>  (1) 
C=c1[nH]c(C)cc1=Cc1[n-]c(C)c(Cc2c(O)[n-]c3ccc(-c4cn[n-]c4)cc23)c1[O-] (protonated)
C=c1[nH]c(C)c/c1=C/c1[n-]c(C)c(Cc2c(O)[n-]c3ccc(-c4cn[n-]c4)cc23)c1[O-] (cis-trans isomerization)
C=c1[nH]c(C)c/c1=C/c1[n-]c(C)c(Cc2c(O)[n-]c3ccc(-c4cn[n-]c4)cc23)c1[O-] (3D coordinates assigned)
C=c1[nH]c(C)c/c1=C/c1[n-]c(C)c(Cc2c(O)[n-]c3ccc(-c4cn[n-]c4)cc23)c1[O-] (optimized conformer: 176.9687758346246 kcal/mol)

>  <smiles>  (1) 
C=c1[nH]c(C)cc1=Cc1[nH]c(C)c(Cc2c(O)[nH]c3ccc(-c4cn[nH]c4)cc23)c1O

>  <score_type>  (1) 
oracle

>  <origin>  (1) 
adg

>  <m_score__min__energy>  (1) 
-15.970000000000001

>  <m_primary>  (1) 
energy

$$$$
1:0
     RDKit          3D

 62 65  0  0  0  0  0  0  0  0999 V2000
   57.4230   25.0880   43.5810 C   0  0  0  0  0  0  0  0  0  0  0  0
   57.4370   26.3420   44.3510 N   0  0  1  0  0  0  0  0  0  0  0  0
   58.0330   26.1290   45.6570 C   0  0  0  0  0  0  0  0  0  0  0  0
   58.9190   25.2940   45.8020 O   0  0  0  0  0  0  0  0  0  0  0  0
   57.5400   26.9250   46.8470 C   0  0  0  0  0  0  0  0  0  0  0  0
   58.6300   27.7440   47.4890 C   0  0  0  0  0  0  0  0  0  0  0  0
   58.4850   29.1340   47.6210 C   0  0  0  0  0  0  0  0  0  0  0  0
   59.4770   29.8910   48.2520 C   0  0  0  0  0  0  0  0  0  0  0  0
   60.6330   29.2710   48.7510 C   0  0  0  0  0  0  0  0  0  0  0  0
   61.6790   30.0610   49.4330 C   0  0  0  0  0  0  0  0  0  0  0  0
   62.0440   29.7150   50.5900 O   0  0  0  0  0  0  0  0  0  0  0  0
   62.3040   31.1960   48.8040 N   0  0  0  0  0  0  0  0  0  0  0  0
   62.3820   31.3890   47.3630 C   0  0  0  0  0  0  0  0  0  0  0  0
   63.4760   32.4280   47.1470 C   0  0  0  0  0  0  0  0  0  0  0  0
   63.6760   33.1060   48.5000 C   0  0  0  0  0  0  0  0  0  0  0  0
   63.1490   32.1240   49.5360 C   0  0  0  0  0  0  0  0  0  0  0  0
   60.7630   27.8760   48.6460 C   0  0  0  0  0  0  0  0  0  0  0  0
   59.7690   27.1180   48.0220 C   0  0  0  0  0  0  0  0  0  0  0  0
   58.1500   27.3710   43.6190 C   0  0  0  0  0  0  0  0  0  0  0  0
   58.8080   27.0610   42.5860 O   0  0  0  0  0  0  0  0  0  0  0  0
   58.0980   28.8030   44.0250 C   0  0  0  0  0  0  0  0  0  0  0  0
   59.2410   29.4130   44.5750 C   0  0  0  0  0  0  0  0  0  0  0  0
   59.2210   30.7590   44.9500 C   0  0  0  0  0  0  0  0  0  0  0  0
   58.0570   31.5200   44.7840 C   0  0  0  0  0  0  0  0  0  0  0  0
   58.0310   33.2220   45.2270 S   0  0  0  0  0  0  0  0  0  0  0  0
   58.7550   34.0250   44.1830 O   0  0  0  0  0  0  0  0  0  0  0  0
   56.6140   33.7210   45.3010 O   0  0  0  0  0  0  0  0  0  0  0  0
   58.8100   33.4160   46.7930 C   0  0  0  0  0  0  0  0  0  0  0  0
   58.3070   32.7400   47.9150 C   0  0  0  0  0  0  0  0  0  0  0  0
   58.9380   32.8700   49.1560 C   0  0  0  0  0  0  0  0  0  0  0  0
   60.0780   33.6720   49.2800 C   0  0  0  0  0  0  0  0  0  0  0  0
   60.5860   34.3430   48.1630 C   0  0  0  0  0  0  0  0  0  0  0  0
   59.9560   34.2130   46.9220 C   0  0  0  0  0  0  0  0  0  0  0  0
   56.9210   30.9290   44.2210 C   0  0  0  0  0  0  0  0  0  0  0  0
   56.9380   29.5830   43.8430 C   0  0  0  0  0  0  0  0  0  0  0  0
   57.4135   24.2329   44.2729 H   0  0  0  0  0  0  0  0  0  0  0  0
   56.5245   25.0569   42.9472 H   0  0  0  0  0  0  0  0  0  0  0  0
   58.3206   25.0368   42.9472 H   0  0  0  0  0  0  0  0  0  0  0  0
   56.4470   26.6410   44.5010 H   0  0  0  0  0  0  0  0  0  0  0  0
   56.7417   27.6030   46.5109 H   0  0  0  0  0  0  0  0  0  0  0  0
   57.1752   26.2091   47.5983 H   0  0  0  0  0  0  0  0  0  0  0  0
   57.5863   29.6303   47.2260 H   0  0  0  0  0  0  0  0  0  0  0  0
   59.3506   30.9786   48.3579 H   0  0  0  0  0  0  0  0  0  0  0  0
   62.6448   30.4452   46.8629 H   0  0  0  0  0  0  0  0  0  0  0  0
   61.4197   31.7182   46.9439 H   0  0  0  0  0  0  0  0  0  0  0  0
   64.4072   31.9420   46.8203 H   0  0  0  0  0  0  0  0  0  0  0  0
   63.1989   33.1527   46.3672 H   0  0  0  0  0  0  0  0  0  0  0  0
   64.7431   33.3095   48.6727 H   0  0  0  0  0  0  0  0  0  0  0  0
   63.1503   34.0709   48.5517 H   0  0  0  0  0  0  0  0  0  0  0  0
   63.9817   31.5883   50.0151 H   0  0  0  0  0  0  0  0  0  0  0  0
   62.5926   32.6362   50.3348 H   0  0  0  0  0  0  0  0  0  0  0  0
   61.6530   27.3775   49.0577 H   0  0  0  0  0  0  0  0  0  0  0  0
   59.8788   26.0260   47.9477 H   0  0  0  0  0  0  0  0  0  0  0  0
   60.1599   28.8239   44.7111 H   0  0  0  0  0  0  0  0  0  0  0  0
   60.1226   31.2225   45.3770 H   0  0  0  0  0  0  0  0  0  0  0  0
   57.4135   32.1058   47.8180 H   0  0  0  0  0  0  0  0  0  0  0  0
   58.5384   32.3421   50.0344 H   0  0  0  0  0  0  0  0  0  0  0  0
   60.5746   33.7747   50.2561 H   0  0  0  0  0  0  0  0  0  0  0  0
   61.4820   34.9735   48.2611 H   0  0  0  0  0  0  0  0  0  0  0  0
   60.3607   34.7377   46.0440 H   0  0  0  0  0  0  0  0  0  0  0  0
   56.0091   31.5266   44.0748 H   0  0  0  0  0  0  0  0  0  0  0  0
   56.0392   29.1292   43.4001 H   0  0  0  0  0  0  0  0  0  0  0  0
  1  2  1  0
  2  3  1  0
  3  4  2  0
  3  5  1  0
  5  6  1  0
  6  7  2  0
  7  8  1  0
  8  9  2  0
  9 10  1  0
 10 11  2  0
 10 12  1  0
 12 13  1  0
 13 14  1  0
 14 15  1  0
 15 16  1  0
  9 17  1  0
 17 18  2  0
  2 19  1  0
 19 20  2  0
 19 21  1  0
 21 22  2  0
 22 23  1  0
 23 24  2  0
 24 25  1  0
 25 26  2  0
 25 27  2  0
 25 28  1  0
 28 29  2  0
 29 30  1  0
 30 31  2  0
 31 32  1  0
 32 33  2  0
 24 34  1  0
 34 35  2  0
 18  6  1  0
 35 21  1  0
 16 12  1  0
 33 28  1  0
  1 36  1  0
  1 37  1  0
  1 38  1  0
  2 39  1  1
  5 40  1  0
  5 41  1  0
  7 42  1  0
  8 43  1  0
 13 44  1  0
 13 45  1  0
 14 46  1  0
 14 47  1  0
 15 48  1  0
 15 49  1  0
 16 50  1  0
 16 51  1  0
 17 52  1  0
 18 53  1  0
 22 54  1  0
 23 55  1  0
 29 56  1  0
 30 57  1  0
 31 58  1  0
 32 59  1  0
 33 60  1  0
 34 61  1  0
 35 62  1  0
M  CHG  1   2   1
M  END
>  <UniqueID>  (2) 
2

>  <SMILES>  (2) 
C[NH+](C(=O)Cc1ccc(C(=O)N2CCCC2)cc1)C(=O)c1ccc(S(=O)(=O)c2ccccc2)cc1

>  <Energy>  (2) 
76.69850960836709

>  <Genealogy>  (2) 
C[NH+](C(=O)Cc1ccc(C(=O)N2CCCC2)cc1)C(=O)c1ccc(S(=O)(=O)c2ccccc2)cc1 (protonated)
C[NH+](C(=O)Cc1ccc(C(=O)N2CCCC2)cc1)C(=O)c1ccc(S(=O)(=O)c2ccccc2)cc1 (3D coordinates assigned)
C[NH+](C(=O)Cc1ccc(C(=O)N2CCCC2)cc1)C(=O)c1ccc(S(=O)(=O)c2ccccc2)cc1 (nonaromatic ring conformer: 76.69850960836709 kcal/mol)

>  <smiles>  (2) 
CN(C(=O)Cc1ccc(C(=O)N2CCCC2)cc1)C(=O)c1ccc(S(=O)(=O)c2ccccc2)cc1

>  <score_type>  (2) 
oracle

>  <origin>  (2) 
adg

>  <m_score__min__energy>  (2) 
-8.6300000000000008

>  <m_primary>  (2) 
energy

$$$$
2:0
     RDKit          3D

 37 39  0  0  0  0  0  0  0  0999 V2000
   57.9660   25.3610   47.9690 O   0  0  0  0  0  0  0  0  0  0  0  0
   57.5370   25.5790   46.8060 C   0  0  0  0  0  0  0  0  0  0  0  0
   58.2850   26.4560   45.9510 N   0  0  0  0  0  0  0  0  0  0  0  0
   58.1500   27.8820   45.8700 C   0  0  0  0  0  0  0  0  0  0  0  0
   57.6180   28.4460   44.7040 C   0  0  0  0  0  0  0  0  0  0  0  0
   57.4850   29.8320   44.5850 C   0  0  0  0  0  0  0  0  0  0  0  0
   57.8980   30.6720   45.6280 C   0  0  0  0  0  0  0  0  0  0  0  0
   57.7430   32.4190   45.4780 S   0  0  0  0  0  0  0  0  0  0  0  0
   58.5690   32.9300   44.3310 O   0  0  0  0  0  0  0  0  0  0  0  0
   56.3000   32.7580   45.2330 O   0  0  0  0  0  0  0  0  0  0  0  0
   58.2650   33.1920   46.9410 N   0  0  0  0  0  0  0  0  0  0  0  0
   59.6310   33.4110   47.3190 C   0  0  0  0  0  0  0  0  0  0  0  0
   60.6410   33.6490   46.3640 C   0  0  0  0  0  0  0  0  0  0  0  0
   61.9620   33.8500   46.7730 C   0  0  0  0  0  0  0  0  0  0  0  0
   62.2890   33.8190   48.1300 C   0  0  0  0  0  0  0  0  0  0  0  0
   61.2960   33.5870   49.0830 C   0  0  0  0  0  0  0  0  0  0  0  0
   59.9700   33.3840   48.6810 C   0  0  0  0  0  0  0  0  0  0  0  0
   58.9910   33.1530   49.6400 O   0  0  0  0  0  0  0  0  0  0  0  0
   58.4490   30.1130   46.7880 C   0  0  0  0  0  0  0  0  0  0  0  0
   58.5840   28.7270   46.9070 C   0  0  0  0  0  0  0  0  0  0  0  0
   56.3110   24.8840   46.3410 C   0  0  0  0  0  0  0  0  0  0  0  0
   55.1710   25.6150   45.9620 C   0  0  0  0  0  0  0  0  0  0  0  0
   55.1710   27.0050   46.0020 O   0  0  0  0  0  0  0  0  0  0  0  0
   54.0570   24.9660   45.5350 N   0  0  0  0  0  0  0  0  0  0  0  0
   54.0170   23.6110   45.4700 C   0  0  0  0  0  0  0  0  0  0  0  0
   52.9740   23.0330   45.0660 O   0  0  0  0  0  0  0  0  0  0  0  0
   55.0980   22.8800   45.8420 N   0  0  0  0  0  0  0  0  0  0  0  0
   56.2350   23.4790   46.2780 C   0  0  0  0  0  0  0  0  0  0  0  0
   57.2060   22.7630   46.6410 O   0  0  0  0  0  0  0  0  0  0  0  0
   57.3027   27.7938   43.8762 H   0  0  0  0  0  0  0  0  0  0  0  0
   57.0548   30.2650   43.6699 H   0  0  0  0  0  0  0  0  0  0  0  0
   60.3882   33.6765   45.2938 H   0  0  0  0  0  0  0  0  0  0  0  0
   62.7463   34.0331   46.0238 H   0  0  0  0  0  0  0  0  0  0  0  0
   63.3299   33.9775   48.4483 H   0  0  0  0  0  0  0  0  0  0  0  0
   61.5554   33.5636   50.1517 H   0  0  0  0  0  0  0  0  0  0  0  0
   58.7769   30.7676   47.6089 H   0  0  0  0  0  0  0  0  0  0  0  0
   59.0312   28.2957   47.8147 H   0  0  0  0  0  0  0  0  0  0  0  0
  1  2  2  0
  2  3  1  0
  3  4  1  0
  4  5  2  0
  5  6  1  0
  6  7  2  0
  7  8  1  0
  8  9  2  0
  8 10  2  0
  8 11  1  0
 11 12  1  0
 12 13  2  0
 13 14  1  0
 14 15  2  0
 15 16  1  0
 16 17  2  0
 17 18  1  0
  7 19  1  0
 19 20  2  0
  2 21  1  0
 21 22  2  0
 22 23  1  0
 22 24  1  0
 24 25  1  0
 25 26  2  0
 25 27  1  0
 27 28  1  0
 28 29  2  0
 20  4  1  0
 28 21  1  0
 17 12  1  0
  5 30  1  0
  6 31  1  0
 13 32  1  0
 14 33  1  0
 15 34  1  0
 16 35  1  0
 19 36  1  0
 20 37  1  0
M  CHG  6   3  -1  11  -1  18  -1  23  -1  24  -1  27  -1
M  END
>  <UniqueID>  (3) 
3

>  <SMILES>  (3) 
O=C([N-]c1ccc(S(=O)(=O)[N-]c2ccccc2[O-])cc1)c1c([O-])[n-]c(=O)[n-]c1=O

>  <Energy>  (3) 
54.446903645412775

>  <Genealogy>  (3) 
O=C([N-]c1ccc(S(=O)(=O)[N-]c2ccccc2[O-])cc1)c1c([O-])[n-]c(=O)[n-]c1=O (protonated)
O=C([N-]c1ccc(S(=O)(=O)[N-]c2ccccc2[O-])cc1)c1c([O-])[n-]c(=O)[n-]c1=O (3D coordinates assigned)
O=C([N-]c1ccc(S(=O)(=O)[N-]c2ccccc2[O-])cc1)c1c([O-])[n-]c(=O)[n-]c1=O (optimized conformer: 54.446903645412775 kcal/mol)

>  <smiles>  (3) 
O=C(Nc1ccc(S(=O)(=O)Nc2ccccc2O)cc1)c1c(O)[nH]c(=O)[nH]c1=O

>  <score_type>  (3) 
oracle

>  <origin>  (3) 
adg

>  <m_score__min__energy>  (3) 
-18.600000000000001

>  <m_primary>  (3) 
energy

$$$$
3:0
     RDKit          3D

 47 50  0  0  0  0  0  0  0  0999 V2000
   63.0325   33.7148   46.9742 H   0  0  0  0  0  0  0  0  0  0  0  0
   62.8730   33.0700   47.8510 C   0  0  0  0  0  0  0  0  0  0  0  0
   62.0310   32.0380   47.7220 C   0  0  0  0  0  0  0  0  0  0  0  0
   61.2880   31.8090   46.5600 O   0  0  0  0  0  0  0  0  0  0  0  0
   60.5370   30.6540   46.7680 C   0  0  0  0  0  0  0  0  0  0  0  0
   59.6510   30.0610   45.8710 C   0  0  0  0  0  0  0  0  0  0  0  0
   59.4730   30.5037   44.8799 H   0  0  0  0  0  0  0  0  0  0  0  0
   58.9850   28.8750   46.2650 C   0  0  0  0  0  0  0  0  0  0  0  0
   58.0770   28.2060   45.4270 O   0  0  0  0  0  0  0  0  0  0  0  0
   57.4480   28.7750   44.2780 C   0  0  0  0  0  0  0  0  0  0  0  0
   57.0308   27.9675   43.6584 H   0  0  0  0  0  0  0  0  0  0  0  0
   58.1992   29.3441   43.7108 H   0  0  0  0  0  0  0  0  0  0  0  0
   56.3460   29.7040   44.6800 C   0  0  0  0  0  0  0  0  0  0  0  0
   55.1470   29.3290   44.5850 O   0  0  0  0  0  0  0  0  0  0  0  0
   56.6630   31.0210   45.1390 N   0  0  0  0  0  0  0  0  0  0  0  0
   57.4210   31.9890   44.3540 C   0  0  0  0  0  0  0  0  0  0  0  0
   58.1890   31.4609   43.7698 H   0  0  0  0  0  0  0  0  0  0  0  0
   56.7335   32.5198   43.6791 H   0  0  0  0  0  0  0  0  0  0  0  0
   58.0870   32.9890   45.2610 C   0  0  0  0  0  0  0  0  0  0  0  0
   57.9300   32.8880   46.6530 C   0  0  0  0  0  0  0  0  0  0  0  0
   57.3033   32.0899   47.0776 H   0  0  0  0  0  0  0  0  0  0  0  0
   58.5680   33.7990   47.5010 C   0  0  0  0  0  0  0  0  0  0  0  0
   58.4410   33.7168   48.5905 H   0  0  0  0  0  0  0  0  0  0  0  0
   59.3670   34.8140   46.9660 C   0  0  0  0  0  0  0  0  0  0  0  0
   59.8671   35.5304   47.6343 H   0  0  0  0  0  0  0  0  0  0  0  0
   59.5300   34.9180   45.5820 C   0  0  0  0  0  0  0  0  0  0  0  0
   60.1587   35.7170   45.1620 H   0  0  0  0  0  0  0  0  0  0  0  0
   58.8960   34.0090   44.7300 C   0  0  0  0  0  0  0  0  0  0  0  0
   59.0304   34.0919   43.6414 H   0  0  0  0  0  0  0  0  0  0  0  0
   59.2290   28.3310   47.5470 C   0  0  0  0  0  0  0  0  0  0  0  0
   58.7090   27.4117   47.8543 H   0  0  0  0  0  0  0  0  0  0  0  0
   60.1270   28.9490   48.4340 C   0  0  0  0  0  0  0  0  0  0  0  0
   60.3212   28.5256   49.4305 H   0  0  0  0  0  0  0  0  0  0  0  0
   60.7630   30.1130   48.0130 C   0  0  0  0  0  0  0  0  0  0  0  0
   61.7330   30.9610   48.6780 C   0  0  0  0  0  0  0  0  0  0  0  0
   62.2650   30.7490   49.7980 O   0  0  0  0  0  0  0  0  0  0  0  0
   63.6020   33.4010   49.0910 C   0  0  0  0  0  0  0  0  0  0  0  0
   64.8530   32.8240   49.3750 C   0  0  0  0  0  0  0  0  0  0  0  0
   65.3194   32.1410   48.6497 H   0  0  0  0  0  0  0  0  0  0  0  0
   65.5050   33.1160   50.5760 C   0  0  0  0  0  0  0  0  0  0  0  0
   66.4900   32.6742   50.7870 H   0  0  0  0  0  0  0  0  0  0  0  0
   64.9080   33.9690   51.5110 C   0  0  0  0  0  0  0  0  0  0  0  0
   65.7990   34.3650   53.1530 Br  0  0  0  0  0  0  0  0  0  0  0  0
   63.6490   34.5200   51.2470 C   0  0  0  0  0  0  0  0  0  0  0  0
   63.1739   35.1829   51.9851 H   0  0  0  0  0  0  0  0  0  0  0  0
   62.9940   34.2290   50.0460 C   0  0  0  0  0  0  0  0  0  0  0  0
   61.9975   34.6514   49.8495 H   0  0  0  0  0  0  0  0  0  0  0  0
  1  2  1  0
  2  3  2  0
  3  4  1  0
  4  5  1  0
  5  6  2  0
  6  7  1  0
  6  8  1  0
  8  9  1  0
  9 10  1  0
 10 11  1  0
 10 12  1  0
 10 13  1  0
 13 14  2  0
 13 15  1  0
 15 16  1  0
 16 17  1  0
 16 18  1  0
 16 19  1  0
 19 20  2  0
 20 21  1  0
 20 22  1  0
 22 23  1  0
 22 24  2  0
 24 25  1  0
 24 26  1  0
 26 27  1  0
 26 28  2  0
 28 29  1  0
  8 30  2  0
 30 31  1  0
 30 32  1  0
 32 33  1  0
 32 34  2  0
 34 35  1  0
 35 36  2  0
  2 37  1  0
 37 38  2  0
 38 39  1  0
 38 40  1  0
 40 41  1  0
 40 42  2  0
 42 43  1  0
 42 44  1  0
 44 45  1  0
 44 46  2  0
 46 47  1  0
 35  3  1  0
 46 37  1  0
 34  5  1  0
 28 19  1  0
M  CHG  1  15  -1
M  END
>  <UniqueID>  (4) 
4

>  <SMILES>  (4) 
O=C(COc1ccc2c(c1)O/C(=C/c1ccc(Br)cc1)C2=O)[N-]Cc1ccccc1

>  <Energy>  (4) 
86.34539448007375

>  <Genealogy>  (4) 
O=C(COc1ccc2c(c1)OC(=Cc1ccc(Br)cc1)C2=O)[N-]Cc1ccccc1 (protonated)
O=C(COc1ccc2c(c1)O/C(=C/c1ccc(Br)cc1)C2=O)[N-]Cc1ccccc1 (cis-trans isomerization)
O=C(COc1ccc2c(c1)O/C(=C/c1ccc(Br)cc1)C2=O)[N-]Cc1ccccc1 (3D coordinates assigned)
O=C(COc1ccc2c(c1)O/C(=C/c1ccc(Br)cc1)C2=O)[N-]Cc1ccccc1 (nonaromatic ring conformer: 86.34539448007375 kcal/mol)

>  <smiles>  (4) 
O=C(COc1ccc2c(c1)OC(=Cc1ccc(Br)cc1)C2=O)NCc1ccccc1

>  <score_type>  (4) 
oracle

>  <origin>  (4) 
adg

>  <m_score__min__energy>  (4) 
-12

>  <m_primary>  (4) 
energy

$$$$
4:0
     RDKit          3D

 56 59  0  0  0  0  0  0  0  0999 V2000
   59.0410   27.4937   47.6191 H   0  0  0  0  0  0  0  0  0  0  0  0
   58.6940   28.4180   47.1340 C   0  0  0  0  0  0  0  0  0  0  0  0
   57.7480   28.5100   45.7460 S   0  0  0  0  0  0  0  0  0  0  0  0
   57.7220   30.1880   45.7510 C   0  0  0  0  0  0  0  0  0  0  0  0
   57.0910   30.8940   44.8600 N   0  0  0  0  0  0  0  0  0  0  0  0
   57.4530   32.1780   44.3190 C   0  0  0  0  0  0  0  0  0  0  0  0
   57.8630   32.2220   43.1280 O   0  0  0  0  0  0  0  0  0  0  0  0
   57.3540   33.4560   45.1220 C   0  0  0  0  0  0  0  0  0  0  0  0
   57.3968   34.3110   44.4312 H   0  0  0  0  0  0  0  0  0  0  0  0
   56.4036   33.4306   45.6752 H   0  0  0  0  0  0  0  0  0  0  0  0
   58.4680   33.5920   46.1300 C   0  0  0  0  0  0  0  0  0  0  0  0
   59.7990   33.7170   45.7040 C   0  0  0  0  0  0  0  0  0  0  0  0
   60.0292   33.7388   44.6286 H   0  0  0  0  0  0  0  0  0  0  0  0
   60.8340   33.8140   46.6380 C   0  0  0  0  0  0  0  0  0  0  0  0
   61.8734   33.9146   46.2923 H   0  0  0  0  0  0  0  0  0  0  0  0
   60.5570   33.7840   48.0170 C   0  0  0  0  0  0  0  0  0  0  0  0
   61.6460   33.8790   49.0180 C   0  0  0  0  0  0  0  0  0  0  0  0
   62.6730   34.5610   48.7500 O   0  0  0  0  0  0  0  0  0  0  0  0
   61.5580   33.1960   50.2780 N   0  0  0  0  0  0  0  0  0  0  0  0
   60.8330   32.4560   50.4180 H   0  0  0  0  0  0  0  0  0  0  0  0
   62.4990   33.4440   51.3680 C   0  0  0  0  0  0  0  0  0  0  0  0
   62.6757   34.5261   51.4565 H   0  0  0  0  0  0  0  0  0  0  0  0
   62.0738   33.0554   52.3051 H   0  0  0  0  0  0  0  0  0  0  0  0
   63.8040   32.7480   51.0950 C   0  0  0  0  0  0  0  0  0  0  0  0
   64.8180   33.4120   50.3860 C   0  0  0  0  0  0  0  0  0  0  0  0
   64.6632   34.4474   50.0483 H   0  0  0  0  0  0  0  0  0  0  0  0
   66.0240   32.7610   50.1080 C   0  0  0  0  0  0  0  0  0  0  0  0
   66.8166   33.2861   49.5548 H   0  0  0  0  0  0  0  0  0  0  0  0
   66.2240   31.4440   50.5320 C   0  0  0  0  0  0  0  0  0  0  0  0
   67.1745   30.9347   50.3150 H   0  0  0  0  0  0  0  0  0  0  0  0
   65.2170   30.7750   51.2310 C   0  0  0  0  0  0  0  0  0  0  0  0
   65.3747   29.7379   51.5621 H   0  0  0  0  0  0  0  0  0  0  0  0
   64.0080   31.4210   51.5110 C   0  0  0  0  0  0  0  0  0  0  0  0
   63.2154   30.8893   52.0579 H   0  0  0  0  0  0  0  0  0  0  0  0
   59.2240   33.6320   48.4380 C   0  0  0  0  0  0  0  0  0  0  0  0
   58.9938   33.5875   49.5127 H   0  0  0  0  0  0  0  0  0  0  0  0
   58.1890   33.5370   47.5040 C   0  0  0  0  0  0  0  0  0  0  0  0
   57.1507   33.4186   47.8475 H   0  0  0  0  0  0  0  0  0  0  0  0
   58.4150   30.6990   46.7910 N   0  0  0  0  0  0  0  0  0  0  0  0
   58.9620   29.7200   47.5630 C   0  0  0  0  0  0  0  0  0  0  0  0
   59.7750   30.0530   48.7870 C   0  0  0  0  0  0  0  0  0  0  0  0
   60.5065   30.8192   48.4905 H   0  0  0  0  0  0  0  0  0  0  0  0
   58.8930   30.6470   49.9070 C   0  0  0  0  0  0  0  0  0  0  0  0
   58.7166   31.7113   49.6923 H   0  0  0  0  0  0  0  0  0  0  0  0
   57.9495   30.0819   49.9298 H   0  0  0  0  0  0  0  0  0  0  0  0
   59.5530   30.5230   51.2940 C   0  0  0  0  0  0  0  0  0  0  0  0
   59.2866   31.4012   51.9004 H   0  0  0  0  0  0  0  0  0  0  0  0
   59.1923   29.6025   51.7762 H   0  0  0  0  0  0  0  0  0  0  0  0
   61.0130   30.4490   51.1690 N   0  0  0  0  0  0  0  0  0  0  0  0
   61.4240   30.4680   52.1310 H   0  0  0  0  0  0  0  0  0  0  0  0
   61.4280   29.1910   50.5210 C   0  0  0  0  0  0  0  0  0  0  0  0
   62.4720   29.2941   50.1903 H   0  0  0  0  0  0  0  0  0  0  0  0
   61.3109   28.3844   51.2597 H   0  0  0  0  0  0  0  0  0  0  0  0
   60.5560   28.8300   49.2970 C   0  0  0  0  0  0  0  0  0  0  0  0
   61.2059   28.4583   48.4911 H   0  0  0  0  0  0  0  0  0  0  0  0
   59.8332   28.0586   49.6010 H   0  0  0  0  0  0  0  0  0  0  0  0
  1  2  1  0
  2  3  1  0
  3  4  1  0
  4  5  2  0
  5  6  1  0
  6  7  2  0
  6  8  1  0
  8  9  1  0
  8 10  1  0
  8 11  1  0
 11 12  2  0
 12 13  1  0
 12 14  1  0
 14 15  1  0
 14 16  2  0
 16 17  1  0
 17 18  2  0
 17 19  1  0
 19 20  1  0
 19 21  1  0
 21 22  1  0
 21 23  1  0
 21 24  1  0
 24 25  2  0
 25 26  1  0
 25 27  1  0
 27 28  1  0
 27 29  2  0
 29 30  1  0
 29 31  1  0
 31 32  1  0
 31 33  2  0
 33 34  1  0
 16 35  1  0
 35 36  1  0
 35 37  2  0
 37 38  1  0
  4 39  1  0
 39 40  1  0
 40 41  1  0
 41 42  1  0
 41 43  1  0
 43 44  1  0
 43 45  1  0
 43 46  1  0
 46 47  1  0
 46 48  1  0
 46 49  1  0
 49 50  1  0
 49 51  1  0
 51 52  1  0
 51 53  1  0
 51 54  1  0
 54 55  1  0
 54 56  1  0
 40  2  2  0
 54 41  1  0
 37 11  1  0
 33 24  1  0
M  CHG  1  39  -1
M  END
>  <UniqueID>  (5) 
5

>  <SMILES>  (5) 
O=C(Cc1ccc(C(=O)NCc2ccccc2)cc1)/N=c1\[n-]c(C2CCNCC2)cs1

>  <Energy>  (5) 
95.76269267783665

>  <Genealogy>  (5) 
O=C(Cc1ccc(C(=O)NCc2ccccc2)cc1)N=c1[n-]c(C2CCNCC2)cs1 (protonated)
O=C(Cc1ccc(C(=O)NCc2ccccc2)cc1)/N=c1\[n-]c(C2CCNCC2)cs1 (cis-trans isomerization)
O=C(Cc1ccc(C(=O)NCc2ccccc2)cc1)/N=c1\[n-]c(C2CCNCC2)cs1 (3D coordinates assigned)
O=C(Cc1ccc(C(=O)NCc2ccccc2)cc1)/N=c1\[n-]c(C2CCNCC2)cs1 (nonaromatic ring conformer: 95.76269267783665 kcal/mol)

>  <smiles>  (5) 
O=C(Cc1ccc(C(=O)NCc2ccccc2)cc1)N=c1[nH]c(C2CCNCC2)cs1

>  <score_type>  (5) 
oracle

>  <origin>  (5) 
adg

>  <m_score__min__energy>  (5) 
-11.76

>  <m_primary>  (5) 
energy

$$$$
5:0
     RDKit          3D

 62 65  0  0  0  0  0  0  0  0999 V2000
   55.9910   31.4210   52.3450 C   0  0  0  0  0  0  0  0  0  0  0  0
   57.1770   30.6460   51.8440 C   0  0  0  0  0  0  0  0  0  0  0  0
   57.1370   29.3910   51.8840 O   0  0  0  0  0  0  0  0  0  0  0  0
   58.3710   31.3200   51.2740 C   0  0  0  0  0  0  0  0  0  0  0  0
   59.4560   30.5720   50.7680 C   0  0  0  0  0  0  0  0  0  0  0  0
   60.5790   31.2200   50.2380 C   0  0  0  0  0  0  0  0  0  0  0  0
   60.6310   32.6240   50.1900 C   0  0  0  0  0  0  0  0  0  0  0  0
   62.0040   33.4400   49.4330 S   0  0  0  0  0  0  0  0  0  0  0  0
   63.1720   32.4910   49.3650 O   0  0  0  0  0  0  0  0  0  0  0  0
   62.4090   34.6180   50.2810 O   0  0  0  0  0  0  0  0  0  0  0  0
   61.6120   33.9910   47.8170 N   0  0  0  0  0  0  0  0  0  0  0  0
   60.2680   34.6110   47.7950 C   0  0  0  0  0  0  0  0  0  0  0  0
   59.6940   34.6320   46.3690 C   0  0  0  0  0  0  0  0  0  0  0  0
   59.5330   33.2580   45.8150 N   0  0  0  0  0  0  0  0  0  0  0  0
   57.8700   32.7070   45.9290 S   0  0  0  0  0  0  0  0  0  0  0  0
   57.2580   33.1330   47.2380 O   0  0  0  0  0  0  0  0  0  0  0  0
   57.0310   33.2780   44.8140 O   0  0  0  0  0  0  0  0  0  0  0  0
   57.8440   30.9420   45.8570 C   0  0  0  0  0  0  0  0  0  0  0  0
   57.3080   30.3020   44.7270 C   0  0  0  0  0  0  0  0  0  0  0  0
   57.2320   28.9080   44.6750 C   0  0  0  0  0  0  0  0  0  0  0  0
   57.6830   28.1350   45.7540 C   0  0  0  0  0  0  0  0  0  0  0  0
   57.5940   26.7000   45.6900 N   0  0  0  0  0  0  0  0  0  0  0  0
   58.7810   25.9450   45.2680 C   0  0  0  0  0  0  0  0  0  0  0  0
   58.7680   24.5270   45.8350 C   0  0  0  0  0  0  0  0  0  0  0  0
   57.4650   23.8300   45.4460 C   0  0  0  0  0  0  0  0  0  0  0  0
   56.2530   24.5430   46.0490 C   0  0  0  0  0  0  0  0  0  0  0  0
   56.3240   26.0350   45.8760 C   0  0  0  0  0  0  0  0  0  0  0  0
   55.2640   26.7070   45.9920 O   0  0  0  0  0  0  0  0  0  0  0  0
   58.2170   28.7720   46.8850 C   0  0  0  0  0  0  0  0  0  0  0  0
   58.3020   30.1660   46.9390 C   0  0  0  0  0  0  0  0  0  0  0  0
   58.8230   30.7520   48.0470 F   0  0  0  0  0  0  0  0  0  0  0  0
   60.4520   32.2640   46.4260 C   0  0  0  0  0  0  0  0  0  0  0  0
   61.7900   32.9110   46.8170 C   0  0  0  0  0  0  0  0  0  0  0  0
   59.5620   33.3740   50.7050 C   0  0  0  0  0  0  0  0  0  0  0  0
   58.4440   32.7290   51.2440 C   0  0  0  0  0  0  0  0  0  0  0  0
   55.9911   31.4210   53.4450 H   0  0  0  0  0  0  0  0  0  0  0  0
   56.0482   32.4565   51.9784 H   0  0  0  0  0  0  0  0  0  0  0  0
   55.0656   30.9528   51.9784 H   0  0  0  0  0  0  0  0  0  0  0  0
   59.4193   29.4728   50.7901 H   0  0  0  0  0  0  0  0  0  0  0  0
   61.4241   30.6275   49.8576 H   0  0  0  0  0  0  0  0  0  0  0  0
   59.5947   34.0333   48.4453 H   0  0  0  0  0  0  0  0  0  0  0  0
   60.3544   35.6474   48.1532 H   0  0  0  0  0  0  0  0  0  0  0  0
   58.7109   35.1251   46.3885 H   0  0  0  0  0  0  0  0  0  0  0  0
   60.3990   35.1788   45.7255 H   0  0  0  0  0  0  0  0  0  0  0  0
   59.7610   33.3050   44.7920 H   0  0  0  0  0  0  0  0  0  0  0  0
   56.9463   30.9017   43.8787 H   0  0  0  0  0  0  0  0  0  0  0  0
   56.8166   28.4149   43.7838 H   0  0  0  0  0  0  0  0  0  0  0  0
   58.7996   25.8914   44.1695 H   0  0  0  0  0  0  0  0  0  0  0  0
   59.6744   26.4623   45.6478 H   0  0  0  0  0  0  0  0  0  0  0  0
   59.6203   23.9626   45.4286 H   0  0  0  0  0  0  0  0  0  0  0  0
   58.8445   24.5718   46.9314 H   0  0  0  0  0  0  0  0  0  0  0  0
   57.3720   23.8295   44.3499 H   0  0  0  0  0  0  0  0  0  0  0  0
   57.4918   22.8011   45.8342 H   0  0  0  0  0  0  0  0  0  0  0  0
   55.3427   24.1726   45.5549 H   0  0  0  0  0  0  0  0  0  0  0  0
   56.2397   24.3297   47.1280 H   0  0  0  0  0  0  0  0  0  0  0  0
   58.5711   28.1699   47.7348 H   0  0  0  0  0  0  0  0  0  0  0  0
   59.9795   31.8446   47.3265 H   0  0  0  0  0  0  0  0  0  0  0  0
   60.6502   31.4730   45.6878 H   0  0  0  0  0  0  0  0  0  0  0  0
   62.4477   32.1383   47.2417 H   0  0  0  0  0  0  0  0  0  0  0  0
   62.2309   33.3544   45.9120 H   0  0  0  0  0  0  0  0  0  0  0  0
   59.6037   34.4730   50.6846 H   0  0  0  0  0  0  0  0  0  0  0  0
   57.6134   33.3260   51.6485 H   0  0  0  0  0  0  0  0  0  0  0  0
  1  2  1  0
  2  3  2  0
  2  4  1  0
  4  5  2  0
  5  6  1  0
  6  7  2  0
  7  8  1  0
  8  9  2  0
  8 10  2  0
  8 11  1  0
 11 12  1  0
 12 13  1  0
 13 14  1  0
 14 15  1  0
 15 16  2  0
 15 17  2  0
 15 18  1  0
 18 19  2  0
 19 20  1  0
 20 21  2  0
 21 22  1  0
 22 23  1  0
 23 24  1  0
 24 25  1  0
 25 26  1  0
 26 27  1  0
 27 28  2  0
 21 29  1  0
 29 30  2  0
 30 31  1  0
 14 32  1  0
 32 33  1  0
  7 34  1  0
 34 35  2  0
 35  4  1  0
 33 11  1  0
 30 18  1  0
 27 22  1  0
  1 36  1  0
  1 37  1  0
  1 38  1  0
  5 39  1  0
  6 40  1  0
 12 41  1  0
 12 42  1  0
 13 43  1  0
 13 44  1  0
 14 45  1  0
 19 46  1  0
 20 47  1  0
 23 48  1  0
 23 49  1  0
 24 50  1  0
 24 51  1  0
 25 52  1  0
 25 53  1  0
 26 54  1  0
 26 55  1  0
 29 56  1  0
 32 57  1  0
 32 58  1  0
 33 59  1  0
 33 60  1  0
 34 61  1  0
 35 62  1  0
M  CHG  1  14   1
M  END
>  <UniqueID>  (6) 
6

>  <SMILES>  (6) 
CC(=O)c1ccc(S(=O)(=O)N2CC[NH+](S(=O)(=O)c3ccc(N4CCCCC4=O)cc3F)CC2)cc1

>  <Energy>  (6) 
80.04619587143978

>  <Genealogy>  (6) 
CC(=O)c1ccc(S(=O)(=O)N2CC[NH+](S(=O)(=O)c3ccc(N4CCCCC4=O)cc3F)CC2)cc1 (protonated)
CC(=O)c1ccc(S(=O)(=O)N2CC[NH+](S(=O)(=O)c3ccc(N4CCCCC4=O)cc3F)CC2)cc1 (3D coordinates assigned)
CC(=O)c1ccc(S(=O)(=O)N2CC[NH+](S(=O)(=O)c3ccc(N4CCCCC4=O)cc3F)CC2)cc1 (nonaromatic ring conformer: 80.04619587143978 kcal/mol)

>  <smiles>  (6) 
CC(=O)c1ccc(S(=O)(=O)N2CCN(S(=O)(=O)c3ccc(N4CCCCC4=O)cc3F)CC2)cc1

>  <score_type>  (6) 
oracle

>  <origin>  (6) 
adg

>  <m_score__min__energy>  (6) 
-8.5600000000000005

>  <m_primary>  (6) 
energy

$$$$
6:0
     RDKit          3D

 45 48  0  0  0  0  0  0  0  0999 V2000
   58.3209   31.4342   44.0991 H   0  0  0  0  0  0  0  0  0  0  0  0
   58.0500   30.4010   44.3620 C   0  0  0  0  0  0  0  0  0  0  0  0
   57.5349   29.7637   43.6282 H   0  0  0  0  0  0  0  0  0  0  0  0
   58.3480   29.9180   45.5780 C   0  0  0  0  0  0  0  0  0  0  0  0
   58.0690   28.6330   46.0540 C   0  0  0  0  0  0  0  0  0  0  0  0
   57.4460   27.6350   45.3980 C   0  0  0  0  0  0  0  0  0  0  0  0
   57.0986   27.8235   44.3715 H   0  0  0  0  0  0  0  0  0  0  0  0
   57.2040   26.2970   45.9860 C   0  0  0  0  0  0  0  0  0  0  0  0
   55.8940   25.8730   46.2520 C   0  0  0  0  0  0  0  0  0  0  0  0
   54.8130   26.7130   46.0020 O   0  0  0  0  0  0  0  0  0  0  0  0
   55.6710   24.6380   46.7680 N   0  0  0  0  0  0  0  0  0  0  0  0
   56.7000   23.7880   47.0220 C   0  0  0  0  0  0  0  0  0  0  0  0
   56.4690   22.6490   47.5050 O   0  0  0  0  0  0  0  0  0  0  0  0
   57.9750   24.1640   46.7480 N   0  0  0  0  0  0  0  0  0  0  0  0
   58.2500   25.3880   46.2300 C   0  0  0  0  0  0  0  0  0  0  0  0
   59.4430   25.6880   45.9560 O   0  0  0  0  0  0  0  0  0  0  0  0
   58.5150   28.5960   47.3690 C   0  0  0  0  0  0  0  0  0  0  0  0
   58.4480   27.7446   48.0622 H   0  0  0  0  0  0  0  0  0  0  0  0
   59.0590   29.8370   47.6360 C   0  0  0  0  0  0  0  0  0  0  0  0
   59.6370   30.2440   48.9570 C   0  0  0  0  0  0  0  0  0  0  0  0
   59.0308   29.8172   49.7696 H   0  0  0  0  0  0  0  0  0  0  0  0
   60.6694   29.8725   49.0356 H   0  0  0  0  0  0  0  0  0  0  0  0
   59.6352   31.3412   49.0356 H   0  0  0  0  0  0  0  0  0  0  0  0
   58.9540   30.6420   46.5540 N   0  0  0  0  0  0  0  0  0  0  0  0
   59.4030   32.0050   46.4740 C   0  0  0  0  0  0  0  0  0  0  0  0
   58.5120   33.0210   46.1050 C   0  0  0  0  0  0  0  0  0  0  0  0
   57.4603   32.7782   45.8927 H   0  0  0  0  0  0  0  0  0  0  0  0
   58.9560   34.3420   46.0060 C   0  0  0  0  0  0  0  0  0  0  0  0
   58.2547   35.1355   45.7085 H   0  0  0  0  0  0  0  0  0  0  0  0
   60.2890   34.6580   46.2840 C   0  0  0  0  0  0  0  0  0  0  0  0
   60.6351   35.6984   46.1956 H   0  0  0  0  0  0  0  0  0  0  0  0
   61.1890   33.6520   46.6760 C   0  0  0  0  0  0  0  0  0  0  0  0
   62.5990   33.9980   46.9620 C   0  0  0  0  0  0  0  0  0  0  0  0
   63.4100   34.1040   46.0040 O   0  0  0  0  0  0  0  0  0  0  0  0
   63.0720   34.2460   48.2920 N   0  0  0  0  0  0  0  0  0  0  0  0
   63.2300   33.2190   49.3140 C   0  0  0  0  0  0  0  0  0  0  0  0
   62.3824   33.5088   49.9524 H   0  0  0  0  0  0  0  0  0  0  0  0
   64.6850   32.8460   49.5350 C   0  0  0  0  0  0  0  0  0  0  0  0
   65.4787   33.3831   48.9951 H   0  0  0  0  0  0  0  0  0  0  0  0
   65.3413   32.7596   50.4135 H   0  0  0  0  0  0  0  0  0  0  0  0
   63.7620   31.8990   48.7850 C   0  0  0  0  0  0  0  0  0  0  0  0
   63.8877   31.7508   47.7023 H   0  0  0  0  0  0  0  0  0  0  0  0
   63.4735   30.8433   48.8958 H   0  0  0  0  0  0  0  0  0  0  0  0
   60.7420   32.3230   46.7480 C   0  0  0  0  0  0  0  0  0  0  0  0
   61.4473   31.5244   47.0215 H   0  0  0  0  0  0  0  0  0  0  0  0
  1  2  1  0
  2  3  1  0
  2  4  2  0
  4  5  1  0
  5  6  2  0
  6  7  1  0
  6  8  1  0
  8  9  2  0
  9 10  1  0
  9 11  1  0
 11 12  1  0
 12 13  2  0
 12 14  1  0
 14 15  1  0
 15 16  2  0
  5 17  1  0
 17 18  1  0
 17 19  2  0
 19 20  1  0
 20 21  1  0
 20 22  1  0
 20 23  1  0
 19 24  1  0
 24 25  1  0
 25 26  2  0
 26 27  1  0
 26 28  1  0
 28 29  1  0
 28 30  2  0
 30 31  1  0
 30 32  1  0
 32 33  1  0
 33 34  2  0
 33 35  1  0
 35 36  1  0
 36 37  1  0
 36 38  1  0
 38 39  1  0
 38 40  1  0
 38 41  1  0
 41 42  1  0
 41 43  1  0
 32 44  2  0
 44 45  1  0
 24  4  1  0
 44 25  1  0
 15  8  1  0
 41 36  1  0
M  CHG  4  10  -1  11  -1  14  -1  35  -1
M  END
>  <UniqueID>  (7) 
7

>  <SMILES>  (7) 
C=c1/c(=C/c2c([O-])[n-]c(=O)[n-]c2=O)cc(C)n1-c1cccc(C(=O)[N-]C2CC2)c1

>  <Energy>  (7) 
360.89070087129454

>  <Genealogy>  (7) 
C=c1c(=Cc2c([O-])[n-]c(=O)[n-]c2=O)cc(C)n1-c1cccc(C(=O)[N-]C2CC2)c1 (protonated)
C=c1/c(=C/c2c([O-])[n-]c(=O)[n-]c2=O)cc(C)n1-c1cccc(C(=O)[N-]C2CC2)c1 (cis-trans isomerization)
C=c1/c(=C/c2c([O-])[n-]c(=O)[n-]c2=O)cc(C)n1-c1cccc(C(=O)[N-]C2CC2)c1 (3D coordinates assigned)
C=c1/c(=C/c2c([O-])[n-]c(=O)[n-]c2=O)cc(C)n1-c1cccc(C(=O)[N-]C2CC2)c1 (nonaromatic ring conformer: 360.89070087129454 kcal/mol)

>  <smiles>  (7) 
C=c1c(=Cc2c(O)[nH]c(=O)[nH]c2=O)cc(C)n1-c1cccc(C(=O)NC2CC2)c1

>  <score_type>  (7) 
oracle

>  <origin>  (7) 
adg

>  <m_score__min__energy>  (7) 
-17.260000000000002

>  <m_primary>  (7) 
energy

$$$$
7:0
     RDKit          3D

 50 53  0  0  0  0  0  0  0  0999 V2000
   61.4377   35.0234   48.7864 H   0  0  0  0  0  0  0  0  0  0  0  0
   60.5430   34.4150   48.5880 C   0  0  0  0  0  0  0  0  0  0  0  0
   59.8680   34.5650   47.4200 N   0  0  0  0  0  0  0  0  0  0  0  0
   58.7560   33.8320   47.1330 C   0  0  0  0  0  0  0  0  0  0  0  0
   58.1270   33.9860   46.0030 N   0  0  0  0  0  0  0  0  0  0  0  0
   58.7230   33.7980   44.6810 C   0  0  0  0  0  0  0  0  0  0  0  0
   58.6158   34.7262   44.1006 H   0  0  0  0  0  0  0  0  0  0  0  0
   59.7870   33.5473   44.8035 H   0  0  0  0  0  0  0  0  0  0  0  0
   58.0400   32.6740   43.9480 C   0  0  0  0  0  0  0  0  0  0  0  0
   57.9040   32.7110   42.5530 C   0  0  0  0  0  0  0  0  0  0  0  0
   58.2796   33.5773   41.9886 H   0  0  0  0  0  0  0  0  0  0  0  0
   57.2940   31.6530   41.8780 C   0  0  0  0  0  0  0  0  0  0  0  0
   57.1935   31.6882   40.7832 H   0  0  0  0  0  0  0  0  0  0  0  0
   56.8100   30.5490   42.5850 C   0  0  0  0  0  0  0  0  0  0  0  0
   56.2670   29.5190   41.8890 F   0  0  0  0  0  0  0  0  0  0  0  0
   56.9260   30.5000   43.9900 C   0  0  0  0  0  0  0  0  0  0  0  0
   56.4250   29.3400   44.7700 C   0  0  0  0  0  0  0  0  0  0  0  0
   55.1820   29.1840   44.9150 O   0  0  0  0  0  0  0  0  0  0  0  0
   57.3420   28.3220   45.3330 C   0  0  0  0  0  0  0  0  0  0  0  0
   58.7260   28.5760   45.3190 C   0  0  0  0  0  0  0  0  0  0  0  0
   59.1003   29.5355   44.9327 H   0  0  0  0  0  0  0  0  0  0  0  0
   59.6280   27.6210   45.7910 C   0  0  0  0  0  0  0  0  0  0  0  0
   60.7075   27.8321   45.7798 H   0  0  0  0  0  0  0  0  0  0  0  0
   59.1620   26.3990   46.2770 C   0  0  0  0  0  0  0  0  0  0  0  0
   59.8748   25.6446   46.6415 H   0  0  0  0  0  0  0  0  0  0  0  0
   57.7920   26.1330   46.3010 C   0  0  0  0  0  0  0  0  0  0  0  0
   57.4315   25.1674   46.6852 H   0  0  0  0  0  0  0  0  0  0  0  0
   56.8700   27.0850   45.8400 C   0  0  0  0  0  0  0  0  0  0  0  0
   55.4690   26.7980   45.9370 N   0  0  0  0  0  0  0  0  0  0  0  0
   55.0800   26.3460   46.7960 H   0  0  0  0  0  0  0  0  0  0  0  0
   54.7890   27.0920   45.2030 H   0  0  0  0  0  0  0  0  0  0  0  0
   57.5550   31.5650   44.6590 C   0  0  0  0  0  0  0  0  0  0  0  0
   57.6683   31.5287   45.7525 H   0  0  0  0  0  0  0  0  0  0  0  0
   58.2830   32.8990   48.0630 C   0  0  0  0  0  0  0  0  0  0  0  0
   57.3818   32.3084   47.8413 H   0  0  0  0  0  0  0  0  0  0  0  0
   58.9610   32.7180   49.2800 C   0  0  0  0  0  0  0  0  0  0  0  0
   58.4920   31.7590   50.2480 N   0  0  0  0  0  0  0  0  0  0  0  0
   59.1300   30.6340   50.6380 C   0  0  0  0  0  0  0  0  0  0  0  0
   60.1120   30.2967   50.2749 H   0  0  0  0  0  0  0  0  0  0  0  0
   58.3470   29.9760   51.5680 C   0  0  0  0  0  0  0  0  0  0  0  0
   58.5632   29.0258   52.0783 H   0  0  0  0  0  0  0  0  0  0  0  0
   57.2320   30.7790   51.7130 C   0  0  0  0  0  0  0  0  0  0  0  0
   56.0370   30.4810   52.5590 C   0  0  0  0  0  0  0  0  0  0  0  0
   56.3135   30.5500   53.6214 H   0  0  0  0  0  0  0  0  0  0  0  0
   55.2416   31.2083   52.3392 H   0  0  0  0  0  0  0  0  0  0  0  0
   55.6762   29.4654   52.3392 H   0  0  0  0  0  0  0  0  0  0  0  0
   57.3380   31.8410   50.8950 N   0  0  0  0  0  0  0  0  0  0  0  0
   56.6390   32.6120   50.7980 H   0  0  0  0  0  0  0  0  0  0  0  0
   60.1050   33.4910   49.5380 C   0  0  0  0  0  0  0  0  0  0  0  0
   60.6530   33.3688   50.4839 H   0  0  0  0  0  0  0  0  0  0  0  0
  1  2  1  0
  2  3  1  0
  3  4  1  0
  4  5  2  0
  5  6  1  0
  6  7  1  0
  6  8  1  0
  6  9  1  0
  9 10  2  0
 10 11  1  0
 10 12  1  0
 12 13  1  0
 12 14  2  0
 14 15  1  0
 14 16  1  0
 16 17  1  0
 17 18  2  0
 17 19  1  0
 19 20  2  0
 20 21  1  0
 20 22  1  0
 22 23  1  0
 22 24  2  0
 24 25  1  0
 24 26  1  0
 26 27  1  0
 26 28  2  0
 28 29  1  0
 29 30  1  0
 29 31  1  0
 16 32  2  0
 32 33  1  0
  4 34  1  0
 34 35  1  0
 34 36  2  0
 36 37  1  0
 37 38  1  0
 38 39  1  0
 38 40  2  0
 40 41  1  0
 40 42  1  0
 42 43  1  0
 43 44  1  0
 43 45  1  0
 43 46  1  0
 42 47  2  0
 47 48  1  0
 36 49  1  0
 49 50  1  0
 49  2  2  0
 32  9  1  0
 47 37  1  0
 28 19  1  0
M  CHG  2   3  -1  47   1
M  END
>  <UniqueID>  (8) 
8

>  <SMILES>  (8) 
Cc1ccn(-c2cc[n-]/c(=N\Cc3ccc(F)c(C(=O)c4ccccc4N)c3)c2)[nH+]1

>  <Energy>  (8) 
96.24149445261457

>  <Genealogy>  (8) 
Cc1ccn(-c2cc[n-]c(=NCc3ccc(F)c(C(=O)c4ccccc4N)c3)c2)[nH+]1 (protonated)
Cc1ccn(-c2cc[n-]/c(=N\Cc3ccc(F)c(C(=O)c4ccccc4N)c3)c2)[nH+]1 (cis-trans isomerization)
Cc1ccn(-c2cc[n-]/c(=N\Cc3ccc(F)c(C(=O)c4ccccc4N)c3)c2)[nH+]1 (3D coordinates assigned)
Cc1ccn(-c2cc[n-]/c(=N\Cc3ccc(F)c(C(=O)c4ccccc4N)c3)c2)[nH+]1 (optimized conformer: 96.24149445261457 kcal/mol)

>  <smiles>  (8) 
Cc1ccn(-c2cc[nH]c(=NCc3ccc(F)c(C(=O)c4ccccc4N)c3)c2)n1

>  <score_type>  (8) 
oracle

>  <origin>  (8) 
adg

>  <m_score__min__energy>  (8) 
-10.18

>  <m_primary>  (8) 
energy

$$$$
8:0
     RDKit          3D

 62 65  0  0  0  0  0  0  0  0999 V2000
   57.2810   28.2650   44.7360 C   0  0  0  0  0  0  0  0  0  0  0  0
   57.8790   27.4210   45.5920 C   0  0  0  0  0  0  0  0  0  0  0  0
   57.8470   26.0150   45.5750 C   0  0  0  0  0  0  0  0  0  0  0  0
   57.1620   25.1460   44.8050 C   0  0  0  0  0  0  0  0  0  0  0  0
   55.7920   24.6720   45.0430 C   0  0  0  0  0  0  0  0  0  0  0  0
   55.4100   23.3960   44.8730 N   0  0  0  0  0  0  0  0  0  0  0  0
   54.1320   23.3900   45.3150 C   0  0  0  0  0  0  0  0  0  0  0  0
   53.4130   22.3570   45.2970 O   0  0  0  0  0  0  0  0  0  0  0  0
   53.6890   24.5790   45.7830 N   0  0  0  0  0  0  0  0  0  0  0  0
   54.7580   25.3760   45.6190 C   0  0  0  0  0  0  0  0  0  0  0  0
   54.7940   26.7110   46.0030 O   0  0  0  0  0  0  0  0  0  0  0  0
   58.7230   25.5970   46.5640 C   0  0  0  0  0  0  0  0  0  0  0  0
   59.2330   26.7300   47.1570 C   0  0  0  0  0  0  0  0  0  0  0  0
   60.2220   26.7190   48.2850 C   0  0  0  0  0  0  0  0  0  0  0  0
   58.7050   27.8370   46.5870 N   0  0  0  0  0  0  0  0  0  0  0  0
   59.0640   29.1930   46.9080 C   0  0  0  0  0  0  0  0  0  0  0  0
   58.5070   29.7980   48.0420 C   0  0  0  0  0  0  0  0  0  0  0  0
   58.8000   31.1250   48.3550 C   0  0  0  0  0  0  0  0  0  0  0  0
   59.6400   31.8810   47.5230 C   0  0  0  0  0  0  0  0  0  0  0  0
   59.9270   33.3050   47.8170 C   0  0  0  0  0  0  0  0  0  0  0  0
   59.2790   34.1870   47.1920 O   0  0  0  0  0  0  0  0  0  0  0  0
   60.9290   33.6840   48.7970 N   0  0  1  0  0  0  0  0  0  0  0  0
   61.0920   32.6760   49.8670 C   0  0  0  0  0  0  0  0  0  0  0  0
   61.8590   31.4130   49.4320 C   0  0  0  0  0  0  0  0  0  0  0  0
   63.1420   31.6760   48.6150 C   0  0  2  0  0  0  0  0  0  0  0  0
   64.3570   31.7010   49.4850 N   0  0  0  0  0  0  0  0  0  0  0  0
   64.1810   31.1570   50.8410 C   0  0  0  0  0  0  0  0  0  0  0  0
   64.9560   33.0470   49.5550 C   0  0  0  0  0  0  0  0  0  0  0  0
   63.0030   32.8590   47.6240 C   0  0  0  0  0  0  0  0  0  0  0  0
   62.2140   34.0580   48.1750 C   0  0  0  0  0  0  0  0  0  0  0  0
   60.1960   31.2790   46.3820 C   0  0  0  0  0  0  0  0  0  0  0  0
   59.9410   29.9310   46.0820 C   0  0  0  0  0  0  0  0  0  0  0  0
   60.5740   29.3230   44.8620 C   0  0  0  0  0  0  0  0  0  0  0  0
   57.3905   29.3515   44.8681 H   0  0  0  0  0  0  0  0  0  0  0  0
   56.6816   27.8699   43.9026 H   0  0  0  0  0  0  0  0  0  0  0  0
   57.6771   24.7552   43.9151 H   0  0  0  0  0  0  0  0  0  0  0  0
   58.9652   24.5564   46.8258 H   0  0  0  0  0  0  0  0  0  0  0  0
   59.6840   26.7250   49.2444 H   0  0  0  0  0  0  0  0  0  0  0  0
   60.8436   25.8139   48.2188 H   0  0  0  0  0  0  0  0  0  0  0  0
   60.8636   27.6101   48.2188 H   0  0  0  0  0  0  0  0  0  0  0  0
   57.8323   29.2211   48.6916 H   0  0  0  0  0  0  0  0  0  0  0  0
   58.3704   31.5816   49.2589 H   0  0  0  0  0  0  0  0  0  0  0  0
   60.5800   34.5410   49.2870 H   0  0  0  0  0  0  0  0  0  0  0  0
   60.0920   32.3716   50.2096 H   0  0  0  0  0  0  0  0  0  0  0  0
   61.6879   33.1505   50.6606 H   0  0  0  0  0  0  0  0  0  0  0  0
   61.1839   30.7986   48.8182 H   0  0  0  0  0  0  0  0  0  0  0  0
   62.1819   30.9159   50.3586 H   0  0  0  0  0  0  0  0  0  0  0  0
   63.2945   30.8144   47.9484 H   0  0  0  0  0  0  0  0  0  0  0  0
   64.4313   31.9307   51.5818 H   0  0  0  0  0  0  0  0  0  0  0  0
   63.1355   30.8433   50.9774 H   0  0  0  0  0  0  0  0  0  0  0  0
   64.8446   30.2904   50.9774 H   0  0  0  0  0  0  0  0  0  0  0  0
   65.0849   33.3366   50.6083 H   0  0  0  0  0  0  0  0  0  0  0  0
   65.9355   33.0389   49.0544 H   0  0  0  0  0  0  0  0  0  0  0  0
   64.2944   33.7693   49.0544 H   0  0  0  0  0  0  0  0  0  0  0  0
   62.4896   32.4941   46.7222 H   0  0  0  0  0  0  0  0  0  0  0  0
   64.0219   33.2199   47.4201 H   0  0  0  0  0  0  0  0  0  0  0  0
   62.0102   34.7510   47.3454 H   0  0  0  0  0  0  0  0  0  0  0  0
   62.8316   34.5168   48.9612 H   0  0  0  0  0  0  0  0  0  0  0  0
   60.8395   31.8712   45.7148 H   0  0  0  0  0  0  0  0  0  0  0  0
   61.3356   28.5915   45.1700 H   0  0  0  0  0  0  0  0  0  0  0  0
   59.8027   28.8185   44.2615 H   0  0  0  0  0  0  0  0  0  0  0  0
   61.0470   30.1140   44.2615 H   0  0  0  0  0  0  0  0  0  0  0  0
  1  2  2  0
  2  3  1  0
  3  4  2  3
  4  5  1  0
  5  6  1  0
  6  7  1  0
  7  8  2  0
  7  9  1  0
  9 10  1  0
 10 11  1  0
  3 12  1  0
 12 13  2  0
 13 14  1  0
 13 15  1  0
 15 16  1  0
 16 17  2  0
 17 18  1  0
 18 19  2  0
 19 20  1  0
 20 21  2  0
 20 22  1  0
 22 23  1  0
 23 24  1  0
 24 25  1  0
 25 26  1  0
 26 27  1  0
 26 28  1  0
 25 29  1  0
 29 30  1  0
 19 31  1  0
 31 32  2  0
 32 33  1  0
 15  2  1  0
 32 16  1  0
 10  5  2  0
 30 22  1  0
  1 34  1  0
  1 35  1  0
  4 36  1  0
 12 37  1  0
 14 38  1  0
 14 39  1  0
 14 40  1  0
 17 41  1  0
 18 42  1  0
 22 43  1  1
 23 44  1  0
 23 45  1  0
 24 46  1  0
 24 47  1  0
 25 48  1  6
 27 49  1  0
 27 50  1  0
 27 51  1  0
 28 52  1  0
 28 53  1  0
 28 54  1  0
 29 55  1  0
 29 56  1  0
 30 57  1  0
 30 58  1  0
 31 59  1  0
 33 60  1  0
 33 61  1  0
 33 62  1  0
M  CHG  4   6  -1   9  -1  11  -1  22   1
M  END
>  <UniqueID>  (9) 
9

>  <SMILES>  (9) 
C=c1c(=Cc2[n-]c(=O)[n-]c2[O-])cc(C)n1-c1ccc(C(=O)[NH+]2CCC(N(C)C)CC2)cc1C

>  <Energy>  (9) 
159.97180760909148

>  <Genealogy>  (9) 
C=c1c(=Cc2[n-]c(=O)[n-]c2[O-])cc(C)n1-c1ccc(C(=O)[NH+]2CCC(N(C)C)CC2)cc1C (protonated)
C=c1c(=Cc2[n-]c(=O)[n-]c2[O-])cc(C)n1-c1ccc(C(=O)[NH+]2CCC(N(C)C)CC2)cc1C (3D coordinates assigned)
C=c1c(=Cc2[n-]c(=O)[n-]c2[O-])cc(C)n1-c1ccc(C(=O)[NH+]2CCC(N(C)C)CC2)cc1C (nonaromatic ring conformer: 159.97180760909148 kcal/mol)

>  <smiles>  (9) 
C=c1c(=Cc2[nH]c(=O)[nH]c2O)cc(C)n1-c1ccc(C(=O)N2CCC(N(C)C)CC2)cc1C

>  <score_type>  (9) 
oracle

>  <origin>  (9) 
adg

>  <m_score__min__energy>  (9) 
-15.07

>  <m_primary>  (9) 
energy

$$$$
9:0
     RDKit          3D

 21 22  0  0  0  0  0  0  0  0999 V2000
   58.9200   27.4330   47.7100 O   0  0  0  0  0  0  0  0  0  0  0  0
   57.9740   27.7140   46.9260 C   0  0  0  0  0  0  0  0  0  0  0  0
   56.9680   26.7710   46.7110 C   0  0  0  0  0  0  0  0  0  0  0  0
   55.9180   27.0960   45.8590 C   0  0  0  0  0  0  0  0  0  0  0  0
   54.8980   26.1820   45.6260 O   0  0  0  0  0  0  0  0  0  0  0  0
   55.8890   28.3090   45.2560 N   0  0  0  0  0  0  0  0  0  0  0  0
   56.8720   29.2240   45.4640 C   0  0  0  0  0  0  0  0  0  0  0  0
   56.8090   30.3340   44.8680 O   0  0  0  0  0  0  0  0  0  0  0  0
   57.9200   28.9350   46.3010 N   0  0  0  0  0  0  0  0  0  0  0  0
   58.9610   29.9090   46.5210 C   0  0  0  0  0  0  0  0  0  0  0  0
   60.3100   29.5240   46.4860 C   0  0  0  0  0  0  0  0  0  0  0  0
   61.3180   30.4680   46.6980 C   0  0  0  0  0  0  0  0  0  0  0  0
   60.9910   31.8050   46.9470 C   0  0  0  0  0  0  0  0  0  0  0  0
   62.2870   32.9640   47.2100 Cl  0  0  0  0  0  0  0  0  0  0  0  0
   59.6430   32.1990   46.9850 C   0  0  0  0  0  0  0  0  0  0  0  0
   59.1880   33.8690   47.2970 Cl  0  0  0  0  0  0  0  0  0  0  0  0
   58.6340   31.2510   46.7720 C   0  0  0  0  0  0  0  0  0  0  0  0
   57.0049   25.7894   47.2060 H   0  0  0  0  0  0  0  0  0  0  0  0
   60.5750   28.4744   46.2908 H   0  0  0  0  0  0  0  0  0  0  0  0
   62.3732   30.1585   46.6690 H   0  0  0  0  0  0  0  0  0  0  0  0
   57.5787   31.5600   46.8016 H   0  0  0  0  0  0  0  0  0  0  0  0
  1  2  2  0
  2  3  1  0
  3  4  2  0
  4  5  1  0
  4  6  1  0
  6  7  1  0
  7  8  2  0
  7  9  1  0
  9 10  1  0
 10 11  2  0
 11 12  1  0
 12 13  2  0
 13 14  1  0
 13 15  1  0
 15 16  1  0
 15 17  2  0
  9  2  1  0
 17 10  1  0
  3 18  1  0
 11 19  1  0
 12 20  1  0
 17 21  1  0
M  CHG  2   5  -1   6  -1
M  END
>  <UniqueID>  (10) 
10

>  <SMILES>  (10) 
O=c1cc([O-])[n-]c(=O)n1-c1ccc(Cl)c(Cl)c1

>  <Energy>  (10) 
33.80630072946011

>  <Genealogy>  (10) 
O=c1cc([O-])[n-]c(=O)n1-c1ccc(Cl)c(Cl)c1 (protonated)
O=c1cc([O-])[n-]c(=O)n1-c1ccc(Cl)c(Cl)c1 (3D coordinates assigned)
O=c1cc([O-])[n-]c(=O)n1-c1ccc(Cl)c(Cl)c1 (optimized conformer: 33.80630072946011 kcal/mol)

>  <smiles>  (10) 
O=c1cc(O)[nH]c(=O)n1-c1ccc(Cl)c(Cl)c1

>  <score_type>  (10) 
oracle

>  <origin>  (10) 
adg

>  <m_score__min__energy>  (10) 
-10.640000000000001

>  <m_primary>  (10) 
energy

$$$$
10:0
     RDKit          3D

 49 51  0  0  0  0  0  0  0  0999 V2000
   58.5190   30.9930   46.9090 C   0  0  0  0  0  0  0  0  0  0  0  0
   58.1480   31.3310   45.4800 C   0  0  0  0  0  0  0  0  0  0  0  0
   57.6670   30.3160   44.6090 C   0  0  0  0  0  0  0  0  0  0  0  0
   57.5730   28.9000   45.0310 C   0  0  0  0  0  0  0  0  0  0  0  0
   58.7450   28.1500   45.2170 C   0  0  0  0  0  0  0  0  0  0  0  0
   58.6720   26.8200   45.6360 C   0  0  0  0  0  0  0  0  0  0  0  0
   57.4280   26.2200   45.8920 C   0  0  0  0  0  0  0  0  0  0  0  0
   57.3560   24.7910   46.3930 C   0  0  0  0  0  0  0  0  0  0  0  0
   56.3950   23.9440   45.6500 N   0  0  0  0  0  0  0  0  0  0  0  0
   56.3130   22.5420   46.1260 C   0  0  0  0  0  0  0  0  0  0  0  0
   56.9390   21.5640   45.1230 C   0  0  0  0  0  0  0  0  0  0  0  0
   56.2550   21.6200   43.8110 N   0  0  0  0  0  0  0  0  0  0  0  0
   57.1380   21.1080   42.7510 C   0  0  0  0  0  0  0  0  0  0  0  0
   55.7220   22.9640   43.4680 C   0  0  0  0  0  0  0  0  0  0  0  0
   56.4860   24.0890   44.1800 C   0  0  0  0  0  0  0  0  0  0  0  0
   56.2550   26.9580   45.6580 C   0  0  0  0  0  0  0  0  0  0  0  0
   56.3240   28.2900   45.2390 C   0  0  0  0  0  0  0  0  0  0  0  0
   55.1460   29.0060   45.0440 O   0  0  0  0  0  0  0  0  0  0  0  0
   57.2840   30.6430   43.3010 C   0  0  0  0  0  0  0  0  0  0  0  0
   57.3980   31.9490   42.8360 C   0  0  0  0  0  0  0  0  0  0  0  0
   57.9100   32.9440   43.6640 C   0  0  0  0  0  0  0  0  0  0  0  0
   58.3030   32.6520   44.9790 C   0  0  0  0  0  0  0  0  0  0  0  0
   58.9820   33.9620   45.9620 S   0  0  0  0  0  0  0  0  0  0  0  0
   60.5480   33.5130   46.5410 N   0  0  0  0  0  0  0  0  0  0  0  0
   58.0700   34.2460   47.1230 O   0  0  0  0  0  0  0  0  0  0  0  0
   59.1220   35.2120   45.1380 O   0  0  0  0  0  0  0  0  0  0  0  0
   57.8855   31.5702   47.5986 H   0  0  0  0  0  0  0  0  0  0  0  0
   58.3656   29.9178   47.0831 H   0  0  0  0  0  0  0  0  0  0  0  0
   59.5753   31.2456   47.0831 H   0  0  0  0  0  0  0  0  0  0  0  0
   59.7258   28.6124   45.0317 H   0  0  0  0  0  0  0  0  0  0  0  0
   59.5960   26.2375   45.7666 H   0  0  0  0  0  0  0  0  0  0  0  0
   58.3559   24.3414   46.3032 H   0  0  0  0  0  0  0  0  0  0  0  0
   57.0054   24.8344   47.4347 H   0  0  0  0  0  0  0  0  0  0  0  0
   56.8462   22.4593   47.0846 H   0  0  0  0  0  0  0  0  0  0  0  0
   55.2507   22.2810   46.2417 H   0  0  0  0  0  0  0  0  0  0  0  0
   57.9990   21.8235   44.9848 H   0  0  0  0  0  0  0  0  0  0  0  0
   56.8342   20.5449   45.5235 H   0  0  0  0  0  0  0  0  0  0  0  0
   58.0043   20.6057   43.2062 H   0  0  0  0  0  0  0  0  0  0  0  0
   56.5844   20.3908   42.1272 H   0  0  0  0  0  0  0  0  0  0  0  0
   57.4854   21.9448   42.1272 H   0  0  0  0  0  0  0  0  0  0  0  0
   55.8056   23.1116   42.3812 H   0  0  0  0  0  0  0  0  0  0  0  0
   54.6735   23.0061   43.7979 H   0  0  0  0  0  0  0  0  0  0  0  0
   57.5435   24.0518   43.8796 H   0  0  0  0  0  0  0  0  0  0  0  0
   56.0380   25.0522   43.8944 H   0  0  0  0  0  0  0  0  0  0  0  0
   55.2738   26.4833   45.8059 H   0  0  0  0  0  0  0  0  0  0  0  0
   56.8899   29.8601   42.6364 H   0  0  0  0  0  0  0  0  0  0  0  0
   57.0828   32.1961   41.8115 H   0  0  0  0  0  0  0  0  0  0  0  0
   58.0077   33.9713   43.2829 H   0  0  0  0  0  0  0  0  0  0  0  0
   61.2480   34.0110   45.9460 H   0  0  0  0  0  0  0  0  0  0  0  0
  1  2  1  0
  2  3  2  0
  3  4  1  0
  4  5  2  0
  5  6  1  0
  6  7  2  0
  7  8  1  0
  8  9  1  0
  9 10  1  0
 10 11  1  0
 11 12  1  0
 12 13  1  0
 12 14  1  0
 14 15  1  0
  7 16  1  0
 16 17  2  0
 17 18  1  0
  3 19  1  0
 19 20  2  0
 20 21  1  0
 21 22  2  0
 22 23  1  0
 23 24  1  0
 23 25  2  0
 23 26  2  0
 22  2  1  0
 17  4  1  0
 15  9  1  0
  1 27  1  0
  1 28  1  0
  1 29  1  0
  5 30  1  0
  6 31  1  0
  8 32  1  0
  8 33  1  0
 10 34  1  0
 10 35  1  0
 11 36  1  0
 11 37  1  0
 13 38  1  0
 13 39  1  0
 13 40  1  0
 14 41  1  0
 14 42  1  0
 15 43  1  0
 15 44  1  0
 16 45  1  0
 19 46  1  0
 20 47  1  0
 21 48  1  0
 24 49  1  0
M  CHG  2  18  -1  24  -1
M  END
>  <UniqueID>  (11) 
11

>  <SMILES>  (11) 
Cc1c(-c2ccc(CN3CCN(C)CC3)cc2[O-])cccc1S([NH-])(=O)=O

>  <Energy>  (11) 
75.07072611019001

>  <Genealogy>  (11) 
Cc1c(-c2ccc(CN3CCN(C)CC3)cc2[O-])cccc1S([NH-])(=O)=O (protonated)
Cc1c(-c2ccc(CN3CCN(C)CC3)cc2[O-])cccc1S([NH-])(=O)=O (3D coordinates assigned)
Cc1c(-c2ccc(CN3CCN(C)CC3)cc2[O-])cccc1S([NH-])(=O)=O (nonaromatic ring conformer: 75.07072611019001 kcal/mol)

>  <smiles>  (11) 
Cc1c(-c2ccc(CN3CCN(C)CC3)cc2O)cccc1S(N)(=O)=O

>  <score_type>  (11) 
oracle

>  <origin>  (11) 
adg

>  <m_score__min__energy>  (11) 
-13.93

>  <m_primary>  (11) 
energy

$$$$
11:0
     RDKit          3D

 41 43  0  0  0  0  0  0  0  0999 V2000
   54.7530   28.2490   44.4920 H   0  0  0  0  0  0  0  0  0  0  0  0
   55.2220   29.1190   44.7030 O   0  0  0  0  0  0  0  0  0  0  0  0
   56.5000   29.1830   45.2610 C   0  0  0  0  0  0  0  0  0  0  0  0
   57.1390   30.3770   45.2680 N   0  0  0  0  0  0  0  0  0  0  0  0
   58.3640   30.5340   45.8260 C   0  0  0  0  0  0  0  0  0  0  0  0
   58.9060   31.6720   45.7940 O   0  0  0  0  0  0  0  0  0  0  0  0
   58.9990   29.4710   46.4150 N   0  0  0  0  0  0  0  0  0  0  0  0
   60.3410   29.6580   47.0040 C   0  0  0  0  0  0  0  0  0  0  0  0
   60.8981   28.7116   46.9417 H   0  0  0  0  0  0  0  0  0  0  0  0
   60.8664   30.4467   46.4454 H   0  0  0  0  0  0  0  0  0  0  0  0
   60.2340   30.0740   48.4440 C   0  0  0  0  0  0  0  0  0  0  0  0
   59.6605   29.4493   49.1446 H   0  0  0  0  0  0  0  0  0  0  0  0
   60.8230   31.1900   48.8910 C   0  0  0  0  0  0  0  0  0  0  0  0
   60.7403   31.4250   49.9624 H   0  0  0  0  0  0  0  0  0  0  0  0
   61.5800   32.1280   48.0280 C   0  0  0  0  0  0  0  0  0  0  0  0
   60.9500   33.1270   47.2560 C   0  0  0  0  0  0  0  0  0  0  0  0
   59.8560   33.2363   47.2898 H   0  0  0  0  0  0  0  0  0  0  0  0
   61.7100   33.9790   46.4480 C   0  0  0  0  0  0  0  0  0  0  0  0
   61.2123   34.7613   45.8562 H   0  0  0  0  0  0  0  0  0  0  0  0
   63.0980   33.8400   46.3900 C   0  0  0  0  0  0  0  0  0  0  0  0
   63.6929   34.5136   45.7557 H   0  0  0  0  0  0  0  0  0  0  0  0
   63.7300   32.8450   47.1380 C   0  0  0  0  0  0  0  0  0  0  0  0
   64.8232   32.7331   47.0896 H   0  0  0  0  0  0  0  0  0  0  0  0
   62.9770   31.9910   47.9480 C   0  0  0  0  0  0  0  0  0  0  0  0
   63.4817   31.2045   48.5283 H   0  0  0  0  0  0  0  0  0  0  0  0
   58.3980   28.2360   46.4120 C   0  0  0  0  0  0  0  0  0  0  0  0
   58.9920   27.2410   46.9150 O   0  0  0  0  0  0  0  0  0  0  0  0
   57.1270   28.0600   45.8320 C   0  0  0  0  0  0  0  0  0  0  0  0
   56.4800   26.7260   45.8020 C   0  0  0  0  0  0  0  0  0  0  0  0
   55.2360   26.6470   45.9940 O   0  0  0  0  0  0  0  0  0  0  0  0
   57.2520   25.4770   45.4390 C   0  0  0  0  0  0  0  0  0  0  0  0
   58.0216   25.5228   46.2236 H   0  0  0  0  0  0  0  0  0  0  0  0
   56.3920   24.2230   45.2710 C   0  0  0  0  0  0  0  0  0  0  0  0
   56.7205   23.3690   45.8815 H   0  0  0  0  0  0  0  0  0  0  0  0
   55.3282   24.2379   45.5505 H   0  0  0  0  0  0  0  0  0  0  0  0
   56.8000   24.1330   43.8090 C   0  0  0  0  0  0  0  0  0  0  0  0
   57.3826   23.2336   43.5607 H   0  0  0  0  0  0  0  0  0  0  0  0
   56.0341   24.0672   43.0222 H   0  0  0  0  0  0  0  0  0  0  0  0
   57.6390   25.3930   43.9600 C   0  0  0  0  0  0  0  0  0  0  0  0
   58.7142   25.2396   43.7856 H   0  0  0  0  0  0  0  0  0  0  0  0
   57.4759   26.2525   43.2932 H   0  0  0  0  0  0  0  0  0  0  0  0
  1  2  1  0
  2  3  1  0
  3  4  1  0
  4  5  1  0
  5  6  2  0
  5  7  1  0
  7  8  1  0
  8  9  1  0
  8 10  1  0
  8 11  1  0
 11 12  1  0
 11 13  2  0
 13 14  1  0
 13 15  1  0
 15 16  2  0
 16 17  1  0
 16 18  1  0
 18 19  1  0
 18 20  2  0
 20 21  1  0
 20 22  1  0
 22 23  1  0
 22 24  2  0
 24 25  1  0
  7 26  1  0
 26 27  2  0
 26 28  1  0
 28 29  1  0
 29 30  2  0
 29 31  1  0
 31 32  1  0
 31 33  1  0
 33 34  1  0
 33 35  1  0
 33 36  1  0
 36 37  1  0
 36 38  1  0
 36 39  1  0
 39 40  1  0
 39 41  1  0
 28  3  2  0
 39 31  1  0
 24 15  1  0
M  CHG  1   4  -1
M  END
>  <UniqueID>  (12) 
12

>  <SMILES>  (12) 
O=C(c1c(O)[n-]c(=O)n(C/C=C/c2ccccc2)c1=O)C1CCC1

>  <Energy>  (12) 
114.38474657849301

>  <Genealogy>  (12) 
O=C(c1c(O)[n-]c(=O)n(CC=Cc2ccccc2)c1=O)C1CCC1 (protonated)
O=C(c1c(O)[n-]c(=O)n(C/C=C/c2ccccc2)c1=O)C1CCC1 (cis-trans isomerization)
O=C(c1c(O)[n-]c(=O)n(C/C=C/c2ccccc2)c1=O)C1CCC1 (3D coordinates assigned)
O=C(c1c(O)[n-]c(=O)n(C/C=C/c2ccccc2)c1=O)C1CCC1 (nonaromatic ring conformer: 114.38474657849301 kcal/mol)

>  <smiles>  (12) 
O=C(c1c(O)[nH]c(=O)n(CC=Cc2ccccc2)c1=O)C1CCC1

>  <score_type>  (12) 
oracle

>  <origin>  (12) 
adg

>  <m_score__min__energy>  (12) 
-10.07

>  <m_primary>  (12) 
energy

$$$$
12:0
     RDKit          3D

 41 43  0  0  0  0  0  0  0  0999 V2000
   60.6820   34.5440   49.9670 O   0  0  0  0  0  0  0  0  0  0  0  0
   60.1720   33.4870   49.5040 C   0  0  0  0  0  0  0  0  0  0  0  0
   60.3750   32.1930   50.2340 C   0  0  0  0  0  0  0  0  0  0  0  0
   59.1190   31.8280   50.9620 C   0  0  0  0  0  0  0  0  0  0  0  0
   58.5310   30.6200   50.8900 N   0  0  0  0  0  0  0  0  0  0  0  0
   57.4060   30.7790   51.6220 C   0  0  0  0  0  0  0  0  0  0  0  0
   56.5770   29.8490   51.8010 O   0  0  0  0  0  0  0  0  0  0  0  0
   57.2370   32.0130   52.1420 N   0  0  0  0  0  0  0  0  0  0  0  0
   58.3270   32.6670   51.7090 C   0  0  0  0  0  0  0  0  0  0  0  0
   58.5900   34.0050   51.9810 O   0  0  0  0  0  0  0  0  0  0  0  0
   59.5270   33.5100   48.2220 N   0  0  0  0  0  0  0  0  0  0  0  0
   60.1470   34.2300   47.1090 C   0  0  0  0  0  0  0  0  0  0  0  0
   59.9180   33.4490   45.8140 C   0  0  0  0  0  0  0  0  0  0  0  0
   58.4790   33.1710   45.6380 N   0  0  0  0  0  0  0  0  0  0  0  0
   58.1700   32.5880   44.3120 C   0  0  0  0  0  0  0  0  0  0  0  0
   57.8080   31.1170   44.3600 C   0  0  0  0  0  0  0  0  0  0  0  0
   58.8140   30.1370   44.3810 C   0  0  0  0  0  0  0  0  0  0  0  0
   58.4790   28.7810   44.4490 C   0  0  0  0  0  0  0  0  0  0  0  0
   57.1380   28.3920   44.4900 C   0  0  0  0  0  0  0  0  0  0  0  0
   56.1280   29.3590   44.4570 C   0  0  0  0  0  0  0  0  0  0  0  0
   54.7950   28.9710   44.4940 O   0  0  0  0  0  0  0  0  0  0  0  0
   56.4600   30.7160   44.3880 C   0  0  0  0  0  0  0  0  0  0  0  0
   57.9460   32.3590   46.7520 C   0  0  0  0  0  0  0  0  0  0  0  0
   58.1280   33.0990   48.0780 C   0  0  0  0  0  0  0  0  0  0  0  0
   60.6243   31.4005   49.5130 H   0  0  0  0  0  0  0  0  0  0  0  0
   61.1977   32.3045   50.9556 H   0  0  0  0  0  0  0  0  0  0  0  0
   59.1230   34.5710   51.3310 H   0  0  0  0  0  0  0  0  0  0  0  0
   59.6958   35.2293   47.0205 H   0  0  0  0  0  0  0  0  0  0  0  0
   61.2268   34.3334   47.2918 H   0  0  0  0  0  0  0  0  0  0  0  0
   60.2809   34.0426   44.9620 H   0  0  0  0  0  0  0  0  0  0  0  0
   60.4654   32.4963   45.8661 H   0  0  0  0  0  0  0  0  0  0  0  0
   57.3224   33.1398   43.8795 H   0  0  0  0  0  0  0  0  0  0  0  0
   59.0825   32.6738   43.7037 H   0  0  0  0  0  0  0  0  0  0  0  0
   59.8714   30.4379   44.3437 H   0  0  0  0  0  0  0  0  0  0  0  0
   59.2726   28.0196   44.4702 H   0  0  0  0  0  0  0  0  0  0  0  0
   56.8763   27.3252   44.5482 H   0  0  0  0  0  0  0  0  0  0  0  0
   55.6630   31.4734   44.3555 H   0  0  0  0  0  0  0  0  0  0  0  0
   56.8752   32.1708   46.5848 H   0  0  0  0  0  0  0  0  0  0  0  0
   58.4923   31.4052   46.7949 H   0  0  0  0  0  0  0  0  0  0  0  0
   57.4814   33.9888   48.0927 H   0  0  0  0  0  0  0  0  0  0  0  0
   57.8550   32.4325   48.9094 H   0  0  0  0  0  0  0  0  0  0  0  0
  1  2  2  0
  2  3  1  0
  3  4  1  0
  4  5  1  0
  5  6  1  0
  6  7  2  0
  6  8  1  0
  8  9  1  0
  9 10  1  0
  2 11  1  0
 11 12  1  0
 12 13  1  0
 13 14  1  0
 14 15  1  0
 15 16  1  0
 16 17  2  0
 17 18  1  0
 18 19  2  0
 19 20  1  0
 20 21  1  0
 20 22  2  0
 14 23  1  0
 23 24  1  0
  9  4  2  0
 24 11  1  0
 22 16  1  0
  3 25  1  0
  3 26  1  0
 10 27  1  0
 12 28  1  0
 12 29  1  0
 13 30  1  0
 13 31  1  0
 15 32  1  0
 15 33  1  0
 17 34  1  0
 18 35  1  0
 19 36  1  0
 22 37  1  0
 23 38  1  0
 23 39  1  0
 24 40  1  0
 24 41  1  0
M  CHG  3   5  -1   8  -1  21  -1
M  END
>  <UniqueID>  (13) 
13

>  <SMILES>  (13) 
O=C(Cc1[n-]c(=O)[n-]c1O)N1CCN(Cc2cccc([O-])c2)CC1

>  <Energy>  (13) 
72.41618990921577

>  <Genealogy>  (13) 
O=C(Cc1[n-]c(=O)[n-]c1O)N1CCN(Cc2cccc([O-])c2)CC1 (protonated)
O=C(Cc1[n-]c(=O)[n-]c1O)N1CCN(Cc2cccc([O-])c2)CC1 (3D coordinates assigned)
O=C(Cc1[n-]c(=O)[n-]c1O)N1CCN(Cc2cccc([O-])c2)CC1 (nonaromatic ring conformer: 72.41618990921577 kcal/mol)

>  <smiles>  (13) 
O=C(Cc1[nH]c(=O)[nH]c1O)N1CCN(Cc2cccc(O)c2)CC1

>  <score_type>  (13) 
oracle

>  <origin>  (13) 
adg

>  <m_score__min__energy>  (13) 
-14.34

>  <m_primary>  (13) 
energy

$$$$
13:0
     RDKit          3D

 55 58  0  0  0  0  0  0  0  0999 V2000
   60.0200   24.8740   46.0030 C   0  0  0  0  0  0  0  0  0  0  0  0
   58.7330   25.6640   45.9660 C   0  0  0  0  0  0  0  0  0  0  0  0
   58.8150   27.0530   45.7720 C   0  0  0  0  0  0  0  0  0  0  0  0
   57.6570   27.8350   45.7380 C   0  0  0  0  0  0  0  0  0  0  0  0
   57.7480   29.3020   45.5260 C   0  0  0  0  0  0  0  0  0  0  0  0
   56.6910   29.9790   45.4090 O   0  0  0  0  0  0  0  0  0  0  0  0
   59.0260   29.9500   45.4040 N   0  0  0  0  0  0  0  0  0  0  0  0
   59.2290   31.3580   45.6170 C   0  0  0  0  0  0  0  0  0  0  0  0
   58.4780   32.2810   44.8750 C   0  0  0  0  0  0  0  0  0  0  0  0
   58.6660   33.6530   45.0560 C   0  0  0  0  0  0  0  0  0  0  0  0
   59.6170   34.1170   45.9660 C   0  0  0  0  0  0  0  0  0  0  0  0
   60.4020   33.2090   46.6970 C   0  0  0  0  0  0  0  0  0  0  0  0
   61.3950   33.6810   47.6280 N   0  0  0  0  0  0  0  0  0  0  0  0
   60.9900   34.3510   48.8660 C   0  0  0  0  0  0  0  0  0  0  0  0
   62.0610   34.1370   49.9400 C   0  0  0  0  0  0  0  0  0  0  0  0
   63.3380   34.5140   49.4600 O   0  0  0  0  0  0  0  0  0  0  0  0
   63.7210   33.6620   48.3960 C   0  0  0  0  0  0  0  0  0  0  0  0
   62.7870   33.8370   47.1950 C   0  0  0  0  0  0  0  0  0  0  0  0
   60.2020   31.8300   46.5160 C   0  0  0  0  0  0  0  0  0  0  0  0
   56.4200   27.2040   45.8830 C   0  0  0  0  0  0  0  0  0  0  0  0
   56.3540   25.8220   46.0720 C   0  0  0  0  0  0  0  0  0  0  0  0
   55.2160   25.2890   46.1940 O   0  0  0  0  0  0  0  0  0  0  0  0
   57.4990   25.0590   46.1170 N   0  0  0  0  0  0  0  0  0  0  0  0
   57.3920   23.5940   46.3060 C   0  0  0  0  0  0  0  0  0  0  0  0
   57.1290   22.8870   44.9970 C   0  0  0  0  0  0  0  0  0  0  0  0
   57.8550   21.7340   44.6480 C   0  0  0  0  0  0  0  0  0  0  0  0
   57.6230   21.0960   43.4260 C   0  0  0  0  0  0  0  0  0  0  0  0
   56.6740   21.6090   42.5380 C   0  0  0  0  0  0  0  0  0  0  0  0
   55.9600   22.7630   42.8670 C   0  0  0  0  0  0  0  0  0  0  0  0
   56.1900   23.4040   44.0880 C   0  0  0  0  0  0  0  0  0  0  0  0
   60.3107   24.6955   47.0488 H   0  0  0  0  0  0  0  0  0  0  0  0
   59.8734   23.9102   45.4936 H   0  0  0  0  0  0  0  0  0  0  0  0
   60.8131   25.4410   45.4936 H   0  0  0  0  0  0  0  0  0  0  0  0
   59.7986   27.5290   45.6458 H   0  0  0  0  0  0  0  0  0  0  0  0
   59.8260   29.3910   45.0300 H   0  0  0  0  0  0  0  0  0  0  0  0
   57.7364   31.9223   44.1461 H   0  0  0  0  0  0  0  0  0  0  0  0
   58.0628   34.3700   44.4797 H   0  0  0  0  0  0  0  0  0  0  0  0
   59.7528   35.1988   46.1118 H   0  0  0  0  0  0  0  0  0  0  0  0
   60.8709   35.4281   48.6773 H   0  0  0  0  0  0  0  0  0  0  0  0
   60.0349   33.9303   49.2135 H   0  0  0  0  0  0  0  0  0  0  0  0
   61.8134   34.7456   50.8222 H   0  0  0  0  0  0  0  0  0  0  0  0
   62.0855   33.0697   50.2051 H   0  0  0  0  0  0  0  0  0  0  0  0
   64.7495   33.9057   48.0914 H   0  0  0  0  0  0  0  0  0  0  0  0
   63.6603   32.6191   48.7405 H   0  0  0  0  0  0  0  0  0  0  0  0
   62.9267   34.8401   46.7657 H   0  0  0  0  0  0  0  0  0  0  0  0
   63.0211   33.0759   46.4361 H   0  0  0  0  0  0  0  0  0  0  0  0
   60.8128   31.1123   47.0833 H   0  0  0  0  0  0  0  0  0  0  0  0
   55.4944   27.7974   45.8482 H   0  0  0  0  0  0  0  0  0  0  0  0
   58.3338   23.2185   46.7327 H   0  0  0  0  0  0  0  0  0  0  0  0
   56.5490   23.3930   46.9834 H   0  0  0  0  0  0  0  0  0  0  0  0
   58.6094   21.3321   45.3404 H   0  0  0  0  0  0  0  0  0  0  0  0
   58.1880   20.1895   43.1633 H   0  0  0  0  0  0  0  0  0  0  0  0
   56.4892   21.1033   41.5788 H   0  0  0  0  0  0  0  0  0  0  0  0
   55.2161   23.1680   42.1651 H   0  0  0  0  0  0  0  0  0  0  0  0
   55.6326   24.3186   44.3388 H   0  0  0  0  0  0  0  0  0  0  0  0
  1  2  1  0
  2  3  2  0
  3  4  1  0
  4  5  1  0
  5  6  2  0
  5  7  1  0
  7  8  1  0
  8  9  2  0
  9 10  1  0
 10 11  2  0
 11 12  1  0
 12 13  1  0
 13 14  1  0
 14 15  1  0
 15 16  1  0
 16 17  1  0
 17 18  1  0
 12 19  2  0
  4 20  2  0
 20 21  1  0
 21 22  2  0
 21 23  1  0
 23 24  1  0
 24 25  1  0
 25 26  2  0
 26 27  1  0
 27 28  2  0
 28 29  1  0
 29 30  2  0
 23  2  1  0
 30 25  1  0
 19  8  1  0
 18 13  1  0
  1 31  1  0
  1 32  1  0
  1 33  1  0
  3 34  1  0
  7 35  1  0
  9 36  1  0
 10 37  1  0
 11 38  1  0
 14 39  1  0
 14 40  1  0
 15 41  1  0
 15 42  1  0
 17 43  1  0
 17 44  1  0
 18 45  1  0
 18 46  1  0
 19 47  1  0
 20 48  1  0
 24 49  1  0
 24 50  1  0
 26 51  1  0
 27 52  1  0
 28 53  1  0
 29 54  1  0
 30 55  1  0
M  END
>  <UniqueID>  (14) 
14

>  <SMILES>  (14) 
Cc1cc(C(=O)Nc2cccc(N3CCOCC3)c2)cc(=O)n1Cc1ccccc1

>  <Energy>  (14) 
74.28575649286284

>  <Genealogy>  (14) 
Cc1cc(C(=O)Nc2cccc(N3CCOCC3)c2)cc(=O)n1Cc1ccccc1 (3D coordinates assigned)
Cc1cc(C(=O)Nc2cccc(N3CCOCC3)c2)cc(=O)n1Cc1ccccc1 (nonaromatic ring conformer: 74.28575649286284 kcal/mol)

>  <smiles>  (14) 
Cc1cc(C(=O)Nc2cccc(N3CCOCC3)c2)cc(=O)n1Cc1ccccc1

>  <score_type>  (14) 
oracle

>  <origin>  (14) 
adg

>  <m_score__min__energy>  (14) 
-8.4299999999999997

>  <m_primary>  (14) 
energy

$$$$
14:0
     RDKit          3D

 42 45  0  0  0  0  0  0  0  0999 V2000
   58.3620   30.3770   44.1810 C   0  0  0  0  0  0  0  0  0  0  0  0
   58.5880   30.2060   45.4910 C   0  0  0  0  0  0  0  0  0  0  0  0
   58.4820   29.0250   46.2390 C   0  0  0  0  0  0  0  0  0  0  0  0
   58.3990   27.7470   45.8270 C   0  0  0  0  0  0  0  0  0  0  0  0
   57.1950   26.9030   45.9050 C   0  0  0  0  0  0  0  0  0  0  0  0
   57.1690   25.6460   46.3890 N   0  0  0  0  0  0  0  0  0  0  0  0
   55.8540   25.3390   46.3860 C   0  0  0  0  0  0  0  0  0  0  0  0
   55.4190   24.2200   46.7630 O   0  0  0  0  0  0  0  0  0  0  0  0
   55.0400   26.3290   45.9600 N   0  0  0  0  0  0  0  0  0  0  0  0
   55.9060   27.3150   45.6730 C   0  0  0  0  0  0  0  0  0  0  0  0
   55.5250   28.5700   45.2140 O   0  0  0  0  0  0  0  0  0  0  0  0
   58.5030   29.3330   47.5540 N   0  0  0  0  0  0  0  0  0  0  0  0
   58.6780   30.6680   47.5830 C   0  0  0  0  0  0  0  0  0  0  0  0
   58.7680   31.3210   48.6560 O   0  0  0  0  0  0  0  0  0  0  0  0
   58.7620   31.2280   46.3600 N   0  0  0  0  0  0  0  0  0  0  0  0
   58.9320   32.6270   46.0710 C   0  0  0  0  0  0  0  0  0  0  0  0
   58.0150   33.2730   45.2300 C   0  0  0  0  0  0  0  0  0  0  0  0
   58.1850   34.6200   44.8990 C   0  0  0  0  0  0  0  0  0  0  0  0
   59.2710   35.3330   45.4090 C   0  0  0  0  0  0  0  0  0  0  0  0
   60.1850   34.7040   46.2580 C   0  0  0  0  0  0  0  0  0  0  0  0
   60.0240   33.3530   46.6020 C   0  0  0  0  0  0  0  0  0  0  0  0
   60.9460   32.7460   47.5260 N   0  0  0  0  0  0  0  0  0  0  0  0
   61.1460   33.3370   48.8540 C   0  0  0  0  0  0  0  0  0  0  0  0
   62.4670   32.8500   49.4510 C   0  0  0  0  0  0  0  0  0  0  0  0
   63.4520   32.8270   48.4400 O   0  0  0  0  0  0  0  0  0  0  0  0
   63.2240   31.7450   47.5520 C   0  0  0  0  0  0  0  0  0  0  0  0
   61.7470   31.5850   47.1190 C   0  0  0  0  0  0  0  0  0  0  0  0
   58.4864   31.3710   43.7266 H   0  0  0  0  0  0  0  0  0  0  0  0
   58.0521   29.5234   43.5603 H   0  0  0  0  0  0  0  0  0  0  0  0
   59.3050   27.2955   45.3965 H   0  0  0  0  0  0  0  0  0  0  0  0
   57.1559   32.7158   44.8280 H   0  0  0  0  0  0  0  0  0  0  0  0
   57.4625   35.1186   44.2361 H   0  0  0  0  0  0  0  0  0  0  0  0
   59.4074   36.3914   45.1422 H   0  0  0  0  0  0  0  0  0  0  0  0
   61.0371   35.2719   46.6598 H   0  0  0  0  0  0  0  0  0  0  0  0
   61.1689   34.4332   48.7650 H   0  0  0  0  0  0  0  0  0  0  0  0
   60.3189   33.0328   49.5123 H   0  0  0  0  0  0  0  0  0  0  0  0
   62.7809   33.5317   50.2552 H   0  0  0  0  0  0  0  0  0  0  0  0
   62.3361   31.8385   49.8629 H   0  0  0  0  0  0  0  0  0  0  0  0
   63.8334   31.9038   46.6501 H   0  0  0  0  0  0  0  0  0  0  0  0
   63.4978   30.8271   48.0928 H   0  0  0  0  0  0  0  0  0  0  0  0
   61.7028   31.4844   46.0245 H   0  0  0  0  0  0  0  0  0  0  0  0
   61.3357   30.6894   47.6076 H   0  0  0  0  0  0  0  0  0  0  0  0
  1  2  2  0
  2  3  1  0
  3  4  2  3
  4  5  1  0
  5  6  1  0
  6  7  1  0
  7  8  2  0
  7  9  1  0
  9 10  1  0
 10 11  1  0
  3 12  1  0
 12 13  1  0
 13 14  2  0
 13 15  1  0
 15 16  1  0
 16 17  2  0
 17 18  1  0
 18 19  2  0
 19 20  1  0
 20 21  2  0
 21 22  1  0
 22 23  1  0
 23 24  1  0
 24 25  1  0
 25 26  1  0
 26 27  1  0
 15  2  1  0
 21 16  1  0
 27 22  1  0
 10  5  2  0
  1 28  1  0
  1 29  1  0
  4 30  1  0
 17 31  1  0
 18 32  1  0
 19 33  1  0
 20 34  1  0
 23 35  1  0
 23 36  1  0
 24 37  1  0
 24 38  1  0
 26 39  1  0
 26 40  1  0
 27 41  1  0
 27 42  1  0
M  CHG  4   6  -1   9  -1  11  -1  12  -1
M  END
>  <UniqueID>  (15) 
15

>  <SMILES>  (15) 
C=c1c(=Cc2[n-]c(=O)[n-]c2[O-])[n-]c(=O)n1-c1ccccc1N1CCOCC1

>  <Energy>  (15) 
135.42330334486167

>  <Genealogy>  (15) 
C=c1c(=Cc2[n-]c(=O)[n-]c2[O-])[n-]c(=O)n1-c1ccccc1N1CCOCC1 (protonated)
C=c1c(=Cc2[n-]c(=O)[n-]c2[O-])[n-]c(=O)n1-c1ccccc1N1CCOCC1 (3D coordinates assigned)
C=c1c(=Cc2[n-]c(=O)[n-]c2[O-])[n-]c(=O)n1-c1ccccc1N1CCOCC1 (nonaromatic ring conformer: 135.42330334486167 kcal/mol)

>  <smiles>  (15) 
C=c1c(=Cc2[nH]c(=O)[nH]c2O)[nH]c(=O)n1-c1ccccc1N1CCOCC1

>  <score_type>  (15) 
oracle

>  <origin>  (15) 
adg

>  <m_score__min__energy>  (15) 
-16.66

>  <m_primary>  (15) 
energy

$$$$
15:0
     RDKit          3D

 55 57  0  0  0  0  0  0  0  0999 V2000
   58.1970   32.1400   49.4010 C   0  0  0  0  0  0  0  0  0  0  0  0
   58.9760   31.4680   48.2720 C   0  0  0  0  0  0  0  0  0  0  0  0
   58.5870   32.0520   46.9370 C   0  0  0  0  0  0  0  0  0  0  0  0
   57.7820   31.3090   46.1310 N   0  0  0  0  0  0  0  0  0  0  0  0
   57.4510   31.7170   44.8800 C   0  0  0  0  0  0  0  0  0  0  0  0
   56.5800   30.8570   44.0150 C   0  0  0  0  0  0  0  0  0  0  0  0
   56.0730   29.6320   44.7770 C   0  0  0  0  0  0  0  0  0  0  0  0
   57.1950   28.8150   45.2280 N   0  0  0  0  0  0  0  0  0  0  0  0
   57.0190   27.6310   46.0110 C   0  0  0  0  0  0  0  0  0  0  0  0
   55.9500   26.9670   45.9350 O   0  0  0  0  0  0  0  0  0  0  0  0
   58.1260   27.1570   46.8990 C   0  0  0  0  0  0  0  0  0  0  0  0
   58.9270   28.2850   47.3740 N   0  0  0  0  0  0  0  0  0  0  0  0
   60.0120   28.0940   48.2950 C   0  0  0  0  0  0  0  0  0  0  0  0
   60.2550   26.9390   48.7420 O   0  0  0  0  0  0  0  0  0  0  0  0
   60.8510   29.2360   48.7200 C   0  0  0  0  0  0  0  0  0  0  0  0
   61.0370   29.5330   50.0820 C   0  0  0  0  0  0  0  0  0  0  0  0
   61.8450   30.6120   50.4520 C   0  0  0  0  0  0  0  0  0  0  0  0
   62.4670   31.3890   49.4680 C   0  0  0  0  0  0  0  0  0  0  0  0
   63.2920   32.4730   49.8070 C   0  0  0  0  0  0  0  0  0  0  0  0
   63.9040   33.2260   48.7970 C   0  0  0  0  0  0  0  0  0  0  0  0
   63.6930   32.9030   47.4510 C   0  0  0  0  0  0  0  0  0  0  0  0
   62.8680   31.8260   47.1070 C   0  0  0  0  0  0  0  0  0  0  0  0
   62.2560   31.0640   48.1100 C   0  0  0  0  0  0  0  0  0  0  0  0
   61.4630   30.0100   47.7790 N   0  0  0  0  0  0  0  0  0  0  0  0
   57.9330   32.8950   44.4040 N   0  0  0  0  0  0  0  0  0  0  0  0
   58.7430   33.6890   45.1540 C   0  0  0  0  0  0  0  0  0  0  0  0
   59.2430   34.9680   44.5470 C   0  0  0  0  0  0  0  0  0  0  0  0
   59.1110   33.2760   46.4580 C   0  0  0  0  0  0  0  0  0  0  0  0
   60.0260   34.0930   47.2880 C   0  0  0  0  0  0  0  0  0  0  0  0
   59.5810   34.6560   48.5990 C   0  0  0  0  0  0  0  0  0  0  0  0
   61.2070   34.3070   46.8920 O   0  0  0  0  0  0  0  0  0  0  0  0
   58.5904   31.8006   50.3705 H   0  0  0  0  0  0  0  0  0  0  0  0
   58.3064   33.2317   49.3228 H   0  0  0  0  0  0  0  0  0  0  0  0
   57.1331   31.8716   49.3228 H   0  0  0  0  0  0  0  0  0  0  0  0
   60.0529   31.6226   48.4341 H   0  0  0  0  0  0  0  0  0  0  0  0
   58.7416   30.3933   48.2705 H   0  0  0  0  0  0  0  0  0  0  0  0
   55.7176   31.4490   43.6746 H   0  0  0  0  0  0  0  0  0  0  0  0
   57.1772   30.5096   43.1590 H   0  0  0  0  0  0  0  0  0  0  0  0
   55.4913   29.9630   45.6500 H   0  0  0  0  0  0  0  0  0  0  0  0
   55.4398   29.0314   44.1075 H   0  0  0  0  0  0  0  0  0  0  0  0
   57.6952   26.6307   47.7635 H   0  0  0  0  0  0  0  0  0  0  0  0
   58.7749   26.4797   46.3243 H   0  0  0  0  0  0  0  0  0  0  0  0
   58.7110   29.2510   47.0320 H   0  0  0  0  0  0  0  0  0  0  0  0
   60.5487   28.9188   50.8529 H   0  0  0  0  0  0  0  0  0  0  0  0
   61.9919   30.8502   51.5158 H   0  0  0  0  0  0  0  0  0  0  0  0
   63.4575   32.7305   50.8636 H   0  0  0  0  0  0  0  0  0  0  0  0
   64.5526   34.0740   49.0621 H   0  0  0  0  0  0  0  0  0  0  0  0
   64.1769   33.4973   46.6619 H   0  0  0  0  0  0  0  0  0  0  0  0
   62.7003   31.5780   46.0485 H   0  0  0  0  0  0  0  0  0  0  0  0
   59.5178   35.6708   45.3473 H   0  0  0  0  0  0  0  0  0  0  0  0
   60.1253   34.7581   43.9245 H   0  0  0  0  0  0  0  0  0  0  0  0
   58.4523   35.4121   43.9245 H   0  0  0  0  0  0  0  0  0  0  0  0
   60.0359   34.0804   49.4186 H   0  0  0  0  0  0  0  0  0  0  0  0
   59.8944   35.7079   48.6716 H   0  0  0  0  0  0  0  0  0  0  0  0
   58.4852   34.5940   48.6716 H   0  0  0  0  0  0  0  0  0  0  0  0
  1  2  1  0
  2  3  1  0
  3  4  2  0
  4  5  1  0
  5  6  1  0
  6  7  1  0
  7  8  1  0
  8  9  1  0
  9 10  2  0
  9 11  1  0
 11 12  1  0
 12 13  1  0
 13 14  2  0
 13 15  1  0
 15 16  2  0
 16 17  1  0
 17 18  2  0
 18 19  1  0
 19 20  2  0
 20 21  1  0
 21 22  2  0
 22 23  1  0
 23 24  2  0
  5 25  2  0
 25 26  1  0
 26 27  1  0
 26 28  2  0
 28 29  1  0
 29 30  1  0
 29 31  2  0
 28  3  1  0
 24 15  1  0
 23 18  1  0
  1 32  1  0
  1 33  1  0
  1 34  1  0
  2 35  1  0
  2 36  1  0
  6 37  1  0
  6 38  1  0
  7 39  1  0
  7 40  1  0
 11 41  1  0
 11 42  1  0
 12 43  1  0
 16 44  1  0
 17 45  1  0
 19 46  1  0
 20 47  1  0
 21 48  1  0
 22 49  1  0
 27 50  1  0
 27 51  1  0
 27 52  1  0
 30 53  1  0
 30 54  1  0
 30 55  1  0
M  CHG  1   8  -1
M  END
>  <UniqueID>  (16) 
16

>  <SMILES>  (16) 
CCc1nc(CC[N-]C(=O)CNC(=O)c2ccc3ccccc3n2)nc(C)c1C(C)=O

>  <Energy>  (16) 
55.40143091525037

>  <Genealogy>  (16) 
CCc1nc(CC[N-]C(=O)CNC(=O)c2ccc3ccccc3n2)nc(C)c1C(C)=O (protonated)
CCc1nc(CC[N-]C(=O)CNC(=O)c2ccc3ccccc3n2)nc(C)c1C(C)=O (3D coordinates assigned)
CCc1nc(CC[N-]C(=O)CNC(=O)c2ccc3ccccc3n2)nc(C)c1C(C)=O (optimized conformer: 55.40143091525037 kcal/mol)

>  <smiles>  (16) 
CCc1nc(CCNC(=O)CNC(=O)c2ccc3ccccc3n2)nc(C)c1C(C)=O

>  <score_type>  (16) 
oracle

>  <origin>  (16) 
adg

>  <m_score__min__energy>  (16) 
-10.359999999999999

>  <m_primary>  (16) 
energy

$$$$
16:0
     RDKit          3D

 50 53  0  0  0  0  0  0  0  0999 V2000
   50.2750   32.6940   52.0830 N   0  0  0  0  0  0  0  0  0  0  0  0
   51.2070   32.1360   51.1610 C   0  0  0  0  0  0  0  0  0  0  0  0
   51.0380   32.3020   49.9240 O   0  0  0  0  0  0  0  0  0  0  0  0
   52.3590   31.3680   51.6530 C   0  0  0  0  0  0  0  0  0  0  0  0
   53.3590   30.7970   50.8700 C   0  0  0  0  0  0  0  0  0  0  0  0
   54.3230   30.1360   51.5650 N   0  0  0  0  0  0  0  0  0  0  0  0
   54.0910   30.1670   52.8950 C   0  0  0  0  0  0  0  0  0  0  0  0
   54.9050   29.6230   53.7510 N   0  0  0  0  0  0  0  0  0  0  0  0
   56.3130   29.4500   53.5540 C   0  0  0  0  0  0  0  0  0  0  0  0
   56.8720   28.4230   54.0210 O   0  0  0  0  0  0  0  0  0  0  0  0
   57.1300   30.4810   52.8860 C   0  0  0  0  0  0  0  0  0  0  0  0
   57.8240   31.5040   53.5210 C   0  0  0  0  0  0  0  0  0  0  0  0
   58.4840   32.3650   52.6350 C   0  0  0  0  0  0  0  0  0  0  0  0
   58.3060   32.0330   51.2900 C   0  0  0  0  0  0  0  0  0  0  0  0
   58.8720   32.7430   50.1140 C   0  0  0  0  0  0  0  0  0  0  0  0
   60.0450   33.5090   50.2460 C   0  0  0  0  0  0  0  0  0  0  0  0
   60.5810   34.1840   49.1470 C   0  0  0  0  0  0  0  0  0  0  0  0
   59.9540   34.1100   47.9040 C   0  0  0  0  0  0  0  0  0  0  0  0
   58.7810   33.3560   47.7480 C   0  0  0  0  0  0  0  0  0  0  0  0
   58.0830   33.2980   46.4080 C   0  0  0  0  0  0  0  0  0  0  0  0
   58.9850   32.8570   45.3270 N   0  0  0  0  0  0  0  0  0  0  0  0
   58.4970   31.6530   44.6250 C   0  0  2  0  0  0  0  0  0  0  0  0
   57.5300   32.0520   43.4980 C   0  0  0  0  0  0  0  0  0  0  0  0
   56.9770   30.8060   42.7900 C   0  0  0  0  0  0  0  0  0  0  0  0
   56.8270   29.6260   43.7640 C   0  0  0  0  0  0  0  0  0  0  0  0
   56.5990   30.0950   45.0780 O   0  0  0  0  0  0  0  0  0  0  0  0
   57.7800   30.6810   45.6070 C   0  0  0  0  0  0  0  0  0  0  0  0
   58.2450   32.6770   48.8540 C   0  0  0  0  0  0  0  0  0  0  0  0
   57.3190   30.6660   51.2250 S   0  0  0  0  0  0  0  0  0  0  0  0
   52.6920   31.0360   53.2700 S   0  0  0  0  0  0  0  0  0  0  0  0
   49.9710   33.6900   52.0010 H   0  0  0  0  0  0  0  0  0  0  0  0
   53.3684   30.8747   49.7728 H   0  0  0  0  0  0  0  0  0  0  0  0
   57.8523   31.6258   54.6139 H   0  0  0  0  0  0  0  0  0  0  0  0
   59.0866   33.2231   52.9676 H   0  0  0  0  0  0  0  0  0  0  0  0
   60.5444   33.5768   51.2237 H   0  0  0  0  0  0  0  0  0  0  0  0
   61.5009   34.7760   49.2626 H   0  0  0  0  0  0  0  0  0  0  0  0
   60.3804   34.6447   47.0424 H   0  0  0  0  0  0  0  0  0  0  0  0
   57.2419   32.5924   46.4772 H   0  0  0  0  0  0  0  0  0  0  0  0
   57.7359   34.3130   46.1644 H   0  0  0  0  0  0  0  0  0  0  0  0
   59.9270   32.6660   45.7410 H   0  0  0  0  0  0  0  0  0  0  0  0
   59.3682   31.1360   44.1965 H   0  0  0  0  0  0  0  0  0  0  0  0
   56.6941   32.6251   43.9256 H   0  0  0  0  0  0  0  0  0  0  0  0
   58.0757   32.6628   42.7637 H   0  0  0  0  0  0  0  0  0  0  0  0
   55.9917   31.0449   42.3632 H   0  0  0  0  0  0  0  0  0  0  0  0
   57.6850   30.5144   42.0002 H   0  0  0  0  0  0  0  0  0  0  0  0
   55.9770   29.0027   43.4494 H   0  0  0  0  0  0  0  0  0  0  0  0
   57.7548   29.0352   43.7529 H   0  0  0  0  0  0  0  0  0  0  0  0
   57.5118   31.2414   46.5147 H   0  0  0  0  0  0  0  0  0  0  0  0
   58.4811   29.8581   45.8101 H   0  0  0  0  0  0  0  0  0  0  0  0
   57.3246   32.0865   48.7353 H   0  0  0  0  0  0  0  0  0  0  0  0
  1  2  1  0
  2  3  2  0
  2  4  1  0
  4  5  2  0
  5  6  1  0
  6  7  1  0
  7  8  2  3
  8  9  1  0
  9 10  2  0
  9 11  1  0
 11 12  2  0
 12 13  1  0
 13 14  2  0
 14 15  1  0
 15 16  2  0
 16 17  1  0
 17 18  2  0
 18 19  1  0
 19 20  1  0
 20 21  1  0
 21 22  1  0
 22 23  1  0
 23 24  1  0
 24 25  1  0
 25 26  1  0
 26 27  1  0
 19 28  2  0
 14 29  1  0
  7 30  1  0
 30  4  1  0
 29 11  1  0
 28 15  1  0
 27 22  1  0
  1 31  1  0
  5 32  1  0
 12 33  1  0
 13 34  1  0
 16 35  1  0
 17 36  1  0
 18 37  1  0
 20 38  1  0
 20 39  1  0
 21 40  1  0
 22 41  1  6
 23 42  1  0
 23 43  1  0
 24 44  1  0
 24 45  1  0
 25 46  1  0
 25 47  1  0
 27 48  1  0
 27 49  1  0
 28 50  1  0
M  CHG  2   1  -1   6  -1
M  END
>  <UniqueID>  (17) 
17

>  <SMILES>  (17) 
[NH-]C(=O)c1c[n-]c(=NC(=O)c2ccc(-c3cccc(CN[C@@H]4CCCOC4)c3)s2)s1

>  <Energy>  (17) 
125.01422840224885

>  <Genealogy>  (17) 
[NH-]C(=O)c1c[n-]c(=NC(=O)c2ccc(-c3cccc(CNC4CCCOC4)c3)s2)s1 (protonated)
[NH-]C(=O)c1c[n-]c(=NC(=O)c2ccc(-c3cccc(CN[C@@H]4CCCOC4)c3)s2)s1 (chirality)
[NH-]C(=O)c1c[n-]c(=NC(=O)c2ccc(-c3cccc(CN[C@@H]4CCCOC4)c3)s2)s1 (3D coordinates assigned)
[NH-]C(=O)c1c[n-]c(=NC(=O)c2ccc(-c3cccc(CN[C@@H]4CCCOC4)c3)s2)s1 (nonaromatic ring conformer: 125.01422840224885 kcal/mol)

>  <smiles>  (17) 
NC(=O)c1c[nH]c(=NC(=O)c2ccc(-c3cccc(CNC4CCCOC4)c3)s2)s1

>  <score_type>  (17) 
oracle

>  <origin>  (17) 
adg

>  <m_score__min__energy>  (17) 
-14.44

>  <m_primary>  (17) 
energy

$$$$
17:0
     RDKit          3D

 71 75  0  0  0  0  0  0  0  0999 V2000
   67.7040   35.7170   51.9650 C   0  0  0  0  0  0  0  0  0  0  0  0
   67.1330   34.5560   51.2920 N   0  0  0  0  0  0  0  0  0  0  0  0
   65.9090   34.0400   51.5080 C   0  0  0  0  0  0  0  0  0  0  0  0
   65.7920   32.8900   50.7530 C   0  0  0  0  0  0  0  0  0  0  0  0
   64.6380   31.9370   50.7430 C   0  0  0  0  0  0  0  0  0  0  0  0
   63.5680   32.4570   49.8690 N   0  0  0  0  0  0  0  0  0  0  0  0
   64.0190   32.5570   48.4710 C   0  0  0  0  0  0  0  0  0  0  0  0
   62.7960   32.7410   47.5740 C   0  0  0  0  0  0  0  0  0  0  0  0
   61.7920   33.6010   48.2180 N   0  0  0  0  0  0  0  0  0  0  0  0
   60.5390   33.8290   47.5480 C   0  0  0  0  0  0  0  0  0  0  0  0
   60.1300   35.0110   47.3850 O   0  0  0  0  0  0  0  0  0  0  0  0
   59.7200   32.7020   47.0500 C   0  0  0  0  0  0  0  0  0  0  0  0
   59.8410   31.4240   47.6170 C   0  0  0  0  0  0  0  0  0  0  0  0
   59.0680   30.3610   47.1410 C   0  0  0  0  0  0  0  0  0  0  0  0
   58.1640   30.5550   46.0830 C   0  0  0  0  0  0  0  0  0  0  0  0
   57.3510   29.4310   45.5620 C   0  0  0  0  0  0  0  0  0  0  0  0
   56.3230   29.6820   44.8740 O   0  0  0  0  0  0  0  0  0  0  0  0
   57.6950   28.0620   45.8390 N   0  0  0  0  0  0  0  0  0  0  0  0
   59.0330   27.5700   45.4860 C   0  0  0  0  0  0  0  0  0  0  0  0
   59.4330   26.4280   46.4250 C   0  0  0  0  0  0  0  0  0  0  0  0
   58.3760   25.2910   46.4070 C   0  0  0  0  0  0  0  0  0  0  0  0
   58.1740   24.6500   45.0670 N   0  0  0  0  0  0  0  0  0  0  0  0
   58.8270   23.3420   44.8840 C   0  0  0  0  0  0  0  0  0  0  0  0
   57.8860   22.2880   45.4190 C   0  0  0  0  0  0  0  0  0  0  0  0
   56.5100   22.8710   45.1790 C   0  0  0  0  0  0  0  0  0  0  0  0
   56.7460   24.3420   44.8370 C   0  0  0  0  0  0  0  0  0  0  0  0
   57.0480   25.9230   46.8930 C   0  0  0  0  0  0  0  0  0  0  0  0
   56.6130   27.0770   45.9790 C   0  0  0  0  0  0  0  0  0  0  0  0
   58.0220   31.8430   45.5380 C   0  0  0  0  0  0  0  0  0  0  0  0
   58.7890   32.9070   46.0200 C   0  0  0  0  0  0  0  0  0  0  0  0
   62.1830   34.4880   49.3220 C   0  0  0  0  0  0  0  0  0  0  0  0
   63.0940   33.7730   50.3450 C   0  0  0  0  0  0  0  0  0  0  0  0
   67.0080   32.7420   50.1090 C   0  0  0  0  0  0  0  0  0  0  0  0
   67.8010   33.7710   50.4620 N   0  0  0  0  0  0  0  0  0  0  0  0
   67.6363   35.5794   53.0543 H   0  0  0  0  0  0  0  0  0  0  0  0
   68.7591   35.8272   51.6742 H   0  0  0  0  0  0  0  0  0  0  0  0
   67.1472   36.6200   51.6742 H   0  0  0  0  0  0  0  0  0  0  0  0
   65.1374   34.4605   52.1697 H   0  0  0  0  0  0  0  0  0  0  0  0
   64.9746   30.9598   50.3664 H   0  0  0  0  0  0  0  0  0  0  0  0
   64.2496   31.8260   51.7661 H   0  0  0  0  0  0  0  0  0  0  0  0
   64.6926   33.4196   48.3601 H   0  0  0  0  0  0  0  0  0  0  0  0
   64.5594   31.6426   48.1851 H   0  0  0  0  0  0  0  0  0  0  0  0
   63.1112   33.2037   46.6271 H   0  0  0  0  0  0  0  0  0  0  0  0
   62.3453   31.7544   47.3909 H   0  0  0  0  0  0  0  0  0  0  0  0
   60.5493   31.2575   48.4420 H   0  0  0  0  0  0  0  0  0  0  0  0
   59.1682   29.3655   47.5980 H   0  0  0  0  0  0  0  0  0  0  0  0
   59.0250   27.2036   44.4489 H   0  0  0  0  0  0  0  0  0  0  0  0
   59.7584   28.3910   45.5847 H   0  0  0  0  0  0  0  0  0  0  0  0
   60.4030   26.0215   46.1028 H   0  0  0  0  0  0  0  0  0  0  0  0
   59.5001   26.8255   47.4485 H   0  0  0  0  0  0  0  0  0  0  0  0
   58.7314   24.4772   47.0561 H   0  0  0  0  0  0  0  0  0  0  0  0
   59.0214   23.1651   43.8159 H   0  0  0  0  0  0  0  0  0  0  0  0
   59.7888   23.3103   45.4169 H   0  0  0  0  0  0  0  0  0  0  0  0
   58.0097   21.3404   44.8743 H   0  0  0  0  0  0  0  0  0  0  0  0
   58.0687   22.0553   46.4785 H   0  0  0  0  0  0  0  0  0  0  0  0
   56.0145   22.3562   44.3427 H   0  0  0  0  0  0  0  0  0  0  0  0
   55.8578   22.7549   46.0572 H   0  0  0  0  0  0  0  0  0  0  0  0
   56.4916   24.5239   43.7824 H   0  0  0  0  0  0  0  0  0  0  0  0
   56.1139   24.9836   45.4685 H   0  0  0  0  0  0  0  0  0  0  0  0
   56.2636   25.1519   46.8947 H   0  0  0  0  0  0  0  0  0  0  0  0
   57.2033   26.3219   47.9063 H   0  0  0  0  0  0  0  0  0  0  0  0
   56.3585   26.6761   44.9868 H   0  0  0  0  0  0  0  0  0  0  0  0
   55.7380   27.5723   46.4251 H   0  0  0  0  0  0  0  0  0  0  0  0
   57.3010   32.0148   44.7252 H   0  0  0  0  0  0  0  0  0  0  0  0
   58.6623   33.9113   45.5895 H   0  0  0  0  0  0  0  0  0  0  0  0
   62.7234   35.3523   48.9086 H   0  0  0  0  0  0  0  0  0  0  0  0
   61.2678   34.8033   49.8446 H   0  0  0  0  0  0  0  0  0  0  0  0
   63.9682   34.4107   50.5429 H   0  0  0  0  0  0  0  0  0  0  0  0
   62.4994   33.6014   51.2544 H   0  0  0  0  0  0  0  0  0  0  0  0
   67.2799   31.9239   49.4258 H   0  0  0  0  0  0  0  0  0  0  0  0
   68.7910   33.9190   50.1620 H   0  0  0  0  0  0  0  0  0  0  0  0
  1  2  1  0
  2  3  1  0
  3  4  2  0
  4  5  1  0
  5  6  1  0
  6  7  1  0
  7  8  1  0
  8  9  1  0
  9 10  1  0
 10 11  2  0
 10 12  1  0
 12 13  2  0
 13 14  1  0
 14 15  2  0
 15 16  1  0
 16 17  2  0
 16 18  1  0
 18 19  1  0
 19 20  1  0
 20 21  1  0
 21 22  1  0
 22 23  1  0
 23 24  1  0
 24 25  1  0
 25 26  1  0
 21 27  1  0
 27 28  1  0
 15 29  1  0
 29 30  2  0
  9 31  1  0
 31 32  1  0
  4 33  1  0
 33 34  2  0
 34  2  1  0
 32  6  1  0
 30 12  1  0
 28 18  1  0
 26 22  1  0
  1 35  1  0
  1 36  1  0
  1 37  1  0
  3 38  1  0
  5 39  1  0
  5 40  1  0
  7 41  1  0
  7 42  1  0
  8 43  1  0
  8 44  1  0
 13 45  1  0
 14 46  1  0
 19 47  1  0
 19 48  1  0
 20 49  1  0
 20 50  1  0
 21 51  1  0
 23 52  1  0
 23 53  1  0
 24 54  1  0
 24 55  1  0
 25 56  1  0
 25 57  1  0
 26 58  1  0
 26 59  1  0
 27 60  1  0
 27 61  1  0
 28 62  1  0
 28 63  1  0
 29 64  1  0
 30 65  1  0
 31 66  1  0
 31 67  1  0
 32 68  1  0
 32 69  1  0
 33 70  1  0
 34 71  1  0
M  CHG  1  34   1
M  END
>  <UniqueID>  (18) 
18

>  <SMILES>  (18) 
Cn1cc(CN2CCN(C(=O)c3ccc(C(=O)N4CCC(N5CCCC5)CC4)cc3)CC2)c[nH+]1

>  <Energy>  (18) 
125.32639877826114

>  <Genealogy>  (18) 
Cn1cc(CN2CCN(C(=O)c3ccc(C(=O)N4CCC(N5CCCC5)CC4)cc3)CC2)c[nH+]1 (protonated)
Cn1cc(CN2CCN(C(=O)c3ccc(C(=O)N4CCC(N5CCCC5)CC4)cc3)CC2)c[nH+]1 (3D coordinates assigned)
Cn1cc(CN2CCN(C(=O)c3ccc(C(=O)N4CCC(N5CCCC5)CC4)cc3)CC2)c[nH+]1 (nonaromatic ring conformer: 125.32639877826114 kcal/mol)

>  <smiles>  (18) 
Cn1cc(CN2CCN(C(=O)c3ccc(C(=O)N4CCC(N5CCCC5)CC4)cc3)CC2)cn1

>  <score_type>  (18) 
oracle

>  <origin>  (18) 
adg

>  <m_score__min__energy>  (18) 
-8.0899999999999999

>  <m_primary>  (18) 
energy

$$$$
18:0
     RDKit          3D

 57 60  0  0  0  0  0  0  0  0999 V2000
   57.0340   33.4870   46.1600 C   0  0  0  0  0  0  0  0  0  0  0  0
   57.8000   33.2890   47.3430 O   0  0  0  0  0  0  0  0  0  0  0  0
   59.1940   33.4530   47.4330 C   0  0  0  0  0  0  0  0  0  0  0  0
   59.9770   33.7570   46.2990 C   0  0  0  0  0  0  0  0  0  0  0  0
   61.3690   33.8460   46.4010 C   0  0  0  0  0  0  0  0  0  0  0  0
   61.9970   33.6320   47.6270 C   0  0  0  0  0  0  0  0  0  0  0  0
   61.2340   33.3480   48.7600 C   0  0  0  0  0  0  0  0  0  0  0  0
   59.8330   33.2830   48.6840 C   0  0  0  0  0  0  0  0  0  0  0  0
   59.0890   32.9680   49.8730 N   0  0  0  0  0  0  0  0  0  0  0  0
   59.4030   33.5100   51.1690 C   0  0  0  0  0  0  0  0  0  0  0  0
   60.4630   34.1740   51.3510 O   0  0  0  0  0  0  0  0  0  0  0  0
   58.4880   33.2630   52.3350 C   0  0  0  0  0  0  0  0  0  0  0  0
   58.5380   31.8060   52.8070 C   0  0  0  0  0  0  0  0  0  0  0  0
   58.6740   30.8510   51.6530 C   0  0  0  0  0  0  0  0  0  0  0  0
   57.6530   30.5340   50.8340 N   0  0  0  0  0  0  0  0  0  0  0  0
   58.1370   29.7220   49.9040 N   0  0  0  0  0  0  0  0  0  0  0  0
   59.4470   29.5610   50.1670 C   0  0  0  0  0  0  0  0  0  0  0  0
   60.5500   28.5840   49.1380 S   0  0  0  0  0  0  0  0  0  0  0  0
   60.6970   29.8540   47.8360 C   0  0  0  0  0  0  0  0  0  0  0  0
   59.6120   29.6810   46.8180 C   0  0  0  0  0  0  0  0  0  0  0  0
   58.6720   28.6560   46.9390 C   0  0  0  0  0  0  0  0  0  0  0  0
   57.6640   28.5460   45.9800 C   0  0  0  0  0  0  0  0  0  0  0  0
   56.8220   27.6120   46.0890 O   0  0  0  0  0  0  0  0  0  0  0  0
   57.5950   29.4420   44.9410 N   0  0  0  0  0  0  0  0  0  0  0  0
   56.6050   29.3480   43.9960 C   0  0  0  0  0  0  0  0  0  0  0  0
   56.5360   30.2600   42.9390 C   0  0  0  0  0  0  0  0  0  0  0  0
   57.4870   31.2790   42.8340 C   0  0  0  0  0  0  0  0  0  0  0  0
   57.4030   32.2920   41.7270 C   0  0  0  0  0  0  0  0  0  0  0  0
   58.4810   31.3850   43.8120 C   0  0  0  0  0  0  0  0  0  0  0  0
   58.5300   30.4530   44.8560 C   0  0  0  0  0  0  0  0  0  0  0  0
   59.5120   30.5570   45.7880 N   0  0  0  0  0  0  0  0  0  0  0  0
   59.8190   30.2470   51.2660 N   0  0  0  0  0  0  0  0  0  0  0  0
   61.1620   30.3990   51.8250 C   0  0  0  0  0  0  0  0  0  0  0  0
   56.0020   33.7538   46.4318 H   0  0  0  0  0  0  0  0  0  0  0  0
   57.4787   34.2997   45.5669 H   0  0  0  0  0  0  0  0  0  0  0  0
   57.0292   32.5606   45.5669 H   0  0  0  0  0  0  0  0  0  0  0  0
   59.4889   33.9252   45.3277 H   0  0  0  0  0  0  0  0  0  0  0  0
   61.9699   34.0855   45.5113 H   0  0  0  0  0  0  0  0  0  0  0  0
   63.0931   33.6870   47.7011 H   0  0  0  0  0  0  0  0  0  0  0  0
   61.7352   33.1731   49.7234 H   0  0  0  0  0  0  0  0  0  0  0  0
   58.4420   32.1470   49.8390 H   0  0  0  0  0  0  0  0  0  0  0  0
   58.7893   33.9162   53.1672 H   0  0  0  0  0  0  0  0  0  0  0  0
   57.4594   33.4794   52.0108 H   0  0  0  0  0  0  0  0  0  0  0  0
   59.3998   31.6784   53.4786 H   0  0  0  0  0  0  0  0  0  0  0  0
   57.5953   31.5820   53.3278 H   0  0  0  0  0  0  0  0  0  0  0  0
   60.6123   30.8519   48.2909 H   0  0  0  0  0  0  0  0  0  0  0  0
   61.6734   29.7480   47.3406 H   0  0  0  0  0  0  0  0  0  0  0  0
   58.7250   27.9459   47.7774 H   0  0  0  0  0  0  0  0  0  0  0  0
   55.8566   28.5454   44.0710 H   0  0  0  0  0  0  0  0  0  0  0  0
   55.7342   30.1759   42.1906 H   0  0  0  0  0  0  0  0  0  0  0  0
   57.3194   33.3004   42.1584 H   0  0  0  0  0  0  0  0  0  0  0  0
   58.3091   32.2327   41.1062 H   0  0  0  0  0  0  0  0  0  0  0  0
   56.5190   32.0843   41.1062 H   0  0  0  0  0  0  0  0  0  0  0  0
   59.2212   32.1971   43.7614 H   0  0  0  0  0  0  0  0  0  0  0  0
   61.1048   30.3925   52.9235 H   0  0  0  0  0  0  0  0  0  0  0  0
   61.7966   29.5669   51.4860 H   0  0  0  0  0  0  0  0  0  0  0  0
   61.5946   31.3518   51.4860 H   0  0  0  0  0  0  0  0  0  0  0  0
  1  2  1  0
  2  3  1  0
  3  4  2  0
  4  5  1  0
  5  6  2  0
  6  7  1  0
  7  8  2  0
  8  9  1  0
  9 10  1  0
 10 11  2  0
 10 12  1  0
 12 13  1  0
 13 14  1  0
 14 15  2  0
 15 16  1  0
 16 17  2  0
 17 18  1  0
 18 19  1  0
 19 20  1  0
 20 21  2  0
 21 22  1  0
 22 23  2  0
 22 24  1  0
 24 25  1  0
 25 26  2  0
 26 27  1  0
 27 28  1  0
 27 29  2  0
 29 30  1  0
 30 31  2  0
 17 32  1  0
 32 33  1  0
  8  3  1  0
 32 14  1  0
 31 20  1  0
 30 24  1  0
  1 34  1  0
  1 35  1  0
  1 36  1  0
  4 37  1  0
  5 38  1  0
  6 39  1  0
  7 40  1  0
  9 41  1  0
 12 42  1  0
 12 43  1  0
 13 44  1  0
 13 45  1  0
 19 46  1  0
 19 47  1  0
 21 48  1  0
 25 49  1  0
 26 50  1  0
 28 51  1  0
 28 52  1  0
 28 53  1  0
 29 54  1  0
 33 55  1  0
 33 56  1  0
 33 57  1  0
M  END
>  <UniqueID>  (19) 
19

>  <SMILES>  (19) 
COc1ccccc1NC(=O)CCc1nnc(SCc2cc(=O)n3ccc(C)cc3n2)n1C

>  <Energy>  (19) 
92.3788177198999

>  <Genealogy>  (19) 
COc1ccccc1NC(=O)CCc1nnc(SCc2cc(=O)n3ccc(C)cc3n2)n1C (3D coordinates assigned)
COc1ccccc1NC(=O)CCc1nnc(SCc2cc(=O)n3ccc(C)cc3n2)n1C (optimized conformer: 92.3788177198999 kcal/mol)

>  <smiles>  (19) 
COc1ccccc1NC(=O)CCc1nnc(SCc2cc(=O)n3ccc(C)cc3n2)n1C

>  <score_type>  (19) 
oracle

>  <origin>  (19) 
adg

>  <m_score__min__energy>  (19) 
-9.0999999999999996

>  <m_primary>  (19) 
energy

$$$$
19:0
     RDKit          3D

 56 58  0  0  0  0  0  0  0  0999 V2000
   56.1630   30.0720   42.8180 C   0  0  0  0  0  0  0  0  0  0  0  0
   57.4180   30.8010   42.9860 N   0  0  0  0  0  0  0  0  0  0  0  0
   57.6800   31.9530   42.1240 C   0  0  0  0  0  0  0  0  0  0  0  0
   58.1230   30.6860   44.2340 C   0  0  0  0  0  0  0  0  0  0  0  0
   58.8300   29.5110   44.5110 C   0  0  0  0  0  0  0  0  0  0  0  0
   59.5330   29.3730   45.7050 C   0  0  0  0  0  0  0  0  0  0  0  0
   59.5460   30.4080   46.6390 C   0  0  0  0  0  0  0  0  0  0  0  0
   58.8500   31.6120   46.3940 C   0  0  0  0  0  0  0  0  0  0  0  0
   58.8510   32.6830   47.3290 C   0  0  0  0  0  0  0  0  0  0  0  0
   59.7680   32.6220   48.8470 S   0  0  0  0  0  0  0  0  0  0  0  0
   61.1430   33.1800   48.6040 O   0  0  0  0  0  0  0  0  0  0  0  0
   59.0720   33.4560   49.8890 O   0  0  0  0  0  0  0  0  0  0  0  0
   59.9400   30.9740   49.3970 N   0  0  0  0  0  0  0  0  0  0  0  0
   58.6850   30.4270   49.9170 C   0  0  0  0  0  0  0  0  0  0  0  0
   58.8880   29.7570   51.2760 C   0  0  0  0  0  0  0  0  0  0  0  0
   58.4540   30.6590   52.3350 N   0  0  0  0  0  0  0  0  0  0  0  0
   57.1240   30.6530   52.8620 C   0  0  0  0  0  0  0  0  0  0  0  0
   56.8350   31.3580   53.8640 O   0  0  0  0  0  0  0  0  0  0  0  0
   56.1120   29.8470   52.2570 N   0  0  0  0  0  0  0  0  0  0  0  0
   54.9200   29.4160   52.9730 C   0  0  0  0  0  0  0  0  0  0  0  0
   53.7630   29.2460   51.9900 C   0  0  0  0  0  0  0  0  0  0  0  0
   52.8220   30.4180   52.0670 C   0  0  0  0  0  0  0  0  0  0  0  0
   52.3530   30.8700   53.3110 C   0  0  0  0  0  0  0  0  0  0  0  0
   51.4540   31.9400   53.3790 C   0  0  0  0  0  0  0  0  0  0  0  0
   51.0090   32.5590   52.2070 C   0  0  0  0  0  0  0  0  0  0  0  0
   50.1190   33.6230   52.2820 O   0  0  0  0  0  0  0  0  0  0  0  0
   51.4610   32.1050   50.9620 C   0  0  0  0  0  0  0  0  0  0  0  0
   51.0200   32.7140   49.7930 O   0  0  0  0  0  0  0  0  0  0  0  0
   52.3610   31.0350   50.8920 C   0  0  0  0  0  0  0  0  0  0  0  0
   58.0980   33.8340   47.0530 C   0  0  0  0  0  0  0  0  0  0  0  0
   57.3740   33.9490   45.8690 C   0  0  0  0  0  0  0  0  0  0  0  0
   57.3850   32.9180   44.9360 C   0  0  0  0  0  0  0  0  0  0  0  0
   58.1200   31.7430   45.1770 C   0  0  0  0  0  0  0  0  0  0  0  0
   55.7449   29.8292   43.8061 H   0  0  0  0  0  0  0  0  0  0  0  0
   55.4485   30.6956   42.2607 H   0  0  0  0  0  0  0  0  0  0  0  0
   56.3507   29.1424   42.2607 H   0  0  0  0  0  0  0  0  0  0  0  0
   57.8813   32.8379   42.7457 H   0  0  0  0  0  0  0  0  0  0  0  0
   58.5537   31.7446   41.4890 H   0  0  0  0  0  0  0  0  0  0  0  0
   56.8021   32.1430   41.4890 H   0  0  0  0  0  0  0  0  0  0  0  0
   58.8305   28.6894   43.7796 H   0  0  0  0  0  0  0  0  0  0  0  0
   60.0812   28.4422   45.9125 H   0  0  0  0  0  0  0  0  0  0  0  0
   60.1053   30.2852   47.5782 H   0  0  0  0  0  0  0  0  0  0  0  0
   57.9567   31.2441   50.0263 H   0  0  0  0  0  0  0  0  0  0  0  0
   58.3187   29.6689   49.2091 H   0  0  0  0  0  0  0  0  0  0  0  0
   58.2970   28.8303   51.3193 H   0  0  0  0  0  0  0  0  0  0  0  0
   59.9537   29.5205   51.4113 H   0  0  0  0  0  0  0  0  0  0  0  0
   55.1200   28.4563   53.4720 H   0  0  0  0  0  0  0  0  0  0  0  0
   54.6519   30.1737   53.7241 H   0  0  0  0  0  0  0  0  0  0  0  0
   54.1649   29.1723   50.9687 H   0  0  0  0  0  0  0  0  0  0  0  0
   53.2101   28.3313   52.2499 H   0  0  0  0  0  0  0  0  0  0  0  0
   52.6937   30.3810   54.2356 H   0  0  0  0  0  0  0  0  0  0  0  0
   51.0965   32.2950   54.3568 H   0  0  0  0  0  0  0  0  0  0  0  0
   52.7089   30.6756   49.9123 H   0  0  0  0  0  0  0  0  0  0  0  0
   58.0792   34.6574   47.7822 H   0  0  0  0  0  0  0  0  0  0  0  0
   56.7904   34.8601   45.6708 H   0  0  0  0  0  0  0  0  0  0  0  0
   56.8141   33.0221   44.0015 H   0  0  0  0  0  0  0  0  0  0  0  0
  1  2  1  0
  2  3  1  0
  2  4  1  0
  4  5  2  0
  5  6  1  0
  6  7  2  0
  7  8  1  0
  8  9  2  0
  9 10  1  0
 10 11  2  0
 10 12  2  0
 10 13  1  0
 13 14  1  0
 14 15  1  0
 15 16  1  0
 16 17  1  0
 17 18  2  0
 17 19  1  0
 19 20  1  0
 20 21  1  0
 21 22  1  0
 22 23  2  0
 23 24  1  0
 24 25  2  0
 25 26  1  0
 25 27  1  0
 27 28  1  0
 27 29  2  0
  9 30  1  0
 30 31  2  0
 31 32  1  0
 32 33  2  0
 33  4  1  0
 33  8  1  0
 29 22  1  0
  1 34  1  0
  1 35  1  0
  1 36  1  0
  3 37  1  0
  3 38  1  0
  3 39  1  0
  5 40  1  0
  6 41  1  0
  7 42  1  0
 14 43  1  0
 14 44  1  0
 15 45  1  0
 15 46  1  0
 20 47  1  0
 20 48  1  0
 21 49  1  0
 21 50  1  0
 23 51  1  0
 24 52  1  0
 29 53  1  0
 30 54  1  0
 31 55  1  0
 32 56  1  0
M  CHG  5  13  -1  16  -1  19  -1  26  -1  28  -1
M  END
>  <UniqueID>  (20) 
20

>  <SMILES>  (20) 
CN(C)c1cccc2c(S(=O)(=O)[N-]CC[N-]C(=O)[N-]CCc3ccc([O-])c([O-])c3)cccc12

>  <Energy>  (20) 
60.14250074206413

>  <Genealogy>  (20) 
CN(C)c1cccc2c(S(=O)(=O)[N-]CC[N-]C(=O)[N-]CCc3ccc([O-])c([O-])c3)cccc12 (protonated)
CN(C)c1cccc2c(S(=O)(=O)[N-]CC[N-]C(=O)[N-]CCc3ccc([O-])c([O-])c3)cccc12 (3D coordinates assigned)
CN(C)c1cccc2c(S(=O)(=O)[N-]CC[N-]C(=O)[N-]CCc3ccc([O-])c([O-])c3)cccc12 (optimized conformer: 60.14250074206413 kcal/mol)

>  <smiles>  (20) 
CN(C)c1cccc2c(S(=O)(=O)NCCNC(=O)NCCc3ccc(O)c(O)c3)cccc12

>  <score_type>  (20) 
oracle

>  <origin>  (20) 
adg

>  <m_score__min__energy>  (20) 
-20.390000000000001

>  <m_primary>  (20) 
energy

$$$$
20:0
     RDKit          3D

 37 39  0  0  1  0  0  0  0  0999 V2000
   56.2540   20.6450   44.5420 C   0  0  0  0  0  0  0  0  0  0  0  0
   57.5100   21.2260   43.8910 C   0  0  0  0  0  0  0  0  0  0  0  0
   57.3390   22.7400   43.8210 C   0  0  0  0  0  0  0  0  0  0  0  0
   56.9310   23.6310   43.1830 N   0  0  0  0  0  0  0  0  0  0  0  0
   56.9850   24.8930   43.3380 N   0  0  0  0  0  0  0  0  0  0  0  0
   57.6350   25.2610   44.4450 C   0  0  0  0  0  0  0  0  0  0  0  0
   57.9510   26.4630   44.9690 N   0  0  0  0  0  0  0  0  0  0  0  0
   56.8510   27.0620   45.6780 C   0  0  0  0  0  0  0  0  0  0  0  0
   56.1370   26.4500   46.4920 O   0  0  0  0  0  0  0  0  0  0  0  0
   56.6680   28.4900   45.3230 C   0  0  0  0  0  0  0  0  0  0  0  0
   55.6000   29.0560   44.7420 N   0  0  0  0  0  0  0  0  0  0  0  0
   55.9320   30.3340   44.6130 N   0  0  0  0  0  0  0  0  0  0  0  0
   57.1440   30.6160   45.0780 C   0  0  0  0  0  0  0  0  0  0  0  0
   57.9690   31.8080   45.0590 C   0  0  0  0  0  0  0  0  0  0  0  0
   58.3890   32.2360   46.3190 C   0  0  0  0  0  0  0  0  0  0  0  0
   59.0430   33.4360   46.5010 C   0  0  0  0  0  0  0  0  0  0  0  0
   59.5040   33.8420   48.1470 Cl  0  0  0  0  0  0  0  0  0  0  0  0
   59.2980   34.2540   45.4190 C   0  0  0  0  0  0  0  0  0  0  0  0
   58.8900   33.8400   44.1660 C   0  0  0  0  0  0  0  0  0  0  0  0
   58.2270   32.6200   43.9810 C   0  0  0  0  0  0  0  0  0  0  0  0
   57.7670   32.0270   42.3940 Cl  0  0  0  0  0  0  0  0  0  0  0  0
   57.6430   29.4110   45.5480 C   0  0  0  0  0  0  0  0  0  0  0  0
   58.9800   29.0760   46.0910 C   0  0  0  0  0  0  0  0  0  0  0  0
   58.1660   23.6870   45.2670 S   0  0  0  0  0  0  0  0  0  0  0  0
   56.3535   20.6910   45.6365 H   0  0  0  0  0  0  0  0  0  0  0  0
   55.3755   21.2282   44.2289 H   0  0  0  0  0  0  0  0  0  0  0  0
   56.1296   19.5979   44.2289 H   0  0  0  0  0  0  0  0  0  0  0  0
   58.3946   20.9766   44.4954 H   0  0  0  0  0  0  0  0  0  0  0  0
   57.6501   20.8075   42.8834 H   0  0  0  0  0  0  0  0  0  0  0  0
   56.5630   25.6360   42.7010 H   0  0  0  0  0  0  0  0  0  0  0  0
   54.7300   28.5440   44.4920 H   0  0  0  0  0  0  0  0  0  0  0  0
   58.1925   31.5972   47.1927 H   0  0  0  0  0  0  0  0  0  0  0  0
   59.8154   35.2156   45.5517 H   0  0  0  0  0  0  0  0  0  0  0  0
   59.0899   34.4817   43.2952 H   0  0  0  0  0  0  0  0  0  0  0  0
   58.9422   29.0855   47.1903 H   0  0  0  0  0  0  0  0  0  0  0  0
   59.2770   28.0757   45.7429 H   0  0  0  0  0  0  0  0  0  0  0  0
   59.7136   29.8181   45.7429 H   0  0  0  0  0  0  0  0  0  0  0  0
  1  2  1  0
  2  3  1  0
  3  4  2  0
  4  5  1  0
  5  6  1  0
  6  7  2  0
  7  8  1  0
  8  9  2  0
  8 10  1  0
 10 11  1  0
 11 12  1  0
 12 13  2  0
 13 14  1  0
 14 15  2  0
 15 16  1  0
 16 17  1  0
 16 18  2  0
 18 19  1  0
 19 20  2  0
 20 21  1  0
 13 22  1  0
 22 23  1  0
  6 24  1  0
 24  3  1  0
 22 10  2  0
 20 14  1  0
  1 25  1  0
  1 26  1  0
  1 27  1  0
  2 28  1  0
  2 29  1  0
  5 30  1  0
 11 31  1  0
 15 32  1  0
 18 33  1  0
 19 34  1  0
 23 35  1  0
 23 36  1  0
 23 37  1  0
M  END
>  <smiles>  (21) 
CCc1n[nH]c(=NC(=O)c2[nH]nc(-c3cc(Cl)ccc3Cl)c2C)s1

>  <score_type>  (21) 
oracle

>  <origin>  (21) 
adg

>  <m_score__min__energy>  (21) 
-9.6500000000000004

>  <m_primary>  (21) 
energy

$$$$
21:0
     RDKit          3D

 51 53  0  0  0  0  0  0  0  0999 V2000
   54.9420   30.6380   52.0080 C   0  0  0  0  0  0  0  0  0  0  0  0
   56.1920   30.0720   51.6280 O   0  0  0  0  0  0  0  0  0  0  0  0
   57.3960   30.7860   51.5530 C   0  0  0  0  0  0  0  0  0  0  0  0
   57.4480   32.1900   51.6430 C   0  0  0  0  0  0  0  0  0  0  0  0
   58.6720   32.8570   51.5420 C   0  0  0  0  0  0  0  0  0  0  0  0
   59.8530   32.1340   51.3590 C   0  0  0  0  0  0  0  0  0  0  0  0
   59.8200   30.7330   51.2890 C   0  0  0  0  0  0  0  0  0  0  0  0
   61.0870   29.9530   51.0690 C   0  0  0  0  0  0  0  0  0  0  0  0
   60.8480   28.8560   50.0800 C   0  0  0  0  0  0  0  0  0  0  0  0
   60.4550   27.7290   50.4820 O   0  0  0  0  0  0  0  0  0  0  0  0
   61.0440   29.1150   48.6840 N   0  0  0  0  0  0  0  0  0  0  0  0
   60.0210   29.2190   47.6840 C   0  0  0  0  0  0  0  0  0  0  0  0
   58.9580   28.3020   47.6070 C   0  0  0  0  0  0  0  0  0  0  0  0
   57.9740   28.4450   46.6220 C   0  0  0  0  0  0  0  0  0  0  0  0
   58.0490   29.4960   45.7000 C   0  0  0  0  0  0  0  0  0  0  0  0
   56.7430   29.7680   44.5540 S   0  0  0  0  0  0  0  0  0  0  0  0
   57.1800   29.3520   43.1780 O   0  0  0  0  0  0  0  0  0  0  0  0
   55.5220   28.9780   44.9340 O   0  0  0  0  0  0  0  0  0  0  0  0
   56.3860   31.4580   44.5640 N   0  0  0  0  0  0  0  0  0  0  0  0
   57.3700   32.4170   44.1770 C   0  0  0  0  0  0  0  0  0  0  0  0
   58.1140   32.2000   43.1820 O   0  0  0  0  0  0  0  0  0  0  0  0
   57.4130   33.7420   44.8620 C   0  0  0  0  0  0  0  0  0  0  0  0
   58.4920   33.7100   45.9090 C   0  0  0  0  0  0  0  0  0  0  0  0
   58.1860   33.3500   47.2320 C   0  0  0  0  0  0  0  0  0  0  0  0
   59.1700   33.4040   48.2240 C   0  0  0  0  0  0  0  0  0  0  0  0
   60.4640   33.8290   47.9060 C   0  0  0  0  0  0  0  0  0  0  0  0
   61.6970   33.8950   49.1520 Cl  0  0  0  0  0  0  0  0  0  0  0  0
   60.7720   34.2050   46.5950 C   0  0  0  0  0  0  0  0  0  0  0  0
   59.7900   34.1490   45.6000 C   0  0  0  0  0  0  0  0  0  0  0  0
   59.1230   30.3930   45.7590 C   0  0  0  0  0  0  0  0  0  0  0  0
   60.1090   30.2460   46.7370 C   0  0  0  0  0  0  0  0  0  0  0  0
   58.5860   30.0680   51.3760 C   0  0  0  0  0  0  0  0  0  0  0  0
   54.8722   30.6696   53.1053 H   0  0  0  0  0  0  0  0  0  0  0  0
   54.8645   31.6590   51.6061 H   0  0  0  0  0  0  0  0  0  0  0  0
   54.1236   30.0227   51.6061 H   0  0  0  0  0  0  0  0  0  0  0  0
   56.5219   32.7641   51.7934 H   0  0  0  0  0  0  0  0  0  0  0  0
   58.7054   33.9546   51.6068 H   0  0  0  0  0  0  0  0  0  0  0  0
   60.8123   32.6648   51.2694 H   0  0  0  0  0  0  0  0  0  0  0  0
   61.8671   30.6264   50.6844 H   0  0  0  0  0  0  0  0  0  0  0  0
   61.4107   29.5136   52.0241 H   0  0  0  0  0  0  0  0  0  0  0  0
   58.8995   27.4693   48.3234 H   0  0  0  0  0  0  0  0  0  0  0  0
   57.1397   27.7299   46.5721 H   0  0  0  0  0  0  0  0  0  0  0  0
   57.6332   34.5310   44.1279 H   0  0  0  0  0  0  0  0  0  0  0  0
   56.4411   33.9519   45.3324 H   0  0  0  0  0  0  0  0  0  0  0  0
   57.1673   33.0240   47.4888 H   0  0  0  0  0  0  0  0  0  0  0  0
   58.9260   33.1118   49.2560 H   0  0  0  0  0  0  0  0  0  0  0  0
   61.7878   34.5453   46.3455 H   0  0  0  0  0  0  0  0  0  0  0  0
   60.0356   34.4502   44.5709 H   0  0  0  0  0  0  0  0  0  0  0  0
   59.1901   31.2162   45.0324 H   0  0  0  0  0  0  0  0  0  0  0  0
   60.9605   30.9419   46.7633 H   0  0  0  0  0  0  0  0  0  0  0  0
   58.5534   28.9708   51.3043 H   0  0  0  0  0  0  0  0  0  0  0  0
  1  2  1  0
  2  3  1  0
  3  4  2  0
  4  5  1  0
  5  6  2  0
  6  7  1  0
  7  8  1  0
  8  9  1  0
  9 10  2  0
  9 11  1  0
 11 12  1  0
 12 13  2  0
 13 14  1  0
 14 15  2  0
 15 16  1  0
 16 17  2  0
 16 18  2  0
 16 19  1  0
 19 20  1  0
 20 21  2  0
 20 22  1  0
 22 23  1  0
 23 24  2  0
 24 25  1  0
 25 26  2  0
 26 27  1  0
 26 28  1  0
 28 29  2  0
 15 30  1  0
 30 31  2  0
  7 32  2  0
 32  3  1  0
 31 12  1  0
 29 23  1  0
  1 33  1  0
  1 34  1  0
  1 35  1  0
  4 36  1  0
  5 37  1  0
  6 38  1  0
  8 39  1  0
  8 40  1  0
 13 41  1  0
 14 42  1  0
 22 43  1  0
 22 44  1  0
 24 45  1  0
 25 46  1  0
 28 47  1  0
 29 48  1  0
 30 49  1  0
 31 50  1  0
 32 51  1  0
M  CHG  2  11  -1  19  -1
M  END
>  <UniqueID>  (22) 
21

>  <SMILES>  (22) 
COc1cccc(CC(=O)[N-]c2ccc(S(=O)(=O)[N-]C(=O)Cc3ccc(Cl)cc3)cc2)c1

>  <Energy>  (22) 
51.535735547917334

>  <Genealogy>  (22) 
COc1cccc(CC(=O)[N-]c2ccc(S(=O)(=O)[N-]C(=O)Cc3ccc(Cl)cc3)cc2)c1 (protonated)
COc1cccc(CC(=O)[N-]c2ccc(S(=O)(=O)[N-]C(=O)Cc3ccc(Cl)cc3)cc2)c1 (3D coordinates assigned)
COc1cccc(CC(=O)[N-]c2ccc(S(=O)(=O)[N-]C(=O)Cc3ccc(Cl)cc3)cc2)c1 (optimized conformer: 51.535735547917334 kcal/mol)

>  <smiles>  (22) 
COc1cccc(CC(=O)Nc2ccc(S(=O)(=O)NC(=O)Cc3ccc(Cl)cc3)cc2)c1

>  <score_type>  (22) 
oracle

>  <origin>  (22) 
adg

>  <m_score__min__energy>  (22) 
-11.210000000000001

>  <m_primary>  (22) 
energy

$$$$
22:0
     RDKit          3D

 56 59  0  0  0  0  0  0  0  0999 V2000
   55.1240   27.4990   45.4330 H   0  0  0  0  0  0  0  0  0  0  0  0
   55.2770   26.6930   46.0260 O   0  0  0  0  0  0  0  0  0  0  0  0
   55.1290   25.3830   45.5710 C   0  0  0  0  0  0  0  0  0  0  0  0
   53.8810   24.8460   45.5240 N   0  0  0  0  0  0  0  0  0  0  0  0
   53.6730   23.5760   45.0930 C   0  0  0  0  0  0  0  0  0  0  0  0
   52.5060   23.1080   45.0580 O   0  0  0  0  0  0  0  0  0  0  0  0
   54.7230   22.8090   44.7060 N   0  0  0  0  0  0  0  0  0  0  0  0
   55.9920   23.2920   44.7320 C   0  0  0  0  0  0  0  0  0  0  0  0
   56.9440   22.5450   44.3810 O   0  0  0  0  0  0  0  0  0  0  0  0
   56.2310   24.6130   45.1530 C   0  0  0  0  0  0  0  0  0  0  0  0
   57.6050   25.1450   45.2350 C   0  0  0  0  0  0  0  0  0  0  0  0
   58.4299   24.4215   45.1564 H   0  0  0  0  0  0  0  0  0  0  0  0
   57.9360   26.4420   45.3980 C   0  0  0  0  0  0  0  0  0  0  0  0
   58.2050   26.9900   46.6400 C   0  0  0  0  0  0  0  0  0  0  0  0
   58.1494   26.4733   47.6095 H   0  0  0  0  0  0  0  0  0  0  0  0
   58.5560   28.3070   46.4310 C   0  0  0  0  0  0  0  0  0  0  0  0
   58.9480   29.2640   47.5160 C   0  0  0  0  0  0  0  0  0  0  0  0
   58.7593   28.8034   48.4970 H   0  0  0  0  0  0  0  0  0  0  0  0
   60.0173   29.5050   47.4236 H   0  0  0  0  0  0  0  0  0  0  0  0
   58.3550   30.1859   47.4236 H   0  0  0  0  0  0  0  0  0  0  0  0
   58.5140   28.6050   45.1120 N   0  0  0  0  0  0  0  0  0  0  0  0
   58.7700   29.9310   44.5300 C   0  0  0  0  0  0  0  0  0  0  0  0
   59.6483   30.3782   45.0184 H   0  0  0  0  0  0  0  0  0  0  0  0
   58.9548   29.8186   43.4515 H   0  0  0  0  0  0  0  0  0  0  0  0
   57.5580   30.8450   44.7350 C   0  0  0  0  0  0  0  0  0  0  0  0
   57.0150   30.9457   43.7837 H   0  0  0  0  0  0  0  0  0  0  0  0
   56.9025   30.4023   45.4994 H   0  0  0  0  0  0  0  0  0  0  0  0
   58.0000   32.2060   45.2000 C   0  0  0  0  0  0  0  0  0  0  0  0
   57.6820   33.3500   44.4530 C   0  0  0  0  0  0  0  0  0  0  0  0
   57.0850   33.2567   43.5338 H   0  0  0  0  0  0  0  0  0  0  0  0
   58.1220   34.6080   44.8740 C   0  0  0  0  0  0  0  0  0  0  0  0
   57.8534   35.5044   44.2958 H   0  0  0  0  0  0  0  0  0  0  0  0
   58.9020   34.7310   46.0270 C   0  0  0  0  0  0  0  0  0  0  0  0
   59.2366   35.7249   46.3591 H   0  0  0  0  0  0  0  0  0  0  0  0
   59.2600   33.5900   46.7630 C   0  0  0  0  0  0  0  0  0  0  0  0
   60.0950   33.7250   47.9750 C   0  0  0  0  0  0  0  0  0  0  0  0
   59.5650   34.1550   49.0350 O   0  0  0  0  0  0  0  0  0  0  0  0
   61.4950   33.3920   47.9680 N   0  0  0  0  0  0  0  0  0  0  0  0
   62.3330   33.4290   46.7790 C   0  0  0  0  0  0  0  0  0  0  0  0
   62.1699   32.5302   46.1661 H   0  0  0  0  0  0  0  0  0  0  0  0
   62.1013   34.2972   46.1445 H   0  0  0  0  0  0  0  0  0  0  0  0
   63.7670   33.4710   47.2900 C   0  0  0  0  0  0  0  0  0  0  0  0
   64.4058   32.8011   46.6958 H   0  0  0  0  0  0  0  0  0  0  0  0
   64.1971   34.4803   47.2111 H   0  0  0  0  0  0  0  0  0  0  0  0
   63.7020   32.9980   48.7380 C   0  0  0  0  0  0  0  0  0  0  0  0
   63.9397   31.9260   48.8028 H   0  0  0  0  0  0  0  0  0  0  0  0
   64.4284   33.5274   49.3722 H   0  0  0  0  0  0  0  0  0  0  0  0
   62.2700   33.2530   49.1880 C   0  0  0  0  0  0  0  0  0  0  0  0
   61.8986   32.4065   49.7842 H   0  0  0  0  0  0  0  0  0  0  0  0
   62.1963   34.1497   49.8208 H   0  0  0  0  0  0  0  0  0  0  0  0
   58.7910   32.3310   46.3540 C   0  0  0  0  0  0  0  0  0  0  0  0
   59.0449   31.4364   46.9416 H   0  0  0  0  0  0  0  0  0  0  0  0
   58.0990   27.4820   44.4650 C   0  0  0  0  0  0  0  0  0  0  0  0
   57.8080   27.4480   43.1540 C   0  0  0  0  0  0  0  0  0  0  0  0
   57.9835   28.3356   42.5285 H   0  0  0  0  0  0  0  0  0  0  0  0
   57.3942   26.5325   42.7060 H   0  0  0  0  0  0  0  0  0  0  0  0
  1  2  1  0
  2  3  1  0
  3  4  1  0
  4  5  1  0
  5  6  2  0
  5  7  1  0
  7  8  1  0
  8  9  2  0
  8 10  1  0
 10 11  1  0
 11 12  1  0
 11 13  2  0
 13 14  1  0
 14 15  1  0
 14 16  2  0
 16 17  1  0
 17 18  1  0
 17 19  1  0
 17 20  1  0
 16 21  1  0
 21 22  1  0
 22 23  1  0
 22 24  1  0
 22 25  1  0
 25 26  1  0
 25 27  1  0
 25 28  1  0
 28 29  2  0
 29 30  1  0
 29 31  1  0
 31 32  1  0
 31 33  2  0
 33 34  1  0
 33 35  1  0
 35 36  1  0
 36 37  2  0
 36 38  1  0
 38 39  1  0
 39 40  1  0
 39 41  1  0
 39 42  1  0
 42 43  1  0
 42 44  1  0
 42 45  1  0
 45 46  1  0
 45 47  1  0
 45 48  1  0
 48 49  1  0
 48 50  1  0
 35 51  2  0
 51 52  1  0
 21 53  1  0
 53 54  2  0
 54 55  1  0
 54 56  1  0
 10  3  2  0
 53 13  1  0
 51 28  1  0
 48 38  1  0
M  CHG  2   4  -1   7  -1
M  END
>  <UniqueID>  (23) 
22

>  <SMILES>  (23) 
C=c1/c(=C\c2c(O)[n-]c(=O)[n-]c2=O)cc(C)n1CCc1cccc(C(=O)N2CCCC2)c1

>  <Energy>  (23) 
102.03441290097317

>  <Genealogy>  (23) 
C=c1c(=Cc2c(O)[n-]c(=O)[n-]c2=O)cc(C)n1CCc1cccc(C(=O)N2CCCC2)c1 (protonated)
C=c1/c(=C\c2c(O)[n-]c(=O)[n-]c2=O)cc(C)n1CCc1cccc(C(=O)N2CCCC2)c1 (cis-trans isomerization)
C=c1/c(=C\c2c(O)[n-]c(=O)[n-]c2=O)cc(C)n1CCc1cccc(C(=O)N2CCCC2)c1 (3D coordinates assigned)
C=c1/c(=C\c2c(O)[n-]c(=O)[n-]c2=O)cc(C)n1CCc1cccc(C(=O)N2CCCC2)c1 (nonaromatic ring conformer: 102.03441290097317 kcal/mol)

>  <smiles>  (23) 
C=c1c(=Cc2c(O)[nH]c(=O)[nH]c2=O)cc(C)n1CCc1cccc(C(=O)N2CCCC2)c1

>  <score_type>  (23) 
oracle

>  <origin>  (23) 
adg

>  <m_score__min__energy>  (23) 
-15.279999999999999

>  <m_primary>  (23) 
energy

$$$$
23:0
     RDKit          3D

 45 47  0  0  0  0  0  0  0  0999 V2000
   58.6740   30.2140   44.3960 C   0  0  0  0  0  0  0  0  0  0  0  0
   58.7480   30.0200   45.7210 C   0  0  0  0  0  0  0  0  0  0  0  0
   58.7020   28.7910   46.3860 C   0  0  0  0  0  0  0  0  0  0  0  0
   58.5220   27.5730   45.8410 C   0  0  0  0  0  0  0  0  0  0  0  0
   57.2650   26.8120   45.9470 C   0  0  0  0  0  0  0  0  0  0  0  0
   57.1980   25.5690   46.4530 N   0  0  0  0  0  0  0  0  0  0  0  0
   55.8800   25.2800   46.3990 C   0  0  0  0  0  0  0  0  0  0  0  0
   55.4120   24.1760   46.7820 O   0  0  0  0  0  0  0  0  0  0  0  0
   55.1020   26.2680   45.9110 N   0  0  0  0  0  0  0  0  0  0  0  0
   55.9880   27.2400   45.6410 C   0  0  0  0  0  0  0  0  0  0  0  0
   55.6210   28.4980   45.1680 O   0  0  0  0  0  0  0  0  0  0  0  0
   58.8460   29.0720   47.7390 C   0  0  0  0  0  0  0  0  0  0  0  0
   58.9730   30.4430   47.8460 C   0  0  0  0  0  0  0  0  0  0  0  0
   59.1830   31.1810   49.1330 C   0  0  0  0  0  0  0  0  0  0  0  0
   58.9230   31.0170   46.6240 N   0  0  0  0  0  0  0  0  0  0  0  0
   59.0710   32.4200   46.3490 C   0  0  0  0  0  0  0  0  0  0  0  0
   57.9650   33.1660   45.9190 C   0  0  0  0  0  0  0  0  0  0  0  0
   58.0980   34.5320   45.6590 C   0  0  0  0  0  0  0  0  0  0  0  0
   59.3330   35.1600   45.8330 C   0  0  0  0  0  0  0  0  0  0  0  0
   60.4420   34.4210   46.2560 C   0  0  0  0  0  0  0  0  0  0  0  0
   60.3240   33.0400   46.4990 C   0  0  0  0  0  0  0  0  0  0  0  0
   61.4100   32.2590   46.9210 O   0  0  0  0  0  0  0  0  0  0  0  0
   62.6550   32.7460   47.3450 C   0  0  0  0  0  0  0  0  0  0  0  0
   63.3370   33.5000   46.5990 O   0  0  0  0  0  0  0  0  0  0  0  0
   63.1800   32.3290   48.6170 N   0  0  0  0  0  0  0  0  0  0  0  0
   64.4890   32.8150   49.0630 C   0  0  0  0  0  0  0  0  0  0  0  0
   62.3930   31.4160   49.4510 C   0  0  0  0  0  0  0  0  0  0  0  0
   58.7216   31.2336   43.9859 H   0  0  0  0  0  0  0  0  0  0  0  0
   58.5657   29.3535   43.7193 H   0  0  0  0  0  0  0  0  0  0  0  0
   59.3584   27.1220   45.2869 H   0  0  0  0  0  0  0  0  0  0  0  0
   54.7700   28.9530   45.4730 H   0  0  0  0  0  0  0  0  0  0  0  0
   58.8568   28.3445   48.5640 H   0  0  0  0  0  0  0  0  0  0  0  0
   58.9906   30.5048   49.9790 H   0  0  0  0  0  0  0  0  0  0  0  0
   60.2201   31.5442   49.1824 H   0  0  0  0  0  0  0  0  0  0  0  0
   58.4924   32.0358   49.1824 H   0  0  0  0  0  0  0  0  0  0  0  0
   56.9899   32.6746   45.7860 H   0  0  0  0  0  0  0  0  0  0  0  0
   57.2292   35.1135   45.3169 H   0  0  0  0  0  0  0  0  0  0  0  0
   59.4335   36.2377   45.6370 H   0  0  0  0  0  0  0  0  0  0  0  0
   61.4110   34.9214   46.3995 H   0  0  0  0  0  0  0  0  0  0  0  0
   64.5206   32.8267   50.1625 H   0  0  0  0  0  0  0  0  0  0  0  0
   65.2770   32.1495   48.6806 H   0  0  0  0  0  0  0  0  0  0  0  0
   64.6517   33.8335   48.6806 H   0  0  0  0  0  0  0  0  0  0  0  0
   62.5814   31.6346   50.5125 H   0  0  0  0  0  0  0  0  0  0  0  0
   61.3232   31.5505   49.2332 H   0  0  0  0  0  0  0  0  0  0  0  0
   62.6838   30.3777   49.2332 H   0  0  0  0  0  0  0  0  0  0  0  0
  1  2  2  0
  2  3  1  0
  3  4  2  3
  4  5  1  0
  5  6  1  0
  6  7  1  0
  7  8  2  0
  7  9  1  0
  9 10  1  0
 10 11  1  0
  3 12  1  0
 12 13  2  0
 13 14  1  0
 13 15  1  0
 15 16  1  0
 16 17  2  0
 17 18  1  0
 18 19  2  0
 19 20  1  0
 20 21  2  0
 21 22  1  0
 22 23  1  0
 23 24  2  0
 23 25  1  0
 25 26  1  0
 25 27  1  0
 15  2  1  0
 21 16  1  0
 10  5  2  0
  1 28  1  0
  1 29  1  0
  4 30  1  0
 11 31  1  0
 12 32  1  0
 14 33  1  0
 14 34  1  0
 14 35  1  0
 17 36  1  0
 18 37  1  0
 19 38  1  0
 20 39  1  0
 26 40  1  0
 26 41  1  0
 26 42  1  0
 27 43  1  0
 27 44  1  0
 27 45  1  0
M  CHG  2   6  -1   9  -1
M  END
>  <UniqueID>  (24) 
23

>  <SMILES>  (24) 
C=c1c(=Cc2[n-]c(=O)[n-]c2O)cc(C)n1-c1ccccc1OC(=O)N(C)C

>  <Energy>  (24) 
117.48135662184119

>  <Genealogy>  (24) 
C=c1c(=Cc2[n-]c(=O)[n-]c2O)cc(C)n1-c1ccccc1OC(=O)N(C)C (protonated)
C=c1c(=Cc2[n-]c(=O)[n-]c2O)cc(C)n1-c1ccccc1OC(=O)N(C)C (3D coordinates assigned)
C=c1c(=Cc2[n-]c(=O)[n-]c2O)cc(C)n1-c1ccccc1OC(=O)N(C)C (optimized conformer: 117.48135662184119 kcal/mol)

>  <smiles>  (24) 
C=c1c(=Cc2[nH]c(=O)[nH]c2O)cc(C)n1-c1ccccc1OC(=O)N(C)C

>  <score_type>  (24) 
oracle

>  <origin>  (24) 
adg

>  <m_score__min__energy>  (24) 
-12.94

>  <m_primary>  (24) 
energy

$$$$
24:0
     RDKit          3D

 48 50  0  0  0  0  0  0  0  0999 V2000
   57.1015   29.9730   42.2704 H   0  0  0  0  0  0  0  0  0  0  0  0
   56.9360   30.3260   43.2990 C   0  0  0  0  0  0  0  0  0  0  0  0
   56.4680   29.3350   44.2890 C   0  0  0  0  0  0  0  0  0  0  0  0
   55.3570   29.4810   44.8630 O   0  0  0  0  0  0  0  0  0  0  0  0
   57.2720   28.1660   44.5150 N   0  0  0  0  0  0  0  0  0  0  0  0
   57.7920   27.7500   45.6370 C   0  0  0  0  0  0  0  0  0  0  0  0
   58.9180   28.2350   46.2850 C   0  0  0  0  0  0  0  0  0  0  0  0
   59.5789   29.0589   45.9777 H   0  0  0  0  0  0  0  0  0  0  0  0
   59.0120   27.4350   47.4110 C   0  0  0  0  0  0  0  0  0  0  0  0
   60.0210   27.5860   48.5000 C   0  0  0  0  0  0  0  0  0  0  0  0
   59.5204   27.5111   49.4766 H   0  0  0  0  0  0  0  0  0  0  0  0
   60.7761   26.7909   48.4131 H   0  0  0  0  0  0  0  0  0  0  0  0
   60.5102   28.5674   48.4131 H   0  0  0  0  0  0  0  0  0  0  0  0
   58.0000   26.5450   47.4440 N   0  0  0  0  0  0  0  0  0  0  0  0
   57.2750   26.7310   46.3510 N   0  0  0  0  0  0  0  0  0  0  0  0
   56.0620   25.9810   46.0500 C   0  0  0  0  0  0  0  0  0  0  0  0
   55.5747   25.6797   46.9890 H   0  0  0  0  0  0  0  0  0  0  0  0
   55.3756   26.6126   45.4669 H   0  0  0  0  0  0  0  0  0  0  0  0
   56.3203   25.0847   45.4669 H   0  0  0  0  0  0  0  0  0  0  0  0
   57.1760   31.6230   43.5520 C   0  0  0  0  0  0  0  0  0  0  0  0
   56.8419   32.3566   42.8035 H   0  0  0  0  0  0  0  0  0  0  0  0
   57.8540   32.1400   44.7580 C   0  0  0  0  0  0  0  0  0  0  0  0
   57.5440   33.4070   45.2810 C   0  0  0  0  0  0  0  0  0  0  0  0
   56.7949   34.0375   44.7796 H   0  0  0  0  0  0  0  0  0  0  0  0
   58.1820   33.8700   46.4340 C   0  0  0  0  0  0  0  0  0  0  0  0
   57.9404   34.8670   46.8311 H   0  0  0  0  0  0  0  0  0  0  0  0
   59.1290   33.0690   47.0870 C   0  0  0  0  0  0  0  0  0  0  0  0
   59.9740   33.6760   48.5140 S   0  0  0  0  0  0  0  0  0  0  0  0
   59.3420   34.9680   48.9530 O   0  0  0  0  0  0  0  0  0  0  0  0
   59.8330   32.6830   49.6330 O   0  0  0  0  0  0  0  0  0  0  0  0
   61.6730   33.9390   48.1890 N   0  0  0  0  0  0  0  0  0  0  0  0
   61.9170   33.9950   46.7340 C   0  0  0  0  0  0  0  0  0  0  0  0
   61.2882   33.2442   46.2331 H   0  0  0  0  0  0  0  0  0  0  0  0
   61.6683   35.0035   46.3719 H   0  0  0  0  0  0  0  0  0  0  0  0
   63.3940   33.7070   46.4200 C   0  0  0  0  0  0  0  0  0  0  0  0
   63.5341   33.7707   45.3308 H   0  0  0  0  0  0  0  0  0  0  0  0
   63.9859   34.4536   46.9697 H   0  0  0  0  0  0  0  0  0  0  0  0
   63.8430   32.4280   46.8540 O   0  0  0  0  0  0  0  0  0  0  0  0
   63.0690   31.8780   47.9120 C   0  0  0  0  0  0  0  0  0  0  0  0
   62.2194   31.3318   47.4762 H   0  0  0  0  0  0  0  0  0  0  0  0
   63.7309   31.2182   48.4921 H   0  0  0  0  0  0  0  0  0  0  0  0
   62.5210   32.9430   48.8810 C   0  0  0  0  0  0  0  0  0  0  0  0
   61.9211   32.4430   49.6557 H   0  0  0  0  0  0  0  0  0  0  0  0
   63.3776   33.4740   49.3216 H   0  0  0  0  0  0  0  0  0  0  0  0
   59.4030   31.7860   46.5940 C   0  0  0  0  0  0  0  0  0  0  0  0
   60.1255   31.1418   47.1165 H   0  0  0  0  0  0  0  0  0  0  0  0
   58.7630   31.3210   45.4420 C   0  0  0  0  0  0  0  0  0  0  0  0
   58.9736   30.3074   45.0702 H   0  0  0  0  0  0  0  0  0  0  0  0
  1  2  1  0
  2  3  1  0
  3  4  2  0
  3  5  1  0
  5  6  2  3
  6  7  1  0
  7  8  1  0
  7  9  2  0
  9 10  1  0
 10 11  1  0
 10 12  1  0
 10 13  1  0
  9 14  1  0
 14 15  1  0
 15 16  1  0
 16 17  1  0
 16 18  1  0
 16 19  1  0
  2 20  2  0
 20 21  1  0
 20 22  1  0
 22 23  2  0
 23 24  1  0
 23 25  1  0
 25 26  1  0
 25 27  2  0
 27 28  1  0
 28 29  2  0
 28 30  2  0
 28 31  1  0
 31 32  1  0
 32 33  1  0
 32 34  1  0
 32 35  1  0
 35 36  1  0
 35 37  1  0
 35 38  1  0
 38 39  1  0
 39 40  1  0
 39 41  1  0
 39 42  1  0
 42 43  1  0
 42 44  1  0
 27 45  1  0
 45 46  1  0
 45 47  2  0
 47 48  1  0
 15  6  1  0
 47 22  1  0
 42 31  1  0
M  CHG  1  14  -1
M  END
>  <UniqueID>  (25) 
24

>  <SMILES>  (25) 
Cc1cc(=NC(=O)/C=C\c2ccc(S(=O)(=O)N3CCOCC3)cc2)n(C)[n-]1

>  <Energy>  (25) 
100.61754168787618

>  <Genealogy>  (25) 
Cc1cc(=NC(=O)C=Cc2ccc(S(=O)(=O)N3CCOCC3)cc2)n(C)[n-]1 (protonated)
Cc1cc(=NC(=O)/C=C\c2ccc(S(=O)(=O)N3CCOCC3)cc2)n(C)[n-]1 (cis-trans isomerization)
Cc1cc(=NC(=O)/C=C\c2ccc(S(=O)(=O)N3CCOCC3)cc2)n(C)[n-]1 (3D coordinates assigned)
Cc1cc(=NC(=O)/C=C\c2ccc(S(=O)(=O)N3CCOCC3)cc2)n(C)[n-]1 (nonaromatic ring conformer: 100.61754168787618 kcal/mol)

>  <smiles>  (25) 
Cc1cc(=NC(=O)C=Cc2ccc(S(=O)(=O)N3CCOCC3)cc2)n(C)[nH]1

>  <score_type>  (25) 
oracle

>  <origin>  (25) 
adg

>  <m_score__min__energy>  (25) 
-10.43

>  <m_primary>  (25) 
energy

$$$$
25:0
     RDKit          3D

 70 73  0  0  0  0  0  0  0  0999 V2000
   59.3260   30.2210   48.9830 C   0  0  0  0  0  0  0  0  0  0  0  0
   59.1480   31.5970   49.5690 C   0  0  0  0  0  0  0  0  0  0  0  0
   58.2920   32.3220   49.0860 O   0  0  0  0  0  0  0  0  0  0  0  0
   59.9550   32.0490   50.6970 N   0  0  2  0  0  0  0  0  0  0  0  0
   59.9770   33.5350   50.7620 C   0  0  0  0  0  0  0  0  0  0  0  0
   60.8300   34.1740   49.6430 C   0  0  0  0  0  0  0  0  0  0  0  0
   61.9840   33.3280   49.3190 N   0  0  0  0  0  0  0  0  0  0  0  0
   62.3600   33.1810   47.9370 C   0  0  0  0  0  0  0  0  0  0  0  0
   63.2750   33.8990   47.4470 O   0  0  0  0  0  0  0  0  0  0  0  0
   61.6200   32.2300   47.0520 C   0  0  0  0  0  0  0  0  0  0  0  0
   60.4200   32.9190   46.4690 C   0  0  0  0  0  0  0  0  0  0  0  0
   60.4300   34.3040   46.2490 C   0  0  0  0  0  0  0  0  0  0  0  0
   59.2950   34.9440   45.7410 C   0  0  0  0  0  0  0  0  0  0  0  0
   58.1460   34.2060   45.4420 C   0  0  0  0  0  0  0  0  0  0  0  0
   58.1250   32.8240   45.6510 C   0  0  0  0  0  0  0  0  0  0  0  0
   56.9380   32.0870   45.3480 N   0  0  0  0  0  0  0  0  0  0  0  0
   56.8990   30.7580   44.2340 S   0  0  0  0  0  0  0  0  0  0  0  0
   57.6640   31.1360   42.9940 O   0  0  0  0  0  0  0  0  0  0  0  0
   55.4720   30.4880   43.8500 O   0  0  0  0  0  0  0  0  0  0  0  0
   57.5880   29.2940   44.9290 C   0  0  0  0  0  0  0  0  0  0  0  0
   58.9800   29.1150   44.9740 C   0  0  0  0  0  0  0  0  0  0  0  0
   59.5170   27.9300   45.4800 C   0  0  0  0  0  0  0  0  0  0  0  0
   58.6720   26.9060   45.9180 C   0  0  0  0  0  0  0  0  0  0  0  0
   57.2790   27.0630   45.8510 C   0  0  0  0  0  0  0  0  0  0  0  0
   56.3640   25.9610   46.3020 C   0  0  0  0  0  0  0  0  0  0  0  0
   55.0360   26.3960   46.2120 O   0  0  0  0  0  0  0  0  0  0  0  0
   56.7430   28.2730   45.3840 C   0  0  0  0  0  0  0  0  0  0  0  0
   59.2510   32.1900   46.2030 C   0  0  0  0  0  0  0  0  0  0  0  0
   62.4470   32.4110   50.3710 C   0  0  2  0  0  0  0  0  0  0  0  0
   63.7850   31.7100   50.0340 C   0  0  0  0  0  0  0  0  0  0  0  0
   64.8900   32.6800   49.8970 N   0  0  0  0  0  0  0  0  0  0  0  0
   64.7590   33.7860   50.8640 C   0  0  0  0  0  0  0  0  0  0  0  0
   66.1210   34.0230   51.5060 C   0  0  0  0  0  0  0  0  0  0  0  0
   67.0810   33.1790   50.7040 C   0  0  0  0  0  0  0  0  0  0  0  0
   66.2090   32.0800   50.1370 C   0  0  0  0  0  0  0  0  0  0  0  0
   61.3110   31.4180   50.6950 C   0  0  0  0  0  0  0  0  0  0  0  0
   59.4211   29.4858   49.7957 H   0  0  0  0  0  0  0  0  0  0  0  0
   58.4527   29.9709   48.3627 H   0  0  0  0  0  0  0  0  0  0  0  0
   60.2342   30.2013   48.3627 H   0  0  0  0  0  0  0  0  0  0  0  0
   59.4760   31.7350   51.5760 H   0  0  0  0  0  0  0  0  0  0  0  0
   58.9452   33.9055   50.6716 H   0  0  0  0  0  0  0  0  0  0  0  0
   60.4305   33.8164   51.7238 H   0  0  0  0  0  0  0  0  0  0  0  0
   60.2097   34.2977   48.7430 H   0  0  0  0  0  0  0  0  0  0  0  0
   61.1963   35.1503   49.9933 H   0  0  0  0  0  0  0  0  0  0  0  0
   62.2814   31.8953   46.2393 H   0  0  0  0  0  0  0  0  0  0  0  0
   61.2932   31.3602   47.6407 H   0  0  0  0  0  0  0  0  0  0  0  0
   61.3334   34.8888   46.4767 H   0  0  0  0  0  0  0  0  0  0  0  0
   59.3064   36.0315   45.5762 H   0  0  0  0  0  0  0  0  0  0  0  0
   57.2564   34.7140   45.0413 H   0  0  0  0  0  0  0  0  0  0  0  0
   59.6481   29.9095   44.6101 H   0  0  0  0  0  0  0  0  0  0  0  0
   60.6081   27.8016   45.5343 H   0  0  0  0  0  0  0  0  0  0  0  0
   59.1003   25.9744   46.3164 H   0  0  0  0  0  0  0  0  0  0  0  0
   56.5062   25.0794   45.6597 H   0  0  0  0  0  0  0  0  0  0  0  0
   56.5944   25.6940   47.3439 H   0  0  0  0  0  0  0  0  0  0  0  0
   54.7910   26.7220   47.1150 H   0  0  0  0  0  0  0  0  0  0  0  0
   55.6530   28.4208   45.3751 H   0  0  0  0  0  0  0  0  0  0  0  0
   59.2157   31.1139   46.4283 H   0  0  0  0  0  0  0  0  0  0  0  0
   62.6790   32.9993   51.2710 H   0  0  0  0  0  0  0  0  0  0  0  0
   64.0296   31.0023   50.8398 H   0  0  0  0  0  0  0  0  0  0  0  0
   63.6661   31.1875   49.0734 H   0  0  0  0  0  0  0  0  0  0  0  0
   64.4289   34.6976   50.3443 H   0  0  0  0  0  0  0  0  0  0  0  0
   64.0159   33.5308   51.6339 H   0  0  0  0  0  0  0  0  0  0  0  0
   66.3973   35.0860   51.4460 H   0  0  0  0  0  0  0  0  0  0  0  0
   66.1276   33.7564   52.5732 H   0  0  0  0  0  0  0  0  0  0  0  0
   67.5419   33.7687   49.8979 H   0  0  0  0  0  0  0  0  0  0  0  0
   67.9141   32.7915   51.3088 H   0  0  0  0  0  0  0  0  0  0  0  0
   66.6339   31.7054   49.1941 H   0  0  0  0  0  0  0  0  0  0  0  0
   66.1398   31.2283   50.8296 H   0  0  0  0  0  0  0  0  0  0  0  0
   61.3221   30.6171   49.9411 H   0  0  0  0  0  0  0  0  0  0  0  0
   61.4932   31.0351   51.7100 H   0  0  0  0  0  0  0  0  0  0  0  0
  1  2  1  0
  2  3  2  0
  2  4  1  0
  4  5  1  0
  5  6  1  0
  6  7  1  0
  7  8  1  0
  8  9  2  0
  8 10  1  0
 10 11  1  0
 11 12  2  0
 12 13  1  0
 13 14  2  0
 14 15  1  0
 15 16  1  0
 16 17  1  0
 17 18  2  0
 17 19  2  0
 17 20  1  0
 20 21  2  0
 21 22  1  0
 22 23  2  0
 23 24  1  0
 24 25  1  0
 25 26  1  0
 24 27  2  0
 15 28  2  0
  7 29  1  0
 29 30  1  0
 30 31  1  0
 31 32  1  0
 32 33  1  0
 33 34  1  0
 34 35  1  0
 29 36  1  0
 36  4  1  0
 28 11  1  0
 35 31  1  0
 27 20  1  0
  1 37  1  0
  1 38  1  0
  1 39  1  0
  4 40  1  1
  5 41  1  0
  5 42  1  0
  6 43  1  0
  6 44  1  0
 10 45  1  0
 10 46  1  0
 12 47  1  0
 13 48  1  0
 14 49  1  0
 21 50  1  0
 22 51  1  0
 23 52  1  0
 25 53  1  0
 25 54  1  0
 26 55  1  0
 27 56  1  0
 28 57  1  0
 29 58  1  1
 30 59  1  0
 30 60  1  0
 32 61  1  0
 32 62  1  0
 33 63  1  0
 33 64  1  0
 34 65  1  0
 34 66  1  0
 35 67  1  0
 35 68  1  0
 36 69  1  0
 36 70  1  0
M  CHG  2   4   1  16  -1
M  END
>  <UniqueID>  (26) 
25

>  <SMILES>  (26) 
CC(=O)[N@@H+]1CCN(C(=O)Cc2cccc([N-]S(=O)(=O)c3cccc(CO)c3)c2)[C@H](CN2CCCC2)C1

>  <Energy>  (26) 
91.370044131728

>  <Genealogy>  (26) 
CC(=O)[NH+]1CCN(C(=O)Cc2cccc([N-]S(=O)(=O)c3cccc(CO)c3)c2)C(CN2CCCC2)C1 (protonated)
CC(=O)[N@@H+]1CCN(C(=O)Cc2cccc([N-]S(=O)(=O)c3cccc(CO)c3)c2)[C@H](CN2CCCC2)C1 (chirality)
CC(=O)[N@@H+]1CCN(C(=O)Cc2cccc([N-]S(=O)(=O)c3cccc(CO)c3)c2)[C@H](CN2CCCC2)C1 (3D coordinates assigned)
CC(=O)[N@@H+]1CCN(C(=O)Cc2cccc([N-]S(=O)(=O)c3cccc(CO)c3)c2)[C@H](CN2CCCC2)C1 (nonaromatic ring conformer: 91.370044131728 kcal/mol)

>  <smiles>  (26) 
CC(=O)N1CCN(C(=O)Cc2cccc(NS(=O)(=O)c3cccc(CO)c3)c2)C(CN2CCCC2)C1

>  <score_type>  (26) 
oracle

>  <origin>  (26) 
adg

>  <m_score__min__energy>  (26) 
-11.029999999999999

>  <m_primary>  (26) 
energy

$$$$
26:0
     RDKit          3D

 44 46  0  0  0  0  0  0  0  0999 V2000
   59.9160   34.1330   49.5700 O   0  0  0  0  0  0  0  0  0  0  0  0
   60.1720   34.2040   48.3240 C   0  0  0  0  0  0  0  0  0  0  0  0
   59.2490   34.9490   47.4260 C   0  0  0  0  0  0  0  0  0  0  0  0
   58.7320   34.0630   46.3450 C   0  0  0  0  0  0  0  0  0  0  0  0
   58.0400   32.9320   46.7190 C   0  0  0  0  0  0  0  0  0  0  0  0
   57.7970   32.5770   48.0370 O   0  0  0  0  0  0  0  0  0  0  0  0
   57.5490   32.0840   45.7720 N   0  0  0  0  0  0  0  0  0  0  0  0
   57.7660   32.3960   44.4620 C   0  0  0  0  0  0  0  0  0  0  0  0
   57.0910   31.2250   43.2750 S   0  0  0  0  0  0  0  0  0  0  0  0
   56.2660   29.8840   44.2150 C   0  0  0  0  0  0  0  0  0  0  0  0
   57.3290   29.0020   44.7270 C   0  0  0  0  0  0  0  0  0  0  0  0
   58.6430   29.4000   44.4940 C   0  0  0  0  0  0  0  0  0  0  0  0
   59.6830   28.6340   44.9410 C   0  0  0  0  0  0  0  0  0  0  0  0
   59.3970   27.4620   45.6240 C   0  0  0  0  0  0  0  0  0  0  0  0
   58.0920   27.0610   45.8600 C   0  0  0  0  0  0  0  0  0  0  0  0
   57.0310   27.8410   45.4050 C   0  0  0  0  0  0  0  0  0  0  0  0
   55.7450   27.4550   45.6300 F   0  0  0  0  0  0  0  0  0  0  0  0
   58.4370   33.4950   44.0860 N   0  0  0  0  0  0  0  0  0  0  0  0
   58.9430   34.3660   45.0070 C   0  0  0  0  0  0  0  0  0  0  0  0
   59.5730   35.3990   44.6810 O   0  0  0  0  0  0  0  0  0  0  0  0
   61.3470   33.5520   47.8770 N   0  0  0  0  0  0  0  0  0  0  0  0
   62.1420   32.8720   48.8940 C   0  0  0  0  0  0  0  0  0  0  0  0
   63.5210   32.6120   48.3230 C   0  0  0  0  0  0  0  0  0  0  0  0
   63.9960   33.6390   47.5390 O   0  0  0  0  0  0  0  0  0  0  0  0
   63.2460   33.8940   46.4140 C   0  0  0  0  0  0  0  0  0  0  0  0
   61.7960   33.5180   46.5150 C   0  0  0  0  0  0  0  0  0  0  0  0
   58.4022   35.3304   48.0155 H   0  0  0  0  0  0  0  0  0  0  0  0
   59.8010   35.7816   46.9654 H   0  0  0  0  0  0  0  0  0  0  0  0
   58.5840   32.6890   48.6730 H   0  0  0  0  0  0  0  0  0  0  0  0
   57.0230   31.2210   46.0460 H   0  0  0  0  0  0  0  0  0  0  0  0
   55.6906   30.3074   45.0514 H   0  0  0  0  0  0  0  0  0  0  0  0
   55.5675   29.3265   43.5737 H   0  0  0  0  0  0  0  0  0  0  0  0
   58.8446   30.3337   43.9485 H   0  0  0  0  0  0  0  0  0  0  0  0
   60.7242   28.9408   44.7627 H   0  0  0  0  0  0  0  0  0  0  0  0
   60.2254   26.8359   45.9870 H   0  0  0  0  0  0  0  0  0  0  0  0
   57.8936   26.1271   46.4064 H   0  0  0  0  0  0  0  0  0  0  0  0
   62.2233   33.5067   49.7887 H   0  0  0  0  0  0  0  0  0  0  0  0
   61.6637   31.9230   49.1777 H   0  0  0  0  0  0  0  0  0  0  0  0
   64.2203   32.4604   49.1585 H   0  0  0  0  0  0  0  0  0  0  0  0
   63.4407   31.7246   47.6779 H   0  0  0  0  0  0  0  0  0  0  0  0
   63.3043   34.9720   46.2030 H   0  0  0  0  0  0  0  0  0  0  0  0
   63.6696   33.2670   45.6156 H   0  0  0  0  0  0  0  0  0  0  0  0
   61.1990   34.2267   45.9222 H   0  0  0  0  0  0  0  0  0  0  0  0
   61.6733   32.4941   46.1323 H   0  0  0  0  0  0  0  0  0  0  0  0
  1  2  2  0
  2  3  1  0
  3  4  1  0
  4  5  2  0
  5  6  1  0
  5  7  1  0
  7  8  1  0
  8  9  1  0
  9 10  1  0
 10 11  1  0
 11 12  2  0
 12 13  1  0
 13 14  2  0
 14 15  1  0
 15 16  2  0
 16 17  1  0
  8 18  2  0
 18 19  1  0
 19 20  2  0
  2 21  1  0
 21 22  1  0
 22 23  1  0
 23 24  1  0
 24 25  1  0
 25 26  1  0
 19  4  1  0
 26 21  1  0
 16 11  1  0
  3 27  1  0
  3 28  1  0
  6 29  1  0
  7 30  1  0
 10 31  1  0
 10 32  1  0
 12 33  1  0
 13 34  1  0
 14 35  1  0
 15 36  1  0
 22 37  1  0
 22 38  1  0
 23 39  1  0
 23 40  1  0
 25 41  1  0
 25 42  1  0
 26 43  1  0
 26 44  1  0
M  END
>  <smiles>  (27) 
O=C(Cc1c(O)[nH]c(SCc2ccccc2F)nc1=O)N1CCOCC1

>  <score_type>  (27) 
oracle

>  <origin>  (27) 
adg

>  <m_score__min__energy>  (27) 
-8.8000000000000007

>  <m_primary>  (27) 
energy

$$$$
27:0
     RDKit          3D

 60 63  0  0  0  0  0  0  0  0999 V2000
   52.5810   26.6910   53.4630 C   0  0  0  0  0  0  0  0  0  0  0  0
   53.8530   27.4700   53.1430 C   0  0  0  0  0  0  0  0  0  0  0  0
   53.5520   28.9030   52.9870 N   0  0  0  0  0  0  0  0  0  0  0  0
   52.1640   29.3720   53.1420 C   0  0  0  0  0  0  0  0  0  0  0  0
   51.7720   30.3000   52.0150 C   0  0  0  0  0  0  0  0  0  0  0  0
   51.7780   29.8480   50.6890 C   0  0  0  0  0  0  0  0  0  0  0  0
   51.4200   30.6840   49.6810 N   0  0  0  0  0  0  0  0  0  0  0  0
   51.0450   31.9630   49.9340 C   0  0  0  0  0  0  0  0  0  0  0  0
   50.7200   32.7240   48.9860 O   0  0  0  0  0  0  0  0  0  0  0  0
   51.0160   32.4230   51.2110 N   0  0  0  0  0  0  0  0  0  0  0  0
   51.3650   31.6240   52.2540 C   0  0  0  0  0  0  0  0  0  0  0  0
   51.3170   32.0830   53.4260 O   0  0  0  0  0  0  0  0  0  0  0  0
   54.6330   29.8210   52.6960 C   0  0  0  0  0  0  0  0  0  0  0  0
   54.8740   30.1360   51.4970 O   0  0  0  0  0  0  0  0  0  0  0  0
   55.5080   30.3870   53.7850 C   0  0  0  0  0  0  0  0  0  0  0  0
   56.9210   30.3980   53.3700 N   0  0  0  0  0  0  0  0  0  0  0  0
   57.2460   30.9820   52.2060 N   0  0  0  0  0  0  0  0  0  0  0  0
   58.5300   31.0020   51.7410 C   0  0  0  0  0  0  0  0  0  0  0  0
   58.8540   31.6650   50.4530 C   0  0  0  0  0  0  0  0  0  0  0  0
   58.9610   30.9100   49.2740 C   0  0  0  0  0  0  0  0  0  0  0  0
   59.2690   31.5300   48.0590 C   0  0  0  0  0  0  0  0  0  0  0  0
   59.4820   32.9200   48.0040 C   0  0  0  0  0  0  0  0  0  0  0  0
   59.8050   33.5890   46.8100 O   0  0  0  0  0  0  0  0  0  0  0  0
   61.1270   33.8970   46.3670 C   0  0  0  0  0  0  0  0  0  0  0  0
   62.1520   33.4350   47.3690 C   0  0  0  0  0  0  0  0  0  0  0  0
   62.7870   32.1910   47.2080 C   0  0  0  0  0  0  0  0  0  0  0  0
   63.7330   31.7570   48.1420 C   0  0  0  0  0  0  0  0  0  0  0  0
   64.0430   32.5540   49.2470 C   0  0  0  0  0  0  0  0  0  0  0  0
   63.4050   33.7840   49.4220 C   0  0  0  0  0  0  0  0  0  0  0  0
   62.4600   34.2240   48.4900 C   0  0  0  0  0  0  0  0  0  0  0  0
   59.3710   33.6730   49.1770 C   0  0  0  0  0  0  0  0  0  0  0  0
   59.5720   35.0140   49.1430 F   0  0  0  0  0  0  0  0  0  0  0  0
   59.0610   33.0540   50.3920 C   0  0  0  0  0  0  0  0  0  0  0  0
   59.5340   30.3910   52.4990 C   0  0  0  0  0  0  0  0  0  0  0  0
   59.2040   29.7710   53.6960 C   0  0  0  0  0  0  0  0  0  0  0  0
   57.8800   29.7740   54.1270 C   0  0  0  0  0  0  0  0  0  0  0  0
   57.5810   29.1950   55.2070 O   0  0  0  0  0  0  0  0  0  0  0  0
   52.4608   26.6174   54.5539 H   0  0  0  0  0  0  0  0  0  0  0  0
   51.7134   27.2129   53.0329 H   0  0  0  0  0  0  0  0  0  0  0  0
   52.6516   25.6810   53.0329 H   0  0  0  0  0  0  0  0  0  0  0  0
   54.5745   27.3384   53.9628 H   0  0  0  0  0  0  0  0  0  0  0  0
   54.2768   27.0900   52.2017 H   0  0  0  0  0  0  0  0  0  0  0  0
   51.4895   28.5031   53.1425 H   0  0  0  0  0  0  0  0  0  0  0  0
   52.0863   29.9235   54.0906 H   0  0  0  0  0  0  0  0  0  0  0  0
   52.0737   28.8127   50.4639 H   0  0  0  0  0  0  0  0  0  0  0  0
   55.1890   31.4165   54.0049 H   0  0  0  0  0  0  0  0  0  0  0  0
   55.4090   29.7551   54.6800 H   0  0  0  0  0  0  0  0  0  0  0  0
   56.4910   31.4110   51.6240 H   0  0  0  0  0  0  0  0  0  0  0  0
   58.8013   29.8221   49.3064 H   0  0  0  0  0  0  0  0  0  0  0  0
   59.3452   30.9281   47.1415 H   0  0  0  0  0  0  0  0  0  0  0  0
   61.3109   33.3942   45.4061 H   0  0  0  0  0  0  0  0  0  0  0  0
   61.2139   34.9877   46.2534 H   0  0  0  0  0  0  0  0  0  0  0  0
   62.5388   31.5568   46.3442 H   0  0  0  0  0  0  0  0  0  0  0  0
   64.2337   30.7870   48.0066 H   0  0  0  0  0  0  0  0  0  0  0  0
   64.7896   32.2126   49.9792 H   0  0  0  0  0  0  0  0  0  0  0  0
   63.6465   34.4081   50.2950 H   0  0  0  0  0  0  0  0  0  0  0  0
   61.9561   35.1910   48.6350 H   0  0  0  0  0  0  0  0  0  0  0  0
   58.9785   33.6588   51.3071 H   0  0  0  0  0  0  0  0  0  0  0  0
   60.5769   30.4018   52.1493 H   0  0  0  0  0  0  0  0  0  0  0  0
   59.9823   29.2811   54.2995 H   0  0  0  0  0  0  0  0  0  0  0  0
  1  2  1  0
  2  3  1  0
  3  4  1  0
  4  5  1  0
  5  6  2  0
  6  7  1  0
  7  8  1  0
  8  9  2  0
  8 10  1  0
 10 11  1  0
 11 12  2  0
  3 13  1  0
 13 14  2  0
 13 15  1  0
 15 16  1  0
 16 17  1  0
 17 18  2  0
 18 19  1  0
 19 20  2  0
 20 21  1  0
 21 22  2  0
 22 23  1  0
 23 24  1  0
 24 25  1  0
 25 26  2  0
 26 27  1  0
 27 28  2  0
 28 29  1  0
 29 30  2  0
 22 31  1  0
 31 32  1  0
 31 33  2  0
 18 34  1  0
 34 35  2  0
 35 36  1  0
 36 37  2  0
 11  5  1  0
 36 16  1  0
 33 19  1  0
 30 25  1  0
  1 38  1  0
  1 39  1  0
  1 40  1  0
  2 41  1  0
  2 42  1  0
  4 43  1  0
  4 44  1  0
  6 45  1  0
 15 46  1  0
 15 47  1  0
 17 48  1  0
 20 49  1  0
 21 50  1  0
 24 51  1  0
 24 52  1  0
 26 53  1  0
 27 54  1  0
 28 55  1  0
 29 56  1  0
 30 57  1  0
 33 58  1  0
 34 59  1  0
 35 60  1  0
M  CHG  3   7  -1  10  -1  17   1
M  END
>  <UniqueID>  (28) 
26

>  <SMILES>  (28) 
CCN(Cc1c[n-]c(=O)[n-]c1=O)C(=O)Cn1[nH+]c(-c2ccc(OCc3ccccc3)c(F)c2)ccc1=O

>  <Energy>  (28) 
69.33011065825188

>  <Genealogy>  (28) 
CCN(Cc1c[n-]c(=O)[n-]c1=O)C(=O)Cn1[nH+]c(-c2ccc(OCc3ccccc3)c(F)c2)ccc1=O (protonated)
CCN(Cc1c[n-]c(=O)[n-]c1=O)C(=O)Cn1[nH+]c(-c2ccc(OCc3ccccc3)c(F)c2)ccc1=O (3D coordinates assigned)
CCN(Cc1c[n-]c(=O)[n-]c1=O)C(=O)Cn1[nH+]c(-c2ccc(OCc3ccccc3)c(F)c2)ccc1=O (optimized conformer: 69.33011065825188 kcal/mol)

>  <smiles>  (28) 
CCN(Cc1c[nH]c(=O)[nH]c1=O)C(=O)Cn1nc(-c2ccc(OCc3ccccc3)c(F)c2)ccc1=O

>  <score_type>  (28) 
oracle

>  <origin>  (28) 
adg

>  <m_score__min__energy>  (28) 
-12.06

>  <m_primary>  (28) 
energy

$$$$
28:0
     RDKit          3D

 58 61  0  0  0  0  0  0  0  0999 V2000
   60.8710   29.6120   45.9760 C   0  0  0  0  0  0  0  0  0  0  0  0
   59.8630   30.4970   46.0160 C   0  0  0  0  0  0  0  0  0  0  0  0
   58.5930   30.3820   45.4190 C   0  0  0  0  0  0  0  0  0  0  0  0
   58.0120   29.3680   44.7490 C   0  0  0  0  0  0  0  0  0  0  0  0
   57.4030   28.1660   45.3530 C   0  0  0  0  0  0  0  0  0  0  0  0
   56.0100   27.9870   45.3630 C   0  0  0  0  0  0  0  0  0  0  0  0
   55.1630   28.9750   44.8740 O   0  0  0  0  0  0  0  0  0  0  0  0
   55.4790   26.8340   45.8500 N   0  0  0  0  0  0  0  0  0  0  0  0
   56.2760   25.8390   46.3130 C   0  0  0  0  0  0  0  0  0  0  0  0
   55.7620   24.7790   46.7550 O   0  0  0  0  0  0  0  0  0  0  0  0
   57.6260   25.9850   46.3010 N   0  0  0  0  0  0  0  0  0  0  0  0
   58.2050   27.1170   45.8270 C   0  0  0  0  0  0  0  0  0  0  0  0
   59.4630   27.2190   45.8270 O   0  0  0  0  0  0  0  0  0  0  0  0
   57.9580   31.5950   45.6310 C   0  0  0  0  0  0  0  0  0  0  0  0
   58.8170   32.3780   46.3730 C   0  0  0  0  0  0  0  0  0  0  0  0
   58.5640   33.8100   46.7350 C   0  0  0  0  0  0  0  0  0  0  0  0
   59.9700   31.7140   46.6080 N   0  0  0  0  0  0  0  0  0  0  0  0
   61.1300   32.2730   47.2480 C   0  0  0  0  0  0  0  0  0  0  0  0
   61.9220   33.1920   46.5450 C   0  0  0  0  0  0  0  0  0  0  0  0
   62.9950   33.8290   47.1730 C   0  0  0  0  0  0  0  0  0  0  0  0
   63.2820   33.5550   48.5110 C   0  0  0  0  0  0  0  0  0  0  0  0
   62.5020   32.6390   49.2200 C   0  0  0  0  0  0  0  0  0  0  0  0
   61.4270   31.9810   48.6000 C   0  0  0  0  0  0  0  0  0  0  0  0
   60.6240   31.0020   49.3730 C   0  0  0  0  0  0  0  0  0  0  0  0
   61.2040   30.0260   49.9260 O   0  0  0  0  0  0  0  0  0  0  0  0
   59.1970   31.1920   49.5410 N   0  0  2  0  0  0  0  0  0  0  0  0
   58.9040   32.3970   50.3340 C   0  0  0  0  0  0  0  0  0  0  0  0
   57.7530   32.0490   51.2540 C   0  0  0  0  0  0  0  0  0  0  0  0
   57.9600   30.5710   51.5470 C   0  0  1  0  0  0  0  0  0  0  0  0
   56.7070   29.8580   51.9120 N   0  0  0  0  0  0  0  0  0  0  0  0
   55.5620   30.7850   52.0170 C   0  0  0  0  0  0  0  0  0  0  0  0
   56.8720   29.1750   53.2080 C   0  0  0  0  0  0  0  0  0  0  0  0
   58.5500   30.0530   50.2290 C   0  0  0  0  0  0  0  0  0  0  0  0
   61.8173   29.8325   46.4918 H   0  0  0  0  0  0  0  0  0  0  0  0
   60.7510   28.6661   45.4275 H   0  0  0  0  0  0  0  0  0  0  0  0
   57.9891   29.4422   43.6517 H   0  0  0  0  0  0  0  0  0  0  0  0
   56.9571   31.8798   45.2745 H   0  0  0  0  0  0  0  0  0  0  0  0
   58.5457   33.9137   47.8300 H   0  0  0  0  0  0  0  0  0  0  0  0
   59.3647   34.4400   46.3204 H   0  0  0  0  0  0  0  0  0  0  0  0
   57.5959   34.1275   46.3204 H   0  0  0  0  0  0  0  0  0  0  0  0
   61.6968   33.4130   45.4912 H   0  0  0  0  0  0  0  0  0  0  0  0
   63.6133   34.5461   46.6132 H   0  0  0  0  0  0  0  0  0  0  0  0
   64.1232   34.0609   49.0075 H   0  0  0  0  0  0  0  0  0  0  0  0
   62.7319   32.4305   50.2753 H   0  0  0  0  0  0  0  0  0  0  0  0
   58.7590   31.3000   48.5950 H   0  0  0  0  0  0  0  0  0  0  0  0
   59.7863   32.6851   50.9243 H   0  0  0  0  0  0  0  0  0  0  0  0
   58.6445   33.2440   49.6819 H   0  0  0  0  0  0  0  0  0  0  0  0
   57.7972   32.6423   52.1792 H   0  0  0  0  0  0  0  0  0  0  0  0
   56.7706   32.2615   50.8070 H   0  0  0  0  0  0  0  0  0  0  0  0
   58.6048   30.4031   52.4222 H   0  0  0  0  0  0  0  0  0  0  0  0
   55.3350   30.9687   53.0775 H   0  0  0  0  0  0  0  0  0  0  0  0
   55.8142   31.7364   51.5258 H   0  0  0  0  0  0  0  0  0  0  0  0
   54.6839   30.3403   51.5258 H   0  0  0  0  0  0  0  0  0  0  0  0
   56.6989   29.8913   54.0246 H   0  0  0  0  0  0  0  0  0  0  0  0
   56.1471   28.3511   53.2832 H   0  0  0  0  0  0  0  0  0  0  0  0
   57.8931   28.7729   53.2832 H   0  0  0  0  0  0  0  0  0  0  0  0
   59.2940   29.2695   50.4351 H   0  0  0  0  0  0  0  0  0  0  0  0
   57.7582   29.6239   49.5975 H   0  0  0  0  0  0  0  0  0  0  0  0
  1  2  2  0
  2  3  1  0
  3  4  2  3
  4  5  1  0
  5  6  2  0
  6  7  1  0
  6  8  1  0
  8  9  1  0
  9 10  2  0
  9 11  1  0
 11 12  1  0
 12 13  2  0
  3 14  1  0
 14 15  2  0
 15 16  1  0
 15 17  1  0
 17 18  1  0
 18 19  2  0
 19 20  1  0
 20 21  2  0
 21 22  1  0
 22 23  2  0
 23 24  1  0
 24 25  2  0
 24 26  1  0
 26 27  1  0
 27 28  1  0
 28 29  1  0
 29 30  1  0
 30 31  1  0
 30 32  1  0
 29 33  1  0
 17  2  1  0
 23 18  1  0
 33 26  1  0
 12  5  1  0
  1 34  1  0
  1 35  1  0
  4 36  1  0
 14 37  1  0
 16 38  1  0
 16 39  1  0
 16 40  1  0
 19 41  1  0
 20 42  1  0
 21 43  1  0
 22 44  1  0
 26 45  1  6
 27 46  1  0
 27 47  1  0
 28 48  1  0
 28 49  1  0
 29 50  1  1
 31 51  1  0
 31 52  1  0
 31 53  1  0
 32 54  1  0
 32 55  1  0
 32 56  1  0
 33 57  1  0
 33 58  1  0
M  CHG  4   7  -1   8  -1  11  -1  26   1
M  END
>  <UniqueID>  (29) 
27

>  <SMILES>  (29) 
C=c1c(=Cc2c([O-])[n-]c(=O)[n-]c2=O)cc(C)n1-c1ccccc1C(=O)[N@@H+]1CC[C@@H](N(C)C)C1

>  <Energy>  (29) 
123.20030478844329

>  <Genealogy>  (29) 
C=c1c(=Cc2c([O-])[n-]c(=O)[n-]c2=O)cc(C)n1-c1ccccc1C(=O)[NH+]1CCC(N(C)C)C1 (protonated)
C=c1c(=Cc2c([O-])[n-]c(=O)[n-]c2=O)cc(C)n1-c1ccccc1C(=O)[N@@H+]1CC[C@@H](N(C)C)C1 (chirality)
C=c1c(=Cc2c([O-])[n-]c(=O)[n-]c2=O)cc(C)n1-c1ccccc1C(=O)[N@@H+]1CC[C@@H](N(C)C)C1 (3D coordinates assigned)
C=c1c(=Cc2c([O-])[n-]c(=O)[n-]c2=O)cc(C)n1-c1ccccc1C(=O)[N@@H+]1CC[C@@H](N(C)C)C1 (nonaromatic ring conformer: 123.20030478844329 kcal/mol)

>  <smiles>  (29) 
C=c1c(=Cc2c(O)[nH]c(=O)[nH]c2=O)cc(C)n1-c1ccccc1C(=O)N1CCC(N(C)C)C1

>  <score_type>  (29) 
oracle

>  <origin>  (29) 
adg

>  <m_score__min__energy>  (29) 
-15.48

>  <m_primary>  (29) 
energy

$$$$
29:0
     RDKit          3D

 26 27  0  0  0  0  0  0  0  0999 V2000
   55.1440   28.1940   44.9770 H   0  0  0  0  0  0  0  0  0  0  0  0
   55.3990   29.0070   44.4310 O   0  0  0  0  0  0  0  0  0  0  0  0
   56.4120   29.8890   44.8080 C   0  0  0  0  0  0  0  0  0  0  0  0
   56.1300   31.2180   44.8580 N   0  0  0  0  0  0  0  0  0  0  0  0
   57.0510   32.1450   45.2280 C   0  0  0  0  0  0  0  0  0  0  0  0
   56.7310   33.3620   45.2600 O   0  0  0  0  0  0  0  0  0  0  0  0
   58.3470   31.7430   45.5690 C   0  0  0  0  0  0  0  0  0  0  0  0
   59.6770   33.0180   46.0880 Br  0  0  0  0  0  0  0  0  0  0  0  0
   58.6720   30.3870   45.5190 C   0  0  0  0  0  0  0  0  0  0  0  0
   59.6929   30.0606   45.7665 H   0  0  0  0  0  0  0  0  0  0  0  0
   57.7050   29.4360   45.1550 C   0  0  0  0  0  0  0  0  0  0  0  0
   58.0630   28.0020   45.0690 C   0  0  0  0  0  0  0  0  0  0  0  0
   58.7105   27.6877   44.2371 H   0  0  0  0  0  0  0  0  0  0  0  0
   57.6560   27.0570   45.9310 C   0  0  0  0  0  0  0  0  0  0  0  0
   57.8046   27.2508   47.0035 H   0  0  0  0  0  0  0  0  0  0  0  0
   57.0220   25.7730   45.5500 C   0  0  0  0  0  0  0  0  0  0  0  0
   57.8000   24.6670   45.1590 C   0  0  0  0  0  0  0  0  0  0  0  0
   58.8958   24.7557   45.1208 H   0  0  0  0  0  0  0  0  0  0  0  0
   57.1890   23.4570   44.8190 C   0  0  0  0  0  0  0  0  0  0  0  0
   57.8030   22.6028   44.4974 H   0  0  0  0  0  0  0  0  0  0  0  0
   55.8000   23.3310   44.8870 C   0  0  0  0  0  0  0  0  0  0  0  0
   55.1940   22.1270   44.5490 O   0  0  0  0  0  0  0  0  0  0  0  0
   55.0190   24.4140   45.3000 C   0  0  0  0  0  0  0  0  0  0  0  0
   53.9256   24.3102   45.3603 H   0  0  0  0  0  0  0  0  0  0  0  0
   55.6240   25.6300   45.6370 C   0  0  0  0  0  0  0  0  0  0  0  0
   54.8290   26.6950   46.0460 O   0  0  0  0  0  0  0  0  0  0  0  0
  1  2  1  0
  2  3  1  0
  3  4  1  0
  4  5  1  0
  5  6  2  0
  5  7  1  0
  7  8  1  0
  7  9  2  0
  9 10  1  0
  9 11  1  0
 11 12  1  0
 12 13  1  0
 12 14  2  0
 14 15  1  0
 14 16  1  0
 16 17  2  0
 17 18  1  0
 17 19  1  0
 19 20  1  0
 19 21  2  0
 21 22  1  0
 21 23  1  0
 23 24  1  0
 23 25  2  0
 25 26  1  0
 11  3  2  0
 25 16  1  0
M  CHG  3   4  -1  22  -1  26  -1
M  END
>  <UniqueID>  (30) 
28

>  <SMILES>  (30) 
O=c1[n-]c(O)c(/C=C\c2ccc([O-])cc2[O-])cc1Br

>  <Energy>  (30) 
39.50082653564562

>  <Genealogy>  (30) 
O=c1[n-]c(O)c(C=Cc2ccc([O-])cc2[O-])cc1Br (protonated)
O=c1[n-]c(O)c(/C=C\c2ccc([O-])cc2[O-])cc1Br (cis-trans isomerization)
O=c1[n-]c(O)c(/C=C\c2ccc([O-])cc2[O-])cc1Br (3D coordinates assigned)
O=c1[n-]c(O)c(/C=C\c2ccc([O-])cc2[O-])cc1Br (optimized conformer: 39.50082653564562 kcal/mol)

>  <smiles>  (30) 
O=c1[nH]c(O)c(C=Cc2ccc(O)cc2O)cc1Br

>  <score_type>  (30) 
oracle

>  <origin>  (30) 
adg

>  <m_score__min__energy>  (30) 
-15.27

>  <m_primary>  (30) 
energy

$$$$
30:0
     RDKit          3D

 45 46  0  0  0  0  0  0  0  0999 V2000
   59.6560   33.2920   49.5080 C   0  0  0  0  0  0  0  0  0  0  0  0
   60.8440   33.2690   48.5360 C   0  0  0  0  0  0  0  0  0  0  0  0
   60.8680   32.0800   47.6520 N   0  0  0  0  0  0  0  0  0  0  0  0
   62.2410   31.6120   47.3460 C   0  0  0  0  0  0  0  0  0  0  0  0
   63.1610   32.8150   47.1850 C   0  0  0  0  0  0  0  0  0  0  0  0
   59.9690   31.0050   48.1180 C   0  0  0  0  0  0  0  0  0  0  0  0
   60.4670   29.6330   47.6470 C   0  0  0  0  0  0  0  0  0  0  0  0
   59.7160   29.2100   46.4550 N   0  0  0  0  0  0  0  0  0  0  0  0
   58.5630   29.8700   46.1410 C   0  0  0  0  0  0  0  0  0  0  0  0
   57.7390   29.4270   45.0990 C   0  0  0  0  0  0  0  0  0  0  0  0
   56.4370   30.0930   44.8380 C   0  0  0  0  0  0  0  0  0  0  0  0
   55.3750   29.4170   44.8660 O   0  0  0  0  0  0  0  0  0  0  0  0
   56.3570   31.4870   44.5000 N   0  0  0  0  0  0  0  0  0  0  0  0
   57.2320   32.5200   44.9810 C   0  0  0  0  0  0  0  0  0  0  0  0
   57.0570   33.1010   46.2500 C   0  0  0  0  0  0  0  0  0  0  0  0
   57.9460   34.0800   46.7050 C   0  0  0  0  0  0  0  0  0  0  0  0
   59.0070   34.4980   45.8940 C   0  0  0  0  0  0  0  0  0  0  0  0
   59.8920   35.4630   46.3650 O   0  0  0  0  0  0  0  0  0  0  0  0
   59.1640   33.9440   44.6160 C   0  0  0  0  0  0  0  0  0  0  0  0
   58.2740   32.9660   44.1600 C   0  0  0  0  0  0  0  0  0  0  0  0
   58.1750   28.3260   44.3460 C   0  0  0  0  0  0  0  0  0  0  0  0
   57.4910   27.8880   43.3830 O   0  0  0  0  0  0  0  0  0  0  0  0
   59.3350   27.7050   44.6720 N   0  0  0  0  0  0  0  0  0  0  0  0
   60.0960   28.1200   45.7170 C   0  0  0  0  0  0  0  0  0  0  0  0
   61.1470   27.4850   45.9980 O   0  0  0  0  0  0  0  0  0  0  0  0
   60.0288   33.2848   50.5429 H   0  0  0  0  0  0  0  0  0  0  0  0
   59.0614   34.2018   49.3388 H   0  0  0  0  0  0  0  0  0  0  0  0
   59.0266   32.4059   49.3388 H   0  0  0  0  0  0  0  0  0  0  0  0
   60.7945   34.1692   47.9058 H   0  0  0  0  0  0  0  0  0  0  0  0
   61.7582   33.2337   49.1468 H   0  0  0  0  0  0  0  0  0  0  0  0
   62.6050   30.9791   48.1688 H   0  0  0  0  0  0  0  0  0  0  0  0
   62.2313   31.0292   46.4131 H   0  0  0  0  0  0  0  0  0  0  0  0
   63.4491   33.1917   48.1775 H   0  0  0  0  0  0  0  0  0  0  0  0
   64.0626   32.5155   46.6306 H   0  0  0  0  0  0  0  0  0  0  0  0
   62.6358   33.6067   46.6306 H   0  0  0  0  0  0  0  0  0  0  0  0
   59.9327   31.0171   49.2173 H   0  0  0  0  0  0  0  0  0  0  0  0
   58.9669   31.1782   47.6987 H   0  0  0  0  0  0  0  0  0  0  0  0
   61.5369   29.6985   47.3998 H   0  0  0  0  0  0  0  0  0  0  0  0
   60.3154   28.8973   48.4506 H   0  0  0  0  0  0  0  0  0  0  0  0
   58.2768   30.7635   46.7153 H   0  0  0  0  0  0  0  0  0  0  0  0
   56.2179   32.7842   46.8868 H   0  0  0  0  0  0  0  0  0  0  0  0
   57.8109   34.5226   47.7029 H   0  0  0  0  0  0  0  0  0  0  0  0
   59.6200   36.1260   47.0820 H   0  0  0  0  0  0  0  0  0  0  0  0
   59.9890   34.2791   43.9702 H   0  0  0  0  0  0  0  0  0  0  0  0
   58.3937   32.5452   43.1507 H   0  0  0  0  0  0  0  0  0  0  0  0
  1  2  1  0
  2  3  1  0
  3  4  1  0
  4  5  1  0
  3  6  1  0
  6  7  1  0
  7  8  1  0
  8  9  1  0
  9 10  2  0
 10 11  1  0
 11 12  2  0
 11 13  1  0
 13 14  1  0
 14 15  2  0
 15 16  1  0
 16 17  2  0
 17 18  1  0
 17 19  1  0
 19 20  2  0
 10 21  1  0
 21 22  2  0
 21 23  1  0
 23 24  1  0
 24 25  2  0
 24  8  1  0
 20 14  1  0
  1 26  1  0
  1 27  1  0
  1 28  1  0
  2 29  1  0
  2 30  1  0
  4 31  1  0
  4 32  1  0
  5 33  1  0
  5 34  1  0
  5 35  1  0
  6 36  1  0
  6 37  1  0
  7 38  1  0
  7 39  1  0
  9 40  1  0
 15 41  1  0
 16 42  1  0
 18 43  1  0
 19 44  1  0
 20 45  1  0
M  CHG  2  13  -1  23  -1
M  END
>  <UniqueID>  (31) 
29

>  <SMILES>  (31) 
CCN(CC)CCn1cc(C(=O)[N-]c2ccc(O)cc2)c(=O)[n-]c1=O

>  <Energy>  (31) 
52.27343815772566

>  <Genealogy>  (31) 
CCN(CC)CCn1cc(C(=O)[N-]c2ccc(O)cc2)c(=O)[n-]c1=O (protonated)
CCN(CC)CCn1cc(C(=O)[N-]c2ccc(O)cc2)c(=O)[n-]c1=O (3D coordinates assigned)
CCN(CC)CCn1cc(C(=O)[N-]c2ccc(O)cc2)c(=O)[n-]c1=O (optimized conformer: 52.27343815772566 kcal/mol)

>  <smiles>  (31) 
CCN(CC)CCn1cc(C(=O)Nc2ccc(O)cc2)c(=O)[nH]c1=O

>  <score_type>  (31) 
oracle

>  <origin>  (31) 
adg

>  <m_score__min__energy>  (31) 
-10.970000000000001

>  <m_primary>  (31) 
energy

$$$$
31:0
     RDKit          3D

 46 48  0  0  0  0  0  0  0  0999 V2000
   59.1720   34.1030   47.8450 C   0  0  0  0  0  0  0  0  0  0  0  0
   58.7000   33.5380   46.5430 C   0  0  0  0  0  0  0  0  0  0  0  0
   58.9150   34.2340   45.3490 C   0  0  0  0  0  0  0  0  0  0  0  0
   58.4820   33.6740   44.1470 C   0  0  0  0  0  0  0  0  0  0  0  0
   57.8420   32.4330   44.1410 C   0  0  0  0  0  0  0  0  0  0  0  0
   57.6190   31.7610   45.3630 C   0  0  0  0  0  0  0  0  0  0  0  0
   57.0360   30.5970   45.4440 N   0  0  0  0  0  0  0  0  0  0  0  0
   56.8010   29.6180   44.4160 C   0  0  0  0  0  0  0  0  0  0  0  0
   56.2900   29.9400   43.3100 O   0  0  0  0  0  0  0  0  0  0  0  0
   57.0250   28.1650   44.7070 C   0  0  0  0  0  0  0  0  0  0  0  0
   55.9980   27.6620   45.6120 N   0  0  0  0  0  0  0  0  0  0  0  0
   55.6450   26.2780   45.6960 C   0  0  0  0  0  0  0  0  0  0  0  0
   54.4550   25.9580   45.9650 O   0  0  0  0  0  0  0  0  0  0  0  0
   56.6800   25.2320   45.4800 C   0  0  0  0  0  0  0  0  0  0  0  0
   56.5840   24.3710   44.3710 C   0  0  0  0  0  0  0  0  0  0  0  0
   57.5580   23.4000   44.1420 C   0  0  0  0  0  0  0  0  0  0  0  0
   58.6330   23.2900   45.0200 C   0  0  0  0  0  0  0  0  0  0  0  0
   58.7180   24.1170   46.0920 N   0  0  0  0  0  0  0  0  0  0  0  0
   57.7830   25.0750   46.3510 C   0  0  0  0  0  0  0  0  0  0  0  0
   57.9190   25.8960   47.4790 O   0  0  0  0  0  0  0  0  0  0  0  0
   59.1710   26.3750   47.9650 C   0  0  0  0  0  0  0  0  0  0  0  0
   59.6290   27.5530   47.1480 C   0  0  0  0  0  0  0  0  0  0  0  0
   59.6130   28.8400   47.7080 C   0  0  0  0  0  0  0  0  0  0  0  0
   59.9930   29.9470   46.9420 C   0  0  0  0  0  0  0  0  0  0  0  0
   60.3920   29.7750   45.6140 C   0  0  0  0  0  0  0  0  0  0  0  0
   60.4090   28.4970   45.0500 C   0  0  0  0  0  0  0  0  0  0  0  0
   60.0320   27.3870   45.8120 C   0  0  0  0  0  0  0  0  0  0  0  0
   58.0660   32.3340   46.5170 N   0  0  0  0  0  0  0  0  0  0  0  0
   58.7089   33.5487   48.6746 H   0  0  0  0  0  0  0  0  0  0  0  0
   60.2664   34.0121   47.9089 H   0  0  0  0  0  0  0  0  0  0  0  0
   58.8878   35.1637   47.9089 H   0  0  0  0  0  0  0  0  0  0  0  0
   59.4196   35.2114   45.3577 H   0  0  0  0  0  0  0  0  0  0  0  0
   58.6452   34.2115   43.2013 H   0  0  0  0  0  0  0  0  0  0  0  0
   57.5143   31.9826   43.1925 H   0  0  0  0  0  0  0  0  0  0  0  0
   56.9878   27.5972   43.7656 H   0  0  0  0  0  0  0  0  0  0  0  0
   58.0093   28.0448   45.1832 H   0  0  0  0  0  0  0  0  0  0  0  0
   55.7338   24.4648   43.6794 H   0  0  0  0  0  0  0  0  0  0  0  0
   57.4779   22.7270   43.2756 H   0  0  0  0  0  0  0  0  0  0  0  0
   59.4122   22.5336   44.8447 H   0  0  0  0  0  0  0  0  0  0  0  0
   59.0596   26.6825   49.0153 H   0  0  0  0  0  0  0  0  0  0  0  0
   59.9179   25.5713   47.8864 H   0  0  0  0  0  0  0  0  0  0  0  0
   59.3004   28.9786   48.7535 H   0  0  0  0  0  0  0  0  0  0  0  0
   59.9777   30.9536   47.3854 H   0  0  0  0  0  0  0  0  0  0  0  0
   60.6927   30.6457   45.0127 H   0  0  0  0  0  0  0  0  0  0  0  0
   60.7199   28.3636   44.0033 H   0  0  0  0  0  0  0  0  0  0  0  0
   60.0509   26.3821   45.3650 H   0  0  0  0  0  0  0  0  0  0  0  0
  1  2  1  0
  2  3  2  0
  3  4  1  0
  4  5  2  0
  5  6  1  0
  6  7  2  3
  7  8  1  0
  8  9  2  0
  8 10  1  0
 10 11  1  0
 11 12  1  0
 12 13  2  0
 12 14  1  0
 14 15  2  0
 15 16  1  0
 16 17  2  0
 17 18  1  0
 18 19  2  0
 19 20  1  0
 20 21  1  0
 21 22  1  0
 22 23  2  0
 23 24  1  0
 24 25  2  0
 25 26  1  0
 26 27  2  0
  6 28  1  0
 28  2  1  0
 19 14  1  0
 27 22  1  0
  1 29  1  0
  1 30  1  0
  1 31  1  0
  3 32  1  0
  4 33  1  0
  5 34  1  0
 10 35  1  0
 10 36  1  0
 15 37  1  0
 16 38  1  0
 17 39  1  0
 21 40  1  0
 21 41  1  0
 23 42  1  0
 24 43  1  0
 25 44  1  0
 26 45  1  0
 27 46  1  0
M  CHG  2  11  -1  28  -1
M  END
>  <UniqueID>  (32) 
30

>  <SMILES>  (32) 
Cc1cccc(=NC(=O)C[N-]C(=O)c2cccnc2OCc2ccccc2)[n-]1

>  <Energy>  (32) 
53.25342395287324

>  <Genealogy>  (32) 
Cc1cccc(=NC(=O)C[N-]C(=O)c2cccnc2OCc2ccccc2)[n-]1 (protonated)
Cc1cccc(=NC(=O)C[N-]C(=O)c2cccnc2OCc2ccccc2)[n-]1 (3D coordinates assigned)
Cc1cccc(=NC(=O)C[N-]C(=O)c2cccnc2OCc2ccccc2)[n-]1 (optimized conformer: 53.25342395287324 kcal/mol)

>  <smiles>  (32) 
Cc1cccc(=NC(=O)CNC(=O)c2cccnc2OCc2ccccc2)[nH]1

>  <score_type>  (32) 
oracle

>  <origin>  (32) 
adg

>  <m_score__min__energy>  (32) 
-11.890000000000001

>  <m_primary>  (32) 
energy

$$$$
32:0
     RDKit          3D

 50 52  0  0  0  0  0  0  0  0999 V2000
   54.7720   26.7050   47.1170 H   0  0  0  0  0  0  0  0  0  0  0  0
   55.1190   26.3950   46.2180 O   0  0  0  0  0  0  0  0  0  0  0  0
   54.6710   25.2050   45.6550 C   0  0  0  0  0  0  0  0  0  0  0  0
   53.3750   24.8590   45.5730 N   0  0  0  0  0  0  0  0  0  0  0  0
   53.4210   23.6850   44.9070 C   0  0  0  0  0  0  0  0  0  0  0  0
   52.3870   23.0260   44.6210 O   0  0  0  0  0  0  0  0  0  0  0  0
   54.6610   23.2760   44.5650 N   0  0  0  0  0  0  0  0  0  0  0  0
   55.4580   24.2390   45.0650 C   0  0  0  0  0  0  0  0  0  0  0  0
   56.9190   24.2580   44.8730 C   0  0  0  0  0  0  0  0  0  0  0  0
   57.3842   23.3937   44.3765 H   0  0  0  0  0  0  0  0  0  0  0  0
   57.7220   25.2670   45.2670 C   0  0  0  0  0  0  0  0  0  0  0  0
   58.3650   25.3740   46.4920 C   0  0  0  0  0  0  0  0  0  0  0  0
   58.2869   24.6749   47.3377 H   0  0  0  0  0  0  0  0  0  0  0  0
   59.1220   26.5280   46.4440 C   0  0  0  0  0  0  0  0  0  0  0  0
   60.0660   26.9520   47.5310 C   0  0  0  0  0  0  0  0  0  0  0  0
   59.6114   26.7478   48.5117 H   0  0  0  0  0  0  0  0  0  0  0  0
   61.0072   26.3902   47.4390 H   0  0  0  0  0  0  0  0  0  0  0  0
   60.2712   28.0288   47.4390 H   0  0  0  0  0  0  0  0  0  0  0  0
   58.9860   27.1380   45.2420 N   0  0  0  0  0  0  0  0  0  0  0  0
   59.6450   28.3880   44.8250 C   0  0  0  0  0  0  0  0  0  0  0  0
   60.7250   28.2032   44.7272 H   0  0  0  0  0  0  0  0  0  0  0  0
   59.2028   28.6987   43.8669 H   0  0  0  0  0  0  0  0  0  0  0  0
   59.4270   29.5280   45.8370 C   0  0  0  0  0  0  0  0  0  0  0  0
   59.9732   29.2814   46.7594 H   0  0  0  0  0  0  0  0  0  0  0  0
   59.7937   30.4503   45.3628 H   0  0  0  0  0  0  0  0  0  0  0  0
   57.9490   29.7680   46.1980 C   0  0  0  0  0  0  0  0  0  0  0  0
   57.3798   28.8474   46.0015 H   0  0  0  0  0  0  0  0  0  0  0  0
   57.8958   30.0443   47.2614 H   0  0  0  0  0  0  0  0  0  0  0  0
   57.3650   30.8720   45.4040 N   0  0  0  0  0  0  0  0  0  0  0  0
   58.4250   31.7850   44.9220 C   0  0  0  0  0  0  0  0  0  0  0  0
   58.8436   32.3367   45.7766 H   0  0  0  0  0  0  0  0  0  0  0  0
   59.2106   31.1907   44.4325 H   0  0  0  0  0  0  0  0  0  0  0  0
   57.8540   32.7840   43.9070 C   0  0  0  0  0  0  0  0  0  0  0  0
   57.0769   33.3843   44.4027 H   0  0  0  0  0  0  0  0  0  0  0  0
   58.6860   33.4099   43.5520 H   0  0  0  0  0  0  0  0  0  0  0  0
   57.2550   32.1160   42.7200 N   0  0  0  0  0  0  0  0  0  0  0  0
   58.0630   32.3390   41.5100 C   0  0  0  0  0  0  0  0  0  0  0  0
   59.0861   32.6214   41.7992 H   0  0  0  0  0  0  0  0  0  0  0  0
   58.0923   31.4154   40.9133 H   0  0  0  0  0  0  0  0  0  0  0  0
   57.6144   33.1469   40.9133 H   0  0  0  0  0  0  0  0  0  0  0  0
   57.0080   30.6720   42.9140 C   0  0  0  0  0  0  0  0  0  0  0  0
   56.2734   30.3301   42.1700 H   0  0  0  0  0  0  0  0  0  0  0  0
   57.9604   30.1353   42.7922 H   0  0  0  0  0  0  0  0  0  0  0  0
   56.4650   30.3880   44.3220 C   0  0  0  0  0  0  0  0  0  0  0  0
   55.4903   30.8866   44.4283 H   0  0  0  0  0  0  0  0  0  0  0  0
   56.3832   29.2962   44.4277 H   0  0  0  0  0  0  0  0  0  0  0  0
   58.1400   26.3660   44.5080 C   0  0  0  0  0  0  0  0  0  0  0  0
   57.7890   26.6250   43.2380 C   0  0  0  0  0  0  0  0  0  0  0  0
   58.1767   27.5216   42.7322 H   0  0  0  0  0  0  0  0  0  0  0  0
   57.1138   25.9406   42.7035 H   0  0  0  0  0  0  0  0  0  0  0  0
  1  2  1  0
  2  3  1  0
  3  4  1  0
  4  5  1  0
  5  6  2  0
  5  7  1  0
  7  8  1  0
  8  9  1  0
  9 10  1  0
  9 11  2  0
 11 12  1  0
 12 13  1  0
 12 14  2  0
 14 15  1  0
 15 16  1  0
 15 17  1  0
 15 18  1  0
 14 19  1  0
 19 20  1  0
 20 21  1  0
 20 22  1  0
 20 23  1  0
 23 24  1  0
 23 25  1  0
 23 26  1  0
 26 27  1  0
 26 28  1  0
 26 29  1  0
 29 30  1  0
 30 31  1  0
 30 32  1  0
 30 33  1  0
 33 34  1  0
 33 35  1  0
 33 36  1  0
 36 37  1  0
 37 38  1  0
 37 39  1  0
 37 40  1  0
 36 41  1  0
 41 42  1  0
 41 43  1  0
 41 44  1  0
 44 45  1  0
 44 46  1  0
 19 47  1  0
 47 48  2  0
 48 49  1  0
 48 50  1  0
  8  3  2  0
 47 11  1  0
 44 29  1  0
M  CHG  2   4  -1   7  -1
M  END
>  <UniqueID>  (33) 
31

>  <SMILES>  (33) 
C=c1/c(=C/c2[n-]c(=O)[n-]c2O)cc(C)n1CCCN1CCN(C)CC1

>  <Energy>  (33) 
120.47523066798854

>  <Genealogy>  (33) 
C=c1c(=Cc2[n-]c(=O)[n-]c2O)cc(C)n1CCCN1CCN(C)CC1 (protonated)
C=c1/c(=C/c2[n-]c(=O)[n-]c2O)cc(C)n1CCCN1CCN(C)CC1 (cis-trans isomerization)
C=c1/c(=C/c2[n-]c(=O)[n-]c2O)cc(C)n1CCCN1CCN(C)CC1 (3D coordinates assigned)
C=c1/c(=C/c2[n-]c(=O)[n-]c2O)cc(C)n1CCCN1CCN(C)CC1 (nonaromatic ring conformer: 120.47523066798854 kcal/mol)

>  <smiles>  (33) 
C=c1c(=Cc2[nH]c(=O)[nH]c2O)cc(C)n1CCCN1CCN(C)CC1

>  <score_type>  (33) 
oracle

>  <origin>  (33) 
adg

>  <m_score__min__energy>  (33) 
-13.029999999999999

>  <m_primary>  (33) 
energy

$$$$
33:0
     RDKit          3D

 49 51  0  0  1  0  0  0  0  0999 V2000
   55.5280   22.7690   44.7450 C   0  0  0  0  0  0  0  0  0  0  0  0
   55.1450   23.5790   45.7110 C   0  0  0  0  0  0  0  0  0  0  0  0
   55.6350   24.9570   45.8600 C   0  0  0  0  0  0  0  0  0  0  0  0
   54.7590   25.8430   45.9780 O   0  0  0  0  0  0  0  0  0  0  0  0
   56.9990   25.2860   45.8700 N   0  0  0  0  0  0  0  0  0  0  0  0
   57.5720   26.5640   46.0050 C   0  0  0  0  0  0  0  0  0  0  0  0
   58.8260   26.6640   46.6110 C   0  0  0  0  0  0  0  0  0  0  0  0
   59.4670   27.8690   46.7880 C   0  0  0  0  0  0  0  0  0  0  0  0
   62.0760   33.8400   46.3700 C   0  0  0  0  0  0  0  0  0  0  0  0
   60.8750   33.2830   46.8190 C   0  0  0  0  0  0  0  0  0  0  0  0
   59.6700   33.7680   46.2290 N   0  0  0  0  0  0  0  0  0  0  0  0
   58.9830   33.0900   45.3780 C   0  0  0  0  0  0  0  0  0  0  0  0
   58.3570   31.9900   45.7810 N   0  0  0  0  0  0  0  0  0  0  0  0
   57.6090   31.2140   44.9430 C   0  0  0  0  0  0  0  0  0  0  0  0
   57.0610   30.2080   45.4160 N   0  0  0  0  0  0  0  0  0  0  0  0
   57.6320   28.9820   45.7560 C   0  0  0  0  0  0  0  0  0  0  0  0
   58.9070   29.0480   46.3760 C   0  0  0  0  0  0  0  0  0  0  0  0
   63.2980   33.4410   46.8750 C   0  0  0  0  0  0  0  0  0  0  0  0
   63.3200   32.4630   47.8540 C   0  0  0  0  0  0  0  0  0  0  0  0
   62.1190   31.9050   48.3030 C   0  0  0  0  0  0  0  0  0  0  0  0
   60.8990   32.3110   47.7910 C   0  0  0  0  0  0  0  0  0  0  0  0
   59.7250   31.7600   48.2360 O   0  0  0  0  0  0  0  0  0  0  0  0
   58.8700   32.2930   49.2140 C   0  0  0  0  0  0  0  0  0  0  0  0
   58.8650   33.4410   44.0890 N   0  0  0  0  0  0  0  0  0  0  0  0
   58.1420   32.7110   43.2270 C   0  0  0  0  0  0  0  0  0  0  0  0
   57.4640   31.5400   43.6140 C   0  0  0  0  0  0  0  0  0  0  0  0
   56.6880   30.7890   42.6310 C   0  0  0  0  0  0  0  0  0  0  0  0
   57.0130   27.7430   45.5940 C   0  0  0  0  0  0  0  0  0  0  0  0
   55.1225   21.7480   44.6902 H   0  0  0  0  0  0  0  0  0  0  0  0
   56.2533   23.1138   43.9933 H   0  0  0  0  0  0  0  0  0  0  0  0
   54.4185   23.2034   46.4466 H   0  0  0  0  0  0  0  0  0  0  0  0
   57.6700   24.4670   45.7640 H   0  0  0  0  0  0  0  0  0  0  0  0
   59.3201   25.7453   46.9600 H   0  0  0  0  0  0  0  0  0  0  0  0
   60.4543   27.8850   47.2728 H   0  0  0  0  0  0  0  0  0  0  0  0
   62.0470   34.6178   45.5927 H   0  0  0  0  0  0  0  0  0  0  0  0
   58.4500   31.7100   46.8030 H   0  0  0  0  0  0  0  0  0  0  0  0
   59.4243   30.0081   46.5196 H   0  0  0  0  0  0  0  0  0  0  0  0
   64.2324   33.8903   46.5075 H   0  0  0  0  0  0  0  0  0  0  0  0
   64.2779   32.1261   48.2770 H   0  0  0  0  0  0  0  0  0  0  0  0
   62.1445   31.1266   49.0798 H   0  0  0  0  0  0  0  0  0  0  0  0
   59.2597   32.0500   50.2135 H   0  0  0  0  0  0  0  0  0  0  0  0
   58.8154   33.3854   49.0973 H   0  0  0  0  0  0  0  0  0  0  0  0
   57.8651   31.8611   49.0973 H   0  0  0  0  0  0  0  0  0  0  0  0
   59.3580   34.3050   43.7770 H   0  0  0  0  0  0  0  0  0  0  0  0
   58.0765   33.0395   42.1792 H   0  0  0  0  0  0  0  0  0  0  0  0
   55.9915   30.1149   43.1511 H   0  0  0  0  0  0  0  0  0  0  0  0
   56.1194   31.4886   42.0007 H   0  0  0  0  0  0  0  0  0  0  0  0
   57.3686   30.1978   42.0007 H   0  0  0  0  0  0  0  0  0  0  0  0
   56.0251   27.7121   45.1112 H   0  0  0  0  0  0  0  0  0  0  0  0
  1  2  2  0
  2  3  1  0
  3  4  2  0
  3  5  1  0
  5  6  1  0
  6  7  2  0
  7  8  1  0
  8  9  2  0
  9 10  1  0
 10 11  1  0
 11 12  2  0
 12 13  1  0
 13 14  1  0
 14 15  2  0
 15 16  1  0
 16 17  2  0
 17 18  1  0
 18 19  2  0
 19 20  1  0
 20 21  2  0
 21 22  1  0
 22 23  1  0
 14 24  1  0
 24 25  1  0
 25 26  2  0
 26 27  1  0
 10 28  2  0
 28  6  1  0
 26 12  1  0
 21 16  1  0
  1 29  1  0
  1 30  1  0
  2 31  1  0
  5 32  1  0
  7 33  1  0
  8 34  1  0
  9 35  1  0
 13 36  1  0
 17 37  1  0
 18 38  1  0
 19 39  1  0
 20 40  1  0
 23 41  1  0
 23 42  1  0
 23 43  1  0
 24 44  1  0
 25 45  1  0
 27 46  1  0
 27 47  1  0
 27 48  1  0
 28 49  1  0
M  END
>  <smiles>  (34) 
C=CC(=O)Nc1cccc(N=c2[nH]c(=Nc3ccccc3OC)[nH]cc2C)c1

>  <score_type>  (34) 
oracle

>  <origin>  (34) 
adg

>  <m_score__min__energy>  (34) 
-8.9299999999999997

>  <m_primary>  (34) 
energy

$$$$
34:0
     RDKit          3D

 53 56  0  0  0  0  0  0  0  0999 V2000
   54.0490   29.2300   52.9460 O   0  0  0  0  0  0  0  0  0  0  0  0
   54.1500   30.2990   52.2850 C   0  0  0  0  0  0  0  0  0  0  0  0
   55.4430   30.8720   52.0370 N   0  0  0  0  0  0  0  0  0  0  0  0
   56.6810   30.1300   52.2660 C   0  0  0  0  0  0  0  0  0  0  0  0
   57.7820   30.7040   51.4190 C   0  0  0  0  0  0  0  0  0  0  0  0
   58.1050   30.1080   50.1920 C   0  0  0  0  0  0  0  0  0  0  0  0
   59.1860   30.5790   49.4420 C   0  0  0  0  0  0  0  0  0  0  0  0
   59.9710   31.6470   49.9080 C   0  0  0  0  0  0  0  0  0  0  0  0
   61.1390   32.0710   49.1690 N   0  0  0  0  0  0  0  0  0  0  0  0
   61.5990   31.3650   47.9720 C   0  0  0  0  0  0  0  0  0  0  0  0
   61.3990   32.2700   46.7540 C   0  0  0  0  0  0  0  0  0  0  0  0
   61.7750   33.6830   47.0120 N   0  0  0  0  0  0  0  0  0  0  0  0
   60.7660   34.6920   46.6130 C   0  0  0  0  0  0  0  0  0  0  0  0
   59.4480   34.0950   46.1710 C   0  0  0  0  0  0  0  0  0  0  0  0
   59.1470   33.9420   44.8060 C   0  0  0  0  0  0  0  0  0  0  0  0
   57.9350   33.3670   44.4100 C   0  0  0  0  0  0  0  0  0  0  0  0
   57.0070   32.9550   45.3690 C   0  0  0  0  0  0  0  0  0  0  0  0
   57.2830   33.1300   46.7270 C   0  0  0  0  0  0  0  0  0  0  0  0
   58.4940   33.7040   47.1280 C   0  0  0  0  0  0  0  0  0  0  0  0
   62.4970   33.9560   48.2760 C   0  0  0  0  0  0  0  0  0  0  0  0
   61.8030   33.3360   49.5060 C   0  0  0  0  0  0  0  0  0  0  0  0
   59.6380   32.2450   51.1390 C   0  0  0  0  0  0  0  0  0  0  0  0
   58.5550   31.7770   51.8860 C   0  0  0  0  0  0  0  0  0  0  0  0
   52.9350   30.9480   51.7660 C   0  0  0  0  0  0  0  0  0  0  0  0
   52.4280   30.7860   50.4890 C   0  0  0  0  0  0  0  0  0  0  0  0
   51.3130   31.5910   50.4130 C   0  0  0  0  0  0  0  0  0  0  0  0
   51.2060   32.1950   51.6450 C   0  0  0  0  0  0  0  0  0  0  0  0
   50.2110   33.0950   51.9980 O   0  0  0  0  0  0  0  0  0  0  0  0
   52.1890   31.8150   52.4810 N   0  0  0  0  0  0  0  0  0  0  0  0
   55.5110   31.8270   51.6170 H   0  0  0  0  0  0  0  0  0  0  0  0
   56.9602   30.2040   53.3274 H   0  0  0  0  0  0  0  0  0  0  0  0
   56.5274   29.0747   51.9962 H   0  0  0  0  0  0  0  0  0  0  0  0
   57.5047   29.2656   49.8178 H   0  0  0  0  0  0  0  0  0  0  0  0
   59.4248   30.1087   48.4767 H   0  0  0  0  0  0  0  0  0  0  0  0
   62.6656   31.1173   48.0766 H   0  0  0  0  0  0  0  0  0  0  0  0
   61.0243   30.4359   47.8438 H   0  0  0  0  0  0  0  0  0  0  0  0
   62.0174   31.8880   45.9284 H   0  0  0  0  0  0  0  0  0  0  0  0
   60.3274   32.2551   46.5060 H   0  0  0  0  0  0  0  0  0  0  0  0
   60.5770   35.3522   47.4723 H   0  0  0  0  0  0  0  0  0  0  0  0
   61.1785   35.2336   45.7490 H   0  0  0  0  0  0  0  0  0  0  0  0
   59.8683   34.2762   44.0458 H   0  0  0  0  0  0  0  0  0  0  0  0
   57.7121   33.2390   43.3404 H   0  0  0  0  0  0  0  0  0  0  0  0
   56.0594   32.4930   45.0551 H   0  0  0  0  0  0  0  0  0  0  0  0
   56.5472   32.8161   47.4820 H   0  0  0  0  0  0  0  0  0  0  0  0
   58.7016   33.8505   48.1983 H   0  0  0  0  0  0  0  0  0  0  0  0
   63.5121   33.5396   48.1980 H   0  0  0  0  0  0  0  0  0  0  0  0
   62.5135   35.0465   48.4194 H   0  0  0  0  0  0  0  0  0  0  0  0
   62.5570   33.1475   50.2845 H   0  0  0  0  0  0  0  0  0  0  0  0
   61.0389   34.0421   49.8633 H   0  0  0  0  0  0  0  0  0  0  0  0
   60.2362   33.0880   51.5152 H   0  0  0  0  0  0  0  0  0  0  0  0
   58.3067   32.2527   52.8463 H   0  0  0  0  0  0  0  0  0  0  0  0
   52.8339   30.1433   49.6939 H   0  0  0  0  0  0  0  0  0  0  0  0
   50.6468   31.7235   49.5478 H   0  0  0  0  0  0  0  0  0  0  0  0
  1  2  2  0
  2  3  1  0
  3  4  1  0
  4  5  1  0
  5  6  2  0
  6  7  1  0
  7  8  2  0
  8  9  1  0
  9 10  1  0
 10 11  1  0
 11 12  1  0
 12 13  1  0
 13 14  1  0
 14 15  2  0
 15 16  1  0
 16 17  2  0
 17 18  1  0
 18 19  2  0
 12 20  1  0
 20 21  1  0
  8 22  1  0
 22 23  2  0
  2 24  1  0
 24 25  2  0
 25 26  1  0
 26 27  2  0
 27 28  1  0
 27 29  1  0
 23  5  1  0
 29 24  1  0
 21  9  1  0
 19 14  1  0
  3 30  1  0
  4 31  1  0
  4 32  1  0
  6 33  1  0
  7 34  1  0
 10 35  1  0
 10 36  1  0
 11 37  1  0
 11 38  1  0
 13 39  1  0
 13 40  1  0
 15 41  1  0
 16 42  1  0
 17 43  1  0
 18 44  1  0
 19 45  1  0
 20 46  1  0
 20 47  1  0
 21 48  1  0
 21 49  1  0
 22 50  1  0
 23 51  1  0
 25 52  1  0
 26 53  1  0
M  CHG  2  28  -1  29  -1
M  END
>  <UniqueID>  (35) 
32

>  <SMILES>  (35) 
O=C(NCc1ccc(N2CCN(Cc3ccccc3)CC2)cc1)c1ccc([O-])[n-]1

>  <Energy>  (35) 
89.5592952087525

>  <Genealogy>  (35) 
O=C(NCc1ccc(N2CCN(Cc3ccccc3)CC2)cc1)c1ccc([O-])[n-]1 (protonated)
O=C(NCc1ccc(N2CCN(Cc3ccccc3)CC2)cc1)c1ccc([O-])[n-]1 (3D coordinates assigned)
O=C(NCc1ccc(N2CCN(Cc3ccccc3)CC2)cc1)c1ccc([O-])[n-]1 (nonaromatic ring conformer: 89.5592952087525 kcal/mol)

>  <smiles>  (35) 
O=C(NCc1ccc(N2CCN(Cc3ccccc3)CC2)cc1)c1ccc(O)[nH]1

>  <score_type>  (35) 
oracle

>  <origin>  (35) 
adg

>  <m_score__min__energy>  (35) 
-15.369999999999999

>  <m_primary>  (35) 
energy

$$$$
35:0
     RDKit          3D

 56 59  0  0  0  0  0  0  0  0999 V2000
   59.7538   21.4527   45.0637 H   0  0  0  0  0  0  0  0  0  0  0  0
   59.0230   22.0640   44.5140 C   0  0  0  0  0  0  0  0  0  0  0  0
   59.2134   23.1351   44.3514 H   0  0  0  0  0  0  0  0  0  0  0  0
   57.9070   21.5070   44.0450 C   0  0  0  0  0  0  0  0  0  0  0  0
   57.7410   20.4340   44.2213 H   0  0  0  0  0  0  0  0  0  0  0  0
   56.8830   22.2660   43.2990 C   0  0  0  0  0  0  0  0  0  0  0  0
   55.9700   21.6280   42.7130 O   0  0  0  0  0  0  0  0  0  0  0  0
   56.8620   23.6990   43.2520 N   0  0  0  0  0  0  0  0  0  0  0  0
   56.9310   24.5860   44.3770 C   0  0  0  0  0  0  0  0  0  0  0  0
   55.8590   24.6230   45.2760 C   0  0  0  0  0  0  0  0  0  0  0  0
   54.9849   23.9756   45.1120 H   0  0  0  0  0  0  0  0  0  0  0  0
   55.8930   25.4780   46.3810 C   0  0  0  0  0  0  0  0  0  0  0  0
   55.0551   25.4878   47.0936 H   0  0  0  0  0  0  0  0  0  0  0  0
   56.9890   26.3200   46.5820 C   0  0  0  0  0  0  0  0  0  0  0  0
   57.0242   26.9730   47.4665 H   0  0  0  0  0  0  0  0  0  0  0  0
   58.0470   26.3350   45.6570 C   0  0  0  0  0  0  0  0  0  0  0  0
   59.2020   27.1630   45.8610 N   0  0  0  0  0  0  0  0  0  0  0  0
   59.4570   27.9370   46.8800 C   0  0  0  0  0  0  0  0  0  0  0  0
   59.7230   27.3560   48.0800 N   0  0  0  0  0  0  0  0  0  0  0  0
   60.0150   28.0820   49.1890 C   0  0  0  0  0  0  0  0  0  0  0  0
   60.2214   27.5706   50.1408 H   0  0  0  0  0  0  0  0  0  0  0  0
   60.0540   29.4740   49.1250 C   0  0  0  0  0  0  0  0  0  0  0  0
   60.2878   30.0613   50.0252 H   0  0  0  0  0  0  0  0  0  0  0  0
   59.7940   30.1240   47.9080 C   0  0  0  0  0  0  0  0  0  0  0  0
   59.8580   31.6060   47.8330 C   0  0  0  0  0  0  0  0  0  0  0  0
   59.7910   32.2150   46.6180 N   0  0  0  0  0  0  0  0  0  0  0  0
   59.8570   33.5690   46.4900 C   0  0  0  0  0  0  0  0  0  0  0  0
   59.7910   34.1330   45.3210 N   0  0  0  0  0  0  0  0  0  0  0  0
   58.5800   34.2040   44.4960 C   0  0  1  0  0  0  0  0  0  0  0  0
   58.7311   35.0097   43.7625 H   0  0  0  0  0  0  0  0  0  0  0  0
   58.3290   32.8500   43.8360 C   0  0  0  0  0  0  0  0  0  0  0  0
   59.2542   32.2553   43.8158 H   0  0  0  0  0  0  0  0  0  0  0  0
   57.9951   32.9609   42.7938 H   0  0  0  0  0  0  0  0  0  0  0  0
   57.3220   32.1950   44.6570 N   0  0  0  0  0  0  0  0  0  0  0  0
   56.7540   30.9130   44.3390 C   0  0  0  0  0  0  0  0  0  0  0  0
   55.6560   30.5740   44.8580 O   0  0  0  0  0  0  0  0  0  0  0  0
   57.4100   29.9770   43.4090 C   0  0  0  0  0  0  0  0  0  0  0  0
   57.9557   30.3843   42.5451 H   0  0  0  0  0  0  0  0  0  0  0  0
   57.3670   28.6580   43.5750 C   0  0  0  0  0  0  0  0  0  0  0  0
   57.8714   27.9964   42.8554 H   0  0  0  0  0  0  0  0  0  0  0  0
   56.8270   28.2288   44.4319 H   0  0  0  0  0  0  0  0  0  0  0  0
   56.7280   33.0920   45.6340 C   0  0  0  0  0  0  0  0  0  0  0  0
   56.9632   32.7567   46.6549 H   0  0  0  0  0  0  0  0  0  0  0  0
   55.6318   33.1180   45.5466 H   0  0  0  0  0  0  0  0  0  0  0  0
   57.3450   34.4600   45.3690 C   0  0  0  0  0  0  0  0  0  0  0  0
   57.6383   34.9370   46.3158 H   0  0  0  0  0  0  0  0  0  0  0  0
   56.6323   35.1342   44.8715 H   0  0  0  0  0  0  0  0  0  0  0  0
   59.9930   34.3430   47.5960 N   0  0  0  0  0  0  0  0  0  0  0  0
   60.0720   33.7850   48.8330 C   0  0  0  0  0  0  0  0  0  0  0  0
   60.1850   34.4270   49.7190 H   0  0  0  0  0  0  0  0  0  0  0  0
   60.0100   32.4010   48.9800 C   0  0  0  0  0  0  0  0  0  0  0  0
   60.0789   31.9398   49.9763 H   0  0  0  0  0  0  0  0  0  0  0  0
   59.5120   29.3430   46.7720 C   0  0  0  0  0  0  0  0  0  0  0  0
   59.3346   29.8279   45.8007 H   0  0  0  0  0  0  0  0  0  0  0  0
   58.0240   25.4530   44.5700 C   0  0  0  0  0  0  0  0  0  0  0  0
   58.8655   25.4370   43.8617 H   0  0  0  0  0  0  0  0  0  0  0  0
  1  2  1  0
  2  3  1  0
  2  4  2  0
  4  5  1  0
  4  6  1  0
  6  7  2  0
  6  8  1  0
  8  9  1  0
  9 10  2  0
 10 11  1  0
 10 12  1  0
 12 13  1  0
 12 14  2  0
 14 15  1  0
 14 16  1  0
 16 17  1  0
 17 18  2  0
 18 19  1  0
 19 20  1  0
 20 21  1  0
 20 22  2  0
 22 23  1  0
 22 24  1  0
 24 25  1  0
 25 26  2  0
 26 27  1  0
 27 28  2  0
 28 29  1  0
 29 30  1  6
 29 31  1  0
 31 32  1  0
 31 33  1  0
 31 34  1  0
 34 35  1  0
 35 36  2  0
 35 37  1  0
 37 38  1  0
 37 39  2  0
 39 40  1  0
 39 41  1  0
 34 42  1  0
 42 43  1  0
 42 44  1  0
 42 45  1  0
 45 46  1  0
 45 47  1  0
 27 48  1  0
 48 49  1  0
 49 50  1  0
 49 51  2  0
 51 52  1  0
 24 53  2  0
 53 54  1  0
 16 55  2  0
 55 56  1  0
 55  9  1  0
 53 18  1  0
 51 25  1  0
 45 29  1  0
M  CHG  3   8  -1  19  -1  48  -1
M  END
>  <UniqueID>  (36) 
33

>  <SMILES>  (36) 
C=CC(=O)[N-]c1cccc(/N=c2\cc(-c3cc[n-]/c(=N/[C@@H]4CCN(C(=O)C=C)C4)n3)cc[n-]2)c1

>  <Energy>  (36) 
81.93535782833175

>  <Genealogy>  (36) 
C=CC(=O)[N-]c1cccc(N=c2cc(-c3cc[n-]c(=NC4CCN(C(=O)C=C)C4)n3)cc[n-]2)c1 (protonated)
C=CC(=O)[N-]c1cccc(N=c2cc(-c3cc[n-]c(=N[C@@H]4CCN(C(=O)C=C)C4)n3)cc[n-]2)c1 (chirality)
C=CC(=O)[N-]c1cccc(/N=c2\cc(-c3cc[n-]/c(=N/[C@@H]4CCN(C(=O)C=C)C4)n3)cc[n-]2)c1 (cis-trans isomerization)
C=CC(=O)[N-]c1cccc(/N=c2\cc(-c3cc[n-]/c(=N/[C@@H]4CCN(C(=O)C=C)C4)n3)cc[n-]2)c1 (3D coordinates assigned)
C=CC(=O)[N-]c1cccc(/N=c2\cc(-c3cc[n-]/c(=N/[C@@H]4CCN(C(=O)C=C)C4)n3)cc[n-]2)c1 (nonaromatic ring conformer: 81.93535782833175 kcal/mol)

>  <smiles>  (36) 
C=CC(=O)Nc1cccc(N=c2cc(-c3cc[nH]c(=NC4CCN(C(=O)C=C)C4)n3)cc[nH]2)c1

>  <score_type>  (36) 
oracle

>  <origin>  (36) 
adg

>  <m_score__min__energy>  (36) 
-13.210000000000001

>  <m_primary>  (36) 
energy

$$$$
36:0
     RDKit          3D

 40 42  0  0  0  0  0  0  0  0999 V2000
   55.1480   29.3410   44.9070 O   0  0  0  0  0  0  0  0  0  0  0  0
   56.3130   29.5930   44.5070 C   0  0  0  0  0  0  0  0  0  0  0  0
   56.6650   30.9480   44.1910 N   0  0  0  0  0  0  0  0  0  0  0  0
   57.3460   31.7770   44.9300 C   0  0  0  0  0  0  0  0  0  0  0  0
   57.6620   33.0870   44.5100 C   0  0  0  0  0  0  0  0  0  0  0  0
   58.3880   33.9230   45.3590 C   0  0  0  0  0  0  0  0  0  0  0  0
   58.8100   33.4570   46.6040 C   0  0  0  0  0  0  0  0  0  0  0  0
   58.5030   32.1480   46.9810 C   0  0  0  0  0  0  0  0  0  0  0  0
   57.7890   31.3490   46.1440 N   0  0  0  0  0  0  0  0  0  0  0  0
   57.2390   28.5100   44.3320 N   0  0  0  0  0  0  0  0  0  0  0  0
   57.9820   27.8650   45.3770 C   0  0  0  0  0  0  0  0  0  0  0  0
   59.1680   28.4730   45.8100 C   0  0  0  0  0  0  0  0  0  0  0  0
   59.9800   27.8520   46.7600 C   0  0  0  0  0  0  0  0  0  0  0  0
   59.6080   26.6220   47.2990 C   0  0  0  0  0  0  0  0  0  0  0  0
   58.4080   26.0210   46.9110 C   0  0  0  0  0  0  0  0  0  0  0  0
   57.5680   26.6440   45.9700 C   0  0  0  0  0  0  0  0  0  0  0  0
   56.2600   26.0180   45.6720 C   0  0  0  0  0  0  0  0  0  0  0  0
   55.2060   26.6250   46.0060 O   0  0  0  0  0  0  0  0  0  0  0  0
   56.1680   24.7450   45.0010 N   0  0  0  0  0  0  0  0  0  0  0  0
   57.0610   24.4400   43.8760 C   0  0  0  0  0  0  0  0  0  0  0  0
   57.1820   22.9240   43.7060 C   0  0  0  0  0  0  0  0  0  0  0  0
   55.9030   22.3300   43.6040 O   0  0  0  0  0  0  0  0  0  0  0  0
   55.2050   22.4880   44.8250 C   0  0  0  0  0  0  0  0  0  0  0  0
   54.9280   23.9680   45.1100 C   0  0  0  0  0  0  0  0  0  0  0  0
   57.3386   33.4458   43.5217 H   0  0  0  0  0  0  0  0  0  0  0  0
   58.6276   34.9500   45.0463 H   0  0  0  0  0  0  0  0  0  0  0  0
   59.3777   34.1126   47.2806 H   0  0  0  0  0  0  0  0  0  0  0  0
   58.8388   31.7632   47.9552 H   0  0  0  0  0  0  0  0  0  0  0  0
   59.4618   29.4493   45.3970 H   0  0  0  0  0  0  0  0  0  0  0  0
   60.9144   28.3338   47.0836 H   0  0  0  0  0  0  0  0  0  0  0  0
   60.2602   26.1235   48.0312 H   0  0  0  0  0  0  0  0  0  0  0  0
   58.1176   25.0528   47.3448 H   0  0  0  0  0  0  0  0  0  0  0  0
   56.6507   24.8791   42.9547 H   0  0  0  0  0  0  0  0  0  0  0  0
   58.0561   24.8633   44.0773 H   0  0  0  0  0  0  0  0  0  0  0  0
   57.7548   22.7075   42.7922 H   0  0  0  0  0  0  0  0  0  0  0  0
   57.6961   22.5089   44.5854 H   0  0  0  0  0  0  0  0  0  0  0  0
   54.2487   21.9477   44.7655 H   0  0  0  0  0  0  0  0  0  0  0  0
   55.8251   22.0839   45.6387 H   0  0  0  0  0  0  0  0  0  0  0  0
   54.1960   24.3476   44.3819 H   0  0  0  0  0  0  0  0  0  0  0  0
   54.5293   24.0689   46.1302 H   0  0  0  0  0  0  0  0  0  0  0  0
  1  2  2  0
  2  3  1  0
  3  4  2  3
  4  5  1  0
  5  6  2  0
  6  7  1  0
  7  8  2  0
  8  9  1  0
  2 10  1  0
 10 11  1  0
 11 12  2  0
 12 13  1  0
 13 14  2  0
 14 15  1  0
 15 16  2  0
 16 17  1  0
 17 18  2  0
 17 19  1  0
 19 20  1  0
 20 21  1  0
 21 22  1  0
 22 23  1  0
 23 24  1  0
  9  4  1  0
 16 11  1  0
 24 19  1  0
  5 25  1  0
  6 26  1  0
  7 27  1  0
  8 28  1  0
 12 29  1  0
 13 30  1  0
 14 31  1  0
 15 32  1  0
 20 33  1  0
 20 34  1  0
 21 35  1  0
 21 36  1  0
 23 37  1  0
 23 38  1  0
 24 39  1  0
 24 40  1  0
M  CHG  2   9  -1  10  -1
M  END
>  <UniqueID>  (37) 
34

>  <SMILES>  (37) 
O=C(N=c1cccc[n-]1)[N-]c1ccccc1C(=O)N1CCOCC1

>  <Energy>  (37) 
61.71866703701553

>  <Genealogy>  (37) 
O=C(N=c1cccc[n-]1)[N-]c1ccccc1C(=O)N1CCOCC1 (protonated)
O=C(N=c1cccc[n-]1)[N-]c1ccccc1C(=O)N1CCOCC1 (3D coordinates assigned)
O=C(N=c1cccc[n-]1)[N-]c1ccccc1C(=O)N1CCOCC1 (nonaromatic ring conformer: 61.71866703701553 kcal/mol)

>  <smiles>  (37) 
O=C(N=c1cccc[nH]1)Nc1ccccc1C(=O)N1CCOCC1

>  <score_type>  (37) 
oracle

>  <origin>  (37) 
adg

>  <m_score__min__energy>  (37) 
-10.82

>  <m_primary>  (37) 
energy

$$$$
37:0
     RDKit          3D

 43 45  0  0  0  0  0  0  0  0999 V2000
   59.9120   26.3210   46.8500 C   0  0  0  0  0  0  0  0  0  0  0  0
   58.5060   25.8000   46.7690 C   0  0  0  0  0  0  0  0  0  0  0  0
   58.2760   24.5000   47.0980 N   0  0  0  0  0  0  0  0  0  0  0  0
   57.0330   23.9630   47.0360 C   0  0  0  0  0  0  0  0  0  0  0  0
   56.8530   22.7570   47.3420 O   0  0  0  0  0  0  0  0  0  0  0  0
   55.9820   24.7270   46.6470 N   0  0  0  0  0  0  0  0  0  0  0  0
   56.1470   26.0330   46.3130 C   0  0  0  0  0  0  0  0  0  0  0  0
   55.1390   26.7120   45.9830 O   0  0  0  0  0  0  0  0  0  0  0  0
   57.4280   26.6160   46.3600 C   0  0  0  0  0  0  0  0  0  0  0  0
   57.6270   28.0390   46.0050 C   0  0  0  0  0  0  0  0  0  0  0  0
   58.4430   28.7310   46.6720 O   0  0  0  0  0  0  0  0  0  0  0  0
   56.8800   28.6310   44.9290 N   0  0  0  0  0  0  0  0  0  0  0  0
   57.1480   29.9360   44.3890 C   0  0  0  0  0  0  0  0  0  0  0  0
   56.9760   30.1590   43.0140 C   0  0  0  0  0  0  0  0  0  0  0  0
   57.2580   31.4100   42.4600 C   0  0  0  0  0  0  0  0  0  0  0  0
   57.7300   32.4460   43.2700 C   0  0  0  0  0  0  0  0  0  0  0  0
   57.9310   32.2310   44.6400 C   0  0  0  0  0  0  0  0  0  0  0  0
   58.5590   33.5280   45.6610 S   0  0  0  0  0  0  0  0  0  0  0  0
   58.5600   34.8150   44.8840 O   0  0  0  0  0  0  0  0  0  0  0  0
   57.6500   33.7010   46.8470 O   0  0  0  0  0  0  0  0  0  0  0  0
   60.1790   33.1890   46.2210 N   0  0  0  0  0  0  0  0  0  0  0  0
   60.5820   34.1560   47.2520 C   0  0  0  0  0  0  0  0  0  0  0  0
   62.0270   33.8610   47.7090 C   0  0  0  0  0  0  0  0  0  0  0  0
   62.5200   32.6410   47.1810 O   0  0  0  0  0  0  0  0  0  0  0  0
   61.6140   31.5940   47.4640 C   0  0  0  0  0  0  0  0  0  0  0  0
   60.2660   31.8170   46.7480 C   0  0  0  0  0  0  0  0  0  0  0  0
   57.6440   30.9760   45.1950 C   0  0  0  0  0  0  0  0  0  0  0  0
   60.2029   26.4288   47.9054 H   0  0  0  0  0  0  0  0  0  0  0  0
   60.5936   25.6158   46.3520 H   0  0  0  0  0  0  0  0  0  0  0  0
   59.9695   27.3001   46.3520 H   0  0  0  0  0  0  0  0  0  0  0  0
   56.0720   28.1000   44.5320 H   0  0  0  0  0  0  0  0  0  0  0  0
   56.6170   29.3437   42.3687 H   0  0  0  0  0  0  0  0  0  0  0  0
   57.1081   31.5798   41.3836 H   0  0  0  0  0  0  0  0  0  0  0  0
   57.9441   33.4319   42.8316 H   0  0  0  0  0  0  0  0  0  0  0  0
   60.5304   35.1739   46.8382 H   0  0  0  0  0  0  0  0  0  0  0  0
   59.9039   34.0717   48.1141 H   0  0  0  0  0  0  0  0  0  0  0  0
   62.6787   34.6809   47.3728 H   0  0  0  0  0  0  0  0  0  0  0  0
   62.0222   33.7755   48.8057 H   0  0  0  0  0  0  0  0  0  0  0  0
   62.0479   30.6419   47.1245 H   0  0  0  0  0  0  0  0  0  0  0  0
   61.4337   31.5718   48.5489 H   0  0  0  0  0  0  0  0  0  0  0  0
   60.1768   31.1037   45.9154 H   0  0  0  0  0  0  0  0  0  0  0  0
   59.4512   31.6628   47.4707 H   0  0  0  0  0  0  0  0  0  0  0  0
   57.8080   30.8036   46.2689 H   0  0  0  0  0  0  0  0  0  0  0  0
  1  2  1  0
  2  3  1  0
  3  4  1  0
  4  5  2  0
  4  6  1  0
  6  7  1  0
  7  8  2  0
  7  9  1  0
  9 10  1  0
 10 11  2  0
 10 12  1  0
 12 13  1  0
 13 14  2  0
 14 15  1  0
 15 16  2  0
 16 17  1  0
 17 18  1  0
 18 19  2  0
 18 20  2  0
 18 21  1  0
 21 22  1  0
 22 23  1  0
 23 24  1  0
 24 25  1  0
 25 26  1  0
 17 27  2  0
  9  2  2  0
 27 13  1  0
 26 21  1  0
  1 28  1  0
  1 29  1  0
  1 30  1  0
 12 31  1  0
 14 32  1  0
 15 33  1  0
 16 34  1  0
 22 35  1  0
 22 36  1  0
 23 37  1  0
 23 38  1  0
 25 39  1  0
 25 40  1  0
 26 41  1  0
 26 42  1  0
 27 43  1  0
M  CHG  2   3  -1   6  -1
M  END
>  <UniqueID>  (38) 
35

>  <SMILES>  (38) 
Cc1[n-]c(=O)[n-]c(=O)c1C(=O)Nc1cccc(S(=O)(=O)N2CCOCC2)c1

>  <Energy>  (38) 
62.16479696091898

>  <Genealogy>  (38) 
Cc1[n-]c(=O)[n-]c(=O)c1C(=O)Nc1cccc(S(=O)(=O)N2CCOCC2)c1 (protonated)
Cc1[n-]c(=O)[n-]c(=O)c1C(=O)Nc1cccc(S(=O)(=O)N2CCOCC2)c1 (3D coordinates assigned)
Cc1[n-]c(=O)[n-]c(=O)c1C(=O)Nc1cccc(S(=O)(=O)N2CCOCC2)c1 (nonaromatic ring conformer: 62.16479696091898 kcal/mol)

>  <smiles>  (38) 
Cc1[nH]c(=O)[nH]c(=O)c1C(=O)Nc1cccc(S(=O)(=O)N2CCOCC2)c1

>  <score_type>  (38) 
oracle

>  <origin>  (38) 
adg

>  <m_score__min__energy>  (38) 
-12.93

>  <m_primary>  (38) 
energy

$$$$
38:0
     RDKit          3D

 51 53  0  0  0  0  0  0  0  0999 V2000
   60.4730   30.2260   49.9530 O   0  0  0  0  0  0  0  0  0  0  0  0
   60.2070   31.1250   49.1090 C   0  0  0  0  0  0  0  0  0  0  0  0
   61.1170   31.3200   47.9290 C   0  0  0  0  0  0  0  0  0  0  0  0
   62.4900   31.6480   48.3790 N   0  0  0  0  0  0  0  0  0  0  0  0
   63.3650   32.0740   47.2650 C   0  0  0  0  0  0  0  0  0  0  0  0
   63.0210   33.4980   46.7650 C   0  0  0  0  0  0  0  0  0  0  0  0
   62.1620   34.2020   47.6430 O   0  0  0  0  0  0  0  0  0  0  0  0
   62.6350   34.0930   48.9670 C   0  0  0  0  0  0  0  0  0  0  0  0
   62.5060   32.6430   49.4770 C   0  0  0  0  0  0  0  0  0  0  0  0
   59.0200   31.9720   49.3020 C   0  0  0  0  0  0  0  0  0  0  0  0
   58.1470   31.6490   50.1530 O   0  0  0  0  0  0  0  0  0  0  0  0
   58.8920   33.1880   48.5530 N   0  0  0  0  0  0  0  0  0  0  0  0
   58.7560   33.3020   47.1290 C   0  0  0  0  0  0  0  0  0  0  0  0
   59.1250   34.4690   46.4350 C   0  0  0  0  0  0  0  0  0  0  0  0
   58.9610   34.5440   45.0490 C   0  0  0  0  0  0  0  0  0  0  0  0
   58.4160   33.4650   44.3470 C   0  0  0  0  0  0  0  0  0  0  0  0
   58.0160   32.3110   45.0320 C   0  0  0  0  0  0  0  0  0  0  0  0
   57.3390   30.9530   44.1370 S   0  0  0  0  0  0  0  0  0  0  0  0
   56.0320   30.5450   44.7570 O   0  0  0  0  0  0  0  0  0  0  0  0
   57.0710   31.4010   42.7270 O   0  0  0  0  0  0  0  0  0  0  0  0
   58.4780   29.6230   44.1210 N   0  0  0  0  0  0  0  0  0  0  0  0
   59.4370   29.6630   45.2450 C   0  0  0  0  0  0  0  0  0  0  0  0
   58.8310   29.1720   46.5680 C   0  0  0  0  0  0  0  0  0  0  0  0
   58.2110   27.7860   46.3990 C   0  0  0  0  0  0  0  0  0  0  0  0
   57.1950   27.7850   45.2590 C   0  0  0  0  0  0  0  0  0  0  0  0
   57.8250   28.3090   43.9590 C   0  0  0  0  0  0  0  0  0  0  0  0
   58.1860   32.2360   46.4220 C   0  0  0  0  0  0  0  0  0  0  0  0
   61.1425   30.3945   47.3351 H   0  0  0  0  0  0  0  0  0  0  0  0
   60.7348   32.1522   47.3196 H   0  0  0  0  0  0  0  0  0  0  0  0
   64.4094   32.0621   47.6100 H   0  0  0  0  0  0  0  0  0  0  0  0
   63.2124   31.3757   46.4288 H   0  0  0  0  0  0  0  0  0  0  0  0
   63.9562   34.0673   46.6588 H   0  0  0  0  0  0  0  0  0  0  0  0
   62.4934   33.3905   45.8058 H   0  0  0  0  0  0  0  0  0  0  0  0
   63.6927   34.3934   48.9980 H   0  0  0  0  0  0  0  0  0  0  0  0
   62.0317   34.7487   49.6121 H   0  0  0  0  0  0  0  0  0  0  0  0
   63.3590   32.4251   50.1365 H   0  0  0  0  0  0  0  0  0  0  0  0
   61.5473   32.5633   50.0105 H   0  0  0  0  0  0  0  0  0  0  0  0
   59.5438   35.3248   46.9848 H   0  0  0  0  0  0  0  0  0  0  0  0
   59.2615   35.4542   44.5093 H   0  0  0  0  0  0  0  0  0  0  0  0
   58.3011   33.5225   43.2545 H   0  0  0  0  0  0  0  0  0  0  0  0
   60.2971   29.0244   44.9950 H   0  0  0  0  0  0  0  0  0  0  0  0
   59.7331   30.7127   45.3880 H   0  0  0  0  0  0  0  0  0  0  0  0
   59.6221   29.1227   47.3308 H   0  0  0  0  0  0  0  0  0  0  0  0
   58.0439   29.8751   46.8779 H   0  0  0  0  0  0  0  0  0  0  0  0
   59.0060   27.0596   46.1749 H   0  0  0  0  0  0  0  0  0  0  0  0
   57.6963   27.5125   47.3319 H   0  0  0  0  0  0  0  0  0  0  0  0
   56.8375   26.7574   45.0967 H   0  0  0  0  0  0  0  0  0  0  0  0
   56.3591   28.4450   45.5341 H   0  0  0  0  0  0  0  0  0  0  0  0
   58.5780   27.5835   43.6176 H   0  0  0  0  0  0  0  0  0  0  0  0
   57.0127   28.4341   43.2279 H   0  0  0  0  0  0  0  0  0  0  0  0
   57.8687   31.3316   46.9619 H   0  0  0  0  0  0  0  0  0  0  0  0
  1  2  2  0
  2  3  1  0
  3  4  1  0
  4  5  1  0
  5  6  1  0
  6  7  1  0
  7  8  1  0
  8  9  1  0
  2 10  1  0
 10 11  2  0
 10 12  1  0
 12 13  1  0
 13 14  2  0
 14 15  1  0
 15 16  2  0
 16 17  1  0
 17 18  1  0
 18 19  2  0
 18 20  2  0
 18 21  1  0
 21 22  1  0
 22 23  1  0
 23 24  1  0
 24 25  1  0
 25 26  1  0
 17 27  2  0
  9  4  1  0
 27 13  1  0
 26 21  1  0
  3 28  1  0
  3 29  1  0
  5 30  1  0
  5 31  1  0
  6 32  1  0
  6 33  1  0
  8 34  1  0
  8 35  1  0
  9 36  1  0
  9 37  1  0
 14 38  1  0
 15 39  1  0
 16 40  1  0
 22 41  1  0
 22 42  1  0
 23 43  1  0
 23 44  1  0
 24 45  1  0
 24 46  1  0
 25 47  1  0
 25 48  1  0
 26 49  1  0
 26 50  1  0
 27 51  1  0
M  CHG  1  12  -1
M  END
>  <UniqueID>  (39) 
36

>  <SMILES>  (39) 
O=C(CN1CCOCC1)C(=O)[N-]c1cccc(S(=O)(=O)N2CCCCC2)c1

>  <Energy>  (39) 
64.62697360480416

>  <Genealogy>  (39) 
O=C(CN1CCOCC1)C(=O)[N-]c1cccc(S(=O)(=O)N2CCCCC2)c1 (protonated)
O=C(CN1CCOCC1)C(=O)[N-]c1cccc(S(=O)(=O)N2CCCCC2)c1 (3D coordinates assigned)
O=C(CN1CCOCC1)C(=O)[N-]c1cccc(S(=O)(=O)N2CCCCC2)c1 (nonaromatic ring conformer: 64.62697360480416 kcal/mol)

>  <smiles>  (39) 
O=C(CN1CCOCC1)C(=O)Nc1cccc(S(=O)(=O)N2CCCCC2)c1

>  <score_type>  (39) 
oracle

>  <origin>  (39) 
adg

>  <m_score__min__energy>  (39) 
-11.82

>  <m_primary>  (39) 
energy

$$$$
39:0
     RDKit          3D

 66 69  0  0  0  0  0  0  0  0999 V2000
   60.4600   25.5080   52.0180 C   0  0  0  0  0  0  0  0  0  0  0  0
   61.3970   26.6130   52.2930 N   0  0  0  0  0  0  0  0  0  0  0  0
   61.2240   27.1740   53.6560 C   0  0  0  0  0  0  0  0  0  0  0  0
   60.3360   28.4330   53.6900 C   0  0  0  0  0  0  0  0  0  0  0  0
   59.3600   28.3890   52.5940 N   0  0  0  0  0  0  0  0  0  0  0  0
   58.2150   29.6970   52.7540 S   0  0  0  0  0  0  0  0  0  0  0  0
   56.8620   29.2660   52.2580 O   0  0  0  0  0  0  0  0  0  0  0  0
   58.0920   30.0900   54.2010 O   0  0  0  0  0  0  0  0  0  0  0  0
   58.7750   31.0910   51.8350 C   0  0  0  0  0  0  0  0  0  0  0  0
   59.9280   31.7770   52.2390 C   0  0  0  0  0  0  0  0  0  0  0  0
   60.3950   32.8660   51.4990 C   0  0  0  0  0  0  0  0  0  0  0  0
   59.7180   33.2720   50.3320 C   0  0  0  0  0  0  0  0  0  0  0  0
   60.1530   34.3520   49.5510 O   0  0  0  0  0  0  0  0  0  0  0  0
   60.1470   34.3680   48.1520 C   0  0  0  0  0  0  0  0  0  0  0  0
   59.2630   35.2330   47.4950 C   0  0  0  0  0  0  0  0  0  0  0  0
   59.2060   35.2610   46.1000 C   0  0  0  0  0  0  0  0  0  0  0  0
   60.0320   34.4220   45.3510 C   0  0  0  0  0  0  0  0  0  0  0  0
   60.9100   33.5450   45.9940 C   0  0  0  0  0  0  0  0  0  0  0  0
   60.9640   33.4960   47.3990 C   0  0  0  0  0  0  0  0  0  0  0  0
   61.8640   32.5300   48.0690 C   0  0  0  0  0  0  0  0  0  0  0  0
   61.4680   31.3420   48.5610 C   0  0  0  0  0  0  0  0  0  0  0  0
   62.1240   30.8270   49.7370 C   0  0  0  0  0  0  0  0  0  0  0  0
   62.6520   30.4150   50.6820 N   0  0  0  0  0  0  0  0  0  0  0  0
   60.3780   30.5380   47.9650 C   0  0  0  0  0  0  0  0  0  0  0  0
   59.3060   31.1130   47.6340 O   0  0  0  0  0  0  0  0  0  0  0  0
   60.5470   29.1250   47.7490 N   0  0  0  0  0  0  0  0  0  0  0  0
   59.4760   28.2310   47.4070 C   0  0  0  0  0  0  0  0  0  0  0  0
   59.5420   26.8930   47.8240 C   0  0  0  0  0  0  0  0  0  0  0  0
   58.5320   25.9930   47.4780 C   0  0  0  0  0  0  0  0  0  0  0  0
   57.4460   26.4180   46.7020 C   0  0  0  0  0  0  0  0  0  0  0  0
   56.1840   25.2810   46.2420 S   0  0  0  0  0  0  0  0  0  0  0  0
   54.7380   26.1510   45.8730 N   0  0  0  0  0  0  0  0  0  0  0  0
   56.6160   24.4940   45.0370 O   0  0  0  0  0  0  0  0  0  0  0  0
   55.9240   24.3260   47.3730 O   0  0  0  0  0  0  0  0  0  0  0  0
   57.3880   27.7470   46.2590 C   0  0  0  0  0  0  0  0  0  0  0  0
   58.3980   28.6490   46.6060 C   0  0  0  0  0  0  0  0  0  0  0  0
   58.5640   32.5870   49.9370 C   0  0  0  0  0  0  0  0  0  0  0  0
   58.0950   31.5000   50.6800 C   0  0  0  0  0  0  0  0  0  0  0  0
   60.0390   28.4780   51.2860 C   0  0  0  0  0  0  0  0  0  0  0  0
   61.3460   27.6530   51.2460 C   0  0  0  0  0  0  0  0  0  0  0  0
   60.1019   25.0857   52.9685 H   0  0  0  0  0  0  0  0  0  0  0  0
   59.6045   25.8879   51.4402 H   0  0  0  0  0  0  0  0  0  0  0  0
   60.9746   24.7261   51.4402 H   0  0  0  0  0  0  0  0  0  0  0  0
   60.7638   26.4051   54.2940 H   0  0  0  0  0  0  0  0  0  0  0  0
   62.2209   27.4692   54.0152 H   0  0  0  0  0  0  0  0  0  0  0  0
   59.8027   28.4768   54.6511 H   0  0  0  0  0  0  0  0  0  0  0  0
   60.9694   29.3248   53.5738 H   0  0  0  0  0  0  0  0  0  0  0  0
   60.4676   31.4568   53.1425 H   0  0  0  0  0  0  0  0  0  0  0  0
   61.2938   33.4080   51.8284 H   0  0  0  0  0  0  0  0  0  0  0  0
   58.6091   35.8949   48.0818 H   0  0  0  0  0  0  0  0  0  0  0  0
   58.5100   35.9444   45.5916 H   0  0  0  0  0  0  0  0  0  0  0  0
   59.9920   34.4509   44.2521 H   0  0  0  0  0  0  0  0  0  0  0  0
   61.5623   32.8895   45.3983 H   0  0  0  0  0  0  0  0  0  0  0  0
   62.9252   32.8011   48.1712 H   0  0  0  0  0  0  0  0  0  0  0  0
   61.4770   28.6990   47.9560 H   0  0  0  0  0  0  0  0  0  0  0  0
   60.3954   26.5506   48.4277 H   0  0  0  0  0  0  0  0  0  0  0  0
   58.5893   24.9477   47.8156 H   0  0  0  0  0  0  0  0  0  0  0  0
   54.7930   27.0610   46.3830 H   0  0  0  0  0  0  0  0  0  0  0  0
   56.5449   28.0810   45.6363 H   0  0  0  0  0  0  0  0  0  0  0  0
   58.3496   29.6892   46.2514 H   0  0  0  0  0  0  0  0  0  0  0  0
   58.0216   32.9063   49.0349 H   0  0  0  0  0  0  0  0  0  0  0  0
   57.1900   30.9643   50.3574 H   0  0  0  0  0  0  0  0  0  0  0  0
   59.3588   28.1011   50.5080 H   0  0  0  0  0  0  0  0  0  0  0  0
   60.3012   29.5324   51.1140 H   0  0  0  0  0  0  0  0  0  0  0  0
   61.4247   27.1663   50.2627 H   0  0  0  0  0  0  0  0  0  0  0  0
   62.1813   28.3458   51.4256 H   0  0  0  0  0  0  0  0  0  0  0  0
  1  2  1  0
  2  3  1  0
  3  4  1  0
  4  5  1  0
  5  6  1  0
  6  7  2  0
  6  8  2  0
  6  9  1  0
  9 10  2  0
 10 11  1  0
 11 12  2  0
 12 13  1  0
 13 14  1  0
 14 15  2  0
 15 16  1  0
 16 17  2  0
 17 18  1  0
 18 19  2  0
 19 20  1  0
 20 21  2  3
 21 22  1  0
 22 23  3  0
 21 24  1  0
 24 25  2  0
 24 26  1  0
 26 27  1  0
 27 28  2  0
 28 29  1  0
 29 30  2  0
 30 31  1  0
 31 32  1  0
 31 33  2  0
 31 34  2  0
 30 35  1  0
 35 36  2  0
 12 37  1  0
 37 38  2  0
  5 39  1  0
 39 40  1  0
 40  2  1  0
 38  9  1  0
 19 14  1  0
 36 27  1  0
  1 41  1  0
  1 42  1  0
  1 43  1  0
  3 44  1  0
  3 45  1  0
  4 46  1  0
  4 47  1  0
 10 48  1  0
 11 49  1  0
 15 50  1  0
 16 51  1  0
 17 52  1  0
 18 53  1  0
 20 54  1  0
 26 55  1  0
 28 56  1  0
 29 57  1  0
 32 58  1  0
 35 59  1  0
 36 60  1  0
 37 61  1  0
 38 62  1  0
 39 63  1  0
 39 64  1  0
 40 65  1  0
 40 66  1  0
M  CHG  1  32  -1
M  END
>  <UniqueID>  (40) 
37

>  <SMILES>  (40) 
CN1CCN(S(=O)(=O)c2ccc(Oc3ccccc3C=C(C#N)C(=O)Nc3ccc(S([NH-])(=O)=O)cc3)cc2)CC1

>  <Energy>  (40) 
98.27488381619756

>  <Genealogy>  (40) 
CN1CCN(S(=O)(=O)c2ccc(Oc3ccccc3C=C(C#N)C(=O)Nc3ccc(S([NH-])(=O)=O)cc3)cc2)CC1 (protonated)
CN1CCN(S(=O)(=O)c2ccc(Oc3ccccc3C=C(C#N)C(=O)Nc3ccc(S([NH-])(=O)=O)cc3)cc2)CC1 (3D coordinates assigned)
CN1CCN(S(=O)(=O)c2ccc(Oc3ccccc3C=C(C#N)C(=O)Nc3ccc(S([NH-])(=O)=O)cc3)cc2)CC1 (nonaromatic ring conformer: 98.27488381619756 kcal/mol)

>  <smiles>  (40) 
CN1CCN(S(=O)(=O)c2ccc(Oc3ccccc3C=C(C#N)C(=O)Nc3ccc(S(N)(=O)=O)cc3)cc2)CC1

>  <score_type>  (40) 
oracle

>  <origin>  (40) 
adg

>  <m_score__min__energy>  (40) 
-13.789999999999999

>  <m_primary>  (40) 
energy

$$$$
40:0
     RDKit          3D

 57 59  0  0  0  0  0  0  0  0999 V2000
   57.2320   26.3280   45.4330 C   0  0  0  0  0  0  0  0  0  0  0  0
   57.9850   27.4730   46.0270 C   0  0  0  0  0  0  0  0  0  0  0  0
   59.3680   27.3100   46.9750 S   0  0  0  0  0  0  0  0  0  0  0  0
   59.5000   28.9620   47.2440 C   0  0  0  0  0  0  0  0  0  0  0  0
   60.5890   29.6220   48.0270 C   0  0  0  0  0  0  0  0  0  0  0  0
   60.0310   30.3140   49.2340 C   0  0  0  0  0  0  0  0  0  0  0  0
   59.3110   31.3390   49.0850 O   0  0  0  0  0  0  0  0  0  0  0  0
   60.2780   29.7860   50.5430 N   0  0  0  0  0  0  0  0  0  0  0  0
   59.9240   30.5070   51.7640 C   0  0  0  0  0  0  0  0  0  0  0  0
   58.4320   30.4880   51.9490 C   0  0  0  0  0  0  0  0  0  0  0  0
   57.6500   31.5630   51.5010 C   0  0  0  0  0  0  0  0  0  0  0  0
   56.2610   31.5330   51.6460 C   0  0  0  0  0  0  0  0  0  0  0  0
   55.6330   30.4220   52.2300 C   0  0  0  0  0  0  0  0  0  0  0  0
   54.1350   30.3850   52.3870 C   0  0  0  0  0  0  0  0  0  0  0  0
   53.5010   31.4700   51.6360 N   0  0  0  0  0  0  0  0  0  0  0  0
   51.8390   31.1000   51.2770 S   0  0  0  0  0  0  0  0  0  0  0  0
   51.2010   30.0380   52.5510 C   0  0  0  0  0  0  0  0  0  0  0  0
   51.0160   32.3580   51.2310 O   0  0  0  0  0  0  0  0  0  0  0  0
   51.7460   30.3900   49.9540 O   0  0  0  0  0  0  0  0  0  0  0  0
   56.4130   29.3360   52.6590 C   0  0  0  0  0  0  0  0  0  0  0  0
   57.8030   29.3670   52.5140 C   0  0  0  0  0  0  0  0  0  0  0  0
   58.5160   29.6470   46.6220 N   0  0  0  0  0  0  0  0  0  0  0  0
   57.6650   28.8340   45.9420 C   0  0  0  0  0  0  0  0  0  0  0  0
   56.4940   29.3710   45.2130 C   0  0  0  0  0  0  0  0  0  0  0  0
   55.5330   28.6040   44.9400 O   0  0  0  0  0  0  0  0  0  0  0  0
   56.4010   30.7450   44.8030 N   0  0  0  0  0  0  0  0  0  0  0  0
   57.4220   31.5180   44.1000 C   0  0  0  0  0  0  0  0  0  0  0  0
   57.9700   32.6330   44.9520 C   0  0  0  0  0  0  0  0  0  0  0  0
   57.7700   32.6110   46.3440 C   0  0  0  0  0  0  0  0  0  0  0  0
   58.2980   33.6210   47.1520 C   0  0  0  0  0  0  0  0  0  0  0  0
   59.0530   34.6490   46.5810 C   0  0  0  0  0  0  0  0  0  0  0  0
   59.5760   35.6240   47.3660 F   0  0  0  0  0  0  0  0  0  0  0  0
   59.2830   34.6650   45.2020 C   0  0  0  0  0  0  0  0  0  0  0  0
   58.7500   33.6580   44.3890 C   0  0  0  0  0  0  0  0  0  0  0  0
   56.8205   25.7023   46.2387 H   0  0  0  0  0  0  0  0  0  0  0  0
   56.4100   26.7127   44.8114 H   0  0  0  0  0  0  0  0  0  0  0  0
   57.9109   25.7257   44.8114 H   0  0  0  0  0  0  0  0  0  0  0  0
   61.3134   28.8601   48.3506 H   0  0  0  0  0  0  0  0  0  0  0  0
   61.0806   30.3696   47.3872 H   0  0  0  0  0  0  0  0  0  0  0  0
   60.8470   28.9170   50.6400 H   0  0  0  0  0  0  0  0  0  0  0  0
   60.4056   30.0236   52.6268 H   0  0  0  0  0  0  0  0  0  0  0  0
   60.2681   31.5488   51.6847 H   0  0  0  0  0  0  0  0  0  0  0  0
   58.1329   32.4337   51.0333 H   0  0  0  0  0  0  0  0  0  0  0  0
   55.6563   32.3845   51.3007 H   0  0  0  0  0  0  0  0  0  0  0  0
   53.7581   29.4213   52.0139 H   0  0  0  0  0  0  0  0  0  0  0  0
   53.8915   30.5080   53.4526 H   0  0  0  0  0  0  0  0  0  0  0  0
   51.4522   30.4562   53.5369 H   0  0  0  0  0  0  0  0  0  0  0  0
   50.1080   29.9627   52.4524 H   0  0  0  0  0  0  0  0  0  0  0  0
   51.6478   29.0377   52.4524 H   0  0  0  0  0  0  0  0  0  0  0  0
   55.9285   28.4578   53.1107 H   0  0  0  0  0  0  0  0  0  0  0  0
   58.4070   28.5090   52.8441 H   0  0  0  0  0  0  0  0  0  0  0  0
   58.2468   30.8460   43.8205 H   0  0  0  0  0  0  0  0  0  0  0  0
   56.9565   31.9669   43.2102 H   0  0  0  0  0  0  0  0  0  0  0  0
   57.1936   31.7925   46.7999 H   0  0  0  0  0  0  0  0  0  0  0  0
   58.1195   33.6071   48.2373 H   0  0  0  0  0  0  0  0  0  0  0  0
   59.8841   35.4706   44.7551 H   0  0  0  0  0  0  0  0  0  0  0  0
   58.9421   33.6687   43.3060 H   0  0  0  0  0  0  0  0  0  0  0  0
  1  2  1  0
  2  3  1  0
  3  4  1  0
  4  5  1  0
  5  6  1  0
  6  7  2  0
  6  8  1  0
  8  9  1  0
  9 10  1  0
 10 11  2  0
 11 12  1  0
 12 13  2  0
 13 14  1  0
 14 15  1  0
 15 16  1  0
 16 17  1  0
 16 18  2  0
 16 19  2  0
 13 20  1  0
 20 21  2  0
  4 22  2  0
 22 23  1  0
 23 24  1  0
 24 25  2  0
 24 26  1  0
 26 27  1  0
 27 28  1  0
 28 29  2  0
 29 30  1  0
 30 31  2  0
 31 32  1  0
 31 33  1  0
 33 34  2  0
 23  2  2  0
 34 28  1  0
 21 10  1  0
  1 35  1  0
  1 36  1  0
  1 37  1  0
  5 38  1  0
  5 39  1  0
  8 40  1  0
  9 41  1  0
  9 42  1  0
 11 43  1  0
 12 44  1  0
 14 45  1  0
 14 46  1  0
 17 47  1  0
 17 48  1  0
 17 49  1  0
 20 50  1  0
 21 51  1  0
 27 52  1  0
 27 53  1  0
 29 54  1  0
 30 55  1  0
 33 56  1  0
 34 57  1  0
M  CHG  2  15  -1  26  -1
M  END
>  <UniqueID>  (41) 
38

>  <SMILES>  (41) 
Cc1sc(CC(=O)NCc2ccc(C[N-]S(C)(=O)=O)cc2)nc1C(=O)[N-]Cc1ccc(F)cc1

>  <Energy>  (41) 
77.75393084389597

>  <Genealogy>  (41) 
Cc1sc(CC(=O)NCc2ccc(C[N-]S(C)(=O)=O)cc2)nc1C(=O)[N-]Cc1ccc(F)cc1 (protonated)
Cc1sc(CC(=O)NCc2ccc(C[N-]S(C)(=O)=O)cc2)nc1C(=O)[N-]Cc1ccc(F)cc1 (3D coordinates assigned)
Cc1sc(CC(=O)NCc2ccc(C[N-]S(C)(=O)=O)cc2)nc1C(=O)[N-]Cc1ccc(F)cc1 (optimized conformer: 77.75393084389597 kcal/mol)

>  <smiles>  (41) 
Cc1sc(CC(=O)NCc2ccc(CNS(C)(=O)=O)cc2)nc1C(=O)NCc1ccc(F)cc1

>  <score_type>  (41) 
oracle

>  <origin>  (41) 
adg

>  <m_score__min__energy>  (41) 
-12.99

>  <m_primary>  (41) 
energy

$$$$
41:0
     RDKit          3D

 45 47  0  0  0  0  0  0  0  0999 V2000
   59.2710   34.7950   44.6290 C   0  0  0  0  0  0  0  0  0  0  0  0
   58.6540   33.4560   44.9290 C   0  0  0  0  0  0  0  0  0  0  0  0
   58.0160   32.7580   43.8890 C   0  0  0  0  0  0  0  0  0  0  0  0
   57.4350   31.5110   44.1190 C   0  0  0  0  0  0  0  0  0  0  0  0
   57.4910   30.9260   45.3920 C   0  0  0  0  0  0  0  0  0  0  0  0
   56.8880   29.6470   45.6570 N   0  0  0  0  0  0  0  0  0  0  0  0
   57.6020   28.4000   45.6150 C   0  0  0  0  0  0  0  0  0  0  0  0
   58.8630   28.3950   45.6120 O   0  0  0  0  0  0  0  0  0  0  0  0
   56.8650   27.1180   45.6140 C   0  0  0  0  0  0  0  0  0  0  0  0
   57.4910   25.9170   45.2500 C   0  0  0  0  0  0  0  0  0  0  0  0
   56.7560   24.7340   45.2600 C   0  0  0  0  0  0  0  0  0  0  0  0
   55.4120   24.7710   45.6290 C   0  0  0  0  0  0  0  0  0  0  0  0
   54.7250   23.7170   45.6460 O   0  0  0  0  0  0  0  0  0  0  0  0
   54.8460   25.9570   45.9720 N   0  0  0  0  0  0  0  0  0  0  0  0
   55.5490   27.0920   45.9640 N   0  0  0  0  0  0  0  0  0  0  0  0
   58.0910   31.6340   46.4420 C   0  0  0  0  0  0  0  0  0  0  0  0
   58.6600   32.9000   46.2320 C   0  0  0  0  0  0  0  0  0  0  0  0
   59.4040   33.7350   47.6080 S   0  0  0  0  0  0  0  0  0  0  0  0
   58.7970   33.2550   48.8980 O   0  0  0  0  0  0  0  0  0  0  0  0
   59.1540   35.2100   47.4610 O   0  0  0  0  0  0  0  0  0  0  0  0
   61.1250   33.4330   47.6390 N   0  0  0  0  0  0  0  0  0  0  0  0
   61.7420   33.8950   46.3840 C   0  0  0  0  0  0  0  0  0  0  0  0
   63.2770   33.8640   46.5050 C   0  0  0  0  0  0  0  0  0  0  0  0
   63.7630   32.8330   47.5380 C   0  0  0  0  0  0  0  0  0  0  0  0
   62.8490   31.6040   47.5620 C   0  0  0  0  0  0  0  0  0  0  0  0
   61.3800   31.9930   47.8500 C   0  0  0  0  0  0  0  0  0  0  0  0
   59.5079   35.3091   45.5722 H   0  0  0  0  0  0  0  0  0  0  0  0
   60.1938   34.6515   44.0478 H   0  0  0  0  0  0  0  0  0  0  0  0
   58.5624   35.4033   44.0478 H   0  0  0  0  0  0  0  0  0  0  0  0
   57.9745   33.2001   42.8826 H   0  0  0  0  0  0  0  0  0  0  0  0
   56.9298   30.9833   43.2966 H   0  0  0  0  0  0  0  0  0  0  0  0
   55.8970   29.6390   45.9900 H   0  0  0  0  0  0  0  0  0  0  0  0
   58.5519   25.9094   44.9595 H   0  0  0  0  0  0  0  0  0  0  0  0
   57.2303   23.7818   44.9801 H   0  0  0  0  0  0  0  0  0  0  0  0
   58.1165   31.1901   47.4481 H   0  0  0  0  0  0  0  0  0  0  0  0
   61.4287   33.2362   45.5607 H   0  0  0  0  0  0  0  0  0  0  0  0
   61.4179   34.9267   46.1824 H   0  0  0  0  0  0  0  0  0  0  0  0
   63.7036   33.6090   45.5237 H   0  0  0  0  0  0  0  0  0  0  0  0
   63.6070   34.8577   46.8420 H   0  0  0  0  0  0  0  0  0  0  0  0
   64.7837   32.5167   47.2771 H   0  0  0  0  0  0  0  0  0  0  0  0
   63.7459   33.3008   48.5334 H   0  0  0  0  0  0  0  0  0  0  0  0
   62.9003   31.1017   46.5847 H   0  0  0  0  0  0  0  0  0  0  0  0
   63.1920   30.9356   48.3655 H   0  0  0  0  0  0  0  0  0  0  0  0
   60.7246   31.4167   47.1804 H   0  0  0  0  0  0  0  0  0  0  0  0
   61.1755   31.7684   48.9072 H   0  0  0  0  0  0  0  0  0  0  0  0
  1  2  1  0
  2  3  2  0
  3  4  1  0
  4  5  2  0
  5  6  1  0
  6  7  1  0
  7  8  2  0
  7  9  1  0
  9 10  1  0
 10 11  2  0
 11 12  1  0
 12 13  2  0
 12 14  1  0
 14 15  1  0
  5 16  1  0
 16 17  2  0
 17 18  1  0
 18 19  2  0
 18 20  2  0
 18 21  1  0
 21 22  1  0
 22 23  1  0
 23 24  1  0
 24 25  1  0
 25 26  1  0
 17  2  1  0
 26 21  1  0
 15  9  2  0
  1 27  1  0
  1 28  1  0
  1 29  1  0
  3 30  1  0
  4 31  1  0
  6 32  1  0
 10 33  1  0
 11 34  1  0
 16 35  1  0
 22 36  1  0
 22 37  1  0
 23 38  1  0
 23 39  1  0
 24 40  1  0
 24 41  1  0
 25 42  1  0
 25 43  1  0
 26 44  1  0
 26 45  1  0
M  CHG  1  14  -1
M  END
>  <UniqueID>  (42) 
39

>  <SMILES>  (42) 
Cc1ccc(NC(=O)c2ccc(=O)[n-]n2)cc1S(=O)(=O)N1CCCCC1

>  <Energy>  (42) 
55.723564578275706

>  <Genealogy>  (42) 
Cc1ccc(NC(=O)c2ccc(=O)[n-]n2)cc1S(=O)(=O)N1CCCCC1 (protonated)
Cc1ccc(NC(=O)c2ccc(=O)[n-]n2)cc1S(=O)(=O)N1CCCCC1 (3D coordinates assigned)
Cc1ccc(NC(=O)c2ccc(=O)[n-]n2)cc1S(=O)(=O)N1CCCCC1 (nonaromatic ring conformer: 55.723564578275706 kcal/mol)

>  <smiles>  (42) 
Cc1ccc(NC(=O)c2ccc(=O)[nH]n2)cc1S(=O)(=O)N1CCCCC1

>  <score_type>  (42) 
oracle

>  <origin>  (42) 
adg

>  <m_score__min__energy>  (42) 
-12.199999999999999

>  <m_primary>  (42) 
energy

$$$$
42:0
     RDKit          3D

 56 59  0  0  0  0  0  0  0  0999 V2000
   56.4050   29.3880   44.8680 C   0  0  0  0  0  0  0  0  0  0  0  0
   57.7010   29.1130   45.0830 C   0  0  0  0  0  0  0  0  0  0  0  0
   58.3130   27.8590   44.9890 C   0  0  0  0  0  0  0  0  0  0  0  0
   57.7240   26.6830   44.6940 C   0  0  0  0  0  0  0  0  0  0  0  0
   57.1790   25.7580   45.7030 C   0  0  0  0  0  0  0  0  0  0  0  0
   57.9080   24.7890   46.2850 N   0  0  0  0  0  0  0  0  0  0  0  0
   57.0550   24.2530   47.1860 C   0  0  0  0  0  0  0  0  0  0  0  0
   57.3740   23.2920   47.9320 O   0  0  0  0  0  0  0  0  0  0  0  0
   55.8390   24.8370   47.2320 N   0  0  0  0  0  0  0  0  0  0  0  0
   55.9360   25.7950   46.2980 C   0  0  0  0  0  0  0  0  0  0  0  0
   54.9270   26.7120   46.0300 O   0  0  0  0  0  0  0  0  0  0  0  0
   59.6480   28.0500   45.3270 C   0  0  0  0  0  0  0  0  0  0  0  0
   59.8000   29.3970   45.5880 C   0  0  0  0  0  0  0  0  0  0  0  0
   61.0780   30.0430   46.0300 C   0  0  0  0  0  0  0  0  0  0  0  0
   58.6230   30.0420   45.4410 N   0  0  0  0  0  0  0  0  0  0  0  0
   58.4030   31.4460   45.6610 C   0  0  0  0  0  0  0  0  0  0  0  0
   57.8780   32.2240   44.6190 C   0  0  0  0  0  0  0  0  0  0  0  0
   57.6920   33.5970   44.7840 C   0  0  0  0  0  0  0  0  0  0  0  0
   58.0270   34.2060   45.9930 C   0  0  0  0  0  0  0  0  0  0  0  0
   58.5450   33.4440   47.0430 C   0  0  0  0  0  0  0  0  0  0  0  0
   58.7370   32.0580   46.8950 C   0  0  0  0  0  0  0  0  0  0  0  0
   59.2520   31.2660   48.0360 C   0  0  0  0  0  0  0  0  0  0  0  0
   58.5320   30.3680   48.5500 O   0  0  0  0  0  0  0  0  0  0  0  0
   60.5620   31.5170   48.5650 N   0  0  0  0  0  0  0  0  0  0  0  0
   61.0410   30.8310   49.7650 C   0  0  0  0  0  0  0  0  0  0  0  0
   61.8940   31.7620   50.6400 C   0  0  0  0  0  0  0  0  0  0  0  0
   62.8770   32.5290   49.8420 N   0  0  0  0  0  0  0  0  0  0  0  0
   63.2350   31.8240   48.5870 C   0  0  0  0  0  0  0  0  0  0  0  0
   63.7240   32.8120   47.5150 C   0  0  0  0  0  0  0  0  0  0  0  0
   62.7510   33.7800   47.1460 O   0  0  0  0  0  0  0  0  0  0  0  0
   61.8320   34.0890   48.1850 C   0  0  0  0  0  0  0  0  0  0  0  0
   62.4150   33.9170   49.5990 C   0  0  0  0  0  0  0  0  0  0  0  0
   56.0369   30.4193   44.9727 H   0  0  0  0  0  0  0  0  0  0  0  0
   55.7110   28.5821   44.5871 H   0  0  0  0  0  0  0  0  0  0  0  0
   57.6454   26.3963   43.6349 H   0  0  0  0  0  0  0  0  0  0  0  0
   60.4304   27.2784   45.3767 H   0  0  0  0  0  0  0  0  0  0  0  0
   61.1177   30.0631   47.1291 H   0  0  0  0  0  0  0  0  0  0  0  0
   61.9323   29.4685   45.6427 H   0  0  0  0  0  0  0  0  0  0  0  0
   61.1220   31.0716   45.6427 H   0  0  0  0  0  0  0  0  0  0  0  0
   57.6107   31.7481   43.6640 H   0  0  0  0  0  0  0  0  0  0  0  0
   57.2810   34.1992   43.9603 H   0  0  0  0  0  0  0  0  0  0  0  0
   57.8830   35.2891   46.1202 H   0  0  0  0  0  0  0  0  0  0  0  0
   58.8051   33.9319   47.9940 H   0  0  0  0  0  0  0  0  0  0  0  0
   61.1950   32.1780   48.0590 H   0  0  0  0  0  0  0  0  0  0  0  0
   60.1754   30.4847   50.3489 H   0  0  0  0  0  0  0  0  0  0  0  0
   61.6658   29.9815   49.4520 H   0  0  0  0  0  0  0  0  0  0  0  0
   61.2296   32.4686   51.1589 H   0  0  0  0  0  0  0  0  0  0  0  0
   62.4505   31.1390   51.3557 H   0  0  0  0  0  0  0  0  0  0  0  0
   64.0347   31.0988   48.7983 H   0  0  0  0  0  0  0  0  0  0  0  0
   62.3385   31.3125   48.2066 H   0  0  0  0  0  0  0  0  0  0  0  0
   64.6077   33.3385   47.9048 H   0  0  0  0  0  0  0  0  0  0  0  0
   63.9508   32.2234   46.6138 H   0  0  0  0  0  0  0  0  0  0  0  0
   61.5124   35.1348   48.0661 H   0  0  0  0  0  0  0  0  0  0  0  0
   60.9949   33.3811   48.0944 H   0  0  0  0  0  0  0  0  0  0  0  0
   63.2679   34.6015   49.7176 H   0  0  0  0  0  0  0  0  0  0  0  0
   61.6204   34.1436   50.3251 H   0  0  0  0  0  0  0  0  0  0  0  0
  1  2  2  0
  2  3  1  0
  3  4  2  3
  4  5  1  0
  5  6  1  0
  6  7  1  0
  7  8  2  0
  7  9  1  0
  9 10  1  0
 10 11  1  0
  3 12  1  0
 12 13  2  0
 13 14  1  0
 13 15  1  0
 15 16  1  0
 16 17  2  0
 17 18  1  0
 18 19  2  0
 19 20  1  0
 20 21  2  0
 21 22  1  0
 22 23  2  0
 22 24  1  0
 24 25  1  0
 25 26  1  0
 26 27  1  0
 27 28  1  0
 28 29  1  0
 29 30  1  0
 30 31  1  0
 31 32  1  0
 15  2  1  0
 21 16  1  0
 32 27  1  0
 10  5  2  0
  1 33  1  0
  1 34  1  0
  4 35  1  0
 12 36  1  0
 14 37  1  0
 14 38  1  0
 14 39  1  0
 17 40  1  0
 18 41  1  0
 19 42  1  0
 20 43  1  0
 24 44  1  0
 25 45  1  0
 25 46  1  0
 26 47  1  0
 26 48  1  0
 28 49  1  0
 28 50  1  0
 29 51  1  0
 29 52  1  0
 31 53  1  0
 31 54  1  0
 32 55  1  0
 32 56  1  0
M  CHG  3   6  -1   9  -1  11  -1
M  END
>  <UniqueID>  (43) 
40

>  <SMILES>  (43) 
C=c1c(=Cc2[n-]c(=O)[n-]c2[O-])cc(C)n1-c1ccccc1C(=O)NCCN1CCOCC1

>  <Energy>  (43) 
144.2511063874455

>  <Genealogy>  (43) 
C=c1c(=Cc2[n-]c(=O)[n-]c2[O-])cc(C)n1-c1ccccc1C(=O)NCCN1CCOCC1 (protonated)
C=c1c(=Cc2[n-]c(=O)[n-]c2[O-])cc(C)n1-c1ccccc1C(=O)NCCN1CCOCC1 (3D coordinates assigned)
C=c1c(=Cc2[n-]c(=O)[n-]c2[O-])cc(C)n1-c1ccccc1C(=O)NCCN1CCOCC1 (nonaromatic ring conformer: 144.2511063874455 kcal/mol)

>  <smiles>  (43) 
C=c1c(=Cc2[nH]c(=O)[nH]c2O)cc(C)n1-c1ccccc1C(=O)NCCN1CCOCC1

>  <score_type>  (43) 
oracle

>  <origin>  (43) 
adg

>  <m_score__min__energy>  (43) 
-16.390000000000001

>  <m_primary>  (43) 
energy

$$$$
43:0
     RDKit          3D

 60 63  0  0  0  0  0  0  0  0999 V2000
   54.8220   29.3380   44.4540 O   0  0  0  0  0  0  0  0  0  0  0  0
   56.0740   29.2190   44.5270 C   0  0  0  0  0  0  0  0  0  0  0  0
   56.9350   29.6490   43.4120 C   0  0  0  0  0  0  0  0  0  0  0  0
   57.2820   30.9310   43.2260 C   0  0  0  0  0  0  0  0  0  0  0  0
   57.8760   31.7810   44.2870 C   0  0  0  0  0  0  0  0  0  0  0  0
   58.2080   33.1340   44.0770 C   0  0  0  0  0  0  0  0  0  0  0  0
   58.7680   33.8950   45.1080 C   0  0  0  0  0  0  0  0  0  0  0  0
   59.0150   33.3160   46.3590 C   0  0  0  0  0  0  0  0  0  0  0  0
   59.7060   34.2840   47.6580 S   0  0  0  0  0  0  0  0  0  0  0  0
   59.2340   33.7650   48.9880 O   0  0  0  0  0  0  0  0  0  0  0  0
   59.2490   35.7060   47.4900 O   0  0  0  0  0  0  0  0  0  0  0  0
   61.4500   34.2090   47.5910 N   0  0  0  0  0  0  0  0  0  0  0  0
   61.9060   33.0900   46.7260 C   0  0  0  0  0  0  0  0  0  0  0  0
   62.4040   31.8760   47.5230 C   0  0  0  0  0  0  0  0  0  0  0  0
   63.5650   32.2630   48.4550 C   0  0  0  0  0  0  0  0  0  0  0  0
   63.4570   33.7090   48.9730 C   0  0  0  0  0  0  0  0  0  0  0  0
   62.0040   34.1910   48.9620 C   0  0  0  0  0  0  0  0  0  0  0  0
   58.7000   31.9680   46.5710 C   0  0  0  0  0  0  0  0  0  0  0  0
   58.1410   31.2060   45.5420 C   0  0  0  0  0  0  0  0  0  0  0  0
   56.6830   28.6130   45.6720 N   0  0  0  0  0  0  0  0  0  0  0  0
   56.8170   27.2080   45.9370 C   0  0  0  0  0  0  0  0  0  0  0  0
   55.6970   26.3560   45.9800 C   0  0  0  0  0  0  0  0  0  0  0  0
   55.8580   24.9920   46.2350 C   0  0  0  0  0  0  0  0  0  0  0  0
   57.1310   24.4660   46.4610 C   0  0  0  0  0  0  0  0  0  0  0  0
   58.2460   25.3050   46.4470 C   0  0  0  0  0  0  0  0  0  0  0  0
   58.0970   26.6790   46.1990 C   0  0  0  0  0  0  0  0  0  0  0  0
   59.2530   27.5320   46.1900 N   0  0  0  0  0  0  0  0  0  0  0  0
   59.9410   27.8280   47.4540 C   0  0  0  0  0  0  0  0  0  0  0  0
   60.6940   29.1790   47.4050 C   0  0  0  0  0  0  0  0  0  0  0  0
   60.5940   29.8420   46.1580 O   0  0  0  0  0  0  0  0  0  0  0  0
   60.9480   28.9560   45.1180 C   0  0  0  0  0  0  0  0  0  0  0  0
   59.8160   27.9540   44.9040 C   0  0  0  0  0  0  0  0  0  0  0  0
   57.3068   28.8914   42.7065 H   0  0  0  0  0  0  0  0  0  0  0  0
   57.1174   31.3761   42.2337 H   0  0  0  0  0  0  0  0  0  0  0  0
   58.0254   33.5951   43.0951 H   0  0  0  0  0  0  0  0  0  0  0  0
   59.0155   34.9528   44.9356 H   0  0  0  0  0  0  0  0  0  0  0  0
   61.0646   32.7718   46.0929 H   0  0  0  0  0  0  0  0  0  0  0  0
   62.7531   33.4607   46.1302 H   0  0  0  0  0  0  0  0  0  0  0  0
   61.5753   31.4787   48.1275 H   0  0  0  0  0  0  0  0  0  0  0  0
   62.7642   31.1165   46.8135 H   0  0  0  0  0  0  0  0  0  0  0  0
   63.5664   31.5799   49.3172 H   0  0  0  0  0  0  0  0  0  0  0  0
   64.4958   32.1878   47.8737 H   0  0  0  0  0  0  0  0  0  0  0  0
   63.8419   33.7515   50.0026 H   0  0  0  0  0  0  0  0  0  0  0  0
   64.0468   34.3618   48.3126 H   0  0  0  0  0  0  0  0  0  0  0  0
   61.3983   33.5151   49.5835 H   0  0  0  0  0  0  0  0  0  0  0  0
   61.9773   35.2166   49.3588 H   0  0  0  0  0  0  0  0  0  0  0  0
   58.8934   31.5075   47.5511 H   0  0  0  0  0  0  0  0  0  0  0  0
   57.9059   30.1455   45.7157 H   0  0  0  0  0  0  0  0  0  0  0  0
   54.6903   26.7664   45.8120 H   0  0  0  0  0  0  0  0  0  0  0  0
   54.9793   24.3307   46.2578 H   0  0  0  0  0  0  0  0  0  0  0  0
   57.2554   23.3896   46.6502 H   0  0  0  0  0  0  0  0  0  0  0  0
   59.2470   24.8877   46.6312 H   0  0  0  0  0  0  0  0  0  0  0  0
   59.1962   27.8663   48.2626 H   0  0  0  0  0  0  0  0  0  0  0  0
   60.6815   27.0339   47.6304 H   0  0  0  0  0  0  0  0  0  0  0  0
   60.2779   29.8368   48.1823 H   0  0  0  0  0  0  0  0  0  0  0  0
   61.7595   28.9590   47.5673 H   0  0  0  0  0  0  0  0  0  0  0  0
   61.1158   29.5247   44.1915 H   0  0  0  0  0  0  0  0  0  0  0  0
   61.8698   28.4197   45.3876 H   0  0  0  0  0  0  0  0  0  0  0  0
   59.0260   28.4241   44.2999 H   0  0  0  0  0  0  0  0  0  0  0  0
   60.2164   27.0710   44.3844 H   0  0  0  0  0  0  0  0  0  0  0  0
  1  2  2  0
  2  3  1  0
  3  4  2  3
  4  5  1  0
  5  6  2  0
  6  7  1  0
  7  8  2  0
  8  9  1  0
  9 10  2  0
  9 11  2  0
  9 12  1  0
 12 13  1  0
 13 14  1  0
 14 15  1  0
 15 16  1  0
 16 17  1  0
  8 18  1  0
 18 19  2  0
  2 20  1  0
 20 21  1  0
 21 22  2  0
 22 23  1  0
 23 24  2  0
 24 25  1  0
 25 26  2  0
 26 27  1  0
 27 28  1  0
 28 29  1  0
 29 30  1  0
 30 31  1  0
 31 32  1  0
 19  5  1  0
 26 21  1  0
 32 27  1  0
 17 12  1  0
  3 33  1  0
  4 34  1  0
  6 35  1  0
  7 36  1  0
 13 37  1  0
 13 38  1  0
 14 39  1  0
 14 40  1  0
 15 41  1  0
 15 42  1  0
 16 43  1  0
 16 44  1  0
 17 45  1  0
 17 46  1  0
 18 47  1  0
 19 48  1  0
 22 49  1  0
 23 50  1  0
 24 51  1  0
 25 52  1  0
 28 53  1  0
 28 54  1  0
 29 55  1  0
 29 56  1  0
 31 57  1  0
 31 58  1  0
 32 59  1  0
 32 60  1  0
M  CHG  1  20  -1
M  END
>  <UniqueID>  (44) 
41

>  <SMILES>  (44) 
O=C(C=Cc1ccc(S(=O)(=O)N2CCCCC2)cc1)[N-]c1ccccc1N1CCOCC1

>  <Energy>  (44) 
83.22715037735195

>  <Genealogy>  (44) 
O=C(C=Cc1ccc(S(=O)(=O)N2CCCCC2)cc1)[N-]c1ccccc1N1CCOCC1 (protonated)
O=C(C=Cc1ccc(S(=O)(=O)N2CCCCC2)cc1)[N-]c1ccccc1N1CCOCC1 (3D coordinates assigned)
O=C(C=Cc1ccc(S(=O)(=O)N2CCCCC2)cc1)[N-]c1ccccc1N1CCOCC1 (nonaromatic ring conformer: 83.22715037735195 kcal/mol)

>  <smiles>  (44) 
O=C(C=Cc1ccc(S(=O)(=O)N2CCCCC2)cc1)Nc1ccccc1N1CCOCC1

>  <score_type>  (44) 
oracle

>  <origin>  (44) 
adg

>  <m_score__min__energy>  (44) 
-12

>  <m_primary>  (44) 
energy

$$$$
44:0
     RDKit          3D

 52 56  0  0  0  0  0  0  0  0999 V2000
   56.1210   31.5240   53.4430 O   0  0  0  0  0  0  0  0  0  0  0  0
   56.0310   30.9210   52.3390 C   0  0  0  0  0  0  0  0  0  0  0  0
   54.8180   30.2230   52.0120 N   0  0  0  0  0  0  0  0  0  0  0  0
   53.5260   30.5650   52.5440 C   0  0  0  0  0  0  0  0  0  0  0  0
   53.0930   30.0800   53.7930 C   0  0  0  0  0  0  0  0  0  0  0  0
   51.8430   30.4500   54.2990 C   0  0  0  0  0  0  0  0  0  0  0  0
   51.0220   31.3160   53.5740 C   0  0  0  0  0  0  0  0  0  0  0  0
   51.4520   31.8200   52.3440 C   0  0  0  0  0  0  0  0  0  0  0  0
   50.6400   32.6910   51.6290 O   0  0  0  0  0  0  0  0  0  0  0  0
   52.7000   31.4500   51.8320 C   0  0  0  0  0  0  0  0  0  0  0  0
   57.1960   30.9010   51.4200 C   0  0  0  0  0  0  0  0  0  0  0  0
   57.5680   32.0640   50.7220 C   0  0  0  0  0  0  0  0  0  0  0  0
   58.6570   32.0510   49.8460 C   0  0  0  0  0  0  0  0  0  0  0  0
   59.4030   30.8770   49.6560 C   0  0  0  0  0  0  0  0  0  0  0  0
   60.5480   30.8660   48.7190 C   0  0  0  0  0  0  0  0  0  0  0  0
   61.6770   30.4840   49.1320 O   0  0  0  0  0  0  0  0  0  0  0  0
   60.4100   31.2980   47.3530 N   0  0  0  0  0  0  0  0  0  0  0  0
   60.7970   32.6570   46.9430 C   0  0  0  0  0  0  0  0  0  0  0  0
   59.7640   33.3690   46.0980 C   0  0  0  0  0  0  0  0  0  0  0  0
   59.9750   34.6260   45.5600 C   0  0  0  0  0  0  0  0  0  0  0  0
   58.8260   34.9620   44.8750 C   0  0  0  0  0  0  0  0  0  0  0  0
   57.9560   33.9010   45.0160 C   0  0  0  0  0  0  0  0  0  0  0  0
   58.5270   32.9300   45.7560 N   0  0  0  0  0  0  0  0  0  0  0  0
   57.8730   31.6750   46.1260 C   0  0  0  0  0  0  0  0  0  0  0  0
   58.7380   30.5100   45.7400 C   0  0  0  0  0  0  0  0  0  0  0  0
   58.3250   29.5860   44.7690 C   0  0  0  0  0  0  0  0  0  0  0  0
   59.1420   28.5000   44.4420 C   0  0  0  0  0  0  0  0  0  0  0  0
   60.3720   28.3290   45.0830 C   0  0  0  0  0  0  0  0  0  0  0  0
   60.7900   29.2490   46.0480 C   0  0  0  0  0  0  0  0  0  0  0  0
   59.9800   30.3460   46.3700 C   0  0  0  0  0  0  0  0  0  0  0  0
   59.0210   29.7100   50.3340 C   0  0  0  0  0  0  0  0  0  0  0  0
   57.9290   29.7190   51.2050 C   0  0  0  0  0  0  0  0  0  0  0  0
   54.8910   29.3610   51.4250 H   0  0  0  0  0  0  0  0  0  0  0  0
   53.7411   29.4069   54.3734 H   0  0  0  0  0  0  0  0  0  0  0  0
   51.5059   30.0581   55.2700 H   0  0  0  0  0  0  0  0  0  0  0  0
   50.0367   31.6014   53.9713 H   0  0  0  0  0  0  0  0  0  0  0  0
   53.0365   31.8546   50.8660 H   0  0  0  0  0  0  0  0  0  0  0  0
   56.9965   32.9926   50.8669 H   0  0  0  0  0  0  0  0  0  0  0  0
   58.9314   32.9667   49.3018 H   0  0  0  0  0  0  0  0  0  0  0  0
   60.9713   33.2542   47.8502 H   0  0  0  0  0  0  0  0  0  0  0  0
   61.6977   32.5541   46.3200 H   0  0  0  0  0  0  0  0  0  0  0  0
   60.8831   35.2387   45.6593 H   0  0  0  0  0  0  0  0  0  0  0  0
   58.6396   35.8952   44.3232 H   0  0  0  0  0  0  0  0  0  0  0  0
   56.9441   33.8542   44.5872 H   0  0  0  0  0  0  0  0  0  0  0  0
   57.7046   31.6590   47.2129 H   0  0  0  0  0  0  0  0  0  0  0  0
   56.9112   31.6004   45.5975 H   0  0  0  0  0  0  0  0  0  0  0  0
   57.3565   29.7162   44.2639 H   0  0  0  0  0  0  0  0  0  0  0  0
   58.8161   27.7784   43.6784 H   0  0  0  0  0  0  0  0  0  0  0  0
   61.0108   27.4706   44.8280 H   0  0  0  0  0  0  0  0  0  0  0  0
   61.7562   29.1119   46.5556 H   0  0  0  0  0  0  0  0  0  0  0  0
   59.5864   28.7794   50.1784 H   0  0  0  0  0  0  0  0  0  0  0  0
   57.6397   28.7950   51.7270 H   0  0  0  0  0  0  0  0  0  0  0  0
  1  2  2  0
  2  3  1  0
  3  4  1  0
  4  5  2  0
  5  6  1  0
  6  7  2  0
  7  8  1  0
  8  9  1  0
  8 10  2  0
  2 11  1  0
 11 12  2  0
 12 13  1  0
 13 14  2  0
 14 15  1  0
 15 16  2  0
 15 17  1  0
 17 18  1  0
 18 19  1  0
 19 20  2  0
 20 21  1  0
 21 22  2  0
 22 23  1  0
 23 24  1  0
 24 25  1  0
 25 26  2  0
 26 27  1  0
 27 28  2  0
 28 29  1  0
 29 30  2  0
 14 31  1  0
 31 32  2  0
 10  4  1  0
 32 11  1  0
 30 17  1  0
 23 19  1  0
 30 25  1  0
  3 33  1  0
  5 34  1  0
  6 35  1  0
  7 36  1  0
 10 37  1  0
 12 38  1  0
 13 39  1  0
 18 40  1  0
 18 41  1  0
 20 42  1  0
 21 43  1  0
 22 44  1  0
 24 45  1  0
 24 46  1  0
 26 47  1  0
 27 48  1  0
 28 49  1  0
 29 50  1  0
 31 51  1  0
 32 52  1  0
M  CHG  1   9  -1
M  END
>  <UniqueID>  (45) 
42

>  <SMILES>  (45) 
O=C(Nc1cccc([O-])c1)c1ccc(C(=O)N2Cc3cccn3Cc3ccccc32)cc1

>  <Energy>  (45) 
106.70046405390075

>  <Genealogy>  (45) 
O=C(Nc1cccc([O-])c1)c1ccc(C(=O)N2Cc3cccn3Cc3ccccc32)cc1 (protonated)
O=C(Nc1cccc([O-])c1)c1ccc(C(=O)N2Cc3cccn3Cc3ccccc32)cc1 (3D coordinates assigned)
O=C(Nc1cccc([O-])c1)c1ccc(C(=O)N2Cc3cccn3Cc3ccccc32)cc1 (nonaromatic ring conformer: 106.70046405390075 kcal/mol)

>  <smiles>  (45) 
O=C(Nc1cccc(O)c1)c1ccc(C(=O)N2Cc3cccn3Cc3ccccc32)cc1

>  <score_type>  (45) 
oracle

>  <origin>  (45) 
adg

>  <m_score__min__energy>  (45) 
-13.4

>  <m_primary>  (45) 
energy

$$$$
45:0
     RDKit          3D

 50 52  0  0  0  0  0  0  0  0999 V2000
   57.2730   32.3270   40.9130 C   0  0  0  0  0  0  0  0  0  0  0  0
   57.3860   31.7840   42.1310 C   0  0  0  0  0  0  0  0  0  0  0  0
   56.6450   30.5100   42.4500 C   0  0  0  0  0  0  0  0  0  0  0  0
   58.2480   32.4500   43.1400 C   0  0  0  0  0  0  0  0  0  0  0  0
   57.7660   33.2350   44.1140 C   0  0  0  0  0  0  0  0  0  0  0  0
   58.4830   33.4550   45.3980 C   0  0  0  0  0  0  0  0  0  0  0  0
   58.9530   34.7410   45.7330 C   0  0  0  0  0  0  0  0  0  0  0  0
   59.5640   34.9770   46.9650 C   0  0  0  0  0  0  0  0  0  0  0  0
   59.7080   33.9410   47.8850 C   0  0  0  0  0  0  0  0  0  0  0  0
   59.2420   32.6620   47.5770 C   0  0  0  0  0  0  0  0  0  0  0  0
   58.6250   32.4020   46.3400 C   0  0  0  0  0  0  0  0  0  0  0  0
   58.1880   31.0200   46.0350 C   0  0  0  0  0  0  0  0  0  0  0  0
   57.0250   30.8250   45.5890 O   0  0  0  0  0  0  0  0  0  0  0  0
   59.0940   29.9150   46.2000 N   0  0  0  0  0  0  0  0  0  0  0  0
   58.6970   28.5360   46.1240 C   0  0  0  0  0  0  0  0  0  0  0  0
   58.4070   27.9230   44.8930 C   0  0  0  0  0  0  0  0  0  0  0  0
   57.9990   26.5870   44.8470 C   0  0  0  0  0  0  0  0  0  0  0  0
   57.8570   25.8450   46.0310 C   0  0  0  0  0  0  0  0  0  0  0  0
   57.4470   24.4650   45.9780 N   0  0  0  0  0  0  0  0  0  0  0  0
   56.3460   23.9990   46.8290 C   0  0  0  0  0  0  0  0  0  0  0  0
   56.2670   22.4730   46.8120 C   0  0  0  0  0  0  0  0  0  0  0  0
   57.5740   21.9380   46.8020 O   0  0  0  0  0  0  0  0  0  0  0  0
   58.1630   22.1210   45.5250 C   0  0  0  0  0  0  0  0  0  0  0  0
   58.0240   23.5600   44.9750 C   0  0  0  0  0  0  0  0  0  0  0  0
   58.1330   26.4630   47.2610 C   0  0  0  0  0  0  0  0  0  0  0  0
   58.5380   27.7990   47.3070 C   0  0  0  0  0  0  0  0  0  0  0  0
   57.8106   33.2562   40.6730 H   0  0  0  0  0  0  0  0  0  0  0  0
   56.6425   31.8441   40.1519 H   0  0  0  0  0  0  0  0  0  0  0  0
   56.5751   30.3899   43.5412 H   0  0  0  0  0  0  0  0  0  0  0  0
   55.6333   30.5570   42.0208 H   0  0  0  0  0  0  0  0  0  0  0  0
   57.1860   29.6538   42.0208 H   0  0  0  0  0  0  0  0  0  0  0  0
   59.3352   32.2915   43.0857 H   0  0  0  0  0  0  0  0  0  0  0  0
   56.8000   33.7372   43.9568 H   0  0  0  0  0  0  0  0  0  0  0  0
   58.8369   35.5669   45.0158 H   0  0  0  0  0  0  0  0  0  0  0  0
   59.9329   35.9838   47.2104 H   0  0  0  0  0  0  0  0  0  0  0  0
   60.1896   34.1312   48.8555 H   0  0  0  0  0  0  0  0  0  0  0  0
   59.3584   31.8492   48.3089 H   0  0  0  0  0  0  0  0  0  0  0  0
   60.1090   30.1190   46.3460 H   0  0  0  0  0  0  0  0  0  0  0  0
   58.5017   28.4981   43.9601 H   0  0  0  0  0  0  0  0  0  0  0  0
   57.7877   26.1135   43.8769 H   0  0  0  0  0  0  0  0  0  0  0  0
   56.5155   24.3415   47.8605 H   0  0  0  0  0  0  0  0  0  0  0  0
   55.4004   24.4090   46.4445 H   0  0  0  0  0  0  0  0  0  0  0  0
   55.7334   22.1227   47.7079 H   0  0  0  0  0  0  0  0  0  0  0  0
   55.7265   22.1420   45.9130 H   0  0  0  0  0  0  0  0  0  0  0  0
   59.2337   21.8797   45.5989 H   0  0  0  0  0  0  0  0  0  0  0  0
   57.6297   21.4581   44.8277 H   0  0  0  0  0  0  0  0  0  0  0  0
   59.0191   23.9312   44.6887 H   0  0  0  0  0  0  0  0  0  0  0  0
   57.3513   23.5341   44.1051 H   0  0  0  0  0  0  0  0  0  0  0  0
   58.0296   25.8911   48.1950 H   0  0  0  0  0  0  0  0  0  0  0  0
   58.7338   28.2769   48.2782 H   0  0  0  0  0  0  0  0  0  0  0  0
  1  2  2  0
  2  3  1  0
  2  4  1  0
  4  5  2  3
  5  6  1  0
  6  7  2  0
  7  8  1  0
  8  9  2  0
  9 10  1  0
 10 11  2  0
 11 12  1  0
 12 13  2  0
 12 14  1  0
 14 15  1  0
 15 16  2  0
 16 17  1  0
 17 18  2  0
 18 19  1  0
 19 20  1  0
 20 21  1  0
 21 22  1  0
 22 23  1  0
 23 24  1  0
 18 25  1  0
 25 26  2  0
 11  6  1  0
 26 15  1  0
 24 19  1  0
  1 27  1  0
  1 28  1  0
  3 29  1  0
  3 30  1  0
  3 31  1  0
  4 32  1  0
  5 33  1  0
  7 34  1  0
  8 35  1  0
  9 36  1  0
 10 37  1  0
 14 38  1  0
 16 39  1  0
 17 40  1  0
 20 41  1  0
 20 42  1  0
 21 43  1  0
 21 44  1  0
 23 45  1  0
 23 46  1  0
 24 47  1  0
 24 48  1  0
 25 49  1  0
 26 50  1  0
M  END
>  <UniqueID>  (46) 
43

>  <SMILES>  (46) 
C=C(C)C=Cc1ccccc1C(=O)Nc1ccc(N2CCOCC2)cc1

>  <Energy>  (46) 
72.91479834038905

>  <Genealogy>  (46) 
C=C(C)C=Cc1ccccc1C(=O)Nc1ccc(N2CCOCC2)cc1 (3D coordinates assigned)
C=C(C)C=Cc1ccccc1C(=O)Nc1ccc(N2CCOCC2)cc1 (nonaromatic ring conformer: 72.91479834038905 kcal/mol)

>  <smiles>  (46) 
C=C(C)C=Cc1ccccc1C(=O)Nc1ccc(N2CCOCC2)cc1

>  <score_type>  (46) 
oracle

>  <origin>  (46) 
adg

>  <m_score__min__energy>  (46) 
-8.8100000000000005

>  <m_primary>  (46) 
energy

$$$$
46:0
     RDKit          3D

 40 43  0  0  0  0  0  0  0  0999 V2000
   56.2670   30.0640   42.6210 C   0  0  0  0  0  0  0  0  0  0  0  0
   56.2640   29.4790   43.8800 C   0  0  0  0  0  0  0  0  0  0  0  0
   57.0060   30.0120   44.8920 C   0  0  0  0  0  0  0  0  0  0  0  0
   57.7740   31.1570   44.6490 C   0  0  0  0  0  0  0  0  0  0  0  0
   58.5360   31.6500   45.7990 C   0  0  0  0  0  0  0  0  0  0  0  0
   58.5970   32.9600   46.1420 N   0  0  0  0  0  0  0  0  0  0  0  0
   59.3730   33.0580   47.2350 C   0  0  0  0  0  0  0  0  0  0  0  0
   59.7790   34.5680   48.0980 S   0  0  0  0  0  0  0  0  0  0  0  0
   61.2510   34.2520   49.1210 C   0  0  0  0  0  0  0  0  0  0  0  0
   62.2270   33.4050   48.4130 C   0  0  0  0  0  0  0  0  0  0  0  0
   63.1220   33.7660   47.4270 C   0  0  0  0  0  0  0  0  0  0  0  0
   63.7980   32.6350   47.0950 N   0  0  0  0  0  0  0  0  0  0  0  0
   63.3340   31.6100   47.8530 C   0  0  0  0  0  0  0  0  0  0  0  0
   62.3690   32.0760   48.6640 N   0  0  0  0  0  0  0  0  0  0  0  0
   59.8010   31.8270   47.5820 N   0  0  0  0  0  0  0  0  0  0  0  0
   59.2930   30.9440   46.7030 C   0  0  0  0  0  0  0  0  0  0  0  0
   59.4640   29.4910   46.6510 C   0  0  0  0  0  0  0  0  0  0  0  0
   58.8420   28.6840   47.5830 C   0  0  0  0  0  0  0  0  0  0  0  0
   59.0070   27.3190   47.5290 C   0  0  0  0  0  0  0  0  0  0  0  0
   59.7940   26.7430   46.5460 C   0  0  0  0  0  0  0  0  0  0  0  0
   60.4170   27.5420   45.6140 C   0  0  0  0  0  0  0  0  0  0  0  0
   60.2610   28.9300   45.6530 C   0  0  0  0  0  0  0  0  0  0  0  0
   57.8020   31.7650   43.4140 C   0  0  0  0  0  0  0  0  0  0  0  0
   57.0360   31.1940   42.4190 C   0  0  0  0  0  0  0  0  0  0  0  0
   55.6699   29.6370   41.8017 H   0  0  0  0  0  0  0  0  0  0  0  0
   55.6586   28.5789   44.0624 H   0  0  0  0  0  0  0  0  0  0  0  0
   57.0013   29.5472   45.8890 H   0  0  0  0  0  0  0  0  0  0  0  0
   61.7257   35.2123   49.3711 H   0  0  0  0  0  0  0  0  0  0  0  0
   60.9322   33.7246   50.0322 H   0  0  0  0  0  0  0  0  0  0  0  0
   63.2606   34.7685   46.9960 H   0  0  0  0  0  0  0  0  0  0  0  0
   64.5540   32.5490   46.3790 H   0  0  0  0  0  0  0  0  0  0  0  0
   63.6889   30.5697   47.8108 H   0  0  0  0  0  0  0  0  0  0  0  0
   60.4190   31.5350   48.3780 H   0  0  0  0  0  0  0  0  0  0  0  0
   58.2151   29.1320   48.3680 H   0  0  0  0  0  0  0  0  0  0  0  0
   58.5094   26.6798   48.2732 H   0  0  0  0  0  0  0  0  0  0  0  0
   59.9209   25.6509   46.5100 H   0  0  0  0  0  0  0  0  0  0  0  0
   61.0421   27.0845   44.8330 H   0  0  0  0  0  0  0  0  0  0  0  0
   60.7584   29.5697   44.9091 H   0  0  0  0  0  0  0  0  0  0  0  0
   58.4073   32.6647   43.2293 H   0  0  0  0  0  0  0  0  0  0  0  0
   57.0375   31.6583   41.4218 H   0  0  0  0  0  0  0  0  0  0  0  0
  1  2  2  0
  2  3  1  0
  3  4  2  0
  4  5  1  0
  5  6  1  0
  6  7  2  0
  7  8  1  0
  8  9  1  0
  9 10  1  0
 10 11  2  0
 11 12  1  0
 12 13  1  0
 13 14  2  0
  7 15  1  0
 15 16  1  0
 16 17  1  0
 17 18  2  0
 18 19  1  0
 19 20  2  0
 20 21  1  0
 21 22  2  0
  4 23  1  0
 23 24  2  0
 24  1  1  0
 16  5  2  0
 22 17  1  0
 14 10  1  0
  1 25  1  0
  2 26  1  0
  3 27  1  0
  9 28  1  0
  9 29  1  0
 11 30  1  0
 12 31  1  0
 13 32  1  0
 15 33  1  0
 18 34  1  0
 19 35  1  0
 20 36  1  0
 21 37  1  0
 22 38  1  0
 23 39  1  0
 24 40  1  0
M  END
>  <smiles>  (47) 
c1ccc(-c2nc(SCc3c[nH]cn3)[nH]c2-c2ccccc2)cc1

>  <score_type>  (47) 
oracle

>  <origin>  (47) 
adg

>  <m_score__min__energy>  (47) 
-7.79

>  <m_primary>  (47) 
energy

$$$$
47:0
     RDKit          3D

 42 44  0  0  0  0  0  0  0  0999 V2000
   58.3440   31.8670   49.2550 O   0  0  0  0  0  0  0  0  0  0  0  0
   59.3480   31.5880   48.5500 C   0  0  0  0  0  0  0  0  0  0  0  0
   59.4320   30.4070   47.7500 N   0  0  0  0  0  0  0  0  0  0  0  0
   60.5540   30.4990   47.1090 C   0  0  0  0  0  0  0  0  0  0  0  0
   61.0610   29.4420   46.1750 C   0  0  0  0  0  0  0  0  0  0  0  0
   60.1960   29.3360   44.9120 C   0  0  0  0  0  0  0  0  0  0  0  0
   58.8400   28.7280   45.2000 C   0  0  0  0  0  0  0  0  0  0  0  0
   58.7680   27.5890   46.0240 C   0  0  0  0  0  0  0  0  0  0  0  0
   57.5410   26.9850   46.2960 C   0  0  0  0  0  0  0  0  0  0  0  0
   56.3690   27.4930   45.7340 C   0  0  0  0  0  0  0  0  0  0  0  0
   55.1500   26.8810   45.9980 O   0  0  0  0  0  0  0  0  0  0  0  0
   56.4240   28.6170   44.9070 C   0  0  0  0  0  0  0  0  0  0  0  0
   57.6460   29.2450   44.6360 C   0  0  0  0  0  0  0  0  0  0  0  0
   57.6340   30.3690   43.8090 O   0  0  0  0  0  0  0  0  0  0  0  0
   61.2560   31.7230   47.4760 C   0  0  0  0  0  0  0  0  0  0  0  0
   62.3590   32.1160   47.0100 O   0  0  0  0  0  0  0  0  0  0  0  0
   60.4950   32.4290   48.4420 N   0  0  0  0  0  0  0  0  0  0  0  0
   60.5670   33.8620   48.7270 C   0  0  0  0  0  0  0  0  0  0  0  0
   59.2870   34.5780   48.2880 C   0  0  0  0  0  0  0  0  0  0  0  0
   58.8740   34.1670   46.8980 C   0  0  0  0  0  0  0  0  0  0  0  0
   59.6750   34.5050   45.7930 C   0  0  0  0  0  0  0  0  0  0  0  0
   59.2820   34.1440   44.5010 C   0  0  0  0  0  0  0  0  0  0  0  0
   58.0880   33.4460   44.3020 C   0  0  0  0  0  0  0  0  0  0  0  0
   57.2800   33.1170   45.3950 C   0  0  0  0  0  0  0  0  0  0  0  0
   57.6670   33.4820   46.6880 C   0  0  0  0  0  0  0  0  0  0  0  0
   62.0914   29.6908   45.8812 H   0  0  0  0  0  0  0  0  0  0  0  0
   61.0220   28.4754   46.6986 H   0  0  0  0  0  0  0  0  0  0  0  0
   60.0516   30.3438   44.4954 H   0  0  0  0  0  0  0  0  0  0  0  0
   60.7168   28.6801   44.1988 H   0  0  0  0  0  0  0  0  0  0  0  0
   59.6887   27.1713   46.4576 H   0  0  0  0  0  0  0  0  0  0  0  0
   57.4967   26.1057   46.9554 H   0  0  0  0  0  0  0  0  0  0  0  0
   55.4982   29.0130   44.4641 H   0  0  0  0  0  0  0  0  0  0  0  0
   58.1130   30.4140   42.9200 H   0  0  0  0  0  0  0  0  0  0  0  0
   60.7061   34.0063   49.8086 H   0  0  0  0  0  0  0  0  0  0  0  0
   61.4135   34.2867   48.1674 H   0  0  0  0  0  0  0  0  0  0  0  0
   58.4782   34.3272   48.9902 H   0  0  0  0  0  0  0  0  0  0  0  0
   59.4806   35.6608   48.2848 H   0  0  0  0  0  0  0  0  0  0  0  0
   60.6148   35.0558   45.9458 H   0  0  0  0  0  0  0  0  0  0  0  0
   59.9133   34.4096   43.6402 H   0  0  0  0  0  0  0  0  0  0  0  0
   57.7836   33.1553   43.2857 H   0  0  0  0  0  0  0  0  0  0  0  0
   56.3386   32.5703   45.2372 H   0  0  0  0  0  0  0  0  0  0  0  0
   57.0231   33.2314   47.5439 H   0  0  0  0  0  0  0  0  0  0  0  0
  1  2  2  0
  2  3  1  0
  3  4  2  0
  4  5  1  0
  5  6  1  0
  6  7  1  0
  7  8  2  0
  8  9  1  0
  9 10  2  0
 10 11  1  0
 10 12  1  0
 12 13  2  0
 13 14  1  0
  4 15  1  0
 15 16  2  0
 15 17  1  0
 17 18  1  0
 18 19  1  0
 19 20  1  0
 20 21  2  0
 21 22  1  0
 22 23  2  0
 23 24  1  0
 24 25  2  0
 17  2  1  0
 25 20  1  0
 13  7  1  0
  5 26  1  0
  5 27  1  0
  6 28  1  0
  6 29  1  0
  8 30  1  0
  9 31  1  0
 12 32  1  0
 14 33  1  0
 18 34  1  0
 18 35  1  0
 19 36  1  0
 19 37  1  0
 21 38  1  0
 22 39  1  0
 23 40  1  0
 24 41  1  0
 25 42  1  0
M  CHG  1  11  -1
M  END
>  <UniqueID>  (48) 
44

>  <SMILES>  (48) 
O=C1N=C(CCc2ccc([O-])cc2O)C(=O)N1CCc1ccccc1

>  <Energy>  (48) 
65.29100550499479

>  <Genealogy>  (48) 
O=C1N=C(CCc2ccc([O-])cc2O)C(=O)N1CCc1ccccc1 (protonated)
O=C1N=C(CCc2ccc([O-])cc2O)C(=O)N1CCc1ccccc1 (3D coordinates assigned)
O=C1N=C(CCc2ccc([O-])cc2O)C(=O)N1CCc1ccccc1 (nonaromatic ring conformer: 65.29100550499479 kcal/mol)

>  <smiles>  (48) 
O=C1N=C(CCc2ccc(O)cc2O)C(=O)N1CCc1ccccc1

>  <score_type>  (48) 
oracle

>  <origin>  (48) 
adg

>  <m_score__min__energy>  (48) 
-12.029999999999999

>  <m_primary>  (48) 
energy

$$$$
48:0
     RDKit          3D

 59 63  0  0  0  0  0  0  0  0999 V2000
   55.1450   27.4730   45.4020 H   0  0  0  0  0  0  0  0  0  0  0  0
   55.0330   26.6910   46.0370 O   0  0  0  0  0  0  0  0  0  0  0  0
   55.9710   25.6660   46.1000 C   0  0  0  0  0  0  0  0  0  0  0  0
   55.8480   24.6040   46.9140 N   0  0  0  0  0  0  0  0  0  0  0  0
   56.9840   23.9140   46.6800 C   0  0  0  0  0  0  0  0  0  0  0  0
   57.2570   22.8360   47.2690 O   0  0  0  0  0  0  0  0  0  0  0  0
   57.8140   24.4790   45.7760 N   0  0  0  0  0  0  0  0  0  0  0  0
   57.1470   25.5800   45.3840 C   0  0  0  0  0  0  0  0  0  0  0  0
   57.6910   26.6060   44.4790 C   0  0  0  0  0  0  0  0  0  0  0  0
   58.0225   26.2750   43.4837 H   0  0  0  0  0  0  0  0  0  0  0  0
   57.8170   27.9160   44.7670 C   0  0  0  0  0  0  0  0  0  0  0  0
   57.0520   28.8950   44.1550 C   0  0  0  0  0  0  0  0  0  0  0  0
   56.3374   28.7491   43.3316 H   0  0  0  0  0  0  0  0  0  0  0  0
   57.3580   30.0880   44.7760 C   0  0  0  0  0  0  0  0  0  0  0  0
   56.7210   31.4040   44.4500 C   0  0  0  0  0  0  0  0  0  0  0  0
   56.4667   31.9293   45.3824 H   0  0  0  0  0  0  0  0  0  0  0  0
   57.4227   32.0159   43.8641 H   0  0  0  0  0  0  0  0  0  0  0  0
   55.8058   31.2332   43.8641 H   0  0  0  0  0  0  0  0  0  0  0  0
   58.3180   29.9000   45.7080 N   0  0  0  0  0  0  0  0  0  0  0  0
   58.8660   30.9160   46.5640 C   0  0  0  0  0  0  0  0  0  0  0  0
   59.0060   30.6700   47.9360 C   0  0  0  0  0  0  0  0  0  0  0  0
   58.7354   29.6854   48.3450 H   0  0  0  0  0  0  0  0  0  0  0  0
   59.4870   31.6670   48.7880 C   0  0  0  0  0  0  0  0  0  0  0  0
   59.5902   31.4630   49.8640 H   0  0  0  0  0  0  0  0  0  0  0  0
   59.8400   32.9290   48.2800 C   0  0  0  0  0  0  0  0  0  0  0  0
   60.2910   34.0110   49.1880 C   0  0  0  0  0  0  0  0  0  0  0  0
   59.5030   34.9450   49.4960 O   0  0  0  0  0  0  0  0  0  0  0  0
   61.6050   33.9940   49.7640 N   0  0  0  0  0  0  0  0  0  0  0  0
   62.7760   34.2900   48.9330 C   0  0  0  0  0  0  0  0  0  0  0  0
   62.5356   34.0819   47.8800 H   0  0  0  0  0  0  0  0  0  0  0  0
   63.0434   35.3499   49.0562 H   0  0  0  0  0  0  0  0  0  0  0  0
   63.9650   33.4230   49.3610 C   0  0  0  0  0  0  0  0  0  0  0  0
   63.8086   32.3993   48.9900 H   0  0  0  0  0  0  0  0  0  0  0  0
   64.8772   33.8678   48.9366 H   0  0  0  0  0  0  0  0  0  0  0  0
   64.1230   33.3780   50.8260 N   0  0  0  0  0  0  0  0  0  0  0  0
   65.2820   32.7350   51.4090 C   0  0  0  0  0  0  0  0  0  0  0  0
   65.4520   32.7500   52.6600 O   0  0  0  0  0  0  0  0  0  0  0  0
   66.3430   32.0970   50.5520 C   0  0  0  0  0  0  0  0  0  0  0  0
   65.6606   31.7684   49.7542 H   0  0  0  0  0  0  0  0  0  0  0  0
   67.4980   31.4530   51.3050 C   0  0  0  0  0  0  0  0  0  0  0  0
   67.4768   31.4008   52.4036 H   0  0  0  0  0  0  0  0  0  0  0  0
   68.0008   30.4753   51.2676 H   0  0  0  0  0  0  0  0  0  0  0  0
   67.6990   32.7890   50.6130 C   0  0  0  0  0  0  0  0  0  0  0  0
   67.8228   33.7045   51.2102 H   0  0  0  0  0  0  0  0  0  0  0  0
   68.4069   33.1796   49.8671 H   0  0  0  0  0  0  0  0  0  0  0  0
   63.1680   34.0970   51.6840 C   0  0  0  0  0  0  0  0  0  0  0  0
   63.2768   33.7451   52.7205 H   0  0  0  0  0  0  0  0  0  0  0  0
   63.3790   35.1749   51.6247 H   0  0  0  0  0  0  0  0  0  0  0  0
   61.7320   33.8480   51.2160 C   0  0  0  0  0  0  0  0  0  0  0  0
   61.4362   32.8271   51.4993 H   0  0  0  0  0  0  0  0  0  0  0  0
   61.0800   34.5932   51.6950 H   0  0  0  0  0  0  0  0  0  0  0  0
   59.7190   33.1640   46.8990 C   0  0  0  0  0  0  0  0  0  0  0  0
   60.0055   34.1422   46.4854 H   0  0  0  0  0  0  0  0  0  0  0  0
   59.2380   32.1660   46.0470 C   0  0  0  0  0  0  0  0  0  0  0  0
   59.1390   32.4130   44.7170 F   0  0  0  0  0  0  0  0  0  0  0  0
   58.6350   28.5810   45.6960 C   0  0  0  0  0  0  0  0  0  0  0  0
   59.6870   28.0760   46.3590 C   0  0  0  0  0  0  0  0  0  0  0  0
   60.2474   28.7074   47.0642 H   0  0  0  0  0  0  0  0  0  0  0  0
   59.9888   27.0307   46.1972 H   0  0  0  0  0  0  0  0  0  0  0  0
  1  2  1  0
  2  3  1  0
  3  4  1  0
  4  5  1  0
  5  6  2  0
  5  7  1  0
  7  8  1  0
  8  9  1  0
  9 10  1  0
  9 11  2  0
 11 12  1  0
 12 13  1  0
 12 14  2  0
 14 15  1  0
 15 16  1  0
 15 17  1  0
 15 18  1  0
 14 19  1  0
 19 20  1  0
 20 21  2  0
 21 22  1  0
 21 23  1  0
 23 24  1  0
 23 25  2  0
 25 26  1  0
 26 27  2  0
 26 28  1  0
 28 29  1  0
 29 30  1  0
 29 31  1  0
 29 32  1  0
 32 33  1  0
 32 34  1  0
 32 35  1  0
 35 36  1  0
 36 37  2  0
 36 38  1  0
 38 39  1  0
 38 40  1  0
 40 41  1  0
 40 42  1  0
 40 43  1  0
 43 44  1  0
 43 45  1  0
 35 46  1  0
 46 47  1  0
 46 48  1  0
 46 49  1  0
 49 50  1  0
 49 51  1  0
 25 52  1  0
 52 53  1  0
 52 54  2  0
 54 55  1  0
 19 56  1  0
 56 57  2  0
 57 58  1  0
 57 59  1  0
  8  3  2  0
 56 11  1  0
 54 20  1  0
 49 28  1  0
 43 38  1  0
M  CHG  2   4  -1   7  -1
M  END
>  <UniqueID>  (49) 
45

>  <SMILES>  (49) 
C=c1/c(=C\c2[n-]c(=O)[n-]c2O)cc(C)n1-c1ccc(C(=O)N2CCN(C(=O)C3CC3)CC2)cc1F

>  <Energy>  (49) 
406.7179878338971

>  <Genealogy>  (49) 
C=c1c(=Cc2[n-]c(=O)[n-]c2O)cc(C)n1-c1ccc(C(=O)N2CCN(C(=O)C3CC3)CC2)cc1F (protonated)
C=c1/c(=C\c2[n-]c(=O)[n-]c2O)cc(C)n1-c1ccc(C(=O)N2CCN(C(=O)C3CC3)CC2)cc1F (cis-trans isomerization)
C=c1/c(=C\c2[n-]c(=O)[n-]c2O)cc(C)n1-c1ccc(C(=O)N2CCN(C(=O)C3CC3)CC2)cc1F (3D coordinates assigned)
C=c1/c(=C\c2[n-]c(=O)[n-]c2O)cc(C)n1-c1ccc(C(=O)N2CCN(C(=O)C3CC3)CC2)cc1F (nonaromatic ring conformer: 406.7179878338971 kcal/mol)

>  <smiles>  (49) 
C=c1c(=Cc2[nH]c(=O)[nH]c2O)cc(C)n1-c1ccc(C(=O)N2CCN(C(=O)C3CC3)CC2)cc1F

>  <score_type>  (49) 
oracle

>  <origin>  (49) 
adg

>  <m_score__min__energy>  (49) 
-14.199999999999999

>  <m_primary>  (49) 
energy

$$$$
49:0
     RDKit          3D

 59 62  0  0  0  0  0  0  0  0999 V2000
   58.1410   26.5790   44.1300 C   0  0  0  0  0  0  0  0  0  0  0  0
   58.6700   27.1300   45.4280 C   0  0  0  0  0  0  0  0  0  0  0  0
   59.8730   26.6330   45.9640 C   0  0  0  0  0  0  0  0  0  0  0  0
   60.3600   27.1220   47.1780 C   0  0  0  0  0  0  0  0  0  0  0  0
   59.6630   28.1230   47.8590 C   0  0  0  0  0  0  0  0  0  0  0  0
   58.4690   28.6290   47.3360 C   0  0  0  0  0  0  0  0  0  0  0  0
   57.9520   28.1260   46.1270 C   0  0  0  0  0  0  0  0  0  0  0  0
   56.7100   28.6050   45.5940 N   0  0  0  0  0  0  0  0  0  0  0  0
   56.5870   29.8120   44.3390 S   0  0  0  0  0  0  0  0  0  0  0  0
   57.1700   29.2650   43.0620 O   0  0  0  0  0  0  0  0  0  0  0  0
   55.1370   30.1560   44.1180 O   0  0  0  0  0  0  0  0  0  0  0  0
   57.4300   31.2710   44.8540 C   0  0  0  0  0  0  0  0  0  0  0  0
   57.7570   32.2690   43.9280 C   0  0  0  0  0  0  0  0  0  0  0  0
   58.4870   33.3890   44.3320 C   0  0  0  0  0  0  0  0  0  0  0  0
   58.8850   33.5360   45.6740 C   0  0  0  0  0  0  0  0  0  0  0  0
   59.6930   34.7050   46.0980 C   0  0  0  0  0  0  0  0  0  0  0  0
   59.6220   35.7810   45.4440 O   0  0  0  0  0  0  0  0  0  0  0  0
   60.4790   34.6780   47.2940 N   0  0  0  0  0  0  0  0  0  0  0  0
   61.5570   33.7650   47.5540 C   0  0  0  0  0  0  0  0  0  0  0  0
   62.7460   33.8200   46.8040 C   0  0  0  0  0  0  0  0  0  0  0  0
   63.8030   32.9520   47.0890 C   0  0  0  0  0  0  0  0  0  0  0  0
   63.6900   32.0340   48.1360 C   0  0  0  0  0  0  0  0  0  0  0  0
   62.5180   31.9790   48.8920 C   0  0  0  0  0  0  0  0  0  0  0  0
   61.4470   32.8410   48.6100 C   0  0  0  0  0  0  0  0  0  0  0  0
   60.2300   32.7240   49.3640 N   0  0  0  0  0  0  0  0  0  0  0  0
   59.5210   31.4360   49.3280 C   0  0  0  0  0  0  0  0  0  0  0  0
   58.5030   31.2940   50.4550 C   0  0  0  0  0  0  0  0  0  0  0  0
   58.9800   32.0140   51.6450 N   0  0  0  0  0  0  0  0  0  0  0  0
   58.1470   31.6700   52.8100 C   0  0  0  0  0  0  0  0  0  0  0  0
   58.9090   33.4610   51.3850 C   0  0  0  0  0  0  0  0  0  0  0  0
   59.8080   33.8650   50.1940 C   0  0  0  0  0  0  0  0  0  0  0  0
   58.5500   32.5310   46.5990 C   0  0  0  0  0  0  0  0  0  0  0  0
   57.8210   31.4090   46.1910 C   0  0  0  0  0  0  0  0  0  0  0  0
   57.3932   25.8001   44.3400 H   0  0  0  0  0  0  0  0  0  0  0  0
   57.6738   27.3893   43.5510 H   0  0  0  0  0  0  0  0  0  0  0  0
   58.9696   26.1452   43.5510 H   0  0  0  0  0  0  0  0  0  0  0  0
   60.4325   25.8552   45.4236 H   0  0  0  0  0  0  0  0  0  0  0  0
   61.2931   26.7187   47.5984 H   0  0  0  0  0  0  0  0  0  0  0  0
   60.0546   28.5143   48.8095 H   0  0  0  0  0  0  0  0  0  0  0  0
   57.9307   29.4245   47.8722 H   0  0  0  0  0  0  0  0  0  0  0  0
   57.4382   32.1707   42.8798 H   0  0  0  0  0  0  0  0  0  0  0  0
   58.7529   34.1620   43.5959 H   0  0  0  0  0  0  0  0  0  0  0  0
   62.8441   34.5511   45.9880 H   0  0  0  0  0  0  0  0  0  0  0  0
   64.7241   32.9914   46.4890 H   0  0  0  0  0  0  0  0  0  0  0  0
   64.5245   31.3547   48.3645 H   0  0  0  0  0  0  0  0  0  0  0  0
   62.4331   31.2544   49.7152 H   0  0  0  0  0  0  0  0  0  0  0  0
   58.9951   31.3503   48.3656 H   0  0  0  0  0  0  0  0  0  0  0  0
   60.2700   30.6403   49.4539 H   0  0  0  0  0  0  0  0  0  0  0  0
   57.5396   31.7165   50.1334 H   0  0  0  0  0  0  0  0  0  0  0  0
   58.3752   30.2291   50.6995 H   0  0  0  0  0  0  0  0  0  0  0  0
   58.6978   31.8975   53.7346 H   0  0  0  0  0  0  0  0  0  0  0  0
   57.2177   32.2580   52.7827 H   0  0  0  0  0  0  0  0  0  0  0  0
   57.9034   30.5977   52.7827 H   0  0  0  0  0  0  0  0  0  0  0  0
   57.8680   33.7328   51.1559 H   0  0  0  0  0  0  0  0  0  0  0  0
   59.2628   33.9915   52.2813 H   0  0  0  0  0  0  0  0  0  0  0  0
   59.2501   34.5696   49.5598 H   0  0  0  0  0  0  0  0  0  0  0  0
   60.7197   34.3146   50.6143 H   0  0  0  0  0  0  0  0  0  0  0  0
   58.8630   32.6278   47.6491 H   0  0  0  0  0  0  0  0  0  0  0  0
   57.5541   30.6326   46.9232 H   0  0  0  0  0  0  0  0  0  0  0  0
  1  2  1  0
  2  3  2  0
  3  4  1  0
  4  5  2  0
  5  6  1  0
  6  7  2  0
  7  8  1  0
  8  9  1  0
  9 10  2  0
  9 11  2  0
  9 12  1  0
 12 13  2  0
 13 14  1  0
 14 15  2  0
 15 16  1  0
 16 17  2  0
 16 18  1  0
 18 19  1  0
 19 20  2  0
 20 21  1  0
 21 22  2  0
 22 23  1  0
 23 24  2  0
 24 25  1  0
 25 26  1  0
 26 27  1  0
 27 28  1  0
 28 29  1  0
 28 30  1  0
 30 31  1  0
 15 32  1  0
 32 33  2  0
  7  2  1  0
 33 12  1  0
 24 19  1  0
 31 25  1  0
  1 34  1  0
  1 35  1  0
  1 36  1  0
  3 37  1  0
  4 38  1  0
  5 39  1  0
  6 40  1  0
 13 41  1  0
 14 42  1  0
 20 43  1  0
 21 44  1  0
 22 45  1  0
 23 46  1  0
 26 47  1  0
 26 48  1  0
 27 49  1  0
 27 50  1  0
 29 51  1  0
 29 52  1  0
 29 53  1  0
 30 54  1  0
 30 55  1  0
 31 56  1  0
 31 57  1  0
 32 58  1  0
 33 59  1  0
M  CHG  2   8  -1  18  -1
M  END
>  <UniqueID>  (50) 
46

>  <SMILES>  (50) 
Cc1ccccc1[N-]S(=O)(=O)c1ccc(C(=O)[N-]c2ccccc2N2CCN(C)CC2)cc1

>  <Energy>  (50) 
83.16125511439489

>  <Genealogy>  (50) 
Cc1ccccc1[N-]S(=O)(=O)c1ccc(C(=O)[N-]c2ccccc2N2CCN(C)CC2)cc1 (protonated)
Cc1ccccc1[N-]S(=O)(=O)c1ccc(C(=O)[N-]c2ccccc2N2CCN(C)CC2)cc1 (3D coordinates assigned)
Cc1ccccc1[N-]S(=O)(=O)c1ccc(C(=O)[N-]c2ccccc2N2CCN(C)CC2)cc1 (nonaromatic ring conformer: 83.16125511439489 kcal/mol)

>  <smiles>  (50) 
Cc1ccccc1NS(=O)(=O)c1ccc(C(=O)Nc2ccccc2N2CCN(C)CC2)cc1

>  <score_type>  (50) 
oracle

>  <origin>  (50) 
adg

>  <m_score__min__energy>  (50) 
-12.23

>  <m_primary>  (50) 
energy

$$$$
50:0
     RDKit          3D

 50 52  0  0  0  0  0  0  0  0999 V2000
   60.4150   30.7440   46.4100 C   0  0  0  0  0  0  0  0  0  0  0  0
   59.2070   31.0400   45.8760 C   0  0  0  0  0  0  0  0  0  0  0  0
   58.7880   32.4010   45.8610 C   0  0  0  0  0  0  0  0  0  0  0  0
   59.5440   33.3830   46.5950 N   0  0  0  0  0  0  0  0  0  0  0  0
   59.4860   33.6070   48.0120 C   0  0  0  0  0  0  0  0  0  0  0  0
   59.2630   34.7750   48.4280 O   0  0  0  0  0  0  0  0  0  0  0  0
   59.6540   32.5140   48.9970 C   0  0  0  0  0  0  0  0  0  0  0  0
   58.5230   31.7680   49.3700 C   0  0  0  0  0  0  0  0  0  0  0  0
   58.6410   30.6890   50.2460 C   0  0  0  0  0  0  0  0  0  0  0  0
   59.8880   30.3490   50.7690 C   0  0  0  0  0  0  0  0  0  0  0  0
   61.0150   31.1040   50.4410 C   0  0  0  0  0  0  0  0  0  0  0  0
   60.9100   32.2070   49.5730 C   0  0  0  0  0  0  0  0  0  0  0  0
   62.0400   33.0560   49.3100 N   0  0  0  0  0  0  0  0  0  0  0  0
   63.2230   32.7950   48.0700 S   0  0  0  0  0  0  0  0  0  0  0  0
   62.8870   33.8700   46.6950 C   0  0  0  0  0  0  0  0  0  0  0  0
   63.1680   31.3660   47.6070 O   0  0  0  0  0  0  0  0  0  0  0  0
   64.5960   33.1110   48.5960 O   0  0  0  0  0  0  0  0  0  0  0  0
   57.6630   32.7860   45.0970 C   0  0  0  0  0  0  0  0  0  0  0  0
   57.2840   34.2260   44.8750 C   0  0  0  0  0  0  0  0  0  0  0  0
   56.8710   31.8060   44.5020 C   0  0  0  0  0  0  0  0  0  0  0  0
   57.1910   30.4610   44.6210 C   0  0  0  0  0  0  0  0  0  0  0  0
   58.3550   30.0350   45.2990 C   0  0  0  0  0  0  0  0  0  0  0  0
   58.5930   28.7040   45.4580 C   0  0  0  0  0  0  0  0  0  0  0  0
   57.5970   27.6940   45.8760 C   0  0  0  0  0  0  0  0  0  0  0  0
   56.2710   27.7940   45.6280 N   0  0  0  0  0  0  0  0  0  0  0  0
   55.7420   26.6320   46.0570 C   0  0  0  0  0  0  0  0  0  0  0  0
   54.3860   26.3390   45.9820 O   0  0  0  0  0  0  0  0  0  0  0  0
   56.7090   25.7870   46.5550 C   0  0  0  0  0  0  0  0  0  0  0  0
   56.5040   24.4560   47.0630 C   0  0  0  0  0  0  0  0  0  0  0  0
   56.3390   23.3870   47.4730 N   0  0  0  0  0  0  0  0  0  0  0  0
   57.9050   26.4640   46.4400 C   0  0  0  0  0  0  0  0  0  0  0  0
   59.2720   25.9470   46.7750 C   0  0  0  0  0  0  0  0  0  0  0  0
   60.7647   29.7014   46.4351 H   0  0  0  0  0  0  0  0  0  0  0  0
   61.0471   31.5461   46.8189 H   0  0  0  0  0  0  0  0  0  0  0  0
   57.5354   32.0375   48.9674 H   0  0  0  0  0  0  0  0  0  0  0  0
   57.7504   30.1064   50.5242 H   0  0  0  0  0  0  0  0  0  0  0  0
   59.9837   29.4838   51.4416 H   0  0  0  0  0  0  0  0  0  0  0  0
   61.9938   30.8347   50.8645 H   0  0  0  0  0  0  0  0  0  0  0  0
   62.5783   34.8575   47.0685 H   0  0  0  0  0  0  0  0  0  0  0  0
   63.7946   33.9768   46.0828 H   0  0  0  0  0  0  0  0  0  0  0  0
   62.0801   33.4409   46.0828 H   0  0  0  0  0  0  0  0  0  0  0  0
   57.1528   34.7246   45.8467 H   0  0  0  0  0  0  0  0  0  0  0  0
   58.0797   34.7314   44.3081 H   0  0  0  0  0  0  0  0  0  0  0  0
   56.3426   34.2742   44.3081 H   0  0  0  0  0  0  0  0  0  0  0  0
   55.9796   32.1027   43.9299 H   0  0  0  0  0  0  0  0  0  0  0  0
   56.5226   29.7087   44.1769 H   0  0  0  0  0  0  0  0  0  0  0  0
   59.6148   28.3491   45.2582 H   0  0  0  0  0  0  0  0  0  0  0  0
   59.3896   25.9025   47.8678 H   0  0  0  0  0  0  0  0  0  0  0  0
   59.3969   24.9395   46.3515 H   0  0  0  0  0  0  0  0  0  0  0  0
   60.0324   26.6197   46.3515 H   0  0  0  0  0  0  0  0  0  0  0  0
  1  2  2  0
  2  3  1  0
  3  4  1  0
  4  5  1  0
  5  6  2  0
  5  7  1  0
  7  8  2  0
  8  9  1  0
  9 10  2  0
 10 11  1  0
 11 12  2  0
 12 13  1  0
 13 14  1  0
 14 15  1  0
 14 16  2  0
 14 17  2  0
  3 18  2  0
 18 19  1  0
 18 20  1  0
 20 21  2  0
 21 22  1  0
 22 23  2  3
 23 24  1  0
 24 25  1  0
 25 26  1  0
 26 27  1  0
 26 28  2  0
 28 29  1  0
 29 30  3  0
 28 31  1  0
 31 32  1  0
 22  2  1  0
 31 24  2  0
 12  7  1  0
  1 33  1  0
  1 34  1  0
  8 35  1  0
  9 36  1  0
 10 37  1  0
 11 38  1  0
 15 39  1  0
 15 40  1  0
 15 41  1  0
 19 42  1  0
 19 43  1  0
 19 44  1  0
 20 45  1  0
 21 46  1  0
 23 47  1  0
 32 48  1  0
 32 49  1  0
 32 50  1  0
M  CHG  4   4  -1  13  -1  25  -1  27  -1
M  END
>  <UniqueID>  (51) 
47

>  <SMILES>  (51) 
C=c1c([N-]C(=O)c2ccccc2[N-]S(C)(=O)=O)c(C)ccc1=Cc1[n-]c([O-])c(C#N)c1C

>  <Energy>  (51) 
103.95105339764075

>  <Genealogy>  (51) 
C=c1c([N-]C(=O)c2ccccc2[N-]S(C)(=O)=O)c(C)ccc1=Cc1[n-]c([O-])c(C#N)c1C (protonated)
C=c1c([N-]C(=O)c2ccccc2[N-]S(C)(=O)=O)c(C)ccc1=Cc1[n-]c([O-])c(C#N)c1C (3D coordinates assigned)
C=c1c([N-]C(=O)c2ccccc2[N-]S(C)(=O)=O)c(C)ccc1=Cc1[n-]c([O-])c(C#N)c1C (optimized conformer: 103.95105339764075 kcal/mol)

>  <smiles>  (51) 
C=c1c(NC(=O)c2ccccc2NS(C)(=O)=O)c(C)ccc1=Cc1[nH]c(O)c(C#N)c1C

>  <score_type>  (51) 
oracle

>  <origin>  (51) 
adg

>  <m_score__min__energy>  (51) 
-17.239999999999998

>  <m_primary>  (51) 
energy

$$$$
51:0
     RDKit          3D

 48 50  0  0  0  0  0  0  0  0999 V2000
   63.4830   32.9170   47.0850 C   0  0  0  0  0  0  0  0  0  0  0  0
   62.2750   33.2290   47.7710 O   0  0  0  0  0  0  0  0  0  0  0  0
   61.3080   32.2830   48.1430 C   0  0  0  0  0  0  0  0  0  0  0  0
   60.2980   32.5670   49.0810 C   0  0  0  0  0  0  0  0  0  0  0  0
   59.3620   31.5890   49.4230 C   0  0  0  0  0  0  0  0  0  0  0  0
   59.4170   30.3220   48.8360 C   0  0  0  0  0  0  0  0  0  0  0  0
   58.4780   29.3630   49.2000 O   0  0  0  0  0  0  0  0  0  0  0  0
   60.4130   30.0280   47.8860 C   0  0  0  0  0  0  0  0  0  0  0  0
   60.5160   28.6580   47.2610 C   0  0  0  0  0  0  0  0  0  0  0  0
   59.6700   28.5500   46.0180 C   0  0  0  0  0  0  0  0  0  0  0  0
   60.0620   29.0880   44.9460 O   0  0  0  0  0  0  0  0  0  0  0  0
   58.3190   27.9390   46.0630 C   0  0  0  0  0  0  0  0  0  0  0  0
   57.2110   28.5470   45.4250 C   0  0  0  0  0  0  0  0  0  0  0  0
   57.2960   29.8720   44.7690 C   0  0  0  0  0  0  0  0  0  0  0  0
   57.2540   29.9850   43.3710 C   0  0  0  0  0  0  0  0  0  0  0  0
   57.3560   31.2380   42.7650 C   0  0  0  0  0  0  0  0  0  0  0  0
   57.5090   32.3850   43.5450 C   0  0  0  0  0  0  0  0  0  0  0  0
   57.5650   32.2940   44.9450 C   0  0  0  0  0  0  0  0  0  0  0  0
   57.7310   33.4980   45.7170 N   0  0  0  0  0  0  0  0  0  0  0  0
   59.2240   34.3720   45.8620 S   0  0  0  0  0  0  0  0  0  0  0  0
   59.3670   35.0820   47.4900 C   0  0  0  0  0  0  0  0  0  0  0  0
   60.3850   33.4610   45.5820 O   0  0  0  0  0  0  0  0  0  0  0  0
   59.2330   35.4870   44.8540 O   0  0  0  0  0  0  0  0  0  0  0  0
   57.4730   31.0260   45.5500 C   0  0  0  0  0  0  0  0  0  0  0  0
   56.0120   27.9070   45.4130 N   0  0  0  0  0  0  0  0  0  0  0  0
   55.8430   26.7010   46.0120 C   0  0  0  0  0  0  0  0  0  0  0  0
   54.6880   26.1190   45.9930 N   0  0  0  0  0  0  0  0  0  0  0  0
   56.8880   26.1030   46.6330 N   0  0  0  0  0  0  0  0  0  0  0  0
   58.1150   26.6830   46.6670 C   0  0  0  0  0  0  0  0  0  0  0  0
   59.0660   26.0690   47.2200 O   0  0  0  0  0  0  0  0  0  0  0  0
   61.3590   31.0140   47.5560 C   0  0  0  0  0  0  0  0  0  0  0  0
   64.2779   32.7117   47.8171 H   0  0  0  0  0  0  0  0  0  0  0  0
   63.3276   32.0295   46.4539 H   0  0  0  0  0  0  0  0  0  0  0  0
   63.7768   33.7687   46.4539 H   0  0  0  0  0  0  0  0  0  0  0  0
   60.2458   33.5625   49.5461 H   0  0  0  0  0  0  0  0  0  0  0  0
   58.5768   31.8171   50.1588 H   0  0  0  0  0  0  0  0  0  0  0  0
   61.5659   28.4645   46.9961 H   0  0  0  0  0  0  0  0  0  0  0  0
   60.1521   27.9190   47.9901 H   0  0  0  0  0  0  0  0  0  0  0  0
   57.1404   29.0835   42.7510 H   0  0  0  0  0  0  0  0  0  0  0  0
   57.3157   31.3218   41.6689 H   0  0  0  0  0  0  0  0  0  0  0  0
   57.5864   33.3687   43.0589 H   0  0  0  0  0  0  0  0  0  0  0  0
   56.9330   33.8360   46.3000 H   0  0  0  0  0  0  0  0  0  0  0  0
   59.2093   34.2992   48.2466 H   0  0  0  0  0  0  0  0  0  0  0  0
   60.3704   35.5152   47.6142 H   0  0  0  0  0  0  0  0  0  0  0  0
   58.6095   35.8699   47.6142 H   0  0  0  0  0  0  0  0  0  0  0  0
   57.5404   30.9382   46.6444 H   0  0  0  0  0  0  0  0  0  0  0  0
   53.8280   26.6020   46.3340 H   0  0  0  0  0  0  0  0  0  0  0  0
   62.1499   30.7848   46.8266 H   0  0  0  0  0  0  0  0  0  0  0  0
  1  2  1  0
  2  3  1  0
  3  4  2  0
  4  5  1  0
  5  6  2  0
  6  7  1  0
  6  8  1  0
  8  9  1  0
  9 10  1  0
 10 11  2  0
 10 12  1  0
 12 13  2  0
 13 14  1  0
 14 15  2  0
 15 16  1  0
 16 17  2  0
 17 18  1  0
 18 19  1  0
 19 20  1  0
 20 21  1  0
 20 22  2  0
 20 23  2  0
 18 24  2  0
 13 25  1  0
 25 26  1  0
 26 27  2  3
 26 28  1  0
 28 29  1  0
 29 30  2  0
  8 31  2  0
 31  3  1  0
 29 12  1  0
 24 14  1  0
  1 32  1  0
  1 33  1  0
  1 34  1  0
  4 35  1  0
  5 36  1  0
  9 37  1  0
  9 38  1  0
 15 39  1  0
 16 40  1  0
 17 41  1  0
 19 42  1  0
 21 43  1  0
 21 44  1  0
 21 45  1  0
 24 46  1  0
 27 47  1  0
 31 48  1  0
M  CHG  3   7  -1  25  -1  28  -1
M  END
>  <UniqueID>  (52) 
48

>  <SMILES>  (52) 
COc1ccc([O-])c(CC(=O)c2c(-c3cccc(NS(C)(=O)=O)c3)[n-]c(=N)[n-]c2=O)c1

>  <Energy>  (52) 
62.631613920341735

>  <Genealogy>  (52) 
COc1ccc([O-])c(CC(=O)c2c(-c3cccc(NS(C)(=O)=O)c3)[n-]c(=N)[n-]c2=O)c1 (protonated)
COc1ccc([O-])c(CC(=O)c2c(-c3cccc(NS(C)(=O)=O)c3)[n-]c(=N)[n-]c2=O)c1 (3D coordinates assigned)
COc1ccc([O-])c(CC(=O)c2c(-c3cccc(NS(C)(=O)=O)c3)[n-]c(=N)[n-]c2=O)c1 (optimized conformer: 62.631613920341735 kcal/mol)

>  <smiles>  (52) 
COc1ccc(O)c(CC(=O)c2c(-c3cccc(NS(C)(=O)=O)c3)[nH]c(=N)[nH]c2=O)c1

>  <score_type>  (52) 
oracle

>  <origin>  (52) 
adg

>  <m_score__min__energy>  (52) 
-14.17

>  <m_primary>  (52) 
energy

$$$$
52:0
     RDKit          3D

 53 56  0  0  0  0  0  0  0  0999 V2000
   58.9994   36.0118   45.6142 H   0  0  0  0  0  0  0  0  0  0  0  0
   59.0480   34.9370   45.8430 C   0  0  0  0  0  0  0  0  0  0  0  0
   59.8080   34.5000   46.8790 N   0  0  0  0  0  0  0  0  0  0  0  0
   59.9100   33.1830   47.2010 C   0  0  0  0  0  0  0  0  0  0  0  0
   60.6610   32.8570   48.2180 N   0  0  0  0  0  0  0  0  0  0  0  0
   60.4320   31.8200   49.2270 C   0  0  0  0  0  0  0  0  0  0  0  0
   61.3948   31.5479   49.6842 H   0  0  0  0  0  0  0  0  0  0  0  0
   59.9737   30.9520   48.7305 H   0  0  0  0  0  0  0  0  0  0  0  0
   59.4920   32.2960   50.3100 C   0  0  0  0  0  0  0  0  0  0  0  0
   59.6630   33.5460   50.9340 C   0  0  0  0  0  0  0  0  0  0  0  0
   60.4699   34.2160   50.6023 H   0  0  0  0  0  0  0  0  0  0  0  0
   58.8150   33.9420   51.9720 C   0  0  0  0  0  0  0  0  0  0  0  0
   58.9498   34.9254   52.4460 H   0  0  0  0  0  0  0  0  0  0  0  0
   57.7960   33.0910   52.4090 C   0  0  0  0  0  0  0  0  0  0  0  0
   57.1304   33.4060   53.2261 H   0  0  0  0  0  0  0  0  0  0  0  0
   57.6210   31.8390   51.8090 C   0  0  0  0  0  0  0  0  0  0  0  0
   56.3630   30.7470   52.3770 S   0  0  0  0  0  0  0  0  0  0  0  0
   56.7280   29.3250   52.0530 O   0  0  0  0  0  0  0  0  0  0  0  0
   56.2180   30.8800   53.8680 O   0  0  0  0  0  0  0  0  0  0  0  0
   54.8660   31.1470   51.6100 N   0  0  0  0  0  0  0  0  0  0  0  0
   54.5680   32.0750   51.9880 H   0  0  0  0  0  0  0  0  0  0  0  0
   55.0730   31.2860   50.5950 H   0  0  0  0  0  0  0  0  0  0  0  0
   58.4730   31.4430   50.7690 C   0  0  0  0  0  0  0  0  0  0  0  0
   58.3429   30.4534   50.3066 H   0  0  0  0  0  0  0  0  0  0  0  0
   59.2000   32.2320   46.4340 C   0  0  0  0  0  0  0  0  0  0  0  0
   59.2790   31.1613   46.6736 H   0  0  0  0  0  0  0  0  0  0  0  0
   58.3930   32.6560   45.3650 C   0  0  0  0  0  0  0  0  0  0  0  0
   57.6390   31.6610   44.5610 C   0  0  0  0  0  0  0  0  0  0  0  0
   57.0980   30.5690   45.1750 N   0  0  0  0  0  0  0  0  0  0  0  0
   56.3940   29.6210   44.4930 C   0  0  0  0  0  0  0  0  0  0  0  0
   55.8930   28.5880   45.1040 N   0  0  0  0  0  0  0  0  0  0  0  0
   56.6670   27.4880   45.6790 C   0  0  0  0  0  0  0  0  0  0  0  0
   56.1865   27.1634   46.6137 H   0  0  0  0  0  0  0  0  0  0  0  0
   56.6956   26.6671   44.9473 H   0  0  0  0  0  0  0  0  0  0  0  0
   58.0870   27.9060   45.9770 C   0  0  0  0  0  0  0  0  0  0  0  0
   58.4140   28.3910   47.2560 C   0  0  0  0  0  0  0  0  0  0  0  0
   57.6453   28.4211   48.0423 H   0  0  0  0  0  0  0  0  0  0  0  0
   59.7100   28.8350   47.5340 C   0  0  0  0  0  0  0  0  0  0  0  0
   59.9571   29.2142   48.5366 H   0  0  0  0  0  0  0  0  0  0  0  0
   60.6920   28.7980   46.5410 C   0  0  0  0  0  0  0  0  0  0  0  0
   61.7155   29.1322   46.7663 H   0  0  0  0  0  0  0  0  0  0  0  0
   60.3730   28.3360   45.2610 C   0  0  0  0  0  0  0  0  0  0  0  0
   61.1461   28.3112   44.4789 H   0  0  0  0  0  0  0  0  0  0  0  0
   59.0740   27.9050   44.9710 C   0  0  0  0  0  0  0  0  0  0  0  0
   58.7810   27.4950   43.7100 F   0  0  0  0  0  0  0  0  0  0  0  0
   56.2050   29.7600   43.1140 C   0  0  0  0  0  0  0  0  0  0  0  0
   55.6423   29.0002   42.5519 H   0  0  0  0  0  0  0  0  0  0  0  0
   56.7360   30.8700   42.4580 C   0  0  0  0  0  0  0  0  0  0  0  0
   56.5901   30.9906   41.3744 H   0  0  0  0  0  0  0  0  0  0  0  0
   57.4520   31.8270   43.1760 C   0  0  0  0  0  0  0  0  0  0  0  0
   57.8682   32.7065   42.6630 H   0  0  0  0  0  0  0  0  0  0  0  0
   58.3290   34.0290   45.0680 C   0  0  0  0  0  0  0  0  0  0  0  0
   57.7143   34.3846   44.2279 H   0  0  0  0  0  0  0  0  0  0  0  0
  1  2  1  0
  2  3  1  0
  3  4  1  0
  4  5  2  3
  5  6  1  0
  6  7  1  0
  6  8  1  0
  6  9  1  0
  9 10  2  0
 10 11  1  0
 10 12  1  0
 12 13  1  0
 12 14  2  0
 14 15  1  0
 14 16  1  0
 16 17  1  0
 17 18  2  0
 17 19  2  0
 17 20  1  0
 20 21  1  0
 20 22  1  0
 16 23  2  0
 23 24  1  0
  4 25  1  0
 25 26  1  0
 25 27  2  0
 27 28  1  0
 28 29  1  0
 29 30  1  0
 30 31  2  0
 31 32  1  0
 32 33  1  0
 32 34  1  0
 32 35  1  0
 35 36  2  0
 36 37  1  0
 36 38  1  0
 38 39  1  0
 38 40  2  0
 40 41  1  0
 40 42  1  0
 42 43  1  0
 42 44  2  0
 44 45  1  0
 30 46  1  0
 46 47  1  0
 46 48  2  0
 48 49  1  0
 48 50  1  0
 50 51  1  0
 27 52  1  0
 52 53  1  0
 52  2  2  0
 23  9  1  0
 50 28  2  0
 44 35  1  0
M  CHG  2   3  -1  29  -1
M  END
>  <UniqueID>  (53) 
49

>  <SMILES>  (53) 
NS(=O)(=O)c1cccc(CN=c2cc(-c3ccc/c(=N/Cc4ccccc4F)[n-]3)cc[n-]2)c1

>  <Energy>  (53) 
62.43735088393219

>  <Genealogy>  (53) 
NS(=O)(=O)c1cccc(CN=c2cc(-c3cccc(=NCc4ccccc4F)[n-]3)cc[n-]2)c1 (protonated)
NS(=O)(=O)c1cccc(CN=c2cc(-c3ccc/c(=N/Cc4ccccc4F)[n-]3)cc[n-]2)c1 (cis-trans isomerization)
NS(=O)(=O)c1cccc(CN=c2cc(-c3ccc/c(=N/Cc4ccccc4F)[n-]3)cc[n-]2)c1 (3D coordinates assigned)
NS(=O)(=O)c1cccc(CN=c2cc(-c3ccc/c(=N/Cc4ccccc4F)[n-]3)cc[n-]2)c1 (optimized conformer: 62.43735088393219 kcal/mol)

>  <smiles>  (53) 
NS(=O)(=O)c1cccc(CN=c2cc(-c3cccc(=NCc4ccccc4F)[nH]3)cc[nH]2)c1

>  <score_type>  (53) 
oracle

>  <origin>  (53) 
adg

>  <m_score__min__energy>  (53) 
-13.449999999999999

>  <m_primary>  (53) 
energy

$$$$
53:0
     RDKit          3D

 49 51  0  0  0  0  0  0  0  0999 V2000
   63.0270   33.4850   51.8830 C   0  0  0  0  0  0  0  0  0  0  0  0
   64.3050   32.7730   51.9930 N   0  0  0  0  0  0  0  0  0  0  0  0
   65.4180   33.7280   51.9430 C   0  0  0  0  0  0  0  0  0  0  0  0
   64.4570   31.6390   50.6750 S   0  0  0  0  0  0  0  0  0  0  0  0
   63.7210   30.3700   51.0080 O   0  0  0  0  0  0  0  0  0  0  0  0
   65.9050   31.3040   50.4430 O   0  0  0  0  0  0  0  0  0  0  0  0
   63.7580   32.3250   49.2110 C   0  0  0  0  0  0  0  0  0  0  0  0
   64.3330   33.4510   48.6060 C   0  0  0  0  0  0  0  0  0  0  0  0
   63.7540   34.0040   47.4620 C   0  0  0  0  0  0  0  0  0  0  0  0
   62.6040   33.4350   46.9110 C   0  0  0  0  0  0  0  0  0  0  0  0
   62.0240   32.2970   47.4960 C   0  0  0  0  0  0  0  0  0  0  0  0
   60.8290   31.7400   46.9240 N   0  0  0  0  0  0  0  0  0  0  0  0
   59.7300   32.5320   46.4420 C   0  0  0  0  0  0  0  0  0  0  0  0
   59.5900   33.7190   46.8480 O   0  0  0  0  0  0  0  0  0  0  0  0
   58.7270   31.9570   45.5140 C   0  0  0  0  0  0  0  0  0  0  0  0
   58.3320   32.6710   44.3680 C   0  0  0  0  0  0  0  0  0  0  0  0
   57.3960   32.1300   43.4840 C   0  0  0  0  0  0  0  0  0  0  0  0
   56.8430   30.8730   43.7300 C   0  0  0  0  0  0  0  0  0  0  0  0
   57.2140   30.1500   44.8750 C   0  0  0  0  0  0  0  0  0  0  0  0
   56.6800   28.8450   45.1490 N   0  0  0  0  0  0  0  0  0  0  0  0
   57.2580   27.5930   44.7540 C   0  0  0  0  0  0  0  0  0  0  0  0
   57.8940   27.5380   43.6690 O   0  0  0  0  0  0  0  0  0  0  0  0
   57.1570   26.3780   45.5950 C   0  0  0  0  0  0  0  0  0  0  0  0
   58.3070   25.6170   45.8580 C   0  0  0  0  0  0  0  0  0  0  0  0
   58.2230   24.4610   46.6330 C   0  0  0  0  0  0  0  0  0  0  0  0
   56.9870   24.0770   47.1560 C   0  0  0  0  0  0  0  0  0  0  0  0
   56.8930   23.0340   47.8550 O   0  0  0  0  0  0  0  0  0  0  0  0
   55.8840   24.8320   46.9160 N   0  0  0  0  0  0  0  0  0  0  0  0
   55.9360   25.9640   46.1650 C   0  0  0  0  0  0  0  0  0  0  0  0
   54.7770   26.7130   45.9900 O   0  0  0  0  0  0  0  0  0  0  0  0
   58.1700   30.6860   45.7480 C   0  0  0  0  0  0  0  0  0  0  0  0
   62.5990   31.7590   48.6630 C   0  0  0  0  0  0  0  0  0  0  0  0
   62.6397   33.7008   52.8897 H   0  0  0  0  0  0  0  0  0  0  0  0
   63.1787   34.4286   51.3384 H   0  0  0  0  0  0  0  0  0  0  0  0
   62.3044   32.8594   51.3384 H   0  0  0  0  0  0  0  0  0  0  0  0
   65.7229   33.9896   52.9670 H   0  0  0  0  0  0  0  0  0  0  0  0
   66.2676   33.2735   51.4123 H   0  0  0  0  0  0  0  0  0  0  0  0
   65.0978   34.6367   51.4123 H   0  0  0  0  0  0  0  0  0  0  0  0
   65.2419   33.8998   49.0331 H   0  0  0  0  0  0  0  0  0  0  0  0
   64.2053   34.8909   46.9933 H   0  0  0  0  0  0  0  0  0  0  0  0
   62.1496   33.8804   46.0137 H   0  0  0  0  0  0  0  0  0  0  0  0
   60.7010   30.7040   46.9750 H   0  0  0  0  0  0  0  0  0  0  0  0
   58.7635   33.6626   44.1668 H   0  0  0  0  0  0  0  0  0  0  0  0
   57.0938   32.6967   42.5910 H   0  0  0  0  0  0  0  0  0  0  0  0
   56.1141   30.4470   43.0248 H   0  0  0  0  0  0  0  0  0  0  0  0
   59.2785   25.9341   45.4509 H   0  0  0  0  0  0  0  0  0  0  0  0
   59.1214   23.8578   46.8303 H   0  0  0  0  0  0  0  0  0  0  0  0
   58.4889   30.1064   46.6268 H   0  0  0  0  0  0  0  0  0  0  0  0
   62.1350   30.8877   49.1484 H   0  0  0  0  0  0  0  0  0  0  0  0
  1  2  1  0
  2  3  1  0
  2  4  1  0
  4  5  2  0
  4  6  2  0
  4  7  1  0
  7  8  2  0
  8  9  1  0
  9 10  2  0
 10 11  1  0
 11 12  1  0
 12 13  1  0
 13 14  2  0
 13 15  1  0
 15 16  2  0
 16 17  1  0
 17 18  2  0
 18 19  1  0
 19 20  1  0
 20 21  1  0
 21 22  2  0
 21 23  1  0
 23 24  1  0
 24 25  2  0
 25 26  1  0
 26 27  2  0
 26 28  1  0
 28 29  1  0
 29 30  1  0
 19 31  2  0
 11 32  2  0
 32  7  1  0
 31 15  1  0
 29 23  2  0
  1 33  1  0
  1 34  1  0
  1 35  1  0
  3 36  1  0
  3 37  1  0
  3 38  1  0
  8 39  1  0
  9 40  1  0
 10 41  1  0
 12 42  1  0
 16 43  1  0
 17 44  1  0
 18 45  1  0
 24 46  1  0
 25 47  1  0
 31 48  1  0
 32 49  1  0
M  CHG  3  20  -1  28  -1  30  -1
M  END
>  <UniqueID>  (54) 
50

>  <SMILES>  (54) 
CN(C)S(=O)(=O)c1cccc(NC(=O)c2cccc([N-]C(=O)c3ccc(=O)[n-]c3[O-])c2)c1

>  <Energy>  (54) 
64.2494581782091

>  <Genealogy>  (54) 
CN(C)S(=O)(=O)c1cccc(NC(=O)c2cccc([N-]C(=O)c3ccc(=O)[n-]c3[O-])c2)c1 (protonated)
CN(C)S(=O)(=O)c1cccc(NC(=O)c2cccc([N-]C(=O)c3ccc(=O)[n-]c3[O-])c2)c1 (3D coordinates assigned)
CN(C)S(=O)(=O)c1cccc(NC(=O)c2cccc([N-]C(=O)c3ccc(=O)[n-]c3[O-])c2)c1 (optimized conformer: 64.2494581782091 kcal/mol)

>  <smiles>  (54) 
CN(C)S(=O)(=O)c1cccc(NC(=O)c2cccc(NC(=O)c3ccc(=O)[nH]c3O)c2)c1

>  <score_type>  (54) 
oracle

>  <origin>  (54) 
adg

>  <m_score__min__energy>  (54) 
-17.600000000000001

>  <m_primary>  (54) 
energy

$$$$
54:0
     RDKit          3D

 42 45  0  0  0  0  0  0  0  0999 V2000
   60.9270   26.3560   48.1680 O   0  0  0  0  0  0  0  0  0  0  0  0
   60.5000   27.4120   47.6260 C   0  0  0  0  0  0  0  0  0  0  0  0
   60.0640   27.3500   46.1860 C   0  0  0  0  0  0  0  0  0  0  0  0
   58.5860   27.0760   46.1050 C   0  0  0  0  0  0  0  0  0  0  0  0
   58.0580   25.8390   46.5300 C   0  0  0  0  0  0  0  0  0  0  0  0
   56.6720   25.5950   46.4820 C   0  0  0  0  0  0  0  0  0  0  0  0
   55.7900   26.5850   46.0190 C   0  0  0  0  0  0  0  0  0  0  0  0
   54.4220   26.3410   45.9760 O   0  0  0  0  0  0  0  0  0  0  0  0
   56.3100   27.8140   45.6100 C   0  0  0  0  0  0  0  0  0  0  0  0
   55.5570   28.8490   45.1560 N   0  0  0  0  0  0  0  0  0  0  0  0
   56.3410   29.9060   44.8450 C   0  0  0  0  0  0  0  0  0  0  0  0
   55.8820   30.9900   44.4020 O   0  0  0  0  0  0  0  0  0  0  0  0
   57.9830   29.6140   45.1130 S   0  0  0  0  0  0  0  0  0  0  0  0
   57.6800   28.0480   45.6560 C   0  0  0  0  0  0  0  0  0  0  0  0
   60.4270   28.6310   48.3970 N   0  0  0  0  0  0  0  0  0  0  0  0
   60.9520   28.6880   49.7700 C   0  0  0  0  0  0  0  0  0  0  0  0
   60.4020   29.8460   50.5650 C   0  0  0  0  0  0  0  0  0  0  0  0
   59.5010   30.7210   50.0800 C   0  0  0  0  0  0  0  0  0  0  0  0
   58.9940   31.8300   50.9320 C   0  0  0  0  0  0  0  0  0  0  0  0
   57.7490   31.7180   51.5790 C   0  0  0  0  0  0  0  0  0  0  0  0
   57.2660   32.7620   52.3730 C   0  0  0  0  0  0  0  0  0  0  0  0
   58.0160   33.9300   52.5280 C   0  0  0  0  0  0  0  0  0  0  0  0
   59.2490   34.0580   51.8860 C   0  0  0  0  0  0  0  0  0  0  0  0
   59.7370   33.0170   51.0910 C   0  0  0  0  0  0  0  0  0  0  0  0
   58.9250   30.5280   48.6980 C   0  0  0  0  0  0  0  0  0  0  0  0
   59.9360   29.8630   47.7730 C   0  0  0  0  0  0  0  0  0  0  0  0
   60.2833   28.3110   45.6977 H   0  0  0  0  0  0  0  0  0  0  0  0
   60.6089   26.5400   45.6791 H   0  0  0  0  0  0  0  0  0  0  0  0
   58.7359   25.0570   46.9027 H   0  0  0  0  0  0  0  0  0  0  0  0
   56.2772   24.6219   46.8095 H   0  0  0  0  0  0  0  0  0  0  0  0
   60.6879   27.7526   50.2851 H   0  0  0  0  0  0  0  0  0  0  0  0
   62.0411   28.8255   49.6998 H   0  0  0  0  0  0  0  0  0  0  0  0
   60.7564   29.9830   51.5973 H   0  0  0  0  0  0  0  0  0  0  0  0
   57.1517   30.8021   51.4589 H   0  0  0  0  0  0  0  0  0  0  0  0
   56.2932   32.6635   52.8769 H   0  0  0  0  0  0  0  0  0  0  0  0
   57.6352   34.7490   53.1559 H   0  0  0  0  0  0  0  0  0  0  0  0
   59.8375   34.9796   52.0060 H   0  0  0  0  0  0  0  0  0  0  0  0
   60.7081   33.1250   50.5857 H   0  0  0  0  0  0  0  0  0  0  0  0
   58.0291   29.8936   48.7671 H   0  0  0  0  0  0  0  0  0  0  0  0
   58.6679   31.5144   48.2847 H   0  0  0  0  0  0  0  0  0  0  0  0
   59.4538   29.6222   46.8141 H   0  0  0  0  0  0  0  0  0  0  0  0
   60.7788   30.5473   47.5958 H   0  0  0  0  0  0  0  0  0  0  0  0
  1  2  2  0
  2  3  1  0
  3  4  1  0
  4  5  2  0
  5  6  1  0
  6  7  2  0
  7  8  1  0
  7  9  1  0
  9 10  1  0
 10 11  1  0
 11 12  2  0
 11 13  1  0
 13 14  1  0
  2 15  1  0
 15 16  1  0
 16 17  1  0
 17 18  2  0
 18 19  1  0
 19 20  2  0
 20 21  1  0
 21 22  2  0
 22 23  1  0
 23 24  2  0
 18 25  1  0
 25 26  1  0
 14  4  1  0
 26 15  1  0
 14  9  2  0
 24 19  1  0
  3 27  1  0
  3 28  1  0
  5 29  1  0
  6 30  1  0
 16 31  1  0
 16 32  1  0
 17 33  1  0
 20 34  1  0
 21 35  1  0
 22 36  1  0
 23 37  1  0
 24 38  1  0
 25 39  1  0
 25 40  1  0
 26 41  1  0
 26 42  1  0
M  CHG  2   8  -1  10  -1
M  END
>  <UniqueID>  (55) 
51

>  <SMILES>  (55) 
O=C(Cc1ccc([O-])c2[n-]c(=O)sc12)N1CC=C(c2ccccc2)CC1

>  <Energy>  (55) 
86.94531342846324

>  <Genealogy>  (55) 
O=C(Cc1ccc([O-])c2[n-]c(=O)sc12)N1CC=C(c2ccccc2)CC1 (protonated)
O=C(Cc1ccc([O-])c2[n-]c(=O)sc12)N1CC=C(c2ccccc2)CC1 (3D coordinates assigned)
O=C(Cc1ccc([O-])c2[n-]c(=O)sc12)N1CC=C(c2ccccc2)CC1 (nonaromatic ring conformer: 86.94531342846324 kcal/mol)

>  <smiles>  (55) 
O=C(Cc1ccc(O)c2[nH]c(=O)sc12)N1CC=C(c2ccccc2)CC1

>  <score_type>  (55) 
oracle

>  <origin>  (55) 
adg

>  <m_score__min__energy>  (55) 
-14.17

>  <m_primary>  (55) 
energy

$$$$
55:0
     RDKit          3D

 53 57  0  0  0  0  0  0  0  0999 V2000
   58.0780   25.7648   48.3418 H   0  0  0  0  0  0  0  0  0  0  0  0
   57.7390   25.4000   47.3610 C   0  0  0  0  0  0  0  0  0  0  0  0
   57.2639   24.4115   47.2760 H   0  0  0  0  0  0  0  0  0  0  0  0
   57.9050   26.1610   46.2680 C   0  0  0  0  0  0  0  0  0  0  0  0
   57.5330   25.8510   44.9480 C   0  0  0  0  0  0  0  0  0  0  0  0
   56.8000   24.8370   44.4500 C   0  0  0  0  0  0  0  0  0  0  0  0
   57.2622   24.2217   43.6640 H   0  0  0  0  0  0  0  0  0  0  0  0
   55.4350   24.4810   44.8660 C   0  0  0  0  0  0  0  0  0  0  0  0
   54.5810   25.2640   45.6100 C   0  0  0  0  0  0  0  0  0  0  0  0
   54.8120   26.5790   45.9890 O   0  0  0  0  0  0  0  0  0  0  0  0
   53.4720   24.5740   45.9380 N   0  0  0  0  0  0  0  0  0  0  0  0
   53.7030   23.3590   45.3940 C   0  0  0  0  0  0  0  0  0  0  0  0
   52.8910   22.4020   45.4890 O   0  0  0  0  0  0  0  0  0  0  0  0
   54.8830   23.2610   44.7510 N   0  0  0  0  0  0  0  0  0  0  0  0
   55.2920   22.4120   44.2990 H   0  0  0  0  0  0  0  0  0  0  0  0
   58.0650   26.8520   44.1500 C   0  0  0  0  0  0  0  0  0  0  0  0
   58.0064   26.9169   43.0535 H   0  0  0  0  0  0  0  0  0  0  0  0
   58.6820   27.7510   44.9950 C   0  0  0  0  0  0  0  0  0  0  0  0
   59.3640   29.0090   44.5510 C   0  0  0  0  0  0  0  0  0  0  0  0
   59.6774   29.5870   45.4328 H   0  0  0  0  0  0  0  0  0  0  0  0
   60.2472   28.7537   43.9471 H   0  0  0  0  0  0  0  0  0  0  0  0
   58.6681   29.6098   43.9471 H   0  0  0  0  0  0  0  0  0  0  0  0
   58.5770   27.3420   46.2770 N   0  0  0  0  0  0  0  0  0  0  0  0
   59.1540   28.0110   47.4110 C   0  0  0  0  0  0  0  0  0  0  0  0
   60.0810   27.3480   48.2260 C   0  0  0  0  0  0  0  0  0  0  0  0
   60.3552   26.3050   48.0092 H   0  0  0  0  0  0  0  0  0  0  0  0
   60.6570   28.0080   49.3120 C   0  0  0  0  0  0  0  0  0  0  0  0
   61.3793   27.4818   49.9534 H   0  0  0  0  0  0  0  0  0  0  0  0
   60.3190   29.3350   49.5870 C   0  0  0  0  0  0  0  0  0  0  0  0
   60.7751   29.8478   50.4466 H   0  0  0  0  0  0  0  0  0  0  0  0
   59.4000   30.0200   48.7730 C   0  0  0  0  0  0  0  0  0  0  0  0
   59.0450   31.4350   49.0510 C   0  0  0  0  0  0  0  0  0  0  0  0
   58.1900   31.7090   49.9360 O   0  0  0  0  0  0  0  0  0  0  0  0
   59.6810   32.5120   48.3460 N   0  0  0  0  0  0  0  0  0  0  0  0
   59.0600   33.1420   47.1990 C   0  0  0  0  0  0  0  0  0  0  0  0
   57.7790   32.7780   46.7410 C   0  0  0  0  0  0  0  0  0  0  0  0
   57.1971   32.0199   47.2857 H   0  0  0  0  0  0  0  0  0  0  0  0
   57.2440   33.3770   45.5960 C   0  0  0  0  0  0  0  0  0  0  0  0
   56.2452   33.0845   45.2397 H   0  0  0  0  0  0  0  0  0  0  0  0
   57.9740   34.3450   44.9040 C   0  0  0  0  0  0  0  0  0  0  0  0
   57.5554   34.8041   43.9963 H   0  0  0  0  0  0  0  0  0  0  0  0
   59.2350   34.7310   45.3630 C   0  0  0  0  0  0  0  0  0  0  0  0
   59.8093   35.4934   44.8163 H   0  0  0  0  0  0  0  0  0  0  0  0
   59.7680   34.1490   46.5170 C   0  0  0  0  0  0  0  0  0  0  0  0
   61.0110   34.5660   46.9980 O   0  0  0  0  0  0  0  0  0  0  0  0
   61.4330   34.2520   48.3230 C   0  0  0  0  0  0  0  0  0  0  0  0
   60.9256   34.9214   49.0332 H   0  0  0  0  0  0  0  0  0  0  0  0
   62.5228   34.3846   48.3914 H   0  0  0  0  0  0  0  0  0  0  0  0
   61.0870   32.8000   48.6630 C   0  0  0  0  0  0  0  0  0  0  0  0
   61.2570   32.6303   49.7365 H   0  0  0  0  0  0  0  0  0  0  0  0
   61.7273   32.1350   48.0649 H   0  0  0  0  0  0  0  0  0  0  0  0
   58.8180   29.3440   47.6850 C   0  0  0  0  0  0  0  0  0  0  0  0
   58.0928   29.8662   47.0436 H   0  0  0  0  0  0  0  0  0  0  0  0
  1  2  1  0
  2  3  1  0
  2  4  2  0
  4  5  1  0
  5  6  2  0
  6  7  1  0
  6  8  1  0
  8  9  2  0
  9 10  1  0
  9 11  1  0
 11 12  1  0
 12 13  2  0
 12 14  1  0
 14 15  1  0
  5 16  1  0
 16 17  1  0
 16 18  2  0
 18 19  1  0
 19 20  1  0
 19 21  1  0
 19 22  1  0
 18 23  1  0
 23 24  1  0
 24 25  2  0
 25 26  1  0
 25 27  1  0
 27 28  1  0
 27 29  2  0
 29 30  1  0
 29 31  1  0
 31 32  1  0
 32 33  2  0
 32 34  1  0
 34 35  1  0
 35 36  2  0
 36 37  1  0
 36 38  1  0
 38 39  1  0
 38 40  2  0
 40 41  1  0
 40 42  1  0
 42 43  1  0
 42 44  2  0
 44 45  1  0
 45 46  1  0
 46 47  1  0
 46 48  1  0
 46 49  1  0
 49 50  1  0
 49 51  1  0
 31 52  2  0
 52 53  1  0
 23  4  1  0
 52 24  1  0
 14  8  1  0
 49 34  1  0
 44 35  1  0
M  CHG  2  10  -1  11  -1
M  END
>  <UniqueID>  (56) 
52

>  <SMILES>  (56) 
C=c1/c(=C\c2[nH]c(=O)[n-]c2[O-])cc(C)n1-c1cccc(C(=O)N2CCOc3ccccc32)c1

>  <Energy>  (56) 
144.42092884011188

>  <Genealogy>  (56) 
C=c1c(=Cc2[nH]c(=O)[n-]c2[O-])cc(C)n1-c1cccc(C(=O)N2CCOc3ccccc32)c1 (protonated)
C=c1/c(=C\c2[nH]c(=O)[n-]c2[O-])cc(C)n1-c1cccc(C(=O)N2CCOc3ccccc32)c1 (cis-trans isomerization)
C=c1/c(=C\c2[nH]c(=O)[n-]c2[O-])cc(C)n1-c1cccc(C(=O)N2CCOc3ccccc32)c1 (3D coordinates assigned)
C=c1/c(=C\c2[nH]c(=O)[n-]c2[O-])cc(C)n1-c1cccc(C(=O)N2CCOc3ccccc32)c1 (nonaromatic ring conformer: 144.42092884011188 kcal/mol)

>  <smiles>  (56) 
C=c1c(=Cc2[nH]c(=O)[nH]c2O)cc(C)n1-c1cccc(C(=O)N2CCOc3ccccc32)c1

>  <score_type>  (56) 
oracle

>  <origin>  (56) 
adg

>  <m_score__min__energy>  (56) 
-16.280000000000001

>  <m_primary>  (56) 
energy

$$$$
56:0
     RDKit          3D

 55 57  0  0  0  0  0  0  0  0999 V2000
   55.6760   29.3020   45.6070 H   0  0  0  0  0  0  0  0  0  0  0  0
   56.1270   30.0740   45.0670 N   0  0  0  0  0  0  0  0  0  0  0  0
   57.7600   30.1910   45.6140 S   0  0  0  0  0  0  0  0  0  0  0  0
   57.8960   29.5080   46.9450 O   0  0  0  0  0  0  0  0  0  0  0  0
   58.6670   29.5090   44.6280 O   0  0  0  0  0  0  0  0  0  0  0  0
   58.2010   31.8870   45.7700 C   0  0  0  0  0  0  0  0  0  0  0  0
   57.2070   32.8730   45.7290 C   0  0  0  0  0  0  0  0  0  0  0  0
   56.1528   32.5845   45.6051 H   0  0  0  0  0  0  0  0  0  0  0  0
   57.5510   34.2210   45.8450 C   0  0  0  0  0  0  0  0  0  0  0  0
   56.7661   34.9914   45.8260 H   0  0  0  0  0  0  0  0  0  0  0  0
   58.8890   34.5930   45.9850 C   0  0  0  0  0  0  0  0  0  0  0  0
   59.1537   35.6546   46.0988 H   0  0  0  0  0  0  0  0  0  0  0  0
   59.9000   33.6150   45.9810 C   0  0  0  0  0  0  0  0  0  0  0  0
   61.3250   33.9870   46.1210 C   0  0  0  0  0  0  0  0  0  0  0  0
   61.7947   34.5261   45.2851 H   0  0  0  0  0  0  0  0  0  0  0  0
   62.0870   33.7160   47.1910 C   0  0  0  0  0  0  0  0  0  0  0  0
   63.1387   34.0371   47.1632 H   0  0  0  0  0  0  0  0  0  0  0  0
   61.6160   33.0180   48.4030 C   0  0  0  0  0  0  0  0  0  0  0  0
   62.0400   31.8560   48.6410 O   0  0  0  0  0  0  0  0  0  0  0  0
   60.7660   33.6800   49.3520 N   0  0  0  0  0  0  0  0  0  0  0  0
   60.8440   34.7190   49.4320 H   0  0  0  0  0  0  0  0  0  0  0  0
   59.8180   33.0030   50.1950 C   0  0  0  0  0  0  0  0  0  0  0  0
   59.8410   33.1470   51.5940 C   0  0  0  0  0  0  0  0  0  0  0  0
   60.5682   33.8269   52.0619 H   0  0  0  0  0  0  0  0  0  0  0  0
   58.9450   32.4310   52.3930 C   0  0  0  0  0  0  0  0  0  0  0  0
   58.9683   32.5524   53.4860 H   0  0  0  0  0  0  0  0  0  0  0  0
   58.0180   31.5600   51.8080 C   0  0  0  0  0  0  0  0  0  0  0  0
   56.9200   30.6210   52.8120 S   0  0  0  0  0  0  0  0  0  0  0  0
   57.3680   30.7020   54.2460 O   0  0  0  0  0  0  0  0  0  0  0  0
   56.9290   29.1850   52.3670 O   0  0  0  0  0  0  0  0  0  0  0  0
   55.3260   31.2830   52.6480 N   0  0  0  0  0  0  0  0  0  0  0  0
   54.2630   30.6320   52.2730 C   0  0  0  0  0  0  0  0  0  0  0  0
   53.3180   31.1900   51.3380 N   0  0  0  0  0  0  0  0  0  0  0  0
   53.4510   32.1450   50.9410 H   0  0  0  0  0  0  0  0  0  0  0  0
   52.1020   30.4680   50.9550 C   0  0  0  0  0  0  0  0  0  0  0  0
   52.3907   29.4942   50.5328 H   0  0  0  0  0  0  0  0  0  0  0  0
   51.5664   31.0901   50.2228 H   0  0  0  0  0  0  0  0  0  0  0  0
   51.1440   30.2250   52.1450 C   0  0  0  0  0  0  0  0  0  0  0  0
   50.1329   30.0737   51.7391 H   0  0  0  0  0  0  0  0  0  0  0  0
   51.2384   31.1105   52.7908 H   0  0  0  0  0  0  0  0  0  0  0  0
   51.4800   29.0180   53.0380 C   0  0  0  0  0  0  0  0  0  0  0  0
   51.4620   28.1119   52.4146 H   0  0  0  0  0  0  0  0  0  0  0  0
   50.7271   28.9983   53.8397 H   0  0  0  0  0  0  0  0  0  0  0  0
   52.8570   29.1050   53.7250 C   0  0  0  0  0  0  0  0  0  0  0  0
   52.9926   28.1958   54.3291 H   0  0  0  0  0  0  0  0  0  0  0  0
   52.8415   30.0319   54.3171 H   0  0  0  0  0  0  0  0  0  0  0  0
   54.0650   29.2290   52.7750 C   0  0  0  0  0  0  0  0  0  0  0  0
   53.9047   28.5654   51.9125 H   0  0  0  0  0  0  0  0  0  0  0  0
   54.9650   28.9473   53.3413 H   0  0  0  0  0  0  0  0  0  0  0  0
   58.0030   31.4000   50.4180 C   0  0  0  0  0  0  0  0  0  0  0  0
   57.2827   30.7106   49.9534 H   0  0  0  0  0  0  0  0  0  0  0  0
   58.9000   32.1130   49.6180 C   0  0  0  0  0  0  0  0  0  0  0  0
   58.8861   31.9752   48.5268 H   0  0  0  0  0  0  0  0  0  0  0  0
   59.5470   32.2620   45.8990 C   0  0  0  0  0  0  0  0  0  0  0  0
   60.3291   31.4893   45.9359 H   0  0  0  0  0  0  0  0  0  0  0  0
  1  2  1  0
  2  3  1  0
  3  4  2  0
  3  5  2  0
  3  6  1  0
  6  7  2  0
  7  8  1  0
  7  9  1  0
  9 10  1  0
  9 11  2  0
 11 12  1  0
 11 13  1  0
 13 14  1  0
 14 15  1  0
 14 16  2  3
 16 17  1  0
 16 18  1  0
 18 19  2  0
 18 20  1  0
 20 21  1  0
 20 22  1  0
 22 23  2  0
 23 24  1  0
 23 25  1  0
 25 26  1  0
 25 27  2  0
 27 28  1  0
 28 29  2  0
 28 30  2  0
 28 31  1  0
 31 32  2  0
 32 33  1  0
 33 34  1  0
 33 35  1  0
 35 36  1  0
 35 37  1  0
 35 38  1  0
 38 39  1  0
 38 40  1  0
 38 41  1  0
 41 42  1  0
 41 43  1  0
 41 44  1  0
 44 45  1  0
 44 46  1  0
 44 47  1  0
 47 48  1  0
 47 49  1  0
 27 50  1  0
 50 51  1  0
 50 52  2  0
 52 53  1  0
 13 54  2  0
 54 55  1  0
 54  6  1  0
 52 22  1  0
 47 32  1  0
M  CHG  1   2  -1
M  END
>  <UniqueID>  (57) 
53

>  <SMILES>  (57) 
[NH-]S(=O)(=O)c1cccc(C=CC(=O)Nc2ccc(S(=O)(=O)/N=C3/CCCCCN3)cc2)c1

>  <Energy>  (57) 
72.98571158661473

>  <Genealogy>  (57) 
[NH-]S(=O)(=O)c1cccc(C=CC(=O)Nc2ccc(S(=O)(=O)N=C3CCCCCN3)cc2)c1 (protonated)
[NH-]S(=O)(=O)c1cccc(C=CC(=O)Nc2ccc(S(=O)(=O)/N=C3/CCCCCN3)cc2)c1 (cis-trans isomerization)
[NH-]S(=O)(=O)c1cccc(C=CC(=O)Nc2ccc(S(=O)(=O)/N=C3/CCCCCN3)cc2)c1 (3D coordinates assigned)
[NH-]S(=O)(=O)c1cccc(C=CC(=O)Nc2ccc(S(=O)(=O)/N=C3/CCCCCN3)cc2)c1 (nonaromatic ring conformer: 72.98571158661473 kcal/mol)

>  <smiles>  (57) 
NS(=O)(=O)c1cccc(C=CC(=O)Nc2ccc(S(=O)(=O)N=C3CCCCCN3)cc2)c1

>  <score_type>  (57) 
oracle

>  <origin>  (57) 
adg

>  <m_score__min__energy>  (57) 
-8.9199999999999999

>  <m_primary>  (57) 
energy

$$$$
57:0
     RDKit          3D

 61 64  0  0  0  0  0  0  0  0999 V2000
   57.1760   29.6470   43.2270 O   0  0  0  0  0  0  0  0  0  0  0  0
   57.5510   30.0830   44.3480 C   0  0  0  0  0  0  0  0  0  0  0  0
   57.0230   29.4620   45.6050 C   0  0  0  0  0  0  0  0  0  0  0  0
   58.0800   28.5920   46.2590 C   0  0  0  0  0  0  0  0  0  0  0  0
   58.4060   27.2940   45.7810 C   0  0  0  0  0  0  0  0  0  0  0  0
   57.6940   26.6350   44.6140 C   0  0  0  0  0  0  0  0  0  0  0  0
   56.9340   25.3940   45.0310 C   0  0  0  0  0  0  0  0  0  0  0  0
   57.4910   24.1210   44.7990 C   0  0  0  0  0  0  0  0  0  0  0  0
   56.8070   22.9670   45.1870 C   0  0  0  0  0  0  0  0  0  0  0  0
   55.5710   23.0660   45.8270 C   0  0  0  0  0  0  0  0  0  0  0  0
   55.0200   24.3220   46.0890 C   0  0  0  0  0  0  0  0  0  0  0  0
   55.6970   25.4850   45.7050 C   0  0  0  0  0  0  0  0  0  0  0  0
   55.1310   26.7210   45.9960 O   0  0  0  0  0  0  0  0  0  0  0  0
   59.4390   26.5810   46.4080 C   0  0  0  0  0  0  0  0  0  0  0  0
   60.1110   27.1310   47.4950 C   0  0  0  0  0  0  0  0  0  0  0  0
   59.7680   28.3580   47.9720 N   0  0  0  0  0  0  0  0  0  0  0  0
   60.4500   28.8620   49.0930 N   0  0  0  0  0  0  0  0  0  0  0  0
   60.9070   30.5310   49.1510 S   0  0  0  0  0  0  0  0  0  0  0  0
   59.8940   31.3260   49.9280 O   0  0  0  0  0  0  0  0  0  0  0  0
   60.9640   31.0750   47.7500 O   0  0  0  0  0  0  0  0  0  0  0  0
   62.4810   30.6630   49.9250 C   0  0  0  0  0  0  0  0  0  0  0  0
   63.3940   31.6310   49.4800 C   0  0  0  0  0  0  0  0  0  0  0  0
   64.6420   31.7620   50.1020 C   0  0  0  0  0  0  0  0  0  0  0  0
   64.9820   30.9270   51.1730 C   0  0  0  0  0  0  0  0  0  0  0  0
   66.6870   31.1060   52.0210 Br  0  0  0  0  0  0  0  0  0  0  0  0
   64.0710   29.9630   51.6220 C   0  0  0  0  0  0  0  0  0  0  0  0
   62.8230   29.8330   51.0030 C   0  0  0  0  0  0  0  0  0  0  0  0
   58.7920   29.1010   47.3710 C   0  0  0  0  0  0  0  0  0  0  0  0
   58.5350   30.2590   47.8040 O   0  0  0  0  0  0  0  0  0  0  0  0
   58.4970   31.1520   44.4240 N   0  0  0  0  0  0  0  0  0  0  0  0
   58.0620   32.7280   44.9890 S   0  0  0  0  0  0  0  0  0  0  0  0
   56.6250   32.7260   45.4320 O   0  0  0  0  0  0  0  0  0  0  0  0
   58.2140   33.7170   43.8680 O   0  0  0  0  0  0  0  0  0  0  0  0
   59.1190   33.1860   46.3210 C   0  0  0  0  0  0  0  0  0  0  0  0
   58.5950   33.3420   47.6100 C   0  0  0  0  0  0  0  0  0  0  0  0
   59.4220   33.7320   48.6660 C   0  0  0  0  0  0  0  0  0  0  0  0
   60.7870   33.9910   48.4430 C   0  0  0  0  0  0  0  0  0  0  0  0
   61.6340   34.4040   49.5300 N   0  0  0  0  0  0  0  0  0  0  0  0
   62.7160   34.9860   49.3070 O   0  0  0  0  0  0  0  0  0  0  0  0
   61.2530   34.1900   50.8350 O   0  0  0  0  0  0  0  0  0  0  0  0
   61.3060   33.8380   47.1450 C   0  0  0  0  0  0  0  0  0  0  0  0
   60.4770   33.4360   46.0930 C   0  0  0  0  0  0  0  0  0  0  0  0
   56.7273   30.2580   46.3043 H   0  0  0  0  0  0  0  0  0  0  0  0
   56.1558   28.8344   45.3519 H   0  0  0  0  0  0  0  0  0  0  0  0
   56.9846   27.3551   44.1802 H   0  0  0  0  0  0  0  0  0  0  0  0
   58.4572   26.3320   43.8820 H   0  0  0  0  0  0  0  0  0  0  0  0
   58.4719   24.0354   44.3086 H   0  0  0  0  0  0  0  0  0  0  0  0
   57.2437   21.9773   44.9876 H   0  0  0  0  0  0  0  0  0  0  0  0
   55.0310   22.1551   46.1249 H   0  0  0  0  0  0  0  0  0  0  0  0
   54.0488   24.3977   46.5999 H   0  0  0  0  0  0  0  0  0  0  0  0
   59.7186   25.5833   46.0387 H   0  0  0  0  0  0  0  0  0  0  0  0
   60.9268   26.5688   47.9729 H   0  0  0  0  0  0  0  0  0  0  0  0
   60.3420   28.3690   50.0120 H   0  0  0  0  0  0  0  0  0  0  0  0
   63.1287   32.2893   48.6396 H   0  0  0  0  0  0  0  0  0  0  0  0
   65.3553   32.5213   49.7489 H   0  0  0  0  0  0  0  0  0  0  0  0
   64.3372   29.3064   52.4634 H   0  0  0  0  0  0  0  0  0  0  0  0
   62.1082   29.0781   51.3625 H   0  0  0  0  0  0  0  0  0  0  0  0
   57.5262   33.1564   47.7921 H   0  0  0  0  0  0  0  0  0  0  0  0
   59.0037   33.8373   49.6779 H   0  0  0  0  0  0  0  0  0  0  0  0
   62.3714   34.0359   46.9559 H   0  0  0  0  0  0  0  0  0  0  0  0
   60.8940   33.3158   45.0822 H   0  0  0  0  0  0  0  0  0  0  0  0
  1  2  2  0
  2  3  1  0
  3  4  1  0
  4  5  2  0
  5  6  1  0
  6  7  1  0
  7  8  2  0
  8  9  1  0
  9 10  2  0
 10 11  1  0
 11 12  2  0
 12 13  1  0
  5 14  1  0
 14 15  2  0
 15 16  1  0
 16 17  1  0
 17 18  1  0
 18 19  2  0
 18 20  2  0
 18 21  1  0
 21 22  2  0
 22 23  1  0
 23 24  2  0
 24 25  1  0
 24 26  1  0
 26 27  2  0
 16 28  1  0
 28 29  2  0
  2 30  1  0
 30 31  1  0
 31 32  2  0
 31 33  2  0
 31 34  1  0
 34 35  2  0
 35 36  1  0
 36 37  2  0
 37 38  1  0
 38 39  2  0
 38 40  1  0
 37 41  1  0
 41 42  2  0
 28  4  1  0
 42 34  1  0
 12  7  1  0
 27 21  1  0
  3 43  1  0
  3 44  1  0
  6 45  1  0
  6 46  1  0
  8 47  1  0
  9 48  1  0
 10 49  1  0
 11 50  1  0
 14 51  1  0
 15 52  1  0
 17 53  1  0
 22 54  1  0
 23 55  1  0
 26 56  1  0
 27 57  1  0
 35 58  1  0
 36 59  1  0
 41 60  1  0
 42 61  1  0
M  CHG  4  13  -1  30  -1  38   1  40  -1
M  END
>  <UniqueID>  (58) 
54

>  <SMILES>  (58) 
O=C(Cc1c(Cc2ccccc2[O-])ccn(NS(=O)(=O)c2ccc(Br)cc2)c1=O)[N-]S(=O)(=O)c1ccc([N+](=O)[O-])cc1

>  <Energy>  (58) 
78.81605593775494

>  <Genealogy>  (58) 
O=C(Cc1c(Cc2ccccc2[O-])ccn(NS(=O)(=O)c2ccc(Br)cc2)c1=O)[N-]S(=O)(=O)c1ccc([N+](=O)[O-])cc1 (protonated)
O=C(Cc1c(Cc2ccccc2[O-])ccn(NS(=O)(=O)c2ccc(Br)cc2)c1=O)[N-]S(=O)(=O)c1ccc([N+](=O)[O-])cc1 (3D coordinates assigned)
O=C(Cc1c(Cc2ccccc2[O-])ccn(NS(=O)(=O)c2ccc(Br)cc2)c1=O)[N-]S(=O)(=O)c1ccc([N+](=O)[O-])cc1 (optimized conformer: 78.81605593775494 kcal/mol)

>  <smiles>  (58) 
O=C(Cc1c(Cc2ccccc2O)ccn(NS(=O)(=O)c2ccc(Br)cc2)c1=O)NS(=O)(=O)c1ccc([N+](=O)[O-])cc1

>  <score_type>  (58) 
oracle

>  <origin>  (58) 
adg

>  <m_score__min__energy>  (58) 
-15.039999999999999

>  <m_primary>  (58) 
energy

$$$$
58:0
     RDKit          3D

 41 43  0  0  0  0  0  0  0  0999 V2000
   54.0330   29.3250   52.7180 O   0  0  0  0  0  0  0  0  0  0  0  0
   54.0640   30.3160   51.9390 C   0  0  0  0  0  0  0  0  0  0  0  0
   52.9270   30.5530   50.9970 C   0  0  0  0  0  0  0  0  0  0  0  0
   51.8300   31.2900   51.6980 C   0  0  0  0  0  0  0  0  0  0  0  0
   51.5290   31.1390   53.0000 N   0  0  0  0  0  0  0  0  0  0  0  0
   50.5290   32.0270   53.1920 C   0  0  0  0  0  0  0  0  0  0  0  0
   49.9640   32.1820   54.3070 O   0  0  0  0  0  0  0  0  0  0  0  0
   50.1840   32.7400   52.0980 N   0  0  0  0  0  0  0  0  0  0  0  0
   51.0220   32.2640   51.1620 C   0  0  0  0  0  0  0  0  0  0  0  0
   51.0500   32.7150   49.8480 O   0  0  0  0  0  0  0  0  0  0  0  0
   55.1790   31.2160   51.9380 N   0  0  0  0  0  0  0  0  0  0  0  0
   56.5650   30.8500   51.9850 C   0  0  0  0  0  0  0  0  0  0  0  0
   56.9690   29.8590   52.8880 C   0  0  0  0  0  0  0  0  0  0  0  0
   58.3060   29.4650   52.9530 C   0  0  0  0  0  0  0  0  0  0  0  0
   59.2510   30.0450   52.1040 C   0  0  0  0  0  0  0  0  0  0  0  0
   58.8570   31.0190   51.1760 C   0  0  0  0  0  0  0  0  0  0  0  0
   60.0340   31.7550   50.0890 S   0  0  0  0  0  0  0  0  0  0  0  0
   60.0460   33.2470   50.2690 O   0  0  0  0  0  0  0  0  0  0  0  0
   61.3980   31.2240   50.4300 O   0  0  0  0  0  0  0  0  0  0  0  0
   59.6810   31.3810   48.4240 N   0  0  0  0  0  0  0  0  0  0  0  0
   58.4490   32.0320   47.9720 C   0  0  0  0  0  0  0  0  0  0  0  0
   58.7390   33.1370   46.9900 C   0  0  0  0  0  0  0  0  0  0  0  0
   58.0240   33.2240   45.7830 C   0  0  0  0  0  0  0  0  0  0  0  0
   58.2880   34.2600   44.8840 C   0  0  0  0  0  0  0  0  0  0  0  0
   59.2660   35.2140   45.1790 C   0  0  0  0  0  0  0  0  0  0  0  0
   59.9820   35.1330   46.3760 C   0  0  0  0  0  0  0  0  0  0  0  0
   59.7220   34.0980   47.2800 C   0  0  0  0  0  0  0  0  0  0  0  0
   57.5140   31.4140   51.1110 C   0  0  0  0  0  0  0  0  0  0  0  0
   53.2794   31.1498   50.1428 H   0  0  0  0  0  0  0  0  0  0  0  0
   52.5435   29.5852   50.6416 H   0  0  0  0  0  0  0  0  0  0  0  0
   56.2277   29.3881   53.5503 H   0  0  0  0  0  0  0  0  0  0  0  0
   58.6165   28.6954   53.6750 H   0  0  0  0  0  0  0  0  0  0  0  0
   60.3054   29.7373   52.1635 H   0  0  0  0  0  0  0  0  0  0  0  0
   57.8053   31.2828   47.4878 H   0  0  0  0  0  0  0  0  0  0  0  0
   57.9478   32.4701   48.8477 H   0  0  0  0  0  0  0  0  0  0  0  0
   57.2547   32.4744   45.5458 H   0  0  0  0  0  0  0  0  0  0  0  0
   57.7247   34.3252   43.9414 H   0  0  0  0  0  0  0  0  0  0  0  0
   59.4719   36.0284   44.4689 H   0  0  0  0  0  0  0  0  0  0  0  0
   60.7513   35.8843   46.6077 H   0  0  0  0  0  0  0  0  0  0  0  0
   60.2888   34.0362   48.2207 H   0  0  0  0  0  0  0  0  0  0  0  0
   57.1999   32.1678   50.3741 H   0  0  0  0  0  0  0  0  0  0  0  0
  1  2  2  0
  2  3  1  0
  3  4  1  0
  4  5  1  0
  5  6  1  0
  6  7  2  0
  6  8  1  0
  8  9  1  0
  9 10  1  0
  2 11  1  0
 11 12  1  0
 12 13  2  0
 13 14  1  0
 14 15  2  0
 15 16  1  0
 16 17  1  0
 17 18  2  0
 17 19  2  0
 17 20  1  0
 20 21  1  0
 21 22  1  0
 22 23  2  0
 23 24  1  0
 24 25  2  0
 25 26  1  0
 26 27  2  0
 16 28  2  0
  9  4  2  0
 28 12  1  0
 27 22  1  0
  3 29  1  0
  3 30  1  0
 13 31  1  0
 14 32  1  0
 15 33  1  0
 21 34  1  0
 21 35  1  0
 23 36  1  0
 24 37  1  0
 25 38  1  0
 26 39  1  0
 27 40  1  0
 28 41  1  0
M  CHG  5   5  -1   8  -1  10  -1  11  -1  20  -1
M  END
>  <UniqueID>  (59) 
55

>  <SMILES>  (59) 
O=C(Cc1[n-]c(=O)[n-]c1[O-])[N-]c1cccc(S(=O)(=O)[N-]Cc2ccccc2)c1

>  <Energy>  (59) 
72.12904667590729

>  <Genealogy>  (59) 
O=C(Cc1[n-]c(=O)[n-]c1[O-])[N-]c1cccc(S(=O)(=O)[N-]Cc2ccccc2)c1 (protonated)
O=C(Cc1[n-]c(=O)[n-]c1[O-])[N-]c1cccc(S(=O)(=O)[N-]Cc2ccccc2)c1 (3D coordinates assigned)
O=C(Cc1[n-]c(=O)[n-]c1[O-])[N-]c1cccc(S(=O)(=O)[N-]Cc2ccccc2)c1 (optimized conformer: 72.12904667590729 kcal/mol)

>  <smiles>  (59) 
O=C(Cc1[nH]c(=O)[nH]c1O)Nc1cccc(S(=O)(=O)NCc2ccccc2)c1

>  <score_type>  (59) 
oracle

>  <origin>  (59) 
adg

>  <m_score__min__energy>  (59) 
-19.949999999999999

>  <m_primary>  (59) 
energy

$$$$
59:0
     RDKit          3D

 47 49  0  0  0  0  0  0  0  0999 V2000
   59.5350   30.3600   47.8800 C   0  0  0  0  0  0  0  0  0  0  0  0
   58.5400   31.0200   47.2880 C   0  0  0  0  0  0  0  0  0  0  0  0
   58.7480   32.2310   46.4540 C   0  0  0  0  0  0  0  0  0  0  0  0
   59.8880   33.0430   46.6190 C   0  0  0  0  0  0  0  0  0  0  0  0
   60.0750   34.1720   45.8170 C   0  0  0  0  0  0  0  0  0  0  0  0
   59.1300   34.5100   44.8480 C   0  0  0  0  0  0  0  0  0  0  0  0
   57.9910   33.7200   44.6790 C   0  0  0  0  0  0  0  0  0  0  0  0
   57.7910   32.5880   45.4780 C   0  0  0  0  0  0  0  0  0  0  0  0
   56.6490   31.7640   45.2400 N   0  0  0  0  0  0  0  0  0  0  0  0
   56.7270   30.4860   44.0760 S   0  0  0  0  0  0  0  0  0  0  0  0
   57.2720   31.0130   42.7780 O   0  0  0  0  0  0  0  0  0  0  0  0
   55.3430   29.9520   43.8360 O   0  0  0  0  0  0  0  0  0  0  0  0
   57.7660   29.2080   44.6960 C   0  0  0  0  0  0  0  0  0  0  0  0
   59.1580   29.2870   44.5620 C   0  0  0  0  0  0  0  0  0  0  0  0
   59.9640   28.2300   44.9920 C   0  0  0  0  0  0  0  0  0  0  0  0
   59.3860   27.0880   45.5510 C   0  0  0  0  0  0  0  0  0  0  0  0
   57.9940   27.0020   45.6910 C   0  0  0  0  0  0  0  0  0  0  0  0
   57.2430   25.5790   46.4070 S   0  0  0  0  0  0  0  0  0  0  0  0
   57.9200   24.3540   45.8600 O   0  0  0  0  0  0  0  0  0  0  0  0
   57.4080   25.5940   47.9010 O   0  0  0  0  0  0  0  0  0  0  0  0
   55.5490   25.5180   46.0050 N   0  0  0  0  0  0  0  0  0  0  0  0
   55.0180   24.1580   46.1300 C   0  0  0  0  0  0  0  0  0  0  0  0
   55.5950   23.2570   45.0700 C   0  0  0  0  0  0  0  0  0  0  0  0
   56.0360   21.9660   45.4050 C   0  0  0  0  0  0  0  0  0  0  0  0
   56.6080   21.1430   44.4300 C   0  0  0  0  0  0  0  0  0  0  0  0
   56.7410   21.6010   43.1170 C   0  0  0  0  0  0  0  0  0  0  0  0
   56.2930   22.8780   42.7720 C   0  0  0  0  0  0  0  0  0  0  0  0
   55.7150   23.7030   43.7420 C   0  0  0  0  0  0  0  0  0  0  0  0
   57.1880   28.0640   45.2630 C   0  0  0  0  0  0  0  0  0  0  0  0
   59.3192   29.4681   48.4865 H   0  0  0  0  0  0  0  0  0  0  0  0
   60.5721   30.7072   47.7621 H   0  0  0  0  0  0  0  0  0  0  0  0
   57.5133   30.6492   47.4239 H   0  0  0  0  0  0  0  0  0  0  0  0
   60.6355   32.7864   47.3841 H   0  0  0  0  0  0  0  0  0  0  0  0
   60.9707   34.7965   45.9502 H   0  0  0  0  0  0  0  0  0  0  0  0
   59.2820   35.3984   44.2174 H   0  0  0  0  0  0  0  0  0  0  0  0
   57.2473   33.9885   43.9143 H   0  0  0  0  0  0  0  0  0  0  0  0
   59.6171   30.1824   44.1176 H   0  0  0  0  0  0  0  0  0  0  0  0
   61.0572   28.2974   44.8900 H   0  0  0  0  0  0  0  0  0  0  0  0
   60.0239   26.2551   45.8818 H   0  0  0  0  0  0  0  0  0  0  0  0
   55.2777   23.7596   47.1219 H   0  0  0  0  0  0  0  0  0  0  0  0
   53.9258   24.1939   46.0047 H   0  0  0  0  0  0  0  0  0  0  0  0
   55.9310   21.6014   46.4375 H   0  0  0  0  0  0  0  0  0  0  0  0
   56.9537   20.1335   44.6973 H   0  0  0  0  0  0  0  0  0  0  0  0
   57.1992   20.9549   42.3537 H   0  0  0  0  0  0  0  0  0  0  0  0
   56.3949   23.2351   41.7366 H   0  0  0  0  0  0  0  0  0  0  0  0
   55.3530   24.7042   43.4651 H   0  0  0  0  0  0  0  0  0  0  0  0
   56.0953   28.0001   45.3724 H   0  0  0  0  0  0  0  0  0  0  0  0
  1  2  2  0
  2  3  1  0
  3  4  2  0
  4  5  1  0
  5  6  2  0
  6  7  1  0
  7  8  2  0
  8  9  1  0
  9 10  1  0
 10 11  2  0
 10 12  2  0
 10 13  1  0
 13 14  2  0
 14 15  1  0
 15 16  2  0
 16 17  1  0
 17 18  1  0
 18 19  2  0
 18 20  2  0
 18 21  1  0
 21 22  1  0
 22 23  1  0
 23 24  2  0
 24 25  1  0
 25 26  2  0
 26 27  1  0
 27 28  2  0
 17 29  2  0
  8  3  1  0
 29 13  1  0
 28 23  1  0
  1 30  1  0
  1 31  1  0
  2 32  1  0
  4 33  1  0
  5 34  1  0
  6 35  1  0
  7 36  1  0
 14 37  1  0
 15 38  1  0
 16 39  1  0
 22 40  1  0
 22 41  1  0
 24 42  1  0
 25 43  1  0
 26 44  1  0
 27 45  1  0
 28 46  1  0
 29 47  1  0
M  CHG  2   9  -1  21  -1
M  END
>  <UniqueID>  (60) 
56

>  <SMILES>  (60) 
C=Cc1ccccc1[N-]S(=O)(=O)c1cccc(S(=O)(=O)[N-]Cc2ccccc2)c1

>  <Energy>  (60) 
53.296334116268625

>  <Genealogy>  (60) 
C=Cc1ccccc1[N-]S(=O)(=O)c1cccc(S(=O)(=O)[N-]Cc2ccccc2)c1 (protonated)
C=Cc1ccccc1[N-]S(=O)(=O)c1cccc(S(=O)(=O)[N-]Cc2ccccc2)c1 (3D coordinates assigned)
C=Cc1ccccc1[N-]S(=O)(=O)c1cccc(S(=O)(=O)[N-]Cc2ccccc2)c1 (optimized conformer: 53.296334116268625 kcal/mol)

>  <smiles>  (60) 
C=Cc1ccccc1NS(=O)(=O)c1cccc(S(=O)(=O)NCc2ccccc2)c1

>  <score_type>  (60) 
oracle

>  <origin>  (60) 
adg

>  <m_score__min__energy>  (60) 
-12.25

>  <m_primary>  (60) 
energy

$$$$
60:0
     RDKit          3D

 50 53  0  0  0  0  0  0  0  0999 V2000
   61.1710   31.2670   50.3030 C   0  0  0  0  0  0  0  0  0  0  0  0
   61.5090   32.6670   50.6170 N   0  0  0  0  0  0  0  0  0  0  0  0
   60.3040   33.4670   50.9270 C   0  0  0  0  0  0  0  0  0  0  0  0
   59.4060   33.6500   49.6910 C   0  0  0  0  0  0  0  0  0  0  0  0
   60.2170   33.8180   48.4810 N   0  0  0  0  0  0  0  0  0  0  0  0
   59.6580   33.5210   47.1870 C   0  0  0  0  0  0  0  0  0  0  0  0
   59.9490   34.3380   46.0810 C   0  0  0  0  0  0  0  0  0  0  0  0
   59.3880   34.0670   44.8290 C   0  0  0  0  0  0  0  0  0  0  0  0
   58.5240   32.9750   44.6690 C   0  0  0  0  0  0  0  0  0  0  0  0
   57.9350   32.6850   43.4340 C   0  0  0  0  0  0  0  0  0  0  0  0
   57.0670   31.5970   43.3140 C   0  0  0  0  0  0  0  0  0  0  0  0
   56.8070   30.7890   44.4330 C   0  0  0  0  0  0  0  0  0  0  0  0
   55.8660   29.6530   44.3330 C   0  0  0  0  0  0  0  0  0  0  0  0
   55.0060   29.6500   43.4140 O   0  0  0  0  0  0  0  0  0  0  0  0
   55.8930   28.5400   45.2390 N   0  0  0  0  0  0  0  0  0  0  0  0
   56.9910   27.5910   45.4200 C   0  0  0  0  0  0  0  0  0  0  0  0
   58.2660   28.2670   45.8600 C   0  0  0  0  0  0  0  0  0  0  0  0
   58.4240   28.6240   47.2100 C   0  0  0  0  0  0  0  0  0  0  0  0
   59.5740   29.2980   47.6350 C   0  0  0  0  0  0  0  0  0  0  0  0
   60.5730   29.6260   46.7160 C   0  0  0  0  0  0  0  0  0  0  0  0
   61.6900   30.2720   47.1300 F   0  0  0  0  0  0  0  0  0  0  0  0
   60.4160   29.2970   45.3670 C   0  0  0  0  0  0  0  0  0  0  0  0
   59.2630   28.6330   44.9350 C   0  0  0  0  0  0  0  0  0  0  0  0
   57.3860   31.0940   45.6260 N   0  0  0  0  0  0  0  0  0  0  0  0
   58.2260   32.1510   45.7740 C   0  0  0  0  0  0  0  0  0  0  0  0
   58.7850   32.4320   47.0250 C   0  0  0  0  0  0  0  0  0  0  0  0
   61.6140   34.2390   48.6280 C   0  0  0  0  0  0  0  0  0  0  0  0
   62.3660   33.2770   49.5680 C   0  0  0  0  0  0  0  0  0  0  0  0
   61.0351   30.7040   51.2382 H   0  0  0  0  0  0  0  0  0  0  0  0
   60.2398   31.2369   49.7183 H   0  0  0  0  0  0  0  0  0  0  0  0
   61.9859   30.8153   49.7183 H   0  0  0  0  0  0  0  0  0  0  0  0
   59.7288   32.9547   51.7123 H   0  0  0  0  0  0  0  0  0  0  0  0
   60.6313   34.4623   51.2622 H   0  0  0  0  0  0  0  0  0  0  0  0
   58.7652   32.7634   49.5759 H   0  0  0  0  0  0  0  0  0  0  0  0
   58.7902   34.5506   49.8317 H   0  0  0  0  0  0  0  0  0  0  0  0
   60.6240   35.1982   46.2013 H   0  0  0  0  0  0  0  0  0  0  0  0
   59.6249   34.7111   43.9694 H   0  0  0  0  0  0  0  0  0  0  0  0
   58.1550   33.3130   42.5581 H   0  0  0  0  0  0  0  0  0  0  0  0
   56.5897   31.3743   42.3483 H   0  0  0  0  0  0  0  0  0  0  0  0
   56.6996   26.8544   46.1833 H   0  0  0  0  0  0  0  0  0  0  0  0
   57.1830   27.1098   44.4496 H   0  0  0  0  0  0  0  0  0  0  0  0
   57.6383   28.3718   47.9374 H   0  0  0  0  0  0  0  0  0  0  0  0
   59.6914   29.5699   48.6944 H   0  0  0  0  0  0  0  0  0  0  0  0
   61.2010   29.5608   44.6430 H   0  0  0  0  0  0  0  0  0  0  0  0
   59.1345   28.3958   43.8686 H   0  0  0  0  0  0  0  0  0  0  0  0
   58.5394   31.7959   47.8882 H   0  0  0  0  0  0  0  0  0  0  0  0
   62.0998   34.2358   47.6411 H   0  0  0  0  0  0  0  0  0  0  0  0
   61.6395   35.2516   49.0571 H   0  0  0  0  0  0  0  0  0  0  0  0
   62.7992   32.4682   48.9613 H   0  0  0  0  0  0  0  0  0  0  0  0
   63.1315   33.8720   50.0876 H   0  0  0  0  0  0  0  0  0  0  0  0
  1  2  1  0
  2  3  1  0
  3  4  1  0
  4  5  1  0
  5  6  1  0
  6  7  2  0
  7  8  1  0
  8  9  2  0
  9 10  1  0
 10 11  2  0
 11 12  1  0
 12 13  1  0
 13 14  2  0
 13 15  1  0
 15 16  1  0
 16 17  1  0
 17 18  2  0
 18 19  1  0
 19 20  2  0
 20 21  1  0
 20 22  1  0
 22 23  2  0
 12 24  2  0
 24 25  1  0
 25 26  2  0
  5 27  1  0
 27 28  1  0
 28  2  1  0
 26  6  1  0
 25  9  1  0
 23 17  1  0
  1 29  1  0
  1 30  1  0
  1 31  1  0
  3 32  1  0
  3 33  1  0
  4 34  1  0
  4 35  1  0
  7 36  1  0
  8 37  1  0
 10 38  1  0
 11 39  1  0
 16 40  1  0
 16 41  1  0
 18 42  1  0
 19 43  1  0
 22 44  1  0
 23 45  1  0
 26 46  1  0
 27 47  1  0
 27 48  1  0
 28 49  1  0
 28 50  1  0
M  CHG  1  15  -1
M  END
>  <UniqueID>  (61) 
57

>  <SMILES>  (61) 
CN1CCN(c2ccc3ccc(C(=O)[N-]Cc4ccc(F)cc4)nc3c2)CC1

>  <Energy>  (61) 
67.45405312141051

>  <Genealogy>  (61) 
CN1CCN(c2ccc3ccc(C(=O)[N-]Cc4ccc(F)cc4)nc3c2)CC1 (protonated)
CN1CCN(c2ccc3ccc(C(=O)[N-]Cc4ccc(F)cc4)nc3c2)CC1 (3D coordinates assigned)
CN1CCN(c2ccc3ccc(C(=O)[N-]Cc4ccc(F)cc4)nc3c2)CC1 (nonaromatic ring conformer: 67.45405312141051 kcal/mol)

>  <smiles>  (61) 
CN1CCN(c2ccc3ccc(C(=O)NCc4ccc(F)cc4)nc3c2)CC1

>  <score_type>  (61) 
oracle

>  <origin>  (61) 
adg

>  <m_score__min__energy>  (61) 
-10.5

>  <m_primary>  (61) 
energy

$$$$
61:0
     RDKit          3D

 53 55  0  0  0  0  0  0  0  0999 V2000
   62.7200   33.7570   46.7400 C   0  0  0  0  0  0  0  0  0  0  0  0
   62.3600   33.3880   48.0680 O   0  0  0  0  0  0  0  0  0  0  0  0
   63.2170   32.7470   48.9780 C   0  0  0  0  0  0  0  0  0  0  0  0
   64.5770   33.1030   49.0880 C   0  0  0  0  0  0  0  0  0  0  0  0
   65.4130   32.4410   49.9900 C   0  0  0  0  0  0  0  0  0  0  0  0
   64.9070   31.4150   50.7870 C   0  0  0  0  0  0  0  0  0  0  0  0
   63.5620   31.0540   50.6940 C   0  0  0  0  0  0  0  0  0  0  0  0
   62.7050   31.7190   49.8000 C   0  0  0  0  0  0  0  0  0  0  0  0
   61.2690   31.2670   49.6950 C   0  0  0  0  0  0  0  0  0  0  0  0
   60.7900   31.4600   48.3290 N   0  0  0  0  0  0  0  0  0  0  0  0
   59.4310   31.8290   48.0520 C   0  0  0  0  0  0  0  0  0  0  0  0
   58.5310   31.6040   48.9060 O   0  0  0  0  0  0  0  0  0  0  0  0
   59.0900   32.5560   46.8140 C   0  0  0  0  0  0  0  0  0  0  0  0
   58.7860   31.8240   45.6550 C   0  0  0  0  0  0  0  0  0  0  0  0
   58.3100   32.4770   44.5120 C   0  0  0  0  0  0  0  0  0  0  0  0
   57.7560   31.5230   43.0980 S   0  0  0  0  0  0  0  0  0  0  0  0
   57.4100   30.0870   44.1150 C   0  0  0  0  0  0  0  0  0  0  0  0
   56.1030   29.8250   44.5320 C   0  0  0  0  0  0  0  0  0  0  0  0
   55.8290   28.7020   45.2430 N   0  0  0  0  0  0  0  0  0  0  0  0
   56.7950   27.8020   45.5830 C   0  0  0  0  0  0  0  0  0  0  0  0
   56.5000   26.7180   46.2430 N   0  0  0  0  0  0  0  0  0  0  0  0
   55.8640   25.5400   45.7220 C   0  0  0  0  0  0  0  0  0  0  0  0
   56.6640   24.5840   44.9040 C   0  0  0  0  0  0  0  0  0  0  0  0
   54.6560   25.2790   45.9770 O   0  0  0  0  0  0  0  0  0  0  0  0
   58.1280   28.0320   45.1960 C   0  0  0  0  0  0  0  0  0  0  0  0
   59.1160   27.1000   45.5570 O   0  0  0  0  0  0  0  0  0  0  0  0
   60.3130   27.4270   46.2550 C   0  0  0  0  0  0  0  0  0  0  0  0
   58.4270   29.1920   44.4570 C   0  0  0  0  0  0  0  0  0  0  0  0
   58.1970   33.8720   44.5020 C   0  0  0  0  0  0  0  0  0  0  0  0
   58.5540   34.6120   45.6310 C   0  0  0  0  0  0  0  0  0  0  0  0
   58.9950   33.9610   46.7880 C   0  0  0  0  0  0  0  0  0  0  0  0
   59.3440   34.7030   47.8690 F   0  0  0  0  0  0  0  0  0  0  0  0
   63.4878   34.5440   46.7735 H   0  0  0  0  0  0  0  0  0  0  0  0
   63.1180   32.8788   46.2105 H   0  0  0  0  0  0  0  0  0  0  0  0
   61.8322   34.1332   46.2105 H   0  0  0  0  0  0  0  0  0  0  0  0
   64.9828   33.9086   48.4584 H   0  0  0  0  0  0  0  0  0  0  0  0
   66.4714   32.7293   50.0717 H   0  0  0  0  0  0  0  0  0  0  0  0
   65.5691   30.8890   51.4905 H   0  0  0  0  0  0  0  0  0  0  0  0
   63.1696   30.2430   51.3251 H   0  0  0  0  0  0  0  0  0  0  0  0
   61.2010   30.2013   49.9590 H   0  0  0  0  0  0  0  0  0  0  0  0
   60.6497   31.8591   50.3849 H   0  0  0  0  0  0  0  0  0  0  0  0
   61.5140   31.5840   47.5870 H   0  0  0  0  0  0  0  0  0  0  0  0
   58.9225   30.7325   45.6452 H   0  0  0  0  0  0  0  0  0  0  0  0
   55.2953   30.5293   44.2840 H   0  0  0  0  0  0  0  0  0  0  0  0
   57.2259   23.9126   45.5699 H   0  0  0  0  0  0  0  0  0  0  0  0
   55.9894   23.9907   44.2693 H   0  0  0  0  0  0  0  0  0  0  0  0
   57.3670   25.1435   44.2693 H   0  0  0  0  0  0  0  0  0  0  0  0
   60.1308   27.3772   47.3387 H   0  0  0  0  0  0  0  0  0  0  0  0
   61.1032   26.7118   45.9828 H   0  0  0  0  0  0  0  0  0  0  0  0
   60.6298   28.4446   45.9828 H   0  0  0  0  0  0  0  0  0  0  0  0
   59.4632   29.3943   44.1482 H   0  0  0  0  0  0  0  0  0  0  0  0
   57.8263   34.3863   43.6031 H   0  0  0  0  0  0  0  0  0  0  0  0
   58.4883   35.7098   45.6106 H   0  0  0  0  0  0  0  0  0  0  0  0
  1  2  1  0
  2  3  1  0
  3  4  2  0
  4  5  1  0
  5  6  2  0
  6  7  1  0
  7  8  2  0
  8  9  1  0
  9 10  1  0
 10 11  1  0
 11 12  2  0
 11 13  1  0
 13 14  2  0
 14 15  1  0
 15 16  1  0
 16 17  1  0
 17 18  2  0
 18 19  1  0
 19 20  1  0
 20 21  2  3
 21 22  1  0
 22 23  1  0
 22 24  2  0
 20 25  1  0
 25 26  1  0
 26 27  1  0
 25 28  2  0
 15 29  2  0
 29 30  1  0
 30 31  2  0
 31 32  1  0
  8  3  1  0
 31 13  1  0
 28 17  1  0
  1 33  1  0
  1 34  1  0
  1 35  1  0
  4 36  1  0
  5 37  1  0
  6 38  1  0
  7 39  1  0
  9 40  1  0
  9 41  1  0
 10 42  1  0
 14 43  1  0
 18 44  1  0
 23 45  1  0
 23 46  1  0
 23 47  1  0
 27 48  1  0
 27 49  1  0
 27 50  1  0
 28 51  1  0
 29 52  1  0
 30 53  1  0
M  CHG  1  19  -1
M  END
>  <UniqueID>  (62) 
58

>  <SMILES>  (62) 
COc1ccccc1CNC(=O)c1cc(Sc2c[n-]c(=NC(C)=O)c(OC)c2)ccc1F

>  <Energy>  (62) 
53.30518370741285

>  <Genealogy>  (62) 
COc1ccccc1CNC(=O)c1cc(Sc2c[n-]c(=NC(C)=O)c(OC)c2)ccc1F (protonated)
COc1ccccc1CNC(=O)c1cc(Sc2c[n-]c(=NC(C)=O)c(OC)c2)ccc1F (3D coordinates assigned)
COc1ccccc1CNC(=O)c1cc(Sc2c[n-]c(=NC(C)=O)c(OC)c2)ccc1F (optimized conformer: 53.30518370741285 kcal/mol)

>  <smiles>  (62) 
COc1ccccc1CNC(=O)c1cc(Sc2c[nH]c(=NC(C)=O)c(OC)c2)ccc1F

>  <score_type>  (62) 
oracle

>  <origin>  (62) 
adg

>  <m_score__min__energy>  (62) 
-10.640000000000001

>  <m_primary>  (62) 
energy

$$$$
62:0
     RDKit          3D

 32 33  0  0  0  0  0  0  0  0999 V2000
   56.4590   30.4700   43.0810 O   0  0  0  0  0  0  0  0  0  0  0  0
   57.1380   30.6920   44.1200 C   0  0  0  0  0  0  0  0  0  0  0  0
   58.3600   29.8790   44.4020 C   0  0  0  0  0  0  0  0  0  0  0  0
   57.9770   28.6030   45.0990 C   0  0  0  0  0  0  0  0  0  0  0  0
   56.6240   28.2530   45.2430 C   0  0  0  0  0  0  0  0  0  0  0  0
   56.2690   27.0480   45.8590 C   0  0  0  0  0  0  0  0  0  0  0  0
   54.9290   26.7100   46.0020 O   0  0  0  0  0  0  0  0  0  0  0  0
   57.2620   26.1830   46.3280 C   0  0  0  0  0  0  0  0  0  0  0  0
   58.6150   26.5170   46.1760 C   0  0  0  0  0  0  0  0  0  0  0  0
   59.6130   25.6580   46.6330 O   0  0  0  0  0  0  0  0  0  0  0  0
   58.9690   27.7220   45.5600 C   0  0  0  0  0  0  0  0  0  0  0  0
   56.7190   31.6850   45.0600 N   0  0  0  0  0  0  0  0  0  0  0  0
   57.0300   33.0990   44.9060 C   0  0  0  0  0  0  0  0  0  0  0  0
   58.1020   33.4810   45.8850 C   0  0  0  0  0  0  0  0  0  0  0  0
   59.0470   34.4650   45.5490 C   0  0  0  0  0  0  0  0  0  0  0  0
   60.0220   34.8490   46.4740 C   0  0  0  0  0  0  0  0  0  0  0  0
   60.0550   34.2620   47.7430 C   0  0  0  0  0  0  0  0  0  0  0  0
   61.0010   34.6360   48.6390 F   0  0  0  0  0  0  0  0  0  0  0  0
   59.1090   33.2940   48.0890 C   0  0  0  0  0  0  0  0  0  0  0  0
   58.1300   32.9070   47.1660 C   0  0  0  0  0  0  0  0  0  0  0  0
   58.8652   29.6395   43.4547 H   0  0  0  0  0  0  0  0  0  0  0  0
   59.0369   30.4558   45.0494 H   0  0  0  0  0  0  0  0  0  0  0  0
   55.8406   28.9291   44.8699 H   0  0  0  0  0  0  0  0  0  0  0  0
   56.9812   25.2386   46.8172 H   0  0  0  0  0  0  0  0  0  0  0  0
   60.4770   25.5300   46.1200 H   0  0  0  0  0  0  0  0  0  0  0  0
   60.0308   27.9812   45.4359 H   0  0  0  0  0  0  0  0  0  0  0  0
   57.3836   33.2880   43.8817 H   0  0  0  0  0  0  0  0  0  0  0  0
   56.1270   33.6976   45.0963 H   0  0  0  0  0  0  0  0  0  0  0  0
   59.0194   34.9347   44.5547 H   0  0  0  0  0  0  0  0  0  0  0  0
   60.7646   35.6141   46.2034 H   0  0  0  0  0  0  0  0  0  0  0  0
   59.1334   32.8351   49.0884 H   0  0  0  0  0  0  0  0  0  0  0  0
   57.3809   32.1514   47.4451 H   0  0  0  0  0  0  0  0  0  0  0  0
  1  2  2  0
  2  3  1  0
  3  4  1  0
  4  5  2  0
  5  6  1  0
  6  7  1  0
  6  8  2  0
  8  9  1  0
  9 10  1  0
  9 11  2  0
  2 12  1  0
 12 13  1  0
 13 14  1  0
 14 15  2  0
 15 16  1  0
 16 17  2  0
 17 18  1  0
 17 19  1  0
 19 20  2  0
 11  4  1  0
 20 14  1  0
  3 21  1  0
  3 22  1  0
  5 23  1  0
  8 24  1  0
 10 25  1  0
 11 26  1  0
 13 27  1  0
 13 28  1  0
 15 29  1  0
 16 30  1  0
 19 31  1  0
 20 32  1  0
M  CHG  2   7  -1  12  -1
M  END
>  <UniqueID>  (63) 
59

>  <SMILES>  (63) 
O=C(Cc1cc([O-])cc(O)c1)[N-]Cc1ccc(F)cc1

>  <Energy>  (63) 
27.25580300394284

>  <Genealogy>  (63) 
O=C(Cc1cc([O-])cc(O)c1)[N-]Cc1ccc(F)cc1 (protonated)
O=C(Cc1cc([O-])cc(O)c1)[N-]Cc1ccc(F)cc1 (3D coordinates assigned)
O=C(Cc1cc([O-])cc(O)c1)[N-]Cc1ccc(F)cc1 (optimized conformer: 27.25580300394284 kcal/mol)

>  <smiles>  (63) 
O=C(Cc1cc(O)cc(O)c1)NCc1ccc(F)cc1

>  <score_type>  (63) 
oracle

>  <origin>  (63) 
adg

>  <m_score__min__energy>  (63) 
-11.449999999999999

>  <m_primary>  (63) 
energy

$$$$
63:0
     RDKit          3D

 37 39  0  0  0  0  0  0  0  0999 V2000
   60.0490   29.0300   45.3900 C   0  0  0  0  0  0  0  0  0  0  0  0
   58.7430   29.7310   45.1530 C   0  0  0  0  0  0  0  0  0  0  0  0
   58.7490   31.0850   45.0260 N   0  0  0  0  0  0  0  0  0  0  0  0
   57.6030   31.7810   44.8180 C   0  0  0  0  0  0  0  0  0  0  0  0
   57.6580   33.5600   44.6240 S   0  0  0  0  0  0  0  0  0  0  0  0
   57.7490   33.9050   46.4170 C   0  0  0  0  0  0  0  0  0  0  0  0
   59.1710   33.8520   46.9060 C   0  0  0  0  0  0  0  0  0  0  0  0
   59.4430   33.8320   48.2840 C   0  0  0  0  0  0  0  0  0  0  0  0
   60.7640   33.8170   48.7410 C   0  0  0  0  0  0  0  0  0  0  0  0
   61.8220   33.8280   47.8270 C   0  0  0  0  0  0  0  0  0  0  0  0
   61.5590   33.8530   46.4540 C   0  0  0  0  0  0  0  0  0  0  0  0
   60.2390   33.8640   45.9940 C   0  0  0  0  0  0  0  0  0  0  0  0
   56.4160   31.1290   44.7400 N   0  0  0  0  0  0  0  0  0  0  0  0
   56.3490   29.7790   44.8490 C   0  0  0  0  0  0  0  0  0  0  0  0
   55.2300   29.2080   44.7540 O   0  0  0  0  0  0  0  0  0  0  0  0
   57.5230   29.0290   45.0500 C   0  0  0  0  0  0  0  0  0  0  0  0
   57.4610   27.5530   45.1490 C   0  0  0  0  0  0  0  0  0  0  0  0
   57.0320   26.9430   46.3400 C   0  0  0  0  0  0  0  0  0  0  0  0
   56.9680   25.5490   46.4330 C   0  0  0  0  0  0  0  0  0  0  0  0
   57.3290   24.7570   45.3390 C   0  0  0  0  0  0  0  0  0  0  0  0
   57.7490   25.3580   44.1490 C   0  0  0  0  0  0  0  0  0  0  0  0
   57.8130   26.7500   44.0520 C   0  0  0  0  0  0  0  0  0  0  0  0
   60.2237   28.9362   46.4720 H   0  0  0  0  0  0  0  0  0  0  0  0
   60.0154   28.0287   44.9359 H   0  0  0  0  0  0  0  0  0  0  0  0
   60.8649   29.6114   44.9359 H   0  0  0  0  0  0  0  0  0  0  0  0
   57.3390   34.9070   46.6116 H   0  0  0  0  0  0  0  0  0  0  0  0
   57.1667   33.1394   46.9507 H   0  0  0  0  0  0  0  0  0  0  0  0
   58.6133   33.8281   49.0062 H   0  0  0  0  0  0  0  0  0  0  0  0
   60.9714   33.7965   49.8211 H   0  0  0  0  0  0  0  0  0  0  0  0
   62.8610   33.8170   48.1880 H   0  0  0  0  0  0  0  0  0  0  0  0
   62.3915   33.8640   45.7351 H   0  0  0  0  0  0  0  0  0  0  0  0
   60.0359   33.8821   44.9131 H   0  0  0  0  0  0  0  0  0  0  0  0
   56.7457   27.5638   47.2018 H   0  0  0  0  0  0  0  0  0  0  0  0
   56.6333   25.0754   47.3677 H   0  0  0  0  0  0  0  0  0  0  0  0
   57.2825   23.6606   45.4147 H   0  0  0  0  0  0  0  0  0  0  0  0
   58.0295   24.7339   43.2877 H   0  0  0  0  0  0  0  0  0  0  0  0
   58.1405   27.2191   43.1125 H   0  0  0  0  0  0  0  0  0  0  0  0
  1  2  1  0
  2  3  1  0
  3  4  1  0
  4  5  1  0
  5  6  1  0
  6  7  1  0
  7  8  2  0
  8  9  1  0
  9 10  2  0
 10 11  1  0
 11 12  2  0
  4 13  2  0
 13 14  1  0
 14 15  2  0
 14 16  1  0
 16 17  1  0
 17 18  2  0
 18 19  1  0
 19 20  2  0
 20 21  1  0
 21 22  2  0
 16  2  2  0
 22 17  1  0
 12  7  1  0
  1 23  1  0
  1 24  1  0
  1 25  1  0
  6 26  1  0
  6 27  1  0
  8 28  1  0
  9 29  1  0
 10 30  1  0
 11 31  1  0
 12 32  1  0
 18 33  1  0
 19 34  1  0
 20 35  1  0
 21 36  1  0
 22 37  1  0
M  CHG  1   3  -1
M  END
>  <UniqueID>  (64) 
60

>  <SMILES>  (64) 
Cc1[n-]c(SCc2ccccc2)nc(=O)c1-c1ccccc1

>  <Energy>  (64) 
43.14701597245827

>  <Genealogy>  (64) 
Cc1[n-]c(SCc2ccccc2)nc(=O)c1-c1ccccc1 (protonated)
Cc1[n-]c(SCc2ccccc2)nc(=O)c1-c1ccccc1 (3D coordinates assigned)
Cc1[n-]c(SCc2ccccc2)nc(=O)c1-c1ccccc1 (optimized conformer: 43.14701597245827 kcal/mol)

>  <smiles>  (64) 
Cc1[nH]c(SCc2ccccc2)nc(=O)c1-c1ccccc1

>  <score_type>  (64) 
oracle

>  <origin>  (64) 
adg

>  <m_score__min__energy>  (64) 
-9.75

>  <m_primary>  (64) 
energy

$$$$
64:0
     RDKit          3D

 41 43  0  0  0  0  0  0  0  0999 V2000
   57.5656   30.8219   43.4211 H   0  0  0  0  0  0  0  0  0  0  0  0
   57.4480   30.7790   44.5140 C   0  0  0  0  0  0  0  0  0  0  0  0
   57.3160   31.9020   45.1610 N   0  0  0  0  0  0  0  0  0  0  0  0
   58.3710   32.7720   45.6060 C   0  0  0  0  0  0  0  0  0  0  0  0
   58.3650   34.1460   45.3070 C   0  0  0  0  0  0  0  0  0  0  0  0
   57.5555   34.5709   44.6954 H   0  0  0  0  0  0  0  0  0  0  0  0
   59.3850   34.9730   45.7850 C   0  0  0  0  0  0  0  0  0  0  0  0
   59.3824   36.0455   45.5404 H   0  0  0  0  0  0  0  0  0  0  0  0
   60.4080   34.4400   46.5730 C   0  0  0  0  0  0  0  0  0  0  0  0
   61.2111   35.0938   46.9439 H   0  0  0  0  0  0  0  0  0  0  0  0
   60.4150   33.0750   46.8930 C   0  0  0  0  0  0  0  0  0  0  0  0
   61.7160   32.3990   47.8770 S   0  0  0  0  0  0  0  0  0  0  0  0
   62.4050   33.5110   48.6180 O   0  0  0  0  0  0  0  0  0  0  0  0
   62.7260   31.7430   46.9780 O   0  0  0  0  0  0  0  0  0  0  0  0
   61.1120   31.2320   49.0310 N   0  0  0  0  0  0  0  0  0  0  0  0
   60.0820   31.8200   49.9150 C   0  0  0  0  0  0  0  0  0  0  0  0
   60.2943   31.5243   50.9530 H   0  0  0  0  0  0  0  0  0  0  0  0
   60.1174   32.9131   49.7971 H   0  0  0  0  0  0  0  0  0  0  0  0
   58.6650   31.3480   49.5440 C   0  0  0  0  0  0  0  0  0  0  0  0
   57.9498   31.8056   50.2434 H   0  0  0  0  0  0  0  0  0  0  0  0
   58.4802   31.6550   48.5040 H   0  0  0  0  0  0  0  0  0  0  0  0
   58.5120   29.9360   49.6010 O   0  0  0  0  0  0  0  0  0  0  0  0
   59.6830   29.2170   49.2290 C   0  0  0  0  0  0  0  0  0  0  0  0
   60.2160   28.9266   50.1464 H   0  0  0  0  0  0  0  0  0  0  0  0
   59.3490   28.3507   48.6391 H   0  0  0  0  0  0  0  0  0  0  0  0
   60.6520   30.0120   48.3390 C   0  0  0  0  0  0  0  0  0  0  0  0
   61.5218   29.3826   48.0996 H   0  0  0  0  0  0  0  0  0  0  0  0
   60.1278   30.3039   47.4170 H   0  0  0  0  0  0  0  0  0  0  0  0
   59.3810   32.2500   46.4230 C   0  0  0  0  0  0  0  0  0  0  0  0
   59.3642   31.1853   46.6987 H   0  0  0  0  0  0  0  0  0  0  0  0
   57.4490   29.4510   45.1620 C   0  0  0  0  0  0  0  0  0  0  0  0
   58.6570   28.9290   45.6450 C   0  0  0  0  0  0  0  0  0  0  0  0
   59.5862   29.5072   45.5338 H   0  0  0  0  0  0  0  0  0  0  0  0
   58.6870   27.6780   46.2670 C   0  0  0  0  0  0  0  0  0  0  0  0
   59.6364   27.2803   46.6549 H   0  0  0  0  0  0  0  0  0  0  0  0
   57.5140   26.9320   46.3970 C   0  0  0  0  0  0  0  0  0  0  0  0
   57.5378   25.9541   46.9001 H   0  0  0  0  0  0  0  0  0  0  0  0
   56.3080   27.4270   45.8880 C   0  0  0  0  0  0  0  0  0  0  0  0
   55.1490   26.6700   46.0040 O   0  0  0  0  0  0  0  0  0  0  0  0
   56.2730   28.6770   45.2590 C   0  0  0  0  0  0  0  0  0  0  0  0
   55.0770   29.1340   44.7130 O   0  0  0  0  0  0  0  0  0  0  0  0
  1  2  1  0
  2  3  2  0
  3  4  1  0
  4  5  2  0
  5  6  1  0
  5  7  1  0
  7  8  1  0
  7  9  2  0
  9 10  1  0
  9 11  1  0
 11 12  1  0
 12 13  2  0
 12 14  2  0
 12 15  1  0
 15 16  1  0
 16 17  1  0
 16 18  1  0
 16 19  1  0
 19 20  1  0
 19 21  1  0
 19 22  1  0
 22 23  1  0
 23 24  1  0
 23 25  1  0
 23 26  1  0
 26 27  1  0
 26 28  1  0
 11 29  2  0
 29 30  1  0
  2 31  1  0
 31 32  2  0
 32 33  1  0
 32 34  1  0
 34 35  1  0
 34 36  2  0
 36 37  1  0
 36 38  1  0
 38 39  1  0
 38 40  2  0
 40 41  1  0
 29  4  1  0
 40 31  1  0
 26 15  1  0
M  CHG  2  39  -1  41  -1
M  END
>  <UniqueID>  (65) 
61

>  <SMILES>  (65) 
O=S(=O)(c1cccc(/N=C\c2cccc([O-])c2[O-])c1)N1CCOCC1

>  <Energy>  (65) 
66.32745673105343

>  <Genealogy>  (65) 
O=S(=O)(c1cccc(N=Cc2cccc([O-])c2[O-])c1)N1CCOCC1 (protonated)
O=S(=O)(c1cccc(/N=C\c2cccc([O-])c2[O-])c1)N1CCOCC1 (cis-trans isomerization)
O=S(=O)(c1cccc(/N=C\c2cccc([O-])c2[O-])c1)N1CCOCC1 (3D coordinates assigned)
O=S(=O)(c1cccc(/N=C\c2cccc([O-])c2[O-])c1)N1CCOCC1 (nonaromatic ring conformer: 66.32745673105343 kcal/mol)

>  <smiles>  (65) 
O=S(=O)(c1cccc(N=Cc2cccc(O)c2O)c1)N1CCOCC1

>  <score_type>  (65) 
oracle

>  <origin>  (65) 
adg

>  <m_score__min__energy>  (65) 
-16.859999999999999

>  <m_primary>  (65) 
energy

$$$$
65:0
     RDKit          3D

 44 46  0  0  0  0  0  0  0  0999 V2000
   63.3200   34.1440   46.3380 C   0  0  0  0  0  0  0  0  0  0  0  0
   63.0850   33.2300   47.5120 C   0  0  0  0  0  0  0  0  0  0  0  0
   64.1030   33.0880   48.4730 C   0  0  0  0  0  0  0  0  0  0  0  0
   63.9130   32.2870   49.5990 C   0  0  0  0  0  0  0  0  0  0  0  0
   62.7000   31.6300   49.7910 C   0  0  0  0  0  0  0  0  0  0  0  0
   61.6820   31.7490   48.8450 C   0  0  0  0  0  0  0  0  0  0  0  0
   61.8570   32.5380   47.6940 C   0  0  0  0  0  0  0  0  0  0  0  0
   60.7100   32.6360   46.7110 C   0  0  0  0  0  0  0  0  0  0  0  0
   59.7010   34.0890   46.9960 S   0  0  0  0  0  0  0  0  0  0  0  0
   59.9080   34.5890   48.3990 O   0  0  0  0  0  0  0  0  0  0  0  0
   60.1480   35.1570   46.0380 O   0  0  0  0  0  0  0  0  0  0  0  0
   57.9630   33.7790   46.7100 C   0  0  0  0  0  0  0  0  0  0  0  0
   57.7540   32.9440   45.4860 C   0  0  0  0  0  0  0  0  0  0  0  0
   58.2000   33.2430   44.2140 C   0  0  0  0  0  0  0  0  0  0  0  0
   57.7780   32.2040   43.4140 C   0  0  0  0  0  0  0  0  0  0  0  0
   57.0880   31.3440   44.2490 C   0  0  0  0  0  0  0  0  0  0  0  0
   56.4220   30.0950   43.8470 C   0  0  0  0  0  0  0  0  0  0  0  0
   56.2300   29.8580   42.6250 O   0  0  0  0  0  0  0  0  0  0  0  0
   56.0620   29.1070   44.8190 N   0  0  0  0  0  0  0  0  0  0  0  0
   56.8430   28.2270   45.3900 C   0  0  0  0  0  0  0  0  0  0  0  0
   58.1910   28.4460   45.3570 N   0  0  0  0  0  0  0  0  0  0  0  0
   59.0750   27.6030   45.9570 C   0  0  0  0  0  0  0  0  0  0  0  0
   58.6220   26.4650   46.6200 C   0  0  0  0  0  0  0  0  0  0  0  0
   57.2580   26.1900   46.6460 C   0  0  0  0  0  0  0  0  0  0  0  0
   56.3560   27.0530   46.0200 C   0  0  0  0  0  0  0  0  0  0  0  0
   55.0100   26.7050   46.0040 O   0  0  0  0  0  0  0  0  0  0  0  0
   57.0920   31.8110   45.4770 O   0  0  0  0  0  0  0  0  0  0  0  0
   63.5785   35.1493   46.7020 H   0  0  0  0  0  0  0  0  0  0  0  0
   64.1464   33.7514   45.7273 H   0  0  0  0  0  0  0  0  0  0  0  0
   62.4067   34.1987   45.7273 H   0  0  0  0  0  0  0  0  0  0  0  0
   65.0589   33.6144   48.3348 H   0  0  0  0  0  0  0  0  0  0  0  0
   64.7218   32.1741   50.3359 H   0  0  0  0  0  0  0  0  0  0  0  0
   62.5446   31.0161   50.6904 H   0  0  0  0  0  0  0  0  0  0  0  0
   60.7307   31.2193   49.0011 H   0  0  0  0  0  0  0  0  0  0  0  0
   61.1198   32.6831   45.6913 H   0  0  0  0  0  0  0  0  0  0  0  0
   60.0727   31.7494   46.8443 H   0  0  0  0  0  0  0  0  0  0  0  0
   57.5454   33.2507   47.5798 H   0  0  0  0  0  0  0  0  0  0  0  0
   57.4578   34.7448   46.5619 H   0  0  0  0  0  0  0  0  0  0  0  0
   58.7740   34.1284   43.9034 H   0  0  0  0  0  0  0  0  0  0  0  0
   57.9534   32.0833   42.3348 H   0  0  0  0  0  0  0  0  0  0  0  0
   58.5650   29.2960   44.8780 H   0  0  0  0  0  0  0  0  0  0  0  0
   60.1524   27.8214   45.9182 H   0  0  0  0  0  0  0  0  0  0  0  0
   59.3346   25.7909   47.1177 H   0  0  0  0  0  0  0  0  0  0  0  0
   56.8894   25.2906   47.1610 H   0  0  0  0  0  0  0  0  0  0  0  0
  1  2  1  0
  2  3  2  0
  3  4  1  0
  4  5  2  0
  5  6  1  0
  6  7  2  0
  7  8  1  0
  8  9  1  0
  9 10  2  0
  9 11  2  0
  9 12  1  0
 12 13  1  0
 13 14  2  0
 14 15  1  0
 15 16  2  0
 16 17  1  0
 17 18  2  0
 17 19  1  0
 19 20  2  3
 20 21  1  0
 21 22  1  0
 22 23  2  0
 23 24  1  0
 24 25  2  0
 25 26  1  0
 16 27  1  0
  7  2  1  0
 27 13  1  0
 25 20  1  0
  1 28  1  0
  1 29  1  0
  1 30  1  0
  3 31  1  0
  4 32  1  0
  5 33  1  0
  6 34  1  0
  8 35  1  0
  8 36  1  0
 12 37  1  0
 12 38  1  0
 14 39  1  0
 15 40  1  0
 21 41  1  0
 22 42  1  0
 23 43  1  0
 24 44  1  0
M  CHG  1  26  -1
M  END
>  <UniqueID>  (66) 
62

>  <SMILES>  (66) 
Cc1ccccc1CS(=O)(=O)Cc1ccc(C(=O)N=c2[nH]cccc2[O-])o1

>  <Energy>  (66) 
73.84494882541956

>  <Genealogy>  (66) 
Cc1ccccc1CS(=O)(=O)Cc1ccc(C(=O)N=c2[nH]cccc2[O-])o1 (protonated)
Cc1ccccc1CS(=O)(=O)Cc1ccc(C(=O)N=c2[nH]cccc2[O-])o1 (3D coordinates assigned)
Cc1ccccc1CS(=O)(=O)Cc1ccc(C(=O)N=c2[nH]cccc2[O-])o1 (optimized conformer: 73.84494882541956 kcal/mol)

>  <smiles>  (66) 
Cc1ccccc1CS(=O)(=O)Cc1ccc(C(=O)N=c2[nH]cccc2O)o1

>  <score_type>  (66) 
oracle

>  <origin>  (66) 
adg

>  <m_score__min__energy>  (66) 
-13.43

>  <m_primary>  (66) 
energy

$$$$
66:0
     RDKit          3D

 54 57  0  0  0  0  0  0  0  0999 V2000
   55.9210   29.7140   43.0560 C   0  0  0  0  0  0  0  0  0  0  0  0
   56.5890   30.6350   42.2020 O   0  0  0  0  0  0  0  0  0  0  0  0
   57.5960   31.4890   42.6530 C   0  0  0  0  0  0  0  0  0  0  0  0
   58.3390   32.0810   41.8220 O   0  0  0  0  0  0  0  0  0  0  0  0
   57.8100   31.7120   44.0960 C   0  0  0  0  0  0  0  0  0  0  0  0
   57.6770   32.9470   44.7360 C   0  0  0  0  0  0  0  0  0  0  0  0
   57.9320   32.8240   46.0590 N   0  0  0  0  0  0  0  0  0  0  0  0
   57.8670   33.8840   47.0640 C   0  0  0  0  0  0  0  0  0  0  0  0
   59.2350   34.1550   47.6120 C   0  0  0  0  0  0  0  0  0  0  0  0
   59.7600   35.2880   47.4430 O   0  0  0  0  0  0  0  0  0  0  0  0
   59.9270   33.1330   48.3440 N   0  0  0  0  0  0  0  0  0  0  0  0
   61.3460   33.1550   48.5840 C   0  0  0  0  0  0  0  0  0  0  0  0
   61.9100   34.1610   49.3910 C   0  0  0  0  0  0  0  0  0  0  0  0
   63.2900   34.2160   49.5950 C   0  0  0  0  0  0  0  0  0  0  0  0
   64.1250   33.2780   48.9880 C   0  0  0  0  0  0  0  0  0  0  0  0
   63.5830   32.2820   48.1730 C   0  0  0  0  0  0  0  0  0  0  0  0
   62.1940   32.2060   47.9660 C   0  0  0  0  0  0  0  0  0  0  0  0
   61.6370   31.1280   47.0770 C   0  0  0  0  0  0  0  0  0  0  0  0
   58.2180   31.5270   46.2620 C   0  0  0  0  0  0  0  0  0  0  0  0
   58.5140   30.9570   47.4550 N   0  0  0  0  0  0  0  0  0  0  0  0
   58.7690   29.6180   47.4960 C   0  0  0  0  0  0  0  0  0  0  0  0
   59.1320   28.9650   48.7930 C   0  0  0  0  0  0  0  0  0  0  0  0
   59.9620   29.8280   49.5690 O   0  0  0  0  0  0  0  0  0  0  0  0
   59.5040   30.8320   50.4390 C   0  0  0  0  0  0  0  0  0  0  0  0
   58.1240   31.0580   50.5170 C   0  0  0  0  0  0  0  0  0  0  0  0
   57.6130   32.0420   51.3710 C   0  0  0  0  0  0  0  0  0  0  0  0
   58.4800   32.8100   52.1510 C   0  0  0  0  0  0  0  0  0  0  0  0
   57.9830   33.7630   52.9790 F   0  0  0  0  0  0  0  0  0  0  0  0
   59.8590   32.5980   52.0760 C   0  0  0  0  0  0  0  0  0  0  0  0
   60.3730   31.6170   51.2230 C   0  0  0  0  0  0  0  0  0  0  0  0
   58.7300   28.8750   46.3470 N   0  0  0  0  0  0  0  0  0  0  0  0
   58.4260   29.4360   45.1420 C   0  0  0  0  0  0  0  0  0  0  0  0
   58.3930   28.7190   44.1100 O   0  0  0  0  0  0  0  0  0  0  0  0
   58.1590   30.8080   45.1000 C   0  0  0  0  0  0  0  0  0  0  0  0
   56.1144   29.9806   44.1055 H   0  0  0  0  0  0  0  0  0  0  0  0
   54.8390   29.7520   42.8614 H   0  0  0  0  0  0  0  0  0  0  0  0
   56.2931   28.6973   42.8614 H   0  0  0  0  0  0  0  0  0  0  0  0
   57.4034   33.8871   44.2346 H   0  0  0  0  0  0  0  0  0  0  0  0
   57.4716   34.8005   46.6018 H   0  0  0  0  0  0  0  0  0  0  0  0
   57.2064   33.5646   47.8835 H   0  0  0  0  0  0  0  0  0  0  0  0
   59.3660   32.3330   48.7140 H   0  0  0  0  0  0  0  0  0  0  0  0
   61.2582   34.9098   49.8647 H   0  0  0  0  0  0  0  0  0  0  0  0
   63.7195   35.0004   50.2355 H   0  0  0  0  0  0  0  0  0  0  0  0
   65.2119   33.3229   49.1515 H   0  0  0  0  0  0  0  0  0  0  0  0
   64.2476   31.5512   47.6891 H   0  0  0  0  0  0  0  0  0  0  0  0
   61.2199   30.3207   47.6969 H   0  0  0  0  0  0  0  0  0  0  0  0
   60.8440   31.5498   46.4420 H   0  0  0  0  0  0  0  0  0  0  0  0
   62.4398   30.7252   46.4420 H   0  0  0  0  0  0  0  0  0  0  0  0
   58.2137   28.7424   49.3562 H   0  0  0  0  0  0  0  0  0  0  0  0
   59.6813   28.0354   48.5831 H   0  0  0  0  0  0  0  0  0  0  0  0
   57.4368   30.4578   49.9026 H   0  0  0  0  0  0  0  0  0  0  0  0
   56.5275   32.2106   51.4278 H   0  0  0  0  0  0  0  0  0  0  0  0
   60.5417   33.2043   52.6895 H   0  0  0  0  0  0  0  0  0  0  0  0
   61.4597   31.4572   51.1635 H   0  0  0  0  0  0  0  0  0  0  0  0
  1  2  1  0
  2  3  1  0
  3  4  2  0
  3  5  1  0
  5  6  2  0
  6  7  1  0
  7  8  1  0
  8  9  1  0
  9 10  2  0
  9 11  1  0
 11 12  1  0
 12 13  2  0
 13 14  1  0
 14 15  2  0
 15 16  1  0
 16 17  2  0
 17 18  1  0
  7 19  1  0
 19 20  1  0
 20 21  2  0
 21 22  1  0
 22 23  1  0
 23 24  1  0
 24 25  2  0
 25 26  1  0
 26 27  2  0
 27 28  1  0
 27 29  1  0
 29 30  2  0
 21 31  1  0
 31 32  1  0
 32 33  2  0
 32 34  1  0
 34  5  1  0
 17 12  1  0
 34 19  2  0
 30 24  1  0
  1 35  1  0
  1 36  1  0
  1 37  1  0
  6 38  1  0
  8 39  1  0
  8 40  1  0
 11 41  1  0
 13 42  1  0
 14 43  1  0
 15 44  1  0
 16 45  1  0
 18 46  1  0
 18 47  1  0
 18 48  1  0
 22 49  1  0
 22 50  1  0
 25 51  1  0
 26 52  1  0
 29 53  1  0
 30 54  1  0
M  CHG  1  31  -1
M  END
>  <UniqueID>  (67) 
63

>  <SMILES>  (67) 
COC(=O)c1cn(CC(=O)Nc2ccccc2C)c2nc(COc3ccc(F)cc3)[n-]c(=O)c12

>  <Energy>  (67) 
95.42711148475054

>  <Genealogy>  (67) 
COC(=O)c1cn(CC(=O)Nc2ccccc2C)c2nc(COc3ccc(F)cc3)[n-]c(=O)c12 (protonated)
COC(=O)c1cn(CC(=O)Nc2ccccc2C)c2nc(COc3ccc(F)cc3)[n-]c(=O)c12 (3D coordinates assigned)
COC(=O)c1cn(CC(=O)Nc2ccccc2C)c2nc(COc3ccc(F)cc3)[n-]c(=O)c12 (optimized conformer: 95.42711148475054 kcal/mol)

>  <smiles>  (67) 
COC(=O)c1cn(CC(=O)Nc2ccccc2C)c2nc(COc3ccc(F)cc3)[nH]c(=O)c12

>  <score_type>  (67) 
oracle

>  <origin>  (67) 
adg

>  <m_score__min__energy>  (67) 
-9.9900000000000002

>  <m_primary>  (67) 
energy

$$$$
67:0
     RDKit          3D

 60 64  0  0  0  0  0  0  0  0999 V2000
   63.4100   33.3370   47.4100 C   0  0  0  0  0  0  0  0  0  0  0  0
   62.3820   33.7740   46.3730 C   0  0  0  0  0  0  0  0  0  0  0  0
   61.2690   34.3980   47.0110 O   0  0  0  0  0  0  0  0  0  0  0  0
   60.1350   34.8400   46.3170 C   0  0  0  0  0  0  0  0  0  0  0  0
   60.0210   36.0560   45.9990 O   0  0  0  0  0  0  0  0  0  0  0  0
   59.0730   33.8750   45.9530 C   0  0  0  0  0  0  0  0  0  0  0  0
   58.3770   33.9980   44.7390 C   0  0  0  0  0  0  0  0  0  0  0  0
   57.4030   33.0600   44.3820 C   0  0  0  0  0  0  0  0  0  0  0  0
   57.1120   31.9830   45.2270 C   0  0  0  0  0  0  0  0  0  0  0  0
   56.0640   31.0790   44.8520 N   0  0  0  0  0  0  0  0  0  0  0  0
   56.2370   29.7440   44.3720 C   0  0  0  0  0  0  0  0  0  0  0  0
   56.7100   29.5390   43.2230 O   0  0  0  0  0  0  0  0  0  0  0  0
   55.8650   28.6310   45.1920 N   0  0  0  0  0  0  0  0  0  0  0  0
   56.7490   27.4970   45.4560 C   0  0  0  0  0  0  0  0  0  0  0  0
   58.1470   27.9910   45.7320 C   0  0  0  0  0  0  0  0  0  0  0  0
   58.4330   28.6200   46.9550 C   0  0  0  0  0  0  0  0  0  0  0  0
   59.6490   29.2940   47.1510 C   0  0  0  0  0  0  0  0  0  0  0  0
   59.8530   30.1160   48.3690 C   0  0  0  0  0  0  0  0  0  0  0  0
   60.9910   30.9290   48.5010 C   0  0  0  0  0  0  0  0  0  0  0  0
   61.2150   31.6440   49.6800 C   0  0  0  0  0  0  0  0  0  0  0  0
   60.3100   31.5540   50.7390 C   0  0  0  0  0  0  0  0  0  0  0  0
   59.1640   30.7480   50.6280 C   0  0  0  0  0  0  0  0  0  0  0  0
   58.2170   30.6360   51.7580 C   0  0  0  0  0  0  0  0  0  0  0  0
   56.9620   30.1260   51.6250 N   0  0  0  0  0  0  0  0  0  0  0  0
   56.4830   30.1910   52.8750 C   0  0  0  0  0  0  0  0  0  0  0  0
   55.2340   29.7800   53.3340 C   0  0  0  0  0  0  0  0  0  0  0  0
   54.9630   29.9240   54.7080 C   0  0  0  0  0  0  0  0  0  0  0  0
   55.9340   30.4740   55.5740 C   0  0  0  0  0  0  0  0  0  0  0  0
   57.1870   30.8790   55.0740 C   0  0  0  0  0  0  0  0  0  0  0  0
   57.4200   30.7180   53.7100 C   0  0  0  0  0  0  0  0  0  0  0  0
   58.5370   31.0080   53.0280 N   0  0  0  0  0  0  0  0  0  0  0  0
   58.9430   30.0320   49.4380 C   0  0  0  0  0  0  0  0  0  0  0  0
   60.6220   29.2540   46.1400 C   0  0  0  0  0  0  0  0  0  0  0  0
   60.3680   28.5810   44.9410 C   0  0  0  0  0  0  0  0  0  0  0  0
   59.1290   27.9700   44.7240 C   0  0  0  0  0  0  0  0  0  0  0  0
   58.8740   27.3590   43.5000 O   0  0  0  0  0  0  0  0  0  0  0  0
   57.7810   31.8740   46.4590 C   0  0  0  0  0  0  0  0  0  0  0  0
   58.7580   32.8090   46.8150 C   0  0  0  0  0  0  0  0  0  0  0  0
   63.0079   33.5079   48.4195 H   0  0  0  0  0  0  0  0  0  0  0  0
   63.6306   32.2673   47.2794 H   0  0  0  0  0  0  0  0  0  0  0  0
   64.3334   33.9204   47.2794 H   0  0  0  0  0  0  0  0  0  0  0  0
   62.8486   34.4875   45.6779 H   0  0  0  0  0  0  0  0  0  0  0  0
   62.0292   32.8885   45.8239 H   0  0  0  0  0  0  0  0  0  0  0  0
   58.5996   34.8379   44.0645 H   0  0  0  0  0  0  0  0  0  0  0  0
   56.8619   33.1695   43.4305 H   0  0  0  0  0  0  0  0  0  0  0  0
   56.3789   26.9416   46.3304 H   0  0  0  0  0  0  0  0  0  0  0  0
   56.7647   26.8368   44.5763 H   0  0  0  0  0  0  0  0  0  0  0  0
   57.6948   28.5841   47.7697 H   0  0  0  0  0  0  0  0  0  0  0  0
   61.7096   31.0030   47.6715 H   0  0  0  0  0  0  0  0  0  0  0  0
   62.1075   32.2801   49.7742 H   0  0  0  0  0  0  0  0  0  0  0  0
   60.4948   32.1171   51.6657 H   0  0  0  0  0  0  0  0  0  0  0  0
   54.4856   29.3578   52.6472 H   0  0  0  0  0  0  0  0  0  0  0  0
   53.9894   29.6063   55.1095 H   0  0  0  0  0  0  0  0  0  0  0  0
   55.7103   30.5867   56.6451 H   0  0  0  0  0  0  0  0  0  0  0  0
   57.9538   31.3069   55.7366 H   0  0  0  0  0  0  0  0  0  0  0  0
   58.0484   29.3992   49.3422 H   0  0  0  0  0  0  0  0  0  0  0  0
   61.5895   29.7548   46.2918 H   0  0  0  0  0  0  0  0  0  0  0  0
   61.1462   28.5320   44.1651 H   0  0  0  0  0  0  0  0  0  0  0  0
   57.5349   31.0503   47.1452 H   0  0  0  0  0  0  0  0  0  0  0  0
   59.2840   32.7102   47.7760 H   0  0  0  0  0  0  0  0  0  0  0  0
  1  2  1  0
  2  3  1  0
  3  4  1  0
  4  5  2  0
  4  6  1  0
  6  7  2  0
  7  8  1  0
  8  9  2  0
  9 10  1  0
 10 11  1  0
 11 12  2  0
 11 13  1  0
 13 14  1  0
 14 15  1  0
 15 16  2  0
 16 17  1  0
 17 18  1  0
 18 19  2  0
 19 20  1  0
 20 21  2  0
 21 22  1  0
 22 23  1  0
 23 24  2  0
 24 25  1  0
 25 26  2  0
 26 27  1  0
 27 28  2  0
 28 29  1  0
 29 30  2  0
 30 31  1  0
 22 32  2  0
 17 33  2  0
 33 34  1  0
 34 35  2  0
 35 36  1  0
  9 37  1  0
 37 38  2  0
 38  6  1  0
 35 15  1  0
 32 18  1  0
 31 23  1  0
 30 25  1  0
  1 39  1  0
  1 40  1  0
  1 41  1  0
  2 42  1  0
  2 43  1  0
  7 44  1  0
  8 45  1  0
 14 46  1  0
 14 47  1  0
 16 48  1  0
 19 49  1  0
 20 50  1  0
 21 51  1  0
 26 52  1  0
 27 53  1  0
 28 54  1  0
 29 55  1  0
 32 56  1  0
 33 57  1  0
 34 58  1  0
 37 59  1  0
 38 60  1  0
M  CHG  4  10  -1  13  -1  31  -1  36  -1
M  END
>  <UniqueID>  (68) 
64

>  <SMILES>  (68) 
CCOC(=O)c1ccc([N-]C(=O)[N-]Cc2cc(-c3cccc(-c4nc5ccccc5[n-]4)c3)ccc2[O-])cc1

>  <Energy>  (68) 
98.10588857885588

>  <Genealogy>  (68) 
CCOC(=O)c1ccc([N-]C(=O)[N-]Cc2cc(-c3cccc(-c4nc5ccccc5[n-]4)c3)ccc2[O-])cc1 (protonated)
CCOC(=O)c1ccc([N-]C(=O)[N-]Cc2cc(-c3cccc(-c4nc5ccccc5[n-]4)c3)ccc2[O-])cc1 (3D coordinates assigned)
CCOC(=O)c1ccc([N-]C(=O)[N-]Cc2cc(-c3cccc(-c4nc5ccccc5[n-]4)c3)ccc2[O-])cc1 (optimized conformer: 98.10588857885588 kcal/mol)

>  <smiles>  (68) 
CCOC(=O)c1ccc(NC(=O)NCc2cc(-c3cccc(-c4nc5ccccc5[nH]4)c3)ccc2O)cc1

>  <score_type>  (68) 
oracle

>  <origin>  (68) 
adg

>  <m_score__min__energy>  (68) 
-15.16

>  <m_primary>  (68) 
energy

$$$$
68:0
     RDKit          3D

 29 30  0  0  0  0  0  0  0  0999 V2000
   50.6500   22.2160   45.7910 C   0  0  0  0  0  0  0  0  0  0  0  0
   52.1310   22.3660   45.8980 C   0  0  0  0  0  0  0  0  0  0  0  0
   52.8740   23.0910   45.0370 N   0  0  0  0  0  0  0  0  0  0  0  0
   54.1560   22.9420   45.4420 C   0  0  0  0  0  0  0  0  0  0  0  0
   55.3120   23.5590   44.7130 C   0  0  0  0  0  0  0  0  0  0  0  0
   56.0270   24.5230   45.6060 C   0  0  0  0  0  0  0  0  0  0  0  0
   57.2610   24.3210   46.1030 N   0  0  0  0  0  0  0  0  0  0  0  0
   57.5090   25.4600   46.7860 C   0  0  0  0  0  0  0  0  0  0  0  0
   58.5850   25.6550   47.4100 O   0  0  0  0  0  0  0  0  0  0  0  0
   56.5170   26.3760   46.7450 N   0  0  0  0  0  0  0  0  0  0  0  0
   55.5890   25.7680   45.9890 C   0  0  0  0  0  0  0  0  0  0  0  0
   54.3690   26.3410   45.6520 O   0  0  0  0  0  0  0  0  0  0  0  0
   54.2360   22.0930   46.5390 C   0  0  0  0  0  0  0  0  0  0  0  0
   55.4630   21.6880   47.3070 C   0  0  0  0  0  0  0  0  0  0  0  0
   55.8380   22.7390   48.3570 C   0  0  0  0  0  0  0  0  0  0  0  0
   57.2740   23.0000   48.3420 N   0  0  0  0  0  0  0  0  0  0  0  0
   52.9370   21.7400   46.8230 C   0  0  0  0  0  0  0  0  0  0  0  0
   52.5170   20.9030   47.8490 O   0  0  0  0  0  0  0  0  0  0  0  0
   50.2122   22.1717   46.7991 H   0  0  0  0  0  0  0  0  0  0  0  0
   50.2326   23.0765   45.2475 H   0  0  0  0  0  0  0  0  0  0  0  0
   50.4136   21.2893   45.2475 H   0  0  0  0  0  0  0  0  0  0  0  0
   56.0089   22.7676   44.3997 H   0  0  0  0  0  0  0  0  0  0  0  0
   54.9355   24.0969   43.8304 H   0  0  0  0  0  0  0  0  0  0  0  0
   55.2689   20.7305   47.8125 H   0  0  0  0  0  0  0  0  0  0  0  0
   56.2991   21.5931   46.5985 H   0  0  0  0  0  0  0  0  0  0  0  0
   55.2997   23.6734   48.1397 H   0  0  0  0  0  0  0  0  0  0  0  0
   55.5601   22.3581   49.3508 H   0  0  0  0  0  0  0  0  0  0  0  0
   57.6690   22.6070   47.4570 H   0  0  0  0  0  0  0  0  0  0  0  0
   57.4090   24.0360   48.2940 H   0  0  0  0  0  0  0  0  0  0  0  0
  1  2  1  0
  2  3  1  0
  3  4  1  0
  4  5  1  0
  5  6  1  0
  6  7  1  0
  7  8  1  0
  8  9  2  0
  8 10  1  0
 10 11  1  0
 11 12  1  0
  4 13  2  0
 13 14  1  0
 14 15  1  0
 15 16  1  0
 13 17  1  0
 17 18  1  0
 17  2  2  0
 11  6  2  0
  1 19  1  0
  1 20  1  0
  1 21  1  0
  5 22  1  0
  5 23  1  0
 14 24  1  0
 14 25  1  0
 15 26  1  0
 15 27  1  0
 16 28  1  0
 16 29  1  0
M  CHG  5   3  -1   7  -1  10  -1  12  -1  18  -1
M  END
>  <UniqueID>  (69) 
65

>  <SMILES>  (69) 
Cc1[n-]c(Cc2[n-]c(=O)[n-]c2[O-])c(CCN)c1[O-]

>  <Energy>  (69) 
76.99096372326618

>  <Genealogy>  (69) 
Cc1[n-]c(Cc2[n-]c(=O)[n-]c2[O-])c(CCN)c1[O-] (protonated)
Cc1[n-]c(Cc2[n-]c(=O)[n-]c2[O-])c(CCN)c1[O-] (3D coordinates assigned)
Cc1[n-]c(Cc2[n-]c(=O)[n-]c2[O-])c(CCN)c1[O-] (optimized conformer: 76.99096372326618 kcal/mol)

>  <smiles>  (69) 
Cc1[nH]c(Cc2[nH]c(=O)[nH]c2O)c(CCN)c1O

>  <score_type>  (69) 
oracle

>  <origin>  (69) 
adg

>  <m_score__min__energy>  (69) 
-16.289999999999999

>  <m_primary>  (69) 
energy

$$$$
69:0
     RDKit          3D

 61 63  0  0  0  0  0  0  0  0999 V2000
   64.7320   32.6760   46.7710 H   0  0  0  0  0  0  0  0  0  0  0  0
   63.9820   33.3440   46.6380 O   0  0  0  0  0  0  0  0  0  0  0  0
   62.8050   33.2760   47.3790 C   0  0  0  0  0  0  0  0  0  0  0  0
   62.8450   33.1310   48.7700 C   0  0  0  0  0  0  0  0  0  0  0  0
   63.8133   33.0642   49.2876 H   0  0  0  0  0  0  0  0  0  0  0  0
   61.6580   33.0710   49.5020 C   0  0  0  0  0  0  0  0  0  0  0  0
   61.6964   32.9460   50.5942 H   0  0  0  0  0  0  0  0  0  0  0  0
   60.4140   33.1690   48.8550 C   0  0  0  0  0  0  0  0  0  0  0  0
   59.1590   33.0860   49.6350 C   0  0  0  0  0  0  0  0  0  0  0  0
   58.8720   33.9614   50.2360 H   0  0  0  0  0  0  0  0  0  0  0  0
   58.3460   32.0180   49.6610 C   0  0  0  0  0  0  0  0  0  0  0  0
   57.5450   31.9683   48.9087 H   0  0  0  0  0  0  0  0  0  0  0  0
   58.4490   30.9040   50.6270 C   0  0  0  0  0  0  0  0  0  0  0  0
   57.3900   30.4080   51.0930 O   0  0  0  0  0  0  0  0  0  0  0  0
   59.7510   30.3760   51.0830 C   0  0  0  0  0  0  0  0  0  0  0  0
   60.2950   29.1730   50.6730 C   0  0  0  0  0  0  0  0  0  0  0  0
   59.8300   28.4324   50.0058 H   0  0  0  0  0  0  0  0  0  0  0  0
   61.5390   29.0860   51.2680 C   0  0  0  0  0  0  0  0  0  0  0  0
   62.2646   28.2671   51.1543 H   0  0  0  0  0  0  0  0  0  0  0  0
   61.6960   30.2250   52.0330 C   0  0  0  0  0  0  0  0  0  0  0  0
   62.5849   30.4638   52.6353 H   0  0  0  0  0  0  0  0  0  0  0  0
   60.5990   31.0000   51.9320 N   0  0  0  0  0  0  0  0  0  0  0  0
   60.3800   32.2520   52.6520 C   0  0  0  0  0  0  0  0  0  0  0  0
   60.4131   32.0627   53.7351 H   0  0  0  0  0  0  0  0  0  0  0  0
   61.1657   32.9728   52.3815 H   0  0  0  0  0  0  0  0  0  0  0  0
   59.3963   32.6633   52.3815 H   0  0  0  0  0  0  0  0  0  0  0  0
   60.3670   33.2910   47.4530 C   0  0  0  0  0  0  0  0  0  0  0  0
   59.1130   33.3630   46.8230 O   0  0  0  0  0  0  0  0  0  0  0  0
   58.8670   32.9980   45.4690 C   0  0  0  0  0  0  0  0  0  0  0  0
   59.2194   33.7999   44.8035 H   0  0  0  0  0  0  0  0  0  0  0  0
   59.4039   32.0662   45.2378 H   0  0  0  0  0  0  0  0  0  0  0  0
   57.4020   32.7910   45.2660 C   0  0  0  0  0  0  0  0  0  0  0  0
   56.6090   33.7640   45.3780 O   0  0  0  0  0  0  0  0  0  0  0  0
   56.9160   31.5060   44.8760 N   0  0  0  0  0  0  0  0  0  0  0  0
   57.4400   30.2660   45.4290 C   0  0  0  0  0  0  0  0  0  0  0  0
   58.4264   30.0585   44.9886 H   0  0  0  0  0  0  0  0  0  0  0  0
   57.5335   30.3675   46.5203 H   0  0  0  0  0  0  0  0  0  0  0  0
   56.5080   29.1330   45.1170 C   0  0  0  0  0  0  0  0  0  0  0  0
   55.2680   29.3530   45.0630 O   0  0  0  0  0  0  0  0  0  0  0  0
   56.9820   27.8020   44.8660 N   0  0  0  0  0  0  0  0  0  0  0  0
   57.1870   26.7570   45.8710 C   0  0  2  0  0  0  0  0  0  0  0  0
   57.8933   26.0139   45.4725 H   0  0  0  0  0  0  0  0  0  0  0  0
   55.8890   26.0680   46.1790 C   0  0  0  0  0  0  0  0  0  0  0  0
   54.7910   26.6550   45.9920 O   0  0  0  0  0  0  0  0  0  0  0  0
   55.9000   24.7870   46.7170 O   0  0  0  0  0  0  0  0  0  0  0  0
   57.7720   27.3730   47.1500 C   0  0  0  0  0  0  0  0  0  0  0  0
   57.0023   27.9898   47.6369 H   0  0  0  0  0  0  0  0  0  0  0  0
   58.0917   26.5586   47.8168 H   0  0  0  0  0  0  0  0  0  0  0  0
   58.9690   28.2350   46.8360 C   0  0  0  0  0  0  0  0  0  0  0  0
   59.3280   29.2930   47.6880 C   0  0  0  0  0  0  0  0  0  0  0  0
   58.7497   29.4785   48.6052 H   0  0  0  0  0  0  0  0  0  0  0  0
   60.4180   30.1110   47.3740 C   0  0  0  0  0  0  0  0  0  0  0  0
   60.6996   30.9334   48.0480 H   0  0  0  0  0  0  0  0  0  0  0  0
   61.1500   29.8850   46.2050 C   0  0  0  0  0  0  0  0  0  0  0  0
   62.0092   30.5273   45.9615 H   0  0  0  0  0  0  0  0  0  0  0  0
   60.7910   28.8440   45.3460 C   0  0  0  0  0  0  0  0  0  0  0  0
   61.3657   28.6691   44.4245 H   0  0  0  0  0  0  0  0  0  0  0  0
   59.7020   28.0240   45.6560 C   0  0  0  0  0  0  0  0  0  0  0  0
   59.4177   27.2099   44.9730 H   0  0  0  0  0  0  0  0  0  0  0  0
   61.5720   33.3530   46.7240 C   0  0  0  0  0  0  0  0  0  0  0  0
   61.5420   33.4630   45.6299 H   0  0  0  0  0  0  0  0  0  0  0  0
  1  2  1  0
  2  3  1  0
  3  4  2  0
  4  5  1  0
  4  6  1  0
  6  7  1  0
  6  8  2  0
  8  9  1  0
  9 10  1  0
  9 11  2  0
 11 12  1  0
 11 13  1  0
 13 14  2  0
 13 15  1  0
 15 16  2  0
 16 17  1  0
 16 18  1  0
 18 19  1  0
 18 20  2  0
 20 21  1  0
 20 22  1  0
 22 23  1  0
 23 24  1  0
 23 25  1  0
 23 26  1  0
  8 27  1  0
 27 28  1  0
 28 29  1  0
 29 30  1  0
 29 31  1  0
 29 32  1  0
 32 33  2  0
 32 34  1  0
 34 35  1  0
 35 36  1  0
 35 37  1  0
 35 38  1  0
 38 39  2  0
 38 40  1  0
 40 41  1  0
 41 42  1  6
 41 43  1  0
 43 44  2  0
 43 45  1  0
 41 46  1  0
 46 47  1  0
 46 48  1  0
 46 49  1  0
 49 50  2  0
 50 51  1  0
 50 52  1  0
 52 53  1  0
 52 54  2  0
 54 55  1  0
 54 56  1  0
 56 57  1  0
 56 58  2  0
 58 59  1  0
 27 60  2  0
 60 61  1  0
 60  3  1  0
 22 15  1  0
 58 49  1  0
M  CHG  3  34  -1  40  -1  45  -1
M  END
>  <UniqueID>  (70) 
66

>  <SMILES>  (70) 
Cn1cccc1C(=O)/C=C\c1ccc(O)cc1OCC(=O)[N-]CC(=O)[N-][C@@H](Cc1ccccc1)C(=O)[O-]

>  <Energy>  (70) 
89.25178761646508

>  <Genealogy>  (70) 
Cn1cccc1C(=O)C=Cc1ccc(O)cc1OCC(=O)[N-]CC(=O)[N-]C(Cc1ccccc1)C(=O)[O-] (protonated)
Cn1cccc1C(=O)C=Cc1ccc(O)cc1OCC(=O)[N-]CC(=O)[N-][C@@H](Cc1ccccc1)C(=O)[O-] (chirality)
Cn1cccc1C(=O)/C=C\c1ccc(O)cc1OCC(=O)[N-]CC(=O)[N-][C@@H](Cc1ccccc1)C(=O)[O-] (cis-trans isomerization)
Cn1cccc1C(=O)/C=C\c1ccc(O)cc1OCC(=O)[N-]CC(=O)[N-][C@@H](Cc1ccccc1)C(=O)[O-] (3D coordinates assigned)
Cn1cccc1C(=O)/C=C\c1ccc(O)cc1OCC(=O)[N-]CC(=O)[N-][C@@H](Cc1ccccc1)C(=O)[O-] (optimized conformer: 89.25178761646508 kcal/mol)

>  <smiles>  (70) 
Cn1cccc1C(=O)C=Cc1ccc(O)cc1OCC(=O)NCC(=O)NC(Cc1ccccc1)C(=O)O

>  <score_type>  (70) 
oracle

>  <origin>  (70) 
adg

>  <m_score__min__energy>  (70) 
-14.470000000000001

>  <m_primary>  (70) 
energy

$$$$
70:0
     RDKit          3D

 58 61  0  0  1  0  0  0  0  0999 V2000
   56.2050   22.6490   43.0300 C   0  0  0  0  0  0  0  0  0  0  0  0
   56.4120   23.8070   43.9530 C   0  0  0  0  0  0  0  0  0  0  0  0
   57.4550   24.6750   43.6430 C   0  0  0  0  0  0  0  0  0  0  0  0
   57.6600   25.7480   44.4830 C   0  0  0  0  0  0  0  0  0  0  0  0
   56.8690   25.9750   45.6040 C   0  0  0  0  0  0  0  0  0  0  0  0
   57.1780   27.1150   46.3950 N   0  0  0  0  0  0  0  0  0  0  0  0
   57.3510   28.2700   45.8320 C   0  0  0  0  0  0  0  0  0  0  0  0
   58.3130   29.1000   46.2660 N   0  0  0  0  0  0  0  0  0  0  0  0
   58.5380   30.3290   45.7100 C   0  0  0  0  0  0  0  0  0  0  0  0
   59.5500   31.1890   46.2550 C   0  0  0  0  0  0  0  0  0  0  0  0
   59.4860   32.5280   46.4780 C   0  0  0  0  0  0  0  0  0  0  0  0
   60.5010   33.2710   47.0860 C   0  0  0  0  0  0  0  0  0  0  0  0
   61.6620   32.6580   47.5030 C   0  0  0  0  0  0  0  0  0  0  0  0
   62.9530   33.5200   48.2590 S   0  0  0  0  0  0  0  0  0  0  0  0
   62.3550   34.5920   49.1380 O   0  0  0  0  0  0  0  0  0  0  0  0
   63.7540   34.2170   47.2020 O   0  0  0  0  0  0  0  0  0  0  0  0
   63.9780   32.5720   49.2120 N   0  0  0  0  0  0  0  0  0  0  0  0
   65.2970   33.0780   49.3810 C   0  0  0  0  0  0  0  0  0  0  0  0
   65.8280   32.9020   50.7870 C   0  0  0  0  0  0  0  0  0  0  0  0
   65.5650   31.6180   51.3510 N   0  0  0  0  0  0  0  0  0  0  0  0
   66.7110   30.7190   51.2510 C   0  0  0  0  0  0  0  0  0  0  0  0
   64.3940   30.9510   50.8750 C   0  0  0  0  0  0  0  0  0  0  0  0
   63.4020   32.0180   50.4030 C   0  0  0  0  0  0  0  0  0  0  0  0
   61.7520   31.3010   47.2880 C   0  0  0  0  0  0  0  0  0  0  0  0
   60.7360   30.5660   46.6820 C   0  0  0  0  0  0  0  0  0  0  0  0
   57.6930   30.6490   44.6630 C   0  0  0  0  0  0  0  0  0  0  0  0
   57.7250   31.8980   43.9990 C   0  0  0  0  0  0  0  0  0  0  0  0
   57.7690   32.9070   43.4640 N   0  0  0  0  0  0  0  0  0  0  0  0
   56.6950   29.7560   44.2310 C   0  0  0  0  0  0  0  0  0  0  0  0
   55.9050   30.0490   43.2540 N   0  0  0  0  0  0  0  0  0  0  0  0
   56.5270   28.5700   44.8170 N   0  0  0  0  0  0  0  0  0  0  0  0
   55.8350   25.1090   45.9070 C   0  0  0  0  0  0  0  0  0  0  0  0
   55.6330   24.0300   45.0570 C   0  0  0  0  0  0  0  0  0  0  0  0
   56.0416   21.7348   43.6196 H   0  0  0  0  0  0  0  0  0  0  0  0
   55.3264   22.8382   42.3957 H   0  0  0  0  0  0  0  0  0  0  0  0
   57.0947   22.5221   42.3957 H   0  0  0  0  0  0  0  0  0  0  0  0
   58.0915   24.5107   42.7610 H   0  0  0  0  0  0  0  0  0  0  0  0
   58.4775   26.4491   44.2591 H   0  0  0  0  0  0  0  0  0  0  0  0
   58.8910   28.7350   47.0610 H   0  0  0  0  0  0  0  0  0  0  0  0
   58.5776   33.0605   46.1597 H   0  0  0  0  0  0  0  0  0  0  0  0
   60.3721   34.3535   47.2328 H   0  0  0  0  0  0  0  0  0  0  0  0
   65.9659   32.5492   48.6860 H   0  0  0  0  0  0  0  0  0  0  0  0
   65.2607   34.1586   49.1784 H   0  0  0  0  0  0  0  0  0  0  0  0
   66.9172   33.0542   50.7668 H   0  0  0  0  0  0  0  0  0  0  0  0
   65.3086   33.6386   51.4175 H   0  0  0  0  0  0  0  0  0  0  0  0
   67.0547   30.4494   52.2605 H   0  0  0  0  0  0  0  0  0  0  0  0
   66.4165   29.8085   50.7086 H   0  0  0  0  0  0  0  0  0  0  0  0
   67.5252   31.2218   50.7086 H   0  0  0  0  0  0  0  0  0  0  0  0
   64.6562   30.2881   50.0373 H   0  0  0  0  0  0  0  0  0  0  0  0
   63.9486   30.3418   51.6753 H   0  0  0  0  0  0  0  0  0  0  0  0
   62.4244   31.5643   50.1829 H   0  0  0  0  0  0  0  0  0  0  0  0
   63.2312   32.7867   51.1711 H   0  0  0  0  0  0  0  0  0  0  0  0
   62.6640   30.7757   47.6081 H   0  0  0  0  0  0  0  0  0  0  0  0
   60.8631   29.4832   46.5354 H   0  0  0  0  0  0  0  0  0  0  0  0
   55.5610   29.2930   42.6100 H   0  0  0  0  0  0  0  0  0  0  0  0
   55.7870   27.9090   44.4960 H   0  0  0  0  0  0  0  0  0  0  0  0
   55.1964   25.2687   46.7883 H   0  0  0  0  0  0  0  0  0  0  0  0
   54.8161   23.3275   45.2788 H   0  0  0  0  0  0  0  0  0  0  0  0
  1  2  1  0
  2  3  2  0
  3  4  1  0
  4  5  2  0
  5  6  1  0
  6  7  2  0
  7  8  1  0
  8  9  1  0
  9 10  1  0
 10 11  2  0
 11 12  1  0
 12 13  2  0
 13 14  1  0
 14 15  2  0
 14 16  2  0
 14 17  1  0
 17 18  1  0
 18 19  1  0
 19 20  1  0
 20 21  1  0
 20 22  1  0
 22 23  1  0
 13 24  1  0
 24 25  2  0
  9 26  2  0
 26 27  1  0
 27 28  3  0
 26 29  1  0
 29 30  2  3
 29 31  1  0
  5 32  1  0
 32 33  2  0
 33  2  1  0
 31  7  1  0
 25 10  1  0
 23 17  1  0
  1 34  1  0
  1 35  1  0
  1 36  1  0
  3 37  1  0
  4 38  1  0
  8 39  1  0
 11 40  1  0
 12 41  1  0
 18 42  1  0
 18 43  1  0
 19 44  1  0
 19 45  1  0
 21 46  1  0
 21 47  1  0
 21 48  1  0
 22 49  1  0
 22 50  1  0
 23 51  1  0
 23 52  1  0
 24 53  1  0
 25 54  1  0
 30 55  1  0
 31 56  1  0
 32 57  1  0
 33 58  1  0
M  END
>  <smiles>  (71) 
Cc1ccc(N=c2[nH]c(-c3ccc(S(=O)(=O)N4CCN(C)CC4)cc3)c(C#N)c(=N)[nH]2)cc1

>  <score_type>  (71) 
oracle

>  <origin>  (71) 
adg

>  <m_score__min__energy>  (71) 
-9.1600000000000001

>  <m_primary>  (71) 
energy

$$$$
71:0
     RDKit          3D

 51 54  0  0  0  0  0  0  0  0999 V2000
   57.8970   26.0820   47.7220 O   0  0  0  0  0  0  0  0  0  0  0  0
   57.8820   27.0770   46.9460 C   0  0  0  0  0  0  0  0  0  0  0  0
   56.8070   27.1860   45.9160 C   0  0  0  0  0  0  0  0  0  0  0  0
   57.1650   28.2230   44.9540 N   0  0  0  0  0  0  0  0  0  0  0  0
   56.3940   29.4070   44.7240 C   0  0  0  0  0  0  0  0  0  0  0  0
   55.1480   29.3630   44.8950 O   0  0  0  0  0  0  0  0  0  0  0  0
   57.0200   30.6600   44.2530 C   0  0  0  0  0  0  0  0  0  0  0  0
   57.1680   30.9050   42.8780 C   0  0  0  0  0  0  0  0  0  0  0  0
   57.7710   32.0860   42.4350 C   0  0  0  0  0  0  0  0  0  0  0  0
   58.2440   33.0220   43.3570 C   0  0  0  0  0  0  0  0  0  0  0  0
   58.1260   32.7770   44.7310 C   0  0  0  0  0  0  0  0  0  0  0  0
   58.7490   33.9300   45.9050 S   0  0  0  0  0  0  0  0  0  0  0  0
   59.5650   34.9920   45.2190 O   0  0  0  0  0  0  0  0  0  0  0  0
   57.5920   34.5770   46.6140 O   0  0  0  0  0  0  0  0  0  0  0  0
   59.7540   33.1080   47.0540 N   0  0  0  0  0  0  0  0  0  0  0  0
   59.2620   32.2060   48.0930 C   0  0  0  0  0  0  0  0  0  0  0  0
   60.5180   31.7220   48.8590 C   0  0  0  0  0  0  0  0  0  0  0  0
   61.6430   32.3890   48.1400 C   0  0  0  0  0  0  0  0  0  0  0  0
   63.0110   32.2860   48.3960 C   0  0  0  0  0  0  0  0  0  0  0  0
   63.9010   33.0140   47.5850 C   0  0  0  0  0  0  0  0  0  0  0  0
   63.4090   33.8230   46.5410 C   0  0  0  0  0  0  0  0  0  0  0  0
   62.0270   33.9080   46.3020 C   0  0  0  0  0  0  0  0  0  0  0  0
   61.1660   33.1720   47.1250 C   0  0  0  0  0  0  0  0  0  0  0  0
   57.5180   31.5950   45.1750 C   0  0  0  0  0  0  0  0  0  0  0  0
   58.9200   28.0660   47.0110 N   0  0  0  0  0  0  0  0  0  0  0  0
   60.1360   27.8790   47.8020 C   0  0  0  0  0  0  0  0  0  0  0  0
   60.0070   28.5460   49.1390 C   0  0  0  0  0  0  0  0  0  0  0  0
   58.8990   29.2680   49.5690 C   0  0  0  0  0  0  0  0  0  0  0  0
   58.9970   29.6880   50.9010 C   0  0  0  0  0  0  0  0  0  0  0  0
   60.1700   29.2890   51.5300 C   0  0  0  0  0  0  0  0  0  0  0  0
   61.0820   28.4050   50.4300 S   0  0  0  0  0  0  0  0  0  0  0  0
   56.6980   26.2233   45.3951 H   0  0  0  0  0  0  0  0  0  0  0  0
   55.8555   27.4468   46.4023 H   0  0  0  0  0  0  0  0  0  0  0  0
   56.8084   30.1654   42.1474 H   0  0  0  0  0  0  0  0  0  0  0  0
   57.8732   32.2785   41.3568 H   0  0  0  0  0  0  0  0  0  0  0  0
   58.7102   33.9535   43.0035 H   0  0  0  0  0  0  0  0  0  0  0  0
   58.5806   32.7392   48.7723 H   0  0  0  0  0  0  0  0  0  0  0  0
   58.6985   31.3638   47.6651 H   0  0  0  0  0  0  0  0  0  0  0  0
   60.4822   32.0377   49.9121 H   0  0  0  0  0  0  0  0  0  0  0  0
   60.6120   30.6262   48.8789 H   0  0  0  0  0  0  0  0  0  0  0  0
   63.3847   31.6507   49.2125 H   0  0  0  0  0  0  0  0  0  0  0  0
   64.9842   32.9515   47.7663 H   0  0  0  0  0  0  0  0  0  0  0  0
   64.1098   34.3902   45.9107 H   0  0  0  0  0  0  0  0  0  0  0  0
   61.6320   34.5361   45.4899 H   0  0  0  0  0  0  0  0  0  0  0  0
   57.4302   31.3981   46.2537 H   0  0  0  0  0  0  0  0  0  0  0  0
   58.8780   28.8850   46.3660 H   0  0  0  0  0  0  0  0  0  0  0  0
   60.3081   26.8027   47.9506 H   0  0  0  0  0  0  0  0  0  0  0  0
   60.9817   28.3300   47.2621 H   0  0  0  0  0  0  0  0  0  0  0  0
   58.0328   29.4871   48.9273 H   0  0  0  0  0  0  0  0  0  0  0  0
   58.2173   30.2794   51.4033 H   0  0  0  0  0  0  0  0  0  0  0  0
   60.4528   29.5132   52.5691 H   0  0  0  0  0  0  0  0  0  0  0  0
  1  2  2  0
  2  3  1  0
  3  4  1  0
  4  5  1  0
  5  6  2  0
  5  7  1  0
  7  8  2  0
  8  9  1  0
  9 10  2  0
 10 11  1  0
 11 12  1  0
 12 13  2  0
 12 14  2  0
 12 15  1  0
 15 16  1  0
 16 17  1  0
 17 18  1  0
 18 19  2  0
 19 20  1  0
 20 21  2  0
 21 22  1  0
 22 23  2  0
 11 24  2  0
  2 25  1  0
 25 26  1  0
 26 27  1  0
 27 28  2  0
 28 29  1  0
 29 30  2  0
 30 31  1  0
 24  7  1  0
 31 27  1  0
 23 15  1  0
 23 18  1  0
  3 32  1  0
  3 33  1  0
  8 34  1  0
  9 35  1  0
 10 36  1  0
 16 37  1  0
 16 38  1  0
 17 39  1  0
 17 40  1  0
 19 41  1  0
 20 42  1  0
 21 43  1  0
 22 44  1  0
 24 45  1  0
 25 46  1  0
 26 47  1  0
 26 48  1  0
 28 49  1  0
 29 50  1  0
 30 51  1  0
M  CHG  1   4  -1
M  END
>  <UniqueID>  (72) 
67

>  <SMILES>  (72) 
O=C(C[N-]C(=O)c1cccc(S(=O)(=O)N2CCc3ccccc32)c1)NCc1cccs1

>  <Energy>  (72) 
93.18021612103945

>  <Genealogy>  (72) 
O=C(C[N-]C(=O)c1cccc(S(=O)(=O)N2CCc3ccccc32)c1)NCc1cccs1 (protonated)
O=C(C[N-]C(=O)c1cccc(S(=O)(=O)N2CCc3ccccc32)c1)NCc1cccs1 (3D coordinates assigned)
O=C(C[N-]C(=O)c1cccc(S(=O)(=O)N2CCc3ccccc32)c1)NCc1cccs1 (nonaromatic ring conformer: 93.18021612103945 kcal/mol)

>  <smiles>  (72) 
O=C(CNC(=O)c1cccc(S(=O)(=O)N2CCc3ccccc32)c1)NCc1cccs1

>  <score_type>  (72) 
oracle

>  <origin>  (72) 
adg

>  <m_score__min__energy>  (72) 
-11.59

>  <m_primary>  (72) 
energy

$$$$
72:0
     RDKit          3D

 51 54  0  0  0  0  0  0  0  0999 V2000
   52.1600   28.1140   52.3970 O   0  0  0  0  0  0  0  0  0  0  0  0
   52.6770   29.1310   52.9320 C   0  0  0  0  0  0  0  0  0  0  0  0
   53.8930   28.9710   53.6760 N   0  0  0  0  0  0  0  0  0  0  0  0
   55.1820   29.4820   53.3090 C   0  0  0  0  0  0  0  0  0  0  0  0
   55.3460   30.3510   52.2160 C   0  0  0  0  0  0  0  0  0  0  0  0
   56.6160   30.8260   51.8800 C   0  0  0  0  0  0  0  0  0  0  0  0
   57.7400   30.4490   52.6320 C   0  0  0  0  0  0  0  0  0  0  0  0
   59.0860   30.9470   52.2740 C   0  0  0  0  0  0  0  0  0  0  0  0
   59.8790   31.2980   53.1900 O   0  0  0  0  0  0  0  0  0  0  0  0
   59.5020   31.0570   50.9010 N   0  0  0  0  0  0  0  0  0  0  0  0
   60.2860   32.2300   50.4850 C   0  0  0  0  0  0  0  0  0  0  0  0
   60.7080   32.1290   49.0170 C   0  0  0  0  0  0  0  0  0  0  0  0
   59.5760   31.6590   48.2070 N   0  0  0  0  0  0  0  0  0  0  0  0
   59.1140   32.4210   47.0750 C   0  0  0  0  0  0  0  0  0  0  0  0
   59.2370   33.8210   47.0610 C   0  0  0  0  0  0  0  0  0  0  0  0
   58.8010   34.5580   45.9550 C   0  0  0  0  0  0  0  0  0  0  0  0
   58.2470   33.9040   44.8530 C   0  0  0  0  0  0  0  0  0  0  0  0
   58.1280   32.5120   44.8510 C   0  0  0  0  0  0  0  0  0  0  0  0
   57.4420   31.6910   43.4610 Cl  0  0  0  0  0  0  0  0  0  0  0  0
   58.5620   31.7720   45.9570 C   0  0  0  0  0  0  0  0  0  0  0  0
   58.8580   30.4380   48.6020 C   0  0  0  0  0  0  0  0  0  0  0  0
   59.3190   29.9280   49.9740 C   0  0  0  0  0  0  0  0  0  0  0  0
   57.5640   29.6200   53.7530 C   0  0  0  0  0  0  0  0  0  0  0  0
   56.2930   29.1430   54.0870 C   0  0  0  0  0  0  0  0  0  0  0  0
   52.0440   30.4560   52.7340 C   0  0  0  0  0  0  0  0  0  0  0  0
   51.6470   31.2380   53.8330 C   0  0  0  0  0  0  0  0  0  0  0  0
   51.0460   32.4840   53.6350 C   0  0  0  0  0  0  0  0  0  0  0  0
   50.8470   32.9710   52.3400 C   0  0  0  0  0  0  0  0  0  0  0  0
   50.2480   34.2100   52.1500 O   0  0  0  0  0  0  0  0  0  0  0  0
   51.2540   32.2090   51.2390 C   0  0  0  0  0  0  0  0  0  0  0  0
   51.0630   32.6890   49.9480 O   0  0  0  0  0  0  0  0  0  0  0  0
   51.8550   30.9600   51.4340 C   0  0  0  0  0  0  0  0  0  0  0  0
   54.4715   30.6578   51.6235 H   0  0  0  0  0  0  0  0  0  0  0  0
   56.7363   31.5006   51.0196 H   0  0  0  0  0  0  0  0  0  0  0  0
   59.6752   33.1348   50.6202 H   0  0  0  0  0  0  0  0  0  0  0  0
   61.1945   32.2757   51.1035 H   0  0  0  0  0  0  0  0  0  0  0  0
   61.0272   33.1191   48.6595 H   0  0  0  0  0  0  0  0  0  0  0  0
   61.5413   31.4168   48.9259 H   0  0  0  0  0  0  0  0  0  0  0  0
   59.6786   34.3400   47.9245 H   0  0  0  0  0  0  0  0  0  0  0  0
   58.8947   35.6540   45.9535 H   0  0  0  0  0  0  0  0  0  0  0  0
   57.9036   34.4857   43.9848 H   0  0  0  0  0  0  0  0  0  0  0  0
   58.4705   30.6758   45.9512 H   0  0  0  0  0  0  0  0  0  0  0  0
   57.7808   30.6563   48.6462 H   0  0  0  0  0  0  0  0  0  0  0  0
   59.0715   29.6579   47.8564 H   0  0  0  0  0  0  0  0  0  0  0  0
   58.5603   29.2432   50.3808 H   0  0  0  0  0  0  0  0  0  0  0  0
   60.2772   29.4005   49.8574 H   0  0  0  0  0  0  0  0  0  0  0  0
   58.4312   29.3448   54.3712 H   0  0  0  0  0  0  0  0  0  0  0  0
   56.1662   28.4966   54.9679 H   0  0  0  0  0  0  0  0  0  0  0  0
   51.8106   30.8666   54.8554 H   0  0  0  0  0  0  0  0  0  0  0  0
   50.7285   33.0834   54.5010 H   0  0  0  0  0  0  0  0  0  0  0  0
   52.1815   30.3689   50.5657 H   0  0  0  0  0  0  0  0  0  0  0  0
  1  2  2  0
  2  3  1  0
  3  4  1  0
  4  5  2  0
  5  6  1  0
  6  7  2  0
  7  8  1  0
  8  9  2  0
  8 10  1  0
 10 11  1  0
 11 12  1  0
 12 13  1  0
 13 14  1  0
 14 15  2  0
 15 16  1  0
 16 17  2  0
 17 18  1  0
 18 19  1  0
 18 20  2  0
 13 21  1  0
 21 22  1  0
  7 23  1  0
 23 24  2  0
  2 25  1  0
 25 26  2  0
 26 27  1  0
 27 28  2  0
 28 29  1  0
 28 30  1  0
 30 31  1  0
 30 32  2  0
 24  4  1  0
 32 25  1  0
 22 10  1  0
 20 14  1  0
  5 33  1  0
  6 34  1  0
 11 35  1  0
 11 36  1  0
 12 37  1  0
 12 38  1  0
 15 39  1  0
 16 40  1  0
 17 41  1  0
 20 42  1  0
 21 43  1  0
 21 44  1  0
 22 45  1  0
 22 46  1  0
 23 47  1  0
 24 48  1  0
 26 49  1  0
 27 50  1  0
 32 51  1  0
M  CHG  3   3  -1  29  -1  31  -1
M  END
>  <UniqueID>  (73) 
68

>  <SMILES>  (73) 
O=C([N-]c1ccc(C(=O)N2CCN(c3cccc(Cl)c3)CC2)cc1)c1ccc([O-])c([O-])c1

>  <Energy>  (73) 
71.08350798113491

>  <Genealogy>  (73) 
O=C([N-]c1ccc(C(=O)N2CCN(c3cccc(Cl)c3)CC2)cc1)c1ccc([O-])c([O-])c1 (protonated)
O=C([N-]c1ccc(C(=O)N2CCN(c3cccc(Cl)c3)CC2)cc1)c1ccc([O-])c([O-])c1 (3D coordinates assigned)
O=C([N-]c1ccc(C(=O)N2CCN(c3cccc(Cl)c3)CC2)cc1)c1ccc([O-])c([O-])c1 (nonaromatic ring conformer: 71.08350798113491 kcal/mol)

>  <smiles>  (73) 
O=C(Nc1ccc(C(=O)N2CCN(c3cccc(Cl)c3)CC2)cc1)c1ccc(O)c(O)c1

>  <score_type>  (73) 
oracle

>  <origin>  (73) 
adg

>  <m_score__min__energy>  (73) 
-19.949999999999999

>  <m_primary>  (73) 
energy

$$$$
73:0
     RDKit          3D

 51 53  0  0  0  0  0  0  0  0999 V2000
   57.4480   32.1560   42.1220 C   0  0  0  0  0  0  0  0  0  0  0  0
   57.8240   32.5180   43.5330 C   0  0  0  0  0  0  0  0  0  0  0  0
   58.8360   33.4690   43.7400 C   0  0  0  0  0  0  0  0  0  0  0  0
   59.1750   33.8790   45.0310 C   0  0  0  0  0  0  0  0  0  0  0  0
   58.5090   33.3460   46.1460 C   0  0  0  0  0  0  0  0  0  0  0  0
   58.8550   33.7880   47.5160 C   0  0  0  0  0  0  0  0  0  0  0  0
   58.4920   33.1150   48.5180 O   0  0  0  0  0  0  0  0  0  0  0  0
   59.5830   34.9530   47.7190 O   0  0  0  0  0  0  0  0  0  0  0  0
   57.5110   32.3780   45.9440 C   0  0  0  0  0  0  0  0  0  0  0  0
   57.1870   31.9360   44.6550 C   0  0  0  0  0  0  0  0  0  0  0  0
   56.1620   30.9440   44.5160 N   0  0  0  0  0  0  0  0  0  0  0  0
   56.3920   29.5320   44.5740 C   0  0  0  0  0  0  0  0  0  0  0  0
   55.5250   28.7630   45.0680 O   0  0  0  0  0  0  0  0  0  0  0  0
   57.6620   28.9730   44.0280 C   0  0  0  0  0  0  0  0  0  0  0  0
   58.3940   28.3620   45.0860 O   0  0  0  0  0  0  0  0  0  0  0  0
   59.0620   29.0670   46.1000 C   0  0  0  0  0  0  0  0  0  0  0  0
   58.5910   29.1120   47.4250 C   0  0  0  0  0  0  0  0  0  0  0  0
   59.2950   29.8250   48.3990 C   0  0  0  0  0  0  0  0  0  0  0  0
   60.4870   30.4960   48.0740 C   0  0  0  0  0  0  0  0  0  0  0  0
   61.2240   31.2500   49.1160 C   0  0  0  0  0  0  0  0  0  0  0  0
   61.9770   30.6280   49.9160 O   0  0  0  0  0  0  0  0  0  0  0  0
   61.1080   32.6780   49.2200 N   0  0  0  0  0  0  0  0  0  0  0  0
   61.6660   33.4040   50.3610 C   0  0  0  0  0  0  0  0  0  0  0  0
   63.1540   33.1710   50.4650 C   0  0  0  0  0  0  0  0  0  0  0  0
   63.7060   32.7530   51.6880 C   0  0  0  0  0  0  0  0  0  0  0  0
   65.0770   32.5090   51.7990 C   0  0  0  0  0  0  0  0  0  0  0  0
   65.9090   32.6700   50.6890 C   0  0  0  0  0  0  0  0  0  0  0  0
   65.3710   33.0710   49.4650 C   0  0  0  0  0  0  0  0  0  0  0  0
   63.9990   33.3200   49.3430 C   0  0  0  0  0  0  0  0  0  0  0  0
   63.3710   33.8000   47.7700 Cl  0  0  0  0  0  0  0  0  0  0  0  0
   60.9460   30.4580   46.7450 C   0  0  0  0  0  0  0  0  0  0  0  0
   60.2390   29.7460   45.7720 C   0  0  0  0  0  0  0  0  0  0  0  0
   56.6557   31.3931   42.1379 H   0  0  0  0  0  0  0  0  0  0  0  0
   57.0838   33.0521   41.5982 H   0  0  0  0  0  0  0  0  0  0  0  0
   58.3296   31.7581   41.5982 H   0  0  0  0  0  0  0  0  0  0  0  0
   59.3672   33.8954   42.8763 H   0  0  0  0  0  0  0  0  0  0  0  0
   59.9700   34.6254   45.1755 H   0  0  0  0  0  0  0  0  0  0  0  0
   56.9765   31.9613   46.8104 H   0  0  0  0  0  0  0  0  0  0  0  0
   57.4329   28.2226   43.2570 H   0  0  0  0  0  0  0  0  0  0  0  0
   58.2606   29.7802   43.5806 H   0  0  0  0  0  0  0  0  0  0  0  0
   57.6648   28.5838   47.6953 H   0  0  0  0  0  0  0  0  0  0  0  0
   58.9129   29.8616   49.4299 H   0  0  0  0  0  0  0  0  0  0  0  0
   60.6610   33.2140   48.4410 H   0  0  0  0  0  0  0  0  0  0  0  0
   61.4770   34.4799   50.2319 H   0  0  0  0  0  0  0  0  0  0  0  0
   61.1856   33.0401   51.2812 H   0  0  0  0  0  0  0  0  0  0  0  0
   63.0542   32.6171   52.5636 H   0  0  0  0  0  0  0  0  0  0  0  0
   65.5018   32.1896   52.7621 H   0  0  0  0  0  0  0  0  0  0  0  0
   66.9888   32.4807   50.7793 H   0  0  0  0  0  0  0  0  0  0  0  0
   66.0287   33.1920   48.5917 H   0  0  0  0  0  0  0  0  0  0  0  0
   61.8674   30.9921   46.4696 H   0  0  0  0  0  0  0  0  0  0  0  0
   60.6126   29.7197   44.7377 H   0  0  0  0  0  0  0  0  0  0  0  0
  1  2  1  0
  2  3  2  0
  3  4  1  0
  4  5  2  0
  5  6  1  0
  6  7  2  0
  6  8  1  0
  5  9  1  0
  9 10  2  0
 10 11  1  0
 11 12  1  0
 12 13  2  0
 12 14  1  0
 14 15  1  0
 15 16  1  0
 16 17  2  0
 17 18  1  0
 18 19  2  0
 19 20  1  0
 20 21  2  0
 20 22  1  0
 22 23  1  0
 23 24  1  0
 24 25  2  0
 25 26  1  0
 26 27  2  0
 27 28  1  0
 28 29  2  0
 29 30  1  0
 19 31  1  0
 31 32  2  0
 10  2  1  0
 32 16  1  0
 29 24  1  0
  1 33  1  0
  1 34  1  0
  1 35  1  0
  3 36  1  0
  4 37  1  0
  9 38  1  0
 14 39  1  0
 14 40  1  0
 17 41  1  0
 18 42  1  0
 22 43  1  0
 23 44  1  0
 23 45  1  0
 25 46  1  0
 26 47  1  0
 27 48  1  0
 28 49  1  0
 31 50  1  0
 32 51  1  0
M  CHG  2   8  -1  11  -1
M  END
>  <UniqueID>  (74) 
69

>  <SMILES>  (74) 
Cc1ccc(C(=O)[O-])cc1[N-]C(=O)COc1ccc(C(=O)NCc2ccccc2Cl)cc1

>  <Energy>  (74) 
60.63227335802084

>  <Genealogy>  (74) 
Cc1ccc(C(=O)[O-])cc1[N-]C(=O)COc1ccc(C(=O)NCc2ccccc2Cl)cc1 (protonated)
Cc1ccc(C(=O)[O-])cc1[N-]C(=O)COc1ccc(C(=O)NCc2ccccc2Cl)cc1 (3D coordinates assigned)
Cc1ccc(C(=O)[O-])cc1[N-]C(=O)COc1ccc(C(=O)NCc2ccccc2Cl)cc1 (optimized conformer: 60.63227335802084 kcal/mol)

>  <smiles>  (74) 
Cc1ccc(C(=O)O)cc1NC(=O)COc1ccc(C(=O)NCc2ccccc2Cl)cc1

>  <score_type>  (74) 
oracle

>  <origin>  (74) 
adg

>  <m_score__min__energy>  (74) 
-12.970000000000001

>  <m_primary>  (74) 
energy

$$$$
74:0
     RDKit          3D

 46 48  0  0  0  0  0  0  0  0999 V2000
   57.0230   21.1810   46.7640 C   0  0  0  0  0  0  0  0  0  0  0  0
   57.2110   22.3660   47.5350 O   0  0  0  0  0  0  0  0  0  0  0  0
   56.9330   23.6610   47.0670 C   0  0  0  0  0  0  0  0  0  0  0  0
   57.7160   24.7750   47.4240 C   0  0  0  0  0  0  0  0  0  0  0  0
   57.3860   26.0520   46.9530 C   0  0  0  0  0  0  0  0  0  0  0  0
   56.2820   26.2310   46.1010 C   0  0  0  0  0  0  0  0  0  0  0  0
   55.9000   27.5300   45.6230 N   0  0  0  0  0  0  0  0  0  0  0  0
   56.7910   28.6230   45.3650 C   0  0  0  0  0  0  0  0  0  0  0  0
   58.0230   28.3920   45.2620 O   0  0  0  0  0  0  0  0  0  0  0  0
   56.3190   29.9690   45.2190 N   0  0  0  0  0  0  0  0  0  0  0  0
   56.9530   31.0030   44.4490 C   0  0  0  0  0  0  0  0  0  0  0  0
   57.1870   30.8490   43.0760 C   0  0  0  0  0  0  0  0  0  0  0  0
   57.8050   31.8660   42.3600 C   0  0  0  0  0  0  0  0  0  0  0  0
   58.1620   33.0450   43.0120 C   0  0  0  0  0  0  0  0  0  0  0  0
   57.9020   33.2190   44.3430 N   0  0  0  0  0  0  0  0  0  0  0  0
   58.2920   34.4940   44.9730 C   0  0  0  0  0  0  0  0  0  0  0  0
   59.2130   34.2430   46.1410 C   0  0  0  0  0  0  0  0  0  0  0  0
   58.7170   34.2940   47.4570 C   0  0  0  0  0  0  0  0  0  0  0  0
   59.5730   34.0820   48.5410 C   0  0  0  0  0  0  0  0  0  0  0  0
   60.9310   33.8300   48.3240 C   0  0  0  0  0  0  0  0  0  0  0  0
   61.4470   33.8020   47.0160 C   0  0  0  0  0  0  0  0  0  0  0  0
   62.8960   33.4770   46.7830 C   0  0  0  0  0  0  0  0  0  0  0  0
   60.5820   34.0040   45.9260 C   0  0  0  0  0  0  0  0  0  0  0  0
   57.3080   32.2140   45.0680 C   0  0  0  0  0  0  0  0  0  0  0  0
   57.0860   32.3590   46.3020 O   0  0  0  0  0  0  0  0  0  0  0  0
   55.5040   25.1220   45.7480 C   0  0  0  0  0  0  0  0  0  0  0  0
   55.8340   23.8460   46.2200 C   0  0  0  0  0  0  0  0  0  0  0  0
   56.8868   20.3226   47.4383 H   0  0  0  0  0  0  0  0  0  0  0  0
   56.1315   21.2939   46.1295 H   0  0  0  0  0  0  0  0  0  0  0  0
   57.9056   21.0125   46.1295 H   0  0  0  0  0  0  0  0  0  0  0  0
   58.5916   24.6418   48.0763 H   0  0  0  0  0  0  0  0  0  0  0  0
   57.9935   26.9192   47.2511 H   0  0  0  0  0  0  0  0  0  0  0  0
   56.8815   29.9236   42.5658 H   0  0  0  0  0  0  0  0  0  0  0  0
   58.0111   31.7420   41.2866 H   0  0  0  0  0  0  0  0  0  0  0  0
   58.6601   33.8471   42.4476 H   0  0  0  0  0  0  0  0  0  0  0  0
   58.8090   35.1213   44.2319 H   0  0  0  0  0  0  0  0  0  0  0  0
   57.3875   35.0046   45.3350 H   0  0  0  0  0  0  0  0  0  0  0  0
   57.6512   34.5016   47.6331 H   0  0  0  0  0  0  0  0  0  0  0  0
   59.1776   34.1134   49.5670 H   0  0  0  0  0  0  0  0  0  0  0  0
   61.5987   33.6529   49.1800 H   0  0  0  0  0  0  0  0  0  0  0  0
   63.4063   33.3625   47.7507 H   0  0  0  0  0  0  0  0  0  0  0  0
   62.9745   32.5389   46.2139 H   0  0  0  0  0  0  0  0  0  0  0  0
   63.3676   34.2917   46.2139 H   0  0  0  0  0  0  0  0  0  0  0  0
   60.9781   33.9749   44.9002 H   0  0  0  0  0  0  0  0  0  0  0  0
   54.6281   25.2540   45.0958 H   0  0  0  0  0  0  0  0  0  0  0  0
   55.2238   22.9805   45.9224 H   0  0  0  0  0  0  0  0  0  0  0  0
  1  2  1  0
  2  3  1  0
  3  4  2  0
  4  5  1  0
  5  6  2  0
  6  7  1  0
  7  8  1  0
  8  9  2  0
  8 10  1  0
 10 11  1  0
 11 12  2  0
 12 13  1  0
 13 14  2  0
 14 15  1  0
 15 16  1  0
 16 17  1  0
 17 18  2  0
 18 19  1  0
 19 20  2  0
 20 21  1  0
 21 22  1  0
 21 23  2  0
 15 24  1  0
 24 25  2  0
  6 26  1  0
 26 27  2  0
 27  3  1  0
 24 11  1  0
 23 17  1  0
  1 28  1  0
  1 29  1  0
  1 30  1  0
  4 31  1  0
  5 32  1  0
 12 33  1  0
 13 34  1  0
 14 35  1  0
 16 36  1  0
 16 37  1  0
 18 38  1  0
 19 39  1  0
 20 40  1  0
 22 41  1  0
 22 42  1  0
 22 43  1  0
 23 44  1  0
 26 45  1  0
 27 46  1  0
M  CHG  2   7  -1  10  -1
M  END
>  <UniqueID>  (75) 
70

>  <SMILES>  (75) 
COc1ccc([N-]C(=O)[N-]c2cccn(Cc3cccc(C)c3)c2=O)cc1

>  <Energy>  (75) 
54.64830548770125

>  <Genealogy>  (75) 
COc1ccc([N-]C(=O)[N-]c2cccn(Cc3cccc(C)c3)c2=O)cc1 (protonated)
COc1ccc([N-]C(=O)[N-]c2cccn(Cc3cccc(C)c3)c2=O)cc1 (3D coordinates assigned)
COc1ccc([N-]C(=O)[N-]c2cccn(Cc3cccc(C)c3)c2=O)cc1 (optimized conformer: 54.64830548770125 kcal/mol)

>  <smiles>  (75) 
COc1ccc(NC(=O)Nc2cccn(Cc3cccc(C)c3)c2=O)cc1

>  <score_type>  (75) 
oracle

>  <origin>  (75) 
adg

>  <m_score__min__energy>  (75) 
-12.109999999999999

>  <m_primary>  (75) 
energy

$$$$
75:0
     RDKit          3D

 43 45  0  0  0  0  0  0  0  0999 V2000
   59.8181   34.6398   49.1583 H   0  0  0  0  0  0  0  0  0  0  0  0
   59.8970   33.7870   48.4680 C   0  0  0  0  0  0  0  0  0  0  0  0
   60.7070   32.7710   48.8060 C   0  0  0  0  0  0  0  0  0  0  0  0
   61.5467   32.9809   49.4848 H   0  0  0  0  0  0  0  0  0  0  0  0
   60.5340   31.3810   48.3160 C   0  0  0  0  0  0  0  0  0  0  0  0
   60.8030   31.0060   46.9860 C   0  0  0  0  0  0  0  0  0  0  0  0
   61.1473   31.7620   46.2650 H   0  0  0  0  0  0  0  0  0  0  0  0
   60.6360   29.6800   46.5740 C   0  0  0  0  0  0  0  0  0  0  0  0
   60.8461   29.4025   45.5305 H   0  0  0  0  0  0  0  0  0  0  0  0
   60.2020   28.6990   47.4820 C   0  0  0  0  0  0  0  0  0  0  0  0
   60.0290   27.2940   47.0460 C   0  0  0  0  0  0  0  0  0  0  0  0
   60.7130   26.3790   47.5790 O   0  0  0  0  0  0  0  0  0  0  0  0
   59.1660   26.9830   45.9450 N   0  0  0  0  0  0  0  0  0  0  0  0
   58.0840   27.6000   45.5620 C   0  0  0  0  0  0  0  0  0  0  0  0
   58.1030   28.8060   44.8970 C   0  0  0  0  0  0  0  0  0  0  0  0
   58.9791   29.3959   44.5896 H   0  0  0  0  0  0  0  0  0  0  0  0
   56.7660   29.1040   44.7050 C   0  0  0  0  0  0  0  0  0  0  0  0
   56.2370   30.2960   44.0260 C   0  0  0  0  0  0  0  0  0  0  0  0
   55.1650   30.8230   44.4300 O   0  0  0  0  0  0  0  0  0  0  0  0
   56.9250   30.8650   42.9130 N   0  0  0  0  0  0  0  0  0  0  0  0
   56.5420   31.7120   42.4360 H   0  0  0  0  0  0  0  0  0  0  0  0
   57.8140   30.4500   42.5570 H   0  0  0  0  0  0  0  0  0  0  0  0
   55.9970   28.1410   45.2500 N   0  0  0  0  0  0  0  0  0  0  0  0
   56.7960   27.2250   45.7790 N   0  0  0  0  0  0  0  0  0  0  0  0
   56.2670   26.0950   46.5390 C   0  0  0  0  0  0  0  0  0  0  0  0
   56.3630   26.3000   47.6155 H   0  0  0  0  0  0  0  0  0  0  0  0
   55.2064   25.9479   46.2869 H   0  0  0  0  0  0  0  0  0  0  0  0
   56.8333   25.1863   46.2869 H   0  0  0  0  0  0  0  0  0  0  0  0
   59.9520   29.0700   48.8140 C   0  0  0  0  0  0  0  0  0  0  0  0
   59.6215   28.3115   49.5389 H   0  0  0  0  0  0  0  0  0  0  0  0
   60.1200   30.3950   49.2250 C   0  0  0  0  0  0  0  0  0  0  0  0
   59.9256   30.6683   50.2726 H   0  0  0  0  0  0  0  0  0  0  0  0
   59.1020   33.8240   47.2150 C   0  0  0  0  0  0  0  0  0  0  0  0
   59.6120   34.5370   46.1160 C   0  0  0  0  0  0  0  0  0  0  0  0
   60.5773   35.0570   46.2040 H   0  0  0  0  0  0  0  0  0  0  0  0
   58.9030   34.5910   44.9120 C   0  0  0  0  0  0  0  0  0  0  0  0
   59.3079   35.1581   44.0609 H   0  0  0  0  0  0  0  0  0  0  0  0
   57.6820   33.9260   44.7890 C   0  0  0  0  0  0  0  0  0  0  0  0
   57.1224   33.9741   43.8432 H   0  0  0  0  0  0  0  0  0  0  0  0
   57.1710   33.2000   45.8660 C   0  0  0  0  0  0  0  0  0  0  0  0
   56.2114   32.6717   45.7651 H   0  0  0  0  0  0  0  0  0  0  0  0
   57.8750   33.1420   47.0730 C   0  0  0  0  0  0  0  0  0  0  0  0
   57.4703   32.5620   47.9155 H   0  0  0  0  0  0  0  0  0  0  0  0
  1  2  1  0
  2  3  2  0
  3  4  1  0
  3  5  1  0
  5  6  2  0
  6  7  1  0
  6  8  1  0
  8  9  1  0
  8 10  2  0
 10 11  1  0
 11 12  2  0
 11 13  1  0
 13 14  2  3
 14 15  1  0
 15 16  1  0
 15 17  2  0
 17 18  1  0
 18 19  2  0
 18 20  1  0
 20 21  1  0
 20 22  1  0
 17 23  1  0
 23 24  1  0
 24 25  1  0
 25 26  1  0
 25 27  1  0
 25 28  1  0
 10 29  1  0
 29 30  1  0
 29 31  2  0
 31 32  1  0
  2 33  1  0
 33 34  2  0
 34 35  1  0
 34 36  1  0
 36 37  1  0
 36 38  2  0
 38 39  1  0
 38 40  1  0
 40 41  1  0
 40 42  2  0
 42 43  1  0
 31  5  1  0
 42 33  1  0
 24 14  1  0
M  CHG  1  23  -1
M  END
>  <UniqueID>  (76) 
71

>  <SMILES>  (76) 
Cn1[n-]c(C(N)=O)cc1=NC(=O)c1ccc(/C=C/c2ccccc2)cc1

>  <Energy>  (76) 
91.35691989771595

>  <Genealogy>  (76) 
Cn1[n-]c(C(N)=O)cc1=NC(=O)c1ccc(C=Cc2ccccc2)cc1 (protonated)
Cn1[n-]c(C(N)=O)cc1=NC(=O)c1ccc(/C=C/c2ccccc2)cc1 (cis-trans isomerization)
Cn1[n-]c(C(N)=O)cc1=NC(=O)c1ccc(/C=C/c2ccccc2)cc1 (3D coordinates assigned)
Cn1[n-]c(C(N)=O)cc1=NC(=O)c1ccc(/C=C/c2ccccc2)cc1 (optimized conformer: 91.35691989771595 kcal/mol)

>  <smiles>  (76) 
Cn1[nH]c(C(N)=O)cc1=NC(=O)c1ccc(C=Cc2ccccc2)cc1

>  <score_type>  (76) 
oracle

>  <origin>  (76) 
adg

>  <m_score__min__energy>  (76) 
-10.210000000000001

>  <m_primary>  (76) 
energy

$$$$
76:0
     RDKit          3D

 35 37  0  0  1  0  0  0  0  0999 V2000
   64.9900   32.8240   49.4840 C   0  0  0  0  0  0  0  0  0  0  0  0
   63.9330   33.1070   48.7380 C   0  0  0  0  0  0  0  0  0  0  0  0
   63.7700   33.0130   47.4060 N   0  0  0  0  0  0  0  0  0  0  0  0
   62.5360   33.4040   47.0680 N   0  0  0  0  0  0  0  0  0  0  0  0
   61.8520   33.7670   48.1670 C   0  0  0  0  0  0  0  0  0  0  0  0
   60.5970   34.2110   48.2280 C   0  0  0  0  0  0  0  0  0  0  0  0
   59.7540   34.0550   47.0390 C   0  0  0  0  0  0  0  0  0  0  0  0
   59.8740   34.9910   46.0270 C   0  0  0  0  0  0  0  0  0  0  0  0
   59.1240   34.9270   44.8720 C   0  0  0  0  0  0  0  0  0  0  0  0
   58.2310   33.8770   44.7600 C   0  0  0  0  0  0  0  0  0  0  0  0
   58.1010   32.9270   45.7750 C   0  0  0  0  0  0  0  0  0  0  0  0
   57.1790   31.9230   45.5550 O   0  0  0  0  0  0  0  0  0  0  0  0
   57.5410   30.7060   45.0190 C   0  0  0  0  0  0  0  0  0  0  0  0
   56.7530   30.2370   43.9650 C   0  0  0  0  0  0  0  0  0  0  0  0
   57.0130   29.0300   43.3460 C   0  0  0  0  0  0  0  0  0  0  0  0
   58.0810   28.2810   43.7890 C   0  0  0  0  0  0  0  0  0  0  0  0
   58.8580   28.7430   44.8290 C   0  0  0  0  0  0  0  0  0  0  0  0
   58.6010   29.9490   45.4520 C   0  0  0  0  0  0  0  0  0  0  0  0
   58.8610   33.0030   46.9280 C   0  0  0  0  0  0  0  0  0  0  0  0
   62.7320   33.5810   49.2250 C   0  0  0  0  0  0  0  0  0  0  0  0
   62.5040   33.7990   50.4430 O   0  0  0  0  0  0  0  0  0  0  0  0
   64.9466   32.9624   50.5744 H   0  0  0  0  0  0  0  0  0  0  0  0
   65.9114   32.4505   49.0132 H   0  0  0  0  0  0  0  0  0  0  0  0
   64.5300   32.6750   46.7600 H   0  0  0  0  0  0  0  0  0  0  0  0
   62.1770   33.4180   46.0900 H   0  0  0  0  0  0  0  0  0  0  0  0
   60.2056   34.6802   49.1427 H   0  0  0  0  0  0  0  0  0  0  0  0
   60.5928   35.8148   46.1483 H   0  0  0  0  0  0  0  0  0  0  0  0
   59.2311   35.6776   44.0751 H   0  0  0  0  0  0  0  0  0  0  0  0
   57.6120   33.7886   43.8550 H   0  0  0  0  0  0  0  0  0  0  0  0
   55.9037   30.8446   43.6193 H   0  0  0  0  0  0  0  0  0  0  0  0
   56.3817   28.6749   42.5182 H   0  0  0  0  0  0  0  0  0  0  0  0
   58.3129   27.3165   43.3137 H   0  0  0  0  0  0  0  0  0  0  0  0
   59.7071   28.1342   45.1730 H   0  0  0  0  0  0  0  0  0  0  0  0
   59.2350   30.2967   46.2809 H   0  0  0  0  0  0  0  0  0  0  0  0
   58.7596   32.2547   47.7278 H   0  0  0  0  0  0  0  0  0  0  0  0
  1  2  2  0
  2  3  1  0
  3  4  1  0
  4  5  1  0
  5  6  2  0
  6  7  1  0
  7  8  2  0
  8  9  1  0
  9 10  2  0
 10 11  1  0
 11 12  1  0
 12 13  1  0
 13 14  2  0
 14 15  1  0
 15 16  2  0
 16 17  1  0
 17 18  2  0
 11 19  2  0
  5 20  1  0
 20 21  2  0
 20  2  1  0
 19  7  1  0
 18 13  1  0
  1 22  1  0
  1 23  1  0
  3 24  1  0
  4 25  1  0
  6 26  1  0
  8 27  1  0
  9 28  1  0
 10 29  1  0
 14 30  1  0
 15 31  1  0
 16 32  1  0
 17 33  1  0
 18 34  1  0
 19 35  1  0
M  END
>  <smiles>  (77) 
C=c1[nH][nH]c(=Cc2cccc(Oc3ccccc3)c2)c1=O

>  <score_type>  (77) 
oracle

>  <origin>  (77) 
adg

>  <m_score__min__energy>  (77) 
-8.1300000000000008

>  <m_primary>  (77) 
energy

$$$$
77:0
     RDKit          3D

 51 54  0  0  0  0  0  0  0  0999 V2000
   60.7060   28.3070   48.2850 C   0  0  0  0  0  0  0  0  0  0  0  0
   60.5210   27.6910   47.0140 O   0  0  0  0  0  0  0  0  0  0  0  0
   59.2710   27.4070   46.4360 C   0  0  0  0  0  0  0  0  0  0  0  0
   58.8090   26.0880   46.2590 C   0  0  0  0  0  0  0  0  0  0  0  0
   57.5480   25.8180   45.6750 C   0  0  0  0  0  0  0  0  0  0  0  0
   57.0750   24.4450   45.4970 N   0  0  0  0  0  0  0  0  0  0  0  0
   57.7430   23.5680   44.5120 C   0  0  0  0  0  0  0  0  0  0  0  0
   57.1990   22.1390   44.4940 C   0  0  0  0  0  0  0  0  0  0  0  0
   55.8010   22.1310   44.6570 O   0  0  0  0  0  0  0  0  0  0  0  0
   55.5090   22.5260   45.9760 C   0  0  0  0  0  0  0  0  0  0  0  0
   55.8490   24.0020   46.1980 C   0  0  0  0  0  0  0  0  0  0  0  0
   56.7640   26.9220   45.2600 C   0  0  0  0  0  0  0  0  0  0  0  0
   57.2170   28.2400   45.4330 C   0  0  0  0  0  0  0  0  0  0  0  0
   56.4570   29.3540   45.0350 C   0  0  0  0  0  0  0  0  0  0  0  0
   55.3250   29.2110   44.5000 O   0  0  0  0  0  0  0  0  0  0  0  0
   56.9450   30.6070   45.2260 N   0  0  0  0  0  0  0  0  0  0  0  0
   58.1610   30.8190   45.7980 C   0  0  0  0  0  0  0  0  0  0  0  0
   58.6710   32.2000   45.9910 C   0  0  0  0  0  0  0  0  0  0  0  0
   58.0360   33.2900   45.3690 C   0  0  0  0  0  0  0  0  0  0  0  0
   58.5190   34.5870   45.5510 C   0  0  0  0  0  0  0  0  0  0  0  0
   59.6400   34.8140   46.3490 C   0  0  0  0  0  0  0  0  0  0  0  0
   60.2970   33.7460   46.9780 C   0  0  0  0  0  0  0  0  0  0  0  0
   61.4530   34.0200   47.7920 N   0  0  0  0  0  0  0  0  0  0  0  0
   63.0390   33.3730   47.5070 S   0  0  0  0  0  0  0  0  0  0  0  0
   62.9840   31.5930   47.4820 C   0  0  0  0  0  0  0  0  0  0  0  0
   63.5250   33.8540   46.1700 O   0  0  0  0  0  0  0  0  0  0  0  0
   63.9900   33.8550   48.5660 O   0  0  0  0  0  0  0  0  0  0  0  0
   59.8000   32.4400   46.7990 C   0  0  0  0  0  0  0  0  0  0  0  0
   58.9080   29.7520   46.1890 N   0  0  0  0  0  0  0  0  0  0  0  0
   58.4710   28.4760   46.0230 C   0  0  0  0  0  0  0  0  0  0  0  0
   60.4875   27.5793   49.0804 H   0  0  0  0  0  0  0  0  0  0  0  0
   61.7469   28.6503   48.3780 H   0  0  0  0  0  0  0  0  0  0  0  0
   60.0265   29.1670   48.3780 H   0  0  0  0  0  0  0  0  0  0  0  0
   59.4425   25.2487   46.5819 H   0  0  0  0  0  0  0  0  0  0  0  0
   57.6080   24.0038   43.5111 H   0  0  0  0  0  0  0  0  0  0  0  0
   58.8020   23.5055   44.8028 H   0  0  0  0  0  0  0  0  0  0  0  0
   57.4520   21.6696   43.5319 H   0  0  0  0  0  0  0  0  0  0  0  0
   57.6527   21.5800   45.3257 H   0  0  0  0  0  0  0  0  0  0  0  0
   54.4370   22.3715   46.1682 H   0  0  0  0  0  0  0  0  0  0  0  0
   56.1167   21.9204   46.6644 H   0  0  0  0  0  0  0  0  0  0  0  0
   55.0055   24.6099   45.8390 H   0  0  0  0  0  0  0  0  0  0  0  0
   56.0321   24.1299   47.2751 H   0  0  0  0  0  0  0  0  0  0  0  0
   55.7835   26.7441   44.7942 H   0  0  0  0  0  0  0  0  0  0  0  0
   57.1533   33.1194   44.7352 H   0  0  0  0  0  0  0  0  0  0  0  0
   58.0134   35.4334   45.0631 H   0  0  0  0  0  0  0  0  0  0  0  0
   60.0124   35.8399   46.4865 H   0  0  0  0  0  0  0  0  0  0  0  0
   61.3610   34.6950   48.5850 H   0  0  0  0  0  0  0  0  0  0  0  0
   62.9722   31.2120   48.5138 H   0  0  0  0  0  0  0  0  0  0  0  0
   62.0752   31.2616   46.9584 H   0  0  0  0  0  0  0  0  0  0  0  0
   63.8706   31.2061   46.9584 H   0  0  0  0  0  0  0  0  0  0  0  0
   60.3002   31.5962   47.2968 H   0  0  0  0  0  0  0  0  0  0  0  0
  1  2  1  0
  2  3  1  0
  3  4  2  0
  4  5  1  0
  5  6  1  0
  6  7  1  0
  7  8  1  0
  8  9  1  0
  9 10  1  0
 10 11  1  0
  5 12  2  0
 12 13  1  0
 13 14  1  0
 14 15  2  0
 14 16  1  0
 16 17  2  0
 17 18  1  0
 18 19  2  0
 19 20  1  0
 20 21  2  0
 21 22  1  0
 22 23  1  0
 23 24  1  0
 24 25  1  0
 24 26  2  0
 24 27  2  0
 22 28  2  0
 17 29  1  0
 29 30  1  0
 30  3  1  0
 11  6  1  0
 30 13  2  0
 28 18  1  0
  1 31  1  0
  1 32  1  0
  1 33  1  0
  4 34  1  0
  7 35  1  0
  7 36  1  0
  8 37  1  0
  8 38  1  0
 10 39  1  0
 10 40  1  0
 11 41  1  0
 11 42  1  0
 12 43  1  0
 19 44  1  0
 20 45  1  0
 21 46  1  0
 23 47  1  0
 25 48  1  0
 25 49  1  0
 25 50  1  0
 28 51  1  0
M  CHG  1  29  -1
M  END
>  <UniqueID>  (78) 
72

>  <SMILES>  (78) 
COc1cc(N2CCOCC2)cc2c(=O)nc(-c3cccc(NS(C)(=O)=O)c3)[n-]c12

>  <Energy>  (78) 
66.79491992035277

>  <Genealogy>  (78) 
COc1cc(N2CCOCC2)cc2c(=O)nc(-c3cccc(NS(C)(=O)=O)c3)[n-]c12 (protonated)
COc1cc(N2CCOCC2)cc2c(=O)nc(-c3cccc(NS(C)(=O)=O)c3)[n-]c12 (3D coordinates assigned)
COc1cc(N2CCOCC2)cc2c(=O)nc(-c3cccc(NS(C)(=O)=O)c3)[n-]c12 (nonaromatic ring conformer: 66.79491992035277 kcal/mol)

>  <smiles>  (78) 
COc1cc(N2CCOCC2)cc2c(=O)nc(-c3cccc(NS(C)(=O)=O)c3)[nH]c12

>  <score_type>  (78) 
oracle

>  <origin>  (78) 
adg

>  <m_score__min__energy>  (78) 
-10.199999999999999

>  <m_primary>  (78) 
energy

$$$$
78:0
     RDKit          3D

 34 36  0  0  0  0  0  0  0  0999 V2000
   65.6480   33.0720   48.3430 H   0  0  0  0  0  0  0  0  0  0  0  0
   64.8980   33.4070   48.9350 O   0  0  0  0  0  0  0  0  0  0  0  0
   63.5670   33.2420   48.5660 C   0  0  0  0  0  0  0  0  0  0  0  0
   62.6270   34.1790   48.7760 N   0  0  0  0  0  0  0  0  0  0  0  0
   61.4810   33.6580   48.2900 C   0  0  0  0  0  0  0  0  0  0  0  0
   60.3300   34.3370   48.3400 C   0  0  0  0  0  0  0  0  0  0  0  0
   59.4096   33.8896   47.9367 H   0  0  0  0  0  0  0  0  0  0  0  0
   60.3037   35.3429   48.7844 H   0  0  0  0  0  0  0  0  0  0  0  0
   61.7020   32.3760   47.7660 C   0  0  0  0  0  0  0  0  0  0  0  0
   60.8210   31.5310   47.1920 C   0  0  0  0  0  0  0  0  0  0  0  0
   59.8960   31.8940   46.3330 O   0  0  0  0  0  0  0  0  0  0  0  0
   59.2020   30.8400   45.9650 C   0  0  0  0  0  0  0  0  0  0  0  0
   58.1810   30.9050   45.0880 C   0  0  0  0  0  0  0  0  0  0  0  0
   57.0210   30.0920   45.2660 N   0  0  0  0  0  0  0  0  0  0  0  0
   56.0400   30.0300   44.2390 C   0  0  0  0  0  0  0  0  0  0  0  0
   54.9950   29.3490   44.4030 O   0  0  0  0  0  0  0  0  0  0  0  0
   56.2670   30.7050   43.0010 N   0  0  0  0  0  0  0  0  0  0  0  0
   57.2680   31.5150   42.8140 C   0  0  0  0  0  0  0  0  0  0  0  0
   57.4280   32.1440   41.4640 C   0  0  0  0  0  0  0  0  0  0  0  0
   57.6976   33.2038   41.5829 H   0  0  0  0  0  0  0  0  0  0  0  0
   58.2224   31.6236   40.9089 H   0  0  0  0  0  0  0  0  0  0  0  0
   56.4815   32.0665   40.9089 H   0  0  0  0  0  0  0  0  0  0  0  0
   58.2070   31.9070   43.9460 C   0  0  1  0  0  0  0  0  0  0  0  0
   59.2297   31.9186   43.5411 H   0  0  0  0  0  0  0  0  0  0  0  0
   57.8280   33.2980   44.4690 C   0  0  0  0  0  0  0  0  0  0  0  0
   57.8304   33.2893   45.5690 H   0  0  0  0  0  0  0  0  0  0  0  0
   58.5575   34.0373   44.1066 H   0  0  0  0  0  0  0  0  0  0  0  0
   56.8243   33.5651   44.1066 H   0  0  0  0  0  0  0  0  0  0  0  0
   59.6990   29.7170   46.6170 C   0  0  0  0  0  0  0  0  0  0  0  0
   59.1360   27.8900   46.5090 Br  0  0  0  0  0  0  0  0  0  0  0  0
   60.7400   30.1630   47.4050 C   0  0  0  0  0  0  0  0  0  0  0  0
   61.3760   29.5571   48.0671 H   0  0  0  0  0  0  0  0  0  0  0  0
   63.0520   32.1210   47.9520 C   0  0  0  0  0  0  0  0  0  0  0  0
   63.5998   31.2104   47.6677 H   0  0  0  0  0  0  0  0  0  0  0  0
  1  2  1  0
  2  3  1  0
  3  4  1  0
  4  5  1  0
  5  6  2  0
  6  7  1  0
  6  8  1  0
  5  9  1  0
  9 10  2  0
 10 11  1  0
 11 12  1  0
 12 13  2  0
 13 14  1  0
 14 15  1  0
 15 16  2  0
 15 17  1  0
 17 18  2  0
 18 19  1  0
 19 20  1  0
 19 21  1  0
 19 22  1  0
 18 23  1  0
 23 24  1  6
 23 25  1  0
 25 26  1  0
 25 27  1  0
 25 28  1  0
 12 29  1  0
 29 30  1  0
 29 31  2  0
 31 32  1  0
  9 33  1  0
 33 34  1  0
 33  3  2  0
 31 10  1  0
 23 13  1  0
M  CHG  2   4  -1  14  -1
M  END
>  <UniqueID>  (79) 
73

>  <SMILES>  (79) 
C=c1[n-]c(O)c/c1=c1\cc(Br)/c(=C2\[N-]C(=O)N=C(C)[C@H]2C)o1

>  <Energy>  (79) 
89.96945764062042

>  <Genealogy>  (79) 
C=c1[n-]c(O)cc1=c1cc(Br)c(=C2[N-]C(=O)N=C(C)C2C)o1 (protonated)
C=c1[n-]c(O)cc1=c1cc(Br)c(=C2[N-]C(=O)N=C(C)[C@H]2C)o1 (chirality)
C=c1[n-]c(O)c/c1=c1\cc(Br)/c(=C2\[N-]C(=O)N=C(C)[C@H]2C)o1 (cis-trans isomerization)
C=c1[n-]c(O)c/c1=c1\cc(Br)/c(=C2\[N-]C(=O)N=C(C)[C@H]2C)o1 (3D coordinates assigned)
C=c1[n-]c(O)c/c1=c1\cc(Br)/c(=C2\[N-]C(=O)N=C(C)[C@H]2C)o1 (nonaromatic ring conformer: 89.96945764062042 kcal/mol)

>  <smiles>  (79) 
C=c1[nH]c(O)cc1=c1cc(Br)c(=C2NC(=O)N=C(C)C2C)o1

>  <score_type>  (79) 
oracle

>  <origin>  (79) 
adg

>  <m_score__min__energy>  (79) 
-10.51

>  <m_primary>  (79) 
energy

$$$$
79:0
     RDKit          3D

 43 45  0  0  0  0  0  0  0  0999 V2000
   60.2067   28.6180   47.8392 H   0  0  0  0  0  0  0  0  0  0  0  0
   59.4670   28.1720   47.1580 C   0  0  0  0  0  0  0  0  0  0  0  0
   59.1240   27.1393   47.3185 H   0  0  0  0  0  0  0  0  0  0  0  0
   58.9830   28.8880   46.1310 C   0  0  0  0  0  0  0  0  0  0  0  0
   58.0420   28.4740   45.1760 C   0  0  0  0  0  0  0  0  0  0  0  0
   57.5560   27.2510   44.8850 C   0  0  0  0  0  0  0  0  0  0  0  0
   57.4314   26.9976   43.8218 H   0  0  0  0  0  0  0  0  0  0  0  0
   57.1780   26.2260   45.8720 C   0  0  0  0  0  0  0  0  0  0  0  0
   58.0030   25.2710   46.3420 N   0  0  0  0  0  0  0  0  0  0  0  0
   57.1900   24.4990   47.0950 C   0  0  0  0  0  0  0  0  0  0  0  0
   57.6030   23.4920   47.7240 O   0  0  0  0  0  0  0  0  0  0  0  0
   55.8950   24.8860   47.1090 N   0  0  0  0  0  0  0  0  0  0  0  0
   55.9050   25.9720   46.3190 C   0  0  0  0  0  0  0  0  0  0  0  0
   54.7710   26.7100   46.0080 O   0  0  0  0  0  0  0  0  0  0  0  0
   57.6560   29.6170   44.4910 C   0  0  0  0  0  0  0  0  0  0  0  0
   56.8911   29.6827   43.7032 H   0  0  0  0  0  0  0  0  0  0  0  0
   58.4160   30.6550   44.9880 C   0  0  0  0  0  0  0  0  0  0  0  0
   58.3220   32.0800   44.5340 C   0  0  0  0  0  0  0  0  0  0  0  0
   58.2783   32.7422   45.4113 H   0  0  0  0  0  0  0  0  0  0  0  0
   59.2055   32.3310   43.9287 H   0  0  0  0  0  0  0  0  0  0  0  0
   57.4131   32.2128   43.9287 H   0  0  0  0  0  0  0  0  0  0  0  0
   59.2230   30.2140   45.9760 N   0  0  0  0  0  0  0  0  0  0  0  0
   60.1020   31.0360   46.7650 C   0  0  0  0  0  0  0  0  0  0  0  0
   61.4770   30.7830   46.7610 C   0  0  0  0  0  0  0  0  0  0  0  0
   61.8782   29.9478   46.1682 H   0  0  0  0  0  0  0  0  0  0  0  0
   62.3190   31.5630   47.4850 N   0  0  0  0  0  0  0  0  0  0  0  0
   61.8820   32.6100   48.2390 C   0  0  0  0  0  0  0  0  0  0  0  0
   62.8410   33.4020   48.9810 N   0  0  0  0  0  0  0  0  0  0  0  0
   62.3650   34.5550   49.7530 C   0  0  0  0  0  0  0  0  0  0  0  0
   62.4543   34.3387   50.8278 H   0  0  0  0  0  0  0  0  0  0  0  0
   62.9721   35.4382   49.5050 H   0  0  0  0  0  0  0  0  0  0  0  0
   61.3117   34.7527   49.5050 H   0  0  0  0  0  0  0  0  0  0  0  0
   64.2720   33.0730   48.9730 C   0  0  0  0  0  0  0  0  0  0  0  0
   64.6348   32.9896   50.0081 H   0  0  0  0  0  0  0  0  0  0  0  0
   64.4254   32.1162   48.4525 H   0  0  0  0  0  0  0  0  0  0  0  0
   64.8278   33.8668   48.4525 H   0  0  0  0  0  0  0  0  0  0  0  0
   60.5020   32.8930   48.2730 C   0  0  0  0  0  0  0  0  0  0  0  0
   60.1288   33.7393   48.8684 H   0  0  0  0  0  0  0  0  0  0  0  0
   59.6030   32.0950   47.5470 C   0  0  0  0  0  0  0  0  0  0  0  0
   58.1310   32.4030   47.5850 C   0  0  0  0  0  0  0  0  0  0  0  0
   57.7979   32.4727   48.6310 H   0  0  0  0  0  0  0  0  0  0  0  0
   57.9433   33.3599   47.0759 H   0  0  0  0  0  0  0  0  0  0  0  0
   57.5755   31.6016   47.0759 H   0  0  0  0  0  0  0  0  0  0  0  0
  1  2  1  0
  2  3  1  0
  2  4  2  0
  4  5  1  0
  5  6  2  0
  6  7  1  0
  6  8  1  0
  8  9  1  0
  9 10  1  0
 10 11  2  0
 10 12  1  0
 12 13  1  0
 13 14  1  0
  5 15  1  0
 15 16  1  0
 15 17  2  0
 17 18  1  0
 18 19  1  0
 18 20  1  0
 18 21  1  0
 17 22  1  0
 22 23  1  0
 23 24  2  0
 24 25  1  0
 24 26  1  0
 26 27  2  0
 27 28  1  0
 28 29  1  0
 29 30  1  0
 29 31  1  0
 29 32  1  0
 28 33  1  0
 33 34  1  0
 33 35  1  0
 33 36  1  0
 27 37  1  0
 37 38  1  0
 37 39  2  0
 39 40  1  0
 40 41  1  0
 40 42  1  0
 40 43  1  0
 22  4  1  0
 39 23  1  0
 13  8  2  0
M  CHG  3   9  -1  12  -1  14  -1
M  END
>  <UniqueID>  (80) 
74

>  <SMILES>  (80) 
C=c1/c(=C\c2[n-]c(=O)[n-]c2[O-])cc(C)n1-c1cnc(N(C)C)cc1C

>  <Energy>  (80) 
118.81093867670202

>  <Genealogy>  (80) 
C=c1c(=Cc2[n-]c(=O)[n-]c2[O-])cc(C)n1-c1cnc(N(C)C)cc1C (protonated)
C=c1/c(=C\c2[n-]c(=O)[n-]c2[O-])cc(C)n1-c1cnc(N(C)C)cc1C (cis-trans isomerization)
C=c1/c(=C\c2[n-]c(=O)[n-]c2[O-])cc(C)n1-c1cnc(N(C)C)cc1C (3D coordinates assigned)
C=c1/c(=C\c2[n-]c(=O)[n-]c2[O-])cc(C)n1-c1cnc(N(C)C)cc1C (optimized conformer: 118.81093867670202 kcal/mol)

>  <smiles>  (80) 
C=c1c(=Cc2[nH]c(=O)[nH]c2O)cc(C)n1-c1cnc(N(C)C)cc1C

>  <score_type>  (80) 
oracle

>  <origin>  (80) 
adg

>  <m_score__min__energy>  (80) 
-14.9

>  <m_primary>  (80) 
energy

$$$$
80:0
     RDKit          3D

 39 41  0  0  0  0  0  0  0  0999 V2000
   59.3291   29.3606   48.2633 H   0  0  0  0  0  0  0  0  0  0  0  0
   58.8190   28.7930   47.4710 C   0  0  0  0  0  0  0  0  0  0  0  0
   58.8587   27.6937   47.4693 H   0  0  0  0  0  0  0  0  0  0  0  0
   58.1480   29.4420   46.5060 C   0  0  0  0  0  0  0  0  0  0  0  0
   57.4470   28.8760   45.4290 C   0  0  0  0  0  0  0  0  0  0  0  0
   57.3820   27.6060   44.9780 C   0  0  0  0  0  0  0  0  0  0  0  0
   57.4112   27.4558   43.8887 H   0  0  0  0  0  0  0  0  0  0  0  0
   57.2750   26.4020   45.8240 C   0  0  0  0  0  0  0  0  0  0  0  0
   56.0250   25.9770   46.2940 C   0  0  0  0  0  0  0  0  0  0  0  0
   54.8770   26.7090   46.0140 O   0  0  0  0  0  0  0  0  0  0  0  0
   55.9290   24.8440   47.0380 N   0  0  0  0  0  0  0  0  0  0  0  0
   57.0270   24.0980   47.3260 C   0  0  0  0  0  0  0  0  0  0  0  0
   56.9140   23.0560   48.0200 O   0  0  0  0  0  0  0  0  0  0  0  0
   58.2460   24.4740   46.8580 N   0  0  0  0  0  0  0  0  0  0  0  0
   58.3940   25.5970   46.1100 C   0  0  0  0  0  0  0  0  0  0  0  0
   59.5360   25.9030   45.6740 O   0  0  0  0  0  0  0  0  0  0  0  0
   56.7980   29.9580   44.8440 C   0  0  0  0  0  0  0  0  0  0  0  0
   55.9170   29.9320   43.6340 C   0  0  0  0  0  0  0  0  0  0  0  0
   54.8633   29.9009   43.9482 H   0  0  0  0  0  0  0  0  0  0  0  0
   56.0937   30.8357   43.0323 H   0  0  0  0  0  0  0  0  0  0  0  0
   56.1467   29.0402   43.0323 H   0  0  0  0  0  0  0  0  0  0  0  0
   57.1290   31.0920   45.4820 N   0  0  0  0  0  0  0  0  0  0  0  0
   57.9410   30.7860   46.4820 N   0  0  0  0  0  0  0  0  0  0  0  0
   58.5180   31.8240   47.3420 C   0  0  0  0  0  0  0  0  0  0  0  0
   57.7243   32.2665   47.9618 H   0  0  0  0  0  0  0  0  0  0  0  0
   59.2866   31.3731   47.9869 H   0  0  0  0  0  0  0  0  0  0  0  0
   59.1480   32.8970   46.4990 C   0  0  0  0  0  0  0  0  0  0  0  0
   58.5250   33.8360   45.6970 C   0  0  0  0  0  0  0  0  0  0  0  0
   57.0580   33.9810   45.4550 C   0  0  0  0  0  0  0  0  0  0  0  0
   56.5307   34.0331   46.4190 H   0  0  0  0  0  0  0  0  0  0  0  0
   56.8699   34.9021   44.8839 H   0  0  0  0  0  0  0  0  0  0  0  0
   56.6932   33.1145   44.8839 H   0  0  0  0  0  0  0  0  0  0  0  0
   59.4480   34.6850   45.2030 N   0  0  0  0  0  0  0  0  0  0  0  0
   60.6040   34.3050   45.6660 O   0  0  0  0  0  0  0  0  0  0  0  0
   60.4820   33.2540   46.4450 C   0  0  0  0  0  0  0  0  0  0  0  0
   61.6210   32.5940   47.1480 C   0  0  0  0  0  0  0  0  0  0  0  0
   61.4781   32.6768   48.2355 H   0  0  0  0  0  0  0  0  0  0  0  0
   61.6619   31.5323   46.8633 H   0  0  0  0  0  0  0  0  0  0  0  0
   62.5625   33.0865   46.8633 H   0  0  0  0  0  0  0  0  0  0  0  0
  1  2  1  0
  2  3  1  0
  2  4  2  0
  4  5  1  0
  5  6  2  0
  6  7  1  0
  6  8  1  0
  8  9  2  0
  9 10  1  0
  9 11  1  0
 11 12  1  0
 12 13  2  0
 12 14  1  0
 14 15  1  0
 15 16  2  0
  5 17  1  0
 17 18  1  0
 18 19  1  0
 18 20  1  0
 18 21  1  0
 17 22  2  0
 22 23  1  0
 23 24  1  0
 24 25  1  0
 24 26  1  0
 24 27  1  0
 27 28  1  0
 28 29  1  0
 29 30  1  0
 29 31  1  0
 29 32  1  0
 28 33  2  0
 33 34  1  0
 34 35  1  0
 35 36  1  0
 36 37  1  0
 36 38  1  0
 36 39  1  0
 23  4  1  0
 35 27  2  0
 15  8  1  0
M  CHG  3  10  -1  11  -1  14  -1
M  END
>  <UniqueID>  (81) 
75

>  <SMILES>  (81) 
C=c1/c(=C\c2c([O-])[n-]c(=O)[n-]c2=O)c(C)nn1Cc1c(C)noc1C

>  <Energy>  (81) 
114.94322057041684

>  <Genealogy>  (81) 
C=c1c(=Cc2c([O-])[n-]c(=O)[n-]c2=O)c(C)nn1Cc1c(C)noc1C (protonated)
C=c1/c(=C\c2c([O-])[n-]c(=O)[n-]c2=O)c(C)nn1Cc1c(C)noc1C (cis-trans isomerization)
C=c1/c(=C\c2c([O-])[n-]c(=O)[n-]c2=O)c(C)nn1Cc1c(C)noc1C (3D coordinates assigned)
C=c1/c(=C\c2c([O-])[n-]c(=O)[n-]c2=O)c(C)nn1Cc1c(C)noc1C (optimized conformer: 114.94322057041684 kcal/mol)

>  <smiles>  (81) 
C=c1c(=Cc2c(O)[nH]c(=O)[nH]c2=O)c(C)nn1Cc1c(C)noc1C

>  <score_type>  (81) 
oracle

>  <origin>  (81) 
adg

>  <m_score__min__energy>  (81) 
-15.93

>  <m_primary>  (81) 
energy

$$$$
81:0
     RDKit          3D

 53 56  0  0  0  0  0  0  0  0999 V2000
   59.3220   30.3090   46.3660 C   0  0  0  0  0  0  0  0  0  0  0  0
   58.7030   31.0840   45.4610 C   0  0  0  0  0  0  0  0  0  0  0  0
   58.7040   32.4880   45.4110 C   0  0  0  0  0  0  0  0  0  0  0  0
   59.1270   33.4040   46.3040 C   0  0  0  0  0  0  0  0  0  0  0  0
   60.5060   33.5530   46.7910 C   0  0  0  0  0  0  0  0  0  0  0  0
   61.5490   33.8470   45.9930 N   0  0  0  0  0  0  0  0  0  0  0  0
   62.5860   33.9630   46.8510 C   0  0  0  0  0  0  0  0  0  0  0  0
   63.7640   34.1690   46.4530 O   0  0  0  0  0  0  0  0  0  0  0  0
   62.2460   33.8160   48.1570 N   0  0  0  0  0  0  0  0  0  0  0  0
   63.1410   33.7230   49.3310 C   0  0  0  0  0  0  0  0  0  0  0  0
   63.5650   32.2890   49.6410 C   0  0  0  0  0  0  0  0  0  0  0  0
   63.8770   32.2530   51.1320 C   0  0  0  0  0  0  0  0  0  0  0  0
   63.2190   33.4830   51.7500 C   0  0  0  0  0  0  0  0  0  0  0  0
   62.4770   34.1910   50.6250 C   0  0  0  0  0  0  0  0  0  0  0  0
   60.9270   33.5350   48.1030 C   0  0  0  0  0  0  0  0  0  0  0  0
   60.1220   33.2640   49.2040 O   0  0  0  0  0  0  0  0  0  0  0  0
   58.1280   32.8330   44.2030 C   0  0  0  0  0  0  0  0  0  0  0  0
   57.7370   31.6600   43.5940 C   0  0  0  0  0  0  0  0  0  0  0  0
   57.0420   31.5890   42.2670 C   0  0  0  0  0  0  0  0  0  0  0  0
   58.0790   30.5930   44.3560 N   0  0  0  0  0  0  0  0  0  0  0  0
   57.7930   29.1820   44.0430 C   0  0  0  0  0  0  0  0  0  0  0  0
   56.6990   28.6190   44.9620 C   0  0  0  0  0  0  0  0  0  0  0  0
   57.1060   27.2960   45.5620 C   0  0  0  0  0  0  0  0  0  0  0  0
   58.4690   26.9690   45.6690 C   0  0  0  0  0  0  0  0  0  0  0  0
   58.8630   25.7690   46.2680 C   0  0  0  0  0  0  0  0  0  0  0  0
   57.9010   24.8860   46.7650 C   0  0  0  0  0  0  0  0  0  0  0  0
   56.5450   25.2030   46.6690 C   0  0  0  0  0  0  0  0  0  0  0  0
   56.1420   26.4050   46.0750 C   0  0  0  0  0  0  0  0  0  0  0  0
   54.7870   26.7090   46.0060 O   0  0  0  0  0  0  0  0  0  0  0  0
   59.2449   29.2139   46.2969 H   0  0  0  0  0  0  0  0  0  0  0  0
   59.9062   30.7692   47.1765 H   0  0  0  0  0  0  0  0  0  0  0  0
   58.3753   34.1008   46.7033 H   0  0  0  0  0  0  0  0  0  0  0  0
   63.9916   34.3591   49.0450 H   0  0  0  0  0  0  0  0  0  0  0  0
   62.7490   31.5902   49.4048 H   0  0  0  0  0  0  0  0  0  0  0  0
   64.4368   31.9893   49.0409 H   0  0  0  0  0  0  0  0  0  0  0  0
   63.4667   31.3373   51.5827 H   0  0  0  0  0  0  0  0  0  0  0  0
   64.9628   32.2558   51.3082 H   0  0  0  0  0  0  0  0  0  0  0  0
   62.5139   33.1805   52.5382 H   0  0  0  0  0  0  0  0  0  0  0  0
   63.9680   34.1449   52.2093 H   0  0  0  0  0  0  0  0  0  0  0  0
   61.4130   33.9119   50.6325 H   0  0  0  0  0  0  0  0  0  0  0  0
   62.5253   35.2846   50.7329 H   0  0  0  0  0  0  0  0  0  0  0  0
   58.0050   33.8505   43.8035 H   0  0  0  0  0  0  0  0  0  0  0  0
   55.9591   31.4784   42.4257 H   0  0  0  0  0  0  0  0  0  0  0  0
   57.2373   32.5118   41.7010 H   0  0  0  0  0  0  0  0  0  0  0  0
   57.4198   30.7248   41.7010 H   0  0  0  0  0  0  0  0  0  0  0  0
   57.4571   29.1074   42.9982 H   0  0  0  0  0  0  0  0  0  0  0  0
   58.7122   28.5980   44.1981 H   0  0  0  0  0  0  0  0  0  0  0  0
   56.5105   29.3366   45.7741 H   0  0  0  0  0  0  0  0  0  0  0  0
   55.7918   28.4601   44.3605 H   0  0  0  0  0  0  0  0  0  0  0  0
   59.2298   27.6613   45.2792 H   0  0  0  0  0  0  0  0  0  0  0  0
   59.9314   25.5197   46.3482 H   0  0  0  0  0  0  0  0  0  0  0  0
   58.2125   23.9402   47.2323 H   0  0  0  0  0  0  0  0  0  0  0  0
   55.7902   24.5057   47.0615 H   0  0  0  0  0  0  0  0  0  0  0  0
  1  2  2  0
  2  3  1  0
  3  4  2  3
  4  5  1  0
  5  6  1  0
  6  7  1  0
  7  8  2  0
  7  9  1  0
  9 10  1  0
 10 11  1  0
 11 12  1  0
 12 13  1  0
 13 14  1  0
  9 15  1  0
 15 16  1  0
  3 17  1  0
 17 18  2  0
 18 19  1  0
 18 20  1  0
 20 21  1  0
 21 22  1  0
 22 23  1  0
 23 24  2  0
 24 25  1  0
 25 26  2  0
 26 27  1  0
 27 28  2  0
 28 29  1  0
 20  2  1  0
 28 23  1  0
 15  5  2  0
 14 10  1  0
  1 30  1  0
  1 31  1  0
  4 32  1  0
 10 33  1  0
 11 34  1  0
 11 35  1  0
 12 36  1  0
 12 37  1  0
 13 38  1  0
 13 39  1  0
 14 40  1  0
 14 41  1  0
 17 42  1  0
 19 43  1  0
 19 44  1  0
 19 45  1  0
 21 46  1  0
 21 47  1  0
 22 48  1  0
 22 49  1  0
 24 50  1  0
 25 51  1  0
 26 52  1  0
 27 53  1  0
M  CHG  3   6  -1  16  -1  29  -1
M  END
>  <UniqueID>  (82) 
76

>  <SMILES>  (82) 
C=c1c(=Cc2[n-]c(=O)n(C3CCCC3)c2[O-])cc(C)n1CCc1ccccc1[O-]

>  <Energy>  (82) 
127.65127930313928

>  <Genealogy>  (82) 
C=c1c(=Cc2[n-]c(=O)n(C3CCCC3)c2[O-])cc(C)n1CCc1ccccc1[O-] (protonated)
C=c1c(=Cc2[n-]c(=O)n(C3CCCC3)c2[O-])cc(C)n1CCc1ccccc1[O-] (3D coordinates assigned)
C=c1c(=Cc2[n-]c(=O)n(C3CCCC3)c2[O-])cc(C)n1CCc1ccccc1[O-] (nonaromatic ring conformer: 127.65127930313928 kcal/mol)

>  <smiles>  (82) 
C=c1c(=Cc2[nH]c(=O)n(C3CCCC3)c2O)cc(C)n1CCc1ccccc1O

>  <score_type>  (82) 
oracle

>  <origin>  (82) 
adg

>  <m_score__min__energy>  (82) 
-14.69

>  <m_primary>  (82) 
energy

$$$$
82:0
     RDKit          3D

 49 52  0  0  0  0  0  0  0  0999 V2000
   57.4080   28.5620   43.6910 C   0  0  0  0  0  0  0  0  0  0  0  0
   57.6750   28.1500   44.9420 C   0  0  0  0  0  0  0  0  0  0  0  0
   57.6270   26.8260   45.3920 C   0  0  0  0  0  0  0  0  0  0  0  0
   57.3510   25.7210   44.6710 C   0  0  0  0  0  0  0  0  0  0  0  0
   56.1580   24.8750   44.8980 C   0  0  0  0  0  0  0  0  0  0  0  0
   55.0490   25.3940   45.5830 C   0  0  0  0  0  0  0  0  0  0  0  0
   55.0420   26.7140   46.0230 O   0  0  0  0  0  0  0  0  0  0  0  0
   53.9650   24.6100   45.8130 N   0  0  0  0  0  0  0  0  0  0  0  0
   53.9350   23.3170   45.4020 C   0  0  0  0  0  0  0  0  0  0  0  0
   52.9170   22.6110   45.6220 O   0  0  0  0  0  0  0  0  0  0  0  0
   55.0050   22.7820   44.7620 N   0  0  0  0  0  0  0  0  0  0  0  0
   56.1150   23.5230   44.5100 C   0  0  0  0  0  0  0  0  0  0  0  0
   57.1020   22.9830   43.9440 O   0  0  0  0  0  0  0  0  0  0  0  0
   57.9560   26.8580   46.7380 C   0  0  0  0  0  0  0  0  0  0  0  0
   58.1900   28.1790   47.0570 C   0  0  0  0  0  0  0  0  0  0  0  0
   58.5310   28.6630   48.4360 C   0  0  0  0  0  0  0  0  0  0  0  0
   58.0200   28.9720   45.9710 N   0  0  0  0  0  0  0  0  0  0  0  0
   58.1400   30.4400   45.9640 C   0  0  0  0  0  0  0  0  0  0  0  0
   59.3770   30.8750   46.7080 C   0  0  0  0  0  0  0  0  0  0  0  0
   60.6270   30.3230   46.3890 C   0  0  0  0  0  0  0  0  0  0  0  0
   61.7770   30.7370   47.0680 C   0  0  0  0  0  0  0  0  0  0  0  0
   61.6970   31.7050   48.0840 C   0  0  0  0  0  0  0  0  0  0  0  0
   62.8830   32.1470   48.7770 N   0  0  0  0  0  0  0  0  0  0  0  0
   63.4090   31.5340   49.9860 C   0  0  0  0  0  0  0  0  0  0  0  0
   64.5240   32.4710   50.4890 C   0  0  0  0  0  0  0  0  0  0  0  0
   64.8220   33.4620   49.3570 C   0  0  0  0  0  0  0  0  0  0  0  0
   63.7280   33.2190   48.3960 C   0  0  0  0  0  0  0  0  0  0  0  0
   63.6030   33.8530   47.3140 O   0  0  0  0  0  0  0  0  0  0  0  0
   60.4450   32.2640   48.3920 C   0  0  0  0  0  0  0  0  0  0  0  0
   59.2960   31.8490   47.7140 C   0  0  0  0  0  0  0  0  0  0  0  0
   57.4746   29.6304   43.4378 H   0  0  0  0  0  0  0  0  0  0  0  0
   57.1228   27.8308   42.9202 H   0  0  0  0  0  0  0  0  0  0  0  0
   58.0495   25.4328   43.8716 H   0  0  0  0  0  0  0  0  0  0  0  0
   58.0184   25.9968   47.4195 H   0  0  0  0  0  0  0  0  0  0  0  0
   58.0654   28.0022   49.1821 H   0  0  0  0  0  0  0  0  0  0  0  0
   59.6230   28.6535   48.5684 H   0  0  0  0  0  0  0  0  0  0  0  0
   58.1545   29.6881   48.5684 H   0  0  0  0  0  0  0  0  0  0  0  0
   58.2010   30.7927   44.9239 H   0  0  0  0  0  0  0  0  0  0  0  0
   57.2578   30.8702   46.4607 H   0  0  0  0  0  0  0  0  0  0  0  0
   60.7026   29.5601   45.6001 H   0  0  0  0  0  0  0  0  0  0  0  0
   62.7523   30.3016   46.8049 H   0  0  0  0  0  0  0  0  0  0  0  0
   62.6167   31.4422   50.7435 H   0  0  0  0  0  0  0  0  0  0  0  0
   63.7924   30.5218   49.7897 H   0  0  0  0  0  0  0  0  0  0  0  0
   64.1870   33.0119   51.3856 H   0  0  0  0  0  0  0  0  0  0  0  0
   65.4249   31.8999   50.7579 H   0  0  0  0  0  0  0  0  0  0  0  0
   64.8004   34.4985   49.7248 H   0  0  0  0  0  0  0  0  0  0  0  0
   65.8205   33.3245   48.9163 H   0  0  0  0  0  0  0  0  0  0  0  0
   60.3690   33.0346   49.1733 H   0  0  0  0  0  0  0  0  0  0  0  0
   58.3212   32.2892   47.9709 H   0  0  0  0  0  0  0  0  0  0  0  0
  1  2  2  0
  2  3  1  0
  3  4  2  3
  4  5  1  0
  5  6  2  0
  6  7  1  0
  6  8  1  0
  8  9  1  0
  9 10  2  0
  9 11  1  0
 11 12  1  0
 12 13  2  0
  3 14  1  0
 14 15  2  0
 15 16  1  0
 15 17  1  0
 17 18  1  0
 18 19  1  0
 19 20  2  0
 20 21  1  0
 21 22  2  0
 22 23  1  0
 23 24  1  0
 24 25  1  0
 25 26  1  0
 26 27  1  0
 27 28  2  0
 22 29  1  0
 29 30  2  0
 17  2  1  0
 30 19  1  0
 12  5  1  0
 27 23  1  0
  1 31  1  0
  1 32  1  0
  4 33  1  0
 14 34  1  0
 16 35  1  0
 16 36  1  0
 16 37  1  0
 18 38  1  0
 18 39  1  0
 20 40  1  0
 21 41  1  0
 24 42  1  0
 24 43  1  0
 25 44  1  0
 25 45  1  0
 26 46  1  0
 26 47  1  0
 29 48  1  0
 30 49  1  0
M  CHG  3   7  -1   8  -1  11  -1
M  END
>  <UniqueID>  (83) 
77

>  <SMILES>  (83) 
C=c1c(=Cc2c([O-])[n-]c(=O)[n-]c2=O)cc(C)n1Cc1ccc(N2CCCC2=O)cc1

>  <Energy>  (83) 
101.30507115911782

>  <Genealogy>  (83) 
C=c1c(=Cc2c([O-])[n-]c(=O)[n-]c2=O)cc(C)n1Cc1ccc(N2CCCC2=O)cc1 (protonated)
C=c1c(=Cc2c([O-])[n-]c(=O)[n-]c2=O)cc(C)n1Cc1ccc(N2CCCC2=O)cc1 (3D coordinates assigned)
C=c1c(=Cc2c([O-])[n-]c(=O)[n-]c2=O)cc(C)n1Cc1ccc(N2CCCC2=O)cc1 (nonaromatic ring conformer: 101.30507115911782 kcal/mol)

>  <smiles>  (83) 
C=c1c(=Cc2c(O)[nH]c(=O)[nH]c2=O)cc(C)n1Cc1ccc(N2CCCC2=O)cc1

>  <score_type>  (83) 
oracle

>  <origin>  (83) 
adg

>  <m_score__min__energy>  (83) 
-16.02

>  <m_primary>  (83) 
energy

$$$$
83:0
     RDKit          3D

 47 49  0  0  0  0  0  0  0  0999 V2000
   55.4270   23.3380   47.9670 C   0  0  0  0  0  0  0  0  0  0  0  0
   55.4750   24.4040   47.0240 O   0  0  0  0  0  0  0  0  0  0  0  0
   55.9670   24.2860   45.7150 C   0  0  0  0  0  0  0  0  0  0  0  0
   55.5940   23.2220   44.8680 C   0  0  0  0  0  0  0  0  0  0  0  0
   56.1110   23.1370   43.5730 C   0  0  0  0  0  0  0  0  0  0  0  0
   57.0060   24.1020   43.1120 C   0  0  0  0  0  0  0  0  0  0  0  0
   57.3830   25.1600   43.9420 C   0  0  0  0  0  0  0  0  0  0  0  0
   56.8530   25.2670   45.2410 C   0  0  0  0  0  0  0  0  0  0  0  0
   57.2280   26.3100   46.1030 O   0  0  0  0  0  0  0  0  0  0  0  0
   57.3430   27.6600   45.7440 C   0  0  0  0  0  0  0  0  0  0  0  0
   58.5530   28.3620   45.8710 C   0  0  0  0  0  0  0  0  0  0  0  0
   58.6160   29.7000   45.4820 C   0  0  0  0  0  0  0  0  0  0  0  0
   57.4800   30.3390   44.9550 C   0  0  0  0  0  0  0  0  0  0  0  0
   57.5350   31.7570   44.5350 C   0  0  0  0  0  0  0  0  0  0  0  0
   58.2380   32.0960   43.5450 O   0  0  0  0  0  0  0  0  0  0  0  0
   56.7940   32.7510   45.2540 N   0  0  0  0  0  0  0  0  0  0  0  0
   57.1430   33.2100   46.5940 C   0  0  0  0  0  0  0  0  0  0  0  0
   58.6370   33.2800   46.7480 C   0  0  0  0  0  0  0  0  0  0  0  0
   59.3050   32.4250   47.6400 C   0  0  0  0  0  0  0  0  0  0  0  0
   60.6960   32.4800   47.7620 C   0  0  0  0  0  0  0  0  0  0  0  0
   61.4360   33.3870   46.9930 C   0  0  0  0  0  0  0  0  0  0  0  0
   63.1890   33.4440   47.1420 S   0  0  0  0  0  0  0  0  0  0  0  0
   63.8290   31.8370   47.1270 N   0  0  0  0  0  0  0  0  0  0  0  0
   63.5730   34.1060   48.4360 O   0  0  0  0  0  0  0  0  0  0  0  0
   63.7620   34.2240   45.9940 O   0  0  0  0  0  0  0  0  0  0  0  0
   60.7740   34.2330   46.0920 C   0  0  0  0  0  0  0  0  0  0  0  0
   59.3820   34.1790   45.9700 C   0  0  0  0  0  0  0  0  0  0  0  0
   56.2970   29.5920   44.8280 C   0  0  0  0  0  0  0  0  0  0  0  0
   56.2610   28.2900   45.2160 N   0  0  0  0  0  0  0  0  0  0  0  0
   55.4455   23.7496   48.9869 H   0  0  0  0  0  0  0  0  0  0  0  0
   54.5020   22.7609   47.8212 H   0  0  0  0  0  0  0  0  0  0  0  0
   56.2964   22.6801   47.8212 H   0  0  0  0  0  0  0  0  0  0  0  0
   54.8926   22.4553   45.2287 H   0  0  0  0  0  0  0  0  0  0  0  0
   55.8116   22.3074   42.9157 H   0  0  0  0  0  0  0  0  0  0  0  0
   57.4154   24.0298   42.0936 H   0  0  0  0  0  0  0  0  0  0  0  0
   58.0976   25.9132   43.5785 H   0  0  0  0  0  0  0  0  0  0  0  0
   59.4448   27.8600   46.2745 H   0  0  0  0  0  0  0  0  0  0  0  0
   59.5583   30.2575   45.5880 H   0  0  0  0  0  0  0  0  0  0  0  0
   56.7138   34.2093   46.7587 H   0  0  0  0  0  0  0  0  0  0  0  0
   56.7397   32.5009   47.3319 H   0  0  0  0  0  0  0  0  0  0  0  0
   58.7304   31.7086   48.2455 H   0  0  0  0  0  0  0  0  0  0  0  0
   61.2115   31.8086   48.4645 H   0  0  0  0  0  0  0  0  0  0  0  0
   64.4940   31.7800   46.3240 H   0  0  0  0  0  0  0  0  0  0  0  0
   64.3960   31.7270   47.9970 H   0  0  0  0  0  0  0  0  0  0  0  0
   61.3512   34.9412   45.4794 H   0  0  0  0  0  0  0  0  0  0  0  0
   58.8686   34.8446   45.2606 H   0  0  0  0  0  0  0  0  0  0  0  0
   55.3945   30.0637   44.4121 H   0  0  0  0  0  0  0  0  0  0  0  0
  1  2  1  0
  2  3  1  0
  3  4  2  0
  4  5  1  0
  5  6  2  0
  6  7  1  0
  7  8  2  0
  8  9  1  0
  9 10  1  0
 10 11  2  0
 11 12  1  0
 12 13  2  0
 13 14  1  0
 14 15  2  0
 14 16  1  0
 16 17  1  0
 17 18  1  0
 18 19  2  0
 19 20  1  0
 20 21  2  0
 21 22  1  0
 22 23  1  0
 22 24  2  0
 22 25  2  0
 21 26  1  0
 26 27  2  0
 13 28  1  0
 28 29  2  0
  8  3  1  0
 29 10  1  0
 27 18  1  0
  1 30  1  0
  1 31  1  0
  1 32  1  0
  4 33  1  0
  5 34  1  0
  6 35  1  0
  7 36  1  0
 11 37  1  0
 12 38  1  0
 17 39  1  0
 17 40  1  0
 19 41  1  0
 20 42  1  0
 23 43  1  0
 23 44  1  0
 26 45  1  0
 27 46  1  0
 28 47  1  0
M  CHG  1  16  -1
M  END
>  <UniqueID>  (84) 
78

>  <SMILES>  (84) 
COc1ccccc1Oc1ccc(C(=O)[N-]Cc2ccc(S(N)(=O)=O)cc2)cn1

>  <Energy>  (84) 
53.54105015627281

>  <Genealogy>  (84) 
COc1ccccc1Oc1ccc(C(=O)[N-]Cc2ccc(S(N)(=O)=O)cc2)cn1 (protonated)
COc1ccccc1Oc1ccc(C(=O)[N-]Cc2ccc(S(N)(=O)=O)cc2)cn1 (3D coordinates assigned)
COc1ccccc1Oc1ccc(C(=O)[N-]Cc2ccc(S(N)(=O)=O)cc2)cn1 (optimized conformer: 53.54105015627281 kcal/mol)

>  <smiles>  (84) 
COc1ccccc1Oc1ccc(C(=O)NCc2ccc(S(N)(=O)=O)cc2)cn1

>  <score_type>  (84) 
oracle

>  <origin>  (84) 
adg

>  <m_score__min__energy>  (84) 
-10.390000000000001

>  <m_primary>  (84) 
energy

$$$$
84:0
     RDKit          3D

 56 59  0  0  0  0  0  0  0  0999 V2000
   57.0182   32.1751   51.9819 H   0  0  0  0  0  0  0  0  0  0  0  0
   55.9360   31.9850   52.0340 C   0  0  0  0  0  0  0  0  0  0  0  0
   55.2290   32.7090   51.6028 H   0  0  0  0  0  0  0  0  0  0  0  0
   55.4780   30.8690   52.6240 C   0  0  0  0  0  0  0  0  0  0  0  0
   54.1390   30.4760   52.7750 C   0  0  0  0  0  0  0  0  0  0  0  0
   52.9910   31.1550   52.5840 C   0  0  0  0  0  0  0  0  0  0  0  0
   52.6447   31.7983   53.4063 H   0  0  0  0  0  0  0  0  0  0  0  0
   52.1600   31.1100   51.3690 C   0  0  0  0  0  0  0  0  0  0  0  0
   52.2440   30.1630   50.4160 N   0  0  0  0  0  0  0  0  0  0  0  0
   51.4080   30.6130   49.4560 C   0  0  0  0  0  0  0  0  0  0  0  0
   51.2000   29.9800   48.3880 O   0  0  0  0  0  0  0  0  0  0  0  0
   50.8220   31.7990   49.7240 N   0  0  0  0  0  0  0  0  0  0  0  0
   51.3200   32.1060   50.9330 C   0  0  0  0  0  0  0  0  0  0  0  0
   51.0190   33.2740   51.6200 O   0  0  0  0  0  0  0  0  0  0  0  0
   54.1680   29.1600   53.2060 C   0  0  0  0  0  0  0  0  0  0  0  0
   53.2994   28.5072   53.3774 H   0  0  0  0  0  0  0  0  0  0  0  0
   55.4940   28.8250   53.3790 C   0  0  0  0  0  0  0  0  0  0  0  0
   55.9800   27.4860   53.8450 C   0  0  0  0  0  0  0  0  0  0  0  0
   55.9889   27.4615   54.9447 H   0  0  0  0  0  0  0  0  0  0  0  0
   55.3097   26.7004   53.4662 H   0  0  0  0  0  0  0  0  0  0  0  0
   56.9982   27.3133   53.4662 H   0  0  0  0  0  0  0  0  0  0  0  0
   56.2890   29.8560   53.0220 N   0  0  0  0  0  0  0  0  0  0  0  0
   57.7270   29.8520   53.0260 C   0  0  0  0  0  0  0  0  0  0  0  0
   58.4190   30.1030   54.2170 C   0  0  0  0  0  0  0  0  0  0  0  0
   57.8598   30.2886   55.1459 H   0  0  0  0  0  0  0  0  0  0  0  0
   59.8150   30.1190   54.2320 C   0  0  0  0  0  0  0  0  0  0  0  0
   60.3493   30.3225   55.1718 H   0  0  0  0  0  0  0  0  0  0  0  0
   60.5410   29.8770   53.0550 C   0  0  0  0  0  0  0  0  0  0  0  0
   62.0530   29.9100   53.0780 C   0  0  0  0  0  0  0  0  0  0  0  0
   62.3893   29.6744   54.0985 H   0  0  0  0  0  0  0  0  0  0  0  0
   62.4003   29.1730   52.3389 H   0  0  0  0  0  0  0  0  0  0  0  0
   62.6290   31.2160   52.6870 N   0  0  0  0  0  0  0  0  0  0  0  0
   62.1040   32.3930   53.4180 C   0  0  0  0  0  0  0  0  0  0  0  0
   61.4107   32.0416   54.1964 H   0  0  0  0  0  0  0  0  0  0  0  0
   62.9659   32.9259   53.8460 H   0  0  0  0  0  0  0  0  0  0  0  0
   61.3600   33.3790   52.5100 C   0  0  0  0  0  0  0  0  0  0  0  0
   60.6404   33.9575   53.1080 H   0  0  0  0  0  0  0  0  0  0  0  0
   62.0818   34.0650   52.0427 H   0  0  0  0  0  0  0  0  0  0  0  0
   60.6420   32.6330   51.4640 N   0  0  0  0  0  0  0  0  0  0  0  0
   59.6890   33.4960   50.7360 C   0  0  0  0  0  0  0  0  0  0  0  0
   58.9962   33.9542   51.4572 H   0  0  0  0  0  0  0  0  0  0  0  0
   60.2580   34.2703   50.2005 H   0  0  0  0  0  0  0  0  0  0  0  0
   58.8860   32.6910   49.7150 C   0  0  0  0  0  0  0  0  0  0  0  0
   58.2040   32.0073   50.2417 H   0  0  0  0  0  0  0  0  0  0  0  0
   58.3021   33.3774   49.0842 H   0  0  0  0  0  0  0  0  0  0  0  0
   59.5739   32.1088   49.0842 H   0  0  0  0  0  0  0  0  0  0  0  0
   61.6110   32.0320   50.5230 C   0  0  0  0  0  0  0  0  0  0  0  0
   61.1022   31.2418   49.9515 H   0  0  0  0  0  0  0  0  0  0  0  0
   61.9795   32.8358   49.8687 H   0  0  0  0  0  0  0  0  0  0  0  0
   62.8370   31.4140   51.2380 C   0  0  0  0  0  0  0  0  0  0  0  0
   63.0533   30.4377   50.7796 H   0  0  0  0  0  0  0  0  0  0  0  0
   63.6724   32.1201   51.1219 H   0  0  0  0  0  0  0  0  0  0  0  0
   59.8460   29.6360   51.8580 C   0  0  0  0  0  0  0  0  0  0  0  0
   60.4049   29.4541   50.9282 H   0  0  0  0  0  0  0  0  0  0  0  0
   58.4460   29.6260   51.8420 C   0  0  0  0  0  0  0  0  0  0  0  0
   57.7760   29.4050   50.6450 O   0  0  0  0  0  0  0  0  0  0  0  0
  1  2  1  0
  2  3  1  0
  2  4  2  0
  4  5  1  0
  5  6  2  0
  6  7  1  0
  6  8  1  0
  8  9  1  0
  9 10  1  0
 10 11  2  0
 10 12  1  0
 12 13  1  0
 13 14  1  0
  5 15  1  0
 15 16  1  0
 15 17  2  0
 17 18  1  0
 18 19  1  0
 18 20  1  0
 18 21  1  0
 17 22  1  0
 22 23  1  0
 23 24  2  0
 24 25  1  0
 24 26  1  0
 26 27  1  0
 26 28  2  0
 28 29  1  0
 29 30  1  0
 29 31  1  0
 29 32  1  0
 32 33  1  0
 33 34  1  0
 33 35  1  0
 33 36  1  0
 36 37  1  0
 36 38  1  0
 36 39  1  0
 39 40  1  0
 40 41  1  0
 40 42  1  0
 40 43  1  0
 43 44  1  0
 43 45  1  0
 43 46  1  0
 39 47  1  0
 47 48  1  0
 47 49  1  0
 47 50  1  0
 50 51  1  0
 50 52  1  0
 28 53  1  0
 53 54  1  0
 53 55  2  0
 55 56  1  0
 22  4  1  0
 55 23  1  0
 13  8  2  0
 50 32  1  0
M  CHG  4   9  -1  12  -1  14  -1  56  -1
M  END
>  <UniqueID>  (85) 
79

>  <SMILES>  (85) 
C=c1/c(=C\c2[n-]c(=O)[n-]c2[O-])cc(C)n1-c1ccc(CN2CCN(CC)CC2)cc1[O-]

>  <Energy>  (85) 
144.55554807304844

>  <Genealogy>  (85) 
C=c1c(=Cc2[n-]c(=O)[n-]c2[O-])cc(C)n1-c1ccc(CN2CCN(CC)CC2)cc1[O-] (protonated)
C=c1/c(=C\c2[n-]c(=O)[n-]c2[O-])cc(C)n1-c1ccc(CN2CCN(CC)CC2)cc1[O-] (cis-trans isomerization)
C=c1/c(=C\c2[n-]c(=O)[n-]c2[O-])cc(C)n1-c1ccc(CN2CCN(CC)CC2)cc1[O-] (3D coordinates assigned)
C=c1/c(=C\c2[n-]c(=O)[n-]c2[O-])cc(C)n1-c1ccc(CN2CCN(CC)CC2)cc1[O-] (nonaromatic ring conformer: 144.55554807304844 kcal/mol)

>  <smiles>  (85) 
C=c1c(=Cc2[nH]c(=O)[nH]c2O)cc(C)n1-c1ccc(CN2CCN(CC)CC2)cc1O

>  <score_type>  (85) 
oracle

>  <origin>  (85) 
adg

>  <m_score__min__energy>  (85) 
-17.059999999999999

>  <m_primary>  (85) 
energy

$$$$
85:0
     RDKit          3D

 53 55  0  0  0  0  0  0  0  0999 V2000
   54.7640   27.0940   45.0330 H   0  0  0  0  0  0  0  0  0  0  0  0
   55.1440   26.7120   45.8880 O   0  0  0  0  0  0  0  0  0  0  0  0
   56.4790   26.3270   46.0140 C   0  0  0  0  0  0  0  0  0  0  0  0
   56.7660   25.2780   46.8950 C   0  0  0  0  0  0  0  0  0  0  0  0
   55.9877   24.9104   47.5800 H   0  0  0  0  0  0  0  0  0  0  0  0
   58.0320   24.6970   46.9090 C   0  0  0  0  0  0  0  0  0  0  0  0
   58.2579   23.8715   47.6001 H   0  0  0  0  0  0  0  0  0  0  0  0
   59.0090   25.1740   46.0370 C   0  0  0  0  0  0  0  0  0  0  0  0
   59.9954   24.6889   45.9971 H   0  0  0  0  0  0  0  0  0  0  0  0
   58.7420   26.2390   45.2360 N   0  0  0  0  0  0  0  0  0  0  0  0
   57.5340   26.8680   45.2270 C   0  0  0  0  0  0  0  0  0  0  0  0
   57.4310   27.9520   44.5060 N   0  0  0  0  0  0  0  0  0  0  0  0
   56.6930   29.1540   44.7730 C   0  0  0  0  0  0  0  0  0  0  0  0
   55.4340   29.1140   44.8500 O   0  0  0  0  0  0  0  0  0  0  0  0
   57.4120   30.4150   45.0640 C   0  0  0  0  0  0  0  0  0  0  0  0
   56.9240   31.6400   44.5770 C   0  0  0  0  0  0  0  0  0  0  0  0
   56.0100   31.6589   43.9652 H   0  0  0  0  0  0  0  0  0  0  0  0
   57.5910   32.8340   44.8640 C   0  0  0  0  0  0  0  0  0  0  0  0
   57.1974   33.7871   44.4810 H   0  0  0  0  0  0  0  0  0  0  0  0
   58.7580   32.8220   45.6370 C   0  0  0  0  0  0  0  0  0  0  0  0
   59.5800   34.3280   46.0450 S   0  0  0  0  0  0  0  0  0  0  0  0
   61.0620   34.1110   45.9500 O   0  0  0  0  0  0  0  0  0  0  0  0
   59.1930   35.4090   45.0730 O   0  0  0  0  0  0  0  0  0  0  0  0
   59.1810   34.8440   47.6570 N   0  0  0  0  0  0  0  0  0  0  0  0
   60.2540   34.5230   48.6020 C   0  0  0  0  0  0  0  0  0  0  0  0
   60.0524   35.0199   49.5625 H   0  0  0  0  0  0  0  0  0  0  0  0
   61.2112   34.8746   48.1896 H   0  0  0  0  0  0  0  0  0  0  0  0
   60.3310   33.0350   48.8190 C   0  0  0  0  0  0  0  0  0  0  0  0
   59.2350   32.3460   49.3570 C   0  0  0  0  0  0  0  0  0  0  0  0
   58.3068   32.8905   49.5849 H   0  0  0  0  0  0  0  0  0  0  0  0
   59.3120   30.9740   49.6060 C   0  0  0  0  0  0  0  0  0  0  0  0
   58.4436   30.4486   50.0301 H   0  0  0  0  0  0  0  0  0  0  0  0
   60.4900   30.2550   49.3200 C   0  0  0  0  0  0  0  0  0  0  0  0
   60.5740   28.8350   49.6030 N   0  0  0  0  0  0  0  0  0  0  0  0
   60.9480   28.3700   50.9430 C   0  0  0  0  0  0  0  0  0  0  0  0
   60.4477   28.9920   51.6999 H   0  0  0  0  0  0  0  0  0  0  0  0
   60.6385   27.3217   51.0670 H   0  0  0  0  0  0  0  0  0  0  0  0
   62.0382   28.4475   51.0670 H   0  0  0  0  0  0  0  0  0  0  0  0
   60.2850   27.8300   48.5690 C   0  0  0  0  0  0  0  0  0  0  0  0
   60.3490   26.8264   49.0148 H   0  0  0  0  0  0  0  0  0  0  0  0
   61.0208   27.9390   47.7586 H   0  0  0  0  0  0  0  0  0  0  0  0
   58.8880   28.0300   47.9880 C   0  0  0  0  0  0  0  0  0  0  0  0
   58.1615   28.1340   48.8074 H   0  0  0  0  0  0  0  0  0  0  0  0
   58.8751   28.9392   47.3689 H   0  0  0  0  0  0  0  0  0  0  0  0
   58.6205   27.1610   47.3689 H   0  0  0  0  0  0  0  0  0  0  0  0
   61.5780   30.9510   48.7540 C   0  0  0  0  0  0  0  0  0  0  0  0
   62.5030   30.4079   48.5102 H   0  0  0  0  0  0  0  0  0  0  0  0
   61.4950   32.3230   48.4990 C   0  0  0  0  0  0  0  0  0  0  0  0
   62.3486   32.8470   48.0443 H   0  0  0  0  0  0  0  0  0  0  0  0
   59.2580   31.6050   46.1170 C   0  0  0  0  0  0  0  0  0  0  0  0
   60.1820   31.5889   46.7136 H   0  0  0  0  0  0  0  0  0  0  0  0
   58.5860   30.4100   45.8400 C   0  0  0  0  0  0  0  0  0  0  0  0
   58.9779   29.4596   46.2314 H   0  0  0  0  0  0  0  0  0  0  0  0
  1  2  1  0
  2  3  1  0
  3  4  2  0
  4  5  1  0
  4  6  1  0
  6  7  1  0
  6  8  2  0
  8  9  1  0
  8 10  1  0
 10 11  1  0
 11 12  2  0
 12 13  1  0
 13 14  2  0
 13 15  1  0
 15 16  2  0
 16 17  1  0
 16 18  1  0
 18 19  1  0
 18 20  2  0
 20 21  1  0
 21 22  2  0
 21 23  2  0
 21 24  1  0
 24 25  1  0
 25 26  1  0
 25 27  1  0
 25 28  1  0
 28 29  2  0
 29 30  1  0
 29 31  1  0
 31 32  1  0
 31 33  2  0
 33 34  1  0
 34 35  1  0
 35 36  1  0
 35 37  1  0
 35 38  1  0
 34 39  1  0
 39 40  1  0
 39 41  1  0
 39 42  1  0
 42 43  1  0
 42 44  1  0
 42 45  1  0
 33 46  1  0
 46 47  1  0
 46 48  2  0
 48 49  1  0
 20 50  1  0
 50 51  1  0
 50 52  2  0
 52 53  1  0
 11  3  1  0
 52 15  1  0
 48 28  1  0
M  CHG  2  10  -1  24  -1
M  END
>  <UniqueID>  (86) 
80

>  <SMILES>  (86) 
CCN(C)c1ccc(C[N-]S(=O)(=O)c2ccc(C(=O)/N=c3/[n-]cccc3O)cc2)cc1

>  <Energy>  (86) 
66.97929006955388

>  <Genealogy>  (86) 
CCN(C)c1ccc(C[N-]S(=O)(=O)c2ccc(C(=O)N=c3[n-]cccc3O)cc2)cc1 (protonated)
CCN(C)c1ccc(C[N-]S(=O)(=O)c2ccc(C(=O)/N=c3/[n-]cccc3O)cc2)cc1 (cis-trans isomerization)
CCN(C)c1ccc(C[N-]S(=O)(=O)c2ccc(C(=O)/N=c3/[n-]cccc3O)cc2)cc1 (3D coordinates assigned)
CCN(C)c1ccc(C[N-]S(=O)(=O)c2ccc(C(=O)/N=c3/[n-]cccc3O)cc2)cc1 (optimized conformer: 66.97929006955388 kcal/mol)

>  <smiles>  (86) 
CCN(C)c1ccc(CNS(=O)(=O)c2ccc(C(=O)N=c3[nH]cccc3O)cc2)cc1

>  <score_type>  (86) 
oracle

>  <origin>  (86) 
adg

>  <m_score__min__energy>  (86) 
-12.41

>  <m_primary>  (86) 
energy

$$$$
86:0
     RDKit          3D

 61 64  0  0  0  0  0  0  0  0999 V2000
   58.4140   29.7090   44.9220 O   0  0  0  0  0  0  0  0  0  0  0  0
   59.0360   28.8360   45.5860 C   0  0  0  0  0  0  0  0  0  0  0  0
   60.3580   29.1170   46.0610 N   0  0  0  0  0  0  0  0  0  0  0  0
   60.8230   30.4520   46.4210 C   0  0  0  0  0  0  0  0  0  0  0  0
   60.0780   30.9560   47.6280 C   0  0  0  0  0  0  0  0  0  0  0  0
   60.6140   30.7700   48.9100 C   0  0  0  0  0  0  0  0  0  0  0  0
   59.9400   31.2540   50.0350 C   0  0  0  0  0  0  0  0  0  0  0  0
   58.7140   31.9280   49.8960 C   0  0  0  0  0  0  0  0  0  0  0  0
   57.9750   32.4460   51.1160 C   0  0  0  0  0  0  0  0  0  0  0  0
   57.9450   31.4870   52.2490 N   0  0  0  0  0  0  0  0  0  0  0  0
   58.1220   30.0840   51.8040 C   0  0  0  0  0  0  0  0  0  0  0  0
   57.6850   29.0930   52.8850 C   0  0  0  0  0  0  0  0  0  0  0  0
   56.1720   29.0090   53.1180 C   0  0  0  0  0  0  0  0  0  0  0  0
   55.4220   29.7660   52.0890 N   0  0  0  0  0  0  0  0  0  0  0  0
   54.0350   29.2680   51.9200 C   0  0  0  0  0  0  0  0  0  0  0  0
   52.9770   30.3520   52.0290 C   0  0  0  0  0  0  0  0  0  0  0  0
   52.4560   30.7200   53.2830 C   0  0  0  0  0  0  0  0  0  0  0  0
   51.4870   31.7230   53.3790 C   0  0  0  0  0  0  0  0  0  0  0  0
   51.0200   32.3600   52.2270 C   0  0  0  0  0  0  0  0  0  0  0  0
   51.5160   31.9900   50.9740 C   0  0  0  0  0  0  0  0  0  0  0  0
   51.0420   32.6150   49.8280 O   0  0  0  0  0  0  0  0  0  0  0  0
   52.4850   30.9870   50.8730 C   0  0  0  0  0  0  0  0  0  0  0  0
   55.4600   31.2250   52.3430 C   0  0  0  0  0  0  0  0  0  0  0  0
   56.7320   31.6510   53.0820 C   0  0  0  0  0  0  0  0  0  0  0  0
   58.1920   32.1340   48.6060 C   0  0  0  0  0  0  0  0  0  0  0  0
   58.8670   31.6500   47.4830 C   0  0  0  0  0  0  0  0  0  0  0  0
   58.4030   27.5240   45.8770 C   0  0  0  0  0  0  0  0  0  0  0  0
   59.1990   26.4310   46.2730 C   0  0  0  0  0  0  0  0  0  0  0  0
   58.6190   25.1900   46.5490 C   0  0  0  0  0  0  0  0  0  0  0  0
   57.2380   25.0200   46.4320 C   0  0  0  0  0  0  0  0  0  0  0  0
   56.4350   26.0920   46.0410 C   0  0  0  0  0  0  0  0  0  0  0  0
   57.0060   27.3400   45.7640 C   0  0  0  0  0  0  0  0  0  0  0  0
   56.1900   28.3560   45.3870 F   0  0  0  0  0  0  0  0  0  0  0  0
   61.8985   30.4127   46.6485 H   0  0  0  0  0  0  0  0  0  0  0  0
   60.6414   31.1341   45.5774 H   0  0  0  0  0  0  0  0  0  0  0  0
   61.5703   30.2402   49.0313 H   0  0  0  0  0  0  0  0  0  0  0  0
   60.3718   31.1065   51.0359 H   0  0  0  0  0  0  0  0  0  0  0  0
   58.4689   33.3685   51.4552 H   0  0  0  0  0  0  0  0  0  0  0  0
   56.9317   32.6153   50.8113 H   0  0  0  0  0  0  0  0  0  0  0  0
   57.5174   29.9167   50.9004 H   0  0  0  0  0  0  0  0  0  0  0  0
   59.1898   29.9199   51.5969 H   0  0  0  0  0  0  0  0  0  0  0  0
   58.0410   28.0935   52.5948 H   0  0  0  0  0  0  0  0  0  0  0  0
   58.1200   29.4568   53.8275 H   0  0  0  0  0  0  0  0  0  0  0  0
   55.8627   27.9540   53.0820 H   0  0  0  0  0  0  0  0  0  0  0  0
   55.9490   29.4488   54.1013 H   0  0  0  0  0  0  0  0  0  0  0  0
   53.9526   28.8015   50.9272 H   0  0  0  0  0  0  0  0  0  0  0  0
   53.8488   28.5553   52.7369 H   0  0  0  0  0  0  0  0  0  0  0  0
   52.8131   30.2157   54.1930 H   0  0  0  0  0  0  0  0  0  0  0  0
   51.0914   32.0113   54.3641 H   0  0  0  0  0  0  0  0  0  0  0  0
   50.2617   33.1530   52.3061 H   0  0  0  0  0  0  0  0  0  0  0  0
   52.8653   30.6922   49.8838 H   0  0  0  0  0  0  0  0  0  0  0  0
   55.4164   31.7535   51.3793 H   0  0  0  0  0  0  0  0  0  0  0  0
   54.5991   31.4795   52.9786 H   0  0  0  0  0  0  0  0  0  0  0  0
   56.6384   32.7094   53.3668 H   0  0  0  0  0  0  0  0  0  0  0  0
   56.8404   31.0061   53.9665 H   0  0  0  0  0  0  0  0  0  0  0  0
   57.2454   32.6802   48.4808 H   0  0  0  0  0  0  0  0  0  0  0  0
   58.4471   31.8137   46.4796 H   0  0  0  0  0  0  0  0  0  0  0  0
   60.2879   26.5558   46.3658 H   0  0  0  0  0  0  0  0  0  0  0  0
   59.2517   24.3453   46.8591 H   0  0  0  0  0  0  0  0  0  0  0  0
   56.7835   24.0418   46.6479 H   0  0  0  0  0  0  0  0  0  0  0  0
   55.3473   25.9559   45.9499 H   0  0  0  0  0  0  0  0  0  0  0  0
  1  2  2  0
  2  3  1  0
  3  4  1  0
  4  5  1  0
  5  6  2  0
  6  7  1  0
  7  8  2  0
  8  9  1  0
  9 10  1  0
 10 11  1  0
 11 12  1  0
 12 13  1  0
 13 14  1  0
 14 15  1  0
 15 16  1  0
 16 17  2  0
 17 18  1  0
 18 19  2  0
 19 20  1  0
 20 21  1  0
 20 22  2  0
 14 23  1  0
 23 24  1  0
  8 25  1  0
 25 26  2  0
  2 27  1  0
 27 28  2  0
 28 29  1  0
 29 30  2  0
 30 31  1  0
 31 32  2  0
 32 33  1  0
 26  5  1  0
 32 27  1  0
 24 10  1  0
 22 16  1  0
  4 34  1  0
  4 35  1  0
  6 36  1  0
  7 37  1  0
  9 38  1  0
  9 39  1  0
 11 40  1  0
 11 41  1  0
 12 42  1  0
 12 43  1  0
 13 44  1  0
 13 45  1  0
 15 46  1  0
 15 47  1  0
 17 48  1  0
 18 49  1  0
 19 50  1  0
 22 51  1  0
 23 52  1  0
 23 53  1  0
 24 54  1  0
 24 55  1  0
 25 56  1  0
 26 57  1  0
 28 58  1  0
 29 59  1  0
 30 60  1  0
 31 61  1  0
M  CHG  2   3  -1  21  -1
M  END
>  <UniqueID>  (87) 
81

>  <SMILES>  (87) 
O=C([N-]Cc1ccc(CN2CCCN(Cc3cccc([O-])c3)CC2)cc1)c1ccccc1F

>  <Energy>  (87) 
77.40251740488809

>  <Genealogy>  (87) 
O=C([N-]Cc1ccc(CN2CCCN(Cc3cccc([O-])c3)CC2)cc1)c1ccccc1F (protonated)
O=C([N-]Cc1ccc(CN2CCCN(Cc3cccc([O-])c3)CC2)cc1)c1ccccc1F (3D coordinates assigned)
O=C([N-]Cc1ccc(CN2CCCN(Cc3cccc([O-])c3)CC2)cc1)c1ccccc1F (nonaromatic ring conformer: 77.40251740488809 kcal/mol)

>  <smiles>  (87) 
O=C(NCc1ccc(CN2CCCN(Cc3cccc(O)c3)CC2)cc1)c1ccccc1F

>  <score_type>  (87) 
oracle

>  <origin>  (87) 
adg

>  <m_score__min__energy>  (87) 
-11.890000000000001

>  <m_primary>  (87) 
energy

$$$$
87:0
     RDKit          3D

 41 43  0  0  0  0  0  0  0  0999 V2000
   58.8560   29.0610   47.9070 O   0  0  0  0  0  0  0  0  0  0  0  0
   58.4970   27.9640   47.4050 C   0  0  0  0  0  0  0  0  0  0  0  0
   57.4070   27.9680   46.4640 N   0  0  0  0  0  0  0  0  0  0  0  0
   57.0470   28.9080   45.6390 C   0  0  0  0  0  0  0  0  0  0  0  0
   57.7960   30.0320   45.4670 N   0  0  0  0  0  0  0  0  0  0  0  0
   57.4320   31.0000   44.5860 C   0  0  0  0  0  0  0  0  0  0  0  0
   58.2640   32.2400   44.4590 C   0  0  0  0  0  0  0  0  0  0  0  0
   58.7200   32.6980   45.8200 C   0  0  0  0  0  0  0  0  0  0  0  0
   58.7840   33.8990   46.0460 O   0  0  0  0  0  0  0  0  0  0  0  0
   59.0620   31.7290   46.8500 N   0  0  2  0  0  0  0  0  0  0  0  0
   58.6510   32.1740   48.1990 C   0  0  0  0  0  0  0  0  0  0  0  0
   59.4340   33.4000   48.6910 C   0  0  0  0  0  0  0  0  0  0  0  0
   60.9040   33.3050   48.3870 C   0  0  0  0  0  0  0  0  0  0  0  0
   61.7860   34.2150   48.9930 C   0  0  0  0  0  0  0  0  0  0  0  0
   63.1490   34.1890   48.6850 C   0  0  0  0  0  0  0  0  0  0  0  0
   63.6420   33.2600   47.7680 C   0  0  0  0  0  0  0  0  0  0  0  0
   62.7720   32.3580   47.1500 C   0  0  0  0  0  0  0  0  0  0  0  0
   61.3980   32.3840   47.4390 C   0  0  0  0  0  0  0  0  0  0  0  0
   60.4910   31.3530   46.8070 C   0  0  0  0  0  0  0  0  0  0  0  0
   56.2530   30.8520   43.8480 C   0  0  0  0  0  0  0  0  0  0  0  0
   55.4990   29.6930   44.0280 C   0  0  0  0  0  0  0  0  0  0  0  0
   54.4360   29.5200   43.3750 O   0  0  0  0  0  0  0  0  0  0  0  0
   55.9100   28.7470   44.9120 N   0  0  0  0  0  0  0  0  0  0  0  0
   59.2580   26.7240   47.7810 C   0  0  0  0  0  0  0  0  0  0  0  0
   58.4100   25.6320   47.8170 F   0  0  0  0  0  0  0  0  0  0  0  0
   60.2870   26.5000   46.8850 F   0  0  0  0  0  0  0  0  0  0  0  0
   59.1432   32.0260   43.8335 H   0  0  0  0  0  0  0  0  0  0  0  0
   57.6597   33.0336   43.9954 H   0  0  0  0  0  0  0  0  0  0  0  0
   58.5210   30.8530   46.6520 H   0  0  0  0  0  0  0  0  0  0  0  0
   57.5812   32.4285   48.1733 H   0  0  0  0  0  0  0  0  0  0  0  0
   58.8602   31.3488   48.8956 H   0  0  0  0  0  0  0  0  0  0  0  0
   59.0295   34.2973   48.1998 H   0  0  0  0  0  0  0  0  0  0  0  0
   59.3215   33.4517   49.7840 H   0  0  0  0  0  0  0  0  0  0  0  0
   61.4019   34.9519   49.7137 H   0  0  0  0  0  0  0  0  0  0  0  0
   63.8343   34.9022   49.1664 H   0  0  0  0  0  0  0  0  0  0  0  0
   64.7160   33.2377   47.5315 H   0  0  0  0  0  0  0  0  0  0  0  0
   63.1658   31.6230   46.4326 H   0  0  0  0  0  0  0  0  0  0  0  0
   60.7871   31.2247   45.7554 H   0  0  0  0  0  0  0  0  0  0  0  0
   60.6015   30.4231   47.3842 H   0  0  0  0  0  0  0  0  0  0  0  0
   55.9285   31.6312   43.1426 H   0  0  0  0  0  0  0  0  0  0  0  0
   59.6890   26.8691   48.7826 H   0  0  0  0  0  0  0  0  0  0  0  0
  1  2  2  0
  2  3  1  0
  3  4  2  3
  4  5  1  0
  5  6  1  0
  6  7  1  0
  7  8  1  0
  8  9  2  0
  8 10  1  0
 10 11  1  0
 11 12  1  0
 12 13  1  0
 13 14  2  0
 14 15  1  0
 15 16  2  0
 16 17  1  0
 17 18  2  0
 18 19  1  0
  6 20  2  0
 20 21  1  0
 21 22  2  0
 21 23  1  0
  2 24  1  0
 24 25  1  0
 24 26  1  0
 23  4  1  0
 19 10  1  0
 18 13  1  0
  7 27  1  0
  7 28  1  0
 10 29  1  6
 11 30  1  0
 11 31  1  0
 12 32  1  0
 12 33  1  0
 14 34  1  0
 15 35  1  0
 16 36  1  0
 17 37  1  0
 19 38  1  0
 19 39  1  0
 20 40  1  0
 24 41  1  0
M  CHG  3   5  -1  10   1  23  -1
M  END
>  <UniqueID>  (88) 
82

>  <SMILES>  (88) 
O=C(N=c1[n-]c(CC(=O)[N@@H+]2CCc3ccccc3C2)cc(=O)[n-]1)C(F)F

>  <Energy>  (88) 
50.87142014023593

>  <Genealogy>  (88) 
O=C(N=c1[n-]c(CC(=O)[NH+]2CCc3ccccc3C2)cc(=O)[n-]1)C(F)F (protonated)
O=C(N=c1[n-]c(CC(=O)[N@@H+]2CCc3ccccc3C2)cc(=O)[n-]1)C(F)F (chirality)
O=C(N=c1[n-]c(CC(=O)[N@@H+]2CCc3ccccc3C2)cc(=O)[n-]1)C(F)F (3D coordinates assigned)
O=C(N=c1[n-]c(CC(=O)[N@@H+]2CCc3ccccc3C2)cc(=O)[n-]1)C(F)F (nonaromatic ring conformer: 50.87142014023593 kcal/mol)

>  <smiles>  (88) 
O=C(N=c1[nH]c(CC(=O)N2CCc3ccccc3C2)cc(=O)[nH]1)C(F)F

>  <score_type>  (88) 
oracle

>  <origin>  (88) 
adg

>  <m_score__min__energy>  (88) 
-10.539999999999999

>  <m_primary>  (88) 
energy

$$$$
