0:0
     RDKit          3D

 35 36  0  0  0  0  0  0  0  0999 V2000
   58.3150   32.3240   42.4770 C   0  0  0  0  0  0  0  0  0  0  0  0
   57.5550   31.2610   43.2150 C   0  0  0  0  0  0  0  0  0  0  0  0
   56.3770   30.7330   42.6820 C   0  0  0  0  0  0  0  0  0  0  0  0
   55.7020   29.7210   43.3600 C   0  0  0  0  0  0  0  0  0  0  0  0
   56.2060   29.2450   44.5720 C   0  0  0  0  0  0  0  0  0  0  0  0
   55.5190   28.2320   45.2350 O   0  0  0  0  0  0  0  0  0  0  0  0
   57.3610   29.7690   45.0970 N   0  0  0  0  0  0  0  0  0  0  0  0
   57.8780   29.2840   46.3890 C   0  0  0  0  0  0  0  0  0  0  0  0
   59.0800   28.3900   46.2010 C   0  0  0  0  0  0  0  0  0  0  0  0
   60.1420   28.8880   45.7420 O   0  0  0  0  0  0  0  0  0  0  0  0
   59.0380   26.9840   46.4730 N   0  0  0  0  0  0  0  0  0  0  0  0
   58.1130   26.0530   45.8990 C   0  0  0  0  0  0  0  0  0  0  0  0
   58.0580   25.8470   44.5120 C   0  0  0  0  0  0  0  0  0  0  0  0
   57.1570   24.9230   43.9750 C   0  0  0  0  0  0  0  0  0  0  0  0
   56.2900   24.2120   44.8170 C   0  0  0  0  0  0  0  0  0  0  0  0
   55.1600   23.0360   44.1520 S   0  0  0  0  0  0  0  0  0  0  0  0
   54.9840   21.7140   45.2520 N   0  0  0  0  0  0  0  0  0  0  0  0
   53.8260   23.6900   43.9310 O   0  0  0  0  0  0  0  0  0  0  0  0
   55.6690   22.5200   42.8350 O   0  0  0  0  0  0  0  0  0  0  0  0
   56.3280   24.4390   46.2000 C   0  0  0  0  0  0  0  0  0  0  0  0
   57.2280   25.3650   46.7350 C   0  0  0  0  0  0  0  0  0  0  0  0
   58.0490   30.7380   44.4170 C   0  0  0  0  0  0  0  0  0  0  0  0
   58.7973   32.9986   43.1997 H   0  0  0  0  0  0  0  0  0  0  0  0
   59.0830   31.8539   41.8452 H   0  0  0  0  0  0  0  0  0  0  0  0
   57.6218   32.8986   41.8452 H   0  0  0  0  0  0  0  0  0  0  0  0
   55.9832   31.1156   41.7288 H   0  0  0  0  0  0  0  0  0  0  0  0
   54.7761   29.2986   42.9426 H   0  0  0  0  0  0  0  0  0  0  0  0
   58.1674   30.1477   47.0056 H   0  0  0  0  0  0  0  0  0  0  0  0
   57.0863   28.7004   46.8815 H   0  0  0  0  0  0  0  0  0  0  0  0
   58.7252   26.4138   43.8460 H   0  0  0  0  0  0  0  0  0  0  0  0
   57.1280   24.7531   42.8886 H   0  0  0  0  0  0  0  0  0  0  0  0
   54.7500   20.8700   44.6820 H   0  0  0  0  0  0  0  0  0  0  0  0
   55.6480   23.8871   46.8656 H   0  0  0  0  0  0  0  0  0  0  0  0
   57.2402   25.5534   47.8187 H   0  0  0  0  0  0  0  0  0  0  0  0
   59.0023   31.1107   44.8199 H   0  0  0  0  0  0  0  0  0  0  0  0
  1  2  1  0
  2  3  2  0
  3  4  1  0
  4  5  2  0
  5  6  1  0
  5  7  1  0
  7  8  1  0
  8  9  1  0
  9 10  2  0
  9 11  1  0
 11 12  1  0
 12 13  2  0
 13 14  1  0
 14 15  2  0
 15 16  1  0
 16 17  1  0
 16 18  2  0
 16 19  2  0
 15 20  1  0
 20 21  2  0
  7 22  2  0
 22  2  1  0
 21 12  1  0
  1 23  1  0
  1 24  1  0
  1 25  1  0
  3 26  1  0
  4 27  1  0
  8 28  1  0
  8 29  1  0
 13 30  1  0
 14 31  1  0
 17 32  1  0
 20 33  1  0
 21 34  1  0
 22 35  1  0
M  CHG  4   6  -1   7   1  11  -1  17  -1
M  END
>  <UniqueID>  (1) 
1

>  <SMILES>  (1) 
Cc1ccc([O-])[n+](CC(=O)[N-]c2ccc(S([NH-])(=O)=O)cc2)c1

>  <Energy>  (1) 
38.12669007511303

>  <Genealogy>  (1) 
Cc1ccc([O-])[n+](CC(=O)[N-]c2ccc(S([NH-])(=O)=O)cc2)c1 (protonated)
Cc1ccc([O-])[n+](CC(=O)[N-]c2ccc(S([NH-])(=O)=O)cc2)c1 (3D coordinates assigned)
Cc1ccc([O-])[n+](CC(=O)[N-]c2ccc(S([NH-])(=O)=O)cc2)c1 (optimized conformer: 38.12669007511303 kcal/mol)

>  <smiles>  (1) 
Cc1ccc(O)[n+](CC(=O)Nc2ccc(S(N)(=O)=O)cc2)c1

>  <score_type>  (1) 
oracle

>  <origin>  (1) 
adg

>  <m_score__min__energy>  (1) 
-10.84

>  <m_primary>  (1) 
energy

$$$$
1:0
     RDKit          3D

 46 49  0  0  0  0  0  0  0  0999 V2000
   59.0390   28.4560   47.7350 C   0  0  0  0  0  0  0  0  0  0  0  0
   59.7800   29.2390   48.6610 O   0  0  0  0  0  0  0  0  0  0  0  0
   59.1990   30.2660   49.4070 C   0  0  0  0  0  0  0  0  0  0  0  0
   58.1610   30.1020   50.2520 N   0  0  0  0  0  0  0  0  0  0  0  0
   57.8870   31.2940   50.7580 N   0  0  0  0  0  0  0  0  0  0  0  0
   56.7850   31.5510   51.6750 C   0  0  0  0  0  0  0  0  0  0  0  0
   58.7130   32.2250   50.2420 C   0  0  0  0  0  0  0  0  0  0  0  0
   59.5830   31.5950   49.3770 C   0  0  0  0  0  0  0  0  0  0  0  0
   60.6750   32.2130   48.5970 C   0  0  0  0  0  0  0  0  0  0  0  0
   60.5600   32.8230   47.4050 C   0  0  0  0  0  0  0  0  0  0  0  0
   59.3340   32.8810   46.5810 C   0  0  0  0  0  0  0  0  0  0  0  0
   58.6940   34.1070   46.3310 C   0  0  0  0  0  0  0  0  0  0  0  0
   57.5540   34.1550   45.5260 C   0  0  0  0  0  0  0  0  0  0  0  0
   57.0390   32.9830   44.9700 C   0  0  0  0  0  0  0  0  0  0  0  0
   57.6540   31.7510   45.2300 C   0  0  0  0  0  0  0  0  0  0  0  0
   57.0270   30.2760   44.5020 S   0  0  0  0  0  0  0  0  0  0  0  0
   57.2610   30.3400   42.7910 N   0  0  0  0  0  0  0  0  0  0  0  0
   57.7480   29.0840   45.0680 O   0  0  0  0  0  0  0  0  0  0  0  0
   55.5610   30.1420   44.8040 O   0  0  0  0  0  0  0  0  0  0  0  0
   58.7980   31.7030   46.0390 C   0  0  0  0  0  0  0  0  0  0  0  0
   61.8780   33.3970   46.9450 C   0  0  0  0  0  0  0  0  0  0  0  0
   62.7720   32.9890   48.0630 C   0  0  0  0  0  0  0  0  0  0  0  0
   64.1340   33.2520   48.2150 C   0  0  0  0  0  0  0  0  0  0  0  0
   64.7760   32.8020   49.3810 C   0  0  0  0  0  0  0  0  0  0  0  0
   66.0980   33.0410   49.5580 F   0  0  0  0  0  0  0  0  0  0  0  0
   64.0480   32.1130   50.3720 C   0  0  0  0  0  0  0  0  0  0  0  0
   62.6770   31.8650   50.2000 C   0  0  0  0  0  0  0  0  0  0  0  0
   62.0640   32.3050   49.0220 C   0  0  0  0  0  0  0  0  0  0  0  0
   58.3833   27.7632   48.2828 H   0  0  0  0  0  0  0  0  0  0  0  0
   58.4277   29.1167   47.1027 H   0  0  0  0  0  0  0  0  0  0  0  0
   59.7324   27.8820   47.1027 H   0  0  0  0  0  0  0  0  0  0  0  0
   57.1435   31.4674   52.7116 H   0  0  0  0  0  0  0  0  0  0  0  0
   56.3936   32.5645   51.5030 H   0  0  0  0  0  0  0  0  0  0  0  0
   55.9856   30.8152   51.5030 H   0  0  0  0  0  0  0  0  0  0  0  0
   58.6964   33.3008   50.4709 H   0  0  0  0  0  0  0  0  0  0  0  0
   59.0928   35.0328   46.7714 H   0  0  0  0  0  0  0  0  0  0  0  0
   57.0609   35.1185   45.3297 H   0  0  0  0  0  0  0  0  0  0  0  0
   56.1482   33.0265   44.3261 H   0  0  0  0  0  0  0  0  0  0  0  0
   58.1630   30.8390   42.6250 H   0  0  0  0  0  0  0  0  0  0  0  0
   57.3940   29.3570   42.4630 H   0  0  0  0  0  0  0  0  0  0  0  0
   59.2782   30.7361   46.2501 H   0  0  0  0  0  0  0  0  0  0  0  0
   62.1991   32.9561   45.9897 H   0  0  0  0  0  0  0  0  0  0  0  0
   61.8582   34.4799   46.7527 H   0  0  0  0  0  0  0  0  0  0  0  0
   64.6918   33.7986   47.4404 H   0  0  0  0  0  0  0  0  0  0  0  0
   64.5565   31.7680   51.2844 H   0  0  0  0  0  0  0  0  0  0  0  0
   62.0987   31.3374   50.9728 H   0  0  0  0  0  0  0  0  0  0  0  0
  1  2  1  0
  2  3  1  0
  3  4  2  0
  4  5  1  0
  5  6  1  0
  5  7  1  0
  7  8  2  0
  8  9  1  0
  9 10  2  0
 10 11  1  0
 11 12  2  0
 12 13  1  0
 13 14  2  0
 14 15  1  0
 15 16  1  0
 16 17  1  0
 16 18  2  0
 16 19  2  0
 15 20  2  0
 10 21  1  0
 21 22  1  0
 22 23  2  0
 23 24  1  0
 24 25  1  0
 24 26  2  0
 26 27  1  0
 27 28  2  0
  8  3  1  0
 28  9  1  0
 20 11  1  0
 28 22  1  0
  1 29  1  0
  1 30  1  0
  1 31  1  0
  6 32  1  0
  6 33  1  0
  6 34  1  0
  7 35  1  0
 12 36  1  0
 13 37  1  0
 14 38  1  0
 17 39  1  0
 17 40  1  0
 20 41  1  0
 21 42  1  0
 21 43  1  0
 23 44  1  0
 26 45  1  0
 27 46  1  0
M  END
>  <UniqueID>  (2) 
2

>  <SMILES>  (2) 
COc1nn(C)cc1C1=C(c2cccc(S(N)(=O)=O)c2)Cc2cc(F)ccc21

>  <Energy>  (2) 
101.39862607775449

>  <Genealogy>  (2) 
COc1nn(C)cc1C1=C(c2cccc(S(N)(=O)=O)c2)Cc2cc(F)ccc21 (3D coordinates assigned)
COc1nn(C)cc1C1=C(c2cccc(S(N)(=O)=O)c2)Cc2cc(F)ccc21 (nonaromatic ring conformer: 101.39862607775449 kcal/mol)

>  <smiles>  (2) 
COc1nn(C)cc1C1=C(c2cccc(S(N)(=O)=O)c2)Cc2cc(F)ccc21

>  <score_type>  (2) 
oracle

>  <origin>  (2) 
adg

>  <m_score__min__energy>  (2) 
-9.1300000000000008

>  <m_primary>  (2) 
energy

$$$$
2:0
     RDKit          3D

 63 68  0  0  0  0  0  0  0  0999 V2000
   63.6720   33.3280   46.9290 C   0  0  0  0  0  0  0  0  0  0  0  0
   62.3270   33.6620   46.7460 C   0  0  0  0  0  0  0  0  0  0  0  0
   61.4900   33.8290   47.8520 C   0  0  0  0  0  0  0  0  0  0  0  0
   61.9910   33.6570   49.1540 C   0  0  0  0  0  0  0  0  0  0  0  0
   61.0950   33.8580   50.3500 C   0  0  0  0  0  0  0  0  0  0  0  0
   61.3120   32.7620   51.3820 C   0  0  0  0  0  0  0  0  0  0  0  0
   61.6610   33.1730   52.6810 C   0  0  0  0  0  0  0  0  0  0  0  0
   61.8640   32.2320   53.6790 C   0  0  0  0  0  0  0  0  0  0  0  0
   61.7260   30.8830   53.3880 C   0  0  0  0  0  0  0  0  0  0  0  0
   61.3900   30.4840   52.0940 C   0  0  0  0  0  0  0  0  0  0  0  0
   61.1850   31.4130   51.0960 N   0  0  0  0  0  0  0  0  0  0  0  0
   60.8730   30.9770   49.7140 C   0  0  0  0  0  0  0  0  0  0  0  0
   60.7040   29.4900   49.5360 C   0  0  0  0  0  0  0  0  0  0  0  0
   60.3490   28.9750   48.2780 C   0  0  0  0  0  0  0  0  0  0  0  0
   60.2050   27.5870   48.0870 C   0  0  0  0  0  0  0  0  0  0  0  0
   59.8380   27.0300   46.8110 N   0  0  0  0  0  0  0  0  0  0  0  0
   60.2630   27.6020   45.5320 C   0  0  0  0  0  0  0  0  0  0  0  0
   59.1030   28.2570   44.8300 C   0  0  0  0  0  0  0  0  0  0  0  0
   58.4960   27.6320   43.7290 C   0  0  0  0  0  0  0  0  0  0  0  0
   57.3900   28.2180   43.1110 C   0  0  0  0  0  0  0  0  0  0  0  0
   56.8760   29.4260   43.5910 C   0  0  0  0  0  0  0  0  0  0  0  0
   57.4740   30.0620   44.6940 C   0  0  0  0  0  0  0  0  0  0  0  0
   56.9700   31.2580   45.2250 O   0  0  0  0  0  0  0  0  0  0  0  0
   57.7000   32.4440   45.3960 C   0  0  0  0  0  0  0  0  0  0  0  0
   58.4140   33.0370   44.3380 C   0  0  0  0  0  0  0  0  0  0  0  0
   59.1460   34.2090   44.5540 C   0  0  0  0  0  0  0  0  0  0  0  0
   59.1790   34.7910   45.8250 C   0  0  0  0  0  0  0  0  0  0  0  0
   58.4840   34.1960   46.8820 C   0  0  0  0  0  0  0  0  0  0  0  0
   57.7540   33.0230   46.6700 C   0  0  0  0  0  0  0  0  0  0  0  0
   58.5740   29.4620   45.3180 C   0  0  0  0  0  0  0  0  0  0  0  0
   60.4250   26.7250   49.1730 C   0  0  0  0  0  0  0  0  0  0  0  0
   60.7810   27.2380   50.4230 C   0  0  0  0  0  0  0  0  0  0  0  0
   60.9180   28.6170   50.6040 C   0  0  0  0  0  0  0  0  0  0  0  0
   61.2660   29.1160   51.8510 O   0  0  0  0  0  0  0  0  0  0  0  0
   63.3470   33.3270   49.3280 C   0  0  0  0  0  0  0  0  0  0  0  0
   64.1810   33.1610   48.2190 C   0  0  0  0  0  0  0  0  0  0  0  0
   64.3296   33.1967   46.0570 H   0  0  0  0  0  0  0  0  0  0  0  0
   61.9271   33.7935   45.7297 H   0  0  0  0  0  0  0  0  0  0  0  0
   60.4334   34.0965   47.7032 H   0  0  0  0  0  0  0  0  0  0  0  0
   61.3188   34.8329   50.8077 H   0  0  0  0  0  0  0  0  0  0  0  0
   60.0481   33.8220   50.0144 H   0  0  0  0  0  0  0  0  0  0  0  0
   61.7732   34.2439   52.9059 H   0  0  0  0  0  0  0  0  0  0  0  0
   62.1330   32.5537   54.6959 H   0  0  0  0  0  0  0  0  0  0  0  0
   61.8810   30.1301   54.1749 H   0  0  0  0  0  0  0  0  0  0  0  0
   59.9371   31.4658   49.4055 H   0  0  0  0  0  0  0  0  0  0  0  0
   61.7394   31.2628   49.0995 H   0  0  0  0  0  0  0  0  0  0  0  0
   60.1821   29.6617   47.4350 H   0  0  0  0  0  0  0  0  0  0  0  0
   59.2320   26.1760   46.8020 H   0  0  0  0  0  0  0  0  0  0  0  0
   61.0454   28.3533   45.7147 H   0  0  0  0  0  0  0  0  0  0  0  0
   60.6512   26.7938   44.8948 H   0  0  0  0  0  0  0  0  0  0  0  0
   58.8931   26.6778   43.3523 H   0  0  0  0  0  0  0  0  0  0  0  0
   56.9220   27.7281   42.2444 H   0  0  0  0  0  0  0  0  0  0  0  0
   56.0007   29.8810   43.1044 H   0  0  0  0  0  0  0  0  0  0  0  0
   58.3963   32.5775   43.3387 H   0  0  0  0  0  0  0  0  0  0  0  0
   59.6966   34.6736   43.7228 H   0  0  0  0  0  0  0  0  0  0  0  0
   59.7509   35.7155   45.9929 H   0  0  0  0  0  0  0  0  0  0  0  0
   58.5117   34.6519   47.8827 H   0  0  0  0  0  0  0  0  0  0  0  0
   57.2192   32.5523   47.5081 H   0  0  0  0  0  0  0  0  0  0  0  0
   59.0280   29.9393   46.1989 H   0  0  0  0  0  0  0  0  0  0  0  0
   60.3164   25.6386   49.0390 H   0  0  0  0  0  0  0  0  0  0  0  0
   60.9540   26.5543   51.2672 H   0  0  0  0  0  0  0  0  0  0  0  0
   63.7532   33.1989   50.3422 H   0  0  0  0  0  0  0  0  0  0  0  0
   65.2396   32.8985   48.3621 H   0  0  0  0  0  0  0  0  0  0  0  0
  1  2  2  0
  2  3  1  0
  3  4  2  0
  4  5  1  0
  5  6  1  0
  6  7  2  0
  7  8  1  0
  8  9  2  0
  9 10  1  0
 10 11  2  0
 11 12  1  0
 12 13  1  0
 13 14  2  0
 14 15  1  0
 15 16  1  0
 16 17  1  0
 17 18  1  0
 18 19  2  0
 19 20  1  0
 20 21  2  0
 21 22  1  0
 22 23  1  0
 23 24  1  0
 24 25  2  0
 25 26  1  0
 26 27  2  0
 27 28  1  0
 28 29  2  0
 22 30  2  0
 15 31  2  0
 31 32  1  0
 32 33  2  0
 33 34  1  0
  4 35  1  0
 35 36  2  0
 36  1  1  0
 11  6  1  0
 33 13  1  0
 34 10  1  0
 30 18  1  0
 29 24  1  0
  1 37  1  0
  2 38  1  0
  3 39  1  0
  5 40  1  0
  5 41  1  0
  7 42  1  0
  8 43  1  0
  9 44  1  0
 12 45  1  0
 12 46  1  0
 14 47  1  0
 16 48  1  0
 17 49  1  0
 17 50  1  0
 19 51  1  0
 20 52  1  0
 21 53  1  0
 25 54  1  0
 26 55  1  0
 27 56  1  0
 28 57  1  0
 29 58  1  0
 30 59  1  0
 31 60  1  0
 32 61  1  0
 35 62  1  0
 36 63  1  0
M  CHG  1  11   1
M  END
>  <UniqueID>  (3) 
3

>  <SMILES>  (3) 
c1ccc(Cc2cccc3[n+]2Cc2cc(NCc4cccc(Oc5ccccc5)c4)ccc2O3)cc1

>  <Energy>  (3) 
84.50076189451754

>  <Genealogy>  (3) 
c1ccc(Cc2cccc3[n+]2Cc2cc(NCc4cccc(Oc5ccccc5)c4)ccc2O3)cc1 (3D coordinates assigned)
c1ccc(Cc2cccc3[n+]2Cc2cc(NCc4cccc(Oc5ccccc5)c4)ccc2O3)cc1 (nonaromatic ring conformer: 84.50076189451754 kcal/mol)

>  <smiles>  (3) 
c1ccc(Cc2cccc3[n+]2Cc2cc(NCc4cccc(Oc5ccccc5)c4)ccc2O3)cc1

>  <score_type>  (3) 
oracle

>  <origin>  (3) 
adg

>  <m_score__min__energy>  (3) 
-8.5299999999999994

>  <m_primary>  (3) 
energy

$$$$
3:0
     RDKit          3D

 56 58  0  0  0  0  0  0  0  0999 V2000
   63.3930   33.8810   46.0490 C   0  0  0  0  0  0  0  0  0  0  0  0
   63.7230   33.7150   47.5280 C   0  0  0  0  0  0  0  0  0  0  0  0
   62.5380   33.1830   48.2780 C   0  0  0  0  0  0  0  0  0  0  0  0
   62.1030   33.8010   49.4570 C   0  0  0  0  0  0  0  0  0  0  0  0
   60.9850   33.2920   50.1200 C   0  0  0  0  0  0  0  0  0  0  0  0
   60.5870   33.8410   51.1830 O   0  0  0  0  0  0  0  0  0  0  0  0
   60.3200   32.1750   49.5880 C   0  0  0  0  0  0  0  0  0  0  0  0
   59.1900   31.6100   50.2020 C   0  0  0  0  0  0  0  0  0  0  0  0
   58.5610   30.5000   49.6330 C   0  0  0  0  0  0  0  0  0  0  0  0
   59.0490   29.9370   48.4380 C   0  0  0  0  0  0  0  0  0  0  0  0
   58.4540   28.8230   47.8230 O   0  0  0  0  0  0  0  0  0  0  0  0
   59.1310   27.8570   47.0190 C   0  0  0  0  0  0  0  0  0  0  0  0
   58.4980   27.7780   45.6230 C   0  0  0  0  0  0  0  0  0  0  0  0
   59.3120   28.5450   44.5600 C   0  0  0  0  0  0  0  0  0  0  0  0
   59.0530   30.0810   44.4940 C   0  0  0  0  0  0  0  0  0  0  0  0
   57.6380   30.5470   44.3370 N   0  0  1  0  0  0  0  0  0  0  0  0
   56.9080   29.7460   43.3220 C   0  0  0  0  0  0  0  0  0  0  0  0
   57.0350   30.3200   45.5490 O   0  0  0  0  0  0  0  0  0  0  0  0
   57.5440   32.0030   44.0100 C   0  0  0  0  0  0  0  0  0  0  0  0
   58.1370   32.9140   45.0740 C   0  0  0  0  0  0  0  0  0  0  0  0
   59.1260   33.8550   44.7290 C   0  0  0  0  0  0  0  0  0  0  0  0
   59.6770   34.6950   45.7020 C   0  0  0  0  0  0  0  0  0  0  0  0
   59.2600   34.5960   47.0300 C   0  0  0  0  0  0  0  0  0  0  0  0
   58.2930   33.6540   47.3890 C   0  0  0  0  0  0  0  0  0  0  0  0
   57.7390   32.8120   46.4190 C   0  0  0  0  0  0  0  0  0  0  0  0
   60.1790   30.4980   47.8300 C   0  0  0  0  0  0  0  0  0  0  0  0
   60.8150   31.6090   48.3920 C   0  0  0  0  0  0  0  0  0  0  0  0
   61.8840   32.1280   47.7950 O   0  0  0  0  0  0  0  0  0  0  0  0
   62.4148   34.3731   45.9446 H   0  0  0  0  0  0  0  0  0  0  0  0
   64.1667   34.4972   45.5676 H   0  0  0  0  0  0  0  0  0  0  0  0
   63.3595   32.8925   45.5676 H   0  0  0  0  0  0  0  0  0  0  0  0
   64.5628   33.0126   47.6342 H   0  0  0  0  0  0  0  0  0  0  0  0
   63.9929   34.6973   47.9430 H   0  0  0  0  0  0  0  0  0  0  0  0
   62.6358   34.6768   49.8558 H   0  0  0  0  0  0  0  0  0  0  0  0
   58.7989   32.0432   51.1344 H   0  0  0  0  0  0  0  0  0  0  0  0
   57.6781   30.0625   50.1220 H   0  0  0  0  0  0  0  0  0  0  0  0
   60.1881   28.1450   46.9210 H   0  0  0  0  0  0  0  0  0  0  0  0
   59.0485   26.8723   47.5024 H   0  0  0  0  0  0  0  0  0  0  0  0
   58.4346   26.7214   45.3239 H   0  0  0  0  0  0  0  0  0  0  0  0
   57.5027   28.2428   45.6809 H   0  0  0  0  0  0  0  0  0  0  0  0
   60.3798   28.3905   44.7746 H   0  0  0  0  0  0  0  0  0  0  0  0
   58.9919   28.1432   43.5873 H   0  0  0  0  0  0  0  0  0  0  0  0
   59.4407   30.5189   45.4256 H   0  0  0  0  0  0  0  0  0  0  0  0
   59.5546   30.4059   43.5705 H   0  0  0  0  0  0  0  0  0  0  0  0
   56.2502   29.0242   43.8283 H   0  0  0  0  0  0  0  0  0  0  0  0
   56.3027   30.4152   42.6929 H   0  0  0  0  0  0  0  0  0  0  0  0
   57.6303   29.2052   42.6929 H   0  0  0  0  0  0  0  0  0  0  0  0
   57.7350   30.0800   46.2160 H   0  0  0  0  0  0  0  0  0  0  0  0
   58.0783   32.1808   43.0651 H   0  0  0  0  0  0  0  0  0  0  0  0
   56.4734   32.2462   43.9425 H   0  0  0  0  0  0  0  0  0  0  0  0
   59.4679   33.9300   43.6862 H   0  0  0  0  0  0  0  0  0  0  0  0
   60.4404   35.4350   45.4200 H   0  0  0  0  0  0  0  0  0  0  0  0
   59.6924   35.2593   47.7936 H   0  0  0  0  0  0  0  0  0  0  0  0
   57.9666   33.5742   48.4364 H   0  0  0  0  0  0  0  0  0  0  0  0
   56.9864   32.0645   46.7104 H   0  0  0  0  0  0  0  0  0  0  0  0
   60.5704   30.0597   46.9001 H   0  0  0  0  0  0  0  0  0  0  0  0
  1  2  1  0
  2  3  1  0
  3  4  2  0
  4  5  1  0
  5  6  2  0
  5  7  1  0
  7  8  2  0
  8  9  1  0
  9 10  2  0
 10 11  1  0
 11 12  1  0
 12 13  1  0
 13 14  1  0
 14 15  1  0
 15 16  1  0
 16 17  1  0
 16 18  1  1
 16 19  1  0
 19 20  1  0
 20 21  2  0
 21 22  1  0
 22 23  2  0
 23 24  1  0
 24 25  2  0
 10 26  1  0
 26 27  2  0
 27 28  1  0
 28  3  1  0
 27  7  1  0
 25 20  1  0
  1 29  1  0
  1 30  1  0
  1 31  1  0
  2 32  1  0
  2 33  1  0
  4 34  1  0
  8 35  1  0
  9 36  1  0
 12 37  1  0
 12 38  1  0
 13 39  1  0
 13 40  1  0
 14 41  1  0
 14 42  1  0
 15 43  1  0
 15 44  1  0
 17 45  1  0
 17 46  1  0
 17 47  1  0
 18 48  1  0
 19 49  1  0
 19 50  1  0
 21 51  1  0
 22 52  1  0
 23 53  1  0
 24 54  1  0
 25 55  1  0
 26 56  1  0
M  CHG  1  16   1
M  END
>  <UniqueID>  (4) 
4

>  <SMILES>  (4) 
CCc1cc(=O)c2ccc(OCCCC[N@@+](C)(O)Cc3ccccc3)cc2o1

>  <Energy>  (4) 
74.96102114855925

>  <Genealogy>  (4) 
CCc1cc(=O)c2ccc(OCCCC[N+](C)(O)Cc3ccccc3)cc2o1 (protonated)
CCc1cc(=O)c2ccc(OCCCC[N@@+](C)(O)Cc3ccccc3)cc2o1 (chirality)
CCc1cc(=O)c2ccc(OCCCC[N@@+](C)(O)Cc3ccccc3)cc2o1 (3D coordinates assigned)
CCc1cc(=O)c2ccc(OCCCC[N@@+](C)(O)Cc3ccccc3)cc2o1 (optimized conformer: 74.96102114855925 kcal/mol)

>  <smiles>  (4) 
CCc1cc(=O)c2ccc(OCCCC[N+](C)([O-])Cc3ccccc3)cc2o1

>  <score_type>  (4) 
oracle

>  <origin>  (4) 
adg

>  <m_score__min__energy>  (4) 
-6.1900000000000004

>  <m_primary>  (4) 
energy

$$$$
4:0
     RDKit          3D

 45 48  0  0  0  0  0  0  0  0999 V2000
   59.5300   28.6210   45.1540 C   0  0  0  0  0  0  0  0  0  0  0  0
   59.5210   29.6440   46.2170 N   0  0  0  0  0  0  0  0  0  0  0  0
   59.9860   29.0660   47.4970 C   0  0  0  0  0  0  0  0  0  0  0  0
   59.5760   29.9410   48.6400 C   0  0  0  0  0  0  0  0  0  0  0  0
   58.8440   29.4150   49.6770 N   0  0  0  0  0  0  0  0  0  0  0  0
   58.4090   30.1960   50.7090 C   0  0  0  0  0  0  0  0  0  0  0  0
   57.7310   29.7020   51.6470 O   0  0  0  0  0  0  0  0  0  0  0  0
   58.7260   31.5460   50.6770 C   0  0  0  0  0  0  0  0  0  0  0  0
   58.4170   32.6290   51.4770 C   0  0  0  0  0  0  0  0  0  0  0  0
   58.9530   33.7310   50.8940 N   0  0  0  0  0  0  0  0  0  0  0  0
   59.5870   33.3750   49.7810 N   0  0  0  0  0  0  0  0  0  0  0  0
   60.1940   34.3030   48.8280 C   0  0  0  0  0  0  0  0  0  0  0  0
   59.4190   34.2900   47.5400 C   0  0  0  0  0  0  0  0  0  0  0  0
   58.1480   33.6940   47.4880 C   0  0  0  0  0  0  0  0  0  0  0  0
   57.4470   33.6340   46.2800 C   0  0  0  0  0  0  0  0  0  0  0  0
   58.0130   34.1590   45.1140 C   0  0  0  0  0  0  0  0  0  0  0  0
   59.2820   34.7430   45.1550 C   0  0  0  0  0  0  0  0  0  0  0  0
   59.9850   34.8080   46.3620 C   0  0  0  0  0  0  0  0  0  0  0  0
   59.4490   32.0470   49.6430 C   0  0  0  0  0  0  0  0  0  0  0  0
   59.8750   31.2770   48.6140 N   0  0  0  0  0  0  0  0  0  0  0  0
   58.1620   30.2060   46.3560 C   0  0  0  0  0  0  0  0  0  0  0  0
   57.4770   30.2510   45.0240 C   0  0  0  0  0  0  0  0  0  0  0  0
   57.8510   31.0420   43.9450 C   0  0  0  0  0  0  0  0  0  0  0  0
   57.0190   30.8780   42.8310 C   0  0  0  0  0  0  0  0  0  0  0  0
   55.9940   29.9620   43.0300 C   0  0  0  0  0  0  0  0  0  0  0  0
   56.1230   29.3540   44.5930 S   0  0  0  0  0  0  0  0  0  0  0  0
   59.5388   27.6195   45.6090 H   0  0  0  0  0  0  0  0  0  0  0  0
   58.6308   28.7325   44.5302 H   0  0  0  0  0  0  0  0  0  0  0  0
   60.4271   28.7483   44.5302 H   0  0  0  0  0  0  0  0  0  0  0  0
   59.5428   28.0676   47.6268 H   0  0  0  0  0  0  0  0  0  0  0  0
   61.0833   28.9911   47.4787 H   0  0  0  0  0  0  0  0  0  0  0  0
   57.8421   32.6029   52.4144 H   0  0  0  0  0  0  0  0  0  0  0  0
   58.8620   34.7110   51.2410 H   0  0  0  0  0  0  0  0  0  0  0  0
   60.1835   35.3187   49.2502 H   0  0  0  0  0  0  0  0  0  0  0  0
   61.2312   33.9941   48.6308 H   0  0  0  0  0  0  0  0  0  0  0  0
   57.7026   33.2729   48.4014 H   0  0  0  0  0  0  0  0  0  0  0  0
   56.4487   33.1732   46.2466 H   0  0  0  0  0  0  0  0  0  0  0  0
   57.4594   34.1123   44.1646 H   0  0  0  0  0  0  0  0  0  0  0  0
   59.7284   35.1520   44.2366 H   0  0  0  0  0  0  0  0  0  0  0  0
   60.9847   35.2662   46.3899 H   0  0  0  0  0  0  0  0  0  0  0  0
   57.5778   29.5762   47.0430 H   0  0  0  0  0  0  0  0  0  0  0  0
   58.2376   31.2290   46.7533 H   0  0  0  0  0  0  0  0  0  0  0  0
   58.7119   31.7265   43.9639 H   0  0  0  0  0  0  0  0  0  0  0  0
   57.1635   31.4234   41.8867 H   0  0  0  0  0  0  0  0  0  0  0  0
   55.2285   29.6820   42.2914 H   0  0  0  0  0  0  0  0  0  0  0  0
  1  2  1  0
  2  3  1  0
  3  4  1  0
  4  5  2  0
  5  6  1  0
  6  7  2  0
  6  8  1  0
  8  9  1  0
  9 10  2  0
 10 11  1  0
 11 12  1  0
 12 13  1  0
 13 14  2  0
 14 15  1  0
 15 16  2  0
 16 17  1  0
 17 18  2  0
 11 19  1  0
 19 20  1  0
  2 21  1  0
 21 22  1  0
 22 23  2  0
 23 24  1  0
 24 25  2  0
 25 26  1  0
 20  4  1  0
 26 22  1  0
 19  8  2  0
 18 13  1  0
  1 27  1  0
  1 28  1  0
  1 29  1  0
  3 30  1  0
  3 31  1  0
  9 32  1  0
 10 33  1  0
 12 34  1  0
 12 35  1  0
 14 36  1  0
 15 37  1  0
 16 38  1  0
 17 39  1  0
 18 40  1  0
 21 41  1  0
 21 42  1  0
 23 43  1  0
 24 44  1  0
 25 45  1  0
M  CHG  2  10   1  20  -1
M  END
>  <UniqueID>  (5) 
5

>  <SMILES>  (5) 
CN(Cc1nc(=O)c2c[nH+]n(Cc3ccccc3)c2[n-]1)Cc1cccs1

>  <Energy>  (5) 
114.2316569834855

>  <Genealogy>  (5) 
CN(Cc1nc(=O)c2c[nH+]n(Cc3ccccc3)c2[n-]1)Cc1cccs1 (protonated)
CN(Cc1nc(=O)c2c[nH+]n(Cc3ccccc3)c2[n-]1)Cc1cccs1 (3D coordinates assigned)
CN(Cc1nc(=O)c2c[nH+]n(Cc3ccccc3)c2[n-]1)Cc1cccs1 (optimized conformer: 114.2316569834855 kcal/mol)

>  <smiles>  (5) 
CN(Cc1nc(=O)c2cnn(Cc3ccccc3)c2[nH]1)Cc1cccs1

>  <score_type>  (5) 
oracle

>  <origin>  (5) 
adg

>  <m_score__min__energy>  (5) 
-7.9000000000000004

>  <m_primary>  (5) 
energy

$$$$
5:0
     RDKit          3D

 40 42  0  0  0  0  0  0  0  0999 V2000
   58.0790   32.7510   51.9740 C   0  0  0  0  0  0  0  0  0  0  0  0
   58.9320   33.8400   51.6350 O   0  0  0  0  0  0  0  0  0  0  0  0
   59.9650   33.7720   50.6880 C   0  0  0  0  0  0  0  0  0  0  0  0
   61.3150   33.5410   51.0560 C   0  0  0  0  0  0  0  0  0  0  0  0
   62.3180   33.4810   50.0780 C   0  0  0  0  0  0  0  0  0  0  0  0
   61.9550   33.6520   48.7470 C   0  0  0  0  0  0  0  0  0  0  0  0
   62.9490   33.6150   47.3980 S   0  0  0  0  0  0  0  0  0  0  0  0
   61.7120   33.8860   46.2820 C   0  0  0  0  0  0  0  0  0  0  0  0
   60.4970   34.0160   46.9630 C   0  0  0  0  0  0  0  0  0  0  0  0
   59.1920   34.1940   46.2360 C   0  0  0  0  0  0  0  0  0  0  0  0
   58.5170   32.8690   46.0540 C   0  0  0  0  0  0  0  0  0  0  0  0
   57.3650   32.8330   45.5420 O   0  0  0  0  0  0  0  0  0  0  0  0
   59.2080   31.6520   46.3860 N   0  0  0  0  0  0  0  0  0  0  0  0
   58.6090   30.3470   46.3470 C   0  0  0  0  0  0  0  0  0  0  0  0
   58.8310   29.4040   47.3670 C   0  0  0  0  0  0  0  0  0  0  0  0
   58.2540   28.1330   47.2920 C   0  0  0  0  0  0  0  0  0  0  0  0
   57.4640   27.7800   46.1900 C   0  0  0  0  0  0  0  0  0  0  0  0
   56.7270   26.1840   46.0980 S   0  0  0  0  0  0  0  0  0  0  0  0
   55.0080   26.3500   46.0320 N   0  0  0  0  0  0  0  0  0  0  0  0
   57.1070   25.3750   47.3070 O   0  0  0  0  0  0  0  0  0  0  0  0
   57.2120   25.4700   44.8680 O   0  0  0  0  0  0  0  0  0  0  0  0
   57.2540   28.7100   45.1630 C   0  0  0  0  0  0  0  0  0  0  0  0
   57.8310   29.9820   45.2370 C   0  0  0  0  0  0  0  0  0  0  0  0
   60.6420   33.8770   48.3580 C   0  0  0  0  0  0  0  0  0  0  0  0
   59.6340   33.9420   49.3310 C   0  0  0  0  0  0  0  0  0  0  0  0
   58.0116   32.6650   53.0686 H   0  0  0  0  0  0  0  0  0  0  0  0
   57.0762   32.9273   51.5576 H   0  0  0  0  0  0  0  0  0  0  0  0
   58.4903   31.8196   51.5576 H   0  0  0  0  0  0  0  0  0  0  0  0
   61.5771   33.4080   52.1160 H   0  0  0  0  0  0  0  0  0  0  0  0
   63.3669   33.3029   50.3573 H   0  0  0  0  0  0  0  0  0  0  0  0
   61.8409   33.9502   45.1915 H   0  0  0  0  0  0  0  0  0  0  0  0
   58.5380   34.8579   46.8204 H   0  0  0  0  0  0  0  0  0  0  0  0
   59.3886   34.6357   45.2479 H   0  0  0  0  0  0  0  0  0  0  0  0
   60.2340   31.7090   46.5720 H   0  0  0  0  0  0  0  0  0  0  0  0
   59.4621   29.6682   48.2283 H   0  0  0  0  0  0  0  0  0  0  0  0
   58.4208   27.4070   48.1014 H   0  0  0  0  0  0  0  0  0  0  0  0
   54.7730   26.7180   45.0830 H   0  0  0  0  0  0  0  0  0  0  0  0
   56.6336   28.4389   44.2961 H   0  0  0  0  0  0  0  0  0  0  0  0
   57.6740   30.7013   44.4197 H   0  0  0  0  0  0  0  0  0  0  0  0
   58.5905   34.1249   49.0350 H   0  0  0  0  0  0  0  0  0  0  0  0
  1  2  1  0
  2  3  1  0
  3  4  2  0
  4  5  1  0
  5  6  2  0
  6  7  1  0
  7  8  1  0
  8  9  2  0
  9 10  1  0
 10 11  1  0
 11 12  2  0
 11 13  1  0
 13 14  1  0
 14 15  2  0
 15 16  1  0
 16 17  2  0
 17 18  1  0
 18 19  1  0
 18 20  2  0
 18 21  2  0
 17 22  1  0
 22 23  2  0
  9 24  1  0
 24 25  2  0
 25  3  1  0
 24  6  1  0
 23 14  1  0
  1 26  1  0
  1 27  1  0
  1 28  1  0
  4 29  1  0
  5 30  1  0
  8 31  1  0
 10 32  1  0
 10 33  1  0
 13 34  1  0
 15 35  1  0
 16 36  1  0
 19 37  1  0
 22 38  1  0
 23 39  1  0
 25 40  1  0
M  CHG  1  19  -1
M  END
>  <UniqueID>  (6) 
6

>  <SMILES>  (6) 
COc1ccc2scc(CC(=O)Nc3ccc(S([NH-])(=O)=O)cc3)c2c1

>  <Energy>  (6) 
73.73368872502614

>  <Genealogy>  (6) 
COc1ccc2scc(CC(=O)Nc3ccc(S([NH-])(=O)=O)cc3)c2c1 (protonated)
COc1ccc2scc(CC(=O)Nc3ccc(S([NH-])(=O)=O)cc3)c2c1 (3D coordinates assigned)
COc1ccc2scc(CC(=O)Nc3ccc(S([NH-])(=O)=O)cc3)c2c1 (optimized conformer: 73.73368872502614 kcal/mol)

>  <smiles>  (6) 
COc1ccc2scc(CC(=O)Nc3ccc(S(N)(=O)=O)cc3)c2c1

>  <score_type>  (6) 
oracle

>  <origin>  (6) 
adg

>  <m_score__min__energy>  (6) 
-10.91

>  <m_primary>  (6) 
energy

$$$$
6:0
     RDKit          3D

 30 31  0  0  0  0  0  0  0  0999 V2000
   62.5450   33.5130   47.0790 C   0  0  0  0  0  0  0  0  0  0  0  0
   61.2160   33.8090   47.5990 N   0  0  0  0  0  0  0  0  0  0  0  0
   60.1690   32.8450   47.7660 C   0  0  0  0  0  0  0  0  0  0  0  0
   60.1760   32.1160   48.7920 O   0  0  0  0  0  0  0  0  0  0  0  0
   59.1090   32.6510   46.7560 C   0  0  0  0  0  0  0  0  0  0  0  0
   58.3120   33.7250   46.3340 C   0  0  0  0  0  0  0  0  0  0  0  0
   57.3100   33.5270   45.3810 C   0  0  0  0  0  0  0  0  0  0  0  0
   57.0770   32.2520   44.8610 C   0  0  0  0  0  0  0  0  0  0  0  0
   57.8360   31.1560   45.3110 C   0  0  0  0  0  0  0  0  0  0  0  0
   57.6410   29.8320   44.7930 N   0  0  0  0  0  0  0  0  0  0  0  0
   56.6800   28.8670   45.2440 C   0  0  0  0  0  0  0  0  0  0  0  0
   55.4480   29.1110   45.1260 O   0  0  0  0  0  0  0  0  0  0  0  0
   57.1200   27.6080   45.9040 C   0  0  0  0  0  0  0  0  0  0  0  0
   58.4840   27.4240   46.2020 C   0  0  0  0  0  0  0  0  0  0  0  0
   58.9110   26.2480   46.8180 C   0  0  0  0  0  0  0  0  0  0  0  0
   58.0150   25.2790   47.1350 N   0  0  0  0  0  0  0  0  0  0  0  0
   56.6910   25.4160   46.8680 C   0  0  0  0  0  0  0  0  0  0  0  0
   55.8960   24.4910   47.1810 O   0  0  0  0  0  0  0  0  0  0  0  0
   56.2130   26.5800   46.2500 C   0  0  0  0  0  0  0  0  0  0  0  0
   54.8490   26.6990   45.9950 O   0  0  0  0  0  0  0  0  0  0  0  0
   58.8560   31.3670   46.2470 C   0  0  0  0  0  0  0  0  0  0  0  0
   63.2405   33.3581   47.9170 H   0  0  0  0  0  0  0  0  0  0  0  0
   62.5035   32.6021   46.4638 H   0  0  0  0  0  0  0  0  0  0  0  0
   62.8940   34.3554   46.4638 H   0  0  0  0  0  0  0  0  0  0  0  0
   58.4766   34.7277   46.7553 H   0  0  0  0  0  0  0  0  0  0  0  0
   56.7026   34.3780   45.0391 H   0  0  0  0  0  0  0  0  0  0  0  0
   56.2985   32.1043   44.0980 H   0  0  0  0  0  0  0  0  0  0  0  0
   59.2128   28.2081   45.9488 H   0  0  0  0  0  0  0  0  0  0  0  0
   59.9772   26.1053   47.0477 H   0  0  0  0  0  0  0  0  0  0  0  0
   59.4660   30.5172   46.5874 H   0  0  0  0  0  0  0  0  0  0  0  0
  1  2  1  0
  2  3  1  0
  3  4  2  0
  3  5  1  0
  5  6  2  0
  6  7  1  0
  7  8  2  0
  8  9  1  0
  9 10  1  0
 10 11  1  0
 11 12  2  0
 11 13  1  0
 13 14  1  0
 14 15  2  0
 15 16  1  0
 16 17  1  0
 17 18  2  0
 17 19  1  0
 19 20  1  0
  9 21  2  0
 21  5  1  0
 19 13  2  0
  1 22  1  0
  1 23  1  0
  1 24  1  0
  6 25  1  0
  7 26  1  0
  8 27  1  0
 14 28  1  0
 15 29  1  0
 21 30  1  0
M  CHG  4   2  -1  10  -1  16  -1  20  -1
M  END
>  <UniqueID>  (7) 
7

>  <SMILES>  (7) 
C[N-]C(=O)c1cccc([N-]C(=O)c2cc[n-]c(=O)c2[O-])c1

>  <Energy>  (7) 
42.05691246157512

>  <Genealogy>  (7) 
C[N-]C(=O)c1cccc([N-]C(=O)c2cc[n-]c(=O)c2[O-])c1 (protonated)
C[N-]C(=O)c1cccc([N-]C(=O)c2cc[n-]c(=O)c2[O-])c1 (3D coordinates assigned)
C[N-]C(=O)c1cccc([N-]C(=O)c2cc[n-]c(=O)c2[O-])c1 (optimized conformer: 42.05691246157512 kcal/mol)

>  <smiles>  (7) 
CNC(=O)c1cccc(NC(=O)c2cc[nH]c(=O)c2O)c1

>  <score_type>  (7) 
oracle

>  <origin>  (7) 
adg

>  <m_score__min__energy>  (7) 
-14.869999999999999

>  <m_primary>  (7) 
energy

$$$$
7:0
     RDKit          3D

 43 46  0  0  0  0  0  0  0  0999 V2000
   55.9480   27.9340   45.2840 N   0  0  0  0  0  0  0  0  0  0  0  0
   56.8640   26.9020   45.6710 C   0  0  0  0  0  0  0  0  0  0  0  0
   56.4230   25.9100   46.5610 C   0  0  0  0  0  0  0  0  0  0  0  0
   57.2680   24.8660   46.9400 C   0  0  0  0  0  0  0  0  0  0  0  0
   56.6970   23.6310   48.0490 Cl  0  0  0  0  0  0  0  0  0  0  0  0
   58.5640   24.7990   46.4300 C   0  0  0  0  0  0  0  0  0  0  0  0
   59.0220   25.7810   45.5520 C   0  0  0  0  0  0  0  0  0  0  0  0
   58.1900   26.8520   45.1700 C   0  0  0  0  0  0  0  0  0  0  0  0
   58.7560   27.9230   44.2540 C   0  0  0  0  0  0  0  0  0  0  0  0
   58.8100   29.2490   44.9180 N   0  0  0  0  0  0  0  0  0  0  0  0
   59.7810   29.5020   45.8500 C   0  0  0  0  0  0  0  0  0  0  0  0
   60.6560   28.6280   46.1100 O   0  0  0  0  0  0  0  0  0  0  0  0
   59.8350   30.7340   46.5130 C   0  0  0  0  0  0  0  0  0  0  0  0
   60.8950   30.9690   47.5250 C   0  0  0  0  0  0  0  0  0  0  0  0
   60.7860   30.4050   48.8050 C   0  0  0  0  0  0  0  0  0  0  0  0
   61.7910   30.6160   49.7550 C   0  0  0  0  0  0  0  0  0  0  0  0
   62.9120   31.3840   49.4280 C   0  0  0  0  0  0  0  0  0  0  0  0
   63.0300   31.9420   48.1520 C   0  0  0  0  0  0  0  0  0  0  0  0
   62.0280   31.7340   47.2000 C   0  0  0  0  0  0  0  0  0  0  0  0
   58.8850   31.7200   46.1800 C   0  0  0  0  0  0  0  0  0  0  0  0
   58.8590   32.9590   46.8560 C   0  0  0  0  0  0  0  0  0  0  0  0
   57.9310   33.9290   46.4980 C   0  0  0  0  0  0  0  0  0  0  0  0
   57.0260   33.6730   45.4790 C   0  0  0  0  0  0  0  0  0  0  0  0
   57.0520   32.4390   44.8320 C   0  0  0  0  0  0  0  0  0  0  0  0
   57.9630   31.4700   45.1850 N   0  0  0  0  0  0  0  0  0  0  0  0
   57.9440   30.2510   44.5470 C   0  0  0  0  0  0  0  0  0  0  0  0
   57.1230   30.0510   43.6060 O   0  0  0  0  0  0  0  0  0  0  0  0
   55.9930   28.3960   44.3530 H   0  0  0  0  0  0  0  0  0  0  0  0
   55.1520   28.1960   45.9070 H   0  0  0  0  0  0  0  0  0  0  0  0
   55.4005   25.9561   46.9640 H   0  0  0  0  0  0  0  0  0  0  0  0
   59.2263   23.9702   46.7207 H   0  0  0  0  0  0  0  0  0  0  0  0
   60.0451   25.7186   45.1529 H   0  0  0  0  0  0  0  0  0  0  0  0
   59.7743   27.6334   43.9554 H   0  0  0  0  0  0  0  0  0  0  0  0
   58.0943   28.0071   43.3793 H   0  0  0  0  0  0  0  0  0  0  0  0
   59.9076   29.7950   49.0624 H   0  0  0  0  0  0  0  0  0  0  0  0
   61.6989   30.1774   50.7596 H   0  0  0  0  0  0  0  0  0  0  0  0
   63.7020   31.5494   50.1754 H   0  0  0  0  0  0  0  0  0  0  0  0
   63.9131   32.5460   47.8965 H   0  0  0  0  0  0  0  0  0  0  0  0
   62.1265   32.1698   46.1948 H   0  0  0  0  0  0  0  0  0  0  0  0
   59.5747   33.1568   47.6676 H   0  0  0  0  0  0  0  0  0  0  0  0
   57.9142   34.8966   47.0210 H   0  0  0  0  0  0  0  0  0  0  0  0
   56.2931   34.4382   45.1836 H   0  0  0  0  0  0  0  0  0  0  0  0
   56.3321   32.2361   44.0254 H   0  0  0  0  0  0  0  0  0  0  0  0
  1  2  1  0
  2  3  2  0
  3  4  1  0
  4  5  1  0
  4  6  2  0
  6  7  1  0
  7  8  2  0
  8  9  1  0
  9 10  1  0
 10 11  1  0
 11 12  2  0
 11 13  1  0
 13 14  1  0
 14 15  2  0
 15 16  1  0
 16 17  2  0
 17 18  1  0
 18 19  2  0
 13 20  2  0
 20 21  1  0
 21 22  2  0
 22 23  1  0
 23 24  2  0
 24 25  1  0
 25 26  1  0
 26 27  2  0
  8  2  1  0
 26 10  1  0
 19 14  1  0
 25 20  1  0
  1 28  1  0
  1 29  1  0
  3 30  1  0
  6 31  1  0
  7 32  1  0
  9 33  1  0
  9 34  1  0
 15 35  1  0
 16 36  1  0
 17 37  1  0
 18 38  1  0
 19 39  1  0
 21 40  1  0
 22 41  1  0
 23 42  1  0
 24 43  1  0
M  END
>  <UniqueID>  (8) 
8

>  <SMILES>  (8) 
Nc1cc(Cl)ccc1Cn1c(=O)c(-c2ccccc2)c2ccccn2c1=O

>  <Energy>  (8) 
71.0316668781489

>  <Genealogy>  (8) 
Nc1cc(Cl)ccc1Cn1c(=O)c(-c2ccccc2)c2ccccn2c1=O (3D coordinates assigned)
Nc1cc(Cl)ccc1Cn1c(=O)c(-c2ccccc2)c2ccccn2c1=O (optimized conformer: 71.0316668781489 kcal/mol)

>  <smiles>  (8) 
Nc1cc(Cl)ccc1Cn1c(=O)c(-c2ccccc2)c2ccccn2c1=O

>  <score_type>  (8) 
oracle

>  <origin>  (8) 
adg

>  <m_score__min__energy>  (8) 
-8.3800000000000008

>  <m_primary>  (8) 
energy

$$$$
8:0
     RDKit          3D

 39 40  0  0  0  0  0  0  0  0999 V2000
   53.6970   24.7670   45.6170 C   0  0  0  0  0  0  0  0  0  0  0  0
   54.5050   25.9690   45.7960 N   0  0  0  0  0  0  0  0  0  0  0  0
   56.1720   25.5280   46.0060 S   0  0  0  0  0  0  0  0  0  0  0  0
   56.3630   24.9580   47.3830 O   0  0  0  0  0  0  0  0  0  0  0  0
   56.5490   24.4790   44.9980 O   0  0  0  0  0  0  0  0  0  0  0  0
   57.2030   26.9460   45.8280 C   0  0  0  0  0  0  0  0  0  0  0  0
   58.5860   26.8560   46.0380 C   0  0  0  0  0  0  0  0  0  0  0  0
   59.3930   27.9860   45.8870 C   0  0  0  0  0  0  0  0  0  0  0  0
   58.8270   29.2070   45.5110 C   0  0  0  0  0  0  0  0  0  0  0  0
   57.4460   29.3010   45.2660 C   0  0  0  0  0  0  0  0  0  0  0  0
   56.8310   30.5440   44.9040 N   0  0  0  0  0  0  0  0  0  0  0  0
   57.1900   31.3770   43.7930 C   0  0  0  0  0  0  0  0  0  0  0  0
   56.9750   30.9580   42.6260 O   0  0  0  0  0  0  0  0  0  0  0  0
   57.8540   32.7150   43.9840 C   0  0  0  0  0  0  0  0  0  0  0  0
   58.4440   32.8240   45.3180 N   0  0  0  0  0  0  0  0  0  0  0  0
   59.3430   33.8960   45.6470 C   0  0  0  0  0  0  0  0  0  0  0  0
   59.6270   34.7570   44.7720 O   0  0  0  0  0  0  0  0  0  0  0  0
   59.9400   34.0050   46.9990 C   0  0  0  0  0  0  0  0  0  0  0  0
   59.2620   34.1600   48.1970 C   0  0  0  0  0  0  0  0  0  0  0  0
   60.2300   34.2090   49.1780 C   0  0  0  0  0  0  0  0  0  0  0  0
   61.4210   34.0940   48.6380 O   0  0  0  0  0  0  0  0  0  0  0  0
   61.2870   33.9710   47.3370 C   0  0  0  0  0  0  0  0  0  0  0  0
   62.4460   33.8170   46.4070 C   0  0  0  0  0  0  0  0  0  0  0  0
   56.6380   28.1710   45.4480 C   0  0  0  0  0  0  0  0  0  0  0  0
   53.4230   24.3594   46.6013 H   0  0  0  0  0  0  0  0  0  0  0  0
   52.7841   25.0188   45.0574 H   0  0  0  0  0  0  0  0  0  0  0  0
   54.2749   24.0167   45.0574 H   0  0  0  0  0  0  0  0  0  0  0  0
   59.0366   25.8936   46.3222 H   0  0  0  0  0  0  0  0  0  0  0  0
   60.4762   27.9146   46.0644 H   0  0  0  0  0  0  0  0  0  0  0  0
   59.4642   30.0975   45.4064 H   0  0  0  0  0  0  0  0  0  0  0  0
   58.6460   32.8340   43.2300 H   0  0  0  0  0  0  0  0  0  0  0  0
   57.0933   33.5018   43.8729 H   0  0  0  0  0  0  0  0  0  0  0  0
   58.1790   32.1320   46.0540 H   0  0  0  0  0  0  0  0  0  0  0  0
   58.1732   34.2298   48.3373 H   0  0  0  0  0  0  0  0  0  0  0  0
   60.0332   34.3270   50.2538 H   0  0  0  0  0  0  0  0  0  0  0  0
   63.3704   33.6942   46.9904 H   0  0  0  0  0  0  0  0  0  0  0  0
   62.2922   32.9314   45.7729 H   0  0  0  0  0  0  0  0  0  0  0  0
   62.5288   34.7120   45.7729 H   0  0  0  0  0  0  0  0  0  0  0  0
   55.5518   28.2458   45.2914 H   0  0  0  0  0  0  0  0  0  0  0  0
  1  2  1  0
  2  3  1  0
  3  4  2  0
  3  5  2  0
  3  6  1  0
  6  7  2  0
  7  8  1  0
  8  9  2  0
  9 10  1  0
 10 11  1  0
 11 12  1  0
 12 13  2  0
 12 14  1  0
 14 15  1  0
 15 16  1  0
 16 17  2  0
 16 18  1  0
 18 19  1  0
 19 20  2  0
 20 21  1  0
 21 22  1  0
 22 23  1  0
 10 24  2  0
 24  6  1  0
 22 18  2  0
  1 25  1  0
  1 26  1  0
  1 27  1  0
  7 28  1  0
  8 29  1  0
  9 30  1  0
 14 31  1  0
 14 32  1  0
 15 33  1  0
 19 34  1  0
 20 35  1  0
 23 36  1  0
 23 37  1  0
 23 38  1  0
 24 39  1  0
M  CHG  2   2  -1  11  -1
M  END
>  <UniqueID>  (9) 
9

>  <SMILES>  (9) 
C[N-]S(=O)(=O)c1cccc([N-]C(=O)CNC(=O)c2ccoc2C)c1

>  <Energy>  (9) 
65.69439292083312

>  <Genealogy>  (9) 
C[N-]S(=O)(=O)c1cccc([N-]C(=O)CNC(=O)c2ccoc2C)c1 (protonated)
C[N-]S(=O)(=O)c1cccc([N-]C(=O)CNC(=O)c2ccoc2C)c1 (3D coordinates assigned)
C[N-]S(=O)(=O)c1cccc([N-]C(=O)CNC(=O)c2ccoc2C)c1 (optimized conformer: 65.69439292083312 kcal/mol)

>  <smiles>  (9) 
CNS(=O)(=O)c1cccc(NC(=O)CNC(=O)c2ccoc2C)c1

>  <score_type>  (9) 
oracle

>  <origin>  (9) 
adg

>  <m_score__min__energy>  (9) 
-10.68

>  <m_primary>  (9) 
energy

$$$$
9:0
     RDKit          3D

 35 37  0  0  0  0  0  0  0  0999 V2000
   63.7450   33.5800   46.5100 C   0  0  0  0  0  0  0  0  0  0  0  0
   62.4490   33.3180   47.2180 C   0  0  0  0  0  0  0  0  0  0  0  0
   62.4180   32.5120   48.3620 C   0  0  0  0  0  0  0  0  0  0  0  0
   61.2050   32.2400   48.9980 C   0  0  0  0  0  0  0  0  0  0  0  0
   60.0080   32.7540   48.4890 C   0  0  0  0  0  0  0  0  0  0  0  0
   58.5080   32.3430   49.3140 Cl  0  0  0  0  0  0  0  0  0  0  0  0
   60.0180   33.5450   47.3210 C   0  0  0  0  0  0  0  0  0  0  0  0
   58.7880   34.0590   46.7770 N   0  0  0  0  0  0  0  0  0  0  0  0
   58.2120   33.6360   45.1950 S   0  0  0  0  0  0  0  0  0  0  0  0
   57.0560   34.5260   44.8310 O   0  0  0  0  0  0  0  0  0  0  0  0
   59.3170   33.8380   44.1960 O   0  0  0  0  0  0  0  0  0  0  0  0
   57.6580   31.9640   45.1940 C   0  0  0  0  0  0  0  0  0  0  0  0
   56.5920   31.5910   44.3640 C   0  0  0  0  0  0  0  0  0  0  0  0
   56.1100   30.2800   44.3770 C   0  0  0  0  0  0  0  0  0  0  0  0
   56.6910   29.3300   45.2220 C   0  0  0  0  0  0  0  0  0  0  0  0
   56.2210   28.0530   45.2420 N   0  0  0  0  0  0  0  0  0  0  0  0
   56.7590   27.1040   46.0540 C   0  0  0  0  0  0  0  0  0  0  0  0
   56.2950   25.9340   46.0420 O   0  0  0  0  0  0  0  0  0  0  0  0
   57.8250   27.4270   46.9010 C   0  0  0  0  0  0  0  0  0  0  0  0
   58.3290   28.7290   46.9040 C   0  0  0  0  0  0  0  0  0  0  0  0
   57.7660   29.6970   46.0610 C   0  0  0  0  0  0  0  0  0  0  0  0
   58.2470   31.0150   46.0410 C   0  0  0  0  0  0  0  0  0  0  0  0
   61.2490   33.8260   46.6980 C   0  0  0  0  0  0  0  0  0  0  0  0
   64.5417   33.7411   47.2512 H   0  0  0  0  0  0  0  0  0  0  0  0
   63.9999   32.7152   45.8798 H   0  0  0  0  0  0  0  0  0  0  0  0
   63.6439   34.4759   45.8798 H   0  0  0  0  0  0  0  0  0  0  0  0
   63.3526   32.0913   48.7615 H   0  0  0  0  0  0  0  0  0  0  0  0
   61.1908   31.6177   49.9049 H   0  0  0  0  0  0  0  0  0  0  0  0
   58.1390   34.6080   47.3800 H   0  0  0  0  0  0  0  0  0  0  0  0
   56.1318   32.3357   43.6979 H   0  0  0  0  0  0  0  0  0  0  0  0
   55.2732   29.9952   43.7223 H   0  0  0  0  0  0  0  0  0  0  0  0
   58.2622   26.6615   47.5589 H   0  0  0  0  0  0  0  0  0  0  0  0
   59.1660   28.9946   47.5664 H   0  0  0  0  0  0  0  0  0  0  0  0
   59.0867   31.3037   46.6903 H   0  0  0  0  0  0  0  0  0  0  0  0
   61.2701   34.4511   45.7931 H   0  0  0  0  0  0  0  0  0  0  0  0
  1  2  1  0
  2  3  2  0
  3  4  1  0
  4  5  2  0
  5  6  1  0
  5  7  1  0
  7  8  1  0
  8  9  1  0
  9 10  2  0
  9 11  2  0
  9 12  1  0
 12 13  2  0
 13 14  1  0
 14 15  2  0
 15 16  1  0
 16 17  1  0
 17 18  2  0
 17 19  1  0
 19 20  2  0
 20 21  1  0
 21 22  2  0
  7 23  2  0
 23  2  1  0
 22 12  1  0
 21 15  1  0
  1 24  1  0
  1 25  1  0
  1 26  1  0
  3 27  1  0
  4 28  1  0
  8 29  1  0
 13 30  1  0
 14 31  1  0
 19 32  1  0
 20 33  1  0
 22 34  1  0
 23 35  1  0
M  CHG  1  16  -1
M  END
>  <UniqueID>  (10) 
10

>  <SMILES>  (10) 
Cc1ccc(Cl)c(NS(=O)(=O)c2ccc3[n-]c(=O)ccc3c2)c1

>  <Energy>  (10) 
43.975721923946736

>  <Genealogy>  (10) 
Cc1ccc(Cl)c(NS(=O)(=O)c2ccc3[n-]c(=O)ccc3c2)c1 (protonated)
Cc1ccc(Cl)c(NS(=O)(=O)c2ccc3[n-]c(=O)ccc3c2)c1 (3D coordinates assigned)
Cc1ccc(Cl)c(NS(=O)(=O)c2ccc3[n-]c(=O)ccc3c2)c1 (optimized conformer: 43.975721923946736 kcal/mol)

>  <smiles>  (10) 
Cc1ccc(Cl)c(NS(=O)(=O)c2ccc3[nH]c(=O)ccc3c2)c1

>  <score_type>  (10) 
oracle

>  <origin>  (10) 
adg

>  <m_score__min__energy>  (10) 
-9.8200000000000003

>  <m_primary>  (10) 
energy

$$$$
10:0
     RDKit          3D

 48 51  0  0  0  0  0  0  0  0999 V2000
   57.1390   21.4660   43.3090 C   0  0  0  0  0  0  0  0  0  0  0  0
   56.2750   22.5620   42.6890 C   0  0  0  0  0  0  0  0  0  0  0  0
   55.3820   23.2610   43.7230 C   0  0  0  0  0  0  0  0  0  0  0  0
   56.1160   24.3560   44.4550 C   0  0  0  0  0  0  0  0  0  0  0  0
   55.6020   24.8810   45.6510 C   0  0  0  0  0  0  0  0  0  0  0  0
   56.2990   25.8800   46.3380 C   0  0  0  0  0  0  0  0  0  0  0  0
   57.5250   26.3540   45.8550 C   0  0  0  0  0  0  0  0  0  0  0  0
   58.1950   27.3930   46.5830 N   0  0  0  0  0  0  0  0  0  0  0  0
   59.5200   27.8840   46.3470 C   0  0  0  0  0  0  0  0  0  0  0  0
   60.4610   27.0870   46.0900 O   0  0  0  0  0  0  0  0  0  0  0  0
   59.7710   29.3350   46.4080 C   0  0  0  0  0  0  0  0  0  0  0  0
   60.7480   29.9380   47.1730 C   0  0  0  0  0  0  0  0  0  0  0  0
   60.5980   31.2770   47.0880 N   0  0  0  0  0  0  0  0  0  0  0  0
   61.3880   32.2870   47.7490 C   0  0  0  0  0  0  0  0  0  0  0  0
   60.8070   33.1980   48.6540 C   0  0  0  0  0  0  0  0  0  0  0  0
   61.5920   34.1680   49.2860 C   0  0  0  0  0  0  0  0  0  0  0  0
   62.9620   34.2400   49.0260 C   0  0  0  0  0  0  0  0  0  0  0  0
   63.5520   33.3400   48.1370 C   0  0  0  0  0  0  0  0  0  0  0  0
   62.7730   32.3680   47.5030 C   0  0  0  0  0  0  0  0  0  0  0  0
   59.5690   31.5540   46.3010 N   0  0  0  0  0  0  0  0  0  0  0  0
   59.0460   30.3920   45.8630 C   0  0  0  0  0  0  0  0  0  0  0  0
   57.9280   30.3440   44.9040 C   0  0  0  0  0  0  0  0  0  0  0  0
   57.8880   31.0280   43.6950 C   0  0  0  0  0  0  0  0  0  0  0  0
   56.7630   30.7260   42.9190 C   0  0  0  0  0  0  0  0  0  0  0  0
   55.9230   29.7850   43.5000 C   0  0  0  0  0  0  0  0  0  0  0  0
   56.5860   29.3300   44.9760 S   0  0  0  0  0  0  0  0  0  0  0  0
   58.0310   25.8410   44.6470 C   0  0  0  0  0  0  0  0  0  0  0  0
   57.3350   24.8420   43.9590 C   0  0  0  0  0  0  0  0  0  0  0  0
   57.0858   21.5335   44.4056 H   0  0  0  0  0  0  0  0  0  0  0  0
   56.7714   20.4815   42.9840 H   0  0  0  0  0  0  0  0  0  0  0  0
   58.1821   21.5935   42.9840 H   0  0  0  0  0  0  0  0  0  0  0  0
   56.9340   23.3121   42.2274 H   0  0  0  0  0  0  0  0  0  0  0  0
   55.6176   22.0888   41.9447 H   0  0  0  0  0  0  0  0  0  0  0  0
   54.5154   23.6986   43.2058 H   0  0  0  0  0  0  0  0  0  0  0  0
   55.0666   22.5102   44.4625 H   0  0  0  0  0  0  0  0  0  0  0  0
   54.6479   24.5054   46.0492 H   0  0  0  0  0  0  0  0  0  0  0  0
   55.8806   26.2971   47.2659 H   0  0  0  0  0  0  0  0  0  0  0  0
   61.5207   29.4148   47.7554 H   0  0  0  0  0  0  0  0  0  0  0  0
   59.7286   33.1458   48.8648 H   0  0  0  0  0  0  0  0  0  0  0  0
   61.1290   34.8757   49.9894 H   0  0  0  0  0  0  0  0  0  0  0  0
   63.5764   35.0060   49.5218 H   0  0  0  0  0  0  0  0  0  0  0  0
   64.6319   33.3958   47.9350 H   0  0  0  0  0  0  0  0  0  0  0  0
   63.2453   31.6601   46.8059 H   0  0  0  0  0  0  0  0  0  0  0  0
   58.6657   31.7385   43.3783 H   0  0  0  0  0  0  0  0  0  0  0  0
   56.5632   31.1899   41.9418 H   0  0  0  0  0  0  0  0  0  0  0  0
   54.9858   29.4034   43.0688 H   0  0  0  0  0  0  0  0  0  0  0  0
   58.9780   26.2271   44.2418 H   0  0  0  0  0  0  0  0  0  0  0  0
   57.7458   24.4348   43.0233 H   0  0  0  0  0  0  0  0  0  0  0  0
  1  2  1  0
  2  3  1  0
  3  4  1  0
  4  5  2  0
  5  6  1  0
  6  7  2  0
  7  8  1  0
  8  9  1  0
  9 10  2  0
  9 11  1  0
 11 12  2  0
 12 13  1  0
 13 14  1  0
 14 15  2  0
 15 16  1  0
 16 17  2  0
 17 18  1  0
 18 19  2  0
 13 20  1  0
 20 21  2  0
 21 22  1  0
 22 23  2  0
 23 24  1  0
 24 25  2  0
 25 26  1  0
  7 27  1  0
 27 28  2  0
 28  4  1  0
 21 11  1  0
 26 22  1  0
 19 14  1  0
  1 29  1  0
  1 30  1  0
  1 31  1  0
  2 32  1  0
  2 33  1  0
  3 34  1  0
  3 35  1  0
  5 36  1  0
  6 37  1  0
 12 38  1  0
 15 39  1  0
 16 40  1  0
 17 41  1  0
 18 42  1  0
 19 43  1  0
 23 44  1  0
 24 45  1  0
 25 46  1  0
 27 47  1  0
 28 48  1  0
M  CHG  1   8  -1
M  END
>  <UniqueID>  (11) 
11

>  <SMILES>  (11) 
CCCc1ccc([N-]C(=O)c2cn(-c3ccccc3)nc2-c2cccs2)cc1

>  <Energy>  (11) 
113.89933983719443

>  <Genealogy>  (11) 
CCCc1ccc([N-]C(=O)c2cn(-c3ccccc3)nc2-c2cccs2)cc1 (protonated)
CCCc1ccc([N-]C(=O)c2cn(-c3ccccc3)nc2-c2cccs2)cc1 (3D coordinates assigned)
CCCc1ccc([N-]C(=O)c2cn(-c3ccccc3)nc2-c2cccs2)cc1 (optimized conformer: 113.89933983719443 kcal/mol)

>  <smiles>  (11) 
CCCc1ccc(NC(=O)c2cn(-c3ccccc3)nc2-c2cccs2)cc1

>  <score_type>  (11) 
oracle

>  <origin>  (11) 
adg

>  <m_score__min__energy>  (11) 
-8.9900000000000002

>  <m_primary>  (11) 
energy

$$$$
11:0
     RDKit          3D

 61 65  0  0  0  0  0  0  0  0999 V2000
   56.8210   30.7490   42.9970 C   0  0  0  0  0  0  0  0  0  0  0  0
   57.5130   31.6720   43.9640 C   0  0  0  0  0  0  0  0  0  0  0  0
   57.7780   33.0000   43.5940 C   0  0  0  0  0  0  0  0  0  0  0  0
   58.4520   33.8620   44.4640 C   0  0  0  0  0  0  0  0  0  0  0  0
   58.8520   33.4190   45.7290 C   0  0  0  0  0  0  0  0  0  0  0  0
   59.6080   34.3130   46.6380 C   0  0  0  0  0  0  0  0  0  0  0  0
   60.5620   35.0020   46.1920 O   0  0  0  0  0  0  0  0  0  0  0  0
   59.3070   34.3690   48.0350 N   0  0  0  0  0  0  0  0  0  0  0  0
   59.7030   33.3680   48.9800 C   0  0  0  0  0  0  0  0  0  0  0  0
   60.4670   32.2540   48.5750 C   0  0  0  0  0  0  0  0  0  0  0  0
   60.7510   31.2370   49.4880 C   0  0  0  0  0  0  0  0  0  0  0  0
   60.3200   31.3420   50.8150 C   0  0  0  0  0  0  0  0  0  0  0  0
   59.6360   32.4880   51.2530 C   0  0  0  0  0  0  0  0  0  0  0  0
   59.2980   32.6840   52.7200 C   0  0  0  0  0  0  0  0  0  0  0  0
   57.9580   32.1730   53.0950 N   0  0  0  0  0  0  0  0  0  0  0  0
   56.9870   32.1760   51.9820 C   0  0  0  0  0  0  0  0  0  0  0  0
   55.8640   31.1640   52.2120 C   0  0  0  0  0  0  0  0  0  0  0  0
   56.4170   29.7930   52.2840 N   0  0  0  0  0  0  0  0  0  0  0  0
   55.3880   28.8450   52.7330 C   0  0  0  0  0  0  0  0  0  0  0  0
   57.6540   29.6830   53.1020 C   0  0  0  0  0  0  0  0  0  0  0  0
   57.9600   30.9460   53.9270 C   0  0  0  0  0  0  0  0  0  0  0  0
   59.2820   33.4740   50.3130 C   0  0  0  0  0  0  0  0  0  0  0  0
   58.5850   32.0920   46.1030 C   0  0  0  0  0  0  0  0  0  0  0  0
   57.9360   31.2140   45.2270 C   0  0  0  0  0  0  0  0  0  0  0  0
   57.7680   29.8360   45.6220 C   0  0  0  0  0  0  0  0  0  0  0  0
   57.6530   28.6840   45.9640 C   0  0  0  0  0  0  0  0  0  0  0  0
   57.5400   27.3100   46.3730 C   0  0  0  0  0  0  0  0  0  0  0  0
   58.5860   26.6820   47.0840 C   0  0  0  0  0  0  0  0  0  0  0  0
   58.4700   25.3800   47.4810 N   0  0  0  0  0  0  0  0  0  0  0  0
   57.3330   24.7100   47.1820 C   0  0  0  0  0  0  0  0  0  0  0  0
   57.0680   23.4360   47.5060 N   0  0  0  0  0  0  0  0  0  0  0  0
   55.8240   23.2960   46.9790 C   0  0  0  0  0  0  0  0  0  0  0  0
   55.3640   24.4190   46.3690 N   0  0  0  0  0  0  0  0  0  0  0  0
   56.3360   25.2900   46.5120 N   0  0  0  0  0  0  0  0  0  0  0  0
   56.3840   26.5700   46.0810 C   0  0  0  0  0  0  0  0  0  0  0  0
   56.2528   29.9911   43.5562 H   0  0  0  0  0  0  0  0  0  0  0  0
   56.1337   31.3295   42.3641 H   0  0  0  0  0  0  0  0  0  0  0  0
   57.5709   30.2519   42.3641 H   0  0  0  0  0  0  0  0  0  0  0  0
   57.4519   33.3661   42.6093 H   0  0  0  0  0  0  0  0  0  0  0  0
   58.6690   34.8943   44.1521 H   0  0  0  0  0  0  0  0  0  0  0  0
   60.8384   32.1866   47.5418 H   0  0  0  0  0  0  0  0  0  0  0  0
   61.3153   30.3504   49.1632 H   0  0  0  0  0  0  0  0  0  0  0  0
   60.5182   30.5214   51.5202 H   0  0  0  0  0  0  0  0  0  0  0  0
   60.0521   32.1577   53.3237 H   0  0  0  0  0  0  0  0  0  0  0  0
   59.2933   33.7679   52.9073 H   0  0  0  0  0  0  0  0  0  0  0  0
   56.5491   33.1811   51.8930 H   0  0  0  0  0  0  0  0  0  0  0  0
   57.5189   31.8963   51.0607 H   0  0  0  0  0  0  0  0  0  0  0  0
   55.3513   31.3989   53.1564 H   0  0  0  0  0  0  0  0  0  0  0  0
   55.1534   31.2204   51.3742 H   0  0  0  0  0  0  0  0  0  0  0  0
   55.3643   28.8232   53.8325 H   0  0  0  0  0  0  0  0  0  0  0  0
   54.4061   29.1616   52.3513 H   0  0  0  0  0  0  0  0  0  0  0  0
   55.6232   27.8405   52.3513 H   0  0  0  0  0  0  0  0  0  0  0  0
   57.5398   28.8350   53.7933 H   0  0  0  0  0  0  0  0  0  0  0  0
   58.4920   29.5425   52.4034 H   0  0  0  0  0  0  0  0  0  0  0  0
   57.1969   31.0495   54.7125 H   0  0  0  0  0  0  0  0  0  0  0  0
   58.9656   30.8321   54.3580 H   0  0  0  0  0  0  0  0  0  0  0  0
   58.6710   34.3334   50.6264 H   0  0  0  0  0  0  0  0  0  0  0  0
   58.8902   31.7374   47.0986 H   0  0  0  0  0  0  0  0  0  0  0  0
   59.5009   27.2453   47.3199 H   0  0  0  0  0  0  0  0  0  0  0  0
   55.2448   22.3629   47.0403 H   0  0  0  0  0  0  0  0  0  0  0  0
   55.5478   27.0153   45.5220 H   0  0  0  0  0  0  0  0  0  0  0  0
  1  2  1  0
  2  3  2  0
  3  4  1  0
  4  5  2  0
  5  6  1  0
  6  7  2  0
  6  8  1  0
  8  9  1  0
  9 10  2  0
 10 11  1  0
 11 12  2  0
 12 13  1  0
 13 14  1  0
 14 15  1  0
 15 16  1  0
 16 17  1  0
 17 18  1  0
 18 19  1  0
 18 20  1  0
 20 21  1  0
 13 22  2  0
  5 23  1  0
 23 24  2  0
 24 25  1  0
 25 26  3  0
 26 27  1  0
 27 28  1  0
 28 29  2  0
 29 30  1  0
 30 31  2  0
 31 32  1  0
 32 33  2  0
 33 34  1  0
 34 35  1  0
 24  2  1  0
 35 27  2  0
 22  9  1  0
 34 30  1  0
 21 15  1  0
  1 36  1  0
  1 37  1  0
  1 38  1  0
  3 39  1  0
  4 40  1  0
 10 41  1  0
 11 42  1  0
 12 43  1  0
 14 44  1  0
 14 45  1  0
 16 46  1  0
 16 47  1  0
 17 48  1  0
 17 49  1  0
 19 50  1  0
 19 51  1  0
 19 52  1  0
 20 53  1  0
 20 54  1  0
 21 55  1  0
 21 56  1  0
 22 57  1  0
 23 58  1  0
 28 59  1  0
 32 60  1  0
 35 61  1  0
M  CHG  1   8  -1
M  END
>  <UniqueID>  (12) 
12

>  <SMILES>  (12) 
Cc1ccc(C(=O)[N-]c2cccc(CN3CCN(C)CC3)c2)cc1C#Cc1cnc2ncnn2c1

>  <Energy>  (12) 
123.91255293135774

>  <Genealogy>  (12) 
Cc1ccc(C(=O)[N-]c2cccc(CN3CCN(C)CC3)c2)cc1C#Cc1cnc2ncnn2c1 (protonated)
Cc1ccc(C(=O)[N-]c2cccc(CN3CCN(C)CC3)c2)cc1C#Cc1cnc2ncnn2c1 (3D coordinates assigned)
Cc1ccc(C(=O)[N-]c2cccc(CN3CCN(C)CC3)c2)cc1C#Cc1cnc2ncnn2c1 (nonaromatic ring conformer: 123.91255293135774 kcal/mol)

>  <smiles>  (12) 
Cc1ccc(C(=O)Nc2cccc(CN3CCN(C)CC3)c2)cc1C#Cc1cnc2ncnn2c1

>  <score_type>  (12) 
oracle

>  <origin>  (12) 
adg

>  <m_score__min__energy>  (12) 
-10.93

>  <m_primary>  (12) 
energy

$$$$
12:0
     RDKit          3D

 53 56  0  0  0  0  0  0  0  0999 V2000
   58.3830   29.3670   49.5780 O   0  0  0  0  0  0  0  0  0  0  0  0
   59.3870   29.8280   48.9730 C   0  0  0  0  0  0  0  0  0  0  0  0
   60.2200   30.7330   49.6350 C   0  0  0  0  0  0  0  0  0  0  0  0
   61.3420   31.2530   48.9690 C   0  0  0  0  0  0  0  0  0  0  0  0
   62.2610   32.2200   49.6210 C   0  0  0  0  0  0  0  0  0  0  0  0
   61.7980   32.9950   50.7010 C   0  0  0  0  0  0  0  0  0  0  0  0
   62.6420   33.9180   51.3270 C   0  0  0  0  0  0  0  0  0  0  0  0
   63.9540   34.0840   50.8780 C   0  0  0  0  0  0  0  0  0  0  0  0
   64.4220   33.3320   49.7990 C   0  0  0  0  0  0  0  0  0  0  0  0
   63.5830   32.4060   49.1700 C   0  0  0  0  0  0  0  0  0  0  0  0
   61.5860   30.8850   47.7130 O   0  0  0  0  0  0  0  0  0  0  0  0
   60.8240   30.0280   47.0430 C   0  0  0  0  0  0  0  0  0  0  0  0
   61.1630   29.6970   45.7290 C   0  0  0  0  0  0  0  0  0  0  0  0
   60.3800   28.7990   45.0030 C   0  0  0  0  0  0  0  0  0  0  0  0
   59.2340   28.2220   45.5820 C   0  0  0  0  0  0  0  0  0  0  0  0
   58.4070   27.3210   44.8890 O   0  0  0  0  0  0  0  0  0  0  0  0
   57.7840   27.5470   43.6230 C   0  0  0  0  0  0  0  0  0  0  0  0
   57.0080   28.8650   43.6170 C   0  0  0  0  0  0  0  0  0  0  0  0
   57.9280   30.0080   43.7490 N   0  0  0  0  0  0  0  0  0  0  0  0
   57.3030   31.1990   44.3520 C   0  0  0  0  0  0  0  0  0  0  0  0
   58.1290   32.4820   44.1430 C   0  0  0  0  0  0  0  0  0  0  0  0
   58.5080   33.1340   45.4450 C   0  0  0  0  0  0  0  0  0  0  0  0
   58.1400   32.5480   46.6690 C   0  0  0  0  0  0  0  0  0  0  0  0
   58.5270   33.1370   47.8760 C   0  0  0  0  0  0  0  0  0  0  0  0
   59.2880   34.3140   47.8740 C   0  0  0  0  0  0  0  0  0  0  0  0
   59.6820   34.9080   49.0710 O   0  0  0  0  0  0  0  0  0  0  0  0
   59.6580   34.8980   46.6580 C   0  0  0  0  0  0  0  0  0  0  0  0
   59.2730   34.3120   45.4490 C   0  0  0  0  0  0  0  0  0  0  0  0
   58.8930   28.5450   46.9050 C   0  0  0  0  0  0  0  0  0  0  0  0
   57.7610   27.9580   47.4640 O   0  0  0  0  0  0  0  0  0  0  0  0
   59.6830   29.4540   47.6470 C   0  0  0  0  0  0  0  0  0  0  0  0
   59.9992   31.0359   50.6692 H   0  0  0  0  0  0  0  0  0  0  0  0
   60.7638   32.8737   51.0556 H   0  0  0  0  0  0  0  0  0  0  0  0
   62.2719   34.5140   52.1742 H   0  0  0  0  0  0  0  0  0  0  0  0
   64.6182   34.8069   51.3743 H   0  0  0  0  0  0  0  0  0  0  0  0
   65.4536   33.4680   49.4423 H   0  0  0  0  0  0  0  0  0  0  0  0
   63.9576   31.8195   48.3181 H   0  0  0  0  0  0  0  0  0  0  0  0
   62.0525   30.1470   45.2639 H   0  0  0  0  0  0  0  0  0  0  0  0
   60.6601   28.5402   43.9712 H   0  0  0  0  0  0  0  0  0  0  0  0
   58.5588   27.5830   42.8430 H   0  0  0  0  0  0  0  0  0  0  0  0
   57.0780   26.7258   43.4302 H   0  0  0  0  0  0  0  0  0  0  0  0
   56.4539   28.9541   42.6710 H   0  0  0  0  0  0  0  0  0  0  0  0
   56.3108   28.8704   44.4678 H   0  0  0  0  0  0  0  0  0  0  0  0
   58.3460   30.2430   42.8190 H   0  0  0  0  0  0  0  0  0  0  0  0
   56.3114   31.3425   43.8980 H   0  0  0  0  0  0  0  0  0  0  0  0
   57.2364   31.0230   45.4358 H   0  0  0  0  0  0  0  0  0  0  0  0
   59.0476   32.2262   43.5946 H   0  0  0  0  0  0  0  0  0  0  0  0
   57.5093   33.1935   43.5775 H   0  0  0  0  0  0  0  0  0  0  0  0
   57.5454   31.6226   46.6767 H   0  0  0  0  0  0  0  0  0  0  0  0
   58.2334   32.6754   48.8303 H   0  0  0  0  0  0  0  0  0  0  0  0
   59.2160   35.7330   49.4310 H   0  0  0  0  0  0  0  0  0  0  0  0
   60.2544   35.8223   46.6533 H   0  0  0  0  0  0  0  0  0  0  0  0
   59.5703   34.7752   44.4966 H   0  0  0  0  0  0  0  0  0  0  0  0
  1  2  2  0
  2  3  1  0
  3  4  2  0
  4  5  1  0
  5  6  2  0
  6  7  1  0
  7  8  2  0
  8  9  1  0
  9 10  2  0
  4 11  1  0
 11 12  1  0
 12 13  2  0
 13 14  1  0
 14 15  2  0
 15 16  1  0
 16 17  1  0
 17 18  1  0
 18 19  1  0
 19 20  1  0
 20 21  1  0
 21 22  1  0
 22 23  2  0
 23 24  1  0
 24 25  2  0
 25 26  1  0
 25 27  1  0
 27 28  2  0
 15 29  1  0
 29 30  1  0
 29 31  2  0
 31  2  1  0
 10  5  1  0
 31 12  1  0
 28 22  1  0
  3 32  1  0
  6 33  1  0
  7 34  1  0
  8 35  1  0
  9 36  1  0
 10 37  1  0
 13 38  1  0
 14 39  1  0
 17 40  1  0
 17 41  1  0
 18 42  1  0
 18 43  1  0
 19 44  1  0
 20 45  1  0
 20 46  1  0
 21 47  1  0
 21 48  1  0
 23 49  1  0
 24 50  1  0
 26 51  1  0
 27 52  1  0
 28 53  1  0
M  CHG  1  30  -1
M  END
>  <UniqueID>  (13) 
13

>  <SMILES>  (13) 
O=c1cc(-c2ccccc2)oc2ccc(OCCNCCc3ccc(O)cc3)c([O-])c12

>  <Energy>  (13) 
66.83806667850267

>  <Genealogy>  (13) 
O=c1cc(-c2ccccc2)oc2ccc(OCCNCCc3ccc(O)cc3)c([O-])c12 (protonated)
O=c1cc(-c2ccccc2)oc2ccc(OCCNCCc3ccc(O)cc3)c([O-])c12 (3D coordinates assigned)
O=c1cc(-c2ccccc2)oc2ccc(OCCNCCc3ccc(O)cc3)c([O-])c12 (optimized conformer: 66.83806667850267 kcal/mol)

>  <smiles>  (13) 
O=c1cc(-c2ccccc2)oc2ccc(OCCNCCc3ccc(O)cc3)c(O)c12

>  <score_type>  (13) 
oracle

>  <origin>  (13) 
adg

>  <m_score__min__energy>  (13) 
-11.960000000000001

>  <m_primary>  (13) 
energy

$$$$
13:0
     RDKit          3D

 43 45  0  0  0  0  0  0  0  0999 V2000
   53.9320   23.3840   46.1750 C   0  0  0  0  0  0  0  0  0  0  0  0
   55.2020   24.0860   46.5340 C   0  0  0  0  0  0  0  0  0  0  0  0
   56.0930   23.5180   47.4530 C   0  0  0  0  0  0  0  0  0  0  0  0
   57.2620   24.2040   47.7890 C   0  0  0  0  0  0  0  0  0  0  0  0
   57.5290   25.4470   47.2120 C   0  0  0  0  0  0  0  0  0  0  0  0
   56.6130   25.9890   46.3040 C   0  0  0  0  0  0  0  0  0  0  0  0
   56.8590   27.2690   45.7010 C   0  0  0  0  0  0  0  0  0  0  0  0
   57.0660   28.3440   45.1930 C   0  0  0  0  0  0  0  0  0  0  0  0
   57.3120   29.6260   44.5880 C   0  0  0  0  0  0  0  0  0  0  0  0
   56.8090   29.9040   43.3110 C   0  0  0  0  0  0  0  0  0  0  0  0
   57.0320   31.1560   42.7310 C   0  0  0  0  0  0  0  0  0  0  0  0
   57.7630   32.1280   43.4170 C   0  0  0  0  0  0  0  0  0  0  0  0
   58.2940   31.8530   44.6880 C   0  0  0  0  0  0  0  0  0  0  0  0
   59.0250   32.8780   45.3820 N   0  0  0  0  0  0  0  0  0  0  0  0
   58.6400   33.4190   46.6560 C   0  0  0  0  0  0  0  0  0  0  0  0
   57.7370   32.8680   47.3430 O   0  0  0  0  0  0  0  0  0  0  0  0
   59.3780   34.5920   47.2240 C   0  0  0  0  0  0  0  0  0  0  0  0
   60.7920   34.2030   47.5540 C   0  0  0  0  0  0  0  0  0  0  0  0
   61.6960   33.8830   46.5270 C   0  0  0  0  0  0  0  0  0  0  0  0
   63.0200   33.5520   46.8320 C   0  0  0  0  0  0  0  0  0  0  0  0
   63.4530   33.5470   48.1600 C   0  0  0  0  0  0  0  0  0  0  0  0
   62.5640   33.8760   49.1870 C   0  0  0  0  0  0  0  0  0  0  0  0
   61.2380   34.2070   48.8870 C   0  0  0  0  0  0  0  0  0  0  0  0
   58.0460   30.6000   45.2780 C   0  0  0  0  0  0  0  0  0  0  0  0
   55.4800   25.3050   45.9910 N   0  0  0  0  0  0  0  0  0  0  0  0
   53.4025   23.0913   47.0937 H   0  0  0  0  0  0  0  0  0  0  0  0
   53.2950   24.0581   45.5836 H   0  0  0  0  0  0  0  0  0  0  0  0
   54.1640   22.4860   45.5836 H   0  0  0  0  0  0  0  0  0  0  0  0
   55.8739   22.5400   47.9063 H   0  0  0  0  0  0  0  0  0  0  0  0
   57.9711   23.7659   48.5068 H   0  0  0  0  0  0  0  0  0  0  0  0
   58.4485   25.9936   47.4682 H   0  0  0  0  0  0  0  0  0  0  0  0
   56.2390   29.1379   42.7650 H   0  0  0  0  0  0  0  0  0  0  0  0
   56.6304   31.3763   41.7309 H   0  0  0  0  0  0  0  0  0  0  0  0
   57.9240   33.1152   42.9592 H   0  0  0  0  0  0  0  0  0  0  0  0
   59.9410   33.1830   44.9810 H   0  0  0  0  0  0  0  0  0  0  0  0
   59.3880   35.4075   46.4859 H   0  0  0  0  0  0  0  0  0  0  0  0
   58.8726   34.9244   48.1427 H   0  0  0  0  0  0  0  0  0  0  0  0
   61.3610   33.8929   45.4793 H   0  0  0  0  0  0  0  0  0  0  0  0
   63.7217   33.2951   46.0247 H   0  0  0  0  0  0  0  0  0  0  0  0
   64.4943   33.2840   48.3976 H   0  0  0  0  0  0  0  0  0  0  0  0
   62.9071   33.8747   50.2321 H   0  0  0  0  0  0  0  0  0  0  0  0
   60.5423   34.4712   49.6970 H   0  0  0  0  0  0  0  0  0  0  0  0
   58.4302   30.3839   46.2858 H   0  0  0  0  0  0  0  0  0  0  0  0
  1  2  1  0
  2  3  2  0
  3  4  1  0
  4  5  2  0
  5  6  1  0
  6  7  1  0
  7  8  3  0
  8  9  1  0
  9 10  2  0
 10 11  1  0
 11 12  2  0
 12 13  1  0
 13 14  1  0
 14 15  1  0
 15 16  2  0
 15 17  1  0
 17 18  1  0
 18 19  2  0
 19 20  1  0
 20 21  2  0
 21 22  1  0
 22 23  2  0
 13 24  2  0
  6 25  2  0
 25  2  1  0
 24  9  1  0
 23 18  1  0
  1 26  1  0
  1 27  1  0
  1 28  1  0
  3 29  1  0
  4 30  1  0
  5 31  1  0
 10 32  1  0
 11 33  1  0
 12 34  1  0
 14 35  1  0
 17 36  1  0
 17 37  1  0
 19 38  1  0
 20 39  1  0
 21 40  1  0
 22 41  1  0
 23 42  1  0
 24 43  1  0
M  END
>  <UniqueID>  (14) 
14

>  <SMILES>  (14) 
Cc1cccc(C#Cc2cccc(NC(=O)Cc3ccccc3)c2)n1

>  <Energy>  (14) 
41.99922608578464

>  <Genealogy>  (14) 
Cc1cccc(C#Cc2cccc(NC(=O)Cc3ccccc3)c2)n1 (3D coordinates assigned)
Cc1cccc(C#Cc2cccc(NC(=O)Cc3ccccc3)c2)n1 (optimized conformer: 41.99922608578464 kcal/mol)

>  <smiles>  (14) 
Cc1cccc(C#Cc2cccc(NC(=O)Cc3ccccc3)c2)n1

>  <score_type>  (14) 
oracle

>  <origin>  (14) 
adg

>  <m_score__min__energy>  (14) 
-8.2799999999999994

>  <m_primary>  (14) 
energy

$$$$
14:0
     RDKit          3D

 29 30  0  0  0  0  0  0  0  0999 V2000
   55.1480   28.2010   44.8980 H   0  0  0  0  0  0  0  0  0  0  0  0
   55.2380   29.1660   44.5070 N   0  0  0  0  0  0  0  0  0  0  0  0
   56.3590   29.6040   44.0280 C   0  0  0  0  0  0  0  0  0  0  0  0
   56.5310   29.7500   42.6150 N   0  0  0  0  0  0  0  0  0  0  0  0
   57.4220   30.1310   42.2260 H   0  0  0  0  0  0  0  0  0  0  0  0
   55.7670   29.4890   41.9530 H   0  0  0  0  0  0  0  0  0  0  0  0
   57.4570   30.0170   44.9680 C   0  0  0  0  0  0  0  0  0  0  0  0
   57.9600   30.9061   44.5601 H   0  0  0  0  0  0  0  0  0  0  0  0
   57.0065   30.2342   45.9478 H   0  0  0  0  0  0  0  0  0  0  0  0
   58.4920   28.9020   45.1540 C   0  0  0  0  0  0  0  0  0  0  0  0
   59.1450   28.8695   44.2694 H   0  0  0  0  0  0  0  0  0  0  0  0
   59.0732   29.1189   46.0624 H   0  0  0  0  0  0  0  0  0  0  0  0
   57.8360   27.5660   45.3240 C   0  0  0  0  0  0  0  0  0  0  0  0
   58.2300   26.4640   44.6530 N   0  0  0  0  0  0  0  0  0  0  0  0
   57.3530   25.5180   45.0380 C   0  0  0  0  0  0  0  0  0  0  0  0
   57.3840   24.1190   44.5450 C   0  0  0  0  0  0  0  0  0  0  0  0
   58.2500   23.1620   45.1080 C   0  0  0  0  0  0  0  0  0  0  0  0
   58.9211   23.4498   45.9307 H   0  0  0  0  0  0  0  0  0  0  0  0
   58.2630   21.8490   44.6290 C   0  0  0  0  0  0  0  0  0  0  0  0
   58.9432   21.1090   45.0758 H   0  0  0  0  0  0  0  0  0  0  0  0
   57.4150   21.4740   43.5850 C   0  0  0  0  0  0  0  0  0  0  0  0
   57.4267   20.4396   43.2110 H   0  0  0  0  0  0  0  0  0  0  0  0
   56.5520   22.4130   43.0160 C   0  0  0  0  0  0  0  0  0  0  0  0
   55.7290   22.0500   42.0010 F   0  0  0  0  0  0  0  0  0  0  0  0
   56.5360   23.7290   43.4910 C   0  0  0  0  0  0  0  0  0  0  0  0
   55.8555   24.4646   43.0374 H   0  0  0  0  0  0  0  0  0  0  0  0
   56.4490   26.0750   45.9220 C   0  0  0  0  0  0  0  0  0  0  0  0
   55.6170   25.5413   46.4046 H   0  0  0  0  0  0  0  0  0  0  0  0
   56.7490   27.3740   46.0980 N   0  0  0  0  0  0  0  0  0  0  0  0
  1  2  1  0
  2  3  2  0
  3  4  1  0
  4  5  1  0
  4  6  1  0
  3  7  1  0
  7  8  1  0
  7  9  1  0
  7 10  1  0
 10 11  1  0
 10 12  1  0
 10 13  1  0
 13 14  2  0
 14 15  1  0
 15 16  1  0
 16 17  2  0
 17 18  1  0
 17 19  1  0
 19 20  1  0
 19 21  2  0
 21 22  1  0
 21 23  1  0
 23 24  1  0
 23 25  2  0
 25 26  1  0
 15 27  2  0
 27 28  1  0
 27 29  1  0
 29 13  1  0
 25 16  1  0
M  CHG  1  29  -1
M  END
>  <UniqueID>  (15) 
15

>  <SMILES>  (15) 
[H]/N=C(\N)CCc1nc(-c2cccc(F)c2)c[n-]1

>  <Energy>  (15) 
51.82726903419321

>  <Genealogy>  (15) 
N=C(N)CCc1nc(-c2cccc(F)c2)c[n-]1 (protonated)
[H]/N=C(\N)CCc1nc(-c2cccc(F)c2)c[n-]1 (cis-trans isomerization)
[H]/N=C(\N)CCc1nc(-c2cccc(F)c2)c[n-]1 (3D coordinates assigned)
[H]/N=C(\N)CCc1nc(-c2cccc(F)c2)c[n-]1 (optimized conformer: 51.82726903419321 kcal/mol)

>  <smiles>  (15) 
N=C(N)CCc1nc(-c2cccc(F)c2)c[nH]1

>  <score_type>  (15) 
oracle

>  <origin>  (15) 
adg

>  <m_score__min__energy>  (15) 
-7.9100000000000001

>  <m_primary>  (15) 
energy

$$$$
15:0
     RDKit          3D

 43 45  0  0  1  0  0  0  0  0999 V2000
   60.9400   29.3400   45.4210 C   0  0  0  0  0  0  0  0  0  0  0  0
   61.0840   29.7570   46.8400 C   0  0  0  0  0  0  0  0  0  0  0  0
   61.9220   30.8290   47.0870 C   0  0  0  0  0  0  0  0  0  0  0  0
   62.0930   31.2750   48.3760 C   0  0  0  0  0  0  0  0  0  0  0  0
   62.9640   32.3840   48.6120 C   0  0  0  0  0  0  0  0  0  0  0  0
   63.6590   33.2920   48.8080 N   0  0  0  0  0  0  0  0  0  0  0  0
   61.4090   30.6240   49.3810 C   0  0  0  0  0  0  0  0  0  0  0  0
   60.5630   29.5410   49.1180 C   0  0  0  0  0  0  0  0  0  0  0  0
   59.8580   28.8900   50.2600 C   0  0  0  0  0  0  0  0  0  0  0  0
   60.3900   29.0860   47.8040 C   0  0  0  0  0  0  0  0  0  0  0  0
   59.5540   28.0270   47.6220 O   0  0  0  0  0  0  0  0  0  0  0  0
   58.4050   28.0810   46.8650 C   0  0  0  0  0  0  0  0  0  0  0  0
   57.5720   26.9580   46.8360 C   0  0  0  0  0  0  0  0  0  0  0  0
   56.3980   26.9730   46.0820 C   0  0  0  0  0  0  0  0  0  0  0  0
   55.6060   25.9510   46.0340 N   0  0  0  0  0  0  0  0  0  0  0  0
   56.0360   28.0540   45.3660 N   0  0  0  0  0  0  0  0  0  0  0  0
   56.8520   29.1150   45.4120 C   0  0  0  0  0  0  0  0  0  0  0  0
   56.5140   30.1610   44.7270 N   0  0  0  0  0  0  0  0  0  0  0  0
   57.1670   31.4150   44.8760 C   0  0  0  0  0  0  0  0  0  0  0  0
   57.4370   32.0130   46.0660 C   0  0  0  0  0  0  0  0  0  0  0  0
   58.0790   33.2420   46.1560 C   0  0  0  0  0  0  0  0  0  0  0  0
   58.4370   33.8410   44.9490 C   0  0  0  0  0  0  0  0  0  0  0  0
   59.1130   35.1280   44.9300 C   0  0  0  0  0  0  0  0  0  0  0  0
   59.6520   36.1740   44.9330 N   0  0  0  0  0  0  0  0  0  0  0  0
   58.1830   33.2730   43.7300 C   0  0  0  0  0  0  0  0  0  0  0  0
   57.5440   32.0530   43.7020 C   0  0  0  0  0  0  0  0  0  0  0  0
   58.0010   29.1270   46.1380 N   0  0  0  0  0  0  0  0  0  0  0  0
   60.5812   28.3010   45.3788 H   0  0  0  0  0  0  0  0  0  0  0  0
   60.2171   29.9983   44.9169 H   0  0  0  0  0  0  0  0  0  0  0  0
   61.9150   29.4120   44.9169 H   0  0  0  0  0  0  0  0  0  0  0  0
   62.4488   31.3220   46.2567 H   0  0  0  0  0  0  0  0  0  0  0  0
   61.5320   30.9659   50.4192 H   0  0  0  0  0  0  0  0  0  0  0  0
   60.2680   29.2686   51.2079 H   0  0  0  0  0  0  0  0  0  0  0  0
   58.7837   29.1205   50.2071 H   0  0  0  0  0  0  0  0  0  0  0  0
   60.0023   27.8008   50.2071 H   0  0  0  0  0  0  0  0  0  0  0  0
   57.8433   26.0595   47.4097 H   0  0  0  0  0  0  0  0  0  0  0  0
   55.3640   25.5620   45.0750 H   0  0  0  0  0  0  0  0  0  0  0  0
   55.1630   28.0440   44.8150 H   0  0  0  0  0  0  0  0  0  0  0  0
   57.1357   31.5046   46.9937 H   0  0  0  0  0  0  0  0  0  0  0  0
   58.2928   33.7159   47.1254 H   0  0  0  0  0  0  0  0  0  0  0  0
   58.4808   33.7767   42.7985 H   0  0  0  0  0  0  0  0  0  0  0  0
   57.3290   31.5767   42.7341 H   0  0  0  0  0  0  0  0  0  0  0  0
   58.5520   29.9880   46.1050 H   0  0  0  0  0  0  0  0  0  0  0  0
  1  2  1  0
  2  3  2  0
  3  4  1  0
  4  5  1  0
  5  6  3  0
  4  7  2  0
  7  8  1  0
  8  9  1  0
  8 10  2  0
 10 11  1  0
 11 12  1  0
 12 13  2  0
 13 14  1  0
 14 15  2  3
 14 16  1  0
 16 17  1  0
 17 18  2  0
 18 19  1  0
 19 20  2  0
 20 21  1  0
 21 22  2  0
 22 23  1  0
 23 24  3  0
 22 25  1  0
 25 26  2  0
 17 27  1  0
 10  2  1  0
 27 12  1  0
 26 19  1  0
  1 28  1  0
  1 29  1  0
  1 30  1  0
  3 31  1  0
  7 32  1  0
  9 33  1  0
  9 34  1  0
  9 35  1  0
 13 36  1  0
 15 37  1  0
 16 38  1  0
 20 39  1  0
 21 40  1  0
 25 41  1  0
 26 42  1  0
 27 43  1  0
M  END
>  <smiles>  (16) 
Cc1cc(C#N)cc(C)c1Oc1cc(=N)[nH]c(=Nc2ccc(C#N)cc2)[nH]1

>  <score_type>  (16) 
oracle

>  <origin>  (16) 
adg

>  <m_score__min__energy>  (16) 
-8.0500000000000007

>  <m_primary>  (16) 
energy

$$$$
16:0
     RDKit          3D

 61 64  0  0  0  0  0  0  0  0999 V2000
   54.9449   28.7492   52.5576 H   0  0  0  0  0  0  0  0  0  0  0  0
   54.5490   29.3340   53.4010 C   0  0  0  0  0  0  0  0  0  0  0  0
   55.5170   29.7530   54.4350 C   0  0  0  0  0  0  0  0  0  0  0  0
   55.4850   29.2730   55.6030 O   0  0  0  0  0  0  0  0  0  0  0  0
   56.5490   30.6790   54.0760 N   0  0  0  0  0  0  0  0  0  0  0  0
   57.4320   30.5060   52.9620 C   0  0  0  0  0  0  0  0  0  0  0  0
   57.3180   31.3720   51.8700 C   0  0  0  0  0  0  0  0  0  0  0  0
   56.5770   32.1846   51.8922 H   0  0  0  0  0  0  0  0  0  0  0  0
   58.1390   31.2120   50.7510 C   0  0  0  0  0  0  0  0  0  0  0  0
   58.0412   31.8998   49.8981 H   0  0  0  0  0  0  0  0  0  0  0  0
   59.0840   30.1830   50.7090 C   0  0  0  0  0  0  0  0  0  0  0  0
   59.8600   30.0040   49.5190 N   0  0  0  0  0  0  0  0  0  0  0  0
   61.1260   31.0730   49.0060 S   0  0  0  0  0  0  0  0  0  0  0  0
   62.3350   30.8310   49.8660 O   0  0  0  0  0  0  0  0  0  0  0  0
   61.5020   30.8160   47.5730 O   0  0  0  0  0  0  0  0  0  0  0  0
   60.6090   32.7370   49.2390 C   0  0  0  0  0  0  0  0  0  0  0  0
   61.2601   33.4289   49.7933 H   0  0  0  0  0  0  0  0  0  0  0  0
   59.4420   33.1820   48.7580 C   0  0  0  0  0  0  0  0  0  0  0  0
   58.5619   33.1787   49.4178 H   0  0  0  0  0  0  0  0  0  0  0  0
   59.2910   33.6780   47.3730 C   0  0  0  0  0  0  0  0  0  0  0  0
   59.7570   34.9700   47.0730 C   0  0  0  0  0  0  0  0  0  0  0  0
   60.2181   35.5808   47.8631 H   0  0  0  0  0  0  0  0  0  0  0  0
   59.6390   35.4850   45.7780 C   0  0  0  0  0  0  0  0  0  0  0  0
   59.9963   36.5015   45.5563 H   0  0  0  0  0  0  0  0  0  0  0  0
   59.0680   34.7100   44.7660 C   0  0  0  0  0  0  0  0  0  0  0  0
   58.9600   35.1235   43.7524 H   0  0  0  0  0  0  0  0  0  0  0  0
   58.6340   33.4110   45.0390 C   0  0  0  0  0  0  0  0  0  0  0  0
   58.1977   32.8001   44.2350 H   0  0  0  0  0  0  0  0  0  0  0  0
   58.7510   32.8810   46.3310 C   0  0  0  0  0  0  0  0  0  0  0  0
   58.3130   31.1870   46.5660 Cl  0  0  0  0  0  0  0  0  0  0  0  0
   59.2550   29.3580   51.8330 C   0  0  0  0  0  0  0  0  0  0  0  0
   60.0314   28.5789   51.8239 H   0  0  0  0  0  0  0  0  0  0  0  0
   58.4420   29.5190   52.9710 C   0  0  0  0  0  0  0  0  0  0  0  0
   58.6290   28.7390   54.1250 O   0  0  0  0  0  0  0  0  0  0  0  0
   57.9640   27.5050   54.3870 C   0  0  0  0  0  0  0  0  0  0  0  0
   57.7914   27.4077   55.4690 H   0  0  0  0  0  0  0  0  0  0  0  0
   57.0033   27.4938   53.8513 H   0  0  0  0  0  0  0  0  0  0  0  0
   58.8030   26.3540   53.9130 C   0  0  0  0  0  0  0  0  0  0  0  0
   58.2410   25.0730   53.8000 C   0  0  0  0  0  0  0  0  0  0  0  0
   57.1894   24.9109   54.0792 H   0  0  0  0  0  0  0  0  0  0  0  0
   59.0090   24.0020   53.3350 C   0  0  0  0  0  0  0  0  0  0  0  0
   58.5627   22.9997   53.2564 H   0  0  0  0  0  0  0  0  0  0  0  0
   60.3420   24.2020   52.9700 C   0  0  0  0  0  0  0  0  0  0  0  0
   61.3910   22.7290   52.3530 Br  0  0  0  0  0  0  0  0  0  0  0  0
   60.9040   25.4810   53.0530 C   0  0  0  0  0  0  0  0  0  0  0  0
   61.9524   25.6406   52.7608 H   0  0  0  0  0  0  0  0  0  0  0  0
   60.1340   26.5560   53.5070 C   0  0  0  0  0  0  0  0  0  0  0  0
   60.5714   27.5645   53.5468 H   0  0  0  0  0  0  0  0  0  0  0  0
   53.2320   29.5980   53.3910 C   0  0  0  0  0  0  0  0  0  0  0  0
   52.6343   29.1967   54.2227 H   0  0  0  0  0  0  0  0  0  0  0  0
   52.5150   30.3790   52.3630 C   0  0  0  0  0  0  0  0  0  0  0  0
   52.5450   29.9480   51.0280 C   0  0  0  0  0  0  0  0  0  0  0  0
   53.0665   29.0157   50.7656 H   0  0  0  0  0  0  0  0  0  0  0  0
   51.9150   30.6980   50.0290 C   0  0  0  0  0  0  0  0  0  0  0  0
   51.9249   30.3434   48.9878 H   0  0  0  0  0  0  0  0  0  0  0  0
   51.2720   31.8990   50.3520 C   0  0  0  0  0  0  0  0  0  0  0  0
   50.6450   32.6370   49.3550 O   0  0  0  0  0  0  0  0  0  0  0  0
   51.2650   32.3530   51.6770 C   0  0  0  0  0  0  0  0  0  0  0  0
   50.6350   33.5510   52.0020 O   0  0  0  0  0  0  0  0  0  0  0  0
   51.8950   31.6020   52.6770 C   0  0  0  0  0  0  0  0  0  0  0  0
   51.9051   31.9703   53.7134 H   0  0  0  0  0  0  0  0  0  0  0  0
  1  2  1  0
  2  3  1  0
  3  4  2  0
  3  5  1  0
  5  6  1  0
  6  7  2  0
  7  8  1  0
  7  9  1  0
  9 10  1  0
  9 11  2  0
 11 12  1  0
 12 13  1  0
 13 14  2  0
 13 15  2  0
 13 16  1  0
 16 17  1  0
 16 18  2  0
 18 19  1  0
 18 20  1  0
 20 21  2  0
 21 22  1  0
 21 23  1  0
 23 24  1  0
 23 25  2  0
 25 26  1  0
 25 27  1  0
 27 28  1  0
 27 29  2  0
 29 30  1  0
 11 31  1  0
 31 32  1  0
 31 33  2  0
 33 34  1  0
 34 35  1  0
 35 36  1  0
 35 37  1  0
 35 38  1  0
 38 39  2  0
 39 40  1  0
 39 41  1  0
 41 42  1  0
 41 43  2  0
 43 44  1  0
 43 45  1  0
 45 46  1  0
 45 47  2  0
 47 48  1  0
  2 49  2  3
 49 50  1  0
 49 51  1  0
 51 52  2  0
 52 53  1  0
 52 54  1  0
 54 55  1  0
 54 56  2  0
 56 57  1  0
 56 58  1  0
 58 59  1  0
 58 60  2  0
 60 61  1  0
 33  6  1  0
 47 38  1  0
 60 51  1  0
 29 20  1  0
M  CHG  4   5  -1  12  -1  57  -1  59  -1
M  END
>  <UniqueID>  (17) 
16

>  <SMILES>  (17) 
O=C(C=Cc1ccc([O-])c([O-])c1)[N-]c1ccc([N-]S(=O)(=O)/C=C/c2ccccc2Cl)cc1OCc1ccc(Br)cc1

>  <Energy>  (17) 
85.09658232294024

>  <Genealogy>  (17) 
O=C(C=Cc1ccc([O-])c([O-])c1)[N-]c1ccc([N-]S(=O)(=O)C=Cc2ccccc2Cl)cc1OCc1ccc(Br)cc1 (protonated)
O=C(C=Cc1ccc([O-])c([O-])c1)[N-]c1ccc([N-]S(=O)(=O)/C=C/c2ccccc2Cl)cc1OCc1ccc(Br)cc1 (cis-trans isomerization)
O=C(C=Cc1ccc([O-])c([O-])c1)[N-]c1ccc([N-]S(=O)(=O)/C=C/c2ccccc2Cl)cc1OCc1ccc(Br)cc1 (3D coordinates assigned)
O=C(C=Cc1ccc([O-])c([O-])c1)[N-]c1ccc([N-]S(=O)(=O)/C=C/c2ccccc2Cl)cc1OCc1ccc(Br)cc1 (optimized conformer: 85.09658232294024 kcal/mol)

>  <smiles>  (17) 
O=C(C=Cc1ccc(O)c(O)c1)Nc1ccc(NS(=O)(=O)C=Cc2ccccc2Cl)cc1OCc1ccc(Br)cc1

>  <score_type>  (17) 
oracle

>  <origin>  (17) 
adg

>  <m_score__min__energy>  (17) 
-22.199999999999999

>  <m_primary>  (17) 
energy

$$$$
17:0
     RDKit          3D

 33 35  0  0  0  0  0  0  0  0999 V2000
   59.6260   27.3790   46.0080 O   0  0  0  0  0  0  0  0  0  0  0  0
   59.7280   28.8350   45.6500 S   0  0  0  0  0  0  0  0  0  0  0  0
   60.7150   28.9740   44.5250 O   0  0  0  0  0  0  0  0  0  0  0  0
   60.3440   29.7780   46.9960 C   0  0  0  0  0  0  0  0  0  0  0  0
   61.2520   30.8230   46.7790 C   0  0  0  0  0  0  0  0  0  0  0  0
   61.7230   31.5560   47.8700 C   0  0  0  0  0  0  0  0  0  0  0  0
   61.2820   31.2450   49.1580 C   0  0  0  0  0  0  0  0  0  0  0  0
   60.3670   30.2050   49.3340 C   0  0  0  0  0  0  0  0  0  0  0  0
   59.9200   29.5010   48.2590 N   0  0  0  0  0  0  0  0  0  0  0  0
   58.1750   29.4270   45.1230 N   0  0  0  0  0  0  0  0  0  0  0  0
   57.5250   28.8910   44.0730 C   0  0  0  0  0  0  0  0  0  0  0  0
   56.5230   29.7530   43.7050 C   0  0  0  0  0  0  0  0  0  0  0  0
   55.6390   29.5660   42.6470 O   0  0  0  0  0  0  0  0  0  0  0  0
   56.5140   30.8350   44.5000 N   0  0  0  0  0  0  0  0  0  0  0  0
   57.5230   30.6030   45.3660 C   0  0  0  0  0  0  0  0  0  0  0  0
   57.7840   31.4590   46.3160 N   0  0  0  0  0  0  0  0  0  0  0  0
   58.3380   32.7750   46.2260 C   0  0  0  0  0  0  0  0  0  0  0  0
   58.6040   33.3510   44.9750 C   0  0  0  0  0  0  0  0  0  0  0  0
   59.2370   34.5960   44.8950 C   0  0  0  0  0  0  0  0  0  0  0  0
   59.6420   35.2500   46.0620 C   0  0  0  0  0  0  0  0  0  0  0  0
   59.4360   34.6500   47.3070 C   0  0  0  0  0  0  0  0  0  0  0  0
   58.8030   33.4050   47.3870 C   0  0  0  0  0  0  0  0  0  0  0  0
   61.5900   31.0632   45.7602 H   0  0  0  0  0  0  0  0  0  0  0  0
   62.4395   32.3762   47.7154 H   0  0  0  0  0  0  0  0  0  0  0  0
   61.6514   31.8131   50.0245 H   0  0  0  0  0  0  0  0  0  0  0  0
   60.0072   29.9546   50.3429 H   0  0  0  0  0  0  0  0  0  0  0  0
   57.7570   27.9287   43.5932 H   0  0  0  0  0  0  0  0  0  0  0  0
   55.5200   28.6540   42.2240 H   0  0  0  0  0  0  0  0  0  0  0  0
   58.3142   32.8226   44.0548 H   0  0  0  0  0  0  0  0  0  0  0  0
   59.4160   35.0601   43.9139 H   0  0  0  0  0  0  0  0  0  0  0  0
   60.1230   36.2373   46.0003 H   0  0  0  0  0  0  0  0  0  0  0  0
   59.7715   35.1565   48.2240 H   0  0  0  0  0  0  0  0  0  0  0  0
   58.6701   32.9194   48.3650 H   0  0  0  0  0  0  0  0  0  0  0  0
  1  2  2  0
  2  3  2  0
  2  4  1  0
  4  5  2  0
  5  6  1  0
  6  7  2  0
  7  8  1  0
  8  9  2  0
  2 10  1  0
 10 11  1  0
 11 12  2  0
 12 13  1  0
 12 14  1  0
 14 15  1  0
 15 16  2  3
 16 17  1  0
 17 18  2  0
 18 19  1  0
 19 20  2  0
 20 21  1  0
 21 22  2  0
  9  4  1  0
 15 10  1  0
 22 17  1  0
  5 23  1  0
  6 24  1  0
  7 25  1  0
  8 26  1  0
 11 27  1  0
 13 28  1  0
 18 29  1  0
 19 30  1  0
 20 31  1  0
 21 32  1  0
 22 33  1  0
M  CHG  1  14  -1
M  END
>  <UniqueID>  (18) 
17

>  <SMILES>  (18) 
O=S(=O)(c1ccccn1)n1cc(O)[n-]c1=Nc1ccccc1

>  <Energy>  (18) 
82.25657915791052

>  <Genealogy>  (18) 
O=S(=O)(c1ccccn1)n1cc(O)[n-]c1=Nc1ccccc1 (protonated)
O=S(=O)(c1ccccn1)n1cc(O)[n-]c1=Nc1ccccc1 (3D coordinates assigned)
O=S(=O)(c1ccccn1)n1cc(O)[n-]c1=Nc1ccccc1 (optimized conformer: 82.25657915791052 kcal/mol)

>  <smiles>  (18) 
O=S(=O)(c1ccccn1)n1cc(O)[nH]c1=Nc1ccccc1

>  <score_type>  (18) 
oracle

>  <origin>  (18) 
adg

>  <m_score__min__energy>  (18) 
-8.8499999999999996

>  <m_primary>  (18) 
energy

$$$$
18:0
     RDKit          3D

 34 36  0  0  0  0  0  0  0  0999 V2000
   55.8860   29.9150   42.9110 O   0  0  0  0  0  0  0  0  0  0  0  0
   56.5240   30.1030   44.2580 S   0  0  0  0  0  0  0  0  0  0  0  0
   55.8960   29.1360   45.2210 O   0  0  0  0  0  0  0  0  0  0  0  0
   56.2690   31.7120   44.8560 N   0  0  0  0  0  0  0  0  0  0  0  0
   57.3260   32.6080   45.2120 C   0  0  0  0  0  0  0  0  0  0  0  0
   57.5700   32.9640   46.5490 C   0  0  0  0  0  0  0  0  0  0  0  0
   58.5820   33.8790   46.8590 C   0  0  0  0  0  0  0  0  0  0  0  0
   59.3630   34.4320   45.8400 C   0  0  0  0  0  0  0  0  0  0  0  0
   59.1440   34.0570   44.5110 C   0  0  0  0  0  0  0  0  0  0  0  0
   58.1360   33.1390   44.2000 C   0  0  0  0  0  0  0  0  0  0  0  0
   58.2270   29.7790   44.1780 N   0  0  0  0  0  0  0  0  0  0  0  0
   58.9200   29.1770   45.2770 C   0  0  0  0  0  0  0  0  0  0  0  0
   59.3510   27.8440   45.1820 C   0  0  0  0  0  0  0  0  0  0  0  0
   59.9480   27.2140   46.2810 C   0  0  0  0  0  0  0  0  0  0  0  0
   60.1210   27.9190   47.4750 C   0  0  0  0  0  0  0  0  0  0  0  0
   59.7530   29.2670   47.5540 C   0  0  0  0  0  0  0  0  0  0  0  0
   59.1560   29.8970   46.4600 C   0  0  0  0  0  0  0  0  0  0  0  0
   59.9790   29.9660   48.7450 O   0  0  0  0  0  0  0  0  0  0  0  0
   60.7960   29.4160   49.7820 C   0  0  0  0  0  0  0  0  0  0  0  0
   60.5650   27.9040   49.8950 C   0  0  0  0  0  0  0  0  0  0  0  0
   60.6550   27.2920   48.6060 O   0  0  0  0  0  0  0  0  0  0  0  0
   56.9641   32.5224   47.3539 H   0  0  0  0  0  0  0  0  0  0  0  0
   58.7633   34.1636   47.9060 H   0  0  0  0  0  0  0  0  0  0  0  0
   60.1493   35.1617   46.0836 H   0  0  0  0  0  0  0  0  0  0  0  0
   59.7648   34.4842   43.7097 H   0  0  0  0  0  0  0  0  0  0  0  0
   57.9784   32.8323   43.1554 H   0  0  0  0  0  0  0  0  0  0  0  0
   58.6540   29.7250   43.2260 H   0  0  0  0  0  0  0  0  0  0  0  0
   59.2191   27.2919   44.2398 H   0  0  0  0  0  0  0  0  0  0  0  0
   60.2796   26.1679   46.2046 H   0  0  0  0  0  0  0  0  0  0  0  0
   58.8704   30.9573   46.5246 H   0  0  0  0  0  0  0  0  0  0  0  0
   61.8543   29.6052   49.5492 H   0  0  0  0  0  0  0  0  0  0  0  0
   60.5300   29.8914   50.7377 H   0  0  0  0  0  0  0  0  0  0  0  0
   61.3274   27.4687   50.5577 H   0  0  0  0  0  0  0  0  0  0  0  0
   59.5612   27.7246   50.3077 H   0  0  0  0  0  0  0  0  0  0  0  0
  1  2  2  0
  2  3  2  0
  2  4  1  0
  4  5  1  0
  5  6  2  0
  6  7  1  0
  7  8  2  0
  8  9  1  0
  9 10  2  0
  2 11  1  0
 11 12  1  0
 12 13  2  0
 13 14  1  0
 14 15  2  0
 15 16  1  0
 16 17  2  0
 16 18  1  0
 18 19  1  0
 19 20  1  0
 20 21  1  0
 10  5  1  0
 17 12  1  0
 21 15  1  0
  6 22  1  0
  7 23  1  0
  8 24  1  0
  9 25  1  0
 10 26  1  0
 11 27  1  0
 13 28  1  0
 14 29  1  0
 17 30  1  0
 19 31  1  0
 19 32  1  0
 20 33  1  0
 20 34  1  0
M  CHG  1   4  -1
M  END
>  <UniqueID>  (19) 
18

>  <SMILES>  (19) 
O=S(=O)([N-]c1ccccc1)Nc1ccc2c(c1)OCCO2

>  <Energy>  (19) 
44.38653440180516

>  <Genealogy>  (19) 
O=S(=O)([N-]c1ccccc1)Nc1ccc2c(c1)OCCO2 (protonated)
O=S(=O)([N-]c1ccccc1)Nc1ccc2c(c1)OCCO2 (3D coordinates assigned)
O=S(=O)([N-]c1ccccc1)Nc1ccc2c(c1)OCCO2 (nonaromatic ring conformer: 44.38653440180516 kcal/mol)

>  <smiles>  (19) 
O=S(=O)(Nc1ccccc1)Nc1ccc2c(c1)OCCO2

>  <score_type>  (19) 
oracle

>  <origin>  (19) 
adg

>  <m_score__min__energy>  (19) 
-9.1199999999999992

>  <m_primary>  (19) 
energy

$$$$
19:0
     RDKit          3D

 33 34  0  0  0  0  0  0  0  0999 V2000
   60.2460   22.3480   45.2920 N   0  0  0  0  0  0  0  0  0  0  0  0
   58.7030   22.1550   45.2250 S   0  0  2  0  0  0  0  0  0  0  0  0
   58.2670   21.2670   46.3580 O   0  0  0  0  0  0  0  0  0  0  0  0
   58.2800   21.4160   43.7730 O   0  0  0  0  0  0  0  0  0  0  0  0
   57.9080   23.7230   45.3430 C   0  0  0  0  0  0  0  0  0  0  0  0
   58.6380   24.8720   45.6820 C   0  0  0  0  0  0  0  0  0  0  0  0
   57.9950   26.1110   45.7780 C   0  0  0  0  0  0  0  0  0  0  0  0
   56.6160   26.2150   45.5240 C   0  0  0  0  0  0  0  0  0  0  0  0
   55.9150   27.4600   45.6440 N   0  0  0  0  0  0  0  0  0  0  0  0
   56.2550   28.6920   44.9940 C   0  0  0  0  0  0  0  0  0  0  0  0
   55.3930   29.6000   44.8370 O   0  0  0  0  0  0  0  0  0  0  0  0
   57.6490   28.9010   44.4980 C   0  0  0  0  0  0  0  0  0  0  0  0
   58.0680   30.3250   44.7430 C   0  0  0  0  0  0  0  0  0  0  0  0
   57.7370   31.3290   43.8180 C   0  0  0  0  0  0  0  0  0  0  0  0
   58.0940   32.6590   44.0630 C   0  0  0  0  0  0  0  0  0  0  0  0
   58.7760   32.9970   45.2370 C   0  0  0  0  0  0  0  0  0  0  0  0
   59.2600   34.8130   45.5730 Br  0  0  0  0  0  0  0  0  0  0  0  0
   59.0950   32.0040   46.1700 C   0  0  0  0  0  0  0  0  0  0  0  0
   58.7400   30.6720   45.9260 C   0  0  0  0  0  0  0  0  0  0  0  0
   55.8880   25.0610   45.2080 C   0  0  0  0  0  0  0  0  0  0  0  0
   56.5310   23.8240   45.1100 C   0  0  0  0  0  0  0  0  0  0  0  0
   60.8530   21.9760   44.5480 H   0  0  0  0  0  0  0  0  0  0  0  0
   58.1450   20.4610   44.0000 H   0  0  0  0  0  0  0  0  0  0  0  0
   59.7188   24.7987   45.8729 H   0  0  0  0  0  0  0  0  0  0  0  0
   58.5705   27.0071   46.0532 H   0  0  0  0  0  0  0  0  0  0  0  0
   58.3318   28.2225   45.0304 H   0  0  0  0  0  0  0  0  0  0  0  0
   57.6861   28.6917   43.4187 H   0  0  0  0  0  0  0  0  0  0  0  0
   57.1948   31.0682   42.8971 H   0  0  0  0  0  0  0  0  0  0  0  0
   57.8383   33.4401   43.3319 H   0  0  0  0  0  0  0  0  0  0  0  0
   59.6253   32.2704   47.0962 H   0  0  0  0  0  0  0  0  0  0  0  0
   58.9884   29.8946   46.6635 H   0  0  0  0  0  0  0  0  0  0  0  0
   54.8037   25.1287   45.0359 H   0  0  0  0  0  0  0  0  0  0  0  0
   55.9526   22.9256   44.8486 H   0  0  0  0  0  0  0  0  0  0  0  0
  1  2  2  0
  2  3  2  0
  2  4  1  6
  2  5  1  0
  5  6  2  0
  6  7  1  0
  7  8  2  0
  8  9  1  0
  9 10  1  0
 10 11  2  0
 10 12  1  0
 12 13  1  0
 13 14  2  0
 14 15  1  0
 15 16  2  0
 16 17  1  0
 16 18  1  0
 18 19  2  0
  8 20  1  0
 20 21  2  0
 21  5  1  0
 19 13  1  0
  1 22  1  0
  4 23  1  0
  6 24  1  0
  7 25  1  0
 12 26  1  0
 12 27  1  0
 14 28  1  0
 15 29  1  0
 18 30  1  0
 19 31  1  0
 20 32  1  0
 21 33  1  0
M  CHG  1   9  -1
M  END
>  <UniqueID>  (20) 
19

>  <SMILES>  (20) 
N=[S@](=O)(O)c1ccc([N-]C(=O)Cc2ccc(Br)cc2)cc1

>  <Energy>  (20) 
35.63205964851434

>  <Genealogy>  (20) 
N=S(=O)(O)c1ccc([N-]C(=O)Cc2ccc(Br)cc2)cc1 (protonated)
N=[S@](=O)(O)c1ccc([N-]C(=O)Cc2ccc(Br)cc2)cc1 (chirality)
N=[S@](=O)(O)c1ccc([N-]C(=O)Cc2ccc(Br)cc2)cc1 (3D coordinates assigned)
N=[S@](=O)(O)c1ccc([N-]C(=O)Cc2ccc(Br)cc2)cc1 (optimized conformer: 35.63205964851434 kcal/mol)

>  <smiles>  (20) 
N=S(=O)(O)c1ccc(NC(=O)Cc2ccc(Br)cc2)cc1

>  <score_type>  (20) 
oracle

>  <origin>  (20) 
adg

>  <m_score__min__energy>  (20) 
-10.51

>  <m_primary>  (20) 
energy

$$$$
20:0
     RDKit          3D

 39 41  0  0  0  0  0  0  0  0999 V2000
   57.3750   34.5500   44.8900 C   0  0  0  0  0  0  0  0  0  0  0  0
   58.0110   34.0360   46.1060 N   0  0  0  0  0  0  0  0  0  0  0  0
   57.2710   33.1840   47.0390 C   0  0  0  0  0  0  0  0  0  0  0  0
   59.3790   34.3730   46.3960 C   0  0  0  0  0  0  0  0  0  0  0  0
   60.0030   35.1720   45.6440 O   0  0  0  0  0  0  0  0  0  0  0  0
   59.9890   33.8550   47.5470 O   0  0  0  0  0  0  0  0  0  0  0  0
   61.2480   33.2350   47.6020 C   0  0  0  0  0  0  0  0  0  0  0  0
   62.3980   33.9430   47.9990 C   0  0  0  0  0  0  0  0  0  0  0  0
   63.6390   33.3040   48.0580 C   0  0  0  0  0  0  0  0  0  0  0  0
   63.7490   31.9600   47.7090 C   0  0  0  0  0  0  0  0  0  0  0  0
   62.6230   31.2500   47.2870 C   0  0  0  0  0  0  0  0  0  0  0  0
   61.3640   31.8770   47.2230 C   0  0  0  0  0  0  0  0  0  0  0  0
   60.1770   31.1260   46.7450 C   0  0  0  0  0  0  0  0  0  0  0  0
   59.6710   30.0340   47.4590 C   0  0  0  0  0  0  0  0  0  0  0  0
   58.5500   29.3560   46.9780 C   0  0  0  0  0  0  0  0  0  0  0  0
   58.0800   28.4180   47.6730 O   0  0  0  0  0  0  0  0  0  0  0  0
   57.9580   29.7540   45.7550 C   0  0  0  0  0  0  0  0  0  0  0  0
   56.8350   29.1130   45.1480 C   0  0  0  0  0  0  0  0  0  0  0  0
   56.2590   27.9300   45.6210 O   0  0  0  0  0  0  0  0  0  0  0  0
   56.2690   29.6650   43.9920 C   0  0  0  0  0  0  0  0  0  0  0  0
   56.8200   30.7960   43.3930 C   0  0  0  0  0  0  0  0  0  0  0  0
   57.9470   31.3980   43.9430 C   0  0  0  0  0  0  0  0  0  0  0  0
   58.5130   30.8950   45.1170 C   0  0  0  0  0  0  0  0  0  0  0  0
   59.5760   31.5110   45.6240 O   0  0  0  0  0  0  0  0  0  0  0  0
   56.5465   35.2195   45.1645 H   0  0  0  0  0  0  0  0  0  0  0  0
   58.1151   35.1067   44.2964 H   0  0  0  0  0  0  0  0  0  0  0  0
   56.9860   33.7096   44.2964 H   0  0  0  0  0  0  0  0  0  0  0  0
   57.5190   33.4696   48.0719 H   0  0  0  0  0  0  0  0  0  0  0  0
   56.1909   33.3101   46.8730 H   0  0  0  0  0  0  0  0  0  0  0  0
   57.5471   32.1322   46.8730 H   0  0  0  0  0  0  0  0  0  0  0  0
   62.3190   35.0075   48.2648 H   0  0  0  0  0  0  0  0  0  0  0  0
   64.5300   33.8627   48.3803 H   0  0  0  0  0  0  0  0  0  0  0  0
   64.7254   31.4566   47.7660 H   0  0  0  0  0  0  0  0  0  0  0  0
   62.7205   30.1920   47.0022 H   0  0  0  0  0  0  0  0  0  0  0  0
   60.1538   29.7120   48.3935 H   0  0  0  0  0  0  0  0  0  0  0  0
   56.4600   27.5070   46.5130 H   0  0  0  0  0  0  0  0  0  0  0  0
   55.3760   29.1987   43.5503 H   0  0  0  0  0  0  0  0  0  0  0  0
   56.3630   31.2135   42.4837 H   0  0  0  0  0  0  0  0  0  0  0  0
   58.3946   32.2742   43.4512 H   0  0  0  0  0  0  0  0  0  0  0  0
  1  2  1  0
  2  3  1  0
  2  4  1  0
  4  5  2  0
  4  6  1  0
  6  7  1  0
  7  8  2  0
  8  9  1  0
  9 10  2  0
 10 11  1  0
 11 12  2  0
 12 13  1  0
 13 14  2  0
 14 15  1  0
 15 16  2  0
 15 17  1  0
 17 18  2  0
 18 19  1  0
 18 20  1  0
 20 21  2  0
 21 22  1  0
 22 23  2  0
 23 24  1  0
 12  7  1  0
 24 13  1  0
 23 17  1  0
  1 25  1  0
  1 26  1  0
  1 27  1  0
  3 28  1  0
  3 29  1  0
  3 30  1  0
  8 31  1  0
  9 32  1  0
 10 33  1  0
 11 34  1  0
 14 35  1  0
 19 36  1  0
 20 37  1  0
 21 38  1  0
 22 39  1  0
M  END
>  <UniqueID>  (21) 
20

>  <SMILES>  (21) 
CN(C)C(=O)Oc1ccccc1-c1cc(=O)c2c(O)cccc2o1

>  <Energy>  (21) 
57.28921799538608

>  <Genealogy>  (21) 
CN(C)C(=O)Oc1ccccc1-c1cc(=O)c2c(O)cccc2o1 (3D coordinates assigned)
CN(C)C(=O)Oc1ccccc1-c1cc(=O)c2c(O)cccc2o1 (optimized conformer: 57.28921799538608 kcal/mol)

>  <smiles>  (21) 
CN(C)C(=O)Oc1ccccc1-c1cc(=O)c2c(O)cccc2o1

>  <score_type>  (21) 
oracle

>  <origin>  (21) 
adg

>  <m_score__min__energy>  (21) 
-7.6100000000000003

>  <m_primary>  (21) 
energy

$$$$
21:0
     RDKit          3D

 56 60  0  0  0  0  0  0  0  0999 V2000
   65.4110   31.7510   52.0790 C   0  0  0  0  0  0  0  0  0  0  0  0
   65.9060   32.7840   51.1460 N   0  0  0  0  0  0  0  0  0  0  0  0
   65.5430   34.1450   51.6030 C   0  0  0  0  0  0  0  0  0  0  0  0
   64.0210   34.3750   51.5740 C   0  0  0  0  0  0  0  0  0  0  0  0
   63.4170   33.7040   50.4170 N   0  0  0  0  0  0  0  0  0  0  0  0
   62.0080   33.4020   50.4070 C   0  0  0  0  0  0  0  0  0  0  0  0
   61.1540   33.9990   49.4420 C   0  0  0  0  0  0  0  0  0  0  0  0
   59.7810   33.6990   49.4140 C   0  0  0  0  0  0  0  0  0  0  0  0
   59.2910   32.7960   50.3540 C   0  0  0  0  0  0  0  0  0  0  0  0
   58.0230   32.3750   50.4960 N   0  0  0  0  0  0  0  0  0  0  0  0
   58.0340   31.5070   51.5390 C   0  0  0  0  0  0  0  0  0  0  0  0
   56.8320   30.7990   52.0460 C   0  0  0  0  0  0  0  0  0  0  0  0
   55.6050   31.4730   52.1790 C   0  0  0  0  0  0  0  0  0  0  0  0
   54.4750   30.8030   52.6550 C   0  0  0  0  0  0  0  0  0  0  0  0
   54.5410   29.4450   53.0030 C   0  0  0  0  0  0  0  0  0  0  0  0
   53.3440   28.7270   53.5080 C   0  0  0  0  0  0  0  0  0  0  0  0
   53.4890   27.6810   54.1940 O   0  0  0  0  0  0  0  0  0  0  0  0
   52.0170   29.2360   53.3030 N   0  0  0  0  0  0  0  0  0  0  0  0
   51.6840   30.3430   52.6990 C   0  0  0  0  0  0  0  0  0  0  0  0
   51.8140   30.4110   51.3050 C   0  0  0  0  0  0  0  0  0  0  0  0
   51.4690   31.5840   50.6320 C   0  0  0  0  0  0  0  0  0  0  0  0
   51.0200   32.6630   51.3260 N   0  0  0  0  0  0  0  0  0  0  0  0
   50.8960   32.6380   52.6780 C   0  0  0  0  0  0  0  0  0  0  0  0
   51.2300   31.4840   53.3920 C   0  0  0  0  0  0  0  0  0  0  0  0
   55.7690   28.7730   52.8830 C   0  0  0  0  0  0  0  0  0  0  0  0
   56.9020   29.4410   52.4070 C   0  0  0  0  0  0  0  0  0  0  0  0
   59.3270   31.3820   52.0570 C   0  0  0  0  0  0  0  0  0  0  0  0
   60.1070   32.2120   51.2830 C   0  0  0  0  0  0  0  0  0  0  0  0
   61.4710   32.4840   51.3400 C   0  0  0  0  0  0  0  0  0  0  0  0
   64.2770   33.3620   49.2820 C   0  0  0  0  0  0  0  0  0  0  0  0
   65.4730   32.5080   49.7480 C   0  0  0  0  0  0  0  0  0  0  0  0
   65.5712   32.0853   53.1147 H   0  0  0  0  0  0  0  0  0  0  0  0
   64.3367   31.5874   51.9085 H   0  0  0  0  0  0  0  0  0  0  0  0
   65.9566   30.8112   51.9085 H   0  0  0  0  0  0  0  0  0  0  0  0
   66.9520   32.7250   51.1710 H   0  0  0  0  0  0  0  0  0  0  0  0
   65.9035   34.2819   52.6332 H   0  0  0  0  0  0  0  0  0  0  0  0
   66.0097   34.8693   50.9192 H   0  0  0  0  0  0  0  0  0  0  0  0
   63.5774   33.9729   52.4968 H   0  0  0  0  0  0  0  0  0  0  0  0
   63.8279   35.4552   51.4969 H   0  0  0  0  0  0  0  0  0  0  0  0
   61.5717   34.7041   48.7082 H   0  0  0  0  0  0  0  0  0  0  0  0
   59.1142   34.1632   48.6724 H   0  0  0  0  0  0  0  0  0  0  0  0
   57.2040   32.6820   49.9270 H   0  0  0  0  0  0  0  0  0  0  0  0
   55.5342   32.5363   51.9061 H   0  0  0  0  0  0  0  0  0  0  0  0
   53.5237   31.3456   52.7580 H   0  0  0  0  0  0  0  0  0  0  0  0
   52.1870   29.5421   50.7429 H   0  0  0  0  0  0  0  0  0  0  0  0
   51.5607   31.6354   49.5370 H   0  0  0  0  0  0  0  0  0  0  0  0
   50.5319   33.5279   53.2123 H   0  0  0  0  0  0  0  0  0  0  0  0
   51.1393   31.4659   54.4881 H   0  0  0  0  0  0  0  0  0  0  0  0
   55.8400   27.7124   53.1658 H   0  0  0  0  0  0  0  0  0  0  0  0
   57.8554   28.9002   52.3142 H   0  0  0  0  0  0  0  0  0  0  0  0
   59.6512   30.7555   52.9010 H   0  0  0  0  0  0  0  0  0  0  0  0
   62.1134   31.9987   52.0895 H   0  0  0  0  0  0  0  0  0  0  0  0
   63.6925   32.7937   48.5434 H   0  0  0  0  0  0  0  0  0  0  0  0
   64.6574   34.2907   48.8317 H   0  0  0  0  0  0  0  0  0  0  0  0
   65.1895   31.4476   49.6766 H   0  0  0  0  0  0  0  0  0  0  0  0
   66.3207   32.7646   49.0957 H   0  0  0  0  0  0  0  0  0  0  0  0
  1  2  1  0
  2  3  1  0
  3  4  1  0
  4  5  1  0
  5  6  1  0
  6  7  2  0
  7  8  1  0
  8  9  2  0
  9 10  1  0
 10 11  1  0
 11 12  1  0
 12 13  2  0
 13 14  1  0
 14 15  2  0
 15 16  1  0
 16 17  2  0
 16 18  1  0
 18 19  2  3
 19 20  1  0
 20 21  2  0
 21 22  1  0
 22 23  1  0
 23 24  2  0
 15 25  1  0
 25 26  2  0
 11 27  2  0
 27 28  1  0
 28 29  2  0
  5 30  1  0
 30 31  1  0
 31  2  1  0
 29  6  1  0
 28  9  1  0
 26 12  1  0
 24 19  1  0
  1 32  1  0
  1 33  1  0
  1 34  1  0
  2 35  1  0
  3 36  1  0
  3 37  1  0
  4 38  1  0
  4 39  1  0
  7 40  1  0
  8 41  1  0
 10 42  1  0
 13 43  1  0
 14 44  1  0
 20 45  1  0
 21 46  1  0
 23 47  1  0
 24 48  1  0
 25 49  1  0
 26 50  1  0
 27 51  1  0
 29 52  1  0
 30 53  1  0
 30 54  1  0
 31 55  1  0
 31 56  1  0
M  CHG  2   2   1  22  -1
M  END
>  <UniqueID>  (22) 
21

>  <SMILES>  (22) 
C[NH+]1CCN(c2ccc3[nH]c(-c4ccc(C(=O)N=c5cc[n-]cc5)cc4)cc3c2)CC1

>  <Energy>  (22) 
119.48144973554992

>  <Genealogy>  (22) 
C[NH+]1CCN(c2ccc3[nH]c(-c4ccc(C(=O)N=c5cc[n-]cc5)cc4)cc3c2)CC1 (protonated)
C[NH+]1CCN(c2ccc3[nH]c(-c4ccc(C(=O)N=c5cc[n-]cc5)cc4)cc3c2)CC1 (3D coordinates assigned)
C[NH+]1CCN(c2ccc3[nH]c(-c4ccc(C(=O)N=c5cc[n-]cc5)cc4)cc3c2)CC1 (nonaromatic ring conformer: 119.48144973554992 kcal/mol)

>  <smiles>  (22) 
CN1CCN(c2ccc3[nH]c(-c4ccc(C(=O)N=c5cc[nH]cc5)cc4)cc3c2)CC1

>  <score_type>  (22) 
oracle

>  <origin>  (22) 
adg

>  <m_score__min__energy>  (22) 
-9.3499999999999996

>  <m_primary>  (22) 
energy

$$$$
22:0
     RDKit          3D

 38 39  0  0  0  0  0  0  0  0999 V2000
   55.3760   29.7150   43.5840 C   0  0  0  0  0  0  0  0  0  0  0  0
   55.9070   29.4250   44.8720 O   0  0  0  0  0  0  0  0  0  0  0  0
   57.1940   28.9130   45.1110 C   0  0  0  0  0  0  0  0  0  0  0  0
   57.3910   27.6290   45.6600 C   0  0  0  0  0  0  0  0  0  0  0  0
   58.6880   27.1090   45.8360 C   0  0  0  0  0  0  0  0  0  0  0  0
   58.9090   25.7530   46.4110 C   0  0  0  0  0  0  0  0  0  0  0  0
   57.7980   24.9690   47.0450 C   0  0  0  0  0  0  0  0  0  0  0  0
   60.0580   25.2360   46.3710 O   0  0  0  0  0  0  0  0  0  0  0  0
   59.7880   27.8930   45.4490 C   0  0  0  0  0  0  0  0  0  0  0  0
   59.5990   29.1670   44.9150 C   0  0  0  0  0  0  0  0  0  0  0  0
   58.3140   29.6950   44.7670 C   0  0  0  0  0  0  0  0  0  0  0  0
   58.1830   30.9850   44.2360 O   0  0  0  0  0  0  0  0  0  0  0  0
   57.5460   32.0480   44.8890 C   0  0  0  0  0  0  0  0  0  0  0  0
   56.2850   32.1030   44.9200 O   0  0  0  0  0  0  0  0  0  0  0  0
   58.3580   33.0700   45.5920 C   0  0  0  0  0  0  0  0  0  0  0  0
   58.8040   34.1990   44.8800 C   0  0  0  0  0  0  0  0  0  0  0  0
   59.5940   35.1670   45.5040 C   0  0  0  0  0  0  0  0  0  0  0  0
   59.9530   35.0210   46.8430 C   0  0  0  0  0  0  0  0  0  0  0  0
   59.5130   33.9140   47.5720 C   0  0  0  0  0  0  0  0  0  0  0  0
   60.0280   33.7460   49.4080 Br  0  0  0  0  0  0  0  0  0  0  0  0
   58.7040   32.9420   46.9590 C   0  0  0  0  0  0  0  0  0  0  0  0
   58.2450   31.8600   47.7150 O   0  0  0  0  0  0  0  0  0  0  0  0
   59.0680   30.7250   47.9500 C   0  0  0  0  0  0  0  0  0  0  0  0
   54.4153   30.2396   43.6931 H   0  0  0  0  0  0  0  0  0  0  0  0
   56.0816   30.3530   43.0317 H   0  0  0  0  0  0  0  0  0  0  0  0
   55.2206   28.7765   43.0317 H   0  0  0  0  0  0  0  0  0  0  0  0
   56.5199   27.0255   45.9547 H   0  0  0  0  0  0  0  0  0  0  0  0
   57.8846   25.0301   48.1399 H   0  0  0  0  0  0  0  0  0  0  0  0
   56.8296   25.3849   46.7300 H   0  0  0  0  0  0  0  0  0  0  0  0
   57.8653   23.9172   46.7300 H   0  0  0  0  0  0  0  0  0  0  0  0
   60.8076   27.4980   45.5684 H   0  0  0  0  0  0  0  0  0  0  0  0
   60.4709   29.7627   44.6070 H   0  0  0  0  0  0  0  0  0  0  0  0
   58.5278   34.3202   43.8222 H   0  0  0  0  0  0  0  0  0  0  0  0
   59.9337   36.0466   44.9376 H   0  0  0  0  0  0  0  0  0  0  0  0
   60.5849   35.7802   47.3270 H   0  0  0  0  0  0  0  0  0  0  0  0
   59.1796   30.5710   49.0334 H   0  0  0  0  0  0  0  0  0  0  0  0
   58.6035   29.8356   47.4992 H   0  0  0  0  0  0  0  0  0  0  0  0
   60.0577   30.8901   47.4992 H   0  0  0  0  0  0  0  0  0  0  0  0
  1  2  1  0
  2  3  1  0
  3  4  2  0
  4  5  1  0
  5  6  1  0
  6  7  1  0
  6  8  2  0
  5  9  2  0
  9 10  1  0
 10 11  2  0
 11 12  1  0
 12 13  1  0
 13 14  2  0
 13 15  1  0
 15 16  2  0
 16 17  1  0
 17 18  2  0
 18 19  1  0
 19 20  1  0
 19 21  2  0
 21 22  1  0
 22 23  1  0
 11  3  1  0
 21 15  1  0
  1 24  1  0
  1 25  1  0
  1 26  1  0
  4 27  1  0
  7 28  1  0
  7 29  1  0
  7 30  1  0
  9 31  1  0
 10 32  1  0
 16 33  1  0
 17 34  1  0
 18 35  1  0
 23 36  1  0
 23 37  1  0
 23 38  1  0
M  END
>  <UniqueID>  (23) 
22

>  <SMILES>  (23) 
COc1cc(C(C)=O)ccc1OC(=O)c1cccc(Br)c1OC

>  <Energy>  (23) 
52.43052641922875

>  <Genealogy>  (23) 
COc1cc(C(C)=O)ccc1OC(=O)c1cccc(Br)c1OC (3D coordinates assigned)
COc1cc(C(C)=O)ccc1OC(=O)c1cccc(Br)c1OC (optimized conformer: 52.43052641922875 kcal/mol)

>  <smiles>  (23) 
COc1cc(C(C)=O)ccc1OC(=O)c1cccc(Br)c1OC

>  <score_type>  (23) 
oracle

>  <origin>  (23) 
adg

>  <m_score__min__energy>  (23) 
-7.4299999999999997

>  <m_primary>  (23) 
energy

$$$$
23:0
     RDKit          3D

 27 28  0  0  0  0  0  0  0  0999 V2000
   58.2600   32.1640   41.2010 H   0  0  0  0  0  0  0  0  0  0  0  0
   57.3360   31.8630   41.5830 N   0  0  0  0  0  0  0  0  0  0  0  0
   57.2240   31.3550   42.7700 C   0  0  0  0  0  0  0  0  0  0  0  0
   56.1300   30.4780   43.0760 N   0  0  0  0  0  0  0  0  0  0  0  0
   55.3590   30.3370   42.3840 H   0  0  0  0  0  0  0  0  0  0  0  0
   56.1180   29.7420   44.3000 C   0  0  0  0  0  0  0  0  0  0  0  0
   55.1400   29.0040   44.5860 O   0  0  0  0  0  0  0  0  0  0  0  0
   57.2360   29.8160   45.1810 N   0  0  0  0  0  0  0  0  0  0  0  0
   58.3200   30.7050   44.9060 C   0  0  0  0  0  0  0  0  0  0  0  0
   59.3750   30.6200   45.5890 O   0  0  0  0  0  0  0  0  0  0  0  0
   58.1930   31.7780   43.8490 C   0  0  2  0  0  0  0  0  0  0  0  0
   59.1873   31.9258   43.4024 H   0  0  0  0  0  0  0  0  0  0  0  0
   57.7170   33.1060   44.4720 C   0  0  0  0  0  0  0  0  0  0  0  0
   57.9273   33.9239   43.7672 H   0  0  0  0  0  0  0  0  0  0  0  0
   56.6389   33.0190   44.6723 H   0  0  0  0  0  0  0  0  0  0  0  0
   58.4100   33.4000   45.7790 C   0  0  0  0  0  0  0  0  0  0  0  0
   59.5610   34.2050   45.8100 C   0  0  0  0  0  0  0  0  0  0  0  0
   59.9732   34.6084   44.8733 H   0  0  0  0  0  0  0  0  0  0  0  0
   60.1840   34.4950   47.0270 C   0  0  0  0  0  0  0  0  0  0  0  0
   61.0861   35.1241   47.0453 H   0  0  0  0  0  0  0  0  0  0  0  0
   59.6640   33.9880   48.2200 C   0  0  0  0  0  0  0  0  0  0  0  0
   60.1588   34.2158   49.1756 H   0  0  0  0  0  0  0  0  0  0  0  0
   58.5120   33.1890   48.2010 C   0  0  0  0  0  0  0  0  0  0  0  0
   57.9810   32.6810   49.3840 O   0  0  0  0  0  0  0  0  0  0  0  0
   56.9860   32.7120   49.5730 H   0  0  0  0  0  0  0  0  0  0  0  0
   57.8880   32.8990   46.9830 C   0  0  0  0  0  0  0  0  0  0  0  0
   56.9826   32.2745   46.9680 H   0  0  0  0  0  0  0  0  0  0  0  0
  1  2  1  0
  2  3  2  0
  3  4  1  0
  4  5  1  0
  4  6  1  0
  6  7  2  0
  6  8  1  0
  8  9  1  0
  9 10  2  0
  9 11  1  0
 11 12  1  6
 11 13  1  0
 13 14  1  0
 13 15  1  0
 13 16  1  0
 16 17  2  0
 17 18  1  0
 17 19  1  0
 19 20  1  0
 19 21  2  0
 21 22  1  0
 21 23  1  0
 23 24  1  0
 24 25  1  0
 23 26  2  0
 26 27  1  0
 11  3  1  0
 26 16  1  0
M  CHG  1   8  -1
M  END
>  <UniqueID>  (24) 
23

>  <SMILES>  (24) 
[H]/N=C1\NC(=O)[N-]C(=O)[C@@H]1Cc1cccc(O)c1

>  <Energy>  (24) 
22.7883365670473

>  <Genealogy>  (24) 
N=C1NC(=O)[N-]C(=O)C1Cc1cccc(O)c1 (protonated)
N=C1NC(=O)[N-]C(=O)[C@@H]1Cc1cccc(O)c1 (chirality)
[H]/N=C1\NC(=O)[N-]C(=O)[C@@H]1Cc1cccc(O)c1 (cis-trans isomerization)
[H]/N=C1\NC(=O)[N-]C(=O)[C@@H]1Cc1cccc(O)c1 (3D coordinates assigned)
[H]/N=C1\NC(=O)[N-]C(=O)[C@@H]1Cc1cccc(O)c1 (nonaromatic ring conformer: 22.7883365670473 kcal/mol)

>  <smiles>  (24) 
N=C1NC(=O)NC(=O)C1Cc1cccc(O)c1

>  <score_type>  (24) 
oracle

>  <origin>  (24) 
adg

>  <m_score__min__energy>  (24) 
-8.8200000000000003

>  <m_primary>  (24) 
energy

$$$$
24:0
     RDKit          3D

 81 85  0  0  0  0  0  0  0  0999 V2000
   61.0505   35.0078   47.8850 H   0  0  0  0  0  0  0  0  0  0  0  0
   60.2330   34.5800   47.2860 C   0  0  0  0  0  0  0  0  0  0  0  0
   60.4350   34.2940   45.9320 C   0  0  0  0  0  0  0  0  0  0  0  0
   61.4105   34.4996   45.4670 H   0  0  0  0  0  0  0  0  0  0  0  0
   59.3990   33.7470   45.1680 C   0  0  0  0  0  0  0  0  0  0  0  0
   59.5597   33.5279   44.1021 H   0  0  0  0  0  0  0  0  0  0  0  0
   58.1540   33.4770   45.7590 C   0  0  0  0  0  0  0  0  0  0  0  0
   57.0260   32.9240   44.9340 C   0  0  0  0  0  0  0  0  0  0  0  0
   56.8411   33.5879   44.0767 H   0  0  0  0  0  0  0  0  0  0  0  0
   56.1203   32.8589   45.5548 H   0  0  0  0  0  0  0  0  0  0  0  0
   57.3850   31.5510   44.4340 C   0  0  0  0  0  0  0  0  0  0  0  0
   57.8260   31.4190   43.2630 O   0  0  0  0  0  0  0  0  0  0  0  0
   57.1230   30.3770   45.2120 N   0  0  0  0  0  0  0  0  0  0  0  0
   57.9570   29.8740   46.2630 C   0  0  0  0  0  0  0  0  0  0  0  0
   58.5490   30.7730   47.1570 C   0  0  0  0  0  0  0  0  0  0  0  0
   58.3827   31.8537   47.0372 H   0  0  0  0  0  0  0  0  0  0  0  0
   59.3510   30.3040   48.2020 C   0  0  0  0  0  0  0  0  0  0  0  0
   59.8195   31.0178   48.8955 H   0  0  0  0  0  0  0  0  0  0  0  0
   59.5610   28.9260   48.3700 C   0  0  0  0  0  0  0  0  0  0  0  0
   60.4040   28.4130   49.5060 C   0  0  0  0  0  0  0  0  0  0  0  0
   61.4650   28.4685   49.2209 H   0  0  0  0  0  0  0  0  0  0  0  0
   60.1166   27.3720   49.7150 H   0  0  0  0  0  0  0  0  0  0  0  0
   60.1810   29.2440   50.7680 C   0  0  0  0  0  0  0  0  0  0  0  0
   60.3928   30.3017   50.5528 H   0  0  0  0  0  0  0  0  0  0  0  0
   60.8531   28.8902   51.5637 H   0  0  0  0  0  0  0  0  0  0  0  0
   58.7940   29.1040   51.2040 N   0  0  0  0  0  0  0  0  0  0  0  0
   58.0180   30.1010   51.4970 C   0  0  0  0  0  0  0  0  0  0  0  0
   56.6780   29.9280   51.6430 N   0  0  0  0  0  0  0  0  0  0  0  0
   55.8720   30.9790   51.9520 C   0  0  0  0  0  0  0  0  0  0  0  0
   54.4480   30.7850   52.0980 N   0  0  0  0  0  0  0  0  0  0  0  0
   53.9300   30.1780   53.3370 C   0  0  0  0  0  0  0  0  0  0  0  0
   54.5419   29.2978   53.5837 H   0  0  0  0  0  0  0  0  0  0  0  0
   53.9819   30.9353   54.1332 H   0  0  0  0  0  0  0  0  0  0  0  0
   52.4610   29.7380   53.1950 C   0  0  2  0  0  0  0  0  0  0  0  0
   52.0961   29.4327   54.1868 H   0  0  0  0  0  0  0  0  0  0  0  0
   52.3550   28.5940   52.2850 N   0  0  0  0  0  0  0  0  0  0  0  0
   53.2360   28.0320   52.3560 H   0  0  0  0  0  0  0  0  0  0  0  0
   52.3270   28.9530   51.3030 H   0  0  0  0  0  0  0  0  0  0  0  0
   51.5840   30.9060   52.6970 C   0  0  0  0  0  0  0  0  0  0  0  0
   50.6427   30.4894   52.3091 H   0  0  0  0  0  0  0  0  0  0  0  0
   51.4322   31.5755   53.5565 H   0  0  0  0  0  0  0  0  0  0  0  0
   52.2360   31.7600   51.5770 C   0  0  2  0  0  0  0  0  0  0  0  0
   52.5385   32.7120   52.0376 H   0  0  0  0  0  0  0  0  0  0  0  0
   51.2670   32.0260   50.5110 N   0  0  0  0  0  0  0  0  0  0  0  0
   51.7650   32.0230   49.5900 H   0  0  0  0  0  0  0  0  0  0  0  0
   50.5650   31.2500   50.4870 H   0  0  0  0  0  0  0  0  0  0  0  0
   53.5230   31.1310   51.0070 C   0  0  0  0  0  0  0  0  0  0  0  0
   53.2647   30.2199   50.4474 H   0  0  0  0  0  0  0  0  0  0  0  0
   54.0113   31.8567   50.3400 H   0  0  0  0  0  0  0  0  0  0  0  0
   56.4260   32.2080   52.1270 N   0  0  0  0  0  0  0  0  0  0  0  0
   57.7640   32.3890   51.9930 C   0  0  0  0  0  0  0  0  0  0  0  0
   58.2730   33.5670   52.1990 N   0  0  0  0  0  0  0  0  0  0  0  0
   59.7070   33.8400   52.2310 C   0  0  0  0  0  0  0  0  0  0  0  0
   59.8743   34.8853   52.5300 H   0  0  0  0  0  0  0  0  0  0  0  0
   60.1912   33.1685   52.9553 H   0  0  0  0  0  0  0  0  0  0  0  0
   60.3030   33.6060   50.8440 C   0  0  0  0  0  0  0  0  0  0  0  0
   59.5571   33.0997   50.2137 H   0  0  0  0  0  0  0  0  0  0  0  0
   60.5771   34.5805   50.4136 H   0  0  0  0  0  0  0  0  0  0  0  0
   61.5650   32.7370   50.9220 C   0  0  0  0  0  0  0  0  0  0  0  0
   62.2428   33.1500   51.6836 H   0  0  0  0  0  0  0  0  0  0  0  0
   61.2749   31.7104   51.1904 H   0  0  0  0  0  0  0  0  0  0  0  0
   62.2700   32.7130   49.5910 C   0  0  0  0  0  0  0  0  0  0  0  0
   62.1590   31.5920   48.7520 C   0  0  0  0  0  0  0  0  0  0  0  0
   61.5904   30.7115   49.0857 H   0  0  0  0  0  0  0  0  0  0  0  0
   62.7690   31.5920   47.4940 C   0  0  0  0  0  0  0  0  0  0  0  0
   62.6828   30.7101   46.8422 H   0  0  0  0  0  0  0  0  0  0  0  0
   63.4880   32.7100   47.0630 C   0  0  0  0  0  0  0  0  0  0  0  0
   63.9677   32.7070   46.0731 H   0  0  0  0  0  0  0  0  0  0  0  0
   63.5980   33.8320   47.8890 C   0  0  0  0  0  0  0  0  0  0  0  0
   64.1664   34.7105   47.5496 H   0  0  0  0  0  0  0  0  0  0  0  0
   62.9860   33.8390   49.1470 C   0  0  0  0  0  0  0  0  0  0  0  0
   63.0651   34.7276   49.7905 H   0  0  0  0  0  0  0  0  0  0  0  0
   58.5560   31.3330   51.6710 N   0  0  0  0  0  0  0  0  0  0  0  0
   58.9290   28.0230   47.5000 C   0  0  0  0  0  0  0  0  0  0  0  0
   59.0646   26.9406   47.6413 H   0  0  0  0  0  0  0  0  0  0  0  0
   58.1290   28.4930   46.4560 C   0  0  0  0  0  0  0  0  0  0  0  0
   57.6318   27.7794   45.7825 H   0  0  0  0  0  0  0  0  0  0  0  0
   57.9540   33.7780   47.1190 C   0  0  0  0  0  0  0  0  0  0  0  0
   56.9770   33.5841   47.5857 H   0  0  0  0  0  0  0  0  0  0  0  0
   58.9940   34.3230   47.8790 C   0  0  0  0  0  0  0  0  0  0  0  0
   58.8366   34.5494   48.9439 H   0  0  0  0  0  0  0  0  0  0  0  0
  1  2  1  0
  2  3  2  0
  3  4  1  0
  3  5  1  0
  5  6  1  0
  5  7  2  0
  7  8  1  0
  8  9  1  0
  8 10  1  0
  8 11  1  0
 11 12  2  0
 11 13  1  0
 13 14  1  0
 14 15  2  0
 15 16  1  0
 15 17  1  0
 17 18  1  0
 17 19  2  0
 19 20  1  0
 20 21  1  0
 20 22  1  0
 20 23  1  0
 23 24  1  0
 23 25  1  0
 23 26  1  0
 26 27  2  3
 27 28  1  0
 28 29  1  0
 29 30  1  0
 30 31  1  0
 31 32  1  0
 31 33  1  0
 31 34  1  0
 34 35  1  1
 34 36  1  0
 36 37  1  0
 36 38  1  0
 34 39  1  0
 39 40  1  0
 39 41  1  0
 39 42  1  0
 42 43  1  1
 42 44  1  0
 44 45  1  0
 44 46  1  0
 42 47  1  0
 47 48  1  0
 47 49  1  0
 29 50  2  0
 50 51  1  0
 51 52  2  0
 52 53  1  0
 53 54  1  0
 53 55  1  0
 53 56  1  0
 56 57  1  0
 56 58  1  0
 56 59  1  0
 59 60  1  0
 59 61  1  0
 59 62  1  0
 62 63  2  0
 63 64  1  0
 63 65  1  0
 65 66  1  0
 65 67  2  0
 67 68  1  0
 67 69  1  0
 69 70  1  0
 69 71  2  0
 71 72  1  0
 51 73  1  0
 19 74  1  0
 74 75  1  0
 74 76  2  0
 76 77  1  0
  7 78  1  0
 78 79  1  0
 78 80  2  0
 80 81  1  0
 80  2  1  0
 76 14  1  0
 73 27  1  0
 47 30  1  0
 71 62  1  0
M  CHG  3  13  -1  28  -1  73  -1
M  END
>  <UniqueID>  (25) 
24

>  <SMILES>  (25) 
N[C@@H]1C[C@H](N)CN(c2n/c(=N/CCCc3ccccc3)[n-]c(=NCCc3ccc([N-]C(=O)Cc4ccccc4)cc3)[n-]2)C1

>  <Energy>  (25) 
83.56055603315598

>  <Genealogy>  (25) 
NC1CC(N)CN(c2nc(=NCCCc3ccccc3)[n-]c(=NCCc3ccc([N-]C(=O)Cc4ccccc4)cc3)[n-]2)C1 (protonated)
N[C@@H]1C[C@H](N)CN(c2nc(=NCCCc3ccccc3)[n-]c(=NCCc3ccc([N-]C(=O)Cc4ccccc4)cc3)[n-]2)C1 (chirality)
N[C@@H]1C[C@H](N)CN(c2n/c(=N/CCCc3ccccc3)[n-]c(=NCCc3ccc([N-]C(=O)Cc4ccccc4)cc3)[n-]2)C1 (cis-trans isomerization)
N[C@@H]1C[C@H](N)CN(c2n/c(=N/CCCc3ccccc3)[n-]c(=NCCc3ccc([N-]C(=O)Cc4ccccc4)cc3)[n-]2)C1 (3D coordinates assigned)
N[C@@H]1C[C@H](N)CN(c2n/c(=N/CCCc3ccccc3)[n-]c(=NCCc3ccc([N-]C(=O)Cc4ccccc4)cc3)[n-]2)C1 (nonaromatic ring conformer: 83.56055603315598 kcal/mol)

>  <smiles>  (25) 
NC1CC(N)CN(c2nc(=NCCCc3ccccc3)[nH]c(=NCCc3ccc(NC(=O)Cc4ccccc4)cc3)[nH]2)C1

>  <score_type>  (25) 
oracle

>  <origin>  (25) 
adg

>  <m_score__min__energy>  (25) 
-15

>  <m_primary>  (25) 
energy

$$$$
25:0
     RDKit          3D

 60 63  0  0  0  0  0  0  0  0999 V2000
   57.4060   31.0560   51.5860 C   0  0  0  0  0  0  0  0  0  0  0  0
   58.3940   31.9970   50.9630 C   0  0  0  0  0  0  0  0  0  0  0  0
   59.4770   32.4790   51.7120 C   0  0  0  0  0  0  0  0  0  0  0  0
   60.4190   33.3290   51.1240 C   0  0  0  0  0  0  0  0  0  0  0  0
   60.2920   33.7020   49.7760 C   0  0  0  0  0  0  0  0  0  0  0  0
   61.3250   34.5930   49.1350 C   0  0  0  0  0  0  0  0  0  0  0  0
   62.6590   34.5310   49.8790 C   0  0  0  0  0  0  0  0  0  0  0  0
   63.3750   33.3000   49.5450 N   0  0  0  0  0  0  0  0  0  0  0  0
   63.1510   32.4940   48.3810 C   0  0  0  0  0  0  0  0  0  0  0  0
   63.9200   32.6340   47.3940 O   0  0  0  0  0  0  0  0  0  0  0  0
   62.0670   31.4870   48.3150 C   0  0  0  0  0  0  0  0  0  0  0  0
   61.9910   30.4840   49.2890 C   0  0  0  0  0  0  0  0  0  0  0  0
   61.0150   29.5260   49.2530 N   0  0  0  0  0  0  0  0  0  0  0  0
   61.0010   28.5150   50.3230 C   0  0  0  0  0  0  0  0  0  0  0  0
   60.0830   29.5160   48.2360 C   0  0  0  0  0  0  0  0  0  0  0  0
   59.0650   28.5360   48.1700 C   0  0  0  0  0  0  0  0  0  0  0  0
   58.1330   28.5390   47.1320 C   0  0  0  0  0  0  0  0  0  0  0  0
   58.1880   29.5150   46.1350 C   0  0  0  0  0  0  0  0  0  0  0  0
   57.0160   29.5290   44.8210 S   0  0  0  0  0  0  0  0  0  0  0  0
   55.7960   28.7420   45.2100 O   0  0  0  0  0  0  0  0  0  0  0  0
   57.6440   28.9170   43.6010 O   0  0  0  0  0  0  0  0  0  0  0  0
   56.5610   31.1700   44.4980 N   0  0  0  0  0  0  0  0  0  0  0  0
   57.3160   32.3280   44.8820 C   0  0  0  0  0  0  0  0  0  0  0  0
   57.0360   33.0480   46.0580 C   0  0  0  0  0  0  0  0  0  0  0  0
   57.8000   34.1680   46.3960 C   0  0  0  0  0  0  0  0  0  0  0  0
   58.8430   34.5930   45.5610 C   0  0  0  0  0  0  0  0  0  0  0  0
   59.6870   35.7730   45.9450 C   0  0  0  0  0  0  0  0  0  0  0  0
   59.1340   33.8640   44.3990 C   0  0  0  0  0  0  0  0  0  0  0  0
   58.3690   32.7440   44.0600 C   0  0  0  0  0  0  0  0  0  0  0  0
   59.1850   30.4930   46.1790 C   0  0  0  0  0  0  0  0  0  0  0  0
   60.1350   30.5060   47.2190 C   0  0  0  0  0  0  0  0  0  0  0  0
   61.1380   31.4890   47.2670 C   0  0  0  0  0  0  0  0  0  0  0  0
   61.1990   32.3820   46.3760 O   0  0  0  0  0  0  0  0  0  0  0  0
   59.2230   33.1950   49.0200 C   0  0  0  0  0  0  0  0  0  0  0  0
   58.2820   32.3450   49.6090 C   0  0  0  0  0  0  0  0  0  0  0  0
   57.4764   31.1231   52.6817 H   0  0  0  0  0  0  0  0  0  0  0  0
   56.3891   31.3278   51.2666 H   0  0  0  0  0  0  0  0  0  0  0  0
   57.6279   30.0271   51.2666 H   0  0  0  0  0  0  0  0  0  0  0  0
   59.5861   32.1872   52.7670 H   0  0  0  0  0  0  0  0  0  0  0  0
   61.2629   33.7070   51.7197 H   0  0  0  0  0  0  0  0  0  0  0  0
   61.4804   34.2692   48.0953 H   0  0  0  0  0  0  0  0  0  0  0  0
   60.9574   35.6291   49.1722 H   0  0  0  0  0  0  0  0  0  0  0  0
   63.2740   35.3967   49.5922 H   0  0  0  0  0  0  0  0  0  0  0  0
   62.4638   34.5465   50.9614 H   0  0  0  0  0  0  0  0  0  0  0  0
   62.7326   30.4659   50.1012 H   0  0  0  0  0  0  0  0  0  0  0  0
   61.0079   29.0169   51.3018 H   0  0  0  0  0  0  0  0  0  0  0  0
   60.0942   27.8988   50.2334 H   0  0  0  0  0  0  0  0  0  0  0  0
   61.8904   27.8739   50.2334 H   0  0  0  0  0  0  0  0  0  0  0  0
   59.0075   27.7606   48.9481 H   0  0  0  0  0  0  0  0  0  0  0  0
   57.3497   27.7674   47.0987 H   0  0  0  0  0  0  0  0  0  0  0  0
   56.2127   32.7280   46.7136 H   0  0  0  0  0  0  0  0  0  0  0  0
   57.5819   34.7194   47.3225 H   0  0  0  0  0  0  0  0  0  0  0  0
   59.7388   35.8455   47.0414 H   0  0  0  0  0  0  0  0  0  0  0  0
   60.7009   35.6467   45.5375 H   0  0  0  0  0  0  0  0  0  0  0  0
   59.2399   36.6917   45.5375 H   0  0  0  0  0  0  0  0  0  0  0  0
   59.9674   34.1746   43.7517 H   0  0  0  0  0  0  0  0  0  0  0  0
   58.5967   32.1856   43.1400 H   0  0  0  0  0  0  0  0  0  0  0  0
   59.2285   31.2612   45.3929 H   0  0  0  0  0  0  0  0  0  0  0  0
   59.1253   33.4679   47.9589 H   0  0  0  0  0  0  0  0  0  0  0  0
   57.4507   31.9477   49.0081 H   0  0  0  0  0  0  0  0  0  0  0  0
  1  2  1  0
  2  3  2  0
  3  4  1  0
  4  5  2  0
  5  6  1  0
  6  7  1  0
  7  8  1  0
  8  9  1  0
  9 10  2  0
  9 11  1  0
 11 12  2  0
 12 13  1  0
 13 14  1  0
 13 15  1  0
 15 16  2  0
 16 17  1  0
 17 18  2  0
 18 19  1  0
 19 20  2  0
 19 21  2  0
 19 22  1  0
 22 23  1  0
 23 24  2  0
 24 25  1  0
 25 26  2  0
 26 27  1  0
 26 28  1  0
 28 29  2  0
 18 30  1  0
 30 31  2  0
 31 32  1  0
 32 33  2  0
  5 34  1  0
 34 35  2  0
 35  2  1  0
 32 11  1  0
 31 15  1  0
 29 23  1  0
  1 36  1  0
  1 37  1  0
  1 38  1  0
  3 39  1  0
  4 40  1  0
  6 41  1  0
  6 42  1  0
  7 43  1  0
  7 44  1  0
 12 45  1  0
 14 46  1  0
 14 47  1  0
 14 48  1  0
 16 49  1  0
 17 50  1  0
 24 51  1  0
 25 52  1  0
 27 53  1  0
 27 54  1  0
 27 55  1  0
 28 56  1  0
 29 57  1  0
 30 58  1  0
 34 59  1  0
 35 60  1  0
M  CHG  2   8  -1  22  -1
M  END
>  <UniqueID>  (26) 
25

>  <SMILES>  (26) 
Cc1ccc(CC[N-]C(=O)c2cn(C)c3ccc(S(=O)(=O)[N-]c4ccc(C)cc4)cc3c2=O)cc1

>  <Energy>  (26) 
80.00965060131091

>  <Genealogy>  (26) 
Cc1ccc(CC[N-]C(=O)c2cn(C)c3ccc(S(=O)(=O)[N-]c4ccc(C)cc4)cc3c2=O)cc1 (protonated)
Cc1ccc(CC[N-]C(=O)c2cn(C)c3ccc(S(=O)(=O)[N-]c4ccc(C)cc4)cc3c2=O)cc1 (3D coordinates assigned)
Cc1ccc(CC[N-]C(=O)c2cn(C)c3ccc(S(=O)(=O)[N-]c4ccc(C)cc4)cc3c2=O)cc1 (optimized conformer: 80.00965060131091 kcal/mol)

>  <smiles>  (26) 
Cc1ccc(CCNC(=O)c2cn(C)c3ccc(S(=O)(=O)Nc4ccc(C)cc4)cc3c2=O)cc1

>  <score_type>  (26) 
oracle

>  <origin>  (26) 
adg

>  <m_score__min__energy>  (26) 
-12.26

>  <m_primary>  (26) 
energy

$$$$
26:0
     RDKit          3D

 56 58  0  0  0  0  0  0  0  0999 V2000
   59.7706   35.1482   48.5684 H   0  0  0  0  0  0  0  0  0  0  0  0
   60.2750   34.5440   47.8000 C   0  0  0  0  0  0  0  0  0  0  0  0
   59.6450   34.3650   46.6310 C   0  0  0  0  0  0  0  0  0  0  0  0
   59.6147   35.1936   45.9082 H   0  0  0  0  0  0  0  0  0  0  0  0
   58.9900   33.0870   46.2850 C   0  0  0  0  0  0  0  0  0  0  0  0
   59.5990   31.9520   46.6980 N   0  0  0  0  0  0  0  0  0  0  0  0
   59.1480   30.7140   46.3740 C   0  0  0  0  0  0  0  0  0  0  0  0
   59.8030   29.6600   46.7720 N   0  0  0  0  0  0  0  0  0  0  0  0
   59.8500   29.0740   48.4080 S   0  0  0  0  0  0  0  0  0  0  0  0
   61.1160   28.2900   48.6130 O   0  0  0  0  0  0  0  0  0  0  0  0
   58.6800   28.1570   48.6340 O   0  0  0  0  0  0  0  0  0  0  0  0
   59.8200   30.3970   49.5780 C   0  0  0  0  0  0  0  0  0  0  0  0
   60.9460   30.6600   50.3690 C   0  0  0  0  0  0  0  0  0  0  0  0
   61.8320   30.0127   50.2923 H   0  0  0  0  0  0  0  0  0  0  0  0
   60.9490   31.7420   51.2560 C   0  0  0  0  0  0  0  0  0  0  0  0
   61.8381   31.9399   51.8727 H   0  0  0  0  0  0  0  0  0  0  0  0
   59.8230   32.5790   51.3650 C   0  0  0  0  0  0  0  0  0  0  0  0
   59.8210   33.6950   52.2770 N   0  0  0  0  0  0  0  0  0  0  0  0
   58.8560   34.4890   52.3080 O   0  0  0  0  0  0  0  0  0  0  0  0
   60.8750   33.8940   53.1400 O   0  0  0  0  0  0  0  0  0  0  0  0
   58.6970   32.3090   50.5700 C   0  0  0  0  0  0  0  0  0  0  0  0
   57.8085   32.9530   50.6462 H   0  0  0  0  0  0  0  0  0  0  0  0
   58.6960   31.2290   49.6830 C   0  0  0  0  0  0  0  0  0  0  0  0
   57.8087   31.0305   49.0638 H   0  0  0  0  0  0  0  0  0  0  0  0
   58.0090   30.5830   45.6170 N   0  0  0  0  0  0  0  0  0  0  0  0
   57.5170   29.2720   45.2650 C   0  0  0  0  0  0  0  0  0  0  0  0
   57.0220   29.0760   44.1210 O   0  0  0  0  0  0  0  0  0  0  0  0
   57.6090   28.1890   46.2020 N   0  0  0  0  0  0  0  0  0  0  0  0
   58.1040   28.3540   47.1080 H   0  0  0  0  0  0  0  0  0  0  0  0
   57.0930   26.8550   45.8890 C   0  0  0  0  0  0  0  0  0  0  0  0
   56.7063   26.8509   44.8592 H   0  0  0  0  0  0  0  0  0  0  0  0
   56.2908   26.6122   46.6015 H   0  0  0  0  0  0  0  0  0  0  0  0
   58.1960   25.7990   46.0150 C   0  0  0  0  0  0  0  0  0  0  0  0
   58.1444   25.1219   45.1496 H   0  0  0  0  0  0  0  0  0  0  0  0
   58.0407   25.2449   46.9525 H   0  0  0  0  0  0  0  0  0  0  0  0
   59.5810   26.4450   46.0600 C   0  0  0  0  0  0  0  0  0  0  0  0
   59.8855   26.5870   47.1074 H   0  0  0  0  0  0  0  0  0  0  0  0
   60.3066   25.7924   45.5525 H   0  0  0  0  0  0  0  0  0  0  0  0
   59.5473   27.4203   45.5525 H   0  0  0  0  0  0  0  0  0  0  0  0
   57.3350   31.7030   45.1990 C   0  0  0  0  0  0  0  0  0  0  0  0
   56.3000   31.5860   44.4840 O   0  0  0  0  0  0  0  0  0  0  0  0
   57.7910   32.9910   45.5450 C   0  0  0  0  0  0  0  0  0  0  0  0
   57.0200   34.2180   45.1150 C   0  0  0  0  0  0  0  0  0  0  0  0
   56.6760   34.7654   46.0049 H   0  0  0  0  0  0  0  0  0  0  0  0
   57.6719   34.8686   44.5136 H   0  0  0  0  0  0  0  0  0  0  0  0
   56.1510   33.9129   44.5136 H   0  0  0  0  0  0  0  0  0  0  0  0
   61.6050   33.9820   48.1250 C   0  0  0  0  0  0  0  0  0  0  0  0
   62.1110   34.2130   49.3690 N   0  0  0  0  0  0  0  0  0  0  0  0
   63.3260   33.7460   49.7580 C   0  0  0  0  0  0  0  0  0  0  0  0
   63.6930   33.9487   50.7750 H   0  0  0  0  0  0  0  0  0  0  0  0
   64.1080   33.0100   48.8690 C   0  0  0  0  0  0  0  0  0  0  0  0
   65.0915   32.6269   49.1789 H   0  0  0  0  0  0  0  0  0  0  0  0
   63.6290   32.7650   47.5820 C   0  0  0  0  0  0  0  0  0  0  0  0
   64.2384   32.1919   46.8677 H   0  0  0  0  0  0  0  0  0  0  0  0
   62.3750   33.2480   47.2010 C   0  0  0  0  0  0  0  0  0  0  0  0
   61.9917   33.0569   46.1878 H   0  0  0  0  0  0  0  0  0  0  0  0
  1  2  1  0
  2  3  2  3
  3  4  1  0
  3  5  1  0
  5  6  1  0
  6  7  1  0
  7  8  2  0
  8  9  1  0
  9 10  2  0
  9 11  2  0
  9 12  1  0
 12 13  2  0
 13 14  1  0
 13 15  1  0
 15 16  1  0
 15 17  2  0
 17 18  1  0
 18 19  2  0
 18 20  1  0
 17 21  1  0
 21 22  1  0
 21 23  2  0
 23 24  1  0
  7 25  1  0
 25 26  1  0
 26 27  2  0
 26 28  1  0
 28 29  1  0
 28 30  1  0
 30 31  1  0
 30 32  1  0
 30 33  1  0
 33 34  1  0
 33 35  1  0
 33 36  1  0
 36 37  1  0
 36 38  1  0
 36 39  1  0
 25 40  1  0
 40 41  2  0
 40 42  1  0
 42 43  1  0
 43 44  1  0
 43 45  1  0
 43 46  1  0
  2 47  1  0
 47 48  2  0
 48 49  1  0
 49 50  1  0
 49 51  2  0
 51 52  1  0
 51 53  1  0
 53 54  1  0
 53 55  2  0
 55 56  1  0
 42  5  2  0
 55 47  1  0
 23 12  1  0
M  CHG  3   6  -1  18   1  20  -1
M  END
>  <UniqueID>  (27) 
26

>  <SMILES>  (27) 
CCCNC(=O)n1c(=O)c(C)c(C=Cc2ccccn2)[n-]/c1=N\S(=O)(=O)c1ccc([N+](=O)[O-])cc1

>  <Energy>  (27) 
72.67655500012967

>  <Genealogy>  (27) 
CCCNC(=O)n1c(=NS(=O)(=O)c2ccc([N+](=O)[O-])cc2)[n-]c(C=Cc2ccccn2)c(C)c1=O (protonated)
CCCNC(=O)n1c(=O)c(C)c(C=Cc2ccccn2)[n-]/c1=N\S(=O)(=O)c1ccc([N+](=O)[O-])cc1 (cis-trans isomerization)
CCCNC(=O)n1c(=O)c(C)c(C=Cc2ccccn2)[n-]/c1=N\S(=O)(=O)c1ccc([N+](=O)[O-])cc1 (3D coordinates assigned)
CCCNC(=O)n1c(=O)c(C)c(C=Cc2ccccn2)[n-]/c1=N\S(=O)(=O)c1ccc([N+](=O)[O-])cc1 (optimized conformer: 72.67655500012967 kcal/mol)

>  <smiles>  (27) 
CCCNC(=O)n1c(=NS(=O)(=O)c2ccc([N+](=O)[O-])cc2)[nH]c(C=Cc2ccccn2)c(C)c1=O

>  <score_type>  (27) 
oracle

>  <origin>  (27) 
adg

>  <m_score__min__energy>  (27) 
-11.720000000000001

>  <m_primary>  (27) 
energy

$$$$
27:0
     RDKit          3D

 39 41  0  0  0  0  0  0  0  0999 V2000
   56.9530   21.6930   42.8000 C   0  0  0  0  0  0  0  0  0  0  0  0
   55.8950   21.8800   43.7350 O   0  0  0  0  0  0  0  0  0  0  0  0
   56.0060   22.6250   44.9180 C   0  0  0  0  0  0  0  0  0  0  0  0
   56.4170   22.0510   46.1360 C   0  0  0  0  0  0  0  0  0  0  0  0
   56.4910   22.8330   47.2920 C   0  0  0  0  0  0  0  0  0  0  0  0
   56.1700   24.1910   47.2420 C   0  0  0  0  0  0  0  0  0  0  0  0
   55.7930   24.7840   46.0320 C   0  0  0  0  0  0  0  0  0  0  0  0
   55.4440   26.1750   46.0190 N   0  0  0  0  0  0  0  0  0  0  0  0
   56.2900   27.2700   45.6390 C   0  0  0  0  0  0  0  0  0  0  0  0
   55.7530   28.3370   45.2460 O   0  0  0  0  0  0  0  0  0  0  0  0
   57.7840   27.2220   45.8040 C   0  0  0  0  0  0  0  0  0  0  0  0
   58.6320   27.8110   44.2960 S   0  0  0  0  0  0  0  0  0  0  0  0
   58.1730   29.5290   44.5180 C   0  0  0  0  0  0  0  0  0  0  0  0
   57.0290   30.0730   44.0780 N   0  0  0  0  0  0  0  0  0  0  0  0
   57.0430   31.3500   44.4210 N   0  0  0  0  0  0  0  0  0  0  0  0
   58.2100   31.5410   45.0720 C   0  0  0  0  0  0  0  0  0  0  0  0
   58.6750   32.8320   45.6440 C   0  0  0  0  0  0  0  0  0  0  0  0
   58.8170   33.9290   44.7730 C   0  0  0  0  0  0  0  0  0  0  0  0
   59.2470   35.1700   45.2490 C   0  0  0  0  0  0  0  0  0  0  0  0
   59.5420   35.3350   46.6000 C   0  0  0  0  0  0  0  0  0  0  0  0
   59.4100   34.2610   47.4810 C   0  0  0  0  0  0  0  0  0  0  0  0
   58.9810   33.0090   47.0180 C   0  0  0  0  0  0  0  0  0  0  0  0
   58.8590   31.7180   48.2110 Cl  0  0  0  0  0  0  0  0  0  0  0  0
   58.9040   30.4240   45.1330 O   0  0  0  0  0  0  0  0  0  0  0  0
   55.6880   23.9880   44.8780 C   0  0  0  0  0  0  0  0  0  0  0  0
   57.8958   21.5264   43.3416 H   0  0  0  0  0  0  0  0  0  0  0  0
   56.7338   20.8197   42.1681 H   0  0  0  0  0  0  0  0  0  0  0  0
   57.0465   22.5885   42.1681 H   0  0  0  0  0  0  0  0  0  0  0  0
   56.6807   20.9839   46.1780 H   0  0  0  0  0  0  0  0  0  0  0  0
   56.8029   22.3776   48.2435 H   0  0  0  0  0  0  0  0  0  0  0  0
   56.2137   24.7977   48.1585 H   0  0  0  0  0  0  0  0  0  0  0  0
   58.0725   27.8614   46.6513 H   0  0  0  0  0  0  0  0  0  0  0  0
   58.0818   26.1791   45.9875 H   0  0  0  0  0  0  0  0  0  0  0  0
   56.2610   29.5990   43.5540 H   0  0  0  0  0  0  0  0  0  0  0  0
   58.5865   33.8074   43.7043 H   0  0  0  0  0  0  0  0  0  0  0  0
   59.3527   36.0177   44.5560 H   0  0  0  0  0  0  0  0  0  0  0  0
   59.8795   36.3132   46.9731 H   0  0  0  0  0  0  0  0  0  0  0  0
   59.6443   34.3976   48.5470 H   0  0  0  0  0  0  0  0  0  0  0  0
   55.3524   24.4409   43.9334 H   0  0  0  0  0  0  0  0  0  0  0  0
  1  2  1  0
  2  3  1  0
  3  4  2  0
  4  5  1  0
  5  6  2  0
  6  7  1  0
  7  8  1  0
  8  9  1  0
  9 10  2  0
  9 11  1  0
 11 12  1  0
 12 13  1  0
 13 14  2  0
 14 15  1  0
 15 16  2  0
 16 17  1  0
 17 18  2  0
 18 19  1  0
 19 20  2  0
 20 21  1  0
 21 22  2  0
 22 23  1  0
 16 24  1  0
  7 25  2  0
 25  3  1  0
 24 13  1  0
 22 17  1  0
  1 26  1  0
  1 27  1  0
  1 28  1  0
  4 29  1  0
  5 30  1  0
  6 31  1  0
 11 32  1  0
 11 33  1  0
 14 34  1  0
 18 35  1  0
 19 36  1  0
 20 37  1  0
 21 38  1  0
 25 39  1  0
M  CHG  2   8  -1  14   1
M  END
>  <UniqueID>  (28) 
27

>  <SMILES>  (28) 
COc1cccc([N-]C(=O)CSc2[nH+]nc(-c3ccccc3Cl)o2)c1

>  <Energy>  (28) 
81.13259632246425

>  <Genealogy>  (28) 
COc1cccc([N-]C(=O)CSc2[nH+]nc(-c3ccccc3Cl)o2)c1 (protonated)
COc1cccc([N-]C(=O)CSc2[nH+]nc(-c3ccccc3Cl)o2)c1 (3D coordinates assigned)
COc1cccc([N-]C(=O)CSc2[nH+]nc(-c3ccccc3Cl)o2)c1 (optimized conformer: 81.13259632246425 kcal/mol)

>  <smiles>  (28) 
COc1cccc(NC(=O)CSc2nnc(-c3ccccc3Cl)o2)c1

>  <score_type>  (28) 
oracle

>  <origin>  (28) 
adg

>  <m_score__min__energy>  (28) 
-8.9499999999999993

>  <m_primary>  (28) 
energy

$$$$
28:0
     RDKit          3D

 60 64  0  0  1  0  0  0  0  0999 V2000
   58.8800   31.8900   49.5500 C   0  0  0  0  0  0  0  0  0  0  0  0
   59.2060   33.2630   49.4300 O   0  0  0  0  0  0  0  0  0  0  0  0
   59.2250   33.8080   48.1510 C   0  0  0  0  0  0  0  0  0  0  0  0
   60.0300   34.9120   47.8580 C   0  0  0  0  0  0  0  0  0  0  0  0
   59.9980   35.4020   46.5630 C   0  0  0  0  0  0  0  0  0  0  0  0
   59.2090   34.8430   45.5730 C   0  0  0  0  0  0  0  0  0  0  0  0
   58.4230   33.7520   45.8900 C   0  0  0  0  0  0  0  0  0  0  0  0
   57.5860   33.1190   44.9320 N   0  0  0  0  0  0  0  0  0  0  0  0
   57.6130   31.8270   44.7650 C   0  0  0  0  0  0  0  0  0  0  0  0
   58.7480   31.1460   44.9430 N   0  0  0  0  0  0  0  0  0  0  0  0
   58.8410   29.7830   44.7810 C   0  0  0  0  0  0  0  0  0  0  0  0
   60.0940   29.1880   44.9680 N   0  0  0  0  0  0  0  0  0  0  0  0
   60.7010   28.5580   46.0760 C   0  0  2  0  0  0  0  0  0  0  0  0
   60.7610   27.0450   45.9910 C   0  0  0  0  0  0  0  0  0  0  0  0
   59.6760   26.4000   46.8230 C   0  0  0  0  0  0  0  0  0  0  0  0
   59.7350   26.8350   48.2630 C   0  0  0  0  0  0  0  0  0  0  0  0
   60.4060   28.1130   48.4200 N   0  0  0  0  0  0  0  0  0  0  0  0
   59.9470   28.9630   47.3600 C   0  0  0  0  0  0  0  0  0  0  0  0
   57.6770   29.1660   44.4190 C   0  0  0  0  0  0  0  0  0  0  0  0
   57.5170   27.7500   44.1550 C   0  0  0  0  0  0  0  0  0  0  0  0
   57.8570   27.1240   42.9780 C   0  0  0  0  0  0  0  0  0  0  0  0
   57.7420   25.7800   42.7790 C   0  0  0  0  0  0  0  0  0  0  0  0
   57.2680   24.9500   43.7710 C   0  0  0  0  0  0  0  0  0  0  0  0
   57.0300   23.6040   43.9130 C   0  0  0  0  0  0  0  0  0  0  0  0
   57.2420   22.7280   42.9920 N   0  0  0  0  0  0  0  0  0  0  0  0
   56.5560   23.4020   45.1440 N   0  0  0  0  0  0  0  0  0  0  0  0
   56.4800   24.5520   45.7950 N   0  0  0  0  0  0  0  0  0  0  0  0
   56.9160   25.5440   44.9710 C   0  0  0  0  0  0  0  0  0  0  0  0
   57.0340   26.9040   45.1660 C   0  0  0  0  0  0  0  0  0  0  0  0
   56.6810   27.4560   46.3530 F   0  0  0  0  0  0  0  0  0  0  0  0
   56.4900   29.9120   44.2380 C   0  0  0  0  0  0  0  0  0  0  0  0
   55.3870   29.3400   43.8980 N   0  0  0  0  0  0  0  0  0  0  0  0
   56.4600   31.2400   44.4100 N   0  0  0  0  0  0  0  0  0  0  0  0
   58.4310   33.2370   47.1770 C   0  0  0  0  0  0  0  0  0  0  0  0
   58.8159   31.6200   50.6144 H   0  0  0  0  0  0  0  0  0  0  0  0
   57.9116   31.6993   49.0644 H   0  0  0  0  0  0  0  0  0  0  0  0
   59.6593   31.2843   49.0644 H   0  0  0  0  0  0  0  0  0  0  0  0
   60.6655   35.3747   48.6274 H   0  0  0  0  0  0  0  0  0  0  0  0
   60.6248   36.2702   46.3113 H   0  0  0  0  0  0  0  0  0  0  0  0
   59.2077   35.2588   44.5546 H   0  0  0  0  0  0  0  0  0  0  0  0
   59.5850   31.7180   45.2210 H   0  0  0  0  0  0  0  0  0  0  0  0
   60.7270   29.2120   44.0850 H   0  0  0  0  0  0  0  0  0  0  0  0
   61.7459   28.9015   46.0865 H   0  0  0  0  0  0  0  0  0  0  0  0
   60.6352   26.7407   44.9415 H   0  0  0  0  0  0  0  0  0  0  0  0
   61.7359   26.7158   46.3799 H   0  0  0  0  0  0  0  0  0  0  0  0
   58.6966   26.6795   46.4075 H   0  0  0  0  0  0  0  0  0  0  0  0
   59.8259   25.3107   46.7910 H   0  0  0  0  0  0  0  0  0  0  0  0
   58.7088   26.9233   48.6493 H   0  0  0  0  0  0  0  0  0  0  0  0
   60.3080   26.0804   48.8218 H   0  0  0  0  0  0  0  0  0  0  0  0
   61.4290   27.9970   48.4570 H   0  0  0  0  0  0  0  0  0  0  0  0
   58.8644   28.8316   47.2162 H   0  0  0  0  0  0  0  0  0  0  0  0
   60.1372   30.0190   47.6023 H   0  0  0  0  0  0  0  0  0  0  0  0
   58.2424   27.7411   42.1530 H   0  0  0  0  0  0  0  0  0  0  0  0
   58.0330   25.3508   41.8089 H   0  0  0  0  0  0  0  0  0  0  0  0
   57.0070   22.9220   42.0100 H   0  0  0  0  0  0  0  0  0  0  0  0
   56.2760   22.4870   45.5680 H   0  0  0  0  0  0  0  0  0  0  0  0
   56.1540   24.7470   46.7710 H   0  0  0  0  0  0  0  0  0  0  0  0
   55.1260   29.0930   42.9410 H   0  0  0  0  0  0  0  0  0  0  0  0
   55.5970   31.8100   44.2830 H   0  0  0  0  0  0  0  0  0  0  0  0
   57.8016   32.3691   47.4232 H   0  0  0  0  0  0  0  0  0  0  0  0
  1  2  1  0
  2  3  1  0
  3  4  2  0
  4  5  1  0
  5  6  2  0
  6  7  1  0
  7  8  1  0
  8  9  2  0
  9 10  1  0
 10 11  1  0
 11 12  1  0
 12 13  1  0
 13 14  1  0
 14 15  1  0
 15 16  1  0
 16 17  1  0
 17 18  1  0
 11 19  2  0
 19 20  1  0
 20 21  2  0
 21 22  1  0
 22 23  2  0
 23 24  1  0
 24 25  2  3
 24 26  1  0
 26 27  1  0
 27 28  1  0
 28 29  2  0
 29 30  1  0
 19 31  1  0
 31 32  2  3
 31 33  1  0
  7 34  2  0
 34  3  1  0
 33  9  1  0
 18 13  1  0
 29 20  1  0
 28 23  1  0
  1 35  1  0
  1 36  1  0
  1 37  1  0
  4 38  1  0
  5 39  1  0
  6 40  1  0
 10 41  1  0
 12 42  1  0
 13 43  1  1
 14 44  1  0
 14 45  1  0
 15 46  1  0
 15 47  1  0
 16 48  1  0
 16 49  1  0
 17 50  1  0
 18 51  1  0
 18 52  1  0
 21 53  1  0
 22 54  1  0
 25 55  1  0
 26 56  1  0
 27 57  1  0
 32 58  1  0
 33 59  1  0
 34 60  1  0
M  END
>  <smiles>  (29) 
COc1cccc(N=c2[nH]c(NC3CCCNC3)c(-c3ccc4c(=N)[nH][nH]c4c3F)c(=N)[nH]2)c1

>  <score_type>  (29) 
oracle

>  <origin>  (29) 
adg

>  <m_score__min__energy>  (29) 
-8.5700000000000003

>  <m_primary>  (29) 
energy

$$$$
29:0
     RDKit          3D

 72 76  0  0  0  0  0  0  0  0999 V2000
   58.6710   31.2480   44.9840 C   0  0  0  0  0  0  0  0  0  0  0  0
   59.5640   31.8930   46.0440 C   0  0  0  0  0  0  0  0  0  0  0  0
   59.3650   33.3510   46.0930 N   0  0  0  0  0  0  0  0  0  0  0  0
   58.3160   33.9620   45.2650 C   0  0  0  0  0  0  0  0  0  0  0  0
   56.9420   33.7650   45.9020 C   0  0  0  0  0  0  0  0  0  0  0  0
   60.0940   34.1740   47.0300 C   0  0  0  0  0  0  0  0  0  0  0  0
   59.5520   35.2130   47.4970 O   0  0  0  0  0  0  0  0  0  0  0  0
   61.4770   33.8400   47.4450 C   0  0  0  0  0  0  0  0  0  0  0  0
   62.4390   33.5640   46.4640 C   0  0  0  0  0  0  0  0  0  0  0  0
   63.7540   33.2710   46.8240 C   0  0  0  0  0  0  0  0  0  0  0  0
   64.1220   33.2500   48.1680 C   0  0  0  0  0  0  0  0  0  0  0  0
   63.1840   33.5460   49.1700 C   0  0  0  0  0  0  0  0  0  0  0  0
   63.5390   33.4170   50.5540 N   0  0  0  0  0  0  0  0  0  0  0  0
   64.0770   32.2390   51.1640 C   0  0  0  0  0  0  0  0  0  0  0  0
   65.2290   31.8300   50.8570 O   0  0  0  0  0  0  0  0  0  0  0  0
   63.3070   31.5660   52.2590 C   0  0  0  0  0  0  0  0  0  0  0  0
   63.0780   30.1880   51.9630 O   0  0  0  0  0  0  0  0  0  0  0  0
   62.2140   29.7030   50.9700 C   0  0  0  0  0  0  0  0  0  0  0  0
   61.8900   30.4420   49.8150 C   0  0  0  0  0  0  0  0  0  0  0  0
   61.0110   29.9120   48.8630 C   0  0  0  0  0  0  0  0  0  0  0  0
   60.4350   28.6440   49.0500 C   0  0  0  0  0  0  0  0  0  0  0  0
   59.4800   28.0950   48.0550 C   0  0  0  0  0  0  0  0  0  0  0  0
   58.6730   28.9630   47.2700 C   0  0  0  0  0  0  0  0  0  0  0  0
   57.7640   28.4450   46.3300 C   0  0  0  0  0  0  0  0  0  0  0  0
   57.6810   27.0640   46.2000 C   0  0  0  0  0  0  0  0  0  0  0  0
   58.4440   26.2250   46.9430 C   0  0  0  0  0  0  0  0  0  0  0  0
   59.3580   26.6950   47.8810 C   0  0  0  0  0  0  0  0  0  0  0  0
   58.1520   24.9170   46.6090 O   0  0  0  0  0  0  0  0  0  0  0  0
   57.1410   24.9350   45.5910 C   0  0  0  0  0  0  0  0  0  0  0  0
   56.8700   26.3250   45.3590 O   0  0  0  0  0  0  0  0  0  0  0  0
   60.7670   27.9090   50.2010 C   0  0  0  0  0  0  0  0  0  0  0  0
   61.6510   28.4350   51.1470 C   0  0  0  0  0  0  0  0  0  0  0  0
   61.8550   33.8650   48.8070 C   0  0  0  0  0  0  0  0  0  0  0  0
   60.8600   34.1690   49.8010 N   0  0  0  0  0  0  0  0  0  0  0  0
   60.6810   33.5250   51.0710 C   0  0  0  0  0  0  0  0  0  0  0  0
   61.3710   33.9210   52.0460 O   0  0  0  0  0  0  0  0  0  0  0  0
   59.7320   32.4030   51.2720 C   0  0  0  0  0  0  0  0  0  0  0  0
   59.8460   31.6120   52.4290 C   0  0  0  0  0  0  0  0  0  0  0  0
   58.9460   30.5730   52.6710 C   0  0  0  0  0  0  0  0  0  0  0  0
   57.9310   30.2970   51.7520 C   0  0  0  0  0  0  0  0  0  0  0  0
   57.0340   29.2640   51.9970 O   0  0  0  0  0  0  0  0  0  0  0  0
   57.8220   31.0550   50.5840 C   0  0  0  0  0  0  0  0  0  0  0  0
   58.7270   32.0970   50.3280 C   0  0  0  0  0  0  0  0  0  0  0  0
   58.6420   32.8030   49.1300 O   0  0  0  0  0  0  0  0  0  0  0  0
   57.8739   30.6723   45.4771 H   0  0  0  0  0  0  0  0  0  0  0  0
   58.2224   32.0319   44.3561 H   0  0  0  0  0  0  0  0  0  0  0  0
   59.2742   30.5757   44.3561 H   0  0  0  0  0  0  0  0  0  0  0  0
   59.3204   31.4645   47.0274 H   0  0  0  0  0  0  0  0  0  0  0  0
   60.6138   31.6935   45.7830 H   0  0  0  0  0  0  0  0  0  0  0  0
   58.5165   35.0389   45.1649 H   0  0  0  0  0  0  0  0  0  0  0  0
   58.3199   33.4795   44.2765 H   0  0  0  0  0  0  0  0  0  0  0  0
   57.0403   33.7791   46.9975 H   0  0  0  0  0  0  0  0  0  0  0  0
   56.2706   34.5761   45.5836 H   0  0  0  0  0  0  0  0  0  0  0  0
   56.5255   32.7980   45.5836 H   0  0  0  0  0  0  0  0  0  0  0  0
   62.1545   33.5786   45.4015 H   0  0  0  0  0  0  0  0  0  0  0  0
   64.5017   33.0562   46.0463 H   0  0  0  0  0  0  0  0  0  0  0  0
   65.1563   32.9994   48.4462 H   0  0  0  0  0  0  0  0  0  0  0  0
   63.8779   31.6408   53.1963 H   0  0  0  0  0  0  0  0  0  0  0  0
   62.3321   32.0664   52.3551 H   0  0  0  0  0  0  0  0  0  0  0  0
   62.3292   31.4387   49.6608 H   0  0  0  0  0  0  0  0  0  0  0  0
   60.7692   30.4931   47.9609 H   0  0  0  0  0  0  0  0  0  0  0  0
   58.7604   30.0519   47.3992 H   0  0  0  0  0  0  0  0  0  0  0  0
   57.1390   29.1115   45.7175 H   0  0  0  0  0  0  0  0  0  0  0  0
   59.9697   25.9973   48.4718 H   0  0  0  0  0  0  0  0  0  0  0  0
   57.5091   24.4546   44.6724 H   0  0  0  0  0  0  0  0  0  0  0  0
   56.2390   24.3841   45.8957 H   0  0  0  0  0  0  0  0  0  0  0  0
   60.3280   26.9128   50.3584 H   0  0  0  0  0  0  0  0  0  0  0  0
   61.9066   27.8457   52.0400 H   0  0  0  0  0  0  0  0  0  0  0  0
   60.6519   31.8139   53.1500 H   0  0  0  0  0  0  0  0  0  0  0  0
   59.0362   29.9705   53.5869 H   0  0  0  0  0  0  0  0  0  0  0  0
   57.0229   30.8343   49.8610 H   0  0  0  0  0  0  0  0  0  0  0  0
   59.1830   33.6440   48.9670 H   0  0  0  0  0  0  0  0  0  0  0  0
  1  2  1  0
  2  3  1  0
  3  4  1  0
  4  5  1  0
  3  6  1  0
  6  7  2  0
  6  8  1  0
  8  9  2  0
  9 10  1  0
 10 11  2  0
 11 12  1  0
 12 13  1  0
 13 14  1  0
 14 15  2  0
 14 16  1  0
 16 17  1  0
 17 18  1  0
 18 19  2  0
 19 20  1  0
 20 21  2  0
 21 22  1  0
 22 23  2  0
 23 24  1  0
 24 25  2  0
 25 26  1  0
 26 27  2  0
 26 28  1  0
 28 29  1  0
 29 30  1  0
 21 31  1  0
 31 32  2  0
 12 33  2  0
 33 34  1  0
 34 35  1  0
 35 36  2  0
 35 37  1  0
 37 38  2  0
 38 39  1  0
 39 40  2  0
 40 41  1  0
 40 42  1  0
 42 43  2  0
 43 44  1  0
 33  8  1  0
 43 37  1  0
 32 18  1  0
 27 22  1  0
 30 25  1  0
  1 45  1  0
  1 46  1  0
  1 47  1  0
  2 48  1  0
  2 49  1  0
  4 50  1  0
  4 51  1  0
  5 52  1  0
  5 53  1  0
  5 54  1  0
  9 55  1  0
 10 56  1  0
 11 57  1  0
 16 58  1  0
 16 59  1  0
 19 60  1  0
 20 61  1  0
 23 62  1  0
 24 63  1  0
 27 64  1  0
 29 65  1  0
 29 66  1  0
 31 67  1  0
 32 68  1  0
 38 69  1  0
 39 70  1  0
 42 71  1  0
 44 72  1  0
M  CHG  3  13  -1  34  -1  41  -1
M  END
>  <UniqueID>  (30) 
28

>  <SMILES>  (30) 
CCN(CC)C(=O)c1cccc([N-]C(=O)COc2ccc(-c3ccc4c(c3)OCO4)cc2)c1[N-]C(=O)c1ccc([O-])cc1O

>  <Energy>  (30) 
121.55067819254427

>  <Genealogy>  (30) 
CCN(CC)C(=O)c1cccc([N-]C(=O)COc2ccc(-c3ccc4c(c3)OCO4)cc2)c1[N-]C(=O)c1ccc([O-])cc1O (protonated)
CCN(CC)C(=O)c1cccc([N-]C(=O)COc2ccc(-c3ccc4c(c3)OCO4)cc2)c1[N-]C(=O)c1ccc([O-])cc1O (3D coordinates assigned)
CCN(CC)C(=O)c1cccc([N-]C(=O)COc2ccc(-c3ccc4c(c3)OCO4)cc2)c1[N-]C(=O)c1ccc([O-])cc1O (nonaromatic ring conformer: 121.55067819254427 kcal/mol)

>  <smiles>  (30) 
CCN(CC)C(=O)c1cccc(NC(=O)COc2ccc(-c3ccc4c(c3)OCO4)cc2)c1NC(=O)c1ccc(O)cc1O

>  <score_type>  (30) 
oracle

>  <origin>  (30) 
adg

>  <m_score__min__energy>  (30) 
-14.390000000000001

>  <m_primary>  (30) 
energy

$$$$
30:0
     RDKit          3D

 29 30  0  0  0  0  0  0  0  0999 V2000
   61.3060   28.9410   44.8630 C   0  0  0  0  0  0  0  0  0  0  0  0
   59.8120   28.8160   44.9270 C   0  0  0  0  0  0  0  0  0  0  0  0
   58.9990   29.6580   44.1570 C   0  0  0  0  0  0  0  0  0  0  0  0
   57.6080   29.5760   44.2530 C   0  0  0  0  0  0  0  0  0  0  0  0
   57.0110   28.6600   45.1270 C   0  0  0  0  0  0  0  0  0  0  0  0
   55.6200   28.6670   45.2450 O   0  0  0  0  0  0  0  0  0  0  0  0
   57.8230   27.7870   45.8850 C   0  0  0  0  0  0  0  0  0  0  0  0
   57.2640   26.7980   46.7580 N   0  0  0  0  0  0  0  0  0  0  0  0
   56.3830   25.7580   46.3250 C   0  0  0  0  0  0  0  0  0  0  0  0
   55.1950   26.0530   46.0300 O   0  0  0  0  0  0  0  0  0  0  0  0
   56.8760   24.4150   46.1770 N   0  0  0  0  0  0  0  0  0  0  0  0
   56.5820   23.5150   45.2770 C   0  0  0  0  0  0  0  0  0  0  0  0
   56.5650   23.7770   43.8900 C   0  0  0  0  0  0  0  0  0  0  0  0
   56.2320   22.7520   43.0000 C   0  0  0  0  0  0  0  0  0  0  0  0
   55.9150   21.5160   43.4660 N   0  0  0  0  0  0  0  0  0  0  0  0
   55.9080   21.2390   44.7950 C   0  0  0  0  0  0  0  0  0  0  0  0
   56.2330   22.2320   45.7210 C   0  0  0  0  0  0  0  0  0  0  0  0
   59.2170   27.8980   45.8050 C   0  0  0  0  0  0  0  0  0  0  0  0
   61.7151   28.9752   45.8835 H   0  0  0  0  0  0  0  0  0  0  0  0
   61.7239   28.0747   44.3293 H   0  0  0  0  0  0  0  0  0  0  0  0
   61.5741   29.8647   44.3293 H   0  0  0  0  0  0  0  0  0  0  0  0
   59.4584   30.3872   43.4735 H   0  0  0  0  0  0  0  0  0  0  0  0
   56.9778   30.2353   43.6380 H   0  0  0  0  0  0  0  0  0  0  0  0
   55.1280   28.1400   45.9550 H   0  0  0  0  0  0  0  0  0  0  0  0
   56.8120   24.7802   43.5125 H   0  0  0  0  0  0  0  0  0  0  0  0
   56.2266   22.9470   41.9174 H   0  0  0  0  0  0  0  0  0  0  0  0
   55.6455   20.2292   45.1433 H   0  0  0  0  0  0  0  0  0  0  0  0
   56.2152   22.0079   46.7978 H   0  0  0  0  0  0  0  0  0  0  0  0
   59.8514   27.2590   46.4369 H   0  0  0  0  0  0  0  0  0  0  0  0
  1  2  1  0
  2  3  2  0
  3  4  1  0
  4  5  2  0
  5  6  1  0
  5  7  1  0
  7  8  1  0
  8  9  1  0
  9 10  2  0
  9 11  1  0
 11 12  2  3
 12 13  1  0
 13 14  2  0
 14 15  1  0
 15 16  1  0
 16 17  2  0
  7 18  2  0
 18  2  1  0
 17 12  1  0
  1 19  1  0
  1 20  1  0
  1 21  1  0
  3 22  1  0
  4 23  1  0
  6 24  1  0
 13 25  1  0
 14 26  1  0
 16 27  1  0
 17 28  1  0
 18 29  1  0
M  CHG  2   8  -1  15  -1
M  END
>  <UniqueID>  (31) 
29

>  <SMILES>  (31) 
Cc1ccc(O)c([N-]C(=O)N=c2cc[n-]cc2)c1

>  <Energy>  (31) 
43.73553355353629

>  <Genealogy>  (31) 
Cc1ccc(O)c([N-]C(=O)N=c2cc[n-]cc2)c1 (protonated)
Cc1ccc(O)c([N-]C(=O)N=c2cc[n-]cc2)c1 (3D coordinates assigned)
Cc1ccc(O)c([N-]C(=O)N=c2cc[n-]cc2)c1 (optimized conformer: 43.73553355353629 kcal/mol)

>  <smiles>  (31) 
Cc1ccc(O)c(NC(=O)N=c2cc[nH]cc2)c1

>  <score_type>  (31) 
oracle

>  <origin>  (31) 
adg

>  <m_score__min__energy>  (31) 
-10.1

>  <m_primary>  (31) 
energy

$$$$
31:0
     RDKit          3D

 27 28  0  0  0  0  0  0  0  0999 V2000
   57.7670   26.9960   42.8610 N   0  0  0  0  0  0  0  0  0  0  0  0
   57.7710   28.0010   43.4320 C   0  0  0  0  0  0  0  0  0  0  0  0
   57.7740   29.2590   44.1400 C   0  0  0  0  0  0  0  0  0  0  0  0
   57.9620   30.4080   43.4260 N   0  0  0  0  0  0  0  0  0  0  0  0
   58.0570   31.6210   44.0320 C   0  0  0  0  0  0  0  0  0  0  0  0
   57.9760   31.7210   45.4190 C   0  0  0  0  0  0  0  0  0  0  0  0
   57.7820   30.5670   46.1760 C   0  0  0  0  0  0  0  0  0  0  0  0
   57.6530   29.3220   45.5510 C   0  0  0  0  0  0  0  0  0  0  0  0
   57.4370   28.1990   46.3710 O   0  0  0  0  0  0  0  0  0  0  0  0
   58.1300   26.9840   46.2900 C   0  0  0  0  0  0  0  0  0  0  0  0
   59.5300   27.0270   46.3150 C   0  0  0  0  0  0  0  0  0  0  0  0
   60.2790   25.8610   46.1560 C   0  0  0  0  0  0  0  0  0  0  0  0
   59.6350   24.6350   45.9810 C   0  0  0  0  0  0  0  0  0  0  0  0
   60.3650   23.5030   45.8200 F   0  0  0  0  0  0  0  0  0  0  0  0
   58.2400   24.5700   45.9920 C   0  0  0  0  0  0  0  0  0  0  0  0
   57.4690   25.7340   46.1730 C   0  0  0  0  0  0  0  0  0  0  0  0
   56.0000   25.6060   46.2900 C   0  0  0  0  0  0  0  0  0  0  0  0
   55.1500   26.7100   45.9930 N   0  0  0  0  0  0  0  0  0  0  0  0
   55.4920   24.5280   46.7010 O   0  0  0  0  0  0  0  0  0  0  0  0
   58.0510   30.3640   42.3860 H   0  0  0  0  0  0  0  0  0  0  0  0
   58.1984   32.5272   43.4247 H   0  0  0  0  0  0  0  0  0  0  0  0
   58.0642   32.7005   45.9117 H   0  0  0  0  0  0  0  0  0  0  0  0
   57.7299   30.6356   47.2726 H   0  0  0  0  0  0  0  0  0  0  0  0
   60.0433   27.9888   46.4613 H   0  0  0  0  0  0  0  0  0  0  0  0
   61.3779   25.9077   46.1685 H   0  0  0  0  0  0  0  0  0  0  0  0
   57.7388   23.6000   45.8580 H   0  0  0  0  0  0  0  0  0  0  0  0
   55.5180   27.6870   45.9970 H   0  0  0  0  0  0  0  0  0  0  0  0
  1  2  3  0
  2  3  1  0
  3  4  2  0
  4  5  1  0
  5  6  2  0
  6  7  1  0
  7  8  2  0
  8  9  1  0
  9 10  1  0
 10 11  2  0
 11 12  1  0
 12 13  2  0
 13 14  1  0
 13 15  1  0
 15 16  2  0
 16 17  1  0
 17 18  1  0
 17 19  2  0
  8  3  1  0
 16 10  1  0
  4 20  1  0
  5 21  1  0
  6 22  1  0
  7 23  1  0
 11 24  1  0
 12 25  1  0
 15 26  1  0
 18 27  1  0
M  CHG  2   4   1  18  -1
M  END
>  <UniqueID>  (32) 
30

>  <SMILES>  (32) 
N#Cc1[nH+]cccc1Oc1ccc(F)cc1C([NH-])=O

>  <Energy>  (32) 
41.48459570699555

>  <Genealogy>  (32) 
N#Cc1[nH+]cccc1Oc1ccc(F)cc1C([NH-])=O (protonated)
N#Cc1[nH+]cccc1Oc1ccc(F)cc1C([NH-])=O (3D coordinates assigned)
N#Cc1[nH+]cccc1Oc1ccc(F)cc1C([NH-])=O (optimized conformer: 41.48459570699555 kcal/mol)

>  <smiles>  (32) 
N#Cc1ncccc1Oc1ccc(F)cc1C(N)=O

>  <score_type>  (32) 
oracle

>  <origin>  (32) 
adg

>  <m_score__min__energy>  (32) 
-7.8099999999999996

>  <m_primary>  (32) 
energy

$$$$
32:0
     RDKit          3D

 50 52  0  0  0  0  0  0  0  0999 V2000
   58.8090   22.3900   44.1840 C   0  0  0  0  0  0  0  0  0  0  0  0
   57.7570   23.2240   44.8610 C   0  0  0  0  0  0  0  0  0  0  0  0
   58.1090   24.0960   45.8990 C   0  0  0  0  0  0  0  0  0  0  0  0
   57.1190   24.8560   46.5340 C   0  0  0  0  0  0  0  0  0  0  0  0
   57.4780   25.8230   47.6290 C   0  0  0  0  0  0  0  0  0  0  0  0
   58.0970   27.0400   47.0640 N   0  0  0  0  0  0  0  0  0  0  0  0
   57.6050   27.5820   45.9090 C   0  0  0  0  0  0  0  0  0  0  0  0
   56.5890   27.0680   45.3590 O   0  0  0  0  0  0  0  0  0  0  0  0
   58.2030   28.6740   45.3450 N   0  0  0  0  0  0  0  0  0  0  0  0
   57.6420   29.2780   44.1190 C   0  0  0  0  0  0  0  0  0  0  0  0
   56.3950   30.0380   44.4430 C   0  0  0  0  0  0  0  0  0  0  0  0
   55.1710   29.3410   44.6610 N   0  0  0  0  0  0  0  0  0  0  0  0
   56.4160   31.2970   44.4870 O   0  0  0  0  0  0  0  0  0  0  0  0
   59.2990   29.2280   45.9480 C   0  0  0  0  0  0  0  0  0  0  0  0
   59.8320   30.2610   45.4510 O   0  0  0  0  0  0  0  0  0  0  0  0
   59.8240   28.6730   47.0840 N   0  0  0  0  0  0  0  0  0  0  0  0
   61.0590   29.2360   47.6760 C   0  0  0  0  0  0  0  0  0  0  0  0
   60.8850   30.7100   47.9770 C   0  0  0  0  0  0  0  0  0  0  0  0
   59.7050   31.1870   48.5820 C   0  0  0  0  0  0  0  0  0  0  0  0
   58.7120   30.3350   48.9440 F   0  0  0  0  0  0  0  0  0  0  0  0
   59.5410   32.5550   48.8270 C   0  0  0  0  0  0  0  0  0  0  0  0
   60.5470   33.4570   48.4740 C   0  0  0  0  0  0  0  0  0  0  0  0
   61.7220   32.9940   47.8830 C   0  0  0  0  0  0  0  0  0  0  0  0
   61.8970   31.6290   47.6360 C   0  0  0  0  0  0  0  0  0  0  0  0
   63.0580   31.2070   47.0780 F   0  0  0  0  0  0  0  0  0  0  0  0
   59.2100   27.5850   47.6450 C   0  0  0  0  0  0  0  0  0  0  0  0
   59.6730   27.0780   48.7060 O   0  0  0  0  0  0  0  0  0  0  0  0
   55.8290   24.7550   46.1190 N   0  0  0  0  0  0  0  0  0  0  0  0
   55.4440   23.9150   45.1200 C   0  0  0  0  0  0  0  0  0  0  0  0
   53.9930   23.8590   44.7460 C   0  0  0  0  0  0  0  0  0  0  0  0
   56.4100   23.1220   44.4660 C   0  0  0  0  0  0  0  0  0  0  0  0
   56.0630   22.2420   43.4370 O   0  0  0  0  0  0  0  0  0  0  0  0
   59.4315   21.8965   44.9449 H   0  0  0  0  0  0  0  0  0  0  0  0
   58.3246   21.6279   43.5559 H   0  0  0  0  0  0  0  0  0  0  0  0
   59.4405   23.0355   43.5559 H   0  0  0  0  0  0  0  0  0  0  0  0
   59.1592   24.1835   46.2142 H   0  0  0  0  0  0  0  0  0  0  0  0
   56.5667   26.1022   48.1782 H   0  0  0  0  0  0  0  0  0  0  0  0
   58.1974   25.3406   48.3071 H   0  0  0  0  0  0  0  0  0  0  0  0
   58.3819   29.9635   43.6800 H   0  0  0  0  0  0  0  0  0  0  0  0
   57.4001   28.4789   43.4029 H   0  0  0  0  0  0  0  0  0  0  0  0
   55.1060   28.3110   44.5060 H   0  0  0  0  0  0  0  0  0  0  0  0
   61.2880   28.7014   48.6097 H   0  0  0  0  0  0  0  0  0  0  0  0
   61.8822   29.1170   46.9561 H   0  0  0  0  0  0  0  0  0  0  0  0
   58.6172   32.9208   49.2989 H   0  0  0  0  0  0  0  0  0  0  0  0
   60.4125   34.5324   48.6621 H   0  0  0  0  0  0  0  0  0  0  0  0
   62.5149   33.7059   47.6099 H   0  0  0  0  0  0  0  0  0  0  0  0
   53.3797   23.8353   45.6589 H   0  0  0  0  0  0  0  0  0  0  0  0
   53.7328   24.7478   44.1524 H   0  0  0  0  0  0  0  0  0  0  0  0
   53.8021   22.9528   44.1524 H   0  0  0  0  0  0  0  0  0  0  0  0
   55.1380   22.2130   43.0250 H   0  0  0  0  0  0  0  0  0  0  0  0
  1  2  1  0
  2  3  2  0
  3  4  1  0
  4  5  1  0
  5  6  1  0
  6  7  1  0
  7  8  2  0
  7  9  1  0
  9 10  1  0
 10 11  1  0
 11 12  1  0
 11 13  2  0
  9 14  1  0
 14 15  2  0
 14 16  1  0
 16 17  1  0
 17 18  1  0
 18 19  2  0
 19 20  1  0
 19 21  1  0
 21 22  2  0
 22 23  1  0
 23 24  2  0
 24 25  1  0
 16 26  1  0
 26 27  2  0
  4 28  2  0
 28 29  1  0
 29 30  1  0
 29 31  2  0
 31 32  1  0
 31  2  1  0
 26  6  1  0
 24 18  1  0
  1 33  1  0
  1 34  1  0
  1 35  1  0
  3 36  1  0
  5 37  1  0
  5 38  1  0
 10 39  1  0
 10 40  1  0
 12 41  1  0
 17 42  1  0
 17 43  1  0
 21 44  1  0
 22 45  1  0
 23 46  1  0
 30 47  1  0
 30 48  1  0
 30 49  1  0
 32 50  1  0
M  CHG  1  12  -1
M  END
>  <UniqueID>  (33) 
31

>  <SMILES>  (33) 
Cc1cc(Cn2c(=O)n(CC([NH-])=O)c(=O)n(Cc3c(F)cccc3F)c2=O)nc(C)c1O

>  <Energy>  (33) 
61.316259033117035

>  <Genealogy>  (33) 
Cc1cc(Cn2c(=O)n(CC([NH-])=O)c(=O)n(Cc3c(F)cccc3F)c2=O)nc(C)c1O (protonated)
Cc1cc(Cn2c(=O)n(CC([NH-])=O)c(=O)n(Cc3c(F)cccc3F)c2=O)nc(C)c1O (3D coordinates assigned)
Cc1cc(Cn2c(=O)n(CC([NH-])=O)c(=O)n(Cc3c(F)cccc3F)c2=O)nc(C)c1O (optimized conformer: 61.316259033117035 kcal/mol)

>  <smiles>  (33) 
Cc1cc(Cn2c(=O)n(CC(N)=O)c(=O)n(Cc3c(F)cccc3F)c2=O)nc(C)c1O

>  <score_type>  (33) 
oracle

>  <origin>  (33) 
adg

>  <m_score__min__energy>  (33) 
-10.880000000000001

>  <m_primary>  (33) 
energy

$$$$
33:0
     RDKit          3D

 49 52  0  0  0  0  0  0  0  0999 V2000
   59.0140   32.9890   49.3030 O   0  0  0  0  0  0  0  0  0  0  0  0
   58.8750   31.9820   48.5580 C   0  0  0  0  0  0  0  0  0  0  0  0
   59.1590   30.6830   49.0900 N   0  0  0  0  0  0  0  0  0  0  0  0
   60.4750   30.0510   49.0560 C   0  0  0  0  0  0  0  0  0  0  0  0
   61.1170   30.2380   47.6810 C   0  0  0  0  0  0  0  0  0  0  0  0
   61.9590   31.4870   47.6440 C   0  0  0  0  0  0  0  0  0  0  0  0
   61.6470   32.5240   46.7490 C   0  0  0  0  0  0  0  0  0  0  0  0
   62.3980   33.7040   46.7470 C   0  0  0  0  0  0  0  0  0  0  0  0
   63.4540   33.8620   47.6480 C   0  0  0  0  0  0  0  0  0  0  0  0
   63.7640   32.8400   48.5500 C   0  0  0  0  0  0  0  0  0  0  0  0
   63.0200   31.6570   48.5520 C   0  0  0  0  0  0  0  0  0  0  0  0
   58.4750   32.1700   47.1460 C   0  0  0  0  0  0  0  0  0  0  0  0
   58.4700   31.0820   46.2670 C   0  0  0  0  0  0  0  0  0  0  0  0
   58.1070   31.2270   44.9530 N   0  0  0  0  0  0  0  0  0  0  0  0
   58.1360   30.0180   44.0850 C   0  0  2  0  0  0  0  0  0  0  0  0
   56.7230   29.5490   43.7030 C   0  0  0  0  0  0  0  0  0  0  0  0
   56.1510   28.7260   44.7090 O   0  0  0  0  0  0  0  0  0  0  0  0
   56.8830   27.7250   45.3490 C   0  0  0  0  0  0  0  0  0  0  0  0
   56.2000   26.7100   46.0320 C   0  0  0  0  0  0  0  0  0  0  0  0
   54.8110   26.7000   46.0590 O   0  0  0  0  0  0  0  0  0  0  0  0
   56.9140   25.7040   46.6840 C   0  0  0  0  0  0  0  0  0  0  0  0
   58.3080   25.7050   46.6580 C   0  0  0  0  0  0  0  0  0  0  0  0
   59.0070   26.7170   45.9910 C   0  0  0  0  0  0  0  0  0  0  0  0
   60.4020   26.6640   45.9930 O   0  0  0  0  0  0  0  0  0  0  0  0
   58.2940   27.7530   45.3400 C   0  0  0  0  0  0  0  0  0  0  0  0
   59.0310   28.8830   44.6480 C   0  0  0  0  0  0  0  0  0  0  0  0
   57.7660   32.4780   44.4950 C   0  0  0  0  0  0  0  0  0  0  0  0
   57.4230   32.6630   43.2990 O   0  0  0  0  0  0  0  0  0  0  0  0
   57.7890   33.5470   45.3320 N   0  0  0  0  0  0  0  0  0  0  0  0
   58.1360   33.4260   46.6350 C   0  0  0  0  0  0  0  0  0  0  0  0
   58.1360   34.4480   47.3730 O   0  0  0  0  0  0  0  0  0  0  0  0
   61.1177   30.5092   49.8221 H   0  0  0  0  0  0  0  0  0  0  0  0
   60.3610   28.9751   49.2548 H   0  0  0  0  0  0  0  0  0  0  0  0
   61.7533   29.3684   47.4598 H   0  0  0  0  0  0  0  0  0  0  0  0
   60.3180   30.3314   46.9308 H   0  0  0  0  0  0  0  0  0  0  0  0
   60.8084   32.4074   46.0467 H   0  0  0  0  0  0  0  0  0  0  0  0
   62.1571   34.5078   46.0358 H   0  0  0  0  0  0  0  0  0  0  0  0
   64.0421   34.7916   47.6476 H   0  0  0  0  0  0  0  0  0  0  0  0
   64.5950   32.9672   49.2594 H   0  0  0  0  0  0  0  0  0  0  0  0
   63.2647   30.8565   49.2656 H   0  0  0  0  0  0  0  0  0  0  0  0
   58.7636   30.0889   46.6379 H   0  0  0  0  0  0  0  0  0  0  0  0
   58.6230   30.3204   43.1462 H   0  0  0  0  0  0  0  0  0  0  0  0
   56.0821   30.4311   43.5575 H   0  0  0  0  0  0  0  0  0  0  0  0
   56.7971   28.9576   42.7784 H   0  0  0  0  0  0  0  0  0  0  0  0
   56.3758   24.9082   47.2198 H   0  0  0  0  0  0  0  0  0  0  0  0
   58.8632   24.9030   47.1664 H   0  0  0  0  0  0  0  0  0  0  0  0
   60.9780   27.2250   46.6090 H   0  0  0  0  0  0  0  0  0  0  0  0
   59.7267   29.3287   45.3742 H   0  0  0  0  0  0  0  0  0  0  0  0
   59.5284   28.4306   43.7774 H   0  0  0  0  0  0  0  0  0  0  0  0
  1  2  2  0
  2  3  1  0
  3  4  1  0
  4  5  1  0
  5  6  1  0
  6  7  2  0
  7  8  1  0
  8  9  2  0
  9 10  1  0
 10 11  2  0
  2 12  1  0
 12 13  2  0
 13 14  1  0
 14 15  1  0
 15 16  1  0
 16 17  1  0
 17 18  1  0
 18 19  2  0
 19 20  1  0
 19 21  1  0
 21 22  2  0
 22 23  1  0
 23 24  1  0
 23 25  2  0
 25 26  1  0
 14 27  1  0
 27 28  2  0
 27 29  1  0
 29 30  1  0
 30 31  2  0
 11  6  1  0
 30 12  1  0
 26 15  1  0
 25 18  1  0
  4 32  1  0
  4 33  1  0
  5 34  1  0
  5 35  1  0
  7 36  1  0
  8 37  1  0
  9 38  1  0
 10 39  1  0
 11 40  1  0
 13 41  1  0
 15 42  1  6
 16 43  1  0
 16 44  1  0
 21 45  1  0
 22 46  1  0
 24 47  1  0
 26 48  1  0
 26 49  1  0
M  CHG  3   3  -1  20  -1  29  -1
M  END
>  <UniqueID>  (34) 
32

>  <SMILES>  (34) 
O=C([N-]CCc1ccccc1)c1cn([C@@H]2COc3c([O-])ccc(O)c3C2)c(=O)[n-]c1=O

>  <Energy>  (34) 
66.56940988427786

>  <Genealogy>  (34) 
O=C([N-]CCc1ccccc1)c1cn(C2COc3c([O-])ccc(O)c3C2)c(=O)[n-]c1=O (protonated)
O=C([N-]CCc1ccccc1)c1cn([C@@H]2COc3c([O-])ccc(O)c3C2)c(=O)[n-]c1=O (chirality)
O=C([N-]CCc1ccccc1)c1cn([C@@H]2COc3c([O-])ccc(O)c3C2)c(=O)[n-]c1=O (3D coordinates assigned)
O=C([N-]CCc1ccccc1)c1cn([C@@H]2COc3c([O-])ccc(O)c3C2)c(=O)[n-]c1=O (nonaromatic ring conformer: 66.56940988427786 kcal/mol)

>  <smiles>  (34) 
O=C(NCCc1ccccc1)c1cn(C2COc3c(O)ccc(O)c3C2)c(=O)[nH]c1=O

>  <score_type>  (34) 
oracle

>  <origin>  (34) 
adg

>  <m_score__min__energy>  (34) 
-14.42

>  <m_primary>  (34) 
energy

$$$$
34:0
     RDKit          3D

 50 52  0  0  0  0  0  0  0  0999 V2000
   57.7690   28.0980   47.7240 O   0  0  0  0  0  0  0  0  0  0  0  0
   58.7650   27.3510   47.9200 C   0  0  0  0  0  0  0  0  0  0  0  0
   60.0990   27.9620   48.2170 C   0  0  0  0  0  0  0  0  0  0  0  0
   60.0340   29.4910   48.0680 C   0  0  0  0  0  0  0  0  0  0  0  0
   61.1200   30.0310   47.1130 C   0  0  1  0  0  0  0  0  0  0  0  0
   60.7480   29.7680   45.7210 N   0  0  0  0  0  0  0  0  0  0  0  0
   59.6690   28.9260   45.2890 C   0  0  0  0  0  0  0  0  0  0  0  0
   59.7880   27.6720   45.3240 O   0  0  0  0  0  0  0  0  0  0  0  0
   58.4430   29.5250   44.7240 C   0  0  0  0  0  0  0  0  0  0  0  0
   58.5330   30.7890   44.1130 C   0  0  0  0  0  0  0  0  0  0  0  0
   57.3880   31.4400   43.6500 C   0  0  0  0  0  0  0  0  0  0  0  0
   56.1390   30.8370   43.7900 C   0  0  0  0  0  0  0  0  0  0  0  0
   56.0320   29.5700   44.3670 C   0  0  0  0  0  0  0  0  0  0  0  0
   54.7830   28.9720   44.4810 O   0  0  0  0  0  0  0  0  0  0  0  0
   57.1770   28.8960   44.8170 C   0  0  0  0  0  0  0  0  0  0  0  0
   57.0240   27.6000   45.3150 O   0  0  0  0  0  0  0  0  0  0  0  0
   61.4240   31.5060   47.3070 C   0  0  0  0  0  0  0  0  0  0  0  0
   62.5230   31.8440   47.8300 O   0  0  0  0  0  0  0  0  0  0  0  0
   60.4450   32.5650   46.9410 C   0  0  0  0  0  0  0  0  0  0  0  0
   59.0660   32.3340   47.1130 C   0  0  0  0  0  0  0  0  0  0  0  0
   58.1300   33.3110   46.7630 C   0  0  0  0  0  0  0  0  0  0  0  0
   58.5550   34.5300   46.2320 C   0  0  0  0  0  0  0  0  0  0  0  0
   59.9180   34.7760   46.0550 C   0  0  0  0  0  0  0  0  0  0  0  0
   60.8580   33.8030   46.4050 C   0  0  0  0  0  0  0  0  0  0  0  0
   58.6620   25.9290   47.7720 N   0  0  0  0  0  0  0  0  0  0  0  0
   58.0560   25.2070   46.6890 C   0  0  0  0  0  0  0  0  0  0  0  0
   58.8150   24.5930   45.6730 C   0  0  0  0  0  0  0  0  0  0  0  0
   58.1760   23.9070   44.6360 C   0  0  0  0  0  0  0  0  0  0  0  0
   56.7780   23.8430   44.5890 C   0  0  0  0  0  0  0  0  0  0  0  0
   55.9090   22.9070   43.1700 Br  0  0  0  0  0  0  0  0  0  0  0  0
   56.0200   24.4750   45.5780 C   0  0  0  0  0  0  0  0  0  0  0  0
   56.6560   25.1570   46.6200 C   0  0  0  0  0  0  0  0  0  0  0  0
   60.3915   27.7104   49.2471 H   0  0  0  0  0  0  0  0  0  0  0  0
   60.8390   27.5656   47.5062 H   0  0  0  0  0  0  0  0  0  0  0  0
   59.0454   29.7665   47.6721 H   0  0  0  0  0  0  0  0  0  0  0  0
   60.2061   29.9344   49.0599 H   0  0  0  0  0  0  0  0  0  0  0  0
   62.0453   29.4909   47.3622 H   0  0  0  0  0  0  0  0  0  0  0  0
   59.5159   31.2695   43.9988 H   0  0  0  0  0  0  0  0  0  0  0  0
   57.4714   32.4286   43.1748 H   0  0  0  0  0  0  0  0  0  0  0  0
   55.2353   31.3607   43.4450 H   0  0  0  0  0  0  0  0  0  0  0  0
   57.7310   27.1330   45.8660 H   0  0  0  0  0  0  0  0  0  0  0  0
   58.7224   31.3746   47.5271 H   0  0  0  0  0  0  0  0  0  0  0  0
   57.0564   33.1190   46.9062 H   0  0  0  0  0  0  0  0  0  0  0  0
   57.8167   35.2962   45.9532 H   0  0  0  0  0  0  0  0  0  0  0  0
   60.2526   35.7378   45.6391 H   0  0  0  0  0  0  0  0  0  0  0  0
   61.9299   34.0042   46.2613 H   0  0  0  0  0  0  0  0  0  0  0  0
   59.9131   24.6536   45.6959 H   0  0  0  0  0  0  0  0  0  0  0  0
   58.7736   23.4157   43.8541 H   0  0  0  0  0  0  0  0  0  0  0  0
   54.9215   24.4360   45.5369 H   0  0  0  0  0  0  0  0  0  0  0  0
   56.0535   25.6583   47.3918 H   0  0  0  0  0  0  0  0  0  0  0  0
  1  2  2  0
  2  3  1  0
  3  4  1  0
  4  5  1  0
  5  6  1  0
  6  7  1  0
  7  8  2  0
  7  9  1  0
  9 10  2  0
 10 11  1  0
 11 12  2  0
 12 13  1  0
 13 14  1  0
 13 15  2  0
 15 16  1  0
  5 17  1  0
 17 18  2  0
 17 19  1  0
 19 20  2  0
 20 21  1  0
 21 22  2  0
 22 23  1  0
 23 24  2  0
  2 25  1  0
 25 26  1  0
 26 27  2  0
 27 28  1  0
 28 29  2  0
 29 30  1  0
 29 31  1  0
 31 32  2  0
 15  9  1  0
 24 19  1  0
 32 26  1  0
  3 33  1  0
  3 34  1  0
  4 35  1  0
  4 36  1  0
  5 37  1  1
 10 38  1  0
 11 39  1  0
 12 40  1  0
 16 41  1  0
 20 42  1  0
 21 43  1  0
 22 44  1  0
 23 45  1  0
 24 46  1  0
 27 47  1  0
 28 48  1  0
 31 49  1  0
 32 50  1  0
M  CHG  3   6  -1  14  -1  25  -1
M  END
>  <UniqueID>  (35) 
33

>  <SMILES>  (35) 
O=C(CC[C@@H]([N-]C(=O)c1cccc([O-])c1O)C(=O)c1ccccc1)[N-]c1ccc(Br)cc1

>  <Energy>  (35) 
59.468383285169914

>  <Genealogy>  (35) 
O=C(CCC([N-]C(=O)c1cccc([O-])c1O)C(=O)c1ccccc1)[N-]c1ccc(Br)cc1 (protonated)
O=C(CC[C@@H]([N-]C(=O)c1cccc([O-])c1O)C(=O)c1ccccc1)[N-]c1ccc(Br)cc1 (chirality)
O=C(CC[C@@H]([N-]C(=O)c1cccc([O-])c1O)C(=O)c1ccccc1)[N-]c1ccc(Br)cc1 (3D coordinates assigned)
O=C(CC[C@@H]([N-]C(=O)c1cccc([O-])c1O)C(=O)c1ccccc1)[N-]c1ccc(Br)cc1 (optimized conformer: 59.468383285169914 kcal/mol)

>  <smiles>  (35) 
O=C(CCC(NC(=O)c1cccc(O)c1O)C(=O)c1ccccc1)Nc1ccc(Br)cc1

>  <score_type>  (35) 
oracle

>  <origin>  (35) 
adg

>  <m_score__min__energy>  (35) 
-14.869999999999999

>  <m_primary>  (35) 
energy

$$$$
35:0
     RDKit          3D

 51 54  0  0  0  0  0  0  0  0999 V2000
   58.8570   30.1350   45.8520 C   0  0  0  0  0  0  0  0  0  0  0  0
   59.1590   30.0890   47.2430 O   0  0  0  0  0  0  0  0  0  0  0  0
   60.3450   30.5780   47.8190 C   0  0  0  0  0  0  0  0  0  0  0  0
   61.1760   31.4870   47.1400 C   0  0  0  0  0  0  0  0  0  0  0  0
   62.3460   31.9690   47.7360 C   0  0  0  0  0  0  0  0  0  0  0  0
   63.3370   33.1150   46.8380 Cl  0  0  0  0  0  0  0  0  0  0  0  0
   62.7050   31.5460   49.0280 C   0  0  0  0  0  0  0  0  0  0  0  0
   63.9520   32.0640   49.6900 C   0  0  0  0  0  0  0  0  0  0  0  0
   61.8770   30.6410   49.7080 C   0  0  0  0  0  0  0  0  0  0  0  0
   60.7040   30.1440   49.1130 C   0  0  0  0  0  0  0  0  0  0  0  0
   59.8490   29.2480   49.8560 N   0  0  0  0  0  0  0  0  0  0  0  0
   59.8420   29.6220   51.2780 C   0  0  0  0  0  0  0  0  0  0  0  0
   58.5310   30.2550   51.6620 C   0  0  0  0  0  0  0  0  0  0  0  0
   57.3670   29.5720   51.6770 N   0  0  0  0  0  0  0  0  0  0  0  0
   56.4540   30.4730   52.0940 C   0  0  0  0  0  0  0  0  0  0  0  0
   57.0720   31.6780   52.3360 C   0  0  0  0  0  0  0  0  0  0  0  0
   58.3830   31.5360   52.0760 N   0  0  0  0  0  0  0  0  0  0  0  0
   59.4020   32.5790   52.1940 C   0  0  0  0  0  0  0  0  0  0  0  0
   59.7090   33.1610   50.8490 C   0  0  0  0  0  0  0  0  0  0  0  0
   60.8370   33.8730   50.5110 C   0  0  0  0  0  0  0  0  0  0  0  0
   60.7110   34.2310   49.2590 O   0  0  0  0  0  0  0  0  0  0  0  0
   59.5540   33.7690   48.8330 C   0  0  0  0  0  0  0  0  0  0  0  0
   59.0490   33.9690   47.4600 C   0  0  0  0  0  0  0  0  0  0  0  0
   59.7640   34.7700   46.5530 C   0  0  0  0  0  0  0  0  0  0  0  0
   59.2850   34.9670   45.2550 C   0  0  0  0  0  0  0  0  0  0  0  0
   58.0880   34.3690   44.8510 C   0  0  0  0  0  0  0  0  0  0  0  0
   57.3700   33.5710   45.7450 C   0  0  0  0  0  0  0  0  0  0  0  0
   57.8470   33.3680   47.0440 C   0  0  0  0  0  0  0  0  0  0  0  0
   58.8810   33.0940   49.7900 N   0  0  0  0  0  0  0  0  0  0  0  0
   57.7778   30.2994   45.7163 H   0  0  0  0  0  0  0  0  0  0  0  0
   59.4152   30.9585   45.3826 H   0  0  0  0  0  0  0  0  0  0  0  0
   59.1447   29.1827   45.3826 H   0  0  0  0  0  0  0  0  0  0  0  0
   60.9028   31.8227   46.1288 H   0  0  0  0  0  0  0  0  0  0  0  0
   63.8344   32.0152   50.7826 H   0  0  0  0  0  0  0  0  0  0  0  0
   64.8114   31.4484   49.3858 H   0  0  0  0  0  0  0  0  0  0  0  0
   64.1223   33.1073   49.3858 H   0  0  0  0  0  0  0  0  0  0  0  0
   62.1495   30.3149   50.7226 H   0  0  0  0  0  0  0  0  0  0  0  0
   58.8750   29.2750   49.4720 H   0  0  0  0  0  0  0  0  0  0  0  0
   60.1990   28.2660   49.7540 H   0  0  0  0  0  0  0  0  0  0  0  0
   59.9986   28.7202   51.8881 H   0  0  0  0  0  0  0  0  0  0  0  0
   60.6478   30.3500   51.4533 H   0  0  0  0  0  0  0  0  0  0  0  0
   55.3795   30.2746   52.2211 H   0  0  0  0  0  0  0  0  0  0  0  0
   56.5787   32.5982   52.6823 H   0  0  0  0  0  0  0  0  0  0  0  0
   59.0318   33.3744   52.8575 H   0  0  0  0  0  0  0  0  0  0  0  0
   60.3193   32.1372   52.6102 H   0  0  0  0  0  0  0  0  0  0  0  0
   61.6872   34.0993   51.1713 H   0  0  0  0  0  0  0  0  0  0  0  0
   60.7056   35.2444   46.8665 H   0  0  0  0  0  0  0  0  0  0  0  0
   59.8510   35.5937   44.5501 H   0  0  0  0  0  0  0  0  0  0  0  0
   57.7115   34.5267   43.8295 H   0  0  0  0  0  0  0  0  0  0  0  0
   56.4276   33.1014   45.4267 H   0  0  0  0  0  0  0  0  0  0  0  0
   57.2800   32.7358   47.7432 H   0  0  0  0  0  0  0  0  0  0  0  0
  1  2  1  0
  2  3  1  0
  3  4  2  0
  4  5  1  0
  5  6  1  0
  5  7  2  0
  7  8  1  0
  7  9  1  0
  9 10  2  0
 10 11  1  0
 11 12  1  0
 12 13  1  0
 13 14  2  0
 14 15  1  0
 15 16  2  0
 16 17  1  0
 17 18  1  0
 18 19  1  0
 19 20  2  0
 20 21  1  0
 21 22  1  0
 22 23  1  0
 23 24  2  0
 24 25  1  0
 25 26  2  0
 26 27  1  0
 27 28  2  0
 22 29  2  0
 10  3  1  0
 17 13  1  0
 29 19  1  0
 28 23  1  0
  1 30  1  0
  1 31  1  0
  1 32  1  0
  4 33  1  0
  8 34  1  0
  8 35  1  0
  8 36  1  0
  9 37  1  0
 11 38  1  0
 11 39  1  0
 12 40  1  0
 12 41  1  0
 15 42  1  0
 16 43  1  0
 18 44  1  0
 18 45  1  0
 20 46  1  0
 24 47  1  0
 25 48  1  0
 26 49  1  0
 27 50  1  0
 28 51  1  0
M  CHG  1  11   1
M  END
>  <UniqueID>  (36) 
34

>  <SMILES>  (36) 
COc1cc(Cl)c(C)cc1[NH2+]Cc1nccn1Cc1coc(-c2ccccc2)n1

>  <Energy>  (36) 
110.52364635678212

>  <Genealogy>  (36) 
COc1cc(Cl)c(C)cc1[NH2+]Cc1nccn1Cc1coc(-c2ccccc2)n1 (protonated)
COc1cc(Cl)c(C)cc1[NH2+]Cc1nccn1Cc1coc(-c2ccccc2)n1 (3D coordinates assigned)
COc1cc(Cl)c(C)cc1[NH2+]Cc1nccn1Cc1coc(-c2ccccc2)n1 (optimized conformer: 110.52364635678212 kcal/mol)

>  <smiles>  (36) 
COc1cc(Cl)c(C)cc1NCc1nccn1Cc1coc(-c2ccccc2)n1

>  <score_type>  (36) 
oracle

>  <origin>  (36) 
adg

>  <m_score__min__energy>  (36) 
-6.1900000000000004

>  <m_primary>  (36) 
energy

$$$$
36:0
     RDKit          3D

 43 45  0  0  0  0  0  0  0  0999 V2000
   58.7020   34.2720   53.4660 C   0  0  0  0  0  0  0  0  0  0  0  0
   58.4770   33.0830   52.5810 C   0  0  0  0  0  0  0  0  0  0  0  0
   58.9060   33.1040   51.2470 C   0  0  0  0  0  0  0  0  0  0  0  0
   58.7020   31.9920   50.4190 C   0  0  0  0  0  0  0  0  0  0  0  0
   59.1090   32.0510   49.0020 C   0  0  0  0  0  0  0  0  0  0  0  0
   60.3200   32.2490   48.7210 O   0  0  0  0  0  0  0  0  0  0  0  0
   58.1580   31.9390   47.9330 N   0  0  0  0  0  0  0  0  0  0  0  0
   57.7860   33.0060   47.0070 C   0  0  0  0  0  0  0  0  0  0  0  0
   57.6820   32.4820   45.6080 C   0  0  0  0  0  0  0  0  0  0  0  0
   58.1480   33.1120   44.4720 C   0  0  0  0  0  0  0  0  0  0  0  0
   57.8020   32.2840   43.4240 C   0  0  0  0  0  0  0  0  0  0  0  0
   57.1500   31.2050   43.9870 C   0  0  0  0  0  0  0  0  0  0  0  0
   57.0950   31.3520   45.2900 O   0  0  0  0  0  0  0  0  0  0  0  0
   58.1180   30.8330   50.9460 C   0  0  0  0  0  0  0  0  0  0  0  0
   57.7170   30.7840   52.2910 C   0  0  0  0  0  0  0  0  0  0  0  0
   57.0990   29.5510   52.8370 C   0  0  0  0  0  0  0  0  0  0  0  0
   57.7140   28.4560   52.7370 O   0  0  0  0  0  0  0  0  0  0  0  0
   55.7950   29.5530   53.4340 N   0  0  0  0  0  0  0  0  0  0  0  0
   54.6310   30.2210   52.9270 C   0  0  0  0  0  0  0  0  0  0  0  0
   54.5900   30.5780   51.5740 C   0  0  0  0  0  0  0  0  0  0  0  0
   53.4690   31.2220   51.0450 C   0  0  0  0  0  0  0  0  0  0  0  0
   52.3590   31.5080   51.8610 C   0  0  0  0  0  0  0  0  0  0  0  0
   51.1710   32.1920   51.3060 C   0  0  0  0  0  0  0  0  0  0  0  0
   51.0130   32.2940   50.0600 O   0  0  0  0  0  0  0  0  0  0  0  0
   50.2100   32.7320   52.1530 O   0  0  0  0  0  0  0  0  0  0  0  0
   52.3920   31.1260   53.2120 C   0  0  0  0  0  0  0  0  0  0  0  0
   53.5150   30.4810   53.7400 C   0  0  0  0  0  0  0  0  0  0  0  0
   57.8880   31.9210   53.1000 C   0  0  0  0  0  0  0  0  0  0  0  0
   58.6432   33.9613   54.5196 H   0  0  0  0  0  0  0  0  0  0  0  0
   59.6964   34.6966   53.2639 H   0  0  0  0  0  0  0  0  0  0  0  0
   57.9315   35.0306   53.2639 H   0  0  0  0  0  0  0  0  0  0  0  0
   59.4059   33.9987   50.8475 H   0  0  0  0  0  0  0  0  0  0  0  0
   56.8142   33.4235   47.3091 H   0  0  0  0  0  0  0  0  0  0  0  0
   58.5622   33.7849   47.0356 H   0  0  0  0  0  0  0  0  0  0  0  0
   58.6825   34.0717   44.4143 H   0  0  0  0  0  0  0  0  0  0  0  0
   58.0047   32.4500   42.3556 H   0  0  0  0  0  0  0  0  0  0  0  0
   56.7389   30.3514   43.4281 H   0  0  0  0  0  0  0  0  0  0  0  0
   57.9723   29.9539   50.3010 H   0  0  0  0  0  0  0  0  0  0  0  0
   55.4466   30.3498   50.9228 H   0  0  0  0  0  0  0  0  0  0  0  0
   53.4539   31.5076   49.9828 H   0  0  0  0  0  0  0  0  0  0  0  0
   51.5281   31.3357   53.8598 H   0  0  0  0  0  0  0  0  0  0  0  0
   53.5246   30.1758   54.7968 H   0  0  0  0  0  0  0  0  0  0  0  0
   57.5570   31.8990   54.1488 H   0  0  0  0  0  0  0  0  0  0  0  0
  1  2  1  0
  2  3  2  0
  3  4  1  0
  4  5  1  0
  5  6  2  0
  5  7  1  0
  7  8  1  0
  8  9  1  0
  9 10  2  0
 10 11  1  0
 11 12  2  0
 12 13  1  0
  4 14  2  0
 14 15  1  0
 15 16  1  0
 16 17  2  0
 16 18  1  0
 18 19  1  0
 19 20  2  0
 20 21  1  0
 21 22  2  0
 22 23  1  0
 23 24  2  0
 23 25  1  0
 22 26  1  0
 26 27  2  0
 15 28  2  0
 28  2  1  0
 13  9  1  0
 27 19  1  0
  1 29  1  0
  1 30  1  0
  1 31  1  0
  3 32  1  0
  8 33  1  0
  8 34  1  0
 10 35  1  0
 11 36  1  0
 12 37  1  0
 14 38  1  0
 20 39  1  0
 21 40  1  0
 26 41  1  0
 27 42  1  0
 28 43  1  0
M  CHG  3   7  -1  18  -1  25  -1
M  END
>  <UniqueID>  (37) 
35

>  <SMILES>  (37) 
Cc1cc(C(=O)[N-]Cc2ccco2)cc(C(=O)[N-]c2ccc(C(=O)[O-])cc2)c1

>  <Energy>  (37) 
79.4241486934693

>  <Genealogy>  (37) 
Cc1cc(C(=O)[N-]Cc2ccco2)cc(C(=O)[N-]c2ccc(C(=O)[O-])cc2)c1 (protonated)
Cc1cc(C(=O)[N-]Cc2ccco2)cc(C(=O)[N-]c2ccc(C(=O)[O-])cc2)c1 (3D coordinates assigned)
Cc1cc(C(=O)[N-]Cc2ccco2)cc(C(=O)[N-]c2ccc(C(=O)[O-])cc2)c1 (optimized conformer: 79.4241486934693 kcal/mol)

>  <smiles>  (37) 
Cc1cc(C(=O)NCc2ccco2)cc(C(=O)Nc2ccc(C(=O)O)cc2)c1

>  <score_type>  (37) 
oracle

>  <origin>  (37) 
adg

>  <m_score__min__energy>  (37) 
-13.300000000000001

>  <m_primary>  (37) 
energy

$$$$
37:0
     RDKit          3D

 48 50  0  0  0  0  0  0  0  0999 V2000
   62.6290   34.2110   49.7620 C   0  0  0  0  0  0  0  0  0  0  0  0
   61.3490   33.9880   49.1790 O   0  0  0  0  0  0  0  0  0  0  0  0
   60.3100   33.2620   49.7860 C   0  0  0  0  0  0  0  0  0  0  0  0
   59.4900   33.8310   50.7780 C   0  0  0  0  0  0  0  0  0  0  0  0
   58.4680   33.0870   51.3670 C   0  0  0  0  0  0  0  0  0  0  0  0
   58.2450   31.7550   50.9830 C   0  0  0  0  0  0  0  0  0  0  0  0
   57.1640   30.9460   51.5910 C   0  0  0  0  0  0  0  0  0  0  0  0
   55.9250   31.3840   52.0240 C   0  0  0  0  0  0  0  0  0  0  0  0
   55.3210   30.2350   52.4890 C   0  0  0  0  0  0  0  0  0  0  0  0
   53.9790   30.1520   53.1360 C   0  0  0  0  0  0  0  0  0  0  0  0
   56.1590   29.1910   52.3560 N   0  0  0  0  0  0  0  0  0  0  0  0
   57.2470   29.6530   51.8100 O   0  0  0  0  0  0  0  0  0  0  0  0
   59.0650   31.1850   49.9970 C   0  0  0  0  0  0  0  0  0  0  0  0
   60.0880   31.9300   49.3890 C   0  0  0  0  0  0  0  0  0  0  0  0
   61.1020   31.2040   48.1340 S   0  0  0  0  0  0  0  0  0  0  0  0
   61.9030   30.0800   48.7290 O   0  0  0  0  0  0  0  0  0  0  0  0
   62.0350   32.2600   47.6100 O   0  0  0  0  0  0  0  0  0  0  0  0
   60.1560   30.5870   46.8160 N   0  0  0  0  0  0  0  0  0  0  0  0
   59.1050   31.3520   46.2100 C   0  0  0  0  0  0  0  0  0  0  0  0
   59.1550   32.7550   46.2530 C   0  0  0  0  0  0  0  0  0  0  0  0
   60.1830   33.3910   46.8680 F   0  0  0  0  0  0  0  0  0  0  0  0
   58.1710   33.5140   45.6270 C   0  0  0  0  0  0  0  0  0  0  0  0
   57.1330   32.8890   44.9390 C   0  0  0  0  0  0  0  0  0  0  0  0
   57.0610   31.4840   44.8730 C   0  0  0  0  0  0  0  0  0  0  0  0
   56.0270   30.8440   44.1720 O   0  0  0  0  0  0  0  0  0  0  0  0
   56.2040   30.0670   42.9910 C   0  0  0  0  0  0  0  0  0  0  0  0
   58.0500   30.7070   45.5220 C   0  0  0  0  0  0  0  0  0  0  0  0
   57.9610   28.9310   45.5220 S   0  0  0  0  0  0  0  0  0  0  0  0
   56.3050   28.4340   45.5210 N   0  0  0  0  0  0  0  0  0  0  0  0
   58.6450   28.4040   44.2940 O   0  0  0  0  0  0  0  0  0  0  0  0
   58.6380   28.3400   46.7260 O   0  0  0  0  0  0  0  0  0  0  0  0
   62.5403   34.1955   50.8583 H   0  0  0  0  0  0  0  0  0  0  0  0
   63.3219   33.4200   49.4390 H   0  0  0  0  0  0  0  0  0  0  0  0
   63.0136   35.1897   49.4390 H   0  0  0  0  0  0  0  0  0  0  0  0
   59.6566   34.8721   51.0917 H   0  0  0  0  0  0  0  0  0  0  0  0
   57.8321   33.5469   52.1378 H   0  0  0  0  0  0  0  0  0  0  0  0
   55.5185   32.4059   52.0024 H   0  0  0  0  0  0  0  0  0  0  0  0
   54.0981   30.1594   54.2295 H   0  0  0  0  0  0  0  0  0  0  0  0
   53.3694   31.0142   52.8277 H   0  0  0  0  0  0  0  0  0  0  0  0
   53.4802   29.2213   52.8277 H   0  0  0  0  0  0  0  0  0  0  0  0
   58.9039   30.1393   49.6961 H   0  0  0  0  0  0  0  0  0  0  0  0
   60.3810   29.6450   46.4290 H   0  0  0  0  0  0  0  0  0  0  0  0
   58.2128   34.6121   45.6755 H   0  0  0  0  0  0  0  0  0  0  0  0
   56.3630   33.4983   44.4431 H   0  0  0  0  0  0  0  0  0  0  0  0
   56.4405   29.0288   43.2672 H   0  0  0  0  0  0  0  0  0  0  0  0
   55.2784   30.0866   42.3970 H   0  0  0  0  0  0  0  0  0  0  0  0
   57.0298   30.4856   42.3970 H   0  0  0  0  0  0  0  0  0  0  0  0
   55.7290   29.2960   45.6380 H   0  0  0  0  0  0  0  0  0  0  0  0
  1  2  1  0
  2  3  1  0
  3  4  2  0
  4  5  1  0
  5  6  2  0
  6  7  1  0
  7  8  2  0
  8  9  1  0
  9 10  1  0
  9 11  2  0
 11 12  1  0
  6 13  1  0
 13 14  2  0
 14 15  1  0
 15 16  2  0
 15 17  2  0
 15 18  1  0
 18 19  1  0
 19 20  2  0
 20 21  1  0
 20 22  1  0
 22 23  2  0
 23 24  1  0
 24 25  1  0
 25 26  1  0
 24 27  2  0
 27 28  1  0
 28 29  1  0
 28 30  2  0
 28 31  2  0
 14  3  1  0
 27 19  1  0
 12  7  1  0
  1 32  1  0
  1 33  1  0
  1 34  1  0
  4 35  1  0
  5 36  1  0
  8 37  1  0
 10 38  1  0
 10 39  1  0
 10 40  1  0
 13 41  1  0
 18 42  1  0
 22 43  1  0
 23 44  1  0
 26 45  1  0
 26 46  1  0
 26 47  1  0
 29 48  1  0
M  CHG  1  29  -1
M  END
>  <UniqueID>  (38) 
36

>  <SMILES>  (38) 
COc1ccc(-c2cc(C)no2)cc1S(=O)(=O)Nc1c(F)ccc(OC)c1S([NH-])(=O)=O

>  <Energy>  (38) 
89.47736930768414

>  <Genealogy>  (38) 
COc1ccc(-c2cc(C)no2)cc1S(=O)(=O)Nc1c(F)ccc(OC)c1S([NH-])(=O)=O (protonated)
COc1ccc(-c2cc(C)no2)cc1S(=O)(=O)Nc1c(F)ccc(OC)c1S([NH-])(=O)=O (3D coordinates assigned)
COc1ccc(-c2cc(C)no2)cc1S(=O)(=O)Nc1c(F)ccc(OC)c1S([NH-])(=O)=O (optimized conformer: 89.47736930768414 kcal/mol)

>  <smiles>  (38) 
COc1ccc(-c2cc(C)no2)cc1S(=O)(=O)Nc1c(F)ccc(OC)c1S(N)(=O)=O

>  <score_type>  (38) 
oracle

>  <origin>  (38) 
adg

>  <m_score__min__energy>  (38) 
-11.85

>  <m_primary>  (38) 
energy

$$$$
38:0
     RDKit          3D

 40 42  0  0  0  0  0  0  0  0999 V2000
   55.0000   23.7180   43.3730 C   0  0  0  0  0  0  0  0  0  0  0  0
   56.3340   23.1200   43.7310 C   0  0  0  0  0  0  0  0  0  0  0  0
   56.5940   21.7810   43.3890 C   0  0  0  0  0  0  0  0  0  0  0  0
   57.8070   21.1820   43.7390 C   0  0  0  0  0  0  0  0  0  0  0  0
   58.7730   21.9120   44.4310 C   0  0  0  0  0  0  0  0  0  0  0  0
   58.5380   23.2480   44.7610 C   0  0  0  0  0  0  0  0  0  0  0  0
   57.3360   23.8710   44.3930 C   0  0  0  0  0  0  0  0  0  0  0  0
   57.1410   25.2500   44.7340 N   0  0  0  0  0  0  0  0  0  0  0  0
   56.8890   25.6820   46.0780 C   0  0  0  0  0  0  0  0  0  0  0  0
   56.7870   24.8410   47.0120 O   0  0  0  0  0  0  0  0  0  0  0  0
   56.6940   27.1380   46.3710 C   0  0  0  0  0  0  0  0  0  0  0  0
   57.0810   27.9410   45.2180 N   0  0  0  0  0  0  0  0  0  0  0  0
   56.3570   29.0970   44.7790 C   0  0  0  0  0  0  0  0  0  0  0  0
   55.1310   29.0070   44.5010 O   0  0  0  0  0  0  0  0  0  0  0  0
   57.0350   30.3980   44.6470 C   0  0  0  0  0  0  0  0  0  0  0  0
   57.3070   30.9530   43.3850 C   0  0  0  0  0  0  0  0  0  0  0  0
   57.9490   32.1900   43.3080 C   0  0  0  0  0  0  0  0  0  0  0  0
   58.1940   32.6950   42.1790 O   0  0  0  0  0  0  0  0  0  0  0  0
   58.3110   32.8530   44.4920 C   0  0  0  0  0  0  0  0  0  0  0  0
   58.9620   34.1010   44.4870 C   0  0  0  0  0  0  0  0  0  0  0  0
   59.3000   34.7190   45.6940 C   0  0  0  0  0  0  0  0  0  0  0  0
   58.9950   34.1010   46.9110 C   0  0  0  0  0  0  0  0  0  0  0  0
   58.3500   32.8610   46.9280 C   0  0  0  0  0  0  0  0  0  0  0  0
   58.0060   32.2330   45.7250 C   0  0  0  0  0  0  0  0  0  0  0  0
   57.3920   31.0530   45.7510 O   0  0  0  0  0  0  0  0  0  0  0  0
   54.4499   23.9646   44.2931 H   0  0  0  0  0  0  0  0  0  0  0  0
   55.1550   24.6328   42.7821 H   0  0  0  0  0  0  0  0  0  0  0  0
   54.4202   22.9937   42.7821 H   0  0  0  0  0  0  0  0  0  0  0  0
   55.8366   21.2006   42.8417 H   0  0  0  0  0  0  0  0  0  0  0  0
   58.0001   20.1334   43.4684 H   0  0  0  0  0  0  0  0  0  0  0  0
   59.7216   21.4344   44.7173 H   0  0  0  0  0  0  0  0  0  0  0  0
   59.3007   23.8163   45.3135 H   0  0  0  0  0  0  0  0  0  0  0  0
   56.9810   25.9310   43.9580 H   0  0  0  0  0  0  0  0  0  0  0  0
   55.6348   27.3230   46.6033 H   0  0  0  0  0  0  0  0  0  0  0  0
   57.3219   27.4180   47.2297 H   0  0  0  0  0  0  0  0  0  0  0  0
   57.0173   30.4187   42.4682 H   0  0  0  0  0  0  0  0  0  0  0  0
   59.2049   34.5903   43.5322 H   0  0  0  0  0  0  0  0  0  0  0  0
   59.8077   35.6948   45.6868 H   0  0  0  0  0  0  0  0  0  0  0  0
   59.2635   34.5923   47.8578 H   0  0  0  0  0  0  0  0  0  0  0  0
   58.1125   32.3782   47.8874 H   0  0  0  0  0  0  0  0  0  0  0  0
  1  2  1  0
  2  3  2  0
  3  4  1  0
  4  5  2  0
  5  6  1  0
  6  7  2  0
  7  8  1  0
  8  9  1  0
  9 10  2  0
  9 11  1  0
 11 12  1  0
 12 13  1  0
 13 14  2  0
 13 15  1  0
 15 16  2  0
 16 17  1  0
 17 18  2  0
 17 19  1  0
 19 20  2  0
 20 21  1  0
 21 22  2  0
 22 23  1  0
 23 24  2  0
 24 25  1  0
  7  2  1  0
 25 15  1  0
 24 19  1  0
  1 26  1  0
  1 27  1  0
  1 28  1  0
  3 29  1  0
  4 30  1  0
  5 31  1  0
  6 32  1  0
  8 33  1  0
 11 34  1  0
 11 35  1  0
 16 36  1  0
 20 37  1  0
 21 38  1  0
 22 39  1  0
 23 40  1  0
M  CHG  1  12  -1
M  END
>  <UniqueID>  (39) 
37

>  <SMILES>  (39) 
Cc1ccccc1NC(=O)C[N-]C(=O)c1cc(=O)c2ccccc2o1

>  <Energy>  (39) 
49.77710361061822

>  <Genealogy>  (39) 
Cc1ccccc1NC(=O)C[N-]C(=O)c1cc(=O)c2ccccc2o1 (protonated)
Cc1ccccc1NC(=O)C[N-]C(=O)c1cc(=O)c2ccccc2o1 (3D coordinates assigned)
Cc1ccccc1NC(=O)C[N-]C(=O)c1cc(=O)c2ccccc2o1 (optimized conformer: 49.77710361061822 kcal/mol)

>  <smiles>  (39) 
Cc1ccccc1NC(=O)CNC(=O)c1cc(=O)c2ccccc2o1

>  <score_type>  (39) 
oracle

>  <origin>  (39) 
adg

>  <m_score__min__energy>  (39) 
-9.9800000000000004

>  <m_primary>  (39) 
energy

$$$$
39:0
     RDKit          3D

 46 48  0  0  0  0  0  0  0  0999 V2000
   58.8150   31.4020   44.9130 O   0  0  0  0  0  0  0  0  0  0  0  0
   58.8090   31.9630   46.0410 C   0  0  0  0  0  0  0  0  0  0  0  0
   59.1390   31.1380   47.2530 C   0  0  0  0  0  0  0  0  0  0  0  0
   60.3590   30.2430   46.9800 C   0  0  0  0  0  0  0  0  0  0  0  0
   60.5890   29.2840   48.1280 C   0  0  0  0  0  0  0  0  0  0  0  0
   61.0290   29.8140   49.3530 C   0  0  0  0  0  0  0  0  0  0  0  0
   61.2420   28.9870   50.4580 C   0  0  0  0  0  0  0  0  0  0  0  0
   61.6930   29.5290   51.6520 O   0  0  0  0  0  0  0  0  0  0  0  0
   61.0000   27.6190   50.3610 C   0  0  0  0  0  0  0  0  0  0  0  0
   61.2000   26.7940   51.4610 O   0  0  0  0  0  0  0  0  0  0  0  0
   60.5560   27.0740   49.1540 C   0  0  0  0  0  0  0  0  0  0  0  0
   60.3550   27.8870   48.0250 C   0  0  0  0  0  0  0  0  0  0  0  0
   59.8880   27.2470   46.7680 C   0  0  0  0  0  0  0  0  0  0  0  0
   60.7370   26.9500   45.8810 O   0  0  0  0  0  0  0  0  0  0  0  0
   58.4460   26.9930   46.5040 C   0  0  0  0  0  0  0  0  0  0  0  0
   57.8490   25.7630   46.8420 C   0  0  0  0  0  0  0  0  0  0  0  0
   56.4880   25.5430   46.5940 C   0  0  0  0  0  0  0  0  0  0  0  0
   55.7110   26.5430   45.9970 C   0  0  0  0  0  0  0  0  0  0  0  0
   54.3590   26.3220   45.7580 O   0  0  0  0  0  0  0  0  0  0  0  0
   56.2960   27.7640   45.6420 C   0  0  0  0  0  0  0  0  0  0  0  0
   55.5270   28.7600   45.0480 O   0  0  0  0  0  0  0  0  0  0  0  0
   57.6570   27.9870   45.8910 C   0  0  0  0  0  0  0  0  0  0  0  0
   58.5110   33.3640   46.1060 N   0  0  0  0  0  0  0  0  0  0  0  0
   59.5830   34.6020   46.6840 S   0  0  0  0  0  0  0  0  0  0  0  0
   59.8610   35.5680   45.5680 O   0  0  0  0  0  0  0  0  0  0  0  0
   58.9110   35.3440   47.8070 O   0  0  0  0  0  0  0  0  0  0  0  0
   61.1070   33.9010   47.2230 C   0  0  0  0  0  0  0  0  0  0  0  0
   62.2050   33.8420   46.3520 C   0  0  0  0  0  0  0  0  0  0  0  0
   63.4080   33.2670   46.7770 C   0  0  0  0  0  0  0  0  0  0  0  0
   63.5200   32.7500   48.0690 C   0  0  0  0  0  0  0  0  0  0  0  0
   62.4310   32.8150   48.9450 C   0  0  0  0  0  0  0  0  0  0  0  0
   61.2230   33.3800   48.5190 C   0  0  0  0  0  0  0  0  0  0  0  0
   59.3629   31.8076   48.0965 H   0  0  0  0  0  0  0  0  0  0  0  0
   58.2764   30.4994   47.4940 H   0  0  0  0  0  0  0  0  0  0  0  0
   60.1854   29.6677   46.0586 H   0  0  0  0  0  0  0  0  0  0  0  0
   61.2478   30.8818   46.8705 H   0  0  0  0  0  0  0  0  0  0  0  0
   61.2082   30.8956   49.4427 H   0  0  0  0  0  0  0  0  0  0  0  0
   60.3609   25.9936   49.0860 H   0  0  0  0  0  0  0  0  0  0  0  0
   58.4554   24.9699   47.3038 H   0  0  0  0  0  0  0  0  0  0  0  0
   56.0286   24.5821   46.8690 H   0  0  0  0  0  0  0  0  0  0  0  0
   58.1134   28.9462   45.6055 H   0  0  0  0  0  0  0  0  0  0  0  0
   62.1203   34.2483   45.3333 H   0  0  0  0  0  0  0  0  0  0  0  0
   64.2672   33.2223   46.0916 H   0  0  0  0  0  0  0  0  0  0  0  0
   64.4642   32.2917   48.3982 H   0  0  0  0  0  0  0  0  0  0  0  0
   62.5240   32.4222   49.9683 H   0  0  0  0  0  0  0  0  0  0  0  0
   60.3625   33.4151   49.2033 H   0  0  0  0  0  0  0  0  0  0  0  0
  1  2  2  0
  2  3  1  0
  3  4  1  0
  4  5  1  0
  5  6  2  0
  6  7  1  0
  7  8  1  0
  7  9  2  0
  9 10  1  0
  9 11  1  0
 11 12  2  0
 12 13  1  0
 13 14  2  0
 13 15  1  0
 15 16  2  0
 16 17  1  0
 17 18  2  0
 18 19  1  0
 18 20  1  0
 20 21  1  0
 20 22  2  0
  2 23  1  0
 23 24  1  0
 24 25  2  0
 24 26  2  0
 24 27  1  0
 27 28  2  0
 28 29  1  0
 29 30  2  0
 30 31  1  0
 31 32  2  0
 12  5  1  0
 22 15  1  0
 32 27  1  0
  3 33  1  0
  3 34  1  0
  4 35  1  0
  4 36  1  0
  6 37  1  0
 11 38  1  0
 16 39  1  0
 17 40  1  0
 22 41  1  0
 28 42  1  0
 29 43  1  0
 30 44  1  0
 31 45  1  0
 32 46  1  0
M  CHG  5   8  -1  10  -1  19  -1  21  -1  23  -1
M  END
>  <UniqueID>  (40) 
38

>  <SMILES>  (40) 
O=C(CCc1cc([O-])c([O-])cc1C(=O)c1ccc([O-])c([O-])c1)[N-]S(=O)(=O)c1ccccc1

>  <Energy>  (40) 
56.16737981561411

>  <Genealogy>  (40) 
O=C(CCc1cc([O-])c([O-])cc1C(=O)c1ccc([O-])c([O-])c1)[N-]S(=O)(=O)c1ccccc1 (protonated)
O=C(CCc1cc([O-])c([O-])cc1C(=O)c1ccc([O-])c([O-])c1)[N-]S(=O)(=O)c1ccccc1 (3D coordinates assigned)
O=C(CCc1cc([O-])c([O-])cc1C(=O)c1ccc([O-])c([O-])c1)[N-]S(=O)(=O)c1ccccc1 (optimized conformer: 56.16737981561411 kcal/mol)

>  <smiles>  (40) 
O=C(CCc1cc(O)c(O)cc1C(=O)c1ccc(O)c(O)c1)NS(=O)(=O)c1ccccc1

>  <score_type>  (40) 
oracle

>  <origin>  (40) 
adg

>  <m_score__min__energy>  (40) 
-19.719999999999999

>  <m_primary>  (40) 
energy

$$$$
40:0
     RDKit          3D

 31 32  0  0  0  0  0  0  0  0999 V2000
   56.3040   25.0070   45.2570 C   0  0  0  0  0  0  0  0  0  0  0  0
   57.6830   25.5090   45.6190 C   0  0  0  0  0  0  0  0  0  0  0  0
   57.8830   26.8950   45.8460 C   0  0  0  0  0  0  0  0  0  0  0  0
   56.7680   27.7980   45.7480 N   0  0  0  0  0  0  0  0  0  0  0  0
   56.6060   29.0860   44.6000 S   0  0  0  0  0  0  0  0  0  0  0  0
   55.1560   29.4610   44.4790 O   0  0  0  0  0  0  0  0  0  0  0  0
   57.1080   28.6250   43.2600 O   0  0  0  0  0  0  0  0  0  0  0  0
   57.5100   30.4850   45.1440 C   0  0  0  0  0  0  0  0  0  0  0  0
   58.4080   30.5130   46.2010 C   0  0  0  0  0  0  0  0  0  0  0  0
   58.9650   31.7800   46.4080 C   0  0  0  0  0  0  0  0  0  0  0  0
   58.5050   32.7430   45.5190 C   0  0  0  0  0  0  0  0  0  0  0  0
   57.4020   32.0210   44.4730 S   0  0  0  0  0  0  0  0  0  0  0  0
   59.1680   27.3690   46.1570 C   0  0  0  0  0  0  0  0  0  0  0  0
   60.2450   26.4920   46.2400 C   0  0  0  0  0  0  0  0  0  0  0  0
   60.0630   25.1340   46.0000 C   0  0  0  0  0  0  0  0  0  0  0  0
   58.7960   24.6260   45.6730 C   0  0  0  0  0  0  0  0  0  0  0  0
   58.6560   22.8900   45.3230 S   0  0  0  0  0  0  0  0  0  0  0  0
   60.2120   22.1330   45.3590 N   0  0  0  0  0  0  0  0  0  0  0  0
   58.0150   22.6900   43.9780 O   0  0  0  0  0  0  0  0  0  0  0  0
   57.7930   22.2250   46.3610 O   0  0  0  0  0  0  0  0  0  0  0  0
   55.7361   24.8003   46.1761 H   0  0  0  0  0  0  0  0  0  0  0  0
   55.7789   25.7717   44.6657 H   0  0  0  0  0  0  0  0  0  0  0  0
   56.3934   24.0837   44.6657 H   0  0  0  0  0  0  0  0  0  0  0  0
   58.6560   29.6324   46.8118 H   0  0  0  0  0  0  0  0  0  0  0  0
   59.6980   31.9932   47.2000 H   0  0  0  0  0  0  0  0  0  0  0  0
   58.8103   33.7996   45.5016 H   0  0  0  0  0  0  0  0  0  0  0  0
   59.3243   28.4429   46.3365 H   0  0  0  0  0  0  0  0  0  0  0  0
   61.2442   26.8740   46.4964 H   0  0  0  0  0  0  0  0  0  0  0  0
   60.9220   24.4502   46.0673 H   0  0  0  0  0  0  0  0  0  0  0  0
   60.0760   21.1110   45.1920 H   0  0  0  0  0  0  0  0  0  0  0  0
   60.7620   22.5070   44.5530 H   0  0  0  0  0  0  0  0  0  0  0  0
  1  2  1  0
  2  3  2  0
  3  4  1  0
  4  5  1  0
  5  6  2  0
  5  7  2  0
  5  8  1  0
  8  9  2  0
  9 10  1  0
 10 11  2  0
 11 12  1  0
  3 13  1  0
 13 14  2  0
 14 15  1  0
 15 16  2  0
 16 17  1  0
 17 18  1  0
 17 19  2  0
 17 20  2  0
 16  2  1  0
 12  8  1  0
  1 21  1  0
  1 22  1  0
  1 23  1  0
  9 24  1  0
 10 25  1  0
 11 26  1  0
 13 27  1  0
 14 28  1  0
 15 29  1  0
 18 30  1  0
 18 31  1  0
M  CHG  1   4  -1
M  END
>  <UniqueID>  (41) 
39

>  <SMILES>  (41) 
Cc1c([N-]S(=O)(=O)c2cccs2)cccc1S(N)(=O)=O

>  <Energy>  (41) 
63.16467316103803

>  <Genealogy>  (41) 
Cc1c([N-]S(=O)(=O)c2cccs2)cccc1S(N)(=O)=O (protonated)
Cc1c([N-]S(=O)(=O)c2cccs2)cccc1S(N)(=O)=O (3D coordinates assigned)
Cc1c([N-]S(=O)(=O)c2cccs2)cccc1S(N)(=O)=O (optimized conformer: 63.16467316103803 kcal/mol)

>  <smiles>  (41) 
Cc1c(NS(=O)(=O)c2cccs2)cccc1S(N)(=O)=O

>  <score_type>  (41) 
oracle

>  <origin>  (41) 
adg

>  <m_score__min__energy>  (41) 
-9.1699999999999999

>  <m_primary>  (41) 
energy

$$$$
41:0
     RDKit          3D

 58 60  0  0  0  0  0  0  0  0999 V2000
   68.6400   34.1840   50.4410 C   0  0  0  0  0  0  0  0  0  0  0  0
   67.4030   33.4870   51.0050 C   0  0  0  0  0  0  0  0  0  0  0  0
   66.9390   32.2950   50.1510 C   0  0  0  0  0  0  0  0  0  0  0  0
   65.4210   32.0270   50.2360 C   0  0  0  0  0  0  0  0  0  0  0  0
   64.6230   33.2970   50.5670 C   0  0  0  0  0  0  0  0  0  0  0  0
   63.4720   33.4580   49.6120 C   0  0  0  0  0  0  0  0  0  0  0  0
   63.6170   33.1080   48.2600 C   0  0  0  0  0  0  0  0  0  0  0  0
   62.5610   33.2990   47.3650 C   0  0  0  0  0  0  0  0  0  0  0  0
   61.3490   33.8590   47.8030 C   0  0  0  0  0  0  0  0  0  0  0  0
   60.2460   34.1020   46.8520 C   0  0  0  0  0  0  0  0  0  0  0  0
   59.1280   33.3470   46.7940 N   0  0  0  0  0  0  0  0  0  0  0  0
   58.4350   33.9040   45.7840 C   0  0  0  0  0  0  0  0  0  0  0  0
   57.1280   33.3770   45.2750 C   0  0  0  0  0  0  0  0  0  0  0  0
   57.3200   32.1010   44.4480 C   0  0  0  0  0  0  0  0  0  0  0  0
   56.2800   31.1180   44.7390 N   0  0  0  0  0  0  0  0  0  0  0  0
   56.4880   29.7000   44.7100 C   0  0  0  0  0  0  0  0  0  0  0  0
   55.5120   28.9240   44.8990 O   0  0  0  0  0  0  0  0  0  0  0  0
   57.8420   29.1280   44.3260 C   0  0  0  0  0  0  0  0  0  0  0  0
   57.7850   27.5960   44.0420 C   0  0  0  0  0  0  0  0  0  0  0  0
   58.3080   26.7220   45.1990 C   0  0  0  0  0  0  0  0  0  0  0  0
   58.0150   27.3590   46.5570 C   0  0  0  0  0  0  0  0  0  0  0  0
   58.7160   28.7230   46.7090 C   0  0  0  0  0  0  0  0  0  0  0  0
   58.9370   29.4510   45.3670 C   0  0  0  0  0  0  0  0  0  0  0  0
   59.1430   34.9660   45.2690 C   0  0  0  0  0  0  0  0  0  0  0  0
   60.2570   35.0620   45.9520 O   0  0  0  0  0  0  0  0  0  0  0  0
   61.2070   34.2110   49.1550 C   0  0  0  0  0  0  0  0  0  0  0  0
   62.2620   34.0160   50.0510 C   0  0  0  0  0  0  0  0  0  0  0  0
   69.2704   34.5392   51.2695 H   0  0  0  0  0  0  0  0  0  0  0  0
   69.2110   33.4748   49.8237 H   0  0  0  0  0  0  0  0  0  0  0  0
   68.3292   35.0398   49.8237 H   0  0  0  0  0  0  0  0  0  0  0  0
   67.6371   33.1229   52.0162 H   0  0  0  0  0  0  0  0  0  0  0  0
   66.5860   34.2236   51.0108 H   0  0  0  0  0  0  0  0  0  0  0  0
   67.1980   32.4976   49.1013 H   0  0  0  0  0  0  0  0  0  0  0  0
   67.4466   31.4010   50.5424 H   0  0  0  0  0  0  0  0  0  0  0  0
   65.0762   31.6347   49.2679 H   0  0  0  0  0  0  0  0  0  0  0  0
   65.2518   31.3023   51.0461 H   0  0  0  0  0  0  0  0  0  0  0  0
   64.2345   33.2235   51.5935 H   0  0  0  0  0  0  0  0  0  0  0  0
   65.2870   34.1692   50.4752 H   0  0  0  0  0  0  0  0  0  0  0  0
   64.5663   32.6815   47.9037 H   0  0  0  0  0  0  0  0  0  0  0  0
   62.6793   33.0090   46.3105 H   0  0  0  0  0  0  0  0  0  0  0  0
   56.4752   33.1529   46.1315 H   0  0  0  0  0  0  0  0  0  0  0  0
   56.6760   34.1428   44.6276 H   0  0  0  0  0  0  0  0  0  0  0  0
   57.2813   32.3577   43.3791 H   0  0  0  0  0  0  0  0  0  0  0  0
   58.2946   31.6623   44.7081 H   0  0  0  0  0  0  0  0  0  0  0  0
   58.1185   29.6290   43.3866 H   0  0  0  0  0  0  0  0  0  0  0  0
   56.7385   27.3196   43.8460 H   0  0  0  0  0  0  0  0  0  0  0  0
   58.4423   27.4083   43.1802 H   0  0  0  0  0  0  0  0  0  0  0  0
   57.8194   25.7376   45.1528 H   0  0  0  0  0  0  0  0  0  0  0  0
   59.3982   26.6227   45.0917 H   0  0  0  0  0  0  0  0  0  0  0  0
   56.9290   27.5031   46.6565 H   0  0  0  0  0  0  0  0  0  0  0  0
   58.3966   26.6878   47.3405 H   0  0  0  0  0  0  0  0  0  0  0  0
   58.0972   29.3630   47.3551 H   0  0  0  0  0  0  0  0  0  0  0  0
   59.7089   28.5314   47.1419 H   0  0  0  0  0  0  0  0  0  0  0  0
   58.9386   30.5355   45.5511 H   0  0  0  0  0  0  0  0  0  0  0  0
   59.8976   29.1066   44.9565 H   0  0  0  0  0  0  0  0  0  0  0  0
   58.8310   35.6147   44.4372 H   0  0  0  0  0  0  0  0  0  0  0  0
   60.2600   34.6427   49.5110 H   0  0  0  0  0  0  0  0  0  0  0  0
   62.1428   34.3017   51.1065 H   0  0  0  0  0  0  0  0  0  0  0  0
  1  2  1  0
  2  3  1  0
  3  4  1  0
  4  5  1  0
  5  6  1  0
  6  7  2  0
  7  8  1  0
  8  9  2  0
  9 10  1  0
 10 11  2  0
 11 12  1  0
 12 13  1  0
 13 14  1  0
 14 15  1  0
 15 16  1  0
 16 17  2  0
 16 18  1  0
 18 19  1  0
 19 20  1  0
 20 21  1  0
 21 22  1  0
 22 23  1  0
 12 24  2  0
 24 25  1  0
  9 26  1  0
 26 27  2  0
 27  6  1  0
 25 10  1  0
 23 18  1  0
  1 28  1  0
  1 29  1  0
  1 30  1  0
  2 31  1  0
  2 32  1  0
  3 33  1  0
  3 34  1  0
  4 35  1  0
  4 36  1  0
  5 37  1  0
  5 38  1  0
  7 39  1  0
  8 40  1  0
 13 41  1  0
 13 42  1  0
 14 43  1  0
 14 44  1  0
 18 45  1  0
 19 46  1  0
 19 47  1  0
 20 48  1  0
 20 49  1  0
 21 50  1  0
 21 51  1  0
 22 52  1  0
 22 53  1  0
 23 54  1  0
 23 55  1  0
 24 56  1  0
 26 57  1  0
 27 58  1  0
M  CHG  1  15  -1
M  END
>  <UniqueID>  (42) 
40

>  <SMILES>  (42) 
CCCCCc1ccc(-c2nc(CC[N-]C(=O)C3CCCCC3)co2)cc1

>  <Energy>  (42) 
78.10102033537135

>  <Genealogy>  (42) 
CCCCCc1ccc(-c2nc(CC[N-]C(=O)C3CCCCC3)co2)cc1 (protonated)
CCCCCc1ccc(-c2nc(CC[N-]C(=O)C3CCCCC3)co2)cc1 (3D coordinates assigned)
CCCCCc1ccc(-c2nc(CC[N-]C(=O)C3CCCCC3)co2)cc1 (nonaromatic ring conformer: 78.10102033537135 kcal/mol)

>  <smiles>  (42) 
CCCCCc1ccc(-c2nc(CCNC(=O)C3CCCCC3)co2)cc1

>  <score_type>  (42) 
oracle

>  <origin>  (42) 
adg

>  <m_score__min__energy>  (42) 
-11.1

>  <m_primary>  (42) 
energy

$$$$
42:0
     RDKit          3D

 39 40  0  0  0  0  0  0  0  0999 V2000
   56.9580   34.2050   45.2550 C   0  0  0  0  0  0  0  0  0  0  0  0
   58.2710   33.4030   45.3710 C   0  0  0  0  0  0  0  0  0  0  0  0
   58.1630   32.1180   44.5240 C   0  0  0  0  0  0  0  0  0  0  0  0
   59.4230   34.2640   44.8110 C   0  0  0  0  0  0  0  0  0  0  0  0
   58.5900   33.0660   46.8580 C   0  0  0  0  0  0  0  0  0  0  0  0
   60.0640   33.0570   47.1940 C   0  0  0  0  0  0  0  0  0  0  0  0
   60.6530   34.1550   47.8410 C   0  0  0  0  0  0  0  0  0  0  0  0
   62.0170   34.1490   48.1470 C   0  0  0  0  0  0  0  0  0  0  0  0
   62.8100   33.0390   47.8310 C   0  0  0  0  0  0  0  0  0  0  0  0
   64.2160   33.0680   48.1290 N   0  0  0  0  0  0  0  0  0  0  0  0
   64.7610   33.1160   49.4550 C   0  0  0  0  0  0  0  0  0  0  0  0
   64.1380   33.6140   50.4680 N   0  0  0  0  0  0  0  0  0  0  0  0
   64.9930   33.5880   51.6470 C   0  0  0  0  0  0  0  0  0  0  0  0
   66.3180   32.9780   51.1560 C   0  0  0  0  0  0  0  0  0  0  0  0
   66.0850   32.7200   49.7460 N   0  0  0  0  0  0  0  0  0  0  0  0
   62.2270   31.9450   47.1690 C   0  0  0  0  0  0  0  0  0  0  0  0
   60.8630   31.9500   46.8630 C   0  0  0  0  0  0  0  0  0  0  0  0
   56.5794   34.4362   46.2616 H   0  0  0  0  0  0  0  0  0  0  0  0
   57.1474   35.1417   44.7104 H   0  0  0  0  0  0  0  0  0  0  0  0
   56.2111   33.6088   44.7104 H   0  0  0  0  0  0  0  0  0  0  0  0
   58.0896   31.2453   45.1895 H   0  0  0  0  0  0  0  0  0  0  0  0
   57.2662   32.1715   43.8893 H   0  0  0  0  0  0  0  0  0  0  0  0
   59.0562   32.0211   43.8893 H   0  0  0  0  0  0  0  0  0  0  0  0
   59.9981   34.6938   45.6444 H   0  0  0  0  0  0  0  0  0  0  0  0
   60.0837   33.6365   44.1948 H   0  0  0  0  0  0  0  0  0  0  0  0
   59.0083   35.0753   44.1948 H   0  0  0  0  0  0  0  0  0  0  0  0
   58.0967   33.8157   47.4941 H   0  0  0  0  0  0  0  0  0  0  0  0
   58.2216   32.0447   47.0344 H   0  0  0  0  0  0  0  0  0  0  0  0
   60.0369   35.0260   48.1090 H   0  0  0  0  0  0  0  0  0  0  0  0
   62.4704   35.0220   48.6393 H   0  0  0  0  0  0  0  0  0  0  0  0
   64.8910   33.0680   47.3310 H   0  0  0  0  0  0  0  0  0  0  0  0
   63.1780   34.0240   50.4450 H   0  0  0  0  0  0  0  0  0  0  0  0
   65.1538   34.6058   52.0320 H   0  0  0  0  0  0  0  0  0  0  0  0
   64.5486   33.0096   52.4704 H   0  0  0  0  0  0  0  0  0  0  0  0
   67.1486   33.6863   51.2918 H   0  0  0  0  0  0  0  0  0  0  0  0
   66.5980   32.0709   51.7117 H   0  0  0  0  0  0  0  0  0  0  0  0
   66.7710   32.3140   49.0710 H   0  0  0  0  0  0  0  0  0  0  0  0
   62.8472   31.0803   46.8902 H   0  0  0  0  0  0  0  0  0  0  0  0
   60.4125   31.0817   46.3599 H   0  0  0  0  0  0  0  0  0  0  0  0
  1  2  1  0
  2  3  1  0
  2  4  1  0
  2  5  1  0
  5  6  1  0
  6  7  2  0
  7  8  1  0
  8  9  2  0
  9 10  1  0
 10 11  1  0
 11 12  2  0
 12 13  1  0
 13 14  1  0
 14 15  1  0
  9 16  1  0
 16 17  2  0
 17  6  1  0
 15 11  1  0
  1 18  1  0
  1 19  1  0
  1 20  1  0
  3 21  1  0
  3 22  1  0
  3 23  1  0
  4 24  1  0
  4 25  1  0
  4 26  1  0
  5 27  1  0
  5 28  1  0
  7 29  1  0
  8 30  1  0
 10 31  1  0
 12 32  1  0
 13 33  1  0
 13 34  1  0
 14 35  1  0
 14 36  1  0
 15 37  1  0
 16 38  1  0
 17 39  1  0
M  CHG  1  12   1
M  END
>  <UniqueID>  (43) 
41

>  <SMILES>  (43) 
CC(C)(C)Cc1ccc(NC2=[NH+]CCN2)cc1

>  <Energy>  (43) 
47.568428879706715

>  <Genealogy>  (43) 
CC(C)(C)Cc1ccc(NC2=[NH+]CCN2)cc1 (protonated)
CC(C)(C)Cc1ccc(NC2=[NH+]CCN2)cc1 (3D coordinates assigned)
CC(C)(C)Cc1ccc(NC2=[NH+]CCN2)cc1 (nonaromatic ring conformer: 47.568428879706715 kcal/mol)

>  <smiles>  (43) 
CC(C)(C)Cc1ccc(NC2=NCCN2)cc1

>  <score_type>  (43) 
oracle

>  <origin>  (43) 
adg

>  <m_score__min__energy>  (43) 
-5.1200000000000001

>  <m_primary>  (43) 
energy

$$$$
43:0
     RDKit          3D

 27 29  0  0  0  0  0  0  0  0999 V2000
   57.1330   33.3570   46.5800 O   0  0  0  0  0  0  0  0  0  0  0  0
   58.2280   33.4410   45.9610 C   0  0  0  0  0  0  0  0  0  0  0  0
   58.4610   32.5580   44.8540 N   0  0  0  0  0  0  0  0  0  0  0  0
   57.5920   31.7380   44.3410 C   0  0  0  0  0  0  0  0  0  0  0  0
   56.7710   30.9290   45.0500 N   0  0  0  0  0  0  0  0  0  0  0  0
   56.0120   30.1560   44.2150 C   0  0  0  0  0  0  0  0  0  0  0  0
   55.1730   29.3330   44.6660 O   0  0  0  0  0  0  0  0  0  0  0  0
   56.2060   30.3120   42.8790 N   0  0  0  0  0  0  0  0  0  0  0  0
   57.3830   31.4710   42.7130 S   0  0  0  0  0  0  0  0  0  0  0  0
   59.2590   34.3800   46.4480 C   0  0  0  0  0  0  0  0  0  0  0  0
   59.5790   35.3700   45.7370 O   0  0  0  0  0  0  0  0  0  0  0  0
   59.9970   34.1340   47.6990 C   0  0  0  0  0  0  0  0  0  0  0  0
   59.4320   34.0810   48.9690 C   0  0  0  0  0  0  0  0  0  0  0  0
   60.3830   33.8610   49.9040 N   0  0  0  0  0  0  0  0  0  0  0  0
   61.5450   33.7580   49.2360 C   0  0  0  0  0  0  0  0  0  0  0  0
   62.8010   33.4970   49.7800 C   0  0  0  0  0  0  0  0  0  0  0  0
   63.8890   33.3760   48.8990 C   0  0  0  0  0  0  0  0  0  0  0  0
   63.6980   33.5010   47.5070 C   0  0  0  0  0  0  0  0  0  0  0  0
   62.4180   33.7600   46.9820 C   0  0  0  0  0  0  0  0  0  0  0  0
   62.2340   33.8100   45.6400 F   0  0  0  0  0  0  0  0  0  0  0  0
   61.3550   33.9090   47.8820 C   0  0  0  0  0  0  0  0  0  0  0  0
   55.7170   29.8010   42.1110 H   0  0  0  0  0  0  0  0  0  0  0  0
   58.3597   34.2015   49.1828 H   0  0  0  0  0  0  0  0  0  0  0  0
   60.2380   33.7780   50.9340 H   0  0  0  0  0  0  0  0  0  0  0  0
   62.9367   33.3890   50.8662 H   0  0  0  0  0  0  0  0  0  0  0  0
   64.8959   33.1826   49.2973 H   0  0  0  0  0  0  0  0  0  0  0  0
   64.5559   33.3953   46.8267 H   0  0  0  0  0  0  0  0  0  0  0  0
  1  2  2  0
  2  3  1  0
  3  4  2  3
  4  5  1  0
  5  6  1  0
  6  7  2  0
  6  8  1  0
  8  9  1  0
  2 10  1  0
 10 11  2  0
 10 12  1  0
 12 13  2  0
 13 14  1  0
 14 15  1  0
 15 16  2  0
 16 17  1  0
 17 18  2  0
 18 19  1  0
 19 20  1  0
 19 21  2  0
  9  4  1  0
 21 12  1  0
 21 15  1  0
  8 22  1  0
 13 23  1  0
 14 24  1  0
 16 25  1  0
 17 26  1  0
 18 27  1  0
M  CHG  1   5  -1
M  END
>  <UniqueID>  (44) 
42

>  <SMILES>  (44) 
O=C(N=c1[n-]c(=O)[nH]s1)C(=O)c1c[nH]c2cccc(F)c12

>  <Energy>  (44) 
111.73504259631609

>  <Genealogy>  (44) 
O=C(N=c1[n-]c(=O)[nH]s1)C(=O)c1c[nH]c2cccc(F)c12 (protonated)
O=C(N=c1[n-]c(=O)[nH]s1)C(=O)c1c[nH]c2cccc(F)c12 (3D coordinates assigned)
O=C(N=c1[n-]c(=O)[nH]s1)C(=O)c1c[nH]c2cccc(F)c12 (optimized conformer: 111.73504259631609 kcal/mol)

>  <smiles>  (44) 
O=C(N=c1[nH]c(=O)[nH]s1)C(=O)c1c[nH]c2cccc(F)c12

>  <score_type>  (44) 
oracle

>  <origin>  (44) 
adg

>  <m_score__min__energy>  (44) 
-9.3399999999999999

>  <m_primary>  (44) 
energy

$$$$
44:0
     RDKit          3D

 45 47  0  0  1  0  0  0  0  0999 V2000
   56.5340   30.0620   42.8810 C   0  0  0  0  0  0  0  0  0  0  0  0
   56.7420   29.9960   44.6270 S   0  0  0  0  0  0  0  0  0  0  0  0
   56.7600   31.4160   45.1740 O   0  0  0  0  0  0  0  0  0  0  0  0
   55.5100   29.3670   45.2160 O   0  0  0  0  0  0  0  0  0  0  0  0
   58.2060   29.1960   45.1040 C   0  0  0  0  0  0  0  0  0  0  0  0
   59.2910   29.0850   44.2570 C   0  0  0  0  0  0  0  0  0  0  0  0
   60.4310   28.4280   44.7150 C   0  0  0  0  0  0  0  0  0  0  0  0
   60.4710   27.8980   45.9940 C   0  0  0  0  0  0  0  0  0  0  0  0
   59.3800   28.0020   46.8630 C   0  0  0  0  0  0  0  0  0  0  0  0
   59.4290   27.4560   48.1760 N   0  0  0  0  0  0  0  0  0  0  0  0
   59.9040   28.1620   49.1470 C   0  0  0  0  0  0  0  0  0  0  0  0
   60.4190   27.6300   50.2710 N   0  0  0  0  0  0  0  0  0  0  0  0
   60.9110   28.3710   51.2800 C   0  0  0  0  0  0  0  0  0  0  0  0
   60.8990   29.7570   51.1800 C   0  0  0  0  0  0  0  0  0  0  0  0
   60.3660   30.2990   50.0170 C   0  0  0  0  0  0  0  0  0  0  0  0
   60.3460   31.5690   49.9080 N   0  0  0  0  0  0  0  0  0  0  0  0
   59.8360   32.2180   48.7500 C   0  0  0  0  0  0  0  0  0  0  0  0
   58.5160   32.5950   48.6130 C   0  0  0  0  0  0  0  0  0  0  0  0
   58.1250   33.2270   47.4280 C   0  0  0  0  0  0  0  0  0  0  0  0
   59.0600   33.4630   46.4230 C   0  0  0  0  0  0  0  0  0  0  0  0
   58.4920   34.2620   44.9650 S   0  0  0  0  0  0  0  0  0  0  0  0
   56.7940   34.3940   45.0110 N   0  0  0  0  0  0  0  0  0  0  0  0
   59.0680   35.6530   44.8520 O   0  0  0  0  0  0  0  0  0  0  0  0
   58.8920   33.4800   43.7400 O   0  0  0  0  0  0  0  0  0  0  0  0
   60.3830   33.0880   46.5540 C   0  0  0  0  0  0  0  0  0  0  0  0
   60.7680   32.4590   47.7340 C   0  0  0  0  0  0  0  0  0  0  0  0
   59.8890   29.5000   49.0440 N   0  0  0  0  0  0  0  0  0  0  0  0
   58.2660   28.6620   46.3750 C   0  0  0  0  0  0  0  0  0  0  0  0
   55.5098   30.3870   42.6458 H   0  0  0  0  0  0  0  0  0  0  0  0
   57.2527   30.7762   42.4529 H   0  0  0  0  0  0  0  0  0  0  0  0
   56.7095   29.0641   42.4529 H   0  0  0  0  0  0  0  0  0  0  0  0
   59.2559   29.5066   43.2416 H   0  0  0  0  0  0  0  0  0  0  0  0
   61.3060   28.3294   44.0558 H   0  0  0  0  0  0  0  0  0  0  0  0
   61.3818   27.3834   46.3342 H   0  0  0  0  0  0  0  0  0  0  0  0
   60.4360   26.5970   50.3630 H   0  0  0  0  0  0  0  0  0  0  0  0
   61.3197   27.8836   52.1774 H   0  0  0  0  0  0  0  0  0  0  0  0
   61.2932   30.3954   51.9844 H   0  0  0  0  0  0  0  0  0  0  0  0
   57.7889   32.4033   49.4159 H   0  0  0  0  0  0  0  0  0  0  0  0
   57.0789   33.5377   47.2898 H   0  0  0  0  0  0  0  0  0  0  0  0
   56.4070   35.1030   45.6390 H   0  0  0  0  0  0  0  0  0  0  0  0
   56.2730   33.5040   44.9240 H   0  0  0  0  0  0  0  0  0  0  0  0
   61.1094   33.2806   45.7507 H   0  0  0  0  0  0  0  0  0  0  0  0
   61.8145   32.1483   47.8696 H   0  0  0  0  0  0  0  0  0  0  0  0
   59.4920   29.9240   48.1790 H   0  0  0  0  0  0  0  0  0  0  0  0
   57.3884   28.7657   47.0300 H   0  0  0  0  0  0  0  0  0  0  0  0
  1  2  1  0
  2  3  2  0
  2  4  2  0
  2  5  1  0
  5  6  2  0
  6  7  1  0
  7  8  2  0
  8  9  1  0
  9 10  1  0
 10 11  2  0
 11 12  1  0
 12 13  1  0
 13 14  2  0
 14 15  1  0
 15 16  2  0
 16 17  1  0
 17 18  2  0
 18 19  1  0
 19 20  2  0
 20 21  1  0
 21 22  1  0
 21 23  2  0
 21 24  2  0
 20 25  1  0
 25 26  2  0
 15 27  1  0
  9 28  2  0
 28  5  1  0
 27 11  1  0
 26 17  1  0
  1 29  1  0
  1 30  1  0
  1 31  1  0
  6 32  1  0
  7 33  1  0
  8 34  1  0
 12 35  1  0
 13 36  1  0
 14 37  1  0
 18 38  1  0
 19 39  1  0
 22 40  1  0
 22 41  1  0
 25 42  1  0
 26 43  1  0
 27 44  1  0
 28 45  1  0
M  END
>  <smiles>  (45) 
CS(=O)(=O)c1cccc(N=c2[nH]ccc(=Nc3ccc(S(N)(=O)=O)cc3)[nH]2)c1

>  <score_type>  (45) 
oracle

>  <origin>  (45) 
adg

>  <m_score__min__energy>  (45) 
-9.3599999999999994

>  <m_primary>  (45) 
energy

$$$$
45:0
     RDKit          3D

 40 42  0  0  0  0  0  0  0  0999 V2000
   58.1590   29.2800   46.9360 O   0  0  0  0  0  0  0  0  0  0  0  0
   57.6650   29.4140   45.7820 C   0  0  0  0  0  0  0  0  0  0  0  0
   57.0000   28.3000   45.1630 N   0  0  0  0  0  0  0  0  0  0  0  0
   57.1610   26.9440   45.6110 C   0  0  0  0  0  0  0  0  0  0  0  0
   58.4540   26.4190   45.7460 C   0  0  0  0  0  0  0  0  0  0  0  0
   58.6430   25.1150   46.2060 C   0  0  0  0  0  0  0  0  0  0  0  0
   57.5420   24.3200   46.5310 C   0  0  0  0  0  0  0  0  0  0  0  0
   56.2430   24.8210   46.3970 C   0  0  0  0  0  0  0  0  0  0  0  0
   55.1430   23.9770   46.7660 N   0  0  0  0  0  0  0  0  0  0  0  0
   55.1450   22.5460   46.7140 C   0  0  0  0  0  0  0  0  0  0  0  0
   55.0600   21.8660   47.7720 O   0  0  0  0  0  0  0  0  0  0  0  0
   55.2380   21.8490   45.3870 C   0  0  2  0  0  0  0  0  0  0  0  0
   56.5850   21.1480   45.2300 C   0  0  0  0  0  0  0  0  0  0  0  0
   57.3350   22.0470   44.2990 C   0  0  0  0  0  0  0  0  0  0  0  0
   56.2290   22.7490   43.5420 C   0  0  0  0  0  0  0  0  0  0  0  0
   55.0760   22.7930   44.3510 O   0  0  0  0  0  0  0  0  0  0  0  0
   56.0510   26.1560   45.9810 C   0  0  0  0  0  0  0  0  0  0  0  0
   54.7770   26.7150   45.9930 O   0  0  0  0  0  0  0  0  0  0  0  0
   57.7440   30.7280   45.1020 C   0  0  0  0  0  0  0  0  0  0  0  0
   57.8260   31.9240   45.8410 C   0  0  0  0  0  0  0  0  0  0  0  0
   57.8920   33.1580   45.1870 C   0  0  0  0  0  0  0  0  0  0  0  0
   57.8720   33.2150   43.7920 C   0  0  0  0  0  0  0  0  0  0  0  0
   57.7820   32.0370   43.0470 C   0  0  0  0  0  0  0  0  0  0  0  0
   57.7150   30.8000   43.6950 C   0  0  0  0  0  0  0  0  0  0  0  0
   56.2320   28.5010   44.4830 H   0  0  0  0  0  0  0  0  0  0  0  0
   59.3252   27.0389   45.4877 H   0  0  0  0  0  0  0  0  0  0  0  0
   59.6612   24.7127   46.3128 H   0  0  0  0  0  0  0  0  0  0  0  0
   57.6972   23.2935   46.8946 H   0  0  0  0  0  0  0  0  0  0  0  0
   54.4435   21.0901   45.3347 H   0  0  0  0  0  0  0  0  0  0  0  0
   57.1009   21.0646   46.1979 H   0  0  0  0  0  0  0  0  0  0  0  0
   56.4930   20.1187   44.8531 H   0  0  0  0  0  0  0  0  0  0  0  0
   57.9522   22.7673   44.8560 H   0  0  0  0  0  0  0  0  0  0  0  0
   58.0347   21.5073   43.6440 H   0  0  0  0  0  0  0  0  0  0  0  0
   56.5445   23.7731   43.2935 H   0  0  0  0  0  0  0  0  0  0  0  0
   56.0103   22.2032   42.6124 H   0  0  0  0  0  0  0  0  0  0  0  0
   57.8382   31.8871   46.9403 H   0  0  0  0  0  0  0  0  0  0  0  0
   57.9599   34.0864   45.7730 H   0  0  0  0  0  0  0  0  0  0  0  0
   57.9271   34.1871   43.2801 H   0  0  0  0  0  0  0  0  0  0  0  0
   57.7638   32.0826   41.9481 H   0  0  0  0  0  0  0  0  0  0  0  0
   57.6391   29.8764   43.1023 H   0  0  0  0  0  0  0  0  0  0  0  0
  1  2  2  0
  2  3  1  0
  3  4  1  0
  4  5  2  0
  5  6  1  0
  6  7  2  0
  7  8  1  0
  8  9  1  0
  9 10  1  0
 10 11  2  0
 10 12  1  0
 12 13  1  0
 13 14  1  0
 14 15  1  0
 15 16  1  0
  8 17  2  0
 17 18  1  0
  2 19  1  0
 19 20  2  0
 20 21  1  0
 21 22  2  0
 22 23  1  0
 23 24  2  0
 17  4  1  0
 24 19  1  0
 16 12  1  0
  3 25  1  0
  5 26  1  0
  6 27  1  0
  7 28  1  0
 12 29  1  1
 13 30  1  0
 13 31  1  0
 14 32  1  0
 14 33  1  0
 15 34  1  0
 15 35  1  0
 20 36  1  0
 21 37  1  0
 22 38  1  0
 23 39  1  0
 24 40  1  0
M  CHG  2   9  -1  18  -1
M  END
>  <UniqueID>  (46) 
43

>  <SMILES>  (46) 
O=C(Nc1cccc([N-]C(=O)[C@@H]2CCCO2)c1[O-])c1ccccc1

>  <Energy>  (46) 
53.1178079310756

>  <Genealogy>  (46) 
O=C(Nc1cccc([N-]C(=O)C2CCCO2)c1[O-])c1ccccc1 (protonated)
O=C(Nc1cccc([N-]C(=O)[C@@H]2CCCO2)c1[O-])c1ccccc1 (chirality)
O=C(Nc1cccc([N-]C(=O)[C@@H]2CCCO2)c1[O-])c1ccccc1 (3D coordinates assigned)
O=C(Nc1cccc([N-]C(=O)[C@@H]2CCCO2)c1[O-])c1ccccc1 (nonaromatic ring conformer: 53.1178079310756 kcal/mol)

>  <smiles>  (46) 
O=C(Nc1cccc(NC(=O)C2CCCO2)c1O)c1ccccc1

>  <score_type>  (46) 
oracle

>  <origin>  (46) 
adg

>  <m_score__min__energy>  (46) 
-13.15

>  <m_primary>  (46) 
energy

$$$$
46:0
     RDKit          3D

 44 46  0  0  0  0  0  0  0  0999 V2000
   60.0720   33.5510   50.6540 C   0  0  0  0  0  0  0  0  0  0  0  0
   60.2830   33.5500   49.1620 C   0  0  0  0  0  0  0  0  0  0  0  0
   59.2420   33.1090   48.3280 C   0  0  0  0  0  0  0  0  0  0  0  0
   59.4090   33.0520   46.9320 C   0  0  0  0  0  0  0  0  0  0  0  0
   58.3060   32.5780   46.0570 C   0  0  0  0  0  0  0  0  0  0  0  0
   57.0160   33.0840   45.9650 C   0  0  0  0  0  0  0  0  0  0  0  0
   56.3240   32.3870   45.0440 N   0  0  0  0  0  0  0  0  0  0  0  0
   57.1260   31.4520   44.5630 N   0  0  0  0  0  0  0  0  0  0  0  0
   56.7500   30.5270   43.4990 C   0  0  0  0  0  0  0  0  0  0  0  0
   56.2240   29.2210   44.0980 C   0  0  0  0  0  0  0  0  0  0  0  0
   55.3150   29.4920   45.1290 O   0  0  0  0  0  0  0  0  0  0  0  0
   58.3380   31.5400   45.1400 C   0  0  0  0  0  0  0  0  0  0  0  0
   60.6410   33.4430   46.3800 C   0  0  0  0  0  0  0  0  0  0  0  0
   61.6720   33.9030   47.2010 C   0  0  0  0  0  0  0  0  0  0  0  0
   61.4950   33.9910   48.5850 C   0  0  0  0  0  0  0  0  0  0  0  0
   62.5770   34.4870   49.3830 N   0  0  0  0  0  0  0  0  0  0  0  0
   63.8060   33.7870   49.6050 C   0  0  0  0  0  0  0  0  0  0  0  0
   64.4830   33.4190   48.6080 O   0  0  0  0  0  0  0  0  0  0  0  0
   64.2770   33.5220   50.9360 N   0  0  0  0  0  0  0  0  0  0  0  0
   65.4810   32.7890   51.1930 C   0  0  0  0  0  0  0  0  0  0  0  0
   66.7080   33.4680   51.1850 C   0  0  0  0  0  0  0  0  0  0  0  0
   67.8980   32.7800   51.4320 C   0  0  0  0  0  0  0  0  0  0  0  0
   67.8740   31.4040   51.6720 C   0  0  0  0  0  0  0  0  0  0  0  0
   66.6590   30.7120   51.6540 C   0  0  0  0  0  0  0  0  0  0  0  0
   65.4620   31.3940   51.4100 C   0  0  0  0  0  0  0  0  0  0  0  0
   63.9710   30.4680   51.3020 Cl  0  0  0  0  0  0  0  0  0  0  0  0
   61.0475   33.5464   51.1623 H   0  0  0  0  0  0  0  0  0  0  0  0
   59.5115   34.4518   50.9444 H   0  0  0  0  0  0  0  0  0  0  0  0
   59.5030   32.6555   50.9444 H   0  0  0  0  0  0  0  0  0  0  0  0
   58.2831   32.8041   48.7725 H   0  0  0  0  0  0  0  0  0  0  0  0
   56.6205   33.9247   46.5539 H   0  0  0  0  0  0  0  0  0  0  0  0
   55.9649   30.9851   42.8795 H   0  0  0  0  0  0  0  0  0  0  0  0
   57.6346   30.3093   42.8824 H   0  0  0  0  0  0  0  0  0  0  0  0
   55.7196   28.6386   43.3129 H   0  0  0  0  0  0  0  0  0  0  0  0
   57.0693   28.6481   44.5068 H   0  0  0  0  0  0  0  0  0  0  0  0
   55.3010   30.4780   45.2440 H   0  0  0  0  0  0  0  0  0  0  0  0
   59.2046   30.8987   44.9215 H   0  0  0  0  0  0  0  0  0  0  0  0
   60.7940   33.3861   45.2922 H   0  0  0  0  0  0  0  0  0  0  0  0
   62.6328   34.1991   46.7548 H   0  0  0  0  0  0  0  0  0  0  0  0
   63.6540   33.7250   51.7480 H   0  0  0  0  0  0  0  0  0  0  0  0
   66.7333   34.5490   50.9830 H   0  0  0  0  0  0  0  0  0  0  0  0
   68.8551   33.3221   51.4376 H   0  0  0  0  0  0  0  0  0  0  0  0
   68.8110   30.8648   51.8752 H   0  0  0  0  0  0  0  0  0  0  0  0
   66.6443   29.6267   51.8325 H   0  0  0  0  0  0  0  0  0  0  0  0
  1  2  1  0
  2  3  2  0
  3  4  1  0
  4  5  1  0
  5  6  1  0
  6  7  2  0
  7  8  1  0
  8  9  1  0
  9 10  1  0
 10 11  1  0
  8 12  1  0
  4 13  2  0
 13 14  1  0
 14 15  2  0
 15 16  1  0
 16 17  1  0
 17 18  2  0
 17 19  1  0
 19 20  1  0
 20 21  2  0
 21 22  1  0
 22 23  2  0
 23 24  1  0
 24 25  2  0
 25 26  1  0
 15  2  1  0
 25 20  1  0
 12  5  2  0
  1 27  1  0
  1 28  1  0
  1 29  1  0
  3 30  1  0
  6 31  1  0
  9 32  1  0
  9 33  1  0
 10 34  1  0
 10 35  1  0
 11 36  1  0
 12 37  1  0
 13 38  1  0
 14 39  1  0
 19 40  1  0
 21 41  1  0
 22 42  1  0
 23 43  1  0
 24 44  1  0
M  CHG  1  16  -1
M  END
>  <UniqueID>  (47) 
44

>  <SMILES>  (47) 
Cc1cc(-c2cnn(CCO)c2)ccc1[N-]C(=O)Nc1ccccc1Cl

>  <Energy>  (47) 
87.50136291076453

>  <Genealogy>  (47) 
Cc1cc(-c2cnn(CCO)c2)ccc1[N-]C(=O)Nc1ccccc1Cl (protonated)
Cc1cc(-c2cnn(CCO)c2)ccc1[N-]C(=O)Nc1ccccc1Cl (3D coordinates assigned)
Cc1cc(-c2cnn(CCO)c2)ccc1[N-]C(=O)Nc1ccccc1Cl (optimized conformer: 87.50136291076453 kcal/mol)

>  <smiles>  (47) 
Cc1cc(-c2cnn(CCO)c2)ccc1NC(=O)Nc1ccccc1Cl

>  <score_type>  (47) 
oracle

>  <origin>  (47) 
adg

>  <m_score__min__energy>  (47) 
-9.2200000000000006

>  <m_primary>  (47) 
energy

$$$$
47:0
     RDKit          3D

 36 38  0  0  0  0  0  0  0  0999 V2000
   55.0440   29.2940   44.4760 O   0  0  0  0  0  0  0  0  0  0  0  0
   56.2610   29.5360   44.7020 C   0  0  0  0  0  0  0  0  0  0  0  0
   57.0020   28.7560   45.6570 N   0  0  0  0  0  0  0  0  0  0  0  0
   56.9440   27.4700   45.8500 C   0  0  0  0  0  0  0  0  0  0  0  0
   55.7670   26.8220   45.9790 N   0  0  0  0  0  0  0  0  0  0  0  0
   55.9430   25.4870   46.1760 C   0  0  0  0  0  0  0  0  0  0  0  0
   57.2660   25.0630   46.2040 C   0  0  0  0  0  0  0  0  0  0  0  0
   58.2490   26.4080   45.9750 S   0  0  0  0  0  0  0  0  0  0  0  0
   56.9290   30.6650   44.0120 C   0  0  0  0  0  0  0  0  0  0  0  0
   56.7210   30.8290   42.6290 C   0  0  0  0  0  0  0  0  0  0  0  0
   57.3880   31.8310   41.9220 C   0  0  0  0  0  0  0  0  0  0  0  0
   58.2670   32.6870   42.5830 C   0  0  0  0  0  0  0  0  0  0  0  0
   58.4730   32.5520   43.9560 C   0  0  0  0  0  0  0  0  0  0  0  0
   57.8080   31.5510   44.6870 C   0  0  0  0  0  0  0  0  0  0  0  0
   57.9790   31.4830   46.1120 N   0  0  0  0  0  0  0  0  0  0  0  0
   58.5900   32.8170   47.0360 S   0  0  0  0  0  0  0  0  0  0  0  0
   58.1050   34.1040   46.4280 O   0  0  0  0  0  0  0  0  0  0  0  0
   58.0850   32.7200   48.4470 O   0  0  0  0  0  0  0  0  0  0  0  0
   60.3510   32.7620   47.0630 C   0  0  0  0  0  0  0  0  0  0  0  0
   61.0260   31.6140   47.5040 C   0  0  0  0  0  0  0  0  0  0  0  0
   62.4240   31.5940   47.5390 C   0  0  0  0  0  0  0  0  0  0  0  0
   63.1510   32.7160   47.1350 C   0  0  0  0  0  0  0  0  0  0  0  0
   62.4820   33.8620   46.6940 C   0  0  0  0  0  0  0  0  0  0  0  0
   61.0850   33.8850   46.6570 C   0  0  0  0  0  0  0  0  0  0  0  0
   55.0988   24.7935   46.3039 H   0  0  0  0  0  0  0  0  0  0  0  0
   57.6101   24.0285   46.3504 H   0  0  0  0  0  0  0  0  0  0  0  0
   56.0256   30.1605   42.1002 H   0  0  0  0  0  0  0  0  0  0  0  0
   57.2195   31.9452   40.8410 H   0  0  0  0  0  0  0  0  0  0  0  0
   58.7986   33.4695   42.0217 H   0  0  0  0  0  0  0  0  0  0  0  0
   59.1628   33.2356   44.4726 H   0  0  0  0  0  0  0  0  0  0  0  0
   57.8020   30.5860   46.6170 H   0  0  0  0  0  0  0  0  0  0  0  0
   60.4554   30.7291   47.8224 H   0  0  0  0  0  0  0  0  0  0  0  0
   62.9518   30.6932   47.8853 H   0  0  0  0  0  0  0  0  0  0  0  0
   64.2505   32.6982   47.1637 H   0  0  0  0  0  0  0  0  0  0  0  0
   63.0552   34.7454   46.3762 H   0  0  0  0  0  0  0  0  0  0  0  0
   60.5602   34.7867   46.3084 H   0  0  0  0  0  0  0  0  0  0  0  0
  1  2  2  0
  2  3  1  0
  3  4  2  3
  4  5  1  0
  5  6  1  0
  6  7  2  0
  7  8  1  0
  2  9  1  0
  9 10  2  0
 10 11  1  0
 11 12  2  0
 12 13  1  0
 13 14  2  0
 14 15  1  0
 15 16  1  0
 16 17  2  0
 16 18  2  0
 16 19  1  0
 19 20  2  0
 20 21  1  0
 21 22  2  0
 22 23  1  0
 23 24  2  0
  8  4  1  0
 14  9  1  0
 24 19  1  0
  6 25  1  0
  7 26  1  0
 10 27  1  0
 11 28  1  0
 12 29  1  0
 13 30  1  0
 15 31  1  0
 20 32  1  0
 21 33  1  0
 22 34  1  0
 23 35  1  0
 24 36  1  0
M  CHG  1   5  -1
M  END
>  <UniqueID>  (48) 
45

>  <SMILES>  (48) 
O=C(N=c1[n-]ccs1)c1ccccc1NS(=O)(=O)c1ccccc1

>  <Energy>  (48) 
80.32349765552907

>  <Genealogy>  (48) 
O=C(N=c1[n-]ccs1)c1ccccc1NS(=O)(=O)c1ccccc1 (protonated)
O=C(N=c1[n-]ccs1)c1ccccc1NS(=O)(=O)c1ccccc1 (3D coordinates assigned)
O=C(N=c1[n-]ccs1)c1ccccc1NS(=O)(=O)c1ccccc1 (optimized conformer: 80.32349765552907 kcal/mol)

>  <smiles>  (48) 
O=C(N=c1[nH]ccs1)c1ccccc1NS(=O)(=O)c1ccccc1

>  <score_type>  (48) 
oracle

>  <origin>  (48) 
adg

>  <m_score__min__energy>  (48) 
-11.109999999999999

>  <m_primary>  (48) 
energy

$$$$
48:0
     RDKit          3D

 57 60  0  0  0  0  0  0  0  0999 V2000
   58.7100   34.7040   45.0900 C   0  0  0  0  0  0  0  0  0  0  0  0
   57.9490   33.7820   45.8620 O   0  0  0  0  0  0  0  0  0  0  0  0
   58.3640   32.4810   46.1940 C   0  0  0  0  0  0  0  0  0  0  0  0
   57.8880   31.3580   45.4900 C   0  0  0  0  0  0  0  0  0  0  0  0
   58.2960   30.0710   45.8490 C   0  0  0  0  0  0  0  0  0  0  0  0
   59.2070   29.8880   46.8930 C   0  0  0  0  0  0  0  0  0  0  0  0
   59.5900   28.5760   47.2990 N   0  0  0  0  0  0  0  0  0  0  0  0
   59.9310   27.3530   46.1170 S   0  0  0  0  0  0  0  0  0  0  0  0
   61.2040   26.6390   46.4810 O   0  0  0  0  0  0  0  0  0  0  0  0
   60.1030   27.9720   44.7570 O   0  0  0  0  0  0  0  0  0  0  0  0
   58.6010   26.2070   46.0890 C   0  0  0  0  0  0  0  0  0  0  0  0
   58.6810   24.8550   46.3540 C   0  0  0  0  0  0  0  0  0  0  0  0
   57.4570   24.3050   46.2470 N   0  0  0  0  0  0  0  0  0  0  0  0
   56.6040   25.2960   45.9060 C   0  0  0  0  0  0  0  0  0  0  0  0
   55.1490   25.1130   45.7630 C   0  0  0  0  0  0  0  0  0  0  0  0
   54.3870   26.0900   45.9560 O   0  0  0  0  0  0  0  0  0  0  0  0
   54.5870   23.8630   45.3430 N   0  0  0  0  0  0  0  0  0  0  0  0
   53.1800   23.5710   45.3340 C   0  0  0  0  0  0  0  0  0  0  0  0
   52.6400   22.7590   46.3480 C   0  0  0  0  0  0  0  0  0  0  0  0
   51.2670   22.4740   46.3600 C   0  0  0  0  0  0  0  0  0  0  0  0
   50.4330   22.9690   45.3430 C   0  0  0  0  0  0  0  0  0  0  0  0
   50.9710   23.7560   44.3120 C   0  0  0  0  0  0  0  0  0  0  0  0
   49.9300   24.3520   43.0130 Cl  0  0  0  0  0  0  0  0  0  0  0  0
   52.3400   24.0600   44.3070 C   0  0  0  0  0  0  0  0  0  0  0  0
   57.2860   26.4990   45.7990 C   0  0  0  0  0  0  0  0  0  0  0  0
   59.7170   30.9950   47.5740 C   0  0  0  0  0  0  0  0  0  0  0  0
   59.2760   32.2910   47.2580 C   0  0  0  0  0  0  0  0  0  0  0  0
   59.8420   33.6470   48.2490 S   0  0  0  0  0  0  0  0  0  0  0  0
   59.5480   33.3850   49.7010 O   0  0  0  0  0  0  0  0  0  0  0  0
   59.0940   34.8910   47.8490 O   0  0  0  0  0  0  0  0  0  0  0  0
   61.5660   33.9060   48.0560 N   0  0  0  0  0  0  0  0  0  0  0  0
   62.3600   32.9430   48.8570 C   0  0  0  0  0  0  0  0  0  0  0  0
   63.0530   31.8900   47.9720 C   0  0  0  0  0  0  0  0  0  0  0  0
   63.9360   32.4690   47.0230 O   0  0  0  0  0  0  0  0  0  0  0  0
   63.4510   33.6790   46.4530 C   0  0  0  0  0  0  0  0  0  0  0  0
   61.9380   33.9150   46.6260 C   0  0  0  0  0  0  0  0  0  0  0  0
   59.2642   35.3754   45.7623 H   0  0  0  0  0  0  0  0  0  0  0  0
   59.4197   34.1529   44.4555 H   0  0  0  0  0  0  0  0  0  0  0  0
   58.0343   35.2963   44.4555 H   0  0  0  0  0  0  0  0  0  0  0  0
   57.1897   31.4952   44.6512 H   0  0  0  0  0  0  0  0  0  0  0  0
   57.8991   29.1991   45.3084 H   0  0  0  0  0  0  0  0  0  0  0  0
   59.6017   24.3114   46.6124 H   0  0  0  0  0  0  0  0  0  0  0  0
   57.2220   23.2980   46.4090 H   0  0  0  0  0  0  0  0  0  0  0  0
   53.2943   22.3479   47.1309 H   0  0  0  0  0  0  0  0  0  0  0  0
   50.8414   21.8610   47.1681 H   0  0  0  0  0  0  0  0  0  0  0  0
   49.3572   22.7396   45.3546 H   0  0  0  0  0  0  0  0  0  0  0  0
   52.7614   24.6803   43.5022 H   0  0  0  0  0  0  0  0  0  0  0  0
   56.8650   27.4810   45.5373 H   0  0  0  0  0  0  0  0  0  0  0  0
   60.4694   30.8515   48.3635 H   0  0  0  0  0  0  0  0  0  0  0  0
   63.1276   33.4959   49.4184 H   0  0  0  0  0  0  0  0  0  0  0  0
   61.6723   32.4171   49.5357 H   0  0  0  0  0  0  0  0  0  0  0  0
   63.6273   31.2098   48.6182 H   0  0  0  0  0  0  0  0  0  0  0  0
   62.2693   31.3558   47.4148 H   0  0  0  0  0  0  0  0  0  0  0  0
   63.9841   34.5173   46.9253 H   0  0  0  0  0  0  0  0  0  0  0  0
   63.6306   33.6046   45.3703 H   0  0  0  0  0  0  0  0  0  0  0  0
   61.6729   34.8897   46.1905 H   0  0  0  0  0  0  0  0  0  0  0  0
   61.3942   33.1068   46.1150 H   0  0  0  0  0  0  0  0  0  0  0  0
  1  2  1  0
  2  3  1  0
  3  4  2  0
  4  5  1  0
  5  6  2  0
  6  7  1  0
  7  8  1  0
  8  9  2  0
  8 10  2  0
  8 11  1  0
 11 12  2  0
 12 13  1  0
 13 14  1  0
 14 15  1  0
 15 16  2  0
 15 17  1  0
 17 18  1  0
 18 19  2  0
 19 20  1  0
 20 21  2  0
 21 22  1  0
 22 23  1  0
 22 24  2  0
 14 25  2  0
  6 26  1  0
 26 27  2  0
 27 28  1  0
 28 29  2  0
 28 30  2  0
 28 31  1  0
 31 32  1  0
 32 33  1  0
 33 34  1  0
 34 35  1  0
 35 36  1  0
 27  3  1  0
 36 31  1  0
 25 11  1  0
 24 18  1  0
  1 37  1  0
  1 38  1  0
  1 39  1  0
  4 40  1  0
  5 41  1  0
 12 42  1  0
 13 43  1  0
 19 44  1  0
 20 45  1  0
 21 46  1  0
 24 47  1  0
 25 48  1  0
 26 49  1  0
 32 50  1  0
 32 51  1  0
 33 52  1  0
 33 53  1  0
 35 54  1  0
 35 55  1  0
 36 56  1  0
 36 57  1  0
M  CHG  2   7  -1  17  -1
M  END
>  <UniqueID>  (49) 
46

>  <SMILES>  (49) 
COc1ccc([N-]S(=O)(=O)c2c[nH]c(C(=O)[N-]c3cccc(Cl)c3)c2)cc1S(=O)(=O)N1CCOCC1

>  <Energy>  (49) 
107.33444184704892

>  <Genealogy>  (49) 
COc1ccc([N-]S(=O)(=O)c2c[nH]c(C(=O)[N-]c3cccc(Cl)c3)c2)cc1S(=O)(=O)N1CCOCC1 (protonated)
COc1ccc([N-]S(=O)(=O)c2c[nH]c(C(=O)[N-]c3cccc(Cl)c3)c2)cc1S(=O)(=O)N1CCOCC1 (3D coordinates assigned)
COc1ccc([N-]S(=O)(=O)c2c[nH]c(C(=O)[N-]c3cccc(Cl)c3)c2)cc1S(=O)(=O)N1CCOCC1 (nonaromatic ring conformer: 107.33444184704892 kcal/mol)

>  <smiles>  (49) 
COc1ccc(NS(=O)(=O)c2c[nH]c(C(=O)Nc3cccc(Cl)c3)c2)cc1S(=O)(=O)N1CCOCC1

>  <score_type>  (49) 
oracle

>  <origin>  (49) 
adg

>  <m_score__min__energy>  (49) 
-11.91

>  <m_primary>  (49) 
energy

$$$$
49:0
     RDKit          3D

 45 48  0  0  0  0  0  0  0  0999 V2000
   53.9060   26.7110   45.9970 H   0  0  0  0  0  0  0  0  0  0  0  0
   54.6670   26.0490   45.9420 O   0  0  0  0  0  0  0  0  0  0  0  0
   56.0120   26.4190   46.0160 C   0  0  0  0  0  0  0  0  0  0  0  0
   57.0260   25.5590   46.5200 C   0  0  0  0  0  0  0  0  0  0  0  0
   56.7570   24.1500   46.8760 C   0  0  0  0  0  0  0  0  0  0  0  0
   55.6870   23.8470   47.4720 O   0  0  0  0  0  0  0  0  0  0  0  0
   57.7120   23.1640   46.6060 O   0  0  0  0  0  0  0  0  0  0  0  0
   57.7030   22.3900   45.4120 C   0  0  0  0  0  0  0  0  0  0  0  0
   58.4719   21.6062   45.4779 H   0  0  0  0  0  0  0  0  0  0  0  0
   56.7141   21.9254   45.2849 H   0  0  0  0  0  0  0  0  0  0  0  0
   57.9960   23.2870   44.2220 C   0  0  0  0  0  0  0  0  0  0  0  0
   58.3190   24.2760   44.5791 H   0  0  0  0  0  0  0  0  0  0  0  0
   58.7943   22.8385   43.6125 H   0  0  0  0  0  0  0  0  0  0  0  0
   57.0868   23.3962   43.6125 H   0  0  0  0  0  0  0  0  0  0  0  0
   58.3450   26.0560   46.6670 C   0  0  0  0  0  0  0  0  0  0  0  0
   59.1227   25.4020   47.0883 H   0  0  0  0  0  0  0  0  0  0  0  0
   58.6810   27.3670   46.2860 C   0  0  0  0  0  0  0  0  0  0  0  0
   60.3470   27.9640   46.5920 S   0  0  0  0  0  0  0  0  0  0  0  0
   59.9110   28.6330   48.1920 C   0  0  0  0  0  0  0  0  0  0  0  0
   60.6670   28.2370   49.6390 S   0  0  0  0  0  0  0  0  0  0  0  0
   59.7180   29.2340   50.6080 C   0  0  0  0  0  0  0  0  0  0  0  0
   59.8099   29.3483   51.6982 H   0  0  0  0  0  0  0  0  0  0  0  0
   58.7990   29.8880   49.7970 C   0  0  0  0  0  0  0  0  0  0  0  0
   58.0562   30.6014   50.1834 H   0  0  0  0  0  0  0  0  0  0  0  0
   58.9070   29.5540   48.4420 C   0  0  0  0  0  0  0  0  0  0  0  0
   58.2624   29.9783   47.6581 H   0  0  0  0  0  0  0  0  0  0  0  0
   57.6740   28.1620   45.7190 C   0  0  0  0  0  0  0  0  0  0  0  0
   57.6600   29.4620   45.2400 C   0  0  0  0  0  0  0  0  0  0  0  0
   58.7690   30.4170   45.0810 C   0  0  0  0  0  0  0  0  0  0  0  0
   59.6768   30.0865   44.5551 H   0  0  0  0  0  0  0  0  0  0  0  0
   58.7200   31.6760   45.5510 C   0  0  0  0  0  0  0  0  0  0  0  0
   59.6620   32.2940   46.3710 C   0  0  0  0  0  0  0  0  0  0  0  0
   60.8070   31.7910   46.8440 C   0  0  0  0  0  0  0  0  0  0  0  0
   61.0963   30.7582   46.6000 H   0  0  0  0  0  0  0  0  0  0  0  0
   61.4597   32.4100   47.4771 H   0  0  0  0  0  0  0  0  0  0  0  0
   59.2010   33.5740   46.6130 C   0  0  0  0  0  0  0  0  0  0  0  0
   59.6923   34.3476   47.2214 H   0  0  0  0  0  0  0  0  0  0  0  0
   58.0020   33.6890   45.9400 C   0  0  0  0  0  0  0  0  0  0  0  0
   57.3720   34.5907   45.9285 H   0  0  0  0  0  0  0  0  0  0  0  0
   57.7130   32.5420   45.3000 N   0  0  0  0  0  0  0  0  0  0  0  0
   56.8550   32.3710   44.7290 H   0  0  0  0  0  0  0  0  0  0  0  0
   56.3390   29.7120   44.9070 C   0  0  0  0  0  0  0  0  0  0  0  0
   55.8660   30.9130   44.3930 O   0  0  0  0  0  0  0  0  0  0  0  0
   55.5440   28.6430   45.1270 N   0  0  0  0  0  0  0  0  0  0  0  0
   56.3790   27.7030   45.6140 C   0  0  0  0  0  0  0  0  0  0  0  0
  1  2  1  0
  2  3  1  0
  3  4  2  0
  4  5  1  0
  5  6  2  0
  5  7  1  0
  7  8  1  0
  8  9  1  0
  8 10  1  0
  8 11  1  0
 11 12  1  0
 11 13  1  0
 11 14  1  0
  4 15  1  0
 15 16  1  0
 15 17  2  0
 17 18  1  0
 18 19  1  0
 19 20  1  0
 20 21  1  0
 21 22  1  0
 21 23  2  0
 23 24  1  0
 23 25  1  0
 25 26  1  0
 17 27  1  0
 27 28  1  0
 28 29  1  0
 29 30  1  0
 29 31  2  0
 31 32  1  0
 32 33  2  0
 33 34  1  0
 33 35  1  0
 32 36  1  0
 36 37  1  0
 36 38  2  0
 38 39  1  0
 38 40  1  0
 40 41  1  0
 28 42  2  0
 42 43  1  0
 42 44  1  0
 44 45  1  0
 45  3  1  0
 25 19  2  0
 45 27  2  0
 40 31  1  0
M  CHG  2  43  -1  44  -1
M  END
>  <UniqueID>  (50) 
47

>  <SMILES>  (50) 
C=c1cc[nH]/c1=C\c1c([O-])[n-]c2c(O)c(C(=O)OCC)cc(Sc3cccs3)c12

>  <Energy>  (50) 
138.1773355115692

>  <Genealogy>  (50) 
C=c1cc[nH]c1=Cc1c([O-])[n-]c2c(O)c(C(=O)OCC)cc(Sc3cccs3)c12 (protonated)
C=c1cc[nH]/c1=C\c1c([O-])[n-]c2c(O)c(C(=O)OCC)cc(Sc3cccs3)c12 (cis-trans isomerization)
C=c1cc[nH]/c1=C\c1c([O-])[n-]c2c(O)c(C(=O)OCC)cc(Sc3cccs3)c12 (3D coordinates assigned)
C=c1cc[nH]/c1=C\c1c([O-])[n-]c2c(O)c(C(=O)OCC)cc(Sc3cccs3)c12 (optimized conformer: 138.1773355115692 kcal/mol)

>  <smiles>  (50) 
C=c1cc[nH]c1=Cc1c(O)[nH]c2c(O)c(C(=O)OCC)cc(Sc3cccs3)c12

>  <score_type>  (50) 
oracle

>  <origin>  (50) 
adg

>  <m_score__min__energy>  (50) 
-12.83

>  <m_primary>  (50) 
energy

$$$$
50:0
     RDKit          3D

 52 52  0  0  0  0  0  0  0  0999 V2000
   57.5320   22.0890   46.0200 H   0  0  0  0  0  0  0  0  0  0  0  0
   57.7480   22.8940   46.5950 O   0  0  0  0  0  0  0  0  0  0  0  0
   57.2380   24.1540   46.2980 C   0  0  0  0  0  0  0  0  0  0  0  0
   57.9870   25.1680   45.9220 O   0  0  0  0  0  0  0  0  0  0  0  0
   57.2070   26.2090   45.7290 C   0  0  0  0  0  0  0  0  0  0  0  0
   57.7040   27.5340   45.3270 C   0  0  0  0  0  0  0  0  0  0  0  0
   58.0600   28.2073   46.1207 H   0  0  0  0  0  0  0  0  0  0  0  0
   57.7550   27.9830   44.0580 C   0  0  0  0  0  0  0  0  0  0  0  0
   58.1520   27.0150   42.9780 C   0  0  0  0  0  0  0  0  0  0  0  0
   58.5315   26.0898   43.4363 H   0  0  0  0  0  0  0  0  0  0  0  0
   57.2765   26.7827   42.3538 H   0  0  0  0  0  0  0  0  0  0  0  0
   58.9385   27.4643   42.3538 H   0  0  0  0  0  0  0  0  0  0  0  0
   57.3140   29.3760   43.6510 C   0  0  0  0  0  0  0  0  0  0  0  0
   56.4089   29.2950   43.0311 H   0  0  0  0  0  0  0  0  0  0  0  0
   58.1383   29.8437   43.0925 H   0  0  0  0  0  0  0  0  0  0  0  0
   57.0040   30.2600   44.8680 C   0  0  0  0  0  0  0  0  0  0  0  0
   56.9386   29.6215   45.7613 H   0  0  0  0  0  0  0  0  0  0  0  0
   56.0534   30.7783   44.6736 H   0  0  0  0  0  0  0  0  0  0  0  0
   58.0820   31.3290   45.1030 C   0  0  0  0  0  0  0  0  0  0  0  0
   59.0741   30.8809   44.9451 H   0  0  0  0  0  0  0  0  0  0  0  0
   57.9886   31.7018   46.1337 H   0  0  0  0  0  0  0  0  0  0  0  0
   57.9060   32.4920   44.1500 C   0  0  0  0  0  0  0  0  0  0  0  0
   57.6640   33.7220   44.6580 C   0  0  0  0  0  0  0  0  0  0  0  0
   56.6330   34.1022   44.6080 H   0  0  0  0  0  0  0  0  0  0  0  0
   58.7100   34.6100   45.2890 C   0  0  0  0  0  0  0  0  0  0  0  0
   58.3737   35.6556   45.2283 H   0  0  0  0  0  0  0  0  0  0  0  0
   59.6548   34.4675   44.7440 H   0  0  0  0  0  0  0  0  0  0  0  0
   58.9480   34.2490   46.7610 C   0  0  0  0  0  0  0  0  0  0  0  0
   58.6626   33.1987   46.9206 H   0  0  0  0  0  0  0  0  0  0  0  0
   58.3387   34.9230   47.3811 H   0  0  0  0  0  0  0  0  0  0  0  0
   60.3960   34.4280   47.1560 C   0  0  0  0  0  0  0  0  0  0  0  0
   60.6929   35.3927   47.5933 H   0  0  0  0  0  0  0  0  0  0  0  0
   61.3510   33.4820   47.0080 C   0  0  0  0  0  0  0  0  0  0  0  0
   62.7870   33.8320   46.7090 C   0  0  0  0  0  0  0  0  0  0  0  0
   63.3359   33.9658   47.6528 H   0  0  0  0  0  0  0  0  0  0  0  0
   63.2490   33.0202   46.1280 H   0  0  0  0  0  0  0  0  0  0  0  0
   62.8236   34.7654   46.1280 H   0  0  0  0  0  0  0  0  0  0  0  0
   60.9840   32.0240   47.1050 C   0  0  0  0  0  0  0  0  0  0  0  0
   60.9110   31.7339   48.1635 H   0  0  0  0  0  0  0  0  0  0  0  0
   60.0156   31.8560   46.6111 H   0  0  0  0  0  0  0  0  0  0  0  0
   61.7575   31.4175   46.6111 H   0  0  0  0  0  0  0  0  0  0  0  0
   57.9950   32.2450   42.6630 C   0  0  0  0  0  0  0  0  0  0  0  0
   58.3628   31.2242   42.4822 H   0  0  0  0  0  0  0  0  0  0  0  0
   56.9985   32.3610   42.2118 H   0  0  0  0  0  0  0  0  0  0  0  0
   58.6885   32.9699   42.2118 H   0  0  0  0  0  0  0  0  0  0  0  0
   55.9010   25.8620   46.0170 C   0  0  0  0  0  0  0  0  0  0  0  0
   54.7950   26.7050   46.0000 O   0  0  0  0  0  0  0  0  0  0  0  0
   55.9080   24.5300   46.3640 C   0  0  0  0  0  0  0  0  0  0  0  0
   54.7490   23.7020   46.8180 C   0  0  0  0  0  0  0  0  0  0  0  0
   54.7210   23.6820   47.9175 H   0  0  0  0  0  0  0  0  0  0  0  0
   53.8145   24.1382   46.4353 H   0  0  0  0  0  0  0  0  0  0  0  0
   54.8587   22.6766   46.4353 H   0  0  0  0  0  0  0  0  0  0  0  0
  1  2  1  0
  2  3  1  0
  3  4  1  0
  4  5  1  0
  5  6  1  0
  6  7  1  0
  6  8  2  0
  8  9  1  0
  9 10  1  0
  9 11  1  0
  9 12  1  0
  8 13  1  0
 13 14  1  0
 13 15  1  0
 13 16  1  0
 16 17  1  0
 16 18  1  0
 16 19  1  0
 19 20  1  0
 19 21  1  0
 19 22  1  0
 22 23  2  3
 23 24  1  0
 23 25  1  0
 25 26  1  0
 25 27  1  0
 25 28  1  0
 28 29  1  0
 28 30  1  0
 28 31  1  0
 31 32  1  0
 31 33  2  3
 33 34  1  0
 34 35  1  0
 34 36  1  0
 34 37  1  0
 33 38  1  0
 38 39  1  0
 38 40  1  0
 38 41  1  0
 22 42  1  0
 42 43  1  0
 42 44  1  0
 42 45  1  0
  5 46  2  0
 46 47  1  0
 46 48  1  0
 48 49  1  0
 49 50  1  0
 49 51  1  0
 49 52  1  0
 48  3  2  0
M  CHG  1  47  -1
M  END
>  <UniqueID>  (51) 
48

>  <SMILES>  (51) 
CC(C)=CCCC=C(C)CCC/C(C)=C\c1oc(O)c(C)c1[O-]

>  <Energy>  (51) 
68.85558628891617

>  <Genealogy>  (51) 
CC(C)=CCCC=C(C)CCCC(C)=Cc1oc(O)c(C)c1[O-] (protonated)
CC(C)=CCCC=C(C)CCC/C(C)=C\c1oc(O)c(C)c1[O-] (cis-trans isomerization)
CC(C)=CCCC=C(C)CCC/C(C)=C\c1oc(O)c(C)c1[O-] (3D coordinates assigned)
CC(C)=CCCC=C(C)CCC/C(C)=C\c1oc(O)c(C)c1[O-] (optimized conformer: 68.85558628891617 kcal/mol)

>  <smiles>  (51) 
CC(C)=CCCC=C(C)CCCC(C)=Cc1oc(O)c(C)c1O

>  <score_type>  (51) 
oracle

>  <origin>  (51) 
adg

>  <m_score__min__energy>  (51) 
-11.1

>  <m_primary>  (51) 
energy

$$$$
51:0
     RDKit          3D

 50 52  0  0  0  0  0  0  0  0999 V2000
   57.5420   34.4410   44.8790 C   0  0  0  0  0  0  0  0  0  0  0  0
   58.8620   34.8970   44.9090 C   0  0  0  0  0  0  0  0  0  0  0  0
   59.6800   34.6090   46.0060 C   0  0  0  0  0  0  0  0  0  0  0  0
   59.1780   33.8690   47.0910 C   0  0  0  0  0  0  0  0  0  0  0  0
   60.0420   33.5830   48.3060 C   0  0  0  0  0  0  0  0  0  0  0  0
   60.6870   32.2490   48.2800 N   0  0  0  0  0  0  0  0  0  0  0  0
   60.3510   31.3870   49.4400 C   0  0  0  0  0  0  0  0  0  0  0  0
   59.5210   30.1660   49.0260 C   0  0  0  0  0  0  0  0  0  0  0  0
   60.2720   29.3260   48.0610 N   0  0  0  0  0  0  0  0  0  0  0  0
   59.4340   28.2580   47.4580 C   0  0  0  0  0  0  0  0  0  0  0  0
   59.9620   27.7200   46.1090 C   0  0  0  0  0  0  0  0  0  0  0  0
   58.8420   27.1770   45.2150 C   0  0  0  0  0  0  0  0  0  0  0  0
   57.2090   27.8860   45.6510 S   0  0  0  0  0  0  0  0  0  0  0  0
   57.3530   29.3200   44.5740 C   0  0  0  0  0  0  0  0  0  0  0  0
   58.2920   30.3200   44.8570 C   0  0  0  0  0  0  0  0  0  0  0  0
   58.3860   31.4490   44.0360 C   0  0  0  0  0  0  0  0  0  0  0  0
   57.5530   31.5720   42.9210 C   0  0  0  0  0  0  0  0  0  0  0  0
   56.6320   30.5630   42.6200 C   0  0  0  0  0  0  0  0  0  0  0  0
   56.5350   29.4360   43.4430 C   0  0  0  0  0  0  0  0  0  0  0  0
   61.0340   30.1090   47.0420 C   0  0  0  0  0  0  0  0  0  0  0  0
   60.6020   31.5810   46.9620 C   0  0  0  0  0  0  0  0  0  0  0  0
   57.8550   33.3910   47.0380 C   0  0  0  0  0  0  0  0  0  0  0  0
   57.0400   33.6860   45.9410 C   0  0  0  0  0  0  0  0  0  0  0  0
   56.8981   34.6766   44.0189 H   0  0  0  0  0  0  0  0  0  0  0  0
   59.2590   35.4840   44.0677 H   0  0  0  0  0  0  0  0  0  0  0  0
   60.7213   34.9632   46.0201 H   0  0  0  0  0  0  0  0  0  0  0  0
   60.8302   34.3485   48.3591 H   0  0  0  0  0  0  0  0  0  0  0  0
   59.3781   33.6011   49.1829 H   0  0  0  0  0  0  0  0  0  0  0  0
   61.2846   31.0402   49.9071 H   0  0  0  0  0  0  0  0  0  0  0  0
   59.7516   31.9828   50.1441 H   0  0  0  0  0  0  0  0  0  0  0  0
   59.2868   29.5685   49.9194 H   0  0  0  0  0  0  0  0  0  0  0  0
   58.5941   30.5137   48.5466 H   0  0  0  0  0  0  0  0  0  0  0  0
   60.9920   28.8170   48.6300 H   0  0  0  0  0  0  0  0  0  0  0  0
   59.3829   27.4187   48.1672 H   0  0  0  0  0  0  0  0  0  0  0  0
   58.4505   28.7068   47.2546 H   0  0  0  0  0  0  0  0  0  0  0  0
   60.4719   28.5376   45.5784 H   0  0  0  0  0  0  0  0  0  0  0  0
   60.6488   26.8887   46.3264 H   0  0  0  0  0  0  0  0  0  0  0  0
   59.0700   27.4280   44.1686 H   0  0  0  0  0  0  0  0  0  0  0  0
   58.7891   26.0880   45.3611 H   0  0  0  0  0  0  0  0  0  0  0  0
   58.9573   30.2175   45.7270 H   0  0  0  0  0  0  0  0  0  0  0  0
   59.1152   32.2392   44.2682 H   0  0  0  0  0  0  0  0  0  0  0  0
   57.6215   32.4629   42.2794 H   0  0  0  0  0  0  0  0  0  0  0  0
   55.9840   30.6558   41.7360 H   0  0  0  0  0  0  0  0  0  0  0  0
   55.8154   28.6399   43.2016 H   0  0  0  0  0  0  0  0  0  0  0  0
   62.1026   30.0719   47.3002 H   0  0  0  0  0  0  0  0  0  0  0  0
   60.8296   29.6548   46.0612 H   0  0  0  0  0  0  0  0  0  0  0  0
   61.2581   32.1070   46.2528 H   0  0  0  0  0  0  0  0  0  0  0  0
   59.5543   31.6132   46.6283 H   0  0  0  0  0  0  0  0  0  0  0  0
   57.4601   32.7819   47.8645 H   0  0  0  0  0  0  0  0  0  0  0  0
   56.0020   33.3229   45.9145 H   0  0  0  0  0  0  0  0  0  0  0  0
  1  2  2  0
  2  3  1  0
  3  4  2  0
  4  5  1  0
  5  6  1  0
  6  7  1  0
  7  8  1  0
  8  9  1  0
  9 10  1  0
 10 11  1  0
 11 12  1  0
 12 13  1  0
 13 14  1  0
 14 15  2  0
 15 16  1  0
 16 17  2  0
 17 18  1  0
 18 19  2  0
  9 20  1  0
 20 21  1  0
  4 22  1  0
 22 23  2  0
 23  1  1  0
 21  6  1  0
 19 14  1  0
  1 24  1  0
  2 25  1  0
  3 26  1  0
  5 27  1  0
  5 28  1  0
  7 29  1  0
  7 30  1  0
  8 31  1  0
  8 32  1  0
  9 33  1  0
 10 34  1  0
 10 35  1  0
 11 36  1  0
 11 37  1  0
 12 38  1  0
 12 39  1  0
 15 40  1  0
 16 41  1  0
 17 42  1  0
 18 43  1  0
 19 44  1  0
 20 45  1  0
 20 46  1  0
 21 47  1  0
 21 48  1  0
 22 49  1  0
 23 50  1  0
M  CHG  1   9   1
M  END
>  <UniqueID>  (52) 
49

>  <SMILES>  (52) 
c1ccc(CN2CC[NH+](CCCSc3ccccc3)CC2)cc1

>  <Energy>  (52) 
61.837149606954604

>  <Genealogy>  (52) 
c1ccc(CN2CC[NH+](CCCSc3ccccc3)CC2)cc1 (protonated)
c1ccc(CN2CC[NH+](CCCSc3ccccc3)CC2)cc1 (3D coordinates assigned)
c1ccc(CN2CC[NH+](CCCSc3ccccc3)CC2)cc1 (nonaromatic ring conformer: 61.837149606954604 kcal/mol)

>  <smiles>  (52) 
c1ccc(CN2CCN(CCCSc3ccccc3)CC2)cc1

>  <score_type>  (52) 
oracle

>  <origin>  (52) 
adg

>  <m_score__min__energy>  (52) 
-6.2000000000000002

>  <m_primary>  (52) 
energy

$$$$
52:0
     RDKit          3D

 39 40  0  0  0  0  0  0  0  0999 V2000
   63.4810   33.0400   47.2410 C   0  0  0  0  0  0  0  0  0  0  0  0
   62.2280   33.5300   47.8260 N   0  0  0  0  0  0  0  0  0  0  0  0
   62.2550   34.1310   49.1650 C   0  0  0  0  0  0  0  0  0  0  0  0
   60.9760   33.3930   47.1060 C   0  0  0  0  0  0  0  0  0  0  0  0
   60.2280   32.2000   47.1750 C   0  0  0  0  0  0  0  0  0  0  0  0
   58.9960   32.0890   46.5260 C   0  0  0  0  0  0  0  0  0  0  0  0
   58.4810   33.1680   45.7930 C   0  0  0  0  0  0  0  0  0  0  0  0
   57.1080   33.0910   45.1820 C   0  0  0  0  0  0  0  0  0  0  0  0
   56.6480   31.7030   45.0910 N   0  0  0  0  0  0  0  0  0  0  0  0
   57.5100   30.8150   43.8620 S   0  0  0  0  0  0  0  0  0  0  0  0
   56.5390   30.3240   42.8280 O   0  0  0  0  0  0  0  0  0  0  0  0
   58.4970   31.7270   43.1860 O   0  0  0  0  0  0  0  0  0  0  0  0
   58.3500   29.4210   44.5740 C   0  0  0  0  0  0  0  0  0  0  0  0
   59.7560   29.4230   44.5660 C   0  0  0  0  0  0  0  0  0  0  0  0
   60.4760   28.4230   45.2180 C   0  0  0  0  0  0  0  0  0  0  0  0
   59.8050   27.4020   45.8850 C   0  0  0  0  0  0  0  0  0  0  0  0
   58.4120   27.3660   45.8850 C   0  0  0  0  0  0  0  0  0  0  0  0
   57.6620   28.3560   45.2210 C   0  0  0  0  0  0  0  0  0  0  0  0
   56.1850   28.2340   45.2470 C   0  0  0  0  0  0  0  0  0  0  0  0
   55.4470   29.1770   44.8600 O   0  0  0  0  0  0  0  0  0  0  0  0
   55.5920   27.0440   45.6540 O   0  0  0  0  0  0  0  0  0  0  0  0
   59.2340   34.3440   45.6850 C   0  0  0  0  0  0  0  0  0  0  0  0
   60.4650   34.4580   46.3360 C   0  0  0  0  0  0  0  0  0  0  0  0
   64.1793   32.7669   48.0459 H   0  0  0  0  0  0  0  0  0  0  0  0
   63.2745   32.1564   46.6193 H   0  0  0  0  0  0  0  0  0  0  0  0
   63.9287   33.8293   46.6193 H   0  0  0  0  0  0  0  0  0  0  0  0
   62.2193   33.3361   49.9245 H   0  0  0  0  0  0  0  0  0  0  0  0
   63.1802   34.7133   49.2869 H   0  0  0  0  0  0  0  0  0  0  0  0
   61.3857   34.7940   49.2869 H   0  0  0  0  0  0  0  0  0  0  0  0
   60.6194   31.3459   47.7471 H   0  0  0  0  0  0  0  0  0  0  0  0
   58.4266   31.1500   46.5902 H   0  0  0  0  0  0  0  0  0  0  0  0
   56.4047   33.6623   45.8057 H   0  0  0  0  0  0  0  0  0  0  0  0
   57.1536   33.5111   44.1664 H   0  0  0  0  0  0  0  0  0  0  0  0
   60.2948   30.2239   44.0385 H   0  0  0  0  0  0  0  0  0  0  0  0
   61.5758   28.4408   45.2053 H   0  0  0  0  0  0  0  0  0  0  0  0
   60.3749   26.6229   46.4125 H   0  0  0  0  0  0  0  0  0  0  0  0
   57.8907   26.5527   46.4111 H   0  0  0  0  0  0  0  0  0  0  0  0
   58.8539   35.1831   45.0839 H   0  0  0  0  0  0  0  0  0  0  0  0
   61.0425   35.3899   46.2467 H   0  0  0  0  0  0  0  0  0  0  0  0
  1  2  1  0
  2  3  1  0
  2  4  1  0
  4  5  2  0
  5  6  1  0
  6  7  2  0
  7  8  1  0
  8  9  1  0
  9 10  1  0
 10 11  2  0
 10 12  2  0
 10 13  1  0
 13 14  2  0
 14 15  1  0
 15 16  2  0
 16 17  1  0
 17 18  2  0
 18 19  1  0
 19 20  2  0
 19 21  1  0
  7 22  1  0
 22 23  2  0
 23  4  1  0
 18 13  1  0
  1 24  1  0
  1 25  1  0
  1 26  1  0
  3 27  1  0
  3 28  1  0
  3 29  1  0
  5 30  1  0
  6 31  1  0
  8 32  1  0
  8 33  1  0
 14 34  1  0
 15 35  1  0
 16 36  1  0
 17 37  1  0
 22 38  1  0
 23 39  1  0
M  CHG  2   9  -1  21  -1
M  END
>  <UniqueID>  (53) 
50

>  <SMILES>  (53) 
CN(C)c1ccc(C[N-]S(=O)(=O)c2ccccc2C(=O)[O-])cc1

>  <Energy>  (53) 
41.00100798784853

>  <Genealogy>  (53) 
CN(C)c1ccc(C[N-]S(=O)(=O)c2ccccc2C(=O)[O-])cc1 (protonated)
CN(C)c1ccc(C[N-]S(=O)(=O)c2ccccc2C(=O)[O-])cc1 (3D coordinates assigned)
CN(C)c1ccc(C[N-]S(=O)(=O)c2ccccc2C(=O)[O-])cc1 (optimized conformer: 41.00100798784853 kcal/mol)

>  <smiles>  (53) 
CN(C)c1ccc(CNS(=O)(=O)c2ccccc2C(=O)O)cc1

>  <score_type>  (53) 
oracle

>  <origin>  (53) 
adg

>  <m_score__min__energy>  (53) 
-12.210000000000001

>  <m_primary>  (53) 
energy

$$$$
53:0
     RDKit          3D

 43 45  0  0  1  0  0  0  0  0999 V2000
   57.3240   26.3480   45.9440 C   0  0  0  0  0  0  0  0  0  0  0  0
   57.8410   27.6710   45.4560 C   0  0  0  0  0  0  0  0  0  0  0  0
   59.1410   27.6720   44.9730 C   0  0  0  0  0  0  0  0  0  0  0  0
   59.6900   28.8560   44.5050 C   0  0  0  0  0  0  0  0  0  0  0  0
   61.9960   33.8550   47.4730 C   0  0  0  0  0  0  0  0  0  0  0  0
   61.0030   32.9590   47.8120 C   0  0  0  0  0  0  0  0  0  0  0  0
   56.8790   31.2030   45.0230 N   0  0  0  0  0  0  0  0  0  0  0  0
   57.4760   32.3040   45.3010 C   0  0  0  0  0  0  0  0  0  0  0  0
   57.3540   33.4210   44.5670 N   0  0  0  0  0  0  0  0  0  0  0  0
   57.9800   34.5770   44.8590 C   0  0  0  0  0  0  0  0  0  0  0  0
   58.7890   34.5930   45.9810 C   0  0  0  0  0  0  0  0  0  0  0  0
   58.9290   33.4700   46.7430 C   0  0  0  0  0  0  0  0  0  0  0  0
   59.6650   33.4420   47.7860 N   0  0  0  0  0  0  0  0  0  0  0  0
   57.6020   29.9750   45.0300 C   0  0  0  0  0  0  0  0  0  0  0  0
   58.9030   29.9900   44.5440 C   0  0  0  0  0  0  0  0  0  0  0  0
   63.3250   33.4650   47.4720 C   0  0  0  0  0  0  0  0  0  0  0  0
   63.5990   32.1580   47.8220 C   0  0  0  0  0  0  0  0  0  0  0  0
   62.6000   31.2670   48.1600 C   0  0  0  0  0  0  0  0  0  0  0  0
   61.2720   31.6450   48.1640 C   0  0  0  0  0  0  0  0  0  0  0  0
   60.0120   30.5320   48.5870 S   0  0  0  0  0  0  0  0  0  0  0  0
   60.5450   29.3710   49.8330 C   0  0  0  0  0  0  0  0  0  0  0  0
   58.8250   31.3220   49.0640 O   0  0  0  0  0  0  0  0  0  0  0  0
   59.5640   29.7360   47.3970 O   0  0  0  0  0  0  0  0  0  0  0  0
   58.2710   32.3430   46.3910 N   0  0  0  0  0  0  0  0  0  0  0  0
   57.0520   28.7970   45.4970 C   0  0  0  0  0  0  0  0  0  0  0  0
   57.3204   26.3389   47.0440 H   0  0  0  0  0  0  0  0  0  0  0  0
   56.2999   26.1950   45.5727 H   0  0  0  0  0  0  0  0  0  0  0  0
   57.9730   25.5412   45.5727 H   0  0  0  0  0  0  0  0  0  0  0  0
   59.7303   26.7433   44.9613 H   0  0  0  0  0  0  0  0  0  0  0  0
   60.7182   28.8909   44.1156 H   0  0  0  0  0  0  0  0  0  0  0  0
   61.7301   34.8872   47.2014 H   0  0  0  0  0  0  0  0  0  0  0  0
   56.7450   33.3880   43.7340 H   0  0  0  0  0  0  0  0  0  0  0  0
   57.8533   35.4714   44.2314 H   0  0  0  0  0  0  0  0  0  0  0  0
   59.3213   35.5144   46.2598 H   0  0  0  0  0  0  0  0  0  0  0  0
   59.3213   30.9389   44.1771 H   0  0  0  0  0  0  0  0  0  0  0  0
   64.1282   34.1670   47.2037 H   0  0  0  0  0  0  0  0  0  0  0  0
   64.6445   31.8163   47.8319 H   0  0  0  0  0  0  0  0  0  0  0  0
   62.8674   30.2351   48.4316 H   0  0  0  0  0  0  0  0  0  0  0  0
   60.3524   29.7905   50.8314 H   0  0  0  0  0  0  0  0  0  0  0  0
   59.9893   28.4287   49.7178 H   0  0  0  0  0  0  0  0  0  0  0  0
   61.6218   29.1781   49.7178 H   0  0  0  0  0  0  0  0  0  0  0  0
   58.3690   31.4820   46.9640 H   0  0  0  0  0  0  0  0  0  0  0  0
   56.0238   28.7609   45.8862 H   0  0  0  0  0  0  0  0  0  0  0  0
  1  2  1  0
  2  3  2  0
  3  4  1  0
  4  5  2  0
  5  6  1  0
  6  7  1  0
  7  8  2  0
  8  9  1  0
  9 10  1  0
 10 11  2  0
 11 12  1  0
 12 13  2  0
 13 14  1  0
 14 15  2  0
 15 16  1  0
 16 17  2  0
 17 18  1  0
 18 19  2  0
 19 20  1  0
 20 21  1  0
 20 22  2  0
 20 23  2  0
 12 24  1  0
  6 25  2  0
 25  2  1  0
 24  8  1  0
 19 14  1  0
  1 26  1  0
  1 27  1  0
  1 28  1  0
  3 29  1  0
  4 30  1  0
  5 31  1  0
  9 32  1  0
 10 33  1  0
 11 34  1  0
 15 35  1  0
 16 36  1  0
 17 37  1  0
 18 38  1  0
 21 39  1  0
 21 40  1  0
 21 41  1  0
 24 42  1  0
 25 43  1  0
M  END
>  <smiles>  (54) 
Cc1cccc(N=c2[nH]ccc(=Nc3ccccc3S(C)(=O)=O)[nH]2)c1

>  <score_type>  (54) 
oracle

>  <origin>  (54) 
adg

>  <m_score__min__energy>  (54) 
-9.0600000000000005

>  <m_primary>  (54) 
energy

$$$$
54:0
     RDKit          3D

 22 22  0  0  0  0  0  0  0  0999 V2000
   50.9770   31.2610   49.4930 C   0  0  0  0  0  0  0  0  0  0  0  0
   51.3160   32.3520   50.3940 N   0  0  0  0  0  0  0  0  0  0  0  0
   51.0470   32.3100   51.7980 C   0  0  0  0  0  0  0  0  0  0  0  0
   50.6570   33.3510   52.3930 O   0  0  0  0  0  0  0  0  0  0  0  0
   51.2260   31.0460   52.5370 C   0  0  0  0  0  0  0  0  0  0  0  0
   50.2380   30.4040   53.2650 C   0  0  0  0  0  0  0  0  0  0  0  0
   50.8200   29.2810   53.8150 C   0  0  0  0  0  0  0  0  0  0  0  0
   52.1130   29.2060   53.4560 N   0  0  0  0  0  0  0  0  0  0  0  0
   52.3730   30.2690   52.6690 C   0  0  0  0  0  0  0  0  0  0  0  0
   53.7420   30.5580   52.1160 C   0  0  0  0  0  0  0  0  0  0  0  0
   53.6550   31.4200   50.9390 N   0  0  0  0  0  0  0  0  0  0  0  0
   50.7010   30.3728   50.0803 H   0  0  0  0  0  0  0  0  0  0  0  0
   50.1292   31.5592   48.8588 H   0  0  0  0  0  0  0  0  0  0  0  0
   51.8445   31.0262   48.8588 H   0  0  0  0  0  0  0  0  0  0  0  0
   49.1929   30.7268   53.3818 H   0  0  0  0  0  0  0  0  0  0  0  0
   50.3010   28.5522   54.4549 H   0  0  0  0  0  0  0  0  0  0  0  0
   52.7890   28.4640   53.7440 H   0  0  0  0  0  0  0  0  0  0  0  0
   54.3438   31.0607   52.8874 H   0  0  0  0  0  0  0  0  0  0  0  0
   54.2117   29.6075   51.8229 H   0  0  0  0  0  0  0  0  0  0  0  0
   53.0030   30.9880   50.2450 H   0  0  0  0  0  0  0  0  0  0  0  0
   53.2890   32.3630   51.2060 H   0  0  0  0  0  0  0  0  0  0  0  0
   54.6000   31.5220   50.5000 H   0  0  0  0  0  0  0  0  0  0  0  0
  1  2  1  0
  2  3  1  0
  3  4  2  0
  3  5  1  0
  5  6  1  0
  6  7  2  0
  7  8  1  0
  8  9  1  0
  9 10  1  0
 10 11  1  0
  9  5  2  0
  1 12  1  0
  1 13  1  0
  1 14  1  0
  6 15  1  0
  7 16  1  0
  8 17  1  0
 10 18  1  0
 10 19  1  0
 11 20  1  0
 11 21  1  0
 11 22  1  0
M  CHG  2   2  -1  11   1
M  END
>  <UniqueID>  (55) 
51

>  <SMILES>  (55) 
C[N-]C(=O)c1cc[nH]c1C[NH3+]

>  <Energy>  (55) 
41.049538575741224

>  <Genealogy>  (55) 
C[N-]C(=O)c1cc[nH]c1C[NH3+] (protonated)
C[N-]C(=O)c1cc[nH]c1C[NH3+] (3D coordinates assigned)
C[N-]C(=O)c1cc[nH]c1C[NH3+] (optimized conformer: 41.049538575741224 kcal/mol)

>  <smiles>  (55) 
CNC(=O)c1cc[nH]c1CN

>  <score_type>  (55) 
oracle

>  <origin>  (55) 
adg

>  <m_score__min__energy>  (55) 
-5.5300000000000002

>  <m_primary>  (55) 
energy

$$$$
55:0
     RDKit          3D

 46 48  0  0  0  0  0  0  0  0999 V2000
   60.0069   25.7545   48.6811 H   0  0  0  0  0  0  0  0  0  0  0  0
   59.4510   26.2820   47.8920 C   0  0  0  0  0  0  0  0  0  0  0  0
   59.2330   27.6190   47.9940 N   0  0  0  0  0  0  0  0  0  0  0  0
   58.5370   28.3160   47.0500 C   0  0  0  0  0  0  0  0  0  0  0  0
   58.3960   29.6080   47.1420 N   0  0  0  0  0  0  0  0  0  0  0  0
   59.4390   30.5950   47.1090 C   0  0  0  0  0  0  0  0  0  0  0  0
   60.7130   30.3510   47.6460 C   0  0  0  0  0  0  0  0  0  0  0  0
   60.9403   29.3732   48.0958 H   0  0  0  0  0  0  0  0  0  0  0  0
   61.6920   31.3450   47.6110 C   0  0  0  0  0  0  0  0  0  0  0  0
   62.6908   31.1423   48.0249 H   0  0  0  0  0  0  0  0  0  0  0  0
   61.4110   32.6050   47.0500 C   0  0  0  0  0  0  0  0  0  0  0  0
   62.3740   33.6260   46.9910 O   0  0  0  0  0  0  0  0  0  0  0  0
   63.7620   33.4410   47.2450 C   0  0  0  0  0  0  0  0  0  0  0  0
   63.9361   33.4178   48.3309 H   0  0  0  0  0  0  0  0  0  0  0  0
   64.0927   32.4908   46.8002 H   0  0  0  0  0  0  0  0  0  0  0  0
   64.3300   34.2714   46.8002 H   0  0  0  0  0  0  0  0  0  0  0  0
   60.1310   32.8650   46.5380 C   0  0  0  0  0  0  0  0  0  0  0  0
   59.8750   34.1310   45.9900 O   0  0  0  0  0  0  0  0  0  0  0  0
   59.6230   35.3060   46.7540 C   0  0  0  0  0  0  0  0  0  0  0  0
   59.6748   35.0645   47.8259 H   0  0  0  0  0  0  0  0  0  0  0  0
   60.3780   36.0689   46.5131 H   0  0  0  0  0  0  0  0  0  0  0  0
   58.6216   35.6922   46.5131 H   0  0  0  0  0  0  0  0  0  0  0  0
   59.1470   31.8590   46.5850 C   0  0  0  0  0  0  0  0  0  0  0  0
   58.1364   32.0694   46.2051 H   0  0  0  0  0  0  0  0  0  0  0  0
   58.0430   27.6380   45.9170 C   0  0  0  0  0  0  0  0  0  0  0  0
   57.3280   28.3560   44.8460 C   0  0  0  0  0  0  0  0  0  0  0  0
   57.9080   28.5640   43.7490 O   0  0  0  0  0  0  0  0  0  0  0  0
   55.9760   28.8000   45.0160 N   0  0  0  0  0  0  0  0  0  0  0  0
   55.3090   29.7810   44.1640 C   0  0  0  0  0  0  0  0  0  0  0  0
   54.8921   29.2708   43.2832 H   0  0  0  0  0  0  0  0  0  0  0  0
   54.5055   30.2631   44.7401 H   0  0  0  0  0  0  0  0  0  0  0  0
   56.2820   30.8370   43.7100 C   0  0  0  0  0  0  0  0  0  0  0  0
   56.6550   30.9420   42.3620 C   0  0  0  0  0  0  0  0  0  0  0  0
   56.2063   30.2730   41.6129 H   0  0  0  0  0  0  0  0  0  0  0  0
   57.5960   31.8960   41.9720 C   0  0  0  0  0  0  0  0  0  0  0  0
   57.9760   31.9900   40.6740 F   0  0  0  0  0  0  0  0  0  0  0  0
   58.1480   32.7470   42.9310 C   0  0  0  0  0  0  0  0  0  0  0  0
   58.8903   33.5021   42.6329 H   0  0  0  0  0  0  0  0  0  0  0  0
   57.7690   32.6440   44.2350 N   0  0  0  0  0  0  0  0  0  0  0  0
   58.1930   33.2850   44.9410 H   0  0  0  0  0  0  0  0  0  0  0  0
   56.8600   31.7150   44.6390 C   0  0  0  0  0  0  0  0  0  0  0  0
   56.5769   31.6523   45.7001 H   0  0  0  0  0  0  0  0  0  0  0  0
   58.2680   26.2600   45.7960 C   0  0  0  0  0  0  0  0  0  0  0  0
   57.8897   25.7166   44.9176 H   0  0  0  0  0  0  0  0  0  0  0  0
   58.9710   25.5770   46.7880 C   0  0  0  0  0  0  0  0  0  0  0  0
   59.1451   24.4944   46.7009 H   0  0  0  0  0  0  0  0  0  0  0  0
  1  2  1  0
  2  3  1  0
  3  4  1  0
  4  5  2  0
  5  6  1  0
  6  7  2  0
  7  8  1  0
  7  9  1  0
  9 10  1  0
  9 11  2  0
 11 12  1  0
 12 13  1  0
 13 14  1  0
 13 15  1  0
 13 16  1  0
 11 17  1  0
 17 18  1  0
 18 19  1  0
 19 20  1  0
 19 21  1  0
 19 22  1  0
 17 23  2  0
 23 24  1  0
  4 25  1  0
 25 26  1  0
 26 27  2  0
 26 28  1  0
 28 29  1  0
 29 30  1  0
 29 31  1  0
 29 32  1  0
 32 33  2  0
 33 34  1  0
 33 35  1  0
 35 36  1  0
 35 37  2  0
 37 38  1  0
 37 39  1  0
 39 40  1  0
 39 41  2  0
 41 42  1  0
 25 43  2  0
 43 44  1  0
 43 45  1  0
 45 46  1  0
 45  2  2  0
 23  6  1  0
 41 32  1  0
M  CHG  3   3  -1  28  -1  39   1
M  END
>  <UniqueID>  (56) 
52

>  <SMILES>  (56) 
COc1ccc(/N=c2\[n-]cccc2C(=O)[N-]Cc2c[nH+]cc(F)c2)cc1OC

>  <Energy>  (56) 
55.41718421318665

>  <Genealogy>  (56) 
COc1ccc(N=c2[n-]cccc2C(=O)[N-]Cc2c[nH+]cc(F)c2)cc1OC (protonated)
COc1ccc(/N=c2\[n-]cccc2C(=O)[N-]Cc2c[nH+]cc(F)c2)cc1OC (cis-trans isomerization)
COc1ccc(/N=c2\[n-]cccc2C(=O)[N-]Cc2c[nH+]cc(F)c2)cc1OC (3D coordinates assigned)
COc1ccc(/N=c2\[n-]cccc2C(=O)[N-]Cc2c[nH+]cc(F)c2)cc1OC (optimized conformer: 55.41718421318665 kcal/mol)

>  <smiles>  (56) 
COc1ccc(N=c2[nH]cccc2C(=O)NCc2cncc(F)c2)cc1OC

>  <score_type>  (56) 
oracle

>  <origin>  (56) 
adg

>  <m_score__min__energy>  (56) 
-8.8599999999999994

>  <m_primary>  (56) 
energy

$$$$
56:0
     RDKit          3D

 44 45  0  0  0  0  0  0  0  0999 V2000
   58.5340   27.3310   43.6290 C   0  0  0  0  0  0  0  0  0  0  0  0
   58.0530   28.6870   44.0700 C   0  0  0  0  0  0  0  0  0  0  0  0
   56.8730   29.1950   43.4990 C   0  0  0  0  0  0  0  0  0  0  0  0
   56.3800   30.4470   43.8660 C   0  0  0  0  0  0  0  0  0  0  0  0
   57.0670   31.2290   44.8050 C   0  0  0  0  0  0  0  0  0  0  0  0
   56.5800   32.5070   45.2360 N   0  0  0  0  0  0  0  0  0  0  0  0
   57.3630   33.6860   45.4760 C   0  0  0  0  0  0  0  0  0  0  0  0
   56.9370   34.8140   45.1060 O   0  0  0  0  0  0  0  0  0  0  0  0
   58.6970   33.5720   46.1130 C   0  0  0  0  0  0  0  0  0  0  0  0
   58.8220   33.0850   47.4270 C   0  0  0  0  0  0  0  0  0  0  0  0
   60.0810   32.9760   48.0270 C   0  0  0  0  0  0  0  0  0  0  0  0
   61.2330   33.3470   47.3230 C   0  0  0  0  0  0  0  0  0  0  0  0
   62.8140   33.2270   48.0860 S   0  0  0  0  0  0  0  0  0  0  0  0
   63.4570   31.6410   47.8460 N   0  0  0  0  0  0  0  0  0  0  0  0
   63.7480   34.2420   47.4870 O   0  0  0  0  0  0  0  0  0  0  0  0
   62.6900   33.5000   49.5600 O   0  0  0  0  0  0  0  0  0  0  0  0
   61.1160   33.8400   46.0170 C   0  0  0  0  0  0  0  0  0  0  0  0
   59.8590   33.9500   45.4150 C   0  0  0  0  0  0  0  0  0  0  0  0
   58.2310   30.7240   45.3920 C   0  0  0  0  0  0  0  0  0  0  0  0
   58.7500   29.4720   45.0260 C   0  0  0  0  0  0  0  0  0  0  0  0
   60.2410   28.9480   45.8360 S   0  0  0  0  0  0  0  0  0  0  0  0
   60.9360   30.1740   46.3640 O   0  0  0  0  0  0  0  0  0  0  0  0
   61.1840   28.2570   44.8900 O   0  0  0  0  0  0  0  0  0  0  0  0
   59.8450   27.8930   47.1700 N   0  0  0  0  0  0  0  0  0  0  0  0
   60.6820   26.6880   47.1140 C   0  0  0  0  0  0  0  0  0  0  0  0
   60.0700   28.6020   48.4370 C   0  0  0  0  0  0  0  0  0  0  0  0
   58.7528   26.7142   44.5131 H   0  0  0  0  0  0  0  0  0  0  0  0
   57.7539   26.8436   43.0258 H   0  0  0  0  0  0  0  0  0  0  0  0
   59.4469   27.4441   43.0258 H   0  0  0  0  0  0  0  0  0  0  0  0
   56.3308   28.5965   42.7521 H   0  0  0  0  0  0  0  0  0  0  0  0
   55.4486   30.8222   43.4169 H   0  0  0  0  0  0  0  0  0  0  0  0
   57.9230   32.7877   47.9868 H   0  0  0  0  0  0  0  0  0  0  0  0
   60.1663   32.5972   49.0562 H   0  0  0  0  0  0  0  0  0  0  0  0
   64.3010   31.7430   47.2400 H   0  0  0  0  0  0  0  0  0  0  0  0
   62.7510   31.1060   47.2910 H   0  0  0  0  0  0  0  0  0  0  0  0
   62.0170   34.1419   45.4628 H   0  0  0  0  0  0  0  0  0  0  0  0
   59.7777   34.3350   44.3878 H   0  0  0  0  0  0  0  0  0  0  0  0
   58.7510   31.3200   46.1565 H   0  0  0  0  0  0  0  0  0  0  0  0
   60.9136   26.3546   48.1364 H   0  0  0  0  0  0  0  0  0  0  0  0
   60.1421   25.8909   46.5818 H   0  0  0  0  0  0  0  0  0  0  0  0
   61.6174   26.9157   46.5818 H   0  0  0  0  0  0  0  0  0  0  0  0
   59.8556   27.9265   49.2783 H   0  0  0  0  0  0  0  0  0  0  0  0
   61.1175   28.9335   48.4907 H   0  0  0  0  0  0  0  0  0  0  0  0
   59.4053   29.4768   48.4907 H   0  0  0  0  0  0  0  0  0  0  0  0
  1  2  1  0
  2  3  2  0
  3  4  1  0
  4  5  2  0
  5  6  1  0
  6  7  1  0
  7  8  2  0
  7  9  1  0
  9 10  2  0
 10 11  1  0
 11 12  2  0
 12 13  1  0
 13 14  1  0
 13 15  2  0
 13 16  2  0
 12 17  1  0
 17 18  2  0
  5 19  1  0
 19 20  2  0
 20 21  1  0
 21 22  2  0
 21 23  2  0
 21 24  1  0
 24 25  1  0
 24 26  1  0
 20  2  1  0
 18  9  1  0
  1 27  1  0
  1 28  1  0
  1 29  1  0
  3 30  1  0
  4 31  1  0
 10 32  1  0
 11 33  1  0
 14 34  1  0
 14 35  1  0
 17 36  1  0
 18 37  1  0
 19 38  1  0
 25 39  1  0
 25 40  1  0
 25 41  1  0
 26 42  1  0
 26 43  1  0
 26 44  1  0
M  CHG  1   6  -1
M  END
>  <UniqueID>  (57) 
53

>  <SMILES>  (57) 
Cc1ccc([N-]C(=O)c2ccc(S(N)(=O)=O)cc2)cc1S(=O)(=O)N(C)C

>  <Energy>  (57) 
47.60158126087995

>  <Genealogy>  (57) 
Cc1ccc([N-]C(=O)c2ccc(S(N)(=O)=O)cc2)cc1S(=O)(=O)N(C)C (protonated)
Cc1ccc([N-]C(=O)c2ccc(S(N)(=O)=O)cc2)cc1S(=O)(=O)N(C)C (3D coordinates assigned)
Cc1ccc([N-]C(=O)c2ccc(S(N)(=O)=O)cc2)cc1S(=O)(=O)N(C)C (optimized conformer: 47.60158126087995 kcal/mol)

>  <smiles>  (57) 
Cc1ccc(NC(=O)c2ccc(S(N)(=O)=O)cc2)cc1S(=O)(=O)N(C)C

>  <score_type>  (57) 
oracle

>  <origin>  (57) 
adg

>  <m_score__min__energy>  (57) 
-10.31

>  <m_primary>  (57) 
energy

$$$$
57:0
     RDKit          3D

 40 42  0  0  0  0  0  0  0  0999 V2000
   56.3160   29.2370   45.2380 O   0  0  0  0  0  0  0  0  0  0  0  0
   57.4190   29.6190   44.7580 C   0  0  0  0  0  0  0  0  0  0  0  0
   58.3330   28.6510   44.2170 N   0  0  0  0  0  0  0  0  0  0  0  0
   58.2870   27.2510   44.5410 C   0  0  0  0  0  0  0  0  0  0  0  0
   58.7810   26.7690   45.7670 C   0  0  0  0  0  0  0  0  0  0  0  0
   58.7170   25.4050   46.0640 C   0  0  0  0  0  0  0  0  0  0  0  0
   58.1690   24.5060   45.1420 C   0  0  0  0  0  0  0  0  0  0  0  0
   58.0030   22.8070   45.5790 S   0  0  0  0  0  0  0  0  0  0  0  0
   59.3550   22.1560   45.5110 O   0  0  0  0  0  0  0  0  0  0  0  0
   57.0850   22.1060   44.6160 O   0  0  0  0  0  0  0  0  0  0  0  0
   57.3790   22.6560   47.1970 N   0  0  0  0  0  0  0  0  0  0  0  0
   56.5310   23.7980   47.5480 C   0  0  0  0  0  0  0  0  0  0  0  0
   55.3750   23.9140   46.6030 C   0  0  0  0  0  0  0  0  0  0  0  0
   54.5220   22.8910   46.2390 C   0  0  0  0  0  0  0  0  0  0  0  0
   53.6110   23.4610   45.3750 C   0  0  0  0  0  0  0  0  0  0  0  0
   53.9680   24.7890   45.2610 C   0  0  0  0  0  0  0  0  0  0  0  0
   55.0250   25.0280   46.0040 O   0  0  0  0  0  0  0  0  0  0  0  0
   57.7070   24.9770   43.9060 C   0  0  0  0  0  0  0  0  0  0  0  0
   57.7760   26.3410   43.6050 C   0  0  0  0  0  0  0  0  0  0  0  0
   57.7330   31.0680   44.7160 C   0  0  0  0  0  0  0  0  0  0  0  0
   57.8690   31.8150   45.9030 C   0  0  0  0  0  0  0  0  0  0  0  0
   58.1590   33.1810   45.8500 C   0  0  0  0  0  0  0  0  0  0  0  0
   58.3110   33.8200   44.6170 C   0  0  0  0  0  0  0  0  0  0  0  0
   58.5920   35.1450   44.5690 F   0  0  0  0  0  0  0  0  0  0  0  0
   58.1690   33.0920   43.4330 C   0  0  0  0  0  0  0  0  0  0  0  0
   57.8790   31.7250   43.4790 C   0  0  0  0  0  0  0  0  0  0  0  0
   58.9730   28.9530   43.4480 H   0  0  0  0  0  0  0  0  0  0  0  0
   59.2192   27.4683   46.4943 H   0  0  0  0  0  0  0  0  0  0  0  0
   59.0992   25.0361   47.0272 H   0  0  0  0  0  0  0  0  0  0  0  0
   56.1485   23.6621   48.5704 H   0  0  0  0  0  0  0  0  0  0  0  0
   57.1327   24.7165   47.4825 H   0  0  0  0  0  0  0  0  0  0  0  0
   54.5610   21.8423   46.5688 H   0  0  0  0  0  0  0  0  0  0  0  0
   52.7690   22.9582   44.8768 H   0  0  0  0  0  0  0  0  0  0  0  0
   53.4469   25.5343   44.6422 H   0  0  0  0  0  0  0  0  0  0  0  0
   57.2894   24.2729   43.1713 H   0  0  0  0  0  0  0  0  0  0  0  0
   57.4267   26.7025   42.6266 H   0  0  0  0  0  0  0  0  0  0  0  0
   57.7461   31.3198   46.8775 H   0  0  0  0  0  0  0  0  0  0  0  0
   58.2679   33.7549   46.7821 H   0  0  0  0  0  0  0  0  0  0  0  0
   58.2857   33.5956   42.4620 H   0  0  0  0  0  0  0  0  0  0  0  0
   57.7641   31.1590   42.5428 H   0  0  0  0  0  0  0  0  0  0  0  0
  1  2  2  0
  2  3  1  0
  3  4  1  0
  4  5  2  0
  5  6  1  0
  6  7  2  0
  7  8  1  0
  8  9  2  0
  8 10  2  0
  8 11  1  0
 11 12  1  0
 12 13  1  0
 13 14  2  0
 14 15  1  0
 15 16  2  0
 16 17  1  0
  7 18  1  0
 18 19  2  0
  2 20  1  0
 20 21  2  0
 21 22  1  0
 22 23  2  0
 23 24  1  0
 23 25  1  0
 25 26  2  0
 19  4  1  0
 26 20  1  0
 17 13  1  0
  3 27  1  0
  5 28  1  0
  6 29  1  0
 12 30  1  0
 12 31  1  0
 14 32  1  0
 15 33  1  0
 16 34  1  0
 18 35  1  0
 19 36  1  0
 21 37  1  0
 22 38  1  0
 25 39  1  0
 26 40  1  0
M  CHG  1  11  -1
M  END
>  <UniqueID>  (58) 
54

>  <SMILES>  (58) 
O=C(Nc1ccc(S(=O)(=O)[N-]Cc2ccco2)cc1)c1ccc(F)cc1

>  <Energy>  (58) 
69.49201576839955

>  <Genealogy>  (58) 
O=C(Nc1ccc(S(=O)(=O)[N-]Cc2ccco2)cc1)c1ccc(F)cc1 (protonated)
O=C(Nc1ccc(S(=O)(=O)[N-]Cc2ccco2)cc1)c1ccc(F)cc1 (3D coordinates assigned)
O=C(Nc1ccc(S(=O)(=O)[N-]Cc2ccco2)cc1)c1ccc(F)cc1 (optimized conformer: 69.49201576839955 kcal/mol)

>  <smiles>  (58) 
O=C(Nc1ccc(S(=O)(=O)NCc2ccco2)cc1)c1ccc(F)cc1

>  <score_type>  (58) 
oracle

>  <origin>  (58) 
adg

>  <m_score__min__energy>  (58) 
-9.6199999999999992

>  <m_primary>  (58) 
energy

$$$$
58:0
     RDKit          3D

 28 29  0  0  0  0  0  0  0  0999 V2000
   61.4881   29.9841   45.6326 H   0  0  0  0  0  0  0  0  0  0  0  0
   60.4780   29.6460   45.9070 C   0  0  0  0  0  0  0  0  0  0  0  0
   59.7480   30.4380   46.9220 C   0  0  0  0  0  0  0  0  0  0  0  0
   59.4530   29.8760   48.0110 O   0  0  0  0  0  0  0  0  0  0  0  0
   59.3960   31.8670   46.7280 C   0  0  0  0  0  0  0  0  0  0  0  0
   60.2410   32.8730   47.2310 C   0  0  0  0  0  0  0  0  0  0  0  0
   61.1722   32.5979   47.7480 H   0  0  0  0  0  0  0  0  0  0  0  0
   59.9030   34.2200   47.0770 C   0  0  0  0  0  0  0  0  0  0  0  0
   60.5637   35.0008   47.4816 H   0  0  0  0  0  0  0  0  0  0  0  0
   58.7290   34.5780   46.4110 C   0  0  0  0  0  0  0  0  0  0  0  0
   58.4639   35.6393   46.2957 H   0  0  0  0  0  0  0  0  0  0  0  0
   57.8910   33.5880   45.8910 C   0  0  0  0  0  0  0  0  0  0  0  0
   56.7260   33.9440   45.2240 O   0  0  0  0  0  0  0  0  0  0  0  0
   58.2250   32.2380   46.0410 C   0  0  0  0  0  0  0  0  0  0  0  0
   57.5689   31.4621   45.6197 H   0  0  0  0  0  0  0  0  0  0  0  0
   60.0070   28.5480   45.2940 C   0  0  0  0  0  0  0  0  0  0  0  0
   60.6810   28.0286   44.5969 H   0  0  0  0  0  0  0  0  0  0  0  0
   58.6540   27.9820   45.4820 C   0  0  0  0  0  0  0  0  0  0  0  0
   58.4640   26.6970   46.0190 C   0  0  0  0  0  0  0  0  0  0  0  0
   59.3348   26.0885   46.3044 H   0  0  0  0  0  0  0  0  0  0  0  0
   57.1730   26.1890   46.1920 C   0  0  0  0  0  0  0  0  0  0  0  0
   57.0302   25.1891   46.6277 H   0  0  0  0  0  0  0  0  0  0  0  0
   56.0630   26.9500   45.8120 C   0  0  0  0  0  0  0  0  0  0  0  0
   54.7820   26.4420   45.9920 O   0  0  0  0  0  0  0  0  0  0  0  0
   56.2460   28.2180   45.2470 C   0  0  0  0  0  0  0  0  0  0  0  0
   55.1460   28.9740   44.8590 O   0  0  0  0  0  0  0  0  0  0  0  0
   57.5370   28.7270   45.0730 C   0  0  0  0  0  0  0  0  0  0  0  0
   57.6777   29.7163   44.6132 H   0  0  0  0  0  0  0  0  0  0  0  0
  1  2  1  0
  2  3  1  0
  3  4  2  0
  3  5  1  0
  5  6  2  0
  6  7  1  0
  6  8  1  0
  8  9  1  0
  8 10  2  0
 10 11  1  0
 10 12  1  0
 12 13  1  0
 12 14  2  0
 14 15  1  0
  2 16  2  0
 16 17  1  0
 16 18  1  0
 18 19  2  0
 19 20  1  0
 19 21  1  0
 21 22  1  0
 21 23  2  0
 23 24  1  0
 23 25  1  0
 25 26  1  0
 25 27  2  0
 27 28  1  0
 14  5  1  0
 27 18  1  0
M  CHG  3  13  -1  24  -1  26  -1
M  END
>  <UniqueID>  (59) 
55

>  <SMILES>  (59) 
O=C(/C=C\c1ccc([O-])c([O-])c1)c1cccc([O-])c1

>  <Energy>  (59) 
39.387156309684364

>  <Genealogy>  (59) 
O=C(C=Cc1ccc([O-])c([O-])c1)c1cccc([O-])c1 (protonated)
O=C(/C=C\c1ccc([O-])c([O-])c1)c1cccc([O-])c1 (cis-trans isomerization)
O=C(/C=C\c1ccc([O-])c([O-])c1)c1cccc([O-])c1 (3D coordinates assigned)
O=C(/C=C\c1ccc([O-])c([O-])c1)c1cccc([O-])c1 (optimized conformer: 39.387156309684364 kcal/mol)

>  <smiles>  (59) 
O=C(C=Cc1ccc(O)c(O)c1)c1cccc(O)c1

>  <score_type>  (59) 
oracle

>  <origin>  (59) 
adg

>  <m_score__min__energy>  (59) 
-15.41

>  <m_primary>  (59) 
energy

$$$$
59:0
     RDKit          3D

 33 35  0  0  0  0  0  0  0  0999 V2000
   55.1240   26.7220   45.9850 O   0  0  0  0  0  0  0  0  0  0  0  0
   56.2490   26.4120   46.4630 C   0  0  0  0  0  0  0  0  0  0  0  0
   56.3930   25.1860   47.1030 O   0  0  0  0  0  0  0  0  0  0  0  0
   57.3970   27.3370   46.3470 C   0  0  0  0  0  0  0  0  0  0  0  0
   58.5360   27.1710   47.1560 C   0  0  0  0  0  0  0  0  0  0  0  0
   59.6160   28.0490   47.0470 C   0  0  0  0  0  0  0  0  0  0  0  0
   59.5750   29.1020   46.1310 C   0  0  0  0  0  0  0  0  0  0  0  0
   58.4470   29.2850   45.3160 C   0  0  0  0  0  0  0  0  0  0  0  0
   58.3740   30.4550   44.3700 C   0  0  0  0  0  0  0  0  0  0  0  0
   57.0180   31.5890   44.8360 S   0  0  0  0  0  0  0  0  0  0  0  0
   58.0330   32.5740   45.9360 C   0  0  0  0  0  0  0  0  0  0  0  0
   57.5780   33.5740   46.7060 N   0  0  0  0  0  0  0  0  0  0  0  0
   58.6170   34.0830   47.3450 N   0  0  0  0  0  0  0  0  0  0  0  0
   59.6830   33.3610   46.9350 C   0  0  0  0  0  0  0  0  0  0  0  0
   61.0700   33.5940   47.3760 C   0  0  0  0  0  0  0  0  0  0  0  0
   61.3670   33.8180   48.7300 C   0  0  0  0  0  0  0  0  0  0  0  0
   62.6900   34.0440   49.1170 C   0  0  0  0  0  0  0  0  0  0  0  0
   63.6810   34.0500   48.1870 N   0  0  0  0  0  0  0  0  0  0  0  0
   63.4230   33.8390   46.8690 C   0  0  0  0  0  0  0  0  0  0  0  0
   62.1140   33.6080   46.4390 C   0  0  0  0  0  0  0  0  0  0  0  0
   59.3270   32.4310   46.0760 O   0  0  0  0  0  0  0  0  0  0  0  0
   57.3620   28.4010   45.4290 C   0  0  0  0  0  0  0  0  0  0  0  0
   58.5759   26.3435   47.8796 H   0  0  0  0  0  0  0  0  0  0  0  0
   60.5017   27.9108   47.6845 H   0  0  0  0  0  0  0  0  0  0  0  0
   60.4292   29.7901   46.0478 H   0  0  0  0  0  0  0  0  0  0  0  0
   59.3276   31.0025   44.4005 H   0  0  0  0  0  0  0  0  0  0  0  0
   58.1807   30.0749   43.3560 H   0  0  0  0  0  0  0  0  0  0  0  0
   56.5950   33.9130   46.7900 H   0  0  0  0  0  0  0  0  0  0  0  0
   60.5632   33.8155   49.4809 H   0  0  0  0  0  0  0  0  0  0  0  0
   62.9302   34.2174   50.1764 H   0  0  0  0  0  0  0  0  0  0  0  0
   64.2465   33.8502   46.1398 H   0  0  0  0  0  0  0  0  0  0  0  0
   61.9033   33.4382   45.3728 H   0  0  0  0  0  0  0  0  0  0  0  0
   56.4758   28.5424   44.7929 H   0  0  0  0  0  0  0  0  0  0  0  0
  1  2  2  0
  2  3  1  0
  2  4  1  0
  4  5  2  0
  5  6  1  0
  6  7  2  0
  7  8  1  0
  8  9  1  0
  9 10  1  0
 10 11  1  0
 11 12  2  0
 12 13  1  0
 13 14  2  0
 14 15  1  0
 15 16  2  0
 16 17  1  0
 17 18  2  0
 18 19  1  0
 19 20  2  0
 14 21  1  0
  8 22  2  0
 22  4  1  0
 21 11  1  0
 20 15  1  0
  5 23  1  0
  6 24  1  0
  7 25  1  0
  9 26  1  0
  9 27  1  0
 12 28  1  0
 16 29  1  0
 17 30  1  0
 19 31  1  0
 20 32  1  0
 22 33  1  0
M  CHG  2   3  -1  12   1
M  END
>  <UniqueID>  (60) 
56

>  <SMILES>  (60) 
O=C([O-])c1cccc(CSc2[nH+]nc(-c3ccncc3)o2)c1

>  <Energy>  (60) 
67.29980745049382

>  <Genealogy>  (60) 
O=C([O-])c1cccc(CSc2[nH+]nc(-c3ccncc3)o2)c1 (protonated)
O=C([O-])c1cccc(CSc2[nH+]nc(-c3ccncc3)o2)c1 (3D coordinates assigned)
O=C([O-])c1cccc(CSc2[nH+]nc(-c3ccncc3)o2)c1 (optimized conformer: 67.29980745049382 kcal/mol)

>  <smiles>  (60) 
O=C(O)c1cccc(CSc2nnc(-c3ccncc3)o2)c1

>  <score_type>  (60) 
oracle

>  <origin>  (60) 
adg

>  <m_score__min__energy>  (60) 
-9.6300000000000008

>  <m_primary>  (60) 
energy

$$$$
60:0
     RDKit          3D

 43 45  0  0  0  0  0  0  0  0999 V2000
   56.2210   25.1120   47.2360 O   0  0  0  0  0  0  0  0  0  0  0  0
   55.9830   25.7050   46.1500 C   0  0  0  0  0  0  0  0  0  0  0  0
   54.7600   26.3360   45.9700 O   0  0  0  0  0  0  0  0  0  0  0  0
   56.9780   25.6710   45.0310 C   0  0  0  0  0  0  0  0  0  0  0  0
   58.2170   26.4520   45.3790 C   0  0  0  0  0  0  0  0  0  0  0  0
   59.2550   25.9650   46.1520 C   0  0  0  0  0  0  0  0  0  0  0  0
   60.1560   27.0020   46.2940 C   0  0  0  0  0  0  0  0  0  0  0  0
   59.6320   28.0800   45.6110 C   0  0  0  0  0  0  0  0  0  0  0  0
   58.4510   27.7450   45.0560 N   0  0  0  0  0  0  0  0  0  0  0  0
   57.6000   28.6460   44.2720 C   0  0  0  0  0  0  0  0  0  0  0  0
   57.8530   30.0840   44.6410 C   0  0  0  0  0  0  0  0  0  0  0  0
   58.0030   31.0560   43.6400 C   0  0  0  0  0  0  0  0  0  0  0  0
   58.2350   32.3920   43.9790 C   0  0  0  0  0  0  0  0  0  0  0  0
   58.3050   32.7870   45.3290 C   0  0  0  0  0  0  0  0  0  0  0  0
   58.5580   34.2020   45.7110 C   0  0  0  0  0  0  0  0  0  0  0  0
   58.4130   35.1090   44.8450 O   0  0  0  0  0  0  0  0  0  0  0  0
   58.9400   34.5800   47.1240 C   0  0  0  0  0  0  0  0  0  0  0  0
   60.3500   34.1720   47.4640 C   0  0  0  0  0  0  0  0  0  0  0  0
   61.2590   33.8450   46.4420 C   0  0  0  0  0  0  0  0  0  0  0  0
   62.5760   33.4970   46.7560 C   0  0  0  0  0  0  0  0  0  0  0  0
   62.9980   33.4830   48.0880 C   0  0  0  0  0  0  0  0  0  0  0  0
   62.1050   33.8200   49.1090 C   0  0  0  0  0  0  0  0  0  0  0  0
   60.7860   34.1680   48.7990 C   0  0  0  0  0  0  0  0  0  0  0  0
   58.1390   31.8090   46.3270 C   0  0  0  0  0  0  0  0  0  0  0  0
   57.9100   30.4740   45.9860 C   0  0  0  0  0  0  0  0  0  0  0  0
   57.2572   24.6260   44.8310 H   0  0  0  0  0  0  0  0  0  0  0  0
   56.5176   26.1269   44.1421 H   0  0  0  0  0  0  0  0  0  0  0  0
   59.3452   24.9519   46.5710 H   0  0  0  0  0  0  0  0  0  0  0  0
   61.1075   26.9738   46.8452 H   0  0  0  0  0  0  0  0  0  0  0  0
   60.1086   29.0682   45.5312 H   0  0  0  0  0  0  0  0  0  0  0  0
   57.8164   28.5055   43.2027 H   0  0  0  0  0  0  0  0  0  0  0  0
   56.5474   28.4090   44.4864 H   0  0  0  0  0  0  0  0  0  0  0  0
   57.9375   30.7645   42.5813 H   0  0  0  0  0  0  0  0  0  0  0  0
   58.3641   33.1415   43.1843 H   0  0  0  0  0  0  0  0  0  0  0  0
   58.8510   35.6708   47.2347 H   0  0  0  0  0  0  0  0  0  0  0  0
   58.2620   34.0499   47.8090 H   0  0  0  0  0  0  0  0  0  0  0  0
   60.9325   33.8631   45.3917 H   0  0  0  0  0  0  0  0  0  0  0  0
   63.2809   33.2339   45.9536 H   0  0  0  0  0  0  0  0  0  0  0  0
   64.0340   33.2065   48.3333 H   0  0  0  0  0  0  0  0  0  0  0  0
   62.4395   33.8116   50.1569 H   0  0  0  0  0  0  0  0  0  0  0  0
   60.0875   34.4396   49.6042 H   0  0  0  0  0  0  0  0  0  0  0  0
   58.1901   32.0989   47.3869 H   0  0  0  0  0  0  0  0  0  0  0  0
   57.7734   29.7235   46.7786 H   0  0  0  0  0  0  0  0  0  0  0  0
  1  2  2  0
  2  3  1  0
  2  4  1  0
  4  5  1  0
  5  6  2  0
  6  7  1  0
  7  8  2  0
  8  9  1  0
  9 10  1  0
 10 11  1  0
 11 12  2  0
 12 13  1  0
 13 14  2  0
 14 15  1  0
 15 16  2  0
 15 17  1  0
 17 18  1  0
 18 19  2  0
 19 20  1  0
 20 21  2  0
 21 22  1  0
 22 23  2  0
 14 24  1  0
 24 25  2  0
  9  5  1  0
 25 11  1  0
 23 18  1  0
  4 26  1  0
  4 27  1  0
  6 28  1  0
  7 29  1  0
  8 30  1  0
 10 31  1  0
 10 32  1  0
 12 33  1  0
 13 34  1  0
 17 35  1  0
 17 36  1  0
 19 37  1  0
 20 38  1  0
 21 39  1  0
 22 40  1  0
 23 41  1  0
 24 42  1  0
 25 43  1  0
M  CHG  1   3  -1
M  END
>  <UniqueID>  (61) 
57

>  <SMILES>  (61) 
O=C([O-])Cc1cccn1Cc1ccc(C(=O)Cc2ccccc2)cc1

>  <Energy>  (61) 
69.5134232642757

>  <Genealogy>  (61) 
O=C([O-])Cc1cccn1Cc1ccc(C(=O)Cc2ccccc2)cc1 (protonated)
O=C([O-])Cc1cccn1Cc1ccc(C(=O)Cc2ccccc2)cc1 (3D coordinates assigned)
O=C([O-])Cc1cccn1Cc1ccc(C(=O)Cc2ccccc2)cc1 (optimized conformer: 69.5134232642757 kcal/mol)

>  <smiles>  (61) 
O=C(O)Cc1cccn1Cc1ccc(C(=O)Cc2ccccc2)cc1

>  <score_type>  (61) 
oracle

>  <origin>  (61) 
adg

>  <m_score__min__energy>  (61) 
-11.57

>  <m_primary>  (61) 
energy

$$$$
61:0
     RDKit          3D

 38 40  0  0  0  0  0  0  0  0999 V2000
   55.1390   29.3730   44.2640 O   0  0  0  0  0  0  0  0  0  0  0  0
   56.2200   29.9740   44.4980 C   0  0  0  0  0  0  0  0  0  0  0  0
   57.4070   29.2550   44.6360 C   0  0  0  0  0  0  0  0  0  0  0  0
   58.5910   29.9580   44.8920 C   0  0  0  0  0  0  0  0  0  0  0  0
   59.8870   29.2180   45.0840 C   0  0  0  0  0  0  0  0  0  0  0  0
   60.0570   28.8240   46.5300 C   0  0  0  0  0  0  0  0  0  0  0  0
   60.2590   29.8100   47.5170 C   0  0  0  0  0  0  0  0  0  0  0  0
   60.2700   31.1270   47.1900 F   0  0  0  0  0  0  0  0  0  0  0  0
   60.4500   29.4400   48.8520 C   0  0  0  0  0  0  0  0  0  0  0  0
   60.4480   28.0920   49.2150 C   0  0  0  0  0  0  0  0  0  0  0  0
   60.2560   27.1070   48.2450 C   0  0  0  0  0  0  0  0  0  0  0  0
   60.0640   27.4670   46.9060 C   0  0  0  0  0  0  0  0  0  0  0  0
   59.8810   26.4900   45.9820 F   0  0  0  0  0  0  0  0  0  0  0  0
   58.5530   31.3160   45.0100 N   0  0  0  0  0  0  0  0  0  0  0  0
   57.3840   31.9980   44.8630 C   0  0  0  0  0  0  0  0  0  0  0  0
   57.3560   33.7860   44.9870 S   0  0  0  0  0  0  0  0  0  0  0  0
   59.1710   33.9730   44.8790 C   0  0  0  0  0  0  0  0  0  0  0  0
   59.8010   33.9310   46.2440 C   0  0  0  0  0  0  0  0  0  0  0  0
   58.9980   34.0100   47.3940 C   0  0  0  0  0  0  0  0  0  0  0  0
   59.5840   34.0050   48.6630 C   0  0  0  0  0  0  0  0  0  0  0  0
   60.9730   33.9260   48.7930 C   0  0  0  0  0  0  0  0  0  0  0  0
   61.7790   33.8520   47.6530 C   0  0  0  0  0  0  0  0  0  0  0  0
   61.1960   33.8550   46.3820 C   0  0  0  0  0  0  0  0  0  0  0  0
   56.2300   31.3250   44.6140 N   0  0  0  0  0  0  0  0  0  0  0  0
   57.4132   28.1587   44.5457 H   0  0  0  0  0  0  0  0  0  0  0  0
   59.8836   28.3125   44.4594 H   0  0  0  0  0  0  0  0  0  0  0  0
   60.7199   29.8746   44.7923 H   0  0  0  0  0  0  0  0  0  0  0  0
   60.6024   30.2138   49.6188 H   0  0  0  0  0  0  0  0  0  0  0  0
   60.5979   27.8059   50.2665 H   0  0  0  0  0  0  0  0  0  0  0  0
   60.2556   26.0455   48.5334 H   0  0  0  0  0  0  0  0  0  0  0  0
   59.4300   31.8490   45.2030 H   0  0  0  0  0  0  0  0  0  0  0  0
   59.5809   33.1548   44.2686 H   0  0  0  0  0  0  0  0  0  0  0  0
   59.3955   34.9471   44.4200 H   0  0  0  0  0  0  0  0  0  0  0  0
   57.9044   34.0760   47.2955 H   0  0  0  0  0  0  0  0  0  0  0  0
   58.9508   34.0633   49.5606 H   0  0  0  0  0  0  0  0  0  0  0  0
   61.4324   33.9220   49.7925 H   0  0  0  0  0  0  0  0  0  0  0  0
   62.8725   33.7914   47.7560 H   0  0  0  0  0  0  0  0  0  0  0  0
   61.8328   33.7976   45.4869 H   0  0  0  0  0  0  0  0  0  0  0  0
  1  2  2  0
  2  3  1  0
  3  4  2  0
  4  5  1  0
  5  6  1  0
  6  7  2  0
  7  8  1  0
  7  9  1  0
  9 10  2  0
 10 11  1  0
 11 12  2  0
 12 13  1  0
  4 14  1  0
 14 15  1  0
 15 16  1  0
 16 17  1  0
 17 18  1  0
 18 19  2  0
 19 20  1  0
 20 21  2  0
 21 22  1  0
 22 23  2  0
 15 24  2  0
 24  2  1  0
 12  6  1  0
 23 18  1  0
  3 25  1  0
  5 26  1  0
  5 27  1  0
  9 28  1  0
 10 29  1  0
 11 30  1  0
 14 31  1  0
 17 32  1  0
 17 33  1  0
 19 34  1  0
 20 35  1  0
 21 36  1  0
 22 37  1  0
 23 38  1  0
M  END
>  <UniqueID>  (62) 
58

>  <SMILES>  (62) 
O=c1cc(Cc2c(F)cccc2F)[nH]c(SCc2ccccc2)n1

>  <Energy>  (62) 
35.583765321380845

>  <Genealogy>  (62) 
O=c1cc(Cc2c(F)cccc2F)[nH]c(SCc2ccccc2)n1 (3D coordinates assigned)
O=c1cc(Cc2c(F)cccc2F)[nH]c(SCc2ccccc2)n1 (optimized conformer: 35.583765321380845 kcal/mol)

>  <smiles>  (62) 
O=c1cc(Cc2c(F)cccc2F)[nH]c(SCc2ccccc2)n1

>  <score_type>  (62) 
oracle

>  <origin>  (62) 
adg

>  <m_score__min__energy>  (62) 
-7.8700000000000001

>  <m_primary>  (62) 
energy

$$$$
62:0
     RDKit          3D

 30 32  0  0  0  0  0  0  0  0999 V2000
   55.4220   29.7210   44.4160 C   0  0  0  0  0  0  0  0  0  0  0  0
   56.2560   30.9120   44.4940 N   0  0  0  0  0  0  0  0  0  0  0  0
   57.6540   30.9240   44.1840 C   0  0  0  0  0  0  0  0  0  0  0  0
   58.0630   31.6190   43.2180 O   0  0  0  0  0  0  0  0  0  0  0  0
   58.6200   30.1180   44.9500 C   0  0  0  0  0  0  0  0  0  0  0  0
   58.8520   28.7960   44.5410 C   0  0  0  0  0  0  0  0  0  0  0  0
   59.7460   27.9840   45.2400 C   0  0  0  0  0  0  0  0  0  0  0  0
   60.4010   28.4730   46.3680 C   0  0  0  0  0  0  0  0  0  0  0  0
   60.1750   29.7830   46.7990 C   0  0  0  0  0  0  0  0  0  0  0  0
   59.3130   30.6320   46.0730 C   0  0  0  0  0  0  0  0  0  0  0  0
   59.3260   32.3610   46.4820 S   0  0  0  0  0  0  0  0  0  0  0  0
   58.4430   32.6400   47.6640 O   0  0  0  0  0  0  0  0  0  0  0  0
   58.8980   33.2060   45.3150 O   0  0  0  0  0  0  0  0  0  0  0  0
   61.0070   32.7160   46.8750 C   0  0  0  0  0  0  0  0  0  0  0  0
   61.6410   33.8570   46.3650 C   0  0  0  0  0  0  0  0  0  0  0  0
   63.0160   34.0340   46.5440 C   0  0  0  0  0  0  0  0  0  0  0  0
   63.7660   33.0640   47.2170 C   0  0  0  0  0  0  0  0  0  0  0  0
   63.1400   31.9240   47.7280 C   0  0  0  0  0  0  0  0  0  0  0  0
   61.7590   31.7540   47.5730 C   0  0  0  0  0  0  0  0  0  0  0  0
   60.9380   30.3460   48.3320 S   0  0  0  0  0  0  0  0  0  0  0  0
   55.1801   29.3756   45.4320 H   0  0  0  0  0  0  0  0  0  0  0  0
   54.4922   29.9590   43.8786 H   0  0  0  0  0  0  0  0  0  0  0  0
   55.9636   28.9287   43.8786 H   0  0  0  0  0  0  0  0  0  0  0  0
   58.3248   28.3964   43.6621 H   0  0  0  0  0  0  0  0  0  0  0  0
   59.9340   26.9551   44.8994 H   0  0  0  0  0  0  0  0  0  0  0  0
   61.0980   27.8262   46.9210 H   0  0  0  0  0  0  0  0  0  0  0  0
   61.0557   34.6145   45.8230 H   0  0  0  0  0  0  0  0  0  0  0  0
   63.5088   34.9373   46.1551 H   0  0  0  0  0  0  0  0  0  0  0  0
   64.8503   33.1988   47.3442 H   0  0  0  0  0  0  0  0  0  0  0  0
   63.7325   31.1598   48.2523 H   0  0  0  0  0  0  0  0  0  0  0  0
  1  2  1  0
  2  3  1  0
  3  4  2  0
  3  5  1  0
  5  6  2  0
  6  7  1  0
  7  8  2  0
  8  9  1  0
  9 10  2  0
 10 11  1  0
 11 12  2  0
 11 13  2  0
 11 14  1  0
 14 15  2  0
 15 16  1  0
 16 17  2  0
 17 18  1  0
 18 19  2  0
 19 20  1  0
 10  5  1  0
 19 14  1  0
 20  9  1  0
  1 21  1  0
  1 22  1  0
  1 23  1  0
  6 24  1  0
  7 25  1  0
  8 26  1  0
 15 27  1  0
 16 28  1  0
 17 29  1  0
 18 30  1  0
M  CHG  1   2  -1
M  END
>  <UniqueID>  (63) 
59

>  <SMILES>  (63) 
C[N-]C(=O)c1cccc2c1S(=O)(=O)c1ccccc1S2

>  <Energy>  (63) 
51.31873653152937

>  <Genealogy>  (63) 
C[N-]C(=O)c1cccc2c1S(=O)(=O)c1ccccc1S2 (protonated)
C[N-]C(=O)c1cccc2c1S(=O)(=O)c1ccccc1S2 (3D coordinates assigned)
C[N-]C(=O)c1cccc2c1S(=O)(=O)c1ccccc1S2 (nonaromatic ring conformer: 51.31873653152937 kcal/mol)

>  <smiles>  (63) 
CNC(=O)c1cccc2c1S(=O)(=O)c1ccccc1S2

>  <score_type>  (63) 
oracle

>  <origin>  (63) 
adg

>  <m_score__min__energy>  (63) 
-8.7300000000000004

>  <m_primary>  (63) 
energy

$$$$
63:0
     RDKit          3D

 49 51  0  0  0  0  0  0  0  0999 V2000
   59.2120   27.8250   43.8410 C   0  0  0  0  0  0  0  0  0  0  0  0
   58.1290   27.0210   43.1400 C   0  0  0  0  0  0  0  0  0  0  0  0
   57.8090   25.8710   43.9170 O   0  0  0  0  0  0  0  0  0  0  0  0
   57.7740   25.8940   45.3130 C   0  0  0  0  0  0  0  0  0  0  0  0
   58.8030   25.6010   45.9830 O   0  0  0  0  0  0  0  0  0  0  0  0
   56.5350   26.2920   46.0000 C   0  0  0  0  0  0  0  0  0  0  0  0
   56.0600   25.5410   46.8900 O   0  0  0  0  0  0  0  0  0  0  0  0
   55.8210   27.4810   45.6410 N   0  0  0  0  0  0  0  0  0  0  0  0
   56.4060   28.7290   45.2390 C   0  0  0  0  0  0  0  0  0  0  0  0
   55.8260   29.4170   44.1670 C   0  0  0  0  0  0  0  0  0  0  0  0
   56.3360   30.6490   43.7540 C   0  0  0  0  0  0  0  0  0  0  0  0
   57.4120   31.2330   44.4350 C   0  0  0  0  0  0  0  0  0  0  0  0
   57.9870   32.5490   43.9670 C   0  0  0  0  0  0  0  0  0  0  0  0
   58.4470   33.3970   45.1260 C   0  0  0  0  0  0  0  0  0  0  0  0
   59.5710   34.2280   45.0000 C   0  0  0  0  0  0  0  0  0  0  0  0
   60.0050   34.9710   46.1010 C   0  0  0  0  0  0  0  0  0  0  0  0
   59.3430   34.8850   47.2840 N   0  0  0  0  0  0  0  0  0  0  0  0
   58.2550   34.0830   47.4370 C   0  0  0  0  0  0  0  0  0  0  0  0
   57.7880   33.3220   46.3620 C   0  0  0  0  0  0  0  0  0  0  0  0
   57.9770   30.5590   45.5290 C   0  0  0  0  0  0  0  0  0  0  0  0
   57.4940   29.3010   45.9340 C   0  0  0  0  0  0  0  0  0  0  0  0
   58.0060   28.6500   47.1110 N   0  0  0  0  0  0  0  0  0  0  0  0
   59.3500   28.6700   47.6180 C   0  0  0  0  0  0  0  0  0  0  0  0
   59.9470   27.5740   47.7870 O   0  0  0  0  0  0  0  0  0  0  0  0
   60.0780   29.9320   47.8760 C   0  0  0  0  0  0  0  0  0  0  0  0
   61.0450   30.3710   46.9540 C   0  0  0  0  0  0  0  0  0  0  0  0
   61.7390   31.5630   47.1680 C   0  0  0  0  0  0  0  0  0  0  0  0
   61.4730   32.3340   48.3020 C   0  0  0  0  0  0  0  0  0  0  0  0
   60.5170   31.9110   49.2260 C   0  0  0  0  0  0  0  0  0  0  0  0
   59.8180   30.7140   49.0240 C   0  0  0  0  0  0  0  0  0  0  0  0
   58.5690   30.2740   50.1840 Cl  0  0  0  0  0  0  0  0  0  0  0  0
   59.0892   27.7339   44.9303 H   0  0  0  0  0  0  0  0  0  0  0  0
   60.2006   27.4403   43.5500 H   0  0  0  0  0  0  0  0  0  0  0  0
   59.1299   28.8826   43.5500 H   0  0  0  0  0  0  0  0  0  0  0  0
   57.2302   27.6438   43.0206 H   0  0  0  0  0  0  0  0  0  0  0  0
   58.4917   26.7042   42.1510 H   0  0  0  0  0  0  0  0  0  0  0  0
   54.9604   28.9829   43.6452 H   0  0  0  0  0  0  0  0  0  0  0  0
   55.8909   31.1637   42.8897 H   0  0  0  0  0  0  0  0  0  0  0  0
   58.8448   32.3496   43.3079 H   0  0  0  0  0  0  0  0  0  0  0  0
   57.1988   33.0977   43.4306 H   0  0  0  0  0  0  0  0  0  0  0  0
   60.1065   34.2939   44.0414 H   0  0  0  0  0  0  0  0  0  0  0  0
   60.8838   35.6263   46.0096 H   0  0  0  0  0  0  0  0  0  0  0  0
   57.7418   34.0334   48.4087 H   0  0  0  0  0  0  0  0  0  0  0  0
   56.9108   32.6695   46.4841 H   0  0  0  0  0  0  0  0  0  0  0  0
   58.8103   31.0215   46.0783 H   0  0  0  0  0  0  0  0  0  0  0  0
   61.2561   29.7702   46.0571 H   0  0  0  0  0  0  0  0  0  0  0  0
   62.4963   31.8956   46.4428 H   0  0  0  0  0  0  0  0  0  0  0  0
   62.0177   33.2754   48.4667 H   0  0  0  0  0  0  0  0  0  0  0  0
   60.3111   32.5208   50.1180 H   0  0  0  0  0  0  0  0  0  0  0  0
  1  2  1  0
  2  3  1  0
  3  4  1  0
  4  5  2  0
  4  6  1  0
  6  7  2  0
  6  8  1  0
  8  9  1  0
  9 10  2  0
 10 11  1  0
 11 12  2  0
 12 13  1  0
 13 14  1  0
 14 15  2  0
 15 16  1  0
 16 17  2  0
 17 18  1  0
 18 19  2  0
 12 20  1  0
 20 21  2  0
 21 22  1  0
 22 23  1  0
 23 24  2  0
 23 25  1  0
 25 26  2  0
 26 27  1  0
 27 28  2  0
 28 29  1  0
 29 30  2  0
 30 31  1  0
 21  9  1  0
 30 25  1  0
 19 14  1  0
  1 32  1  0
  1 33  1  0
  1 34  1  0
  2 35  1  0
  2 36  1  0
 10 37  1  0
 11 38  1  0
 13 39  1  0
 13 40  1  0
 15 41  1  0
 16 42  1  0
 18 43  1  0
 19 44  1  0
 20 45  1  0
 26 46  1  0
 27 47  1  0
 28 48  1  0
 29 49  1  0
M  CHG  2   8  -1  22  -1
M  END
>  <UniqueID>  (64) 
60

>  <SMILES>  (64) 
CCOC(=O)C(=O)[N-]c1ccc(Cc2ccncc2)cc1[N-]C(=O)c1ccccc1Cl

>  <Energy>  (64) 
60.28520257169534

>  <Genealogy>  (64) 
CCOC(=O)C(=O)[N-]c1ccc(Cc2ccncc2)cc1[N-]C(=O)c1ccccc1Cl (protonated)
CCOC(=O)C(=O)[N-]c1ccc(Cc2ccncc2)cc1[N-]C(=O)c1ccccc1Cl (3D coordinates assigned)
CCOC(=O)C(=O)[N-]c1ccc(Cc2ccncc2)cc1[N-]C(=O)c1ccccc1Cl (optimized conformer: 60.28520257169534 kcal/mol)

>  <smiles>  (64) 
CCOC(=O)C(=O)Nc1ccc(Cc2ccncc2)cc1NC(=O)c1ccccc1Cl

>  <score_type>  (64) 
oracle

>  <origin>  (64) 
adg

>  <m_score__min__energy>  (64) 
-11.98

>  <m_primary>  (64) 
energy

$$$$
64:0
     RDKit          3D

 53 57  0  0  0  0  0  0  0  0999 V2000
   56.2910   22.2710   42.6910 C   0  0  0  0  0  0  0  0  0  0  0  0
   56.1020   23.3130   43.7530 C   0  0  0  0  0  0  0  0  0  0  0  0
   54.8480   23.4890   44.3550 C   0  0  0  0  0  0  0  0  0  0  0  0
   54.6800   24.4370   45.3660 C   0  0  0  0  0  0  0  0  0  0  0  0
   55.7630   25.2080   45.7940 C   0  0  0  0  0  0  0  0  0  0  0  0
   57.0340   25.0340   45.2160 C   0  0  0  0  0  0  0  0  0  0  0  0
   58.1890   25.8450   45.6780 C   0  0  0  0  0  0  0  0  0  0  0  0
   59.4190   25.2310   45.9740 C   0  0  0  0  0  0  0  0  0  0  0  0
   60.5000   25.9940   46.4190 C   0  0  0  0  0  0  0  0  0  0  0  0
   60.3740   27.3770   46.5650 C   0  0  0  0  0  0  0  0  0  0  0  0
   59.1600   28.0140   46.2560 C   0  0  0  0  0  0  0  0  0  0  0  0
   59.0000   29.4800   46.4210 C   0  0  0  0  0  0  0  0  0  0  0  0
   58.4020   30.1780   45.4280 N   0  0  0  0  0  0  0  0  0  0  0  0
   58.2200   31.5160   45.5010 C   0  0  0  0  0  0  0  0  0  0  0  0
   57.5930   32.1770   44.4390 C   0  0  0  0  0  0  0  0  0  0  0  0
   57.3930   33.5540   44.4910 C   0  0  0  0  0  0  0  0  0  0  0  0
   57.8190   34.2770   45.6020 C   0  0  0  0  0  0  0  0  0  0  0  0
   58.4460   33.6300   46.6710 C   0  0  0  0  0  0  0  0  0  0  0  0
   58.6620   32.2270   46.6460 C   0  0  0  0  0  0  0  0  0  0  0  0
   59.2800   31.5320   47.6730 N   0  0  0  0  0  0  0  0  0  0  0  0
   59.7960   32.1930   48.8960 C   0  0  0  0  0  0  0  0  0  0  0  0
   61.1810   32.7490   48.6660 C   0  0  0  0  0  0  0  0  0  0  0  0
   61.9210   32.3590   47.5350 C   0  0  0  0  0  0  0  0  0  0  0  0
   63.1960   32.8870   47.3070 C   0  0  0  0  0  0  0  0  0  0  0  0
   63.7420   33.8090   48.2030 C   0  0  0  0  0  0  0  0  0  0  0  0
   63.0140   34.2050   49.3280 C   0  0  0  0  0  0  0  0  0  0  0  0
   61.7400   33.6790   49.5600 C   0  0  0  0  0  0  0  0  0  0  0  0
   59.4660   30.1700   47.5550 C   0  0  0  0  0  0  0  0  0  0  0  0
   60.0810   29.5320   48.4560 O   0  0  0  0  0  0  0  0  0  0  0  0
   58.0690   27.2390   45.8270 C   0  0  0  0  0  0  0  0  0  0  0  0
   57.1940   24.0760   44.1960 C   0  0  0  0  0  0  0  0  0  0  0  0
   56.4683   21.2937   43.1637 H   0  0  0  0  0  0  0  0  0  0  0  0
   55.3880   22.2172   42.0652 H   0  0  0  0  0  0  0  0  0  0  0  0
   57.1554   22.5378   42.0652 H   0  0  0  0  0  0  0  0  0  0  0  0
   53.9933   22.8778   44.0295 H   0  0  0  0  0  0  0  0  0  0  0  0
   53.6912   24.5772   45.8271 H   0  0  0  0  0  0  0  0  0  0  0  0
   55.6215   25.9560   46.5880 H   0  0  0  0  0  0  0  0  0  0  0  0
   59.5300   24.1432   45.8542 H   0  0  0  0  0  0  0  0  0  0  0  0
   61.4556   25.5034   46.6558 H   0  0  0  0  0  0  0  0  0  0  0  0
   61.2283   27.9702   46.9233 H   0  0  0  0  0  0  0  0  0  0  0  0
   57.2570   31.6070   43.5602 H   0  0  0  0  0  0  0  0  0  0  0  0
   56.8987   34.0703   43.6548 H   0  0  0  0  0  0  0  0  0  0  0  0
   57.6611   35.3650   45.6389 H   0  0  0  0  0  0  0  0  0  0  0  0
   58.7760   34.2151   47.5421 H   0  0  0  0  0  0  0  0  0  0  0  0
   59.1197   33.0150   49.1735 H   0  0  0  0  0  0  0  0  0  0  0  0
   59.8468   31.4473   49.7031 H   0  0  0  0  0  0  0  0  0  0  0  0
   61.4944   31.6345   46.8257 H   0  0  0  0  0  0  0  0  0  0  0  0
   63.7693   32.5759   46.4212 H   0  0  0  0  0  0  0  0  0  0  0  0
   64.7450   34.2233   48.0230 H   0  0  0  0  0  0  0  0  0  0  0  0
   63.4443   34.9321   50.0324 H   0  0  0  0  0  0  0  0  0  0  0  0
   61.1714   33.9945   50.4472 H   0  0  0  0  0  0  0  0  0  0  0  0
   57.1092   27.7283   45.6049 H   0  0  0  0  0  0  0  0  0  0  0  0
   58.1844   23.9242   43.7420 H   0  0  0  0  0  0  0  0  0  0  0  0
  1  2  1  0
  2  3  2  0
  3  4  1  0
  4  5  2  0
  5  6  1  0
  6  7  1  0
  7  8  2  0
  8  9  1  0
  9 10  2  0
 10 11  1  0
 11 12  1  0
 12 13  2  0
 13 14  1  0
 14 15  2  0
 15 16  1  0
 16 17  2  0
 17 18  1  0
 18 19  2  0
 19 20  1  0
 20 21  1  0
 21 22  1  0
 22 23  2  0
 23 24  1  0
 24 25  2  0
 25 26  1  0
 26 27  2  0
 20 28  1  0
 28 29  2  0
 11 30  2  0
  6 31  2  0
 31  2  1  0
 30  7  1  0
 28 12  1  0
 19 14  1  0
 27 22  1  0
  1 32  1  0
  1 33  1  0
  1 34  1  0
  3 35  1  0
  4 36  1  0
  5 37  1  0
  8 38  1  0
  9 39  1  0
 10 40  1  0
 15 41  1  0
 16 42  1  0
 17 43  1  0
 18 44  1  0
 21 45  1  0
 21 46  1  0
 23 47  1  0
 24 48  1  0
 25 49  1  0
 26 50  1  0
 27 51  1  0
 30 52  1  0
 31 53  1  0
M  END
>  <UniqueID>  (65) 
61

>  <SMILES>  (65) 
Cc1cccc(-c2cccc(-c3nc4ccccc4n(Cc4ccccc4)c3=O)c2)c1

>  <Energy>  (65) 
82.06893693079995

>  <Genealogy>  (65) 
Cc1cccc(-c2cccc(-c3nc4ccccc4n(Cc4ccccc4)c3=O)c2)c1 (3D coordinates assigned)
Cc1cccc(-c2cccc(-c3nc4ccccc4n(Cc4ccccc4)c3=O)c2)c1 (optimized conformer: 82.06893693079995 kcal/mol)

>  <smiles>  (65) 
Cc1cccc(-c2cccc(-c3nc4ccccc4n(Cc4ccccc4)c3=O)c2)c1

>  <score_type>  (65) 
oracle

>  <origin>  (65) 
adg

>  <m_score__min__energy>  (65) 
-9.5700000000000003

>  <m_primary>  (65) 
energy

$$$$
65:0
     RDKit          3D

 57 60  0  0  0  0  0  0  0  0999 V2000
   57.4170   31.9210   41.7480 C   0  0  0  0  0  0  0  0  0  0  0  0
   57.5240   31.8940   43.2380 C   0  0  0  0  0  0  0  0  0  0  0  0
   58.2240   32.7480   43.9400 O   0  0  0  0  0  0  0  0  0  0  0  0
   58.0710   32.4270   45.2080 C   0  0  0  0  0  0  0  0  0  0  0  0
   58.6970   33.1710   46.3170 C   0  0  0  0  0  0  0  0  0  0  0  0
   59.4730   34.3130   46.0500 C   0  0  0  0  0  0  0  0  0  0  0  0
   60.0530   35.0350   47.0990 C   0  0  0  0  0  0  0  0  0  0  0  0
   59.8690   34.6190   48.4220 C   0  0  0  0  0  0  0  0  0  0  0  0
   59.1030   33.4830   48.6980 C   0  0  0  0  0  0  0  0  0  0  0  0
   58.5140   32.7620   47.6510 C   0  0  0  0  0  0  0  0  0  0  0  0
   57.2640   31.3550   45.3780 N   0  0  0  0  0  0  0  0  0  0  0  0
   56.9180   31.0180   44.1200 C   0  0  0  0  0  0  0  0  0  0  0  0
   56.0050   29.9080   43.8030 C   0  0  0  0  0  0  0  0  0  0  0  0
   55.6170   29.7160   42.6190 O   0  0  0  0  0  0  0  0  0  0  0  0
   55.5410   29.0560   44.8540 N   0  0  0  0  0  0  0  0  0  0  0  0
   56.3310   27.9450   45.3700 C   0  0  0  0  0  0  0  0  0  0  0  0
   57.5430   27.7060   44.4660 C   0  0  0  0  0  0  0  0  0  0  0  0
   57.9850   26.2380   44.4870 C   0  0  0  0  0  0  0  0  0  0  0  0
   57.9960   25.7190   45.8520 N   0  0  0  0  0  0  0  0  0  0  0  0
   58.7400   26.2850   46.9390 C   0  0  0  0  0  0  0  0  0  0  0  0
   58.8780   25.6090   47.9940 O   0  0  0  0  0  0  0  0  0  0  0  0
   59.3250   27.6420   46.8690 C   0  0  0  0  0  0  0  0  0  0  0  0
   60.2680   27.9500   45.8740 C   0  0  0  0  0  0  0  0  0  0  0  0
   60.8470   29.2220   45.8190 C   0  0  0  0  0  0  0  0  0  0  0  0
   60.5150   30.1950   46.7690 C   0  0  0  0  0  0  0  0  0  0  0  0
   61.1010   31.4650   46.6660 O   0  0  0  0  0  0  0  0  0  0  0  0
   62.1090   31.9650   47.5050 C   0  0  0  0  0  0  0  0  0  0  0  0
   62.3640   31.4090   48.7740 C   0  0  0  0  0  0  0  0  0  0  0  0
   63.3810   31.9300   49.5770 C   0  0  0  0  0  0  0  0  0  0  0  0
   64.1600   32.9970   49.1200 C   0  0  0  0  0  0  0  0  0  0  0  0
   63.9270   33.5370   47.8510 C   0  0  0  0  0  0  0  0  0  0  0  0
   62.9090   33.0180   47.0450 C   0  0  0  0  0  0  0  0  0  0  0  0
   59.5760   29.8860   47.7670 C   0  0  0  0  0  0  0  0  0  0  0  0
   59.0020   28.6140   47.8290 C   0  0  0  0  0  0  0  0  0  0  0  0
   56.3879   32.1807   41.4589 H   0  0  0  0  0  0  0  0  0  0  0  0
   58.1119   32.6719   41.3440 H   0  0  0  0  0  0  0  0  0  0  0  0
   57.6724   30.9303   41.3440 H   0  0  0  0  0  0  0  0  0  0  0  0
   59.6249   34.6405   45.0109 H   0  0  0  0  0  0  0  0  0  0  0  0
   60.6542   35.9305   46.8832 H   0  0  0  0  0  0  0  0  0  0  0  0
   60.3274   35.1863   49.2454 H   0  0  0  0  0  0  0  0  0  0  0  0
   58.9624   33.1546   49.7384 H   0  0  0  0  0  0  0  0  0  0  0  0
   57.9060   31.8725   47.8727 H   0  0  0  0  0  0  0  0  0  0  0  0
   56.6755   28.1834   46.3871 H   0  0  0  0  0  0  0  0  0  0  0  0
   55.7100   27.0374   45.3920 H   0  0  0  0  0  0  0  0  0  0  0  0
   57.2792   27.9842   43.4350 H   0  0  0  0  0  0  0  0  0  0  0  0
   58.3757   28.3203   44.8391 H   0  0  0  0  0  0  0  0  0  0  0  0
   57.2868   25.6425   43.8804 H   0  0  0  0  0  0  0  0  0  0  0  0
   59.0031   26.1705   44.0760 H   0  0  0  0  0  0  0  0  0  0  0  0
   60.5523   27.1869   45.1345 H   0  0  0  0  0  0  0  0  0  0  0  0
   61.5685   29.4595   45.0234 H   0  0  0  0  0  0  0  0  0  0  0  0
   61.7606   30.5624   49.1333 H   0  0  0  0  0  0  0  0  0  0  0  0
   63.5695   31.4996   50.5716 H   0  0  0  0  0  0  0  0  0  0  0  0
   64.9550   33.4113   49.7574 H   0  0  0  0  0  0  0  0  0  0  0  0
   64.5451   34.3708   47.4867 H   0  0  0  0  0  0  0  0  0  0  0  0
   62.7357   33.4394   46.0438 H   0  0  0  0  0  0  0  0  0  0  0  0
   59.2908   30.6507   48.5045 H   0  0  0  0  0  0  0  0  0  0  0  0
   58.2929   28.3726   48.6346 H   0  0  0  0  0  0  0  0  0  0  0  0
  1  2  1  0
  2  3  1  0
  3  4  1  0
  4  5  1  0
  5  6  2  0
  6  7  1  0
  7  8  2  0
  8  9  1  0
  9 10  2  0
  4 11  2  0
 11 12  1  0
 12 13  1  0
 13 14  2  0
 13 15  1  0
 15 16  1  0
 16 17  1  0
 17 18  1  0
 18 19  1  0
 19 20  1  0
 20 21  2  0
 20 22  1  0
 22 23  2  0
 23 24  1  0
 24 25  2  0
 25 26  1  0
 26 27  1  0
 27 28  2  0
 28 29  1  0
 29 30  2  0
 30 31  1  0
 31 32  2  0
 25 33  1  0
 33 34  2  0
 12  2  2  0
 34 22  1  0
 10  5  1  0
 32 27  1  0
  1 35  1  0
  1 36  1  0
  1 37  1  0
  6 38  1  0
  7 39  1  0
  8 40  1  0
  9 41  1  0
 10 42  1  0
 16 43  1  0
 16 44  1  0
 17 45  1  0
 17 46  1  0
 18 47  1  0
 18 48  1  0
 23 49  1  0
 24 50  1  0
 28 51  1  0
 29 52  1  0
 30 53  1  0
 31 54  1  0
 32 55  1  0
 33 56  1  0
 34 57  1  0
M  CHG  2  15  -1  19  -1
M  END
>  <UniqueID>  (66) 
62

>  <SMILES>  (66) 
Cc1oc(-c2ccccc2)nc1C(=O)[N-]CCC[N-]C(=O)c1ccc(Oc2ccccc2)cc1

>  <Energy>  (66) 
95.49503743235877

>  <Genealogy>  (66) 
Cc1oc(-c2ccccc2)nc1C(=O)[N-]CCC[N-]C(=O)c1ccc(Oc2ccccc2)cc1 (protonated)
Cc1oc(-c2ccccc2)nc1C(=O)[N-]CCC[N-]C(=O)c1ccc(Oc2ccccc2)cc1 (3D coordinates assigned)
Cc1oc(-c2ccccc2)nc1C(=O)[N-]CCC[N-]C(=O)c1ccc(Oc2ccccc2)cc1 (optimized conformer: 95.49503743235877 kcal/mol)

>  <smiles>  (66) 
Cc1oc(-c2ccccc2)nc1C(=O)NCCCNC(=O)c1ccc(Oc2ccccc2)cc1

>  <score_type>  (66) 
oracle

>  <origin>  (66) 
adg

>  <m_score__min__energy>  (66) 
-12.23

>  <m_primary>  (66) 
energy

$$$$
66:0
     RDKit          3D

 45 47  0  0  0  0  0  0  0  0999 V2000
   63.1800   34.9590   50.6050 N   0  0  0  0  0  0  0  0  0  0  0  0
   62.4950   34.6220   49.7360 C   0  0  0  0  0  0  0  0  0  0  0  0
   61.6420   34.2010   48.6560 C   0  0  0  0  0  0  0  0  0  0  0  0
   62.1930   33.6000   47.5190 C   0  0  0  0  0  0  0  0  0  0  0  0
   61.3640   33.1920   46.4700 C   0  0  0  0  0  0  0  0  0  0  0  0
   59.9770   33.3750   46.5450 C   0  0  0  0  0  0  0  0  0  0  0  0
   59.1960   32.9440   45.4610 O   0  0  0  0  0  0  0  0  0  0  0  0
   58.6990   31.6180   45.2650 C   0  0  2  0  0  0  0  0  0  0  0  0
   57.5170   31.6270   44.2620 C   0  0  0  0  0  0  0  0  0  0  0  0
   56.4810   30.5130   44.5180 C   0  0  0  0  0  0  0  0  0  0  0  0
   57.1350   29.2630   45.1320 C   0  0  2  0  0  0  0  0  0  0  0  0
   56.1460   28.1910   45.2780 N   0  0  0  0  0  0  0  0  0  0  0  0
   56.4400   26.9690   45.9760 C   0  0  0  0  0  0  0  0  0  0  0  0
   57.5030   26.8640   46.6440 O   0  0  0  0  0  0  0  0  0  0  0  0
   55.5110   25.8790   45.9740 N   0  0  0  0  0  0  0  0  0  0  0  0
   55.7420   24.5790   45.4170 C   0  0  0  0  0  0  0  0  0  0  0  0
   56.6630   24.3790   44.3720 C   0  0  0  0  0  0  0  0  0  0  0  0
   56.8890   23.0940   43.8690 C   0  0  0  0  0  0  0  0  0  0  0  0
   56.2140   21.9990   44.4160 C   0  0  0  0  0  0  0  0  0  0  0  0
   55.3190   22.1870   45.4720 C   0  0  0  0  0  0  0  0  0  0  0  0
   55.0900   23.4710   45.9780 C   0  0  0  0  0  0  0  0  0  0  0  0
   54.2220   23.6390   47.0080 F   0  0  0  0  0  0  0  0  0  0  0  0
   57.7780   29.5890   46.5030 C   0  0  0  0  0  0  0  0  0  0  0  0
   58.2630   31.0490   46.6220 C   0  0  0  0  0  0  0  0  0  0  0  0
   59.4280   33.9860   47.6890 C   0  0  0  0  0  0  0  0  0  0  0  0
   60.2580   34.3940   48.7380 C   0  0  0  0  0  0  0  0  0  0  0  0
   63.2803   33.4483   47.4504 H   0  0  0  0  0  0  0  0  0  0  0  0
   61.8045   32.7231   45.5778 H   0  0  0  0  0  0  0  0  0  0  0  0
   59.4898   30.9814   44.8415 H   0  0  0  0  0  0  0  0  0  0  0  0
   57.0073   32.5991   44.3340 H   0  0  0  0  0  0  0  0  0  0  0  0
   57.9408   31.4497   43.2625 H   0  0  0  0  0  0  0  0  0  0  0  0
   55.7137   30.8909   45.2097 H   0  0  0  0  0  0  0  0  0  0  0  0
   56.0344   30.2296   43.5535 H   0  0  0  0  0  0  0  0  0  0  0  0
   57.9303   28.9243   44.4517 H   0  0  0  0  0  0  0  0  0  0  0  0
   55.1870   28.3250   44.8840 H   0  0  0  0  0  0  0  0  0  0  0  0
   57.2071   25.2365   43.9493 H   0  0  0  0  0  0  0  0  0  0  0  0
   57.5987   22.9447   43.0420 H   0  0  0  0  0  0  0  0  0  0  0  0
   56.3875   20.9895   44.0150 H   0  0  0  0  0  0  0  0  0  0  0  0
   54.7934   21.3239   45.9064 H   0  0  0  0  0  0  0  0  0  0  0  0
   57.0324   29.4042   47.2903 H   0  0  0  0  0  0  0  0  0  0  0  0
   58.6628   28.9439   46.6078 H   0  0  0  0  0  0  0  0  0  0  0  0
   57.4430   31.6652   47.0194 H   0  0  0  0  0  0  0  0  0  0  0  0
   59.1329   31.0661   47.2950 H   0  0  0  0  0  0  0  0  0  0  0  0
   58.3414   34.1430   47.7577 H   0  0  0  0  0  0  0  0  0  0  0  0
   59.8221   34.8678   49.6299 H   0  0  0  0  0  0  0  0  0  0  0  0
  1  2  3  0
  2  3  1  0
  3  4  2  0
  4  5  1  0
  5  6  2  0
  6  7  1  0
  7  8  1  0
  8  9  1  0
  9 10  1  0
 10 11  1  0
 11 12  1  0
 12 13  1  0
 13 14  2  0
 13 15  1  0
 15 16  1  0
 16 17  2  0
 17 18  1  0
 18 19  2  0
 19 20  1  0
 20 21  2  0
 21 22  1  0
 11 23  1  0
 23 24  1  0
  6 25  1  0
 25 26  2  0
 26  3  1  0
 24  8  1  0
 21 16  1  0
  4 27  1  0
  5 28  1  0
  8 29  1  6
  9 30  1  0
  9 31  1  0
 10 32  1  0
 10 33  1  0
 11 34  1  6
 12 35  1  0
 17 36  1  0
 18 37  1  0
 19 38  1  0
 20 39  1  0
 23 40  1  0
 23 41  1  0
 24 42  1  0
 24 43  1  0
 25 44  1  0
 26 45  1  0
M  CHG  1  15  -1
M  END
>  <UniqueID>  (67) 
63

>  <SMILES>  (67) 
N#Cc1ccc(OC2CCC(NC(=O)[N-]c3ccccc3F)CC2)cc1

>  <Energy>  (67) 
50.95105758553678

>  <Genealogy>  (67) 
N#Cc1ccc(OC2CCC(NC(=O)[N-]c3ccccc3F)CC2)cc1 (protonated)
N#Cc1ccc(OC2CCC(NC(=O)[N-]c3ccccc3F)CC2)cc1 (3D coordinates assigned)
N#Cc1ccc(OC2CCC(NC(=O)[N-]c3ccccc3F)CC2)cc1 (nonaromatic ring conformer: 50.95105758553678 kcal/mol)

>  <smiles>  (67) 
N#Cc1ccc(OC2CCC(NC(=O)Nc3ccccc3F)CC2)cc1

>  <score_type>  (67) 
oracle

>  <origin>  (67) 
adg

>  <m_score__min__energy>  (67) 
-9.3900000000000006

>  <m_primary>  (67) 
energy

$$$$
67:0
     RDKit          3D

 44 46  0  0  0  0  0  0  0  0999 V2000
   63.3030   33.0760   47.1740 C   0  0  0  0  0  0  0  0  0  0  0  0
   62.7140   32.3330   48.2370 O   0  0  0  0  0  0  0  0  0  0  0  0
   61.7390   31.3370   48.0650 C   0  0  0  0  0  0  0  0  0  0  0  0
   61.4050   30.8300   46.7940 C   0  0  0  0  0  0  0  0  0  0  0  0
   60.4210   29.8390   46.6540 C   0  0  0  0  0  0  0  0  0  0  0  0
   60.0490   29.3140   45.2920 C   0  0  0  0  0  0  0  0  0  0  0  0
   58.5670   29.0500   45.2070 C   0  0  0  0  0  0  0  0  0  0  0  0
   58.1100   27.8380   45.6200 N   0  0  0  0  0  0  0  0  0  0  0  0
   56.7850   27.5440   45.6330 C   0  0  0  0  0  0  0  0  0  0  0  0
   56.2340   25.9320   46.1760 S   0  0  0  0  0  0  0  0  0  0  0  0
   57.7590   25.6000   47.1100 C   0  0  0  0  0  0  0  0  0  0  0  0
   55.8790   28.4760   45.2450 N   0  0  0  0  0  0  0  0  0  0  0  0
   56.2730   29.7060   44.8290 C   0  0  0  0  0  0  0  0  0  0  0  0
   55.4000   30.5440   44.4750 O   0  0  0  0  0  0  0  0  0  0  0  0
   57.6390   30.0320   44.7890 C   0  0  0  0  0  0  0  0  0  0  0  0
   58.0630   31.3760   44.3390 C   0  0  0  0  0  0  0  0  0  0  0  0
   58.1730   31.5840   43.1000 O   0  0  0  0  0  0  0  0  0  0  0  0
   58.3860   32.4610   45.3000 C   0  0  0  0  0  0  0  0  0  0  0  0
   58.9240   33.6860   44.8600 C   0  0  0  0  0  0  0  0  0  0  0  0
   59.2310   34.6960   45.7770 C   0  0  0  0  0  0  0  0  0  0  0  0
   58.9980   34.4990   47.1400 C   0  0  0  0  0  0  0  0  0  0  0  0
   58.4560   33.2940   47.5890 C   0  0  0  0  0  0  0  0  0  0  0  0
   58.1470   32.2800   46.6760 C   0  0  0  0  0  0  0  0  0  0  0  0
   59.7710   29.3500   47.7970 C   0  0  0  0  0  0  0  0  0  0  0  0
   60.0990   29.8440   49.0600 C   0  0  0  0  0  0  0  0  0  0  0  0
   61.0770   30.8340   49.2010 C   0  0  0  0  0  0  0  0  0  0  0  0
   61.3770   31.3060   50.4780 O   0  0  0  0  0  0  0  0  0  0  0  0
   63.9354   33.8738   47.5907 H   0  0  0  0  0  0  0  0  0  0  0  0
   63.9180   32.4061   46.5552 H   0  0  0  0  0  0  0  0  0  0  0  0
   62.5104   33.5220   46.5552 H   0  0  0  0  0  0  0  0  0  0  0  0
   61.9207   31.2148   45.9018 H   0  0  0  0  0  0  0  0  0  0  0  0
   60.3272   30.0574   44.5305 H   0  0  0  0  0  0  0  0  0  0  0  0
   60.5861   28.3697   45.1191 H   0  0  0  0  0  0  0  0  0  0  0  0
   57.5461   25.6464   48.1882 H   0  0  0  0  0  0  0  0  0  0  0  0
   58.1356   24.5988   46.8533 H   0  0  0  0  0  0  0  0  0  0  0  0
   58.5177   26.3540   46.8533 H   0  0  0  0  0  0  0  0  0  0  0  0
   59.1040   33.8494   43.7872 H   0  0  0  0  0  0  0  0  0  0  0  0
   59.6566   35.6471   45.4244 H   0  0  0  0  0  0  0  0  0  0  0  0
   59.2419   35.2941   47.8599 H   0  0  0  0  0  0  0  0  0  0  0  0
   58.2714   33.1412   48.6626 H   0  0  0  0  0  0  0  0  0  0  0  0
   57.7143   31.3347   47.0354 H   0  0  0  0  0  0  0  0  0  0  0  0
   58.9987   28.5731   47.6970 H   0  0  0  0  0  0  0  0  0  0  0  0
   59.5853   29.4525   49.9504 H   0  0  0  0  0  0  0  0  0  0  0  0
   62.0920   32.0040   50.6420 H   0  0  0  0  0  0  0  0  0  0  0  0
  1  2  1  0
  2  3  1  0
  3  4  2  0
  4  5  1  0
  5  6  1  0
  6  7  1  0
  7  8  1  0
  8  9  1  0
  9 10  1  0
 10 11  1  0
  9 12  2  0
 12 13  1  0
 13 14  2  0
 13 15  1  0
 15 16  1  0
 16 17  2  0
 16 18  1  0
 18 19  2  0
 19 20  1  0
 20 21  2  0
 21 22  1  0
 22 23  2  0
  5 24  2  0
 24 25  1  0
 25 26  2  0
 26 27  1  0
 26  3  1  0
 15  7  2  0
 23 18  1  0
  1 28  1  0
  1 29  1  0
  1 30  1  0
  4 31  1  0
  6 32  1  0
  6 33  1  0
 11 34  1  0
 11 35  1  0
 11 36  1  0
 19 37  1  0
 20 38  1  0
 21 39  1  0
 22 40  1  0
 23 41  1  0
 24 42  1  0
 25 43  1  0
 27 44  1  0
M  CHG  1   8  -1
M  END
>  <UniqueID>  (68) 
64

>  <SMILES>  (68) 
COc1cc(Cc2[n-]c(SC)nc(=O)c2C(=O)c2ccccc2)ccc1O

>  <Energy>  (68) 
49.645277896622524

>  <Genealogy>  (68) 
COc1cc(Cc2[n-]c(SC)nc(=O)c2C(=O)c2ccccc2)ccc1O (protonated)
COc1cc(Cc2[n-]c(SC)nc(=O)c2C(=O)c2ccccc2)ccc1O (3D coordinates assigned)
COc1cc(Cc2[n-]c(SC)nc(=O)c2C(=O)c2ccccc2)ccc1O (optimized conformer: 49.645277896622524 kcal/mol)

>  <smiles>  (68) 
COc1cc(Cc2[nH]c(SC)nc(=O)c2C(=O)c2ccccc2)ccc1O

>  <score_type>  (68) 
oracle

>  <origin>  (68) 
adg

>  <m_score__min__energy>  (68) 
-9.3300000000000001

>  <m_primary>  (68) 
energy

$$$$
68:0
     RDKit          3D

 39 41  0  0  0  0  0  0  0  0999 V2000
   60.5370   34.5970   48.5270 C   0  0  0  0  0  0  0  0  0  0  0  0
   60.6810   34.2090   47.1680 N   0  0  0  0  0  0  0  0  0  0  0  0
   61.6290   33.2140   46.8710 C   0  0  0  0  0  0  0  0  0  0  0  0
   61.2840   31.8120   47.2250 C   0  0  0  0  0  0  0  0  0  0  0  0
   60.0480   31.3430   46.5600 C   0  0  0  0  0  0  0  0  0  0  0  0
   60.1290   30.0690   46.0310 C   0  0  0  0  0  0  0  0  0  0  0  0
   59.0400   29.5150   45.3820 C   0  0  0  0  0  0  0  0  0  0  0  0
   59.0960   27.8700   44.6790 S   0  0  0  0  0  0  0  0  0  0  0  0
   58.3330   26.6910   45.7800 C   0  0  0  0  0  0  0  0  0  0  0  0
   57.3230   25.8470   45.4290 N   0  0  0  0  0  0  0  0  0  0  0  0
   57.0070   25.1180   46.4920 C   0  0  0  0  0  0  0  0  0  0  0  0
   57.8000   25.4790   47.5300 N   0  0  0  0  0  0  0  0  0  0  0  0
   58.5990   26.4390   47.0730 N   0  0  0  0  0  0  0  0  0  0  0  0
   57.8380   30.2030   45.2390 C   0  0  0  0  0  0  0  0  0  0  0  0
   56.4660   29.4830   44.4130 S   0  0  0  0  0  0  0  0  0  0  0  0
   57.0080   28.9550   42.8690 N   0  0  0  0  0  0  0  0  0  0  0  0
   56.0120   28.3320   45.2710 O   0  0  0  0  0  0  0  0  0  0  0  0
   55.3420   30.4730   44.3100 O   0  0  0  0  0  0  0  0  0  0  0  0
   57.7890   31.4720   45.7780 C   0  0  0  0  0  0  0  0  0  0  0  0
   58.8610   32.0460   46.4280 C   0  0  0  0  0  0  0  0  0  0  0  0
   58.4750   33.4140   46.8870 C   0  0  0  0  0  0  0  0  0  0  0  0
   59.5520   34.3450   46.3250 C   0  0  0  0  0  0  0  0  0  0  0  0
   60.8450   33.7670   49.1799 H   0  0  0  0  0  0  0  0  0  0  0  0
   61.1693   35.4747   48.7267 H   0  0  0  0  0  0  0  0  0  0  0  0
   59.4852   34.8497   48.7267 H   0  0  0  0  0  0  0  0  0  0  0  0
   61.8111   33.2451   45.7866 H   0  0  0  0  0  0  0  0  0  0  0  0
   62.4979   33.4570   47.5002 H   0  0  0  0  0  0  0  0  0  0  0  0
   62.1156   31.1581   46.9237 H   0  0  0  0  0  0  0  0  0  0  0  0
   61.1114   31.7762   48.3108 H   0  0  0  0  0  0  0  0  0  0  0  0
   61.0618   29.4938   46.1262 H   0  0  0  0  0  0  0  0  0  0  0  0
   56.2260   24.3441   46.5253 H   0  0  0  0  0  0  0  0  0  0  0  0
   57.7440   25.0500   48.4750 H   0  0  0  0  0  0  0  0  0  0  0  0
   57.9490   29.2990   42.6340 H   0  0  0  0  0  0  0  0  0  0  0  0
   56.8130   27.9620   42.7040 H   0  0  0  0  0  0  0  0  0  0  0  0
   56.8572   32.0492   45.6855 H   0  0  0  0  0  0  0  0  0  0  0  0
   57.4849   33.6878   46.4935 H   0  0  0  0  0  0  0  0  0  0  0  0
   58.4091   33.4763   47.9833 H   0  0  0  0  0  0  0  0  0  0  0  0
   59.8085   34.0520   45.2962 H   0  0  0  0  0  0  0  0  0  0  0  0
   59.2009   35.3871   46.2955 H   0  0  0  0  0  0  0  0  0  0  0  0
  1  2  1  0
  2  3  1  0
  3  4  1  0
  4  5  1  0
  5  6  2  0
  6  7  1  0
  7  8  1  0
  8  9  1  0
  9 10  1  0
 10 11  2  0
 11 12  1  0
 12 13  1  0
  7 14  2  0
 14 15  1  0
 15 16  1  0
 15 17  2  0
 15 18  2  0
 14 19  1  0
 19 20  2  0
 20 21  1  0
 21 22  1  0
 22  2  1  0
 20  5  1  0
 13  9  2  0
  1 23  1  0
  1 24  1  0
  1 25  1  0
  3 26  1  0
  3 27  1  0
  4 28  1  0
  4 29  1  0
  6 30  1  0
 11 31  1  0
 12 32  1  0
 16 33  1  0
 16 34  1  0
 19 35  1  0
 21 36  1  0
 21 37  1  0
 22 38  1  0
 22 39  1  0
M  END
>  <smiles>  (69) 
CN1CCc2cc(Sc3nc[nH]n3)c(S(N)(=O)=O)cc2CC1

>  <score_type>  (69) 
oracle

>  <origin>  (69) 
adg

>  <m_score__min__energy>  (69) 
-6.8300000000000001

>  <m_primary>  (69) 
energy

$$$$
69:0
     RDKit          3D

 32 33  0  0  0  0  0  0  0  0999 V2000
   55.7500   28.4590   45.2090 O   0  0  0  0  0  0  0  0  0  0  0  0
   56.7890   29.1280   44.9650 C   0  0  0  0  0  0  0  0  0  0  0  0
   56.6440   30.4810   44.5120 N   0  0  0  0  0  0  0  0  0  0  0  0
   57.3870   31.6150   44.9830 C   0  0  0  0  0  0  0  0  0  0  0  0
   57.7760   31.7380   46.3290 C   0  0  0  0  0  0  0  0  0  0  0  0
   58.5120   32.8500   46.7500 C   0  0  0  0  0  0  0  0  0  0  0  0
   58.8800   33.8370   45.8300 C   0  0  0  0  0  0  0  0  0  0  0  0
   59.8870   35.3540   46.4060 Br  0  0  0  0  0  0  0  0  0  0  0  0
   58.5170   33.7060   44.4850 C   0  0  0  0  0  0  0  0  0  0  0  0
   57.7800   32.5960   44.0630 C   0  0  0  0  0  0  0  0  0  0  0  0
   58.1200   28.5320   45.2330 C   0  0  0  0  0  0  0  0  0  0  0  0
   59.2330   29.3790   45.3780 C   0  0  0  0  0  0  0  0  0  0  0  0
   60.4930   28.8540   45.6660 C   0  0  0  0  0  0  0  0  0  0  0  0
   60.6600   27.4780   45.8140 C   0  0  0  0  0  0  0  0  0  0  0  0
   59.5660   26.6220   45.6760 C   0  0  0  0  0  0  0  0  0  0  0  0
   58.2860   27.1340   45.3950 C   0  0  0  0  0  0  0  0  0  0  0  0
   57.1850   26.2350   45.1790 N   0  0  0  0  0  0  0  0  0  0  0  0
   57.0410   24.9840   45.8710 C   0  0  0  0  0  0  0  0  0  0  0  0
   57.7810   24.7130   46.8560 O   0  0  0  0  0  0  0  0  0  0  0  0
   55.9570   24.0300   45.4760 C   0  0  0  0  0  0  0  0  0  0  0  0
   56.2110   23.4940   43.7970 Cl  0  0  0  0  0  0  0  0  0  0  0  0
   54.3590   24.8080   45.6150 Cl  0  0  0  0  0  0  0  0  0  0  0  0
   57.5004   30.9569   47.0529 H   0  0  0  0  0  0  0  0  0  0  0  0
   58.8020   32.9486   47.8065 H   0  0  0  0  0  0  0  0  0  0  0  0
   58.8121   34.4777   43.7588 H   0  0  0  0  0  0  0  0  0  0  0  0
   57.5069   32.4919   43.0025 H   0  0  0  0  0  0  0  0  0  0  0  0
   59.1090   30.4659   45.2632 H   0  0  0  0  0  0  0  0  0  0  0  0
   61.3561   29.5269   45.7765 H   0  0  0  0  0  0  0  0  0  0  0  0
   61.6548   27.0663   46.0397 H   0  0  0  0  0  0  0  0  0  0  0  0
   59.7060   25.5367   45.7880 H   0  0  0  0  0  0  0  0  0  0  0  0
   56.4280   26.5240   44.5190 H   0  0  0  0  0  0  0  0  0  0  0  0
   55.9903   23.1622   46.1511 H   0  0  0  0  0  0  0  0  0  0  0  0
  1  2  2  0
  2  3  1  0
  3  4  1  0
  4  5  2  0
  5  6  1  0
  6  7  2  0
  7  8  1  0
  7  9  1  0
  9 10  2  0
  2 11  1  0
 11 12  2  0
 12 13  1  0
 13 14  2  0
 14 15  1  0
 15 16  2  0
 16 17  1  0
 17 18  1  0
 18 19  2  0
 18 20  1  0
 20 21  1  0
 20 22  1  0
 10  4  1  0
 16 11  1  0
  5 23  1  0
  6 24  1  0
  9 25  1  0
 10 26  1  0
 12 27  1  0
 13 28  1  0
 14 29  1  0
 15 30  1  0
 17 31  1  0
 20 32  1  0
M  CHG  1   3  -1
M  END
>  <UniqueID>  (70) 
65

>  <SMILES>  (70) 
O=C([N-]c1ccc(Br)cc1)c1ccccc1NC(=O)C(Cl)Cl

>  <Energy>  (70) 
43.10333156161844

>  <Genealogy>  (70) 
O=C([N-]c1ccc(Br)cc1)c1ccccc1NC(=O)C(Cl)Cl (protonated)
O=C([N-]c1ccc(Br)cc1)c1ccccc1NC(=O)C(Cl)Cl (3D coordinates assigned)
O=C([N-]c1ccc(Br)cc1)c1ccccc1NC(=O)C(Cl)Cl (optimized conformer: 43.10333156161844 kcal/mol)

>  <smiles>  (70) 
O=C(Nc1ccc(Br)cc1)c1ccccc1NC(=O)C(Cl)Cl

>  <score_type>  (70) 
oracle

>  <origin>  (70) 
adg

>  <m_score__min__energy>  (70) 
-9.2599999999999998

>  <m_primary>  (70) 
energy

$$$$
70:0
     RDKit          3D

 45 46  0  0  0  0  0  0  0  0999 V2000
   58.8980   25.1380   45.9020 C   0  0  0  0  0  0  0  0  0  0  0  0
   57.9310   24.1720   45.2180 C   0  0  0  0  0  0  0  0  0  0  0  0
   56.7180   24.8810   44.5980 C   0  0  0  0  0  0  0  0  0  0  0  0
   55.7350   25.7610   45.8080 S   0  0  0  0  0  0  0  0  0  0  0  0
   54.2810   25.4230   45.6180 O   0  0  0  0  0  0  0  0  0  0  0  0
   56.1720   25.3470   47.1860 O   0  0  0  0  0  0  0  0  0  0  0  0
   55.9720   27.4690   45.6180 N   0  0  0  0  0  0  0  0  0  0  0  0
   57.2420   28.1110   45.4530 C   0  0  0  0  0  0  0  0  0  0  0  0
   57.9710   28.0300   44.2540 C   0  0  0  0  0  0  0  0  0  0  0  0
   59.2110   28.6590   44.1420 C   0  0  0  0  0  0  0  0  0  0  0  0
   59.7390   29.3700   45.2220 C   0  0  0  0  0  0  0  0  0  0  0  0
   59.0230   29.4680   46.4280 C   0  0  0  0  0  0  0  0  0  0  0  0
   59.5800   30.2200   47.5760 C   0  0  0  0  0  0  0  0  0  0  0  0
   60.4820   29.7010   48.2900 O   0  0  0  0  0  0  0  0  0  0  0  0
   59.1330   31.5560   47.8490 N   0  0  0  0  0  0  0  0  0  0  0  0
   58.9210   32.5780   46.8650 C   0  0  0  0  0  0  0  0  0  0  0  0
   57.6900   32.6120   46.1940 C   0  0  0  0  0  0  0  0  0  0  0  0
   57.4380   33.5850   45.2240 C   0  0  0  0  0  0  0  0  0  0  0  0
   58.4100   34.5400   44.9250 C   0  0  0  0  0  0  0  0  0  0  0  0
   59.6270   34.5420   45.6110 C   0  0  0  0  0  0  0  0  0  0  0  0
   59.8900   33.5730   46.6010 C   0  0  0  0  0  0  0  0  0  0  0  0
   61.0770   33.5870   47.3510 O   0  0  0  0  0  0  0  0  0  0  0  0
   62.1810   32.7110   47.1460 C   0  0  0  0  0  0  0  0  0  0  0  0
   63.4610   33.4030   47.5880 C   0  0  0  0  0  0  0  0  0  0  0  0
   57.7690   28.8360   46.5290 C   0  0  0  0  0  0  0  0  0  0  0  0
   58.8016   25.0417   46.9935 H   0  0  0  0  0  0  0  0  0  0  0  0
   59.9289   24.8983   45.6024 H   0  0  0  0  0  0  0  0  0  0  0  0
   58.6594   26.1692   45.6024 H   0  0  0  0  0  0  0  0  0  0  0  0
   58.4714   23.6394   44.4215 H   0  0  0  0  0  0  0  0  0  0  0  0
   57.5532   23.4826   45.9874 H   0  0  0  0  0  0  0  0  0  0  0  0
   57.0772   25.6000   43.8471 H   0  0  0  0  0  0  0  0  0  0  0  0
   56.0766   24.1082   44.1492 H   0  0  0  0  0  0  0  0  0  0  0  0
   57.5622   27.4686   43.4009 H   0  0  0  0  0  0  0  0  0  0  0  0
   59.7750   28.5948   43.1998 H   0  0  0  0  0  0  0  0  0  0  0  0
   60.7212   29.8564   45.1284 H   0  0  0  0  0  0  0  0  0  0  0  0
   56.9171   31.8668   46.4334 H   0  0  0  0  0  0  0  0  0  0  0  0
   56.4732   33.5982   44.6959 H   0  0  0  0  0  0  0  0  0  0  0  0
   58.2176   35.2935   44.1470 H   0  0  0  0  0  0  0  0  0  0  0  0
   60.3848   35.3043   45.3774 H   0  0  0  0  0  0  0  0  0  0  0  0
   62.0367   31.7938   47.7359 H   0  0  0  0  0  0  0  0  0  0  0  0
   62.2521   32.4514   46.0794 H   0  0  0  0  0  0  0  0  0  0  0  0
   63.5045   33.4265   48.6869 H   0  0  0  0  0  0  0  0  0  0  0  0
   64.3293   32.8515   47.1984 H   0  0  0  0  0  0  0  0  0  0  0  0
   63.4751   34.4316   47.1984 H   0  0  0  0  0  0  0  0  0  0  0  0
   57.1960   28.9126   47.4648 H   0  0  0  0  0  0  0  0  0  0  0  0
  1  2  1  0
  2  3  1  0
  3  4  1  0
  4  5  2  0
  4  6  2  0
  4  7  1  0
  7  8  1  0
  8  9  2  0
  9 10  1  0
 10 11  2  0
 11 12  1  0
 12 13  1  0
 13 14  2  0
 13 15  1  0
 15 16  1  0
 16 17  2  0
 17 18  1  0
 18 19  2  0
 19 20  1  0
 20 21  2  0
 21 22  1  0
 22 23  1  0
 23 24  1  0
 12 25  2  0
 25  8  1  0
 21 16  1  0
  1 26  1  0
  1 27  1  0
  1 28  1  0
  2 29  1  0
  2 30  1  0
  3 31  1  0
  3 32  1  0
  9 33  1  0
 10 34  1  0
 11 35  1  0
 17 36  1  0
 18 37  1  0
 19 38  1  0
 20 39  1  0
 23 40  1  0
 23 41  1  0
 24 42  1  0
 24 43  1  0
 24 44  1  0
 25 45  1  0
M  CHG  2   7  -1  15  -1
M  END
>  <UniqueID>  (71) 
66

>  <SMILES>  (71) 
CCCS(=O)(=O)[N-]c1cccc(C(=O)[N-]c2ccccc2OCC)c1

>  <Energy>  (71) 
43.07266509055397

>  <Genealogy>  (71) 
CCCS(=O)(=O)[N-]c1cccc(C(=O)[N-]c2ccccc2OCC)c1 (protonated)
CCCS(=O)(=O)[N-]c1cccc(C(=O)[N-]c2ccccc2OCC)c1 (3D coordinates assigned)
CCCS(=O)(=O)[N-]c1cccc(C(=O)[N-]c2ccccc2OCC)c1 (optimized conformer: 43.07266509055397 kcal/mol)

>  <smiles>  (71) 
CCCS(=O)(=O)Nc1cccc(C(=O)Nc2ccccc2OCC)c1

>  <score_type>  (71) 
oracle

>  <origin>  (71) 
adg

>  <m_score__min__energy>  (71) 
-11.31

>  <m_primary>  (71) 
energy

$$$$
71:0
     RDKit          3D

 38 39  0  0  0  0  0  0  0  0999 V2000
   57.8610   26.5380   44.5060 C   0  0  0  0  0  0  0  0  0  0  0  0
   56.9730   26.5940   45.7550 C   0  0  0  0  0  0  0  0  0  0  0  0
   57.7900   26.8730   47.0200 C   0  0  0  0  0  0  0  0  0  0  0  0
   55.8980   27.5750   45.5910 N   0  0  0  0  0  0  0  0  0  0  0  0
   56.0610   28.9500   45.2310 C   0  0  0  0  0  0  0  0  0  0  0  0
   55.1990   29.5360   44.5210 O   0  0  0  0  0  0  0  0  0  0  0  0
   57.2220   29.6550   45.6820 N   0  0  0  0  0  0  0  0  0  0  0  0
   57.6350   30.9310   45.1710 C   0  0  0  0  0  0  0  0  0  0  0  0
   57.4850   31.1700   43.7990 C   0  0  0  0  0  0  0  0  0  0  0  0
   57.7980   32.4180   43.2580 C   0  0  0  0  0  0  0  0  0  0  0  0
   58.2730   33.4370   44.0830 C   0  0  0  0  0  0  0  0  0  0  0  0
   58.4600   33.2040   45.4470 C   0  0  0  0  0  0  0  0  0  0  0  0
   58.1690   31.9470   46.0060 C   0  0  0  0  0  0  0  0  0  0  0  0
   58.4940   31.7110   47.4320 C   0  0  0  0  0  0  0  0  0  0  0  0
   58.5050   30.5380   47.8900 O   0  0  0  0  0  0  0  0  0  0  0  0
   58.7680   32.8270   48.2900 N   0  0  0  0  0  0  0  0  0  0  0  0
   60.0260   33.1450   48.9050 C   0  0  0  0  0  0  0  0  0  0  0  0
   60.0370   33.5070   50.2560 C   0  0  0  0  0  0  0  0  0  0  0  0
   61.2380   33.8360   50.8910 C   0  0  0  0  0  0  0  0  0  0  0  0
   62.4400   33.8230   50.1760 C   0  0  0  0  0  0  0  0  0  0  0  0
   63.9320   34.2430   51.0080 Cl  0  0  0  0  0  0  0  0  0  0  0  0
   62.4350   33.4860   48.8120 C   0  0  0  0  0  0  0  0  0  0  0  0
   63.9210   33.4840   47.8700 Cl  0  0  0  0  0  0  0  0  0  0  0  0
   61.2310   33.1560   48.1790 C   0  0  0  0  0  0  0  0  0  0  0  0
   58.9163   26.4714   44.8091 H   0  0  0  0  0  0  0  0  0  0  0  0
   57.5953   25.6548   43.9065 H   0  0  0  0  0  0  0  0  0  0  0  0
   57.7083   27.4476   43.9065 H   0  0  0  0  0  0  0  0  0  0  0  0
   56.5128   25.6024   45.8772 H   0  0  0  0  0  0  0  0  0  0  0  0
   57.1750   26.6630   47.9075 H   0  0  0  0  0  0  0  0  0  0  0  0
   58.6812   26.2283   47.0306 H   0  0  0  0  0  0  0  0  0  0  0  0
   58.1007   27.9282   47.0306 H   0  0  0  0  0  0  0  0  0  0  0  0
   57.1175   30.3675   43.1425 H   0  0  0  0  0  0  0  0  0  0  0  0
   57.6699   32.5978   42.1804 H   0  0  0  0  0  0  0  0  0  0  0  0
   58.5007   34.4259   43.6586 H   0  0  0  0  0  0  0  0  0  0  0  0
   58.8387   34.0117   46.0906 H   0  0  0  0  0  0  0  0  0  0  0  0
   59.0944   33.5330   50.8224 H   0  0  0  0  0  0  0  0  0  0  0  0
   61.2378   34.1062   51.9573 H   0  0  0  0  0  0  0  0  0  0  0  0
   61.2270   32.9039   47.1083 H   0  0  0  0  0  0  0  0  0  0  0  0
  1  2  1  0
  2  3  1  0
  2  4  1  0
  4  5  1  0
  5  6  2  0
  5  7  1  0
  7  8  1  0
  8  9  2  0
  9 10  1  0
 10 11  2  0
 11 12  1  0
 12 13  2  0
 13 14  1  0
 14 15  2  0
 14 16  1  0
 16 17  1  0
 17 18  2  0
 18 19  1  0
 19 20  2  0
 20 21  1  0
 20 22  1  0
 22 23  1  0
 22 24  2  0
 13  8  1  0
 24 17  1  0
  1 25  1  0
  1 26  1  0
  1 27  1  0
  2 28  1  0
  3 29  1  0
  3 30  1  0
  3 31  1  0
  9 32  1  0
 10 33  1  0
 11 34  1  0
 12 35  1  0
 18 36  1  0
 19 37  1  0
 24 38  1  0
M  CHG  3   4  -1   7  -1  16  -1
M  END
>  <UniqueID>  (72) 
67

>  <SMILES>  (72) 
CC(C)[N-]C(=O)[N-]c1ccccc1C(=O)[N-]c1ccc(Cl)c(Cl)c1

>  <Energy>  (72) 
47.274124951091764

>  <Genealogy>  (72) 
CC(C)[N-]C(=O)[N-]c1ccccc1C(=O)[N-]c1ccc(Cl)c(Cl)c1 (protonated)
CC(C)[N-]C(=O)[N-]c1ccccc1C(=O)[N-]c1ccc(Cl)c(Cl)c1 (3D coordinates assigned)
CC(C)[N-]C(=O)[N-]c1ccccc1C(=O)[N-]c1ccc(Cl)c(Cl)c1 (optimized conformer: 47.274124951091764 kcal/mol)

>  <smiles>  (72) 
CC(C)NC(=O)Nc1ccccc1C(=O)Nc1ccc(Cl)c(Cl)c1

>  <score_type>  (72) 
oracle

>  <origin>  (72) 
adg

>  <m_score__min__energy>  (72) 
-14.16

>  <m_primary>  (72) 
energy

$$$$
72:0
     RDKit          3D

 54 57  0  0  0  0  0  0  0  0999 V2000
   54.7650   29.6930   43.6530 O   0  0  0  0  0  0  0  0  0  0  0  0
   55.8440   29.7300   44.3030 C   0  0  0  0  0  0  0  0  0  0  0  0
   56.1540   28.6890   45.2420 N   0  0  0  0  0  0  0  0  0  0  0  0
   57.4560   28.3380   45.7300 C   0  0  0  0  0  0  0  0  0  0  0  0
   58.0440   27.1500   45.2790 C   0  0  0  0  0  0  0  0  0  0  0  0
   59.3070   26.7660   45.7390 C   0  0  0  0  0  0  0  0  0  0  0  0
   59.9870   27.5590   46.6650 C   0  0  0  0  0  0  0  0  0  0  0  0
   59.3970   28.7360   47.1500 C   0  0  0  0  0  0  0  0  0  0  0  0
   60.2280   29.7370   48.3360 S   0  0  0  0  0  0  0  0  0  0  0  0
   60.8660   28.8680   49.3840 O   0  0  0  0  0  0  0  0  0  0  0  0
   61.2820   30.5470   47.6350 O   0  0  0  0  0  0  0  0  0  0  0  0
   59.0660   30.7880   49.0880 N   0  0  0  0  0  0  0  0  0  0  0  0
   59.2490   31.5050   50.1590 C   0  0  0  0  0  0  0  0  0  0  0  0
   60.5090   31.4860   50.7700 C   0  0  0  0  0  0  0  0  0  0  0  0
   60.7360   32.2460   51.9190 C   0  0  0  0  0  0  0  0  0  0  0  0
   59.7370   33.0020   52.4460 N   0  0  0  0  0  0  0  0  0  0  0  0
   58.5030   33.0430   51.8790 C   0  0  0  0  0  0  0  0  0  0  0  0
   58.2320   32.2990   50.7270 C   0  0  0  0  0  0  0  0  0  0  0  0
   58.1320   29.1200   46.6850 C   0  0  0  0  0  0  0  0  0  0  0  0
   56.7660   30.8780   44.1390 C   0  0  0  0  0  0  0  0  0  0  0  0
   57.2730   31.2110   42.8700 C   0  0  0  0  0  0  0  0  0  0  0  0
   58.1390   32.2970   42.7160 C   0  0  0  0  0  0  0  0  0  0  0  0
   58.5070   33.0630   43.8230 C   0  0  0  0  0  0  0  0  0  0  0  0
   58.0100   32.7500   45.0940 C   0  0  0  0  0  0  0  0  0  0  0  0
   58.4820   33.7190   46.4960 S   0  0  0  0  0  0  0  0  0  0  0  0
   57.3610   33.7090   47.4970 O   0  0  0  0  0  0  0  0  0  0  0  0
   58.7000   35.1400   46.0560 O   0  0  0  0  0  0  0  0  0  0  0  0
   59.9360   33.1260   47.2620 N   0  0  0  0  0  0  0  0  0  0  0  0
   61.1060   33.2030   46.3840 C   0  0  0  0  0  0  0  0  0  0  0  0
   62.3260   33.3080   47.2910 C   0  0  0  0  0  0  0  0  0  0  0  0
   61.7870   33.7170   48.6550 C   0  0  0  0  0  0  0  0  0  0  0  0
   60.2880   33.8910   48.4600 C   0  0  0  0  0  0  0  0  0  0  0  0
   57.1490   31.6540   45.2500 C   0  0  0  0  0  0  0  0  0  0  0  0
   57.5086   26.5147   44.5580 H   0  0  0  0  0  0  0  0  0  0  0  0
   59.7661   25.8368   45.3704 H   0  0  0  0  0  0  0  0  0  0  0  0
   60.9864   27.2608   47.0148 H   0  0  0  0  0  0  0  0  0  0  0  0
   61.3182   30.8736   50.3455 H   0  0  0  0  0  0  0  0  0  0  0  0
   61.7257   32.2329   52.3989 H   0  0  0  0  0  0  0  0  0  0  0  0
   57.7141   33.6641   52.3282 H   0  0  0  0  0  0  0  0  0  0  0  0
   57.2332   32.3328   50.2674 H   0  0  0  0  0  0  0  0  0  0  0  0
   57.6644   30.0386   47.0690 H   0  0  0  0  0  0  0  0  0  0  0  0
   56.9859   30.6126   41.9928 H   0  0  0  0  0  0  0  0  0  0  0  0
   58.5316   32.5487   41.7197 H   0  0  0  0  0  0  0  0  0  0  0  0
   59.1901   33.9159   43.6965 H   0  0  0  0  0  0  0  0  0  0  0  0
   59.7780   32.1260   47.5320 H   0  0  0  0  0  0  0  0  0  0  0  0
   61.1730   32.2988   45.7611 H   0  0  0  0  0  0  0  0  0  0  0  0
   61.0385   34.0687   45.7088 H   0  0  0  0  0  0  0  0  0  0  0  0
   62.8406   32.3380   47.3564 H   0  0  0  0  0  0  0  0  0  0  0  0
   63.0575   34.0345   46.9074 H   0  0  0  0  0  0  0  0  0  0  0  0
   61.9900   32.9336   49.4000 H   0  0  0  0  0  0  0  0  0  0  0  0
   62.2618   34.6382   49.0236 H   0  0  0  0  0  0  0  0  0  0  0  0
   59.7431   33.5028   49.3331 H   0  0  0  0  0  0  0  0  0  0  0  0
   60.0206   34.9522   48.3487 H   0  0  0  0  0  0  0  0  0  0  0  0
   56.7691   31.3980   46.2501 H   0  0  0  0  0  0  0  0  0  0  0  0
  1  2  2  0
  2  3  1  0
  3  4  1  0
  4  5  2  0
  5  6  1  0
  6  7  2  0
  7  8  1  0
  8  9  1  0
  9 10  2  0
  9 11  2  0
  9 12  1  0
 12 13  2  3
 13 14  1  0
 14 15  2  0
 15 16  1  0
 16 17  1  0
 17 18  2  0
  8 19  2  0
  2 20  1  0
 20 21  2  0
 21 22  1  0
 22 23  2  0
 23 24  1  0
 24 25  1  0
 25 26  2  0
 25 27  2  0
 25 28  1  0
 28 29  1  0
 29 30  1  0
 30 31  1  0
 31 32  1  0
 24 33  2  0
 19  4  1  0
 33 20  1  0
 18 13  1  0
 32 28  1  0
  5 34  1  0
  6 35  1  0
  7 36  1  0
 14 37  1  0
 15 38  1  0
 17 39  1  0
 18 40  1  0
 19 41  1  0
 21 42  1  0
 22 43  1  0
 23 44  1  0
 28 45  1  0
 29 46  1  0
 29 47  1  0
 30 48  1  0
 30 49  1  0
 31 50  1  0
 31 51  1  0
 32 52  1  0
 32 53  1  0
 33 54  1  0
M  CHG  3   3  -1  16  -1  28   1
M  END
>  <UniqueID>  (73) 
68

>  <SMILES>  (73) 
O=C([N-]c1cccc(S(=O)(=O)N=c2cc[n-]cc2)c1)c1cccc(S(=O)(=O)[NH+]2CCCC2)c1

>  <Energy>  (73) 
69.97140284084105

>  <Genealogy>  (73) 
O=C([N-]c1cccc(S(=O)(=O)N=c2cc[n-]cc2)c1)c1cccc(S(=O)(=O)[NH+]2CCCC2)c1 (protonated)
O=C([N-]c1cccc(S(=O)(=O)N=c2cc[n-]cc2)c1)c1cccc(S(=O)(=O)[NH+]2CCCC2)c1 (3D coordinates assigned)
O=C([N-]c1cccc(S(=O)(=O)N=c2cc[n-]cc2)c1)c1cccc(S(=O)(=O)[NH+]2CCCC2)c1 (nonaromatic ring conformer: 69.97140284084105 kcal/mol)

>  <smiles>  (73) 
O=C(Nc1cccc(S(=O)(=O)N=c2cc[nH]cc2)c1)c1cccc(S(=O)(=O)N2CCCC2)c1

>  <score_type>  (73) 
oracle

>  <origin>  (73) 
adg

>  <m_score__min__energy>  (73) 
-12.619999999999999

>  <m_primary>  (73) 
energy

$$$$
73:0
     RDKit          3D

 67 70  0  0  0  0  0  0  0  0999 V2000
   55.2230   29.2980   44.8350 O   0  0  0  0  0  0  0  0  0  0  0  0
   56.2500   29.8860   44.4070 C   0  0  0  0  0  0  0  0  0  0  0  0
   56.9660   29.3140   43.2110 C   0  0  0  0  0  0  0  0  0  0  0  0
   57.7610   28.0470   43.5610 C   0  0  0  0  0  0  0  0  0  0  0  0
   58.5210   28.2090   44.8500 C   0  0  0  0  0  0  0  0  0  0  0  0
   59.6220   29.0730   44.9350 C   0  0  0  0  0  0  0  0  0  0  0  0
   60.3560   29.1650   46.1260 C   0  0  0  0  0  0  0  0  0  0  0  0
   60.0030   28.3730   47.2370 C   0  0  0  0  0  0  0  0  0  0  0  0
   60.7100   28.4040   48.4480 O   0  0  0  0  0  0  0  0  0  0  0  0
   60.1170   28.3630   49.7460 C   0  0  0  0  0  0  0  0  0  0  0  0
   59.4450   29.6690   50.0660 C   0  0  0  0  0  0  0  0  0  0  0  0
   60.1350   30.8330   49.9190 N   0  0  0  0  0  0  0  0  0  0  0  0
   59.5900   32.0250   50.2740 C   0  0  0  0  0  0  0  0  0  0  0  0
   60.3810   33.2600   50.1510 C   0  0  0  0  0  0  0  0  0  0  0  0
   60.1380   34.2060   50.9530 O   0  0  0  0  0  0  0  0  0  0  0  0
   61.4210   33.4040   49.1530 N   0  0  0  0  0  0  0  0  0  0  0  0
   61.3710   32.6040   47.9140 C   0  0  0  0  0  0  0  0  0  0  0  0
   62.7630   32.1020   47.5140 C   0  0  0  0  0  0  0  0  0  0  0  0
   63.6550   31.8000   48.7200 C   0  0  0  0  0  0  0  0  0  0  0  0
   64.5150   32.9990   49.1380 C   0  0  0  0  0  0  0  0  0  0  0  0
   63.7420   34.0010   50.0070 C   0  0  0  0  0  0  0  0  0  0  0  0
   62.4270   34.4650   49.3620 C   0  0  0  0  0  0  0  0  0  0  0  0
   58.2870   32.0650   50.7780 C   0  0  0  0  0  0  0  0  0  0  0  0
   57.5990   30.8680   50.9420 C   0  0  0  0  0  0  0  0  0  0  0  0
   58.1910   29.6920   50.6060 N   0  0  0  0  0  0  0  0  0  0  0  0
   58.9110   27.5050   47.1410 C   0  0  0  0  0  0  0  0  0  0  0  0
   58.1680   27.4290   45.9610 C   0  0  0  0  0  0  0  0  0  0  0  0
   56.6590   31.1060   45.0430 N   0  0  0  0  0  0  0  0  0  0  0  0
   57.7430   31.2310   46.0050 C   0  0  0  0  0  0  0  0  0  0  0  0
   58.2670   32.6410   46.0150 C   0  0  0  0  0  0  0  0  0  0  0  0
   58.3820   33.3560   47.2210 C   0  0  0  0  0  0  0  0  0  0  0  0
   58.9150   34.6520   47.2250 C   0  0  0  0  0  0  0  0  0  0  0  0
   59.3410   35.2390   46.0310 C   0  0  0  0  0  0  0  0  0  0  0  0
   59.2240   34.5350   44.8270 C   0  0  0  0  0  0  0  0  0  0  0  0
   58.6930   33.2410   44.8180 C   0  0  0  0  0  0  0  0  0  0  0  0
   56.2228   29.0639   42.4396 H   0  0  0  0  0  0  0  0  0  0  0  0
   57.6785   30.0706   42.8506 H   0  0  0  0  0  0  0  0  0  0  0  0
   57.0622   27.2035   43.6620 H   0  0  0  0  0  0  0  0  0  0  0  0
   58.4860   27.8617   42.7548 H   0  0  0  0  0  0  0  0  0  0  0  0
   59.9108   29.6805   44.0646 H   0  0  0  0  0  0  0  0  0  0  0  0
   61.2088   29.8565   46.1934 H   0  0  0  0  0  0  0  0  0  0  0  0
   59.3702   27.5560   49.7762 H   0  0  0  0  0  0  0  0  0  0  0  0
   60.9069   28.1809   50.4895 H   0  0  0  0  0  0  0  0  0  0  0  0
   60.7109   31.7386   48.0735 H   0  0  0  0  0  0  0  0  0  0  0  0
   60.9887   33.2437   47.1049 H   0  0  0  0  0  0  0  0  0  0  0  0
   62.6479   31.1814   46.9230 H   0  0  0  0  0  0  0  0  0  0  0  0
   63.2490   32.9012   46.9352 H   0  0  0  0  0  0  0  0  0  0  0  0
   63.0150   31.5140   49.5677 H   0  0  0  0  0  0  0  0  0  0  0  0
   64.3377   30.9871   48.4317 H   0  0  0  0  0  0  0  0  0  0  0  0
   65.3803   32.6309   49.7087 H   0  0  0  0  0  0  0  0  0  0  0  0
   64.8280   33.5219   48.2222 H   0  0  0  0  0  0  0  0  0  0  0  0
   63.5106   33.5238   50.9707 H   0  0  0  0  0  0  0  0  0  0  0  0
   64.3791   34.8891   50.1313 H   0  0  0  0  0  0  0  0  0  0  0  0
   61.9818   35.2331   50.0115 H   0  0  0  0  0  0  0  0  0  0  0  0
   62.6920   34.8362   48.3610 H   0  0  0  0  0  0  0  0  0  0  0  0
   57.8155   33.0238   51.0395 H   0  0  0  0  0  0  0  0  0  0  0  0
   56.5751   30.8730   51.3439 H   0  0  0  0  0  0  0  0  0  0  0  0
   57.6630   28.8050   50.7650 H   0  0  0  0  0  0  0  0  0  0  0  0
   58.6351   26.8774   48.0012 H   0  0  0  0  0  0  0  0  0  0  0  0
   57.3015   26.7540   45.9025 H   0  0  0  0  0  0  0  0  0  0  0  0
   57.3706   30.9744   47.0077 H   0  0  0  0  0  0  0  0  0  0  0  0
   58.5564   30.5472   45.7208 H   0  0  0  0  0  0  0  0  0  0  0  0
   58.0523   32.8961   48.1643 H   0  0  0  0  0  0  0  0  0  0  0  0
   58.9981   35.2083   48.1703 H   0  0  0  0  0  0  0  0  0  0  0  0
   59.7677   36.2529   46.0371 H   0  0  0  0  0  0  0  0  0  0  0  0
   59.5505   35.0005   43.8854 H   0  0  0  0  0  0  0  0  0  0  0  0
   58.6085   32.6905   43.8694 H   0  0  0  0  0  0  0  0  0  0  0  0
  1  2  2  0
  2  3  1  0
  3  4  1  0
  4  5  1  0
  5  6  2  0
  6  7  1  0
  7  8  2  0
  8  9  1  0
  9 10  1  0
 10 11  1  0
 11 12  2  0
 12 13  1  0
 13 14  1  0
 14 15  2  0
 14 16  1  0
 16 17  1  0
 17 18  1  0
 18 19  1  0
 19 20  1  0
 20 21  1  0
 21 22  1  0
 13 23  2  0
 23 24  1  0
 24 25  2  0
  8 26  1  0
 26 27  2  0
  2 28  1  0
 28 29  1  0
 29 30  1  0
 30 31  2  0
 31 32  1  0
 32 33  2  0
 33 34  1  0
 34 35  2  0
 27  5  1  0
 35 30  1  0
 25 11  1  0
 22 16  1  0
  3 36  1  0
  3 37  1  0
  4 38  1  0
  4 39  1  0
  6 40  1  0
  7 41  1  0
 10 42  1  0
 10 43  1  0
 17 44  1  0
 17 45  1  0
 18 46  1  0
 18 47  1  0
 19 48  1  0
 19 49  1  0
 20 50  1  0
 20 51  1  0
 21 52  1  0
 21 53  1  0
 22 54  1  0
 22 55  1  0
 23 56  1  0
 24 57  1  0
 25 58  1  0
 26 59  1  0
 27 60  1  0
 29 61  1  0
 29 62  1  0
 31 63  1  0
 32 64  1  0
 33 65  1  0
 34 66  1  0
 35 67  1  0
M  CHG  2  25   1  28  -1
M  END
>  <UniqueID>  (74) 
69

>  <SMILES>  (74) 
O=C(CCc1ccc(OCc2nc(C(=O)N3CCCCCC3)cc[nH+]2)cc1)[N-]Cc1ccccc1

>  <Energy>  (74) 
70.0761796581134

>  <Genealogy>  (74) 
O=C(CCc1ccc(OCc2nc(C(=O)N3CCCCCC3)cc[nH+]2)cc1)[N-]Cc1ccccc1 (protonated)
O=C(CCc1ccc(OCc2nc(C(=O)N3CCCCCC3)cc[nH+]2)cc1)[N-]Cc1ccccc1 (3D coordinates assigned)
O=C(CCc1ccc(OCc2nc(C(=O)N3CCCCCC3)cc[nH+]2)cc1)[N-]Cc1ccccc1 (nonaromatic ring conformer: 70.0761796581134 kcal/mol)

>  <smiles>  (74) 
O=C(CCc1ccc(OCc2nccc(C(=O)N3CCCCCC3)n2)cc1)NCc1ccccc1

>  <score_type>  (74) 
oracle

>  <origin>  (74) 
adg

>  <m_score__min__energy>  (74) 
-8.9000000000000004

>  <m_primary>  (74) 
energy

$$$$
74:0
     RDKit          3D

 40 42  0  0  1  0  0  0  0  0999 V2000
   65.4220   32.4090   50.1220 C   0  0  0  0  0  0  0  0  0  0  0  0
   65.0410   33.4330   49.2280 O   0  0  0  0  0  0  0  0  0  0  0  0
   63.7590   33.5190   48.6970 C   0  0  0  0  0  0  0  0  0  0  0  0
   63.5730   33.3580   47.3390 C   0  0  0  0  0  0  0  0  0  0  0  0
   62.3050   33.4350   46.7770 C   0  0  0  0  0  0  0  0  0  0  0  0
   61.2070   33.6770   47.5810 C   0  0  0  0  0  0  0  0  0  0  0  0
   59.8950   33.7500   46.9510 C   0  0  0  0  0  0  0  0  0  0  0  0
   58.7180   34.0420   47.5350 N   0  0  0  0  0  0  0  0  0  0  0  0
   57.7330   34.0180   46.6610 N   0  0  0  0  0  0  0  0  0  0  0  0
   58.3220   33.7000   45.4810 C   0  0  0  0  0  0  0  0  0  0  0  0
   57.6700   33.5820   44.3740 N   0  0  0  0  0  0  0  0  0  0  0  0
   57.7620   32.4020   43.6330 C   0  0  0  0  0  0  0  0  0  0  0  0
   58.0060   32.4870   42.3830 O   0  0  0  0  0  0  0  0  0  0  0  0
   57.6090   31.0530   44.1600 C   0  0  0  0  0  0  0  0  0  0  0  0
   58.6980   30.4020   44.7240 C   0  0  0  0  0  0  0  0  0  0  0  0
   58.4840   29.1170   45.2060 C   0  0  0  0  0  0  0  0  0  0  0  0
   57.2480   28.5090   45.1290 C   0  0  0  0  0  0  0  0  0  0  0  0
   56.9350   26.8930   45.7200 S   0  0  0  0  0  0  0  0  0  0  0  0
   57.3650   25.6910   44.5420 N   0  0  0  0  0  0  0  0  0  0  0  0
   55.4730   26.7130   46.0000 O   0  0  0  0  0  0  0  0  0  0  0  0
   57.7740   26.6210   46.9330 O   0  0  0  0  0  0  0  0  0  0  0  0
   56.1820   29.1850   44.5610 C   0  0  0  0  0  0  0  0  0  0  0  0
   56.3580   30.4670   44.0710 C   0  0  0  0  0  0  0  0  0  0  0  0
   59.6220   33.5410   45.6660 O   0  0  0  0  0  0  0  0  0  0  0  0
   61.3670   33.8410   48.9380 C   0  0  0  0  0  0  0  0  0  0  0  0
   62.6490   33.7580   49.4700 C   0  0  0  0  0  0  0  0  0  0  0  0
   65.2919   32.7586   51.1568 H   0  0  0  0  0  0  0  0  0  0  0  0
   64.7937   31.5221   49.9529 H   0  0  0  0  0  0  0  0  0  0  0  0
   66.4772   32.1485   49.9529 H   0  0  0  0  0  0  0  0  0  0  0  0
   64.4417   33.1659   46.6921 H   0  0  0  0  0  0  0  0  0  0  0  0
   62.1748   33.3035   45.6927 H   0  0  0  0  0  0  0  0  0  0  0  0
   56.7120   34.2060   46.8450 H   0  0  0  0  0  0  0  0  0  0  0  0
   59.6857   30.8822   44.7863 H   0  0  0  0  0  0  0  0  0  0  0  0
   59.3224   28.5695   45.6613 H   0  0  0  0  0  0  0  0  0  0  0  0
   58.3770   25.4630   44.5560 H   0  0  0  0  0  0  0  0  0  0  0  0
   56.9760   26.0030   43.6510 H   0  0  0  0  0  0  0  0  0  0  0  0
   55.1951   28.7031   44.4992 H   0  0  0  0  0  0  0  0  0  0  0  0
   55.5169   31.0121   43.6178 H   0  0  0  0  0  0  0  0  0  0  0  0
   60.5001   34.0334   49.5872 H   0  0  0  0  0  0  0  0  0  0  0  0
   62.7796   33.8891   50.5543 H   0  0  0  0  0  0  0  0  0  0  0  0
  1  2  1  0
  2  3  1  0
  3  4  2  0
  4  5  1  0
  5  6  2  0
  6  7  1  0
  7  8  2  0
  8  9  1  0
  9 10  1  0
 10 11  2  0
 11 12  1  0
 12 13  2  0
 12 14  1  0
 14 15  2  0
 15 16  1  0
 16 17  2  0
 17 18  1  0
 18 19  1  0
 18 20  2  0
 18 21  2  0
 17 22  1  0
 22 23  2  0
 10 24  1  0
  6 25  1  0
 25 26  2  0
 26  3  1  0
 24  7  1  0
 23 14  1  0
  1 27  1  0
  1 28  1  0
  1 29  1  0
  4 30  1  0
  5 31  1  0
  9 32  1  0
 15 33  1  0
 16 34  1  0
 19 35  1  0
 19 36  1  0
 22 37  1  0
 23 38  1  0
 25 39  1  0
 26 40  1  0
M  END
>  <smiles>  (75) 
COc1ccc(-c2n[nH]c(=NC(=O)c3ccc(S(N)(=O)=O)cc3)o2)cc1

>  <score_type>  (75) 
oracle

>  <origin>  (75) 
adg

>  <m_score__min__energy>  (75) 
-8.6799999999999997

>  <m_primary>  (75) 
energy

$$$$
75:0
     RDKit          3D

 29 29  0  0  0  0  0  0  0  0999 V2000
   50.1280   32.7450   52.7480 C   0  0  0  0  0  0  0  0  0  0  0  0
   51.0800   33.0650   51.6960 N   0  0  0  0  0  0  0  0  0  0  0  0
   51.3840   32.1650   50.6250 C   0  0  0  0  0  0  0  0  0  0  0  0
   50.8890   32.3500   49.4800 O   0  0  0  0  0  0  0  0  0  0  0  0
   52.2560   31.0530   50.8370 N   0  0  0  0  0  0  0  0  0  0  0  0
   53.0930   30.8990   52.0230 C   0  0  0  0  0  0  0  0  0  0  0  0
   54.5390   30.5930   51.6220 C   0  0  0  0  0  0  0  0  0  0  0  0
   55.2100   29.6680   52.6430 C   0  0  0  0  0  0  0  0  0  0  0  0
   56.6040   29.5390   52.3630 O   0  0  0  0  0  0  0  0  0  0  0  0
   57.4080   30.5200   51.7590 C   0  0  0  0  0  0  0  0  0  0  0  0
   58.1670   30.2770   50.5940 C   0  0  0  0  0  0  0  0  0  0  0  0
   58.9470   31.2950   50.0380 C   0  0  0  0  0  0  0  0  0  0  0  0
   58.9830   32.5590   50.6320 C   0  0  0  0  0  0  0  0  0  0  0  0
   59.9630   33.8330   49.9320 Cl  0  0  0  0  0  0  0  0  0  0  0  0
   58.2370   32.8050   51.7900 C   0  0  0  0  0  0  0  0  0  0  0  0
   57.4550   31.7890   52.3490 C   0  0  0  0  0  0  0  0  0  0  0  0
   50.5990   32.9033   53.7294 H   0  0  0  0  0  0  0  0  0  0  0  0
   49.2463   33.3962   52.6551 H   0  0  0  0  0  0  0  0  0  0  0  0
   49.8186   31.6935   52.6551 H   0  0  0  0  0  0  0  0  0  0  0  0
   53.0686   31.8309   52.6069 H   0  0  0  0  0  0  0  0  0  0  0  0
   52.7063   30.0640   52.6257 H   0  0  0  0  0  0  0  0  0  0  0  0
   54.5429   30.1037   50.6368 H   0  0  0  0  0  0  0  0  0  0  0  0
   55.0994   31.5388   51.5858 H   0  0  0  0  0  0  0  0  0  0  0  0
   55.0810   30.0883   53.6513 H   0  0  0  0  0  0  0  0  0  0  0  0
   54.7424   28.6742   52.5828 H   0  0  0  0  0  0  0  0  0  0  0  0
   58.1446   29.2835   50.1222 H   0  0  0  0  0  0  0  0  0  0  0  0
   59.5349   31.1001   49.1290 H   0  0  0  0  0  0  0  0  0  0  0  0
   58.2656   33.7985   52.2612 H   0  0  0  0  0  0  0  0  0  0  0  0
   56.8718   31.9886   53.2601 H   0  0  0  0  0  0  0  0  0  0  0  0
  1  2  1  0
  2  3  1  0
  3  4  2  0
  3  5  1  0
  5  6  1  0
  6  7  1  0
  7  8  1  0
  8  9  1  0
  9 10  1  0
 10 11  2  0
 11 12  1  0
 12 13  2  0
 13 14  1  0
 13 15  1  0
 15 16  2  0
 16 10  1  0
  1 17  1  0
  1 18  1  0
  1 19  1  0
  6 20  1  0
  6 21  1  0
  7 22  1  0
  7 23  1  0
  8 24  1  0
  8 25  1  0
 11 26  1  0
 12 27  1  0
 15 28  1  0
 16 29  1  0
M  CHG  2   2  -1   5  -1
M  END
>  <UniqueID>  (76) 
70

>  <SMILES>  (76) 
C[N-]C(=O)[N-]CCCOc1ccc(Cl)cc1

>  <Energy>  (76) 
18.152994495953898

>  <Genealogy>  (76) 
C[N-]C(=O)[N-]CCCOc1ccc(Cl)cc1 (protonated)
C[N-]C(=O)[N-]CCCOc1ccc(Cl)cc1 (3D coordinates assigned)
C[N-]C(=O)[N-]CCCOc1ccc(Cl)cc1 (optimized conformer: 18.152994495953898 kcal/mol)

>  <smiles>  (76) 
CNC(=O)NCCCOc1ccc(Cl)cc1

>  <score_type>  (76) 
oracle

>  <origin>  (76) 
adg

>  <m_score__min__energy>  (76) 
-10.539999999999999

>  <m_primary>  (76) 
energy

$$$$
76:0
     RDKit          3D

 35 36  0  0  0  0  0  0  0  0999 V2000
   56.9230   33.8270   45.6160 C   0  0  0  0  0  0  0  0  0  0  0  0
   58.0670   32.9910   46.1240 C   0  0  0  0  0  0  0  0  0  0  0  0
   58.8010   33.4340   47.2350 C   0  0  0  0  0  0  0  0  0  0  0  0
   59.8680   32.6800   47.7220 C   0  0  0  0  0  0  0  0  0  0  0  0
   60.2080   31.4700   47.1160 C   0  0  0  0  0  0  0  0  0  0  0  0
   59.4840   31.0020   46.0100 C   0  0  0  0  0  0  0  0  0  0  0  0
   59.8380   29.6750   45.3980 C   0  0  0  0  0  0  0  0  0  0  0  0
   58.3900   31.7520   45.5260 C   0  0  0  0  0  0  0  0  0  0  0  0
   57.6350   31.2690   44.4060 N   0  0  0  0  0  0  0  0  0  0  0  0
   56.6520   30.2320   44.4900 C   0  0  0  0  0  0  0  0  0  0  0  0
   55.4330   30.5440   44.4950 O   0  0  0  0  0  0  0  0  0  0  0  0
   57.0370   28.7830   44.4830 C   0  0  0  0  0  0  0  0  0  0  0  0
   56.0500   28.0260   45.2480 N   0  0  0  0  0  0  0  0  0  0  0  0
   56.7290   26.5140   45.7620 S   0  0  0  0  0  0  0  0  0  0  0  0
   57.0250   25.6700   44.5540 O   0  0  0  0  0  0  0  0  0  0  0  0
   55.7580   25.7730   46.6400 O   0  0  0  0  0  0  0  0  0  0  0  0
   58.2210   26.8000   46.6400 C   0  0  0  0  0  0  0  0  0  0  0  0
   58.4030   27.7340   47.6490 C   0  0  0  0  0  0  0  0  0  0  0  0
   59.7070   27.7380   48.1570 C   0  0  0  0  0  0  0  0  0  0  0  0
   60.5460   26.8130   47.5470 C   0  0  0  0  0  0  0  0  0  0  0  0
   59.6670   25.9910   46.3710 S   0  0  0  0  0  0  0  0  0  0  0  0
   56.3617   34.2372   46.4685 H   0  0  0  0  0  0  0  0  0  0  0  0
   57.3155   34.6525   45.0041 H   0  0  0  0  0  0  0  0  0  0  0  0
   56.2557   33.2022   45.0041 H   0  0  0  0  0  0  0  0  0  0  0  0
   58.5330   34.3818   47.7246 H   0  0  0  0  0  0  0  0  0  0  0  0
   60.4439   33.0404   48.5872 H   0  0  0  0  0  0  0  0  0  0  0  0
   61.0491   30.8796   47.5083 H   0  0  0  0  0  0  0  0  0  0  0  0
   60.0331   28.9435   46.1961 H   0  0  0  0  0  0  0  0  0  0  0  0
   59.0021   29.3238   44.7751 H   0  0  0  0  0  0  0  0  0  0  0  0
   60.7377   29.7868   44.7751 H   0  0  0  0  0  0  0  0  0  0  0  0
   57.0637   28.4133   43.4473 H   0  0  0  0  0  0  0  0  0  0  0  0
   58.0321   28.6603   44.9354 H   0  0  0  0  0  0  0  0  0  0  0  0
   57.6068   28.4009   48.0115 H   0  0  0  0  0  0  0  0  0  0  0  0
   60.0368   28.4099   48.9631 H   0  0  0  0  0  0  0  0  0  0  0  0
   61.6054   26.6464   47.7916 H   0  0  0  0  0  0  0  0  0  0  0  0
  1  2  1  0
  2  3  2  0
  3  4  1  0
  4  5  2  0
  5  6  1  0
  6  7  1  0
  6  8  2  0
  8  9  1  0
  9 10  1  0
 10 11  2  0
 10 12  1  0
 12 13  1  0
 13 14  1  0
 14 15  2  0
 14 16  2  0
 14 17  1  0
 17 18  2  0
 18 19  1  0
 19 20  2  0
 20 21  1  0
  8  2  1  0
 21 17  1  0
  1 22  1  0
  1 23  1  0
  1 24  1  0
  3 25  1  0
  4 26  1  0
  5 27  1  0
  7 28  1  0
  7 29  1  0
  7 30  1  0
 12 31  1  0
 12 32  1  0
 18 33  1  0
 19 34  1  0
 20 35  1  0
M  CHG  2   9  -1  13  -1
M  END
>  <UniqueID>  (77) 
71

>  <SMILES>  (77) 
Cc1cccc(C)c1[N-]C(=O)C[N-]S(=O)(=O)c1cccs1

>  <Energy>  (77) 
60.846144916678604

>  <Genealogy>  (77) 
Cc1cccc(C)c1[N-]C(=O)C[N-]S(=O)(=O)c1cccs1 (protonated)
Cc1cccc(C)c1[N-]C(=O)C[N-]S(=O)(=O)c1cccs1 (3D coordinates assigned)
Cc1cccc(C)c1[N-]C(=O)C[N-]S(=O)(=O)c1cccs1 (optimized conformer: 60.846144916678604 kcal/mol)

>  <smiles>  (77) 
Cc1cccc(C)c1NC(=O)CNS(=O)(=O)c1cccs1

>  <score_type>  (77) 
oracle

>  <origin>  (77) 
adg

>  <m_score__min__energy>  (77) 
-10.9

>  <m_primary>  (77) 
energy

$$$$
77:0
     RDKit          3D

 49 51  0  0  0  0  0  0  0  0999 V2000
   54.0320   25.9380   45.6680 N   0  0  0  0  0  0  0  0  0  0  0  0
   55.5310   25.1030   45.8670 S   0  0  0  0  0  0  0  0  0  0  0  0
   55.5160   24.3500   47.1670 O   0  0  0  0  0  0  0  0  0  0  0  0
   55.7140   24.1220   44.7440 O   0  0  0  0  0  0  0  0  0  0  0  0
   56.8560   26.2640   45.8670 C   0  0  0  0  0  0  0  0  0  0  0  0
   58.1430   25.8640   46.2470 C   0  0  0  0  0  0  0  0  0  0  0  0
   59.1920   26.7870   46.2600 C   0  0  0  0  0  0  0  0  0  0  0  0
   58.9670   28.1300   45.9030 C   0  0  0  0  0  0  0  0  0  0  0  0
   60.0760   29.1130   45.9070 C   0  0  0  0  0  0  0  0  0  0  0  0
   61.2200   28.7600   45.5090 O   0  0  0  0  0  0  0  0  0  0  0  0
   59.8520   30.4650   46.3400 N   0  0  0  0  0  0  0  0  0  0  0  0
   60.8930   31.3250   46.8340 C   0  0  0  0  0  0  0  0  0  0  0  0
   62.0990   30.9630   46.7770 O   0  0  0  0  0  0  0  0  0  0  0  0
   60.5640   32.6800   47.4130 C   0  0  2  0  0  0  0  0  0  0  0  0
   60.2000   32.5780   48.8330 N   0  0  0  0  0  0  0  0  0  0  0  0
   59.1670   31.6920   49.2920 C   0  0  0  0  0  0  0  0  0  0  0  0
   58.7470   30.7780   48.5300 O   0  0  0  0  0  0  0  0  0  0  0  0
   58.5930   31.8210   50.6520 C   0  0  0  0  0  0  0  0  0  0  0  0
   57.8590   30.7520   51.2000 C   0  0  0  0  0  0  0  0  0  0  0  0
   57.2950   30.8560   52.4750 C   0  0  0  0  0  0  0  0  0  0  0  0
   57.4490   32.0300   53.2150 C   0  0  0  0  0  0  0  0  0  0  0  0
   58.1600   33.1050   52.6780 C   0  0  0  0  0  0  0  0  0  0  0  0
   58.7310   33.0090   51.4050 C   0  0  0  0  0  0  0  0  0  0  0  0
   59.3710   34.0930   50.8990 F   0  0  0  0  0  0  0  0  0  0  0  0
   59.4550   33.3270   46.6080 C   0  0  0  0  0  0  0  0  0  0  0  0
   58.1120   32.9930   46.8610 C   0  0  0  0  0  0  0  0  0  0  0  0
   57.0830   33.6010   46.1350 C   0  0  0  0  0  0  0  0  0  0  0  0
   57.3820   34.5500   45.1540 C   0  0  0  0  0  0  0  0  0  0  0  0
   56.3820   35.1360   44.4510 F   0  0  0  0  0  0  0  0  0  0  0  0
   58.7110   34.8930   44.8970 C   0  0  0  0  0  0  0  0  0  0  0  0
   59.7440   34.2880   45.6200 C   0  0  0  0  0  0  0  0  0  0  0  0
   57.6730   28.5220   45.5170 C   0  0  0  0  0  0  0  0  0  0  0  0
   56.6240   27.5980   45.5070 C   0  0  0  0  0  0  0  0  0  0  0  0
   54.0200   26.7150   46.3670 H   0  0  0  0  0  0  0  0  0  0  0  0
   58.3289   24.8192   46.5364 H   0  0  0  0  0  0  0  0  0  0  0  0
   60.2015   26.4616   46.5515 H   0  0  0  0  0  0  0  0  0  0  0  0
   58.8730   30.8260   46.3290 H   0  0  0  0  0  0  0  0  0  0  0  0
   61.4600   33.3152   47.3522 H   0  0  0  0  0  0  0  0  0  0  0  0
   60.7540   33.1050   49.5450 H   0  0  0  0  0  0  0  0  0  0  0  0
   57.7281   29.8266   50.6198 H   0  0  0  0  0  0  0  0  0  0  0  0
   56.7291   30.0118   52.8958 H   0  0  0  0  0  0  0  0  0  0  0  0
   57.0103   32.1079   54.2207 H   0  0  0  0  0  0  0  0  0  0  0  0
   58.2716   34.0322   53.2592 H   0  0  0  0  0  0  0  0  0  0  0  0
   57.8699   32.2492   47.6344 H   0  0  0  0  0  0  0  0  0  0  0  0
   56.0358   33.3315   46.3367 H   0  0  0  0  0  0  0  0  0  0  0  0
   58.9458   35.6402   44.1247 H   0  0  0  0  0  0  0  0  0  0  0  0
   60.7889   34.5645   45.4156 H   0  0  0  0  0  0  0  0  0  0  0  0
   57.4845   29.5644   45.2204 H   0  0  0  0  0  0  0  0  0  0  0  0
   55.6132   27.9193   45.2155 H   0  0  0  0  0  0  0  0  0  0  0  0
  1  2  1  0
  2  3  2  0
  2  4  2  0
  2  5  1  0
  5  6  2  0
  6  7  1  0
  7  8  2  0
  8  9  1  0
  9 10  2  0
  9 11  1  0
 11 12  1  0
 12 13  2  0
 12 14  1  0
 14 15  1  0
 15 16  1  0
 16 17  2  0
 16 18  1  0
 18 19  2  0
 19 20  1  0
 20 21  2  0
 21 22  1  0
 22 23  2  0
 23 24  1  0
 14 25  1  0
 25 26  2  0
 26 27  1  0
 27 28  2  0
 28 29  1  0
 28 30  1  0
 30 31  2  0
  8 32  1  0
 32 33  2  0
 33  5  1  0
 23 18  1  0
 31 25  1  0
  1 34  1  0
  6 35  1  0
  7 36  1  0
 11 37  1  0
 14 38  1  1
 15 39  1  0
 19 40  1  0
 20 41  1  0
 21 42  1  0
 22 43  1  0
 26 44  1  0
 27 45  1  0
 30 46  1  0
 31 47  1  0
 32 48  1  0
 33 49  1  0
M  CHG  1   1  -1
M  END
>  <UniqueID>  (78) 
72

>  <SMILES>  (78) 
[NH-]S(=O)(=O)c1ccc(C(=O)NC(=O)[C@H](NC(=O)c2ccccc2F)c2ccc(F)cc2)cc1

>  <Energy>  (78) 
56.28621568198336

>  <Genealogy>  (78) 
[NH-]S(=O)(=O)c1ccc(C(=O)NC(=O)C(NC(=O)c2ccccc2F)c2ccc(F)cc2)cc1 (protonated)
[NH-]S(=O)(=O)c1ccc(C(=O)NC(=O)[C@H](NC(=O)c2ccccc2F)c2ccc(F)cc2)cc1 (chirality)
[NH-]S(=O)(=O)c1ccc(C(=O)NC(=O)[C@H](NC(=O)c2ccccc2F)c2ccc(F)cc2)cc1 (3D coordinates assigned)
[NH-]S(=O)(=O)c1ccc(C(=O)NC(=O)[C@H](NC(=O)c2ccccc2F)c2ccc(F)cc2)cc1 (optimized conformer: 56.28621568198336 kcal/mol)

>  <smiles>  (78) 
NS(=O)(=O)c1ccc(C(=O)NC(=O)C(NC(=O)c2ccccc2F)c2ccc(F)cc2)cc1

>  <score_type>  (78) 
oracle

>  <origin>  (78) 
adg

>  <m_score__min__energy>  (78) 
-11.369999999999999

>  <m_primary>  (78) 
energy

$$$$
78:0
     RDKit          3D

 36 38  0  0  0  0  0  0  0  0999 V2000
   56.6850   30.9700   42.9140 O   0  0  0  0  0  0  0  0  0  0  0  0
   57.0870   30.8010   44.0980 C   0  0  0  0  0  0  0  0  0  0  0  0
   56.8950   31.8330   45.0760 N   0  0  0  0  0  0  0  0  0  0  0  0
   57.8800   32.3480   45.9840 C   0  0  0  0  0  0  0  0  0  0  0  0
   58.1970   33.7120   45.9280 C   0  0  0  0  0  0  0  0  0  0  0  0
   59.1370   34.2570   46.8070 C   0  0  0  0  0  0  0  0  0  0  0  0
   59.7580   33.4460   47.7610 C   0  0  0  0  0  0  0  0  0  0  0  0
   61.0390   34.1920   48.9650 Br  0  0  0  0  0  0  0  0  0  0  0  0
   59.4290   32.0900   47.8410 C   0  0  0  0  0  0  0  0  0  0  0  0
   58.4900   31.5410   46.9630 C   0  0  0  0  0  0  0  0  0  0  0  0
   57.7100   29.5150   44.4900 C   0  0  0  0  0  0  0  0  0  0  0  0
   59.1110   29.3780   44.5100 C   0  0  0  0  0  0  0  0  0  0  0  0
   59.6980   28.1660   44.8840 C   0  0  0  0  0  0  0  0  0  0  0  0
   58.8980   27.0810   45.2430 C   0  0  0  0  0  0  0  0  0  0  0  0
   57.5040   27.1990   45.2320 C   0  0  0  0  0  0  0  0  0  0  0  0
   56.5100   25.8260   45.7080 S   0  0  0  0  0  0  0  0  0  0  0  0
   57.1110   25.1120   46.8860 O   0  0  0  0  0  0  0  0  0  0  0  0
   55.1430   26.3220   46.0860 O   0  0  0  0  0  0  0  0  0  0  0  0
   56.3650   24.7150   44.3830 N   0  0  0  0  0  0  0  0  0  0  0  0
   57.0680   23.6290   44.2600 C   0  0  0  0  0  0  0  0  0  0  0  0
   58.1880   23.4030   44.9780 N   0  0  0  0  0  0  0  0  0  0  0  0
   58.7560   22.2040   44.6840 C   0  0  0  0  0  0  0  0  0  0  0  0
   58.0840   21.4600   43.7190 C   0  0  0  0  0  0  0  0  0  0  0  0
   56.7350   22.3420   43.2220 S   0  0  0  0  0  0  0  0  0  0  0  0
   56.9120   28.4130   44.8540 C   0  0  0  0  0  0  0  0  0  0  0  0
   57.7027   34.3579   45.1874 H   0  0  0  0  0  0  0  0  0  0  0  0
   59.3886   35.3262   46.7479 H   0  0  0  0  0  0  0  0  0  0  0  0
   59.9105   31.4527   48.5973 H   0  0  0  0  0  0  0  0  0  0  0  0
   58.2270   30.4755   47.0373 H   0  0  0  0  0  0  0  0  0  0  0  0
   59.7476   30.2301   44.2295 H   0  0  0  0  0  0  0  0  0  0  0  0
   60.7935   28.0674   44.8953 H   0  0  0  0  0  0  0  0  0  0  0  0
   59.3650   26.1291   45.5358 H   0  0  0  0  0  0  0  0  0  0  0  0
   58.5780   24.0690   45.6810 H   0  0  0  0  0  0  0  0  0  0  0  0
   59.6761   21.8490   45.1713 H   0  0  0  0  0  0  0  0  0  0  0  0
   58.3809   20.4690   43.3453 H   0  0  0  0  0  0  0  0  0  0  0  0
   55.8159   28.5052   44.8417 H   0  0  0  0  0  0  0  0  0  0  0  0
  1  2  2  0
  2  3  1  0
  3  4  1  0
  4  5  2  0
  5  6  1  0
  6  7  2  0
  7  8  1  0
  7  9  1  0
  9 10  2  0
  2 11  1  0
 11 12  2  0
 12 13  1  0
 13 14  2  0
 14 15  1  0
 15 16  1  0
 16 17  2  0
 16 18  2  0
 16 19  1  0
 19 20  2  3
 20 21  1  0
 21 22  1  0
 22 23  2  0
 23 24  1  0
 15 25  2  0
 10  4  1  0
 25 11  1  0
 24 20  1  0
  5 26  1  0
  6 27  1  0
  9 28  1  0
 10 29  1  0
 12 30  1  0
 13 31  1  0
 14 32  1  0
 21 33  1  0
 22 34  1  0
 23 35  1  0
 25 36  1  0
M  CHG  1   3  -1
M  END
>  <UniqueID>  (79) 
73

>  <SMILES>  (79) 
O=C([N-]c1ccc(Br)cc1)c1cccc(S(=O)(=O)N=c2[nH]ccs2)c1

>  <Energy>  (79) 
76.02098571055546

>  <Genealogy>  (79) 
O=C([N-]c1ccc(Br)cc1)c1cccc(S(=O)(=O)N=c2[nH]ccs2)c1 (protonated)
O=C([N-]c1ccc(Br)cc1)c1cccc(S(=O)(=O)N=c2[nH]ccs2)c1 (3D coordinates assigned)
O=C([N-]c1ccc(Br)cc1)c1cccc(S(=O)(=O)N=c2[nH]ccs2)c1 (optimized conformer: 76.02098571055546 kcal/mol)

>  <smiles>  (79) 
O=C(Nc1ccc(Br)cc1)c1cccc(S(=O)(=O)N=c2[nH]ccs2)c1

>  <score_type>  (79) 
oracle

>  <origin>  (79) 
adg

>  <m_score__min__energy>  (79) 
-10.76

>  <m_primary>  (79) 
energy

$$$$
79:0
     RDKit          3D

 45 47  0  0  0  0  0  0  0  0999 V2000
   56.3420   21.5260   48.2190 C   0  0  0  0  0  0  0  0  0  0  0  0
   57.1990   22.2470   47.3410 O   0  0  0  0  0  0  0  0  0  0  0  0
   57.0320   22.3230   45.9470 C   0  0  0  0  0  0  0  0  0  0  0  0
   57.8140   21.5510   45.0650 C   0  0  0  0  0  0  0  0  0  0  0  0
   57.6100   21.6290   43.6850 C   0  0  0  0  0  0  0  0  0  0  0  0
   56.6270   22.4730   43.1700 C   0  0  0  0  0  0  0  0  0  0  0  0
   55.8450   23.2450   44.0310 C   0  0  0  0  0  0  0  0  0  0  0  0
   56.0440   23.1850   45.4200 C   0  0  0  0  0  0  0  0  0  0  0  0
   55.1500   23.9990   46.3270 C   0  0  0  0  0  0  0  0  0  0  0  0
   54.5520   25.2140   45.6080 C   0  0  0  0  0  0  0  0  0  0  0  0
   55.2360   26.4420   46.0050 N   0  0  0  0  0  0  0  0  0  0  0  0
   56.6200   26.7040   45.7450 C   0  0  0  0  0  0  0  0  0  0  0  0
   57.4100   25.7440   45.5340 O   0  0  0  0  0  0  0  0  0  0  0  0
   57.1150   28.0990   45.6950 C   0  0  0  0  0  0  0  0  0  0  0  0
   58.1110   28.5370   46.5840 C   0  0  0  0  0  0  0  0  0  0  0  0
   58.5500   29.8640   46.5610 C   0  0  0  0  0  0  0  0  0  0  0  0
   58.0030   30.7820   45.6490 C   0  0  0  0  0  0  0  0  0  0  0  0
   58.4640   32.1940   45.6300 C   0  0  0  0  0  0  0  0  0  0  0  0
   59.5990   32.5860   46.3650 C   0  0  0  0  0  0  0  0  0  0  0  0
   60.0310   33.9160   46.3460 C   0  0  0  0  0  0  0  0  0  0  0  0
   59.3360   34.8680   45.5970 C   0  0  0  0  0  0  0  0  0  0  0  0
   58.2070   34.4910   44.8640 C   0  0  0  0  0  0  0  0  0  0  0  0
   57.7720   33.1630   44.8790 C   0  0  0  0  0  0  0  0  0  0  0  0
   57.0090   30.3430   44.7580 C   0  0  0  0  0  0  0  0  0  0  0  0
   56.5700   29.0160   44.7800 C   0  0  0  0  0  0  0  0  0  0  0  0
   56.6108   21.7522   49.2614 H   0  0  0  0  0  0  0  0  0  0  0  0
   55.2982   21.8215   48.0371 H   0  0  0  0  0  0  0  0  0  0  0  0
   56.4546   20.4470   48.0371 H   0  0  0  0  0  0  0  0  0  0  0  0
   58.5903   20.8825   45.4656 H   0  0  0  0  0  0  0  0  0  0  0  0
   58.2259   21.0236   43.0038 H   0  0  0  0  0  0  0  0  0  0  0  0
   56.4673   22.5307   42.0832 H   0  0  0  0  0  0  0  0  0  0  0  0
   55.0675   23.9049   43.6187 H   0  0  0  0  0  0  0  0  0  0  0  0
   54.3297   23.3589   46.6840 H   0  0  0  0  0  0  0  0  0  0  0  0
   55.7617   24.3676   47.1637 H   0  0  0  0  0  0  0  0  0  0  0  0
   54.6576   25.0778   44.5216 H   0  0  0  0  0  0  0  0  0  0  0  0
   53.4902   25.2980   45.8827 H   0  0  0  0  0  0  0  0  0  0  0  0
   58.5489   27.8299   47.3040 H   0  0  0  0  0  0  0  0  0  0  0  0
   59.3306   30.1923   47.2631 H   0  0  0  0  0  0  0  0  0  0  0  0
   60.1497   31.8412   46.9582 H   0  0  0  0  0  0  0  0  0  0  0  0
   60.9198   34.2128   46.9221 H   0  0  0  0  0  0  0  0  0  0  0  0
   59.6768   35.9138   45.5839 H   0  0  0  0  0  0  0  0  0  0  0  0
   57.6599   35.2412   44.2742 H   0  0  0  0  0  0  0  0  0  0  0  0
   56.8828   32.8729   44.3000 H   0  0  0  0  0  0  0  0  0  0  0  0
   56.5725   31.0498   44.0369 H   0  0  0  0  0  0  0  0  0  0  0  0
   55.7918   28.6869   44.0756 H   0  0  0  0  0  0  0  0  0  0  0  0
  1  2  1  0
  2  3  1  0
  3  4  2  0
  4  5  1  0
  5  6  2  0
  6  7  1  0
  7  8  2  0
  8  9  1  0
  9 10  1  0
 10 11  1  0
 11 12  1  0
 12 13  2  0
 12 14  1  0
 14 15  2  0
 15 16  1  0
 16 17  2  0
 17 18  1  0
 18 19  2  0
 19 20  1  0
 20 21  2  0
 21 22  1  0
 22 23  2  0
 17 24  1  0
 24 25  2  0
  8  3  1  0
 25 14  1  0
 23 18  1  0
  1 26  1  0
  1 27  1  0
  1 28  1  0
  4 29  1  0
  5 30  1  0
  6 31  1  0
  7 32  1  0
  9 33  1  0
  9 34  1  0
 10 35  1  0
 10 36  1  0
 15 37  1  0
 16 38  1  0
 19 39  1  0
 20 40  1  0
 21 41  1  0
 22 42  1  0
 23 43  1  0
 24 44  1  0
 25 45  1  0
M  CHG  1  11  -1
M  END
>  <UniqueID>  (80) 
74

>  <SMILES>  (80) 
COc1ccccc1CC[N-]C(=O)c1ccc(-c2ccccc2)cc1

>  <Energy>  (80) 
47.753563359648034

>  <Genealogy>  (80) 
COc1ccccc1CC[N-]C(=O)c1ccc(-c2ccccc2)cc1 (protonated)
COc1ccccc1CC[N-]C(=O)c1ccc(-c2ccccc2)cc1 (3D coordinates assigned)
COc1ccccc1CC[N-]C(=O)c1ccc(-c2ccccc2)cc1 (optimized conformer: 47.753563359648034 kcal/mol)

>  <smiles>  (80) 
COc1ccccc1CCNC(=O)c1ccc(-c2ccccc2)cc1

>  <score_type>  (80) 
oracle

>  <origin>  (80) 
adg

>  <m_score__min__energy>  (80) 
-10.32

>  <m_primary>  (80) 
energy

$$$$
80:0
     RDKit          3D

 25 26  0  0  0  0  0  0  0  0999 V2000
   57.4400   25.6390   47.3610 O   0  0  0  0  0  0  0  0  0  0  0  0
   56.6130   25.7660   46.4180 C   0  0  0  0  0  0  0  0  0  0  0  0
   56.6820   26.9080   45.5480 N   0  0  0  0  0  0  0  0  0  0  0  0
   57.7960   27.8180   45.5440 C   0  0  0  0  0  0  0  0  0  0  0  0
   59.0810   27.3350   45.8480 C   0  0  0  0  0  0  0  0  0  0  0  0
   60.1950   28.1710   45.7620 C   0  0  0  0  0  0  0  0  0  0  0  0
   60.0420   29.4960   45.3600 C   0  0  0  0  0  0  0  0  0  0  0  0
   58.7740   29.9930   45.0500 C   0  0  0  0  0  0  0  0  0  0  0  0
   57.6360   29.1700   45.1450 C   0  0  0  0  0  0  0  0  0  0  0  0
   56.3030   29.7570   44.8660 C   0  0  0  0  0  0  0  0  0  0  0  0
   56.1860   30.9930   44.6510 O   0  0  0  0  0  0  0  0  0  0  0  0
   55.1570   28.9690   44.8800 O   0  0  0  0  0  0  0  0  0  0  0  0
   55.5670   24.7430   46.2520 C   0  0  0  0  0  0  0  0  0  0  0  0
   55.6290   23.4160   46.6460 C   0  0  0  0  0  0  0  0  0  0  0  0
   54.4200   22.8620   46.2860 C   0  0  0  0  0  0  0  0  0  0  0  0
   53.6990   23.8790   45.7000 C   0  0  0  0  0  0  0  0  0  0  0  0
   51.9350   23.7250   44.9950 Br  0  0  0  0  0  0  0  0  0  0  0  0
   54.4030   24.9860   45.6930 O   0  0  0  0  0  0  0  0  0  0  0  0
   55.8840   27.1110   44.9080 H   0  0  0  0  0  0  0  0  0  0  0  0
   59.2095   26.2871   46.1569 H   0  0  0  0  0  0  0  0  0  0  0  0
   61.1939   27.7838   46.0116 H   0  0  0  0  0  0  0  0  0  0  0  0
   60.9217   30.1523   45.2865 H   0  0  0  0  0  0  0  0  0  0  0  0
   58.6635   31.0390   44.7281 H   0  0  0  0  0  0  0  0  0  0  0  0
   56.4695   22.9097   47.1433 H   0  0  0  0  0  0  0  0  0  0  0  0
   54.0968   21.8213   46.4358 H   0  0  0  0  0  0  0  0  0  0  0  0
  1  2  2  0
  2  3  1  0
  3  4  1  0
  4  5  2  0
  5  6  1  0
  6  7  2  0
  7  8  1  0
  8  9  2  0
  9 10  1  0
 10 11  2  0
 10 12  1  0
  2 13  1  0
 13 14  2  0
 14 15  1  0
 15 16  2  0
 16 17  1  0
 16 18  1  0
  9  4  1  0
 18 13  1  0
  3 19  1  0
  5 20  1  0
  6 21  1  0
  7 22  1  0
  8 23  1  0
 14 24  1  0
 15 25  1  0
M  CHG  1  12  -1
M  END
>  <UniqueID>  (81) 
75

>  <SMILES>  (81) 
O=C(Nc1ccccc1C(=O)[O-])c1ccc(Br)o1

>  <Energy>  (81) 
59.18925189845459

>  <Genealogy>  (81) 
O=C(Nc1ccccc1C(=O)[O-])c1ccc(Br)o1 (protonated)
O=C(Nc1ccccc1C(=O)[O-])c1ccc(Br)o1 (3D coordinates assigned)
O=C(Nc1ccccc1C(=O)[O-])c1ccc(Br)o1 (optimized conformer: 59.18925189845459 kcal/mol)

>  <smiles>  (81) 
O=C(Nc1ccccc1C(=O)O)c1ccc(Br)o1

>  <score_type>  (81) 
oracle

>  <origin>  (81) 
adg

>  <m_score__min__energy>  (81) 
-9.3699999999999992

>  <m_primary>  (81) 
energy

$$$$
81:0
     RDKit          3D

 46 48  0  0  1  0  0  0  0  0999 V2000
   60.6930   30.0930   45.9040 N   0  0  0  0  0  0  0  0  0  0  0  0
   60.4490   30.4340   47.1440 C   0  0  0  0  0  0  0  0  0  0  0  0
   61.1280   31.4420   47.7190 N   0  0  0  0  0  0  0  0  0  0  0  0
   60.8530   31.7680   48.9960 C   0  0  0  0  0  0  0  0  0  0  0  0
   61.5070   32.7270   49.5230 N   0  0  0  0  0  0  0  0  0  0  0  0
   61.4160   34.1110   49.1210 C   0  0  0  0  0  0  0  0  0  0  0  0
   60.0100   34.5620   48.8070 C   0  0  0  0  0  0  0  0  0  0  0  0
   59.4930   33.9140   47.5670 C   0  0  0  0  0  0  0  0  0  0  0  0
   60.0620   34.1060   46.3270 C   0  0  0  0  0  0  0  0  0  0  0  0
   59.4840   33.4430   45.2490 C   0  0  0  0  0  0  0  0  0  0  0  0
   58.3770   32.6190   45.4070 C   0  0  0  0  0  0  0  0  0  0  0  0
   57.6400   31.7810   44.0610 S   0  0  0  0  0  0  0  0  0  0  0  0
   58.5290   30.3280   43.7570 N   0  0  0  0  0  0  0  0  0  0  0  0
   56.2360   31.4110   44.4990 O   0  0  0  0  0  0  0  0  0  0  0  0
   57.5100   32.6430   42.8550 O   0  0  0  0  0  0  0  0  0  0  0  0
   57.8040   32.4270   46.6590 C   0  0  0  0  0  0  0  0  0  0  0  0
   58.3900   33.0910   47.7180 C   0  0  0  0  0  0  0  0  0  0  0  0
   59.9270   31.1300   49.7340 N   0  0  0  0  0  0  0  0  0  0  0  0
   59.2550   30.1220   49.1450 C   0  0  0  0  0  0  0  0  0  0  0  0
   59.4820   29.7310   47.8360 C   0  0  0  0  0  0  0  0  0  0  0  0
   58.7550   28.6390   47.1990 C   0  0  0  0  0  0  0  0  0  0  0  0
   57.7850   28.9550   46.2690 C   0  0  0  0  0  0  0  0  0  0  0  0
   57.0680   27.9340   45.6390 C   0  0  0  0  0  0  0  0  0  0  0  0
   57.3190   26.6030   45.9360 C   0  0  0  0  0  0  0  0  0  0  0  0
   56.5760   25.6310   45.2780 O   0  0  0  0  0  0  0  0  0  0  0  0
   58.2940   26.2780   46.8700 C   0  0  0  0  0  0  0  0  0  0  0  0
   58.9880   27.3100   47.4780 C   0  0  0  0  0  0  0  0  0  0  0  0
   59.9710   29.7400   45.2690 H   0  0  0  0  0  0  0  0  0  0  0  0
   61.8530   31.9500   47.1600 H   0  0  0  0  0  0  0  0  0  0  0  0
   61.8067   34.7359   49.9376 H   0  0  0  0  0  0  0  0  0  0  0  0
   62.0007   34.2153   48.1951 H   0  0  0  0  0  0  0  0  0  0  0  0
   59.3533   34.2978   49.6490 H   0  0  0  0  0  0  0  0  0  0  0  0
   60.0237   35.6504   48.6481 H   0  0  0  0  0  0  0  0  0  0  0  0
   60.9384   34.7575   46.1946 H   0  0  0  0  0  0  0  0  0  0  0  0
   59.9149   33.5748   44.2455 H   0  0  0  0  0  0  0  0  0  0  0  0
   59.5030   30.5030   44.1040 H   0  0  0  0  0  0  0  0  0  0  0  0
   58.4940   30.1690   42.7300 H   0  0  0  0  0  0  0  0  0  0  0  0
   56.9269   31.7780   46.7989 H   0  0  0  0  0  0  0  0  0  0  0  0
   57.9629   32.9608   48.7233 H   0  0  0  0  0  0  0  0  0  0  0  0
   59.7460   31.4060   50.7020 H   0  0  0  0  0  0  0  0  0  0  0  0
   58.4926   29.5860   49.7293 H   0  0  0  0  0  0  0  0  0  0  0  0
   57.5770   30.0071   46.0245 H   0  0  0  0  0  0  0  0  0  0  0  0
   56.2954   28.1893   44.8988 H   0  0  0  0  0  0  0  0  0  0  0  0
   56.2810   25.7130   44.3200 H   0  0  0  0  0  0  0  0  0  0  0  0
   58.5091   25.2286   47.1200 H   0  0  0  0  0  0  0  0  0  0  0  0
   59.7614   27.0573   48.2183 H   0  0  0  0  0  0  0  0  0  0  0  0
  1  2  2  3
  2  3  1  0
  3  4  1  0
  4  5  2  0
  5  6  1  0
  6  7  1  0
  7  8  1  0
  8  9  2  0
  9 10  1  0
 10 11  2  0
 11 12  1  0
 12 13  1  0
 12 14  2  0
 12 15  2  0
 11 16  1  0
 16 17  2  0
  4 18  1  0
 18 19  1  0
 19 20  2  0
 20 21  1  0
 21 22  2  0
 22 23  1  0
 23 24  2  0
 24 25  1  0
 24 26  1  0
 26 27  2  0
 20  2  1  0
 27 21  1  0
 17  8  1  0
  1 28  1  0
  3 29  1  0
  6 30  1  0
  6 31  1  0
  7 32  1  0
  7 33  1  0
  9 34  1  0
 10 35  1  0
 13 36  1  0
 13 37  1  0
 16 38  1  0
 17 39  1  0
 18 40  1  0
 19 41  1  0
 22 42  1  0
 23 43  1  0
 25 44  1  0
 26 45  1  0
 27 46  1  0
M  END
>  <smiles>  (82) 
N=c1[nH]c(=NCCc2ccc(S(N)(=O)=O)cc2)[nH]cc1-c1ccc(O)cc1

>  <score_type>  (82) 
oracle

>  <origin>  (82) 
adg

>  <m_score__min__energy>  (82) 
-9.0999999999999996

>  <m_primary>  (82) 
energy

$$$$
82:0
     RDKit          3D

 58 61  0  0  0  0  0  0  0  0999 V2000
   55.9170   23.9110   44.7850 C   0  0  0  0  0  0  0  0  0  0  0  0
   55.9610   25.1700   45.5970 C   0  0  0  0  0  0  0  0  0  0  0  0
   54.8690   25.7250   45.9010 O   0  0  0  0  0  0  0  0  0  0  0  0
   57.2440   25.7640   46.0600 C   0  0  0  0  0  0  0  0  0  0  0  0
   58.4580   25.0980   45.8100 C   0  0  0  0  0  0  0  0  0  0  0  0
   59.6700   25.6420   46.2400 C   0  0  0  0  0  0  0  0  0  0  0  0
   59.6900   26.8630   46.9140 C   0  0  0  0  0  0  0  0  0  0  0  0
   58.4990   27.5590   47.1560 C   0  0  0  0  0  0  0  0  0  0  0  0
   58.5460   28.8100   47.8630 N   0  0  0  0  0  0  0  0  0  0  0  0
   59.5300   29.1260   48.8610 C   0  0  0  0  0  0  0  0  0  0  0  0
   60.1170   28.2010   49.4850 O   0  0  0  0  0  0  0  0  0  0  0  0
   59.8020   30.5270   49.2330 C   0  0  0  0  0  0  0  0  0  0  0  0
   60.7840   31.5570   48.3330 S   0  0  0  0  0  0  0  0  0  0  0  0
   60.6610   32.8180   49.4340 C   0  0  0  0  0  0  0  0  0  0  0  0
   61.3480   34.1390   49.2930 C   0  0  0  0  0  0  0  0  0  0  0  0
   60.7140   34.9400   48.2940 O   0  0  0  0  0  0  0  0  0  0  0  0
   59.8550   34.4540   47.2940 C   0  0  0  0  0  0  0  0  0  0  0  0
   58.5220   34.0820   47.5530 C   0  0  0  0  0  0  0  0  0  0  0  0
   57.7060   33.6110   46.5190 C   0  0  0  0  0  0  0  0  0  0  0  0
   58.2130   33.4920   45.2140 C   0  0  0  0  0  0  0  0  0  0  0  0
   57.4190   32.9990   44.1250 N   0  0  0  0  0  0  0  0  0  0  0  0
   57.1340   31.3260   43.7550 S   0  0  0  0  0  0  0  0  0  0  0  0
   58.5360   30.3500   44.2590 C   0  0  0  0  0  0  0  0  0  0  0  0
   56.8770   31.1540   42.2840 O   0  0  0  0  0  0  0  0  0  0  0  0
   55.9220   30.8640   44.5150 O   0  0  0  0  0  0  0  0  0  0  0  0
   59.5410   33.8570   44.9600 C   0  0  0  0  0  0  0  0  0  0  0  0
   60.3520   34.3380   45.9910 C   0  0  0  0  0  0  0  0  0  0  0  0
   59.8910   32.4800   50.4910 N   0  0  0  0  0  0  0  0  0  0  0  0
   59.3920   31.2170   50.3870 C   0  0  0  0  0  0  0  0  0  0  0  0
   58.4430   30.7020   51.3960 C   0  0  0  0  0  0  0  0  0  0  0  0
   58.7450   29.5560   52.1520 C   0  0  0  0  0  0  0  0  0  0  0  0
   57.8290   29.0680   53.0880 C   0  0  0  0  0  0  0  0  0  0  0  0
   56.5980   29.7060   53.2630 C   0  0  0  0  0  0  0  0  0  0  0  0
   56.2800   30.8310   52.4980 C   0  0  0  0  0  0  0  0  0  0  0  0
   57.1960   31.3250   51.5630 C   0  0  0  0  0  0  0  0  0  0  0  0
   57.2770   26.9950   46.7460 C   0  0  0  0  0  0  0  0  0  0  0  0
   55.8866   23.0415   45.4581 H   0  0  0  0  0  0  0  0  0  0  0  0
   55.0185   23.9151   44.1505 H   0  0  0  0  0  0  0  0  0  0  0  0
   56.8136   23.8524   44.1505 H   0  0  0  0  0  0  0  0  0  0  0  0
   58.4522   24.1394   45.2705 H   0  0  0  0  0  0  0  0  0  0  0  0
   60.6112   25.1064   46.0468 H   0  0  0  0  0  0  0  0  0  0  0  0
   60.6473   27.2819   47.2577 H   0  0  0  0  0  0  0  0  0  0  0  0
   57.7740   29.4960   47.7040 H   0  0  0  0  0  0  0  0  0  0  0  0
   61.3108   34.6688   50.2563 H   0  0  0  0  0  0  0  0  0  0  0  0
   62.3910   33.9620   48.9915 H   0  0  0  0  0  0  0  0  0  0  0  0
   58.1201   34.1622   48.5738 H   0  0  0  0  0  0  0  0  0  0  0  0
   56.6627   33.3325   46.7285 H   0  0  0  0  0  0  0  0  0  0  0  0
   58.5838   30.3167   45.3575 H   0  0  0  0  0  0  0  0  0  0  0  0
   58.4319   29.3281   43.8654 H   0  0  0  0  0  0  0  0  0  0  0  0
   59.4582   30.8024   43.8654 H   0  0  0  0  0  0  0  0  0  0  0  0
   59.9481   33.7644   43.9423 H   0  0  0  0  0  0  0  0  0  0  0  0
   61.3911   34.6283   45.7764 H   0  0  0  0  0  0  0  0  0  0  0  0
   59.7061   29.0412   52.0063 H   0  0  0  0  0  0  0  0  0  0  0  0
   58.0774   28.1802   53.6880 H   0  0  0  0  0  0  0  0  0  0  0  0
   55.8798   29.3226   54.0027 H   0  0  0  0  0  0  0  0  0  0  0  0
   55.3082   31.3289   52.6310 H   0  0  0  0  0  0  0  0  0  0  0  0
   56.9380   32.2054   50.9561 H   0  0  0  0  0  0  0  0  0  0  0  0
   56.3358   27.5211   46.9634 H   0  0  0  0  0  0  0  0  0  0  0  0
  1  2  1  0
  2  3  2  0
  2  4  1  0
  4  5  2  0
  5  6  1  0
  6  7  2  0
  7  8  1  0
  8  9  1  0
  9 10  1  0
 10 11  2  0
 10 12  1  0
 12 13  1  0
 13 14  1  0
 14 15  1  0
 15 16  1  0
 16 17  1  0
 17 18  2  0
 18 19  1  0
 19 20  2  0
 20 21  1  0
 21 22  1  0
 22 23  1  0
 22 24  2  0
 22 25  2  0
 20 26  1  0
 26 27  2  0
 14 28  2  0
 28 29  1  0
 29 30  1  0
 30 31  2  0
 31 32  1  0
 32 33  2  0
 33 34  1  0
 34 35  2  0
  8 36  2  0
 36  4  1  0
 29 12  2  0
 35 30  1  0
 27 17  1  0
  1 37  1  0
  1 38  1  0
  1 39  1  0
  5 40  1  0
  6 41  1  0
  7 42  1  0
  9 43  1  0
 15 44  1  0
 15 45  1  0
 18 46  1  0
 19 47  1  0
 23 48  1  0
 23 49  1  0
 23 50  1  0
 26 51  1  0
 27 52  1  0
 31 53  1  0
 32 54  1  0
 33 55  1  0
 34 56  1  0
 35 57  1  0
 36 58  1  0
M  CHG  1  21  -1
M  END
>  <UniqueID>  (83) 
76

>  <SMILES>  (83) 
CC(=O)c1cccc(NC(=O)c2sc(COc3ccc([N-]S(C)(=O)=O)cc3)nc2-c2ccccc2)c1

>  <Energy>  (83) 
99.23015719082746

>  <Genealogy>  (83) 
CC(=O)c1cccc(NC(=O)c2sc(COc3ccc([N-]S(C)(=O)=O)cc3)nc2-c2ccccc2)c1 (protonated)
CC(=O)c1cccc(NC(=O)c2sc(COc3ccc([N-]S(C)(=O)=O)cc3)nc2-c2ccccc2)c1 (3D coordinates assigned)
CC(=O)c1cccc(NC(=O)c2sc(COc3ccc([N-]S(C)(=O)=O)cc3)nc2-c2ccccc2)c1 (optimized conformer: 99.23015719082746 kcal/mol)

>  <smiles>  (83) 
CC(=O)c1cccc(NC(=O)c2sc(COc3ccc(NS(C)(=O)=O)cc3)nc2-c2ccccc2)c1

>  <score_type>  (83) 
oracle

>  <origin>  (83) 
adg

>  <m_score__min__energy>  (83) 
-12.140000000000001

>  <m_primary>  (83) 
energy

$$$$
83:0
     RDKit          3D

 32 33  0  0  0  0  0  0  0  0999 V2000
   55.5220   29.7110   42.9410 N   0  0  0  0  0  0  0  0  0  0  0  0
   56.1430   30.0540   44.1820 C   0  0  0  0  0  0  0  0  0  0  0  0
   56.2750   31.2700   44.4860 O   0  0  0  0  0  0  0  0  0  0  0  0
   56.6290   29.0020   45.1020 C   0  0  0  0  0  0  0  0  0  0  0  0
   57.8170   29.1680   45.8310 C   0  0  0  0  0  0  0  0  0  0  0  0
   58.2650   28.1560   46.6900 C   0  0  0  0  0  0  0  0  0  0  0  0
   59.3730   28.3580   47.3520 N   0  0  0  0  0  0  0  0  0  0  0  0
   59.7480   29.4770   48.1720 C   0  0  0  0  0  0  0  0  0  0  0  0
   59.3610   29.5750   49.3680 O   0  0  0  0  0  0  0  0  0  0  0  0
   60.6520   30.5210   47.6080 C   0  0  0  0  0  0  0  0  0  0  0  0
   60.1660   31.8070   47.9800 O   0  0  0  0  0  0  0  0  0  0  0  0
   59.5200   32.6970   47.1070 C   0  0  0  0  0  0  0  0  0  0  0  0
   58.1360   32.6250   46.8510 C   0  0  0  0  0  0  0  0  0  0  0  0
   57.5330   33.5330   45.9760 C   0  0  0  0  0  0  0  0  0  0  0  0
   58.3000   34.5180   45.3500 C   0  0  0  0  0  0  0  0  0  0  0  0
   59.6730   34.5970   45.5960 C   0  0  0  0  0  0  0  0  0  0  0  0
   60.2840   33.6900   46.4710 C   0  0  0  0  0  0  0  0  0  0  0  0
   62.0130   33.8070   46.7590 Cl  0  0  0  0  0  0  0  0  0  0  0  0
   57.4850   26.9890   46.8250 C   0  0  0  0  0  0  0  0  0  0  0  0
   56.3090   26.8590   46.0850 C   0  0  0  0  0  0  0  0  0  0  0  0
   55.9130   27.8540   45.2490 N   0  0  0  0  0  0  0  0  0  0  0  0
   55.1830   30.4630   42.3000 H   0  0  0  0  0  0  0  0  0  0  0  0
   55.3940   28.7160   42.6510 H   0  0  0  0  0  0  0  0  0  0  0  0
   58.3983   30.0961   45.7274 H   0  0  0  0  0  0  0  0  0  0  0  0
   61.6684   30.3821   48.0051 H   0  0  0  0  0  0  0  0  0  0  0  0
   60.6775   30.4368   46.5115 H   0  0  0  0  0  0  0  0  0  0  0  0
   57.5278   31.8510   47.3419 H   0  0  0  0  0  0  0  0  0  0  0  0
   56.4523   33.4716   45.7801 H   0  0  0  0  0  0  0  0  0  0  0  0
   57.8228   35.2321   44.6628 H   0  0  0  0  0  0  0  0  0  0  0  0
   60.2754   35.3732   45.1014 H   0  0  0  0  0  0  0  0  0  0  0  0
   57.8011   26.1872   47.5085 H   0  0  0  0  0  0  0  0  0  0  0  0
   55.7004   25.9475   46.1789 H   0  0  0  0  0  0  0  0  0  0  0  0
  1  2  1  0
  2  3  2  0
  2  4  1  0
  4  5  2  0
  5  6  1  0
  6  7  2  3
  7  8  1  0
  8  9  2  0
  8 10  1  0
 10 11  1  0
 11 12  1  0
 12 13  2  0
 13 14  1  0
 14 15  2  0
 15 16  1  0
 16 17  2  0
 17 18  1  0
  6 19  1  0
 19 20  2  0
 20 21  1  0
 21  4  1  0
 17 12  1  0
  1 22  1  0
  1 23  1  0
  5 24  1  0
 10 25  1  0
 10 26  1  0
 13 27  1  0
 14 28  1  0
 15 29  1  0
 16 30  1  0
 19 31  1  0
 20 32  1  0
M  CHG  1  21  -1
M  END
>  <UniqueID>  (84) 
77

>  <SMILES>  (84) 
NC(=O)c1cc(=NC(=O)COc2ccccc2Cl)cc[n-]1

>  <Energy>  (84) 
38.50286286251583

>  <Genealogy>  (84) 
NC(=O)c1cc(=NC(=O)COc2ccccc2Cl)cc[n-]1 (protonated)
NC(=O)c1cc(=NC(=O)COc2ccccc2Cl)cc[n-]1 (3D coordinates assigned)
NC(=O)c1cc(=NC(=O)COc2ccccc2Cl)cc[n-]1 (optimized conformer: 38.50286286251583 kcal/mol)

>  <smiles>  (84) 
NC(=O)c1cc(=NC(=O)COc2ccccc2Cl)cc[nH]1

>  <score_type>  (84) 
oracle

>  <origin>  (84) 
adg

>  <m_score__min__energy>  (84) 
-8.6500000000000004

>  <m_primary>  (84) 
energy

$$$$
84:0
     RDKit          3D

 20 22  0  0  0  0  0  0  0  0999 V2000
   55.2530   30.1800   43.9270 O   0  0  0  0  0  0  0  0  0  0  0  0
   56.2160   29.6460   44.5370 C   0  0  0  0  0  0  0  0  0  0  0  0
   56.1350   28.4540   45.2480 O   0  0  0  0  0  0  0  0  0  0  0  0
   57.3940   28.2190   45.8960 C   0  0  0  0  0  0  0  0  0  0  0  0
   58.1910   29.4200   45.4730 C   0  0  0  0  0  0  0  0  0  0  0  0
   59.0950   30.0980   46.2220 N   0  0  0  0  0  0  0  0  0  0  0  0
   58.9310   31.3790   45.8260 C   0  0  0  0  0  0  0  0  0  0  0  0
   59.4790   32.5250   46.3980 C   0  0  0  0  0  0  0  0  0  0  0  0
   58.9930   33.7740   45.9610 C   0  0  0  0  0  0  0  0  0  0  0  0
   59.6540   35.2500   46.6360 Cl  0  0  0  0  0  0  0  0  0  0  0  0
   57.9490   33.8420   45.0070 C   0  0  0  0  0  0  0  0  0  0  0  0
   57.3890   32.6650   44.4740 C   0  0  0  0  0  0  0  0  0  0  0  0
   57.9330   31.4520   44.8860 C   0  0  0  0  0  0  0  0  0  0  0  0
   57.5060   30.2060   44.6370 N   0  0  0  0  0  0  0  0  0  0  0  0
   57.2798   28.1798   46.9894 H   0  0  0  0  0  0  0  0  0  0  0  0
   57.8598   27.2597   45.6262 H   0  0  0  0  0  0  0  0  0  0  0  0
   59.6180   29.7540   47.0580 H   0  0  0  0  0  0  0  0  0  0  0  0
   60.2646   32.4575   47.1650 H   0  0  0  0  0  0  0  0  0  0  0  0
   57.5723   34.8222   44.6795 H   0  0  0  0  0  0  0  0  0  0  0  0
   56.5536   32.7029   43.7594 H   0  0  0  0  0  0  0  0  0  0  0  0
  1  2  2  0
  2  3  1  0
  3  4  1  0
  4  5  1  0
  5  6  2  0
  6  7  1  0
  7  8  2  0
  8  9  1  0
  9 10  1  0
  9 11  2  0
 11 12  1  0
 12 13  2  0
 13 14  1  0
 14  2  1  0
 14  5  1  0
 13  7  1  0
  4 15  1  0
  4 16  1  0
  6 17  1  0
  8 18  1  0
 11 19  1  0
 12 20  1  0
M  CHG  1   6   1
M  END
>  <UniqueID>  (85) 
78

>  <SMILES>  (85) 
O=C1OCc2[nH+]c3cc(Cl)ccc3n21

>  <Energy>  (85) 
104.40543380500984

>  <Genealogy>  (85) 
O=C1OCc2[nH+]c3cc(Cl)ccc3n21 (protonated)
O=C1OCc2[nH+]c3cc(Cl)ccc3n21 (3D coordinates assigned)
O=C1OCc2[nH+]c3cc(Cl)ccc3n21 (nonaromatic ring conformer: 104.40543380500984 kcal/mol)

>  <smiles>  (85) 
O=C1OCc2nc3cc(Cl)ccc3n21

>  <score_type>  (85) 
oracle

>  <origin>  (85) 
adg

>  <m_score__min__energy>  (85) 
-4.2699999999999996

>  <m_primary>  (85) 
energy

$$$$
85:0
     RDKit          3D

 53 56  0  0  0  0  0  0  0  0999 V2000
   59.4461   29.0741   48.2949 H   0  0  0  0  0  0  0  0  0  0  0  0
   59.1470   28.9110   47.2490 C   0  0  0  0  0  0  0  0  0  0  0  0
   59.6630   27.8350   46.5410 C   0  0  0  0  0  0  0  0  0  0  0  0
   60.4119   27.1788   47.0086 H   0  0  0  0  0  0  0  0  0  0  0  0
   59.2350   27.5840   45.2400 C   0  0  0  0  0  0  0  0  0  0  0  0
   59.6297   26.7111   44.6994 H   0  0  0  0  0  0  0  0  0  0  0  0
   58.2990   28.4350   44.6010 C   0  0  0  0  0  0  0  0  0  0  0  0
   57.8850   29.6250   45.2810 C   0  0  0  0  0  0  0  0  0  0  0  0
   58.2510   29.7850   46.6380 C   0  0  0  0  0  0  0  0  0  0  0  0
   57.8209   30.6133   47.2203 H   0  0  0  0  0  0  0  0  0  0  0  0
   57.0340   30.5420   44.5970 C   0  0  0  0  0  0  0  0  0  0  0  0
   56.7800   31.7700   44.9780 N   0  0  0  0  0  0  0  0  0  0  0  0
   57.6720   32.8060   45.4110 C   0  0  0  0  0  0  0  0  0  0  0  0
   58.3030   32.7300   46.6630 C   0  0  0  0  0  0  0  0  0  0  0  0
   58.0958   31.8812   47.3313 H   0  0  0  0  0  0  0  0  0  0  0  0
   59.1980   33.7350   47.0640 C   0  0  0  0  0  0  0  0  0  0  0  0
   59.8740   33.6170   48.4260 C   0  0  0  0  0  0  0  0  0  0  0  0
   59.1219   33.9491   49.1568 H   0  0  0  0  0  0  0  0  0  0  0  0
   61.0830   34.5710   48.6290 C   0  0  0  0  0  0  0  0  0  0  0  0
   61.0400   35.3592   47.8630 H   0  0  0  0  0  0  0  0  0  0  0  0
   61.0100   34.9826   49.6465 H   0  0  0  0  0  0  0  0  0  0  0  0
   62.4400   33.8540   48.5190 C   0  0  0  0  0  0  0  0  0  0  0  0
   63.2124   34.5815   48.2289 H   0  0  0  0  0  0  0  0  0  0  0  0
   62.6894   33.4083   49.4932 H   0  0  0  0  0  0  0  0  0  0  0  0
   62.3730   32.7870   47.5070 N   0  0  0  0  0  0  0  0  0  0  0  0
   63.7180   32.2820   47.1960 C   0  0  0  0  0  0  0  0  0  0  0  0
   64.2589   32.0789   48.1320 H   0  0  0  0  0  0  0  0  0  0  0  0
   63.6351   31.3538   46.6116 H   0  0  0  0  0  0  0  0  0  0  0  0
   64.2665   33.0354   46.6116 H   0  0  0  0  0  0  0  0  0  0  0  0
   61.4870   31.6780   47.9310 C   0  0  0  0  0  0  0  0  0  0  0  0
   61.1381   31.1462   47.0335 H   0  0  0  0  0  0  0  0  0  0  0  0
   62.0733   31.0257   48.5949 H   0  0  0  0  0  0  0  0  0  0  0  0
   60.2550   32.1570   48.7280 C   0  0  0  0  0  0  0  0  0  0  0  0
   59.4008   31.5121   48.4741 H   0  0  0  0  0  0  0  0  0  0  0  0
   60.5108   32.0979   49.7962 H   0  0  0  0  0  0  0  0  0  0  0  0
   59.4860   34.7720   46.1580 C   0  0  0  0  0  0  0  0  0  0  0  0
   60.1939   35.5664   46.4368 H   0  0  0  0  0  0  0  0  0  0  0  0
   58.8720   34.7910   44.9050 C   0  0  0  0  0  0  0  0  0  0  0  0
   59.0998   35.6009   44.1964 H   0  0  0  0  0  0  0  0  0  0  0  0
   57.9930   33.8130   44.5550 N   0  0  0  0  0  0  0  0  0  0  0  0
   57.5500   33.8460   43.6100 H   0  0  0  0  0  0  0  0  0  0  0  0
   56.4570   30.1400   43.3960 C   0  0  0  0  0  0  0  0  0  0  0  0
   55.6905   30.7707   42.9220 H   0  0  0  0  0  0  0  0  0  0  0  0
   56.8390   28.9520   42.7910 C   0  0  0  0  0  0  0  0  0  0  0  0
   56.3874   28.6687   41.8288 H   0  0  0  0  0  0  0  0  0  0  0  0
   57.7640   28.1260   43.3640 N   0  0  0  0  0  0  0  0  0  0  0  0
   58.1400   26.9140   42.6060 C   0  0  0  0  0  0  0  0  0  0  0  0
   59.2307   26.9007   42.4636 H   0  0  0  0  0  0  0  0  0  0  0  0
   57.6290   26.9323   41.6321 H   0  0  0  0  0  0  0  0  0  0  0  0
   57.7170   25.6550   43.3600 C   0  0  0  0  0  0  0  0  0  0  0  0
   57.7785   25.8381   44.4429 H   0  0  0  0  0  0  0  0  0  0  0  0
   56.6825   25.3961   43.0901 H   0  0  0  0  0  0  0  0  0  0  0  0
   58.3853   24.8240   43.0901 H   0  0  0  0  0  0  0  0  0  0  0  0
  1  2  1  0
  2  3  2  0
  3  4  1  0
  3  5  1  0
  5  6  1  0
  5  7  2  0
  7  8  1  0
  8  9  2  0
  9 10  1  0
  8 11  1  0
 11 12  2  0
 12 13  1  0
 13 14  2  0
 14 15  1  0
 14 16  1  0
 16 17  1  0
 17 18  1  0
 17 19  1  0
 19 20  1  0
 19 21  1  0
 19 22  1  0
 22 23  1  0
 22 24  1  0
 22 25  1  0
 25 26  1  0
 26 27  1  0
 26 28  1  0
 26 29  1  0
 25 30  1  0
 30 31  1  0
 30 32  1  0
 30 33  1  0
 33 34  1  0
 33 35  1  0
 16 36  2  0
 36 37  1  0
 36 38  1  0
 38 39  1  0
 38 40  2  0
 40 41  1  0
 11 42  1  0
 42 43  1  0
 42 44  2  0
 44 45  1  0
 44 46  1  0
 46 47  1  0
 47 48  1  0
 47 49  1  0
 47 50  1  0
 50 51  1  0
 50 52  1  0
 50 53  1  0
  9  2  1  0
 40 13  1  0
 46  7  1  0
 33 17  1  0
M  CHG  1  40   1
M  END
>  <UniqueID>  (86) 
79

>  <SMILES>  (86) 
CCn1cc/c(=N/c2cc(C3CCN(C)CC3)cc[nH+]2)c2ccccc21

>  <Energy>  (86) 
90.69305488337505

>  <Genealogy>  (86) 
CCn1ccc(=Nc2cc(C3CCN(C)CC3)cc[nH+]2)c2ccccc21 (protonated)
CCn1cc/c(=N/c2cc(C3CCN(C)CC3)cc[nH+]2)c2ccccc21 (cis-trans isomerization)
CCn1cc/c(=N/c2cc(C3CCN(C)CC3)cc[nH+]2)c2ccccc21 (3D coordinates assigned)
CCn1cc/c(=N/c2cc(C3CCN(C)CC3)cc[nH+]2)c2ccccc21 (nonaromatic ring conformer: 90.69305488337505 kcal/mol)

>  <smiles>  (86) 
CCn1ccc(=Nc2cc(C3CCN(C)CC3)ccn2)c2ccccc21

>  <score_type>  (86) 
oracle

>  <origin>  (86) 
adg

>  <m_score__min__energy>  (86) 
-7.2800000000000002

>  <m_primary>  (86) 
energy

$$$$
86:0
     RDKit          3D

 38 40  0  0  0  0  0  0  0  0999 V2000
   54.2170   24.9930   45.6110 C   0  0  0  0  0  0  0  0  0  0  0  0
   55.0920   26.0930   45.9940 N   0  0  0  0  0  0  0  0  0  0  0  0
   56.4840   26.1630   45.6600 C   0  0  0  0  0  0  0  0  0  0  0  0
   56.9420   25.3860   44.7820 O   0  0  0  0  0  0  0  0  0  0  0  0
   57.3840   27.1460   46.2900 C   0  0  0  0  0  0  0  0  0  0  0  0
   58.2230   26.7050   47.3230 C   0  0  0  0  0  0  0  0  0  0  0  0
   59.1400   27.5730   47.9160 C   0  0  0  0  0  0  0  0  0  0  0  0
   59.2250   28.9050   47.4860 C   0  0  0  0  0  0  0  0  0  0  0  0
   60.1290   29.8180   48.0440 C   0  0  0  0  0  0  0  0  0  0  0  0
   60.9270   29.4620   48.9540 O   0  0  0  0  0  0  0  0  0  0  0  0
   60.1500   31.1010   47.5970 N   0  0  0  0  0  0  0  0  0  0  0  0
   59.2940   31.5110   46.6160 C   0  0  0  0  0  0  0  0  0  0  0  0
   59.3000   32.8730   46.1390 N   0  0  0  0  0  0  0  0  0  0  0  0
   58.5830   33.1960   44.8990 C   0  0  0  0  0  0  0  0  0  0  0  0
   58.1660   34.6680   44.8920 C   0  0  0  0  0  0  0  0  0  0  0  0
   59.2690   35.5040   45.1830 O   0  0  0  0  0  0  0  0  0  0  0  0
   59.6940   35.2770   46.5120 C   0  0  0  0  0  0  0  0  0  0  0  0
   60.2480   33.8580   46.6740 C   0  0  0  0  0  0  0  0  0  0  0  0
   58.4420   30.6390   46.0810 O   0  0  0  0  0  0  0  0  0  0  0  0
   58.3740   29.3700   46.4630 C   0  0  0  0  0  0  0  0  0  0  0  0
   57.4410   28.4960   45.8620 C   0  0  0  0  0  0  0  0  0  0  0  0
   56.5390   28.9890   44.8520 N   0  0  0  0  0  0  0  0  0  0  0  0
   55.3870   29.3630   45.1580 O   0  0  0  0  0  0  0  0  0  0  0  0
   56.9100   29.0020   43.5270 O   0  0  0  0  0  0  0  0  0  0  0  0
   53.8270   24.5028   46.5152 H   0  0  0  0  0  0  0  0  0  0  0  0
   53.3787   25.3819   45.0143 H   0  0  0  0  0  0  0  0  0  0  0  0
   54.7845   24.2637   45.0143 H   0  0  0  0  0  0  0  0  0  0  0  0
   58.1575   25.6631   47.6697 H   0  0  0  0  0  0  0  0  0  0  0  0
   59.7968   27.2124   48.7214 H   0  0  0  0  0  0  0  0  0  0  0  0
   60.8500   31.7590   48.0060 H   0  0  0  0  0  0  0  0  0  0  0  0
   59.2406   33.0015   44.0389 H   0  0  0  0  0  0  0  0  0  0  0  0
   57.6812   32.5694   44.8347 H   0  0  0  0  0  0  0  0  0  0  0  0
   57.7702   34.9259   43.8986 H   0  0  0  0  0  0  0  0  0  0  0  0
   57.3957   34.8198   45.6624 H   0  0  0  0  0  0  0  0  0  0  0  0
   60.4808   36.0021   46.7673 H   0  0  0  0  0  0  0  0  0  0  0  0
   58.8300   35.3956   47.1824 H   0  0  0  0  0  0  0  0  0  0  0  0
   61.2005   33.7767   46.1298 H   0  0  0  0  0  0  0  0  0  0  0  0
   60.4049   33.6568   47.7440 H   0  0  0  0  0  0  0  0  0  0  0  0
  1  2  1  0
  2  3  1  0
  3  4  2  0
  3  5  1  0
  5  6  2  0
  6  7  1  0
  7  8  2  0
  8  9  1  0
  9 10  2  0
  9 11  1  0
 11 12  2  0
 12 13  1  0
 13 14  1  0
 14 15  1  0
 15 16  1  0
 16 17  1  0
 17 18  1  0
 12 19  1  0
 19 20  1  0
 20 21  2  0
 21 22  1  0
 22 23  2  0
 22 24  1  0
 21  5  1  0
 20  8  1  0
 18 13  1  0
  1 25  1  0
  1 26  1  0
  1 27  1  0
  6 28  1  0
  7 29  1  0
 11 30  1  0
 14 31  1  0
 14 32  1  0
 15 33  1  0
 15 34  1  0
 17 35  1  0
 17 36  1  0
 18 37  1  0
 18 38  1  0
M  CHG  4   2  -1  11   1  22   1  24  -1
M  END
>  <UniqueID>  (87) 
80

>  <SMILES>  (87) 
C[N-]C(=O)c1ccc2c(=O)[nH+]c(N3CCOCC3)oc2c1[N+](=O)[O-]

>  <Energy>  (87) 
57.081400395058935

>  <Genealogy>  (87) 
C[N-]C(=O)c1ccc2c(=O)[nH+]c(N3CCOCC3)oc2c1[N+](=O)[O-] (protonated)
C[N-]C(=O)c1ccc2c(=O)[nH+]c(N3CCOCC3)oc2c1[N+](=O)[O-] (3D coordinates assigned)
C[N-]C(=O)c1ccc2c(=O)[nH+]c(N3CCOCC3)oc2c1[N+](=O)[O-] (nonaromatic ring conformer: 57.081400395058935 kcal/mol)

>  <smiles>  (87) 
CNC(=O)c1ccc2c(=O)nc(N3CCOCC3)oc2c1[N+](=O)[O-]

>  <score_type>  (87) 
oracle

>  <origin>  (87) 
adg

>  <m_score__min__energy>  (87) 
-7.9100000000000001

>  <m_primary>  (87) 
energy

$$$$
87:0
     RDKit          3D

 50 54  0  0  0  0  0  0  0  0999 V2000
   54.9420   26.0220   45.9420 O   0  0  0  0  0  0  0  0  0  0  0  0
   55.9780   25.1860   45.5250 C   0  0  0  0  0  0  0  0  0  0  0  0
   55.8310   24.4140   44.3630 C   0  0  0  0  0  0  0  0  0  0  0  0
   56.8670   23.5790   43.9360 C   0  0  0  0  0  0  0  0  0  0  0  0
   58.0560   23.5120   44.6640 C   0  0  0  0  0  0  0  0  0  0  0  0
   58.2130   24.2780   45.8210 C   0  0  0  0  0  0  0  0  0  0  0  0
   57.1750   25.1150   46.2680 C   0  0  0  0  0  0  0  0  0  0  0  0
   57.3730   25.9610   47.5000 C   0  0  0  0  0  0  0  0  0  0  0  0
   58.3090   27.0600   47.2250 N   0  0  0  0  0  0  0  0  0  0  0  0
   58.2870   27.6730   46.0040 C   0  0  0  0  0  0  0  0  0  0  0  0
   59.1600   28.7260   45.7200 C   0  0  0  0  0  0  0  0  0  0  0  0
   60.0800   29.1420   46.6870 C   0  0  0  0  0  0  0  0  0  0  0  0
   60.9830   30.2740   46.3940 C   0  0  0  0  0  0  0  0  0  0  0  0
   60.7670   31.5650   46.7510 C   0  0  0  0  0  0  0  0  0  0  0  0
   59.4740   32.2250   46.4070 C   0  0  0  0  0  0  0  0  0  0  0  0
   58.7340   31.9030   45.2500 C   0  0  0  0  0  0  0  0  0  0  0  0
   57.4960   32.5060   45.0100 C   0  0  0  0  0  0  0  0  0  0  0  0
   56.9820   33.4350   45.9170 C   0  0  0  0  0  0  0  0  0  0  0  0
   57.7120   33.7810   47.0560 C   0  0  0  0  0  0  0  0  0  0  0  0
   58.9630   33.1950   47.2970 C   0  0  0  0  0  0  0  0  0  0  0  0
   59.7440   33.6150   48.4260 N   0  0  0  0  0  0  0  0  0  0  0  0
   61.1440   33.3080   48.4950 C   0  0  0  0  0  0  0  0  0  0  0  0
   61.9760   34.0220   49.3690 C   0  0  0  0  0  0  0  0  0  0  0  0
   63.3580   33.8170   49.3500 C   0  0  0  0  0  0  0  0  0  0  0  0
   63.9180   32.9200   48.4400 C   0  0  0  0  0  0  0  0  0  0  0  0
   63.0950   32.1940   47.5720 C   0  0  0  0  0  0  0  0  0  0  0  0
   61.6940   32.3390   47.6300 C   0  0  0  0  0  0  0  0  0  0  0  0
   60.0650   28.5300   47.9470 C   0  0  0  0  0  0  0  0  0  0  0  0
   59.1780   27.4800   48.1940 C   0  0  0  0  0  0  0  0  0  0  0  0
   54.1040   25.6510   46.3770 H   0  0  0  0  0  0  0  0  0  0  0  0
   54.8963   24.4661   43.7855 H   0  0  0  0  0  0  0  0  0  0  0  0
   56.7453   22.9740   43.0254 H   0  0  0  0  0  0  0  0  0  0  0  0
   58.8707   22.8548   44.3258 H   0  0  0  0  0  0  0  0  0  0  0  0
   59.1550   24.2264   46.3866 H   0  0  0  0  0  0  0  0  0  0  0  0
   56.4045   26.3797   47.8110 H   0  0  0  0  0  0  0  0  0  0  0  0
   57.7889   25.3316   48.3006 H   0  0  0  0  0  0  0  0  0  0  0  0
   57.5749   27.3340   45.2372 H   0  0  0  0  0  0  0  0  0  0  0  0
   59.1237   29.2253   44.7405 H   0  0  0  0  0  0  0  0  0  0  0  0
   61.9072   30.0517   45.8404 H   0  0  0  0  0  0  0  0  0  0  0  0
   59.1340   31.1723   44.5316 H   0  0  0  0  0  0  0  0  0  0  0  0
   56.9258   32.2483   44.1053 H   0  0  0  0  0  0  0  0  0  0  0  0
   55.9999   33.8953   45.7338 H   0  0  0  0  0  0  0  0  0  0  0  0
   57.3045   34.5154   47.7663 H   0  0  0  0  0  0  0  0  0  0  0  0
   59.3300   34.2790   49.1200 H   0  0  0  0  0  0  0  0  0  0  0  0
   61.5391   34.7462   50.0723 H   0  0  0  0  0  0  0  0  0  0  0  0
   64.0046   34.3630   50.0527 H   0  0  0  0  0  0  0  0  0  0  0  0
   65.0089   32.7832   48.4048 H   0  0  0  0  0  0  0  0  0  0  0  0
   63.5438   31.5062   46.8402 H   0  0  0  0  0  0  0  0  0  0  0  0
   60.7480   28.8746   48.7374 H   0  0  0  0  0  0  0  0  0  0  0  0
   59.1783   26.9862   49.1769 H   0  0  0  0  0  0  0  0  0  0  0  0
  1  2  1  0
  2  3  2  0
  3  4  1  0
  4  5  2  0
  5  6  1  0
  6  7  2  0
  7  8  1  0
  8  9  1  0
  9 10  2  0
 10 11  1  0
 11 12  2  0
 12 13  1  0
 13 14  2  3
 14 15  1  0
 15 16  2  0
 16 17  1  0
 17 18  2  0
 18 19  1  0
 19 20  2  0
 20 21  1  0
 21 22  1  0
 22 23  2  0
 23 24  1  0
 24 25  2  0
 25 26  1  0
 26 27  2  0
 12 28  1  0
 28 29  2  0
  7  2  1  0
 29  9  1  0
 27 14  1  0
 20 15  1  0
 27 22  1  0
  1 30  1  0
  3 31  1  0
  4 32  1  0
  5 33  1  0
  6 34  1  0
  8 35  1  0
  8 36  1  0
 10 37  1  0
 11 38  1  0
 13 39  1  0
 16 40  1  0
 17 41  1  0
 18 42  1  0
 19 43  1  0
 21 44  1  0
 23 45  1  0
 24 46  1  0
 25 47  1  0
 26 48  1  0
 28 49  1  0
 29 50  1  0
M  CHG  1   9   1
M  END
>  <UniqueID>  (88) 
81

>  <SMILES>  (88) 
Oc1ccccc1C[n+]1ccc(C=C2c3ccccc3Nc3ccccc32)cc1

>  <Energy>  (88) 
76.35958780757957

>  <Genealogy>  (88) 
Oc1ccccc1C[n+]1ccc(C=C2c3ccccc3Nc3ccccc32)cc1 (protonated)
Oc1ccccc1C[n+]1ccc(C=C2c3ccccc3Nc3ccccc32)cc1 (3D coordinates assigned)
Oc1ccccc1C[n+]1ccc(C=C2c3ccccc3Nc3ccccc32)cc1 (nonaromatic ring conformer: 76.35958780757957 kcal/mol)

>  <smiles>  (88) 
Oc1ccccc1C[n+]1ccc(C=C2c3ccccc3[N-]c3ccccc32)cc1

>  <score_type>  (88) 
oracle

>  <origin>  (88) 
adg

>  <m_score__min__energy>  (88) 
-9.0299999999999994

>  <m_primary>  (88) 
energy

$$$$
88:0
     RDKit          3D

 52 55  0  0  0  0  0  0  0  0999 V2000
   58.8030   30.9940   49.6180 C   0  0  0  0  0  0  0  0  0  0  0  0
   59.8630   30.0550   49.2500 N   0  0  0  0  0  0  0  0  0  0  0  0
   60.9050   29.7710   50.2370 C   0  0  0  0  0  0  0  0  0  0  0  0
   59.6850   29.1820   48.1180 C   0  0  0  0  0  0  0  0  0  0  0  0
   58.8090   28.0870   48.2110 C   0  0  0  0  0  0  0  0  0  0  0  0
   58.5710   27.2590   47.1080 C   0  0  0  0  0  0  0  0  0  0  0  0
   57.6640   26.1580   47.2630 N   0  0  0  0  0  0  0  0  0  0  0  0
   56.3750   25.7460   46.1770 S   0  0  0  0  0  0  0  0  0  0  0  0
   57.0370   25.2180   44.6120 C   0  0  0  0  0  0  0  0  0  0  0  0
   55.5230   26.9640   45.9550 O   0  0  0  0  0  0  0  0  0  0  0  0
   55.5220   24.6650   46.7790 O   0  0  0  0  0  0  0  0  0  0  0  0
   59.2150   27.5360   45.8910 C   0  0  0  0  0  0  0  0  0  0  0  0
   60.0930   28.6160   45.7880 C   0  0  0  0  0  0  0  0  0  0  0  0
   60.3630   29.4200   46.9000 C   0  0  0  0  0  0  0  0  0  0  0  0
   61.2770   30.5170   46.7520 N   0  0  0  0  0  0  0  0  0  0  0  0
   61.1530   31.7750   47.1010 C   0  0  0  0  0  0  0  0  0  0  0  0
   62.0390   32.4490   47.9990 C   0  0  0  0  0  0  0  0  0  0  0  0
   63.3460   31.9930   48.2970 C   0  0  0  0  0  0  0  0  0  0  0  0
   64.1440   32.6620   49.2270 C   0  0  0  0  0  0  0  0  0  0  0  0
   63.6820   33.8210   49.8440 C   0  0  0  0  0  0  0  0  0  0  0  0
   62.4410   34.3480   49.4920 C   0  0  0  0  0  0  0  0  0  0  0  0
   61.6330   33.6950   48.5470 C   0  0  0  0  0  0  0  0  0  0  0  0
   60.4800   34.2870   48.1300 N   0  0  0  0  0  0  0  0  0  0  0  0
   59.7050   33.7440   47.1530 C   0  0  0  0  0  0  0  0  0  0  0  0
   58.5650   34.4310   46.7010 C   0  0  0  0  0  0  0  0  0  0  0  0
   57.7440   33.8780   45.7130 C   0  0  0  0  0  0  0  0  0  0  0  0
   56.5900   34.5880   45.2550 N   0  0  0  0  0  0  0  0  0  0  0  0
   58.0580   32.6250   45.1760 C   0  0  0  0  0  0  0  0  0  0  0  0
   59.1830   31.9290   45.6210 C   0  0  0  0  0  0  0  0  0  0  0  0
   60.0300   32.4800   46.6080 C   0  0  0  0  0  0  0  0  0  0  0  0
   58.7326   31.0564   50.7140 H   0  0  0  0  0  0  0  0  0  0  0  0
   59.0353   31.9881   49.2083 H   0  0  0  0  0  0  0  0  0  0  0  0
   57.8442   30.6435   49.2083 H   0  0  0  0  0  0  0  0  0  0  0  0
   60.4911   29.8838   51.2499 H   0  0  0  0  0  0  0  0  0  0  0  0
   61.2675   28.7413   50.1016 H   0  0  0  0  0  0  0  0  0  0  0  0
   61.7398   30.4744   50.1016 H   0  0  0  0  0  0  0  0  0  0  0  0
   58.3028   27.8776   49.1649 H   0  0  0  0  0  0  0  0  0  0  0  0
   57.8865   24.5404   44.7830 H   0  0  0  0  0  0  0  0  0  0  0  0
   56.2568   24.6914   44.0427 H   0  0  0  0  0  0  0  0  0  0  0  0
   57.3769   26.0957   44.0427 H   0  0  0  0  0  0  0  0  0  0  0  0
   59.0264   26.8985   45.0146 H   0  0  0  0  0  0  0  0  0  0  0  0
   60.5763   28.8365   44.8248 H   0  0  0  0  0  0  0  0  0  0  0  0
   63.7379   31.0996   47.7889 H   0  0  0  0  0  0  0  0  0  0  0  0
   65.1424   32.2714   49.4732 H   0  0  0  0  0  0  0  0  0  0  0  0
   64.2956   34.3202   50.6084 H   0  0  0  0  0  0  0  0  0  0  0  0
   62.0919   35.2816   49.9574 H   0  0  0  0  0  0  0  0  0  0  0  0
   60.2050   35.2100   48.5410 H   0  0  0  0  0  0  0  0  0  0  0  0
   58.3161   35.4134   47.1287 H   0  0  0  0  0  0  0  0  0  0  0  0
   55.9000   34.9810   45.9330 H   0  0  0  0  0  0  0  0  0  0  0  0
   56.4200   34.7330   44.2350 H   0  0  0  0  0  0  0  0  0  0  0  0
   57.4149   32.1860   44.3990 H   0  0  0  0  0  0  0  0  0  0  0  0
   59.4127   30.9398   45.1981 H   0  0  0  0  0  0  0  0  0  0  0  0
  1  2  1  0
  2  3  1  0
  2  4  1  0
  4  5  2  0
  5  6  1  0
  6  7  1  0
  7  8  1  0
  8  9  1  0
  8 10  2  0
  8 11  2  0
  6 12  2  0
 12 13  1  0
 13 14  2  0
 14 15  1  0
 15 16  2  3
 16 17  1  0
 17 18  2  0
 18 19  1  0
 19 20  2  0
 20 21  1  0
 21 22  2  0
 22 23  1  0
 23 24  1  0
 24 25  2  0
 25 26  1  0
 26 27  1  0
 26 28  2  0
 28 29  1  0
 29 30  2  0
 14  4  1  0
 30 16  1  0
 22 17  1  0
 30 24  1  0
  1 31  1  0
  1 32  1  0
  1 33  1  0
  3 34  1  0
  3 35  1  0
  3 36  1  0
  5 37  1  0
  9 38  1  0
  9 39  1  0
  9 40  1  0
 12 41  1  0
 13 42  1  0
 18 43  1  0
 19 44  1  0
 20 45  1  0
 21 46  1  0
 23 47  1  0
 25 48  1  0
 27 49  1  0
 27 50  1  0
 28 51  1  0
 29 52  1  0
M  CHG  1   7  -1
M  END
>  <UniqueID>  (89) 
82

>  <SMILES>  (89) 
CN(C)c1cc([N-]S(C)(=O)=O)ccc1N=c1c2ccccc2[nH]c2cc(N)ccc12

>  <Energy>  (89) 
84.82218826399262

>  <Genealogy>  (89) 
CN(C)c1cc([N-]S(C)(=O)=O)ccc1N=c1c2ccccc2[nH]c2cc(N)ccc12 (protonated)
CN(C)c1cc([N-]S(C)(=O)=O)ccc1N=c1c2ccccc2[nH]c2cc(N)ccc12 (3D coordinates assigned)
CN(C)c1cc([N-]S(C)(=O)=O)ccc1N=c1c2ccccc2[nH]c2cc(N)ccc12 (optimized conformer: 84.82218826399262 kcal/mol)

>  <smiles>  (89) 
CN(C)c1cc(NS(C)(=O)=O)ccc1N=c1c2ccccc2[nH]c2cc(N)ccc12

>  <score_type>  (89) 
oracle

>  <origin>  (89) 
adg

>  <m_score__min__energy>  (89) 
-10.550000000000001

>  <m_primary>  (89) 
energy

$$$$
89:0
     RDKit          3D

 32 33  0  0  0  0  0  0  0  0999 V2000
   59.1156   36.1460   46.7255 H   0  0  0  0  0  0  0  0  0  0  0  0
   59.2840   35.0590   46.7200 C   0  0  0  0  0  0  0  0  0  0  0  0
   59.1160   34.4130   47.8260 N   0  0  0  0  0  0  0  0  0  0  0  0
   60.1210   34.2520   48.8530 C   0  0  0  0  0  0  0  0  0  0  0  0
   60.5021   35.2394   49.1528 H   0  0  0  0  0  0  0  0  0  0  0  0
   59.6789   33.7522   49.7275 H   0  0  0  0  0  0  0  0  0  0  0  0
   61.2490   33.4210   48.3140 C   0  0  0  0  0  0  0  0  0  0  0  0
   62.4090   34.0380   47.8180 C   0  0  0  0  0  0  0  0  0  0  0  0
   62.5032   35.1335   47.8488 H   0  0  0  0  0  0  0  0  0  0  0  0
   63.4450   33.2640   47.2850 C   0  0  0  0  0  0  0  0  0  0  0  0
   64.3551   33.7510   46.9048 H   0  0  0  0  0  0  0  0  0  0  0  0
   63.3250   31.8720   47.2350 C   0  0  0  0  0  0  0  0  0  0  0  0
   64.1426   31.2644   46.8199 H   0  0  0  0  0  0  0  0  0  0  0  0
   62.1670   31.2520   47.7120 C   0  0  0  0  0  0  0  0  0  0  0  0
   62.0716   30.1570   47.6676 H   0  0  0  0  0  0  0  0  0  0  0  0
   61.1290   32.0230   48.2460 C   0  0  0  0  0  0  0  0  0  0  0  0
   60.2156   31.5328   48.6140 H   0  0  0  0  0  0  0  0  0  0  0  0
   59.6980   34.4110   45.4190 C   0  0  0  0  0  0  0  0  0  0  0  0
   60.7461   34.0868   45.4991 H   0  0  0  0  0  0  0  0  0  0  0  0
   59.5762   35.1490   44.6125 H   0  0  0  0  0  0  0  0  0  0  0  0
   58.8390   33.2150   45.0980 C   0  0  0  0  0  0  0  0  0  0  0  0
   58.1990   33.1170   43.8530 C   0  0  0  0  0  0  0  0  0  0  0  0
   58.3305   33.9143   43.1067 H   0  0  0  0  0  0  0  0  0  0  0  0
   57.3950   32.0120   43.5550 C   0  0  0  0  0  0  0  0  0  0  0  0
   56.9015   31.9412   42.5745 H   0  0  0  0  0  0  0  0  0  0  0  0
   57.2160   30.9920   44.5050 C   0  0  0  0  0  0  0  0  0  0  0  0
   56.4010   29.8510   44.2250 N   0  0  0  0  0  0  0  0  0  0  0  0
   55.4050   29.5640   44.9220 O   0  0  0  0  0  0  0  0  0  0  0  0
   57.8460   31.0940   45.7510 C   0  0  0  0  0  0  0  0  0  0  0  0
   57.7085   30.2998   46.4996 H   0  0  0  0  0  0  0  0  0  0  0  0
   58.6490   32.1990   46.0500 C   0  0  0  0  0  0  0  0  0  0  0  0
   59.1340   32.2733   47.0345 H   0  0  0  0  0  0  0  0  0  0  0  0
  1  2  1  0
  2  3  2  0
  3  4  1  0
  4  5  1  0
  4  6  1  0
  4  7  1  0
  7  8  2  0
  8  9  1  0
  8 10  1  0
 10 11  1  0
 10 12  2  0
 12 13  1  0
 12 14  1  0
 14 15  1  0
 14 16  2  0
 16 17  1  0
  2 18  1  0
 18 19  1  0
 18 20  1  0
 18 21  1  0
 21 22  2  0
 22 23  1  0
 22 24  1  0
 24 25  1  0
 24 26  2  0
 26 27  1  0
 27 28  2  0
 26 29  1  0
 29 30  1  0
 29 31  2  0
 31 32  1  0
 16  7  1  0
 31 21  1  0
M  END
>  <UniqueID>  (90) 
83

>  <SMILES>  (90) 
O=Nc1ccc(C/C=N\Cc2ccccc2)cc1

>  <Energy>  (90) 
30.96890224349808

>  <Genealogy>  (90) 
O=Nc1ccc(C/C=N\Cc2ccccc2)cc1 (cis-trans isomerization)
O=Nc1ccc(C/C=N\Cc2ccccc2)cc1 (3D coordinates assigned)
O=Nc1ccc(C/C=N\Cc2ccccc2)cc1 (optimized conformer: 30.96890224349808 kcal/mol)

>  <smiles>  (90) 
O=Nc1ccc(CC=NCc2ccccc2)cc1

>  <score_type>  (90) 
oracle

>  <origin>  (90) 
adg

>  <m_score__min__energy>  (90) 
-6.9400000000000004

>  <m_primary>  (90) 
energy

$$$$
90:0
     RDKit          3D

 47 48  0  0  1  0  0  0  0  0999 V2000
   57.5520   32.6820   40.7480 C   0  0  0  0  0  0  0  0  0  0  0  0
   57.0460   31.6230   41.5380 O   0  0  0  0  0  0  0  0  0  0  0  0
   57.3960   31.5920   42.8760 C   0  0  0  0  0  0  0  0  0  0  0  0
   58.0880   32.6920   43.3600 C   0  0  0  0  0  0  0  0  0  0  0  0
   58.4740   32.7420   44.6830 C   0  0  0  0  0  0  0  0  0  0  0  0
   59.1100   33.7330   45.2020 N   0  0  0  0  0  0  0  0  0  0  0  0
   59.1770   33.9070   46.9160 S   0  0  0  0  0  0  0  0  0  0  0  0
   58.2230   33.0100   47.6350 O   0  0  0  0  0  0  0  0  0  0  0  0
   58.8400   35.3400   47.2280 O   0  0  0  0  0  0  0  0  0  0  0  0
   60.8270   33.5540   47.4410 C   0  0  0  0  0  0  0  0  0  0  0  0
   61.5750   32.5530   46.8310 C   0  0  0  0  0  0  0  0  0  0  0  0
   62.8520   32.3160   47.3020 C   0  0  0  0  0  0  0  0  0  0  0  0
   63.3770   33.0630   48.3620 C   0  0  0  0  0  0  0  0  0  0  0  0
   64.7070   32.8070   48.8270 N   0  0  0  0  0  0  0  0  0  0  0  0
   64.9590   32.0760   50.0340 C   0  0  0  0  0  0  0  0  0  0  0  0
   63.7390   31.4830   50.9470 S   0  0  0  0  0  0  0  0  0  0  0  0
   66.2520   31.8290   50.4940 O   0  0  0  0  0  0  0  0  0  0  0  0
   66.9560   32.7830   51.2710 C   0  0  0  0  0  0  0  0  0  0  0  0
   66.0060   33.8620   51.7780 C   0  0  0  0  0  0  0  0  0  0  0  0
   68.0600   33.4310   50.4820 C   0  0  0  0  0  0  0  0  0  0  0  0
   62.6120   34.0680   48.9650 C   0  0  0  0  0  0  0  0  0  0  0  0
   61.3260   34.2990   48.4840 C   0  0  0  0  0  0  0  0  0  0  0  0
   58.1530   31.6820   45.4820 N   0  0  0  0  0  0  0  0  0  0  0  0
   57.4830   30.6150   45.0180 C   0  0  0  0  0  0  0  0  0  0  0  0
   57.1820   29.5610   45.8870 O   0  0  0  0  0  0  0  0  0  0  0  0
   57.9850   28.4280   46.0550 C   0  0  0  0  0  0  0  0  0  0  0  0
   57.1040   30.5740   43.7050 N   0  0  0  0  0  0  0  0  0  0  0  0
   57.9328   33.4790   41.4036 H   0  0  0  0  0  0  0  0  0  0  0  0
   58.3687   32.3080   40.1131 H   0  0  0  0  0  0  0  0  0  0  0  0
   56.7479   33.0824   40.1131 H   0  0  0  0  0  0  0  0  0  0  0  0
   58.3298   33.5274   42.6864 H   0  0  0  0  0  0  0  0  0  0  0  0
   61.1617   31.9665   45.9972 H   0  0  0  0  0  0  0  0  0  0  0  0
   63.4643   31.5292   46.8372 H   0  0  0  0  0  0  0  0  0  0  0  0
   65.4960   33.1860   48.2400 H   0  0  0  0  0  0  0  0  0  0  0  0
   67.3998   32.2470   52.1229 H   0  0  0  0  0  0  0  0  0  0  0  0
   66.0054   33.8626   52.8780 H   0  0  0  0  0  0  0  0  0  0  0  0
   66.3376   34.8445   51.4109 H   0  0  0  0  0  0  0  0  0  0  0  0
   64.9894   33.6575   51.4109 H   0  0  0  0  0  0  0  0  0  0  0  0
   68.7985   33.8645   51.1725 H   0  0  0  0  0  0  0  0  0  0  0  0
   68.5492   32.6767   49.8482 H   0  0  0  0  0  0  0  0  0  0  0  0
   67.6399   34.2259   49.8482 H   0  0  0  0  0  0  0  0  0  0  0  0
   63.0168   34.6608   49.7985 H   0  0  0  0  0  0  0  0  0  0  0  0
   60.7046   35.0830   48.9414 H   0  0  0  0  0  0  0  0  0  0  0  0
   58.4350   31.6960   46.4950 H   0  0  0  0  0  0  0  0  0  0  0  0
   58.1235   28.2326   47.1286 H   0  0  0  0  0  0  0  0  0  0  0  0
   57.4987   27.5609   45.5842 H   0  0  0  0  0  0  0  0  0  0  0  0
   58.9643   28.5995   45.5842 H   0  0  0  0  0  0  0  0  0  0  0  0
  1  2  1  0
  2  3  1  0
  3  4  2  0
  4  5  1  0
  5  6  2  0
  6  7  1  0
  7  8  2  0
  7  9  2  0
  7 10  1  0
 10 11  2  0
 11 12  1  0
 12 13  2  0
 13 14  1  0
 14 15  1  0
 15 16  2  0
 15 17  1  0
 17 18  1  0
 18 19  1  0
 18 20  1  0
 13 21  1  0
 21 22  2  0
  5 23  1  0
 23 24  1  0
 24 25  1  0
 25 26  1  0
 24 27  2  0
 27  3  1  0
 22 10  1  0
  1 28  1  0
  1 29  1  0
  1 30  1  0
  4 31  1  0
 11 32  1  0
 12 33  1  0
 14 34  1  0
 18 35  1  0
 19 36  1  0
 19 37  1  0
 19 38  1  0
 20 39  1  0
 20 40  1  0
 20 41  1  0
 21 42  1  0
 22 43  1  0
 23 44  1  0
 26 45  1  0
 26 46  1  0
 26 47  1  0
M  END
>  <smiles>  (91) 
COc1cc(=NS(=O)(=O)c2ccc(NC(=S)OC(C)C)cc2)[nH]c(OC)n1

>  <score_type>  (91) 
oracle

>  <origin>  (91) 
adg

>  <m_score__min__energy>  (91) 
-8.1199999999999992

>  <m_primary>  (91) 
energy

$$$$
91:0
     RDKit          3D

 48 49  0  0  0  0  0  0  0  0999 V2000
   67.0780   32.7730   50.4670 C   0  0  0  0  0  0  0  0  0  0  0  0
   65.6490   32.4880   50.1090 C   0  0  0  0  0  0  0  0  0  0  0  0
   64.6770   33.4100   50.1120 C   0  0  0  0  0  0  0  0  0  0  0  0
   63.6330   33.5270   49.0730 C   0  0  0  0  0  0  0  0  0  0  0  0
   63.9960   33.4080   47.7260 C   0  0  0  0  0  0  0  0  0  0  0  0
   63.0280   33.5040   46.7260 C   0  0  0  0  0  0  0  0  0  0  0  0
   61.6840   33.7140   47.0520 C   0  0  0  0  0  0  0  0  0  0  0  0
   60.7620   33.8330   46.0040 O   0  0  0  0  0  0  0  0  0  0  0  0
   59.3650   34.0890   46.1840 C   0  0  1  0  0  0  0  0  0  0  0  0
   58.7870   34.7770   44.9460 C   0  0  0  0  0  0  0  0  0  0  0  0
   58.6520   32.7890   46.4220 C   0  0  0  0  0  0  0  0  0  0  0  0
   57.4770   32.7990   46.8840 O   0  0  0  0  0  0  0  0  0  0  0  0
   59.3400   31.5460   46.2120 N   0  0  0  0  0  0  0  0  0  0  0  0
   58.6910   30.2630   46.1670 C   0  0  0  0  0  0  0  0  0  0  0  0
   57.6430   30.0020   45.2650 C   0  0  0  0  0  0  0  0  0  0  0  0
   57.0450   28.7390   45.2220 C   0  0  0  0  0  0  0  0  0  0  0  0
   57.4960   27.7160   46.0670 C   0  0  0  0  0  0  0  0  0  0  0  0
   56.7340   26.1290   46.0210 S   0  0  0  0  0  0  0  0  0  0  0  0
   55.0170   26.3120   45.9570 N   0  0  0  0  0  0  0  0  0  0  0  0
   57.2030   25.3720   44.8090 O   0  0  0  0  0  0  0  0  0  0  0  0
   57.1080   25.3490   47.2510 O   0  0  0  0  0  0  0  0  0  0  0  0
   58.5480   27.9680   46.9570 C   0  0  0  0  0  0  0  0  0  0  0  0
   59.1480   29.2310   46.9980 C   0  0  0  0  0  0  0  0  0  0  0  0
   61.2920   33.7650   48.4060 C   0  0  0  0  0  0  0  0  0  0  0  0
   59.9300   33.8720   48.7220 O   0  0  0  0  0  0  0  0  0  0  0  0
   59.2830   33.1650   49.7760 C   0  0  0  0  0  0  0  0  0  0  0  0
   62.2790   33.6750   49.4100 C   0  0  0  0  0  0  0  0  0  0  0  0
   67.1845   32.7942   51.5616 H   0  0  0  0  0  0  0  0  0  0  0  0
   67.7242   31.9860   50.0509 H   0  0  0  0  0  0  0  0  0  0  0  0
   67.3729   33.7476   50.0509 H   0  0  0  0  0  0  0  0  0  0  0  0
   65.3831   31.4586   49.8267 H   0  0  0  0  0  0  0  0  0  0  0  0
   64.6547   34.1287   50.9445 H   0  0  0  0  0  0  0  0  0  0  0  0
   65.0485   33.2382   47.4552 H   0  0  0  0  0  0  0  0  0  0  0  0
   63.3246   33.4137   45.6706 H   0  0  0  0  0  0  0  0  0  0  0  0
   59.2276   34.7526   47.0504 H   0  0  0  0  0  0  0  0  0  0  0  0
   58.1086   35.5845   45.2585 H   0  0  0  0  0  0  0  0  0  0  0  0
   59.6061   35.1983   44.3447 H   0  0  0  0  0  0  0  0  0  0  0  0
   58.2307   34.0429   44.3447 H   0  0  0  0  0  0  0  0  0  0  0  0
   60.3840   31.5700   46.1580 H   0  0  0  0  0  0  0  0  0  0  0  0
   57.2922   30.7963   44.5898 H   0  0  0  0  0  0  0  0  0  0  0  0
   56.2178   28.5476   44.5226 H   0  0  0  0  0  0  0  0  0  0  0  0
   54.7680   27.0830   46.6180 H   0  0  0  0  0  0  0  0  0  0  0  0
   58.9034   27.1702   47.6257 H   0  0  0  0  0  0  0  0  0  0  0  0
   59.9848   29.4156   47.6877 H   0  0  0  0  0  0  0  0  0  0  0  0
   59.6345   33.5491   50.7450 H   0  0  0  0  0  0  0  0  0  0  0  0
   58.1949   33.3063   49.6984 H   0  0  0  0  0  0  0  0  0  0  0  0
   59.5200   32.0936   49.6984 H   0  0  0  0  0  0  0  0  0  0  0  0
   61.9839   33.7214   50.4687 H   0  0  0  0  0  0  0  0  0  0  0  0
  1  2  1  0
  2  3  2  3
  3  4  1  0
  4  5  2  0
  5  6  1  0
  6  7  2  0
  7  8  1  0
  8  9  1  0
  9 10  1  0
  9 11  1  0
 11 12  2  0
 11 13  1  0
 13 14  1  0
 14 15  2  0
 15 16  1  0
 16 17  2  0
 17 18  1  0
 18 19  1  0
 18 20  2  0
 18 21  2  0
 17 22  1  0
 22 23  2  0
  7 24  1  0
 24 25  1  0
 25 26  1  0
 24 27  2  0
 27  4  1  0
 23 14  1  0
  1 28  1  0
  1 29  1  0
  1 30  1  0
  2 31  1  0
  3 32  1  0
  5 33  1  0
  6 34  1  0
  9 35  1  1
 10 36  1  0
 10 37  1  0
 10 38  1  0
 13 39  1  0
 15 40  1  0
 16 41  1  0
 19 42  1  0
 22 43  1  0
 23 44  1  0
 26 45  1  0
 26 46  1  0
 26 47  1  0
 27 48  1  0
M  CHG  1  19  -1
M  END
>  <UniqueID>  (92) 
84

>  <SMILES>  (92) 
CC=Cc1ccc(O[C@@H](C)C(=O)Nc2ccc(S([NH-])(=O)=O)cc2)c(OC)c1

>  <Energy>  (92) 
56.34220575552961

>  <Genealogy>  (92) 
CC=Cc1ccc(OC(C)C(=O)Nc2ccc(S([NH-])(=O)=O)cc2)c(OC)c1 (protonated)
CC=Cc1ccc(O[C@@H](C)C(=O)Nc2ccc(S([NH-])(=O)=O)cc2)c(OC)c1 (chirality)
CC=Cc1ccc(O[C@@H](C)C(=O)Nc2ccc(S([NH-])(=O)=O)cc2)c(OC)c1 (3D coordinates assigned)
CC=Cc1ccc(O[C@@H](C)C(=O)Nc2ccc(S([NH-])(=O)=O)cc2)c(OC)c1 (optimized conformer: 56.34220575552961 kcal/mol)

>  <smiles>  (92) 
CC=Cc1ccc(OC(C)C(=O)Nc2ccc(S(N)(=O)=O)cc2)c(OC)c1

>  <score_type>  (92) 
oracle

>  <origin>  (92) 
adg

>  <m_score__min__energy>  (92) 
-10.789999999999999

>  <m_primary>  (92) 
energy

$$$$
92:0
     RDKit          3D

 39 42  0  0  0  0  0  0  0  0999 V2000
   57.0200   23.0530   44.1380 N   0  0  0  0  0  0  0  0  0  0  0  0
   57.1920   24.1940   44.2270 C   0  0  0  0  0  0  0  0  0  0  0  0
   57.4050   25.6130   44.3390 C   0  0  0  0  0  0  0  0  0  0  0  0
   57.9440   26.3290   43.2630 C   0  0  0  0  0  0  0  0  0  0  0  0
   58.1510   27.7070   43.3700 C   0  0  0  0  0  0  0  0  0  0  0  0
   57.8310   28.3840   44.5580 C   0  0  0  0  0  0  0  0  0  0  0  0
   58.0410   29.8490   44.6570 C   0  0  0  0  0  0  0  0  0  0  0  0
   57.9120   30.6180   43.5370 N   0  0  0  0  0  0  0  0  0  0  0  0
   58.0770   31.9670   43.5670 C   0  0  0  0  0  0  0  0  0  0  0  0
   58.4020   32.6140   44.7580 C   0  0  0  0  0  0  0  0  0  0  0  0
   58.5750   31.8640   45.9320 C   0  0  0  0  0  0  0  0  0  0  0  0
   58.9350   32.4580   47.1620 C   0  0  0  0  0  0  0  0  0  0  0  0
   59.2370   34.2280   47.3300 S   0  0  0  0  0  0  0  0  0  0  0  0
   61.0060   34.0140   47.5610 C   0  0  0  0  0  0  0  0  0  0  0  0
   61.8410   33.8340   46.4500 C   0  0  0  0  0  0  0  0  0  0  0  0
   63.2170   33.6620   46.6260 C   0  0  0  0  0  0  0  0  0  0  0  0
   63.7650   33.6750   47.9130 C   0  0  0  0  0  0  0  0  0  0  0  0
   62.9380   33.8650   49.0220 C   0  0  0  0  0  0  0  0  0  0  0  0
   61.5600   34.0380   48.8510 C   0  0  0  0  0  0  0  0  0  0  0  0
   60.7710   34.2340   49.9360 F   0  0  0  0  0  0  0  0  0  0  0  0
   59.0680   31.6540   48.3000 C   0  0  0  0  0  0  0  0  0  0  0  0
   58.8790   30.2780   48.2010 C   0  0  0  0  0  0  0  0  0  0  0  0
   58.5510   29.7180   47.0100 N   0  0  0  0  0  0  0  0  0  0  0  0
   58.3830   30.4630   45.8820 C   0  0  0  0  0  0  0  0  0  0  0  0
   57.2800   27.6620   45.6310 C   0  0  0  0  0  0  0  0  0  0  0  0
   57.0730   26.2830   45.5220 C   0  0  0  0  0  0  0  0  0  0  0  0
   58.2051   25.8056   42.3314 H   0  0  0  0  0  0  0  0  0  0  0  0
   58.5672   28.2649   42.5182 H   0  0  0  0  0  0  0  0  0  0  0  0
   57.6560   30.1740   42.6260 H   0  0  0  0  0  0  0  0  0  0  0  0
   57.9531   32.5526   42.6441 H   0  0  0  0  0  0  0  0  0  0  0  0
   58.5224   33.7072   44.7779 H   0  0  0  0  0  0  0  0  0  0  0  0
   61.4125   33.8281   45.4369 H   0  0  0  0  0  0  0  0  0  0  0  0
   63.8691   33.5164   45.7522 H   0  0  0  0  0  0  0  0  0  0  0  0
   64.8473   33.5356   48.0514 H   0  0  0  0  0  0  0  0  0  0  0  0
   63.3711   33.8787   50.0331 H   0  0  0  0  0  0  0  0  0  0  0  0
   59.3211   32.1078   49.2696 H   0  0  0  0  0  0  0  0  0  0  0  0
   58.9961   29.6431   49.0916 H   0  0  0  0  0  0  0  0  0  0  0  0
   57.0103   28.1841   46.5609 H   0  0  0  0  0  0  0  0  0  0  0  0
   56.6481   25.7236   46.3684 H   0  0  0  0  0  0  0  0  0  0  0  0
  1  2  3  0
  2  3  1  0
  3  4  2  0
  4  5  1  0
  5  6  2  0
  6  7  1  0
  7  8  2  0
  8  9  1  0
  9 10  2  0
 10 11  1  0
 11 12  2  0
 12 13  1  0
 13 14  1  0
 14 15  2  0
 15 16  1  0
 16 17  2  0
 17 18  1  0
 18 19  2  0
 19 20  1  0
 12 21  1  0
 21 22  2  0
 22 23  1  0
 23 24  2  0
  6 25  1  0
 25 26  2  0
 26  3  1  0
 24  7  1  0
 24 11  1  0
 19 14  1  0
  4 27  1  0
  5 28  1  0
  8 29  1  0
  9 30  1  0
 10 31  1  0
 15 32  1  0
 16 33  1  0
 17 34  1  0
 18 35  1  0
 21 36  1  0
 22 37  1  0
 25 38  1  0
 26 39  1  0
M  CHG  1   8   1
M  END
>  <UniqueID>  (93) 
85

>  <SMILES>  (93) 
N#Cc1ccc(-c2[nH+]ccc3c(Sc4ccccc4F)ccnc23)cc1

>  <Energy>  (93) 
50.81593309770779

>  <Genealogy>  (93) 
N#Cc1ccc(-c2[nH+]ccc3c(Sc4ccccc4F)ccnc23)cc1 (protonated)
N#Cc1ccc(-c2[nH+]ccc3c(Sc4ccccc4F)ccnc23)cc1 (3D coordinates assigned)
N#Cc1ccc(-c2[nH+]ccc3c(Sc4ccccc4F)ccnc23)cc1 (optimized conformer: 50.81593309770779 kcal/mol)

>  <smiles>  (93) 
N#Cc1ccc(-c2nccc3c(Sc4ccccc4F)ccnc23)cc1

>  <score_type>  (93) 
oracle

>  <origin>  (93) 
adg

>  <m_score__min__energy>  (93) 
-6.8499999999999996

>  <m_primary>  (93) 
energy

$$$$
93:0
     RDKit          3D

 57 59  0  0  0  0  0  0  0  0999 V2000
   57.3450   31.2190   42.6830 C   0  0  0  0  0  0  0  0  0  0  0  0
   56.3630   30.1930   43.2470 C   0  0  0  0  0  0  0  0  0  0  0  0
   56.9400   29.4100   44.4370 C   0  0  0  0  0  0  0  0  0  0  0  0
   57.7850   28.2050   43.9960 C   0  0  0  0  0  0  0  0  0  0  0  0
   58.4780   27.5520   45.1960 C   0  0  0  0  0  0  0  0  0  0  0  0
   59.9160   28.0650   45.3500 C   0  0  0  0  0  0  0  0  0  0  0  0
   60.1600   28.5250   46.7330 N   0  0  0  0  0  0  0  0  0  0  0  0
   60.1480   29.8670   47.0550 C   0  0  0  0  0  0  0  0  0  0  0  0
   59.8020   30.8710   46.0790 N   0  0  0  0  0  0  0  0  0  0  0  0
   60.4340   30.2690   48.3750 C   0  0  0  0  0  0  0  0  0  0  0  0
   60.5020   31.6630   48.7330 N   0  0  0  0  0  0  0  0  0  0  0  0
   61.3270   32.5470   47.9440 C   0  0  0  0  0  0  0  0  0  0  0  0
   62.1420   32.0560   47.1160 O   0  0  0  0  0  0  0  0  0  0  0  0
   61.1920   34.0160   48.0610 C   0  0  0  0  0  0  0  0  0  0  0  0
   60.0390   34.6470   47.8130 C   0  0  0  0  0  0  0  0  0  0  0  0
   59.0820   34.1920   46.7880 C   0  0  0  0  0  0  0  0  0  0  0  0
   59.1030   34.4670   45.4190 C   0  0  0  0  0  0  0  0  0  0  0  0
   58.0610   33.8480   44.7180 C   0  0  0  0  0  0  0  0  0  0  0  0
   57.2160   33.0910   45.5210 C   0  0  0  0  0  0  0  0  0  0  0  0
   57.7750   33.1830   47.1050 S   0  0  0  0  0  0  0  0  0  0  0  0
   59.7930   32.1220   49.9040 C   0  0  0  0  0  0  0  0  0  0  0  0
   60.4330   32.9570   50.8380 C   0  0  0  0  0  0  0  0  0  0  0  0
   59.7440   33.4120   51.9680 C   0  0  0  0  0  0  0  0  0  0  0  0
   58.4120   33.0440   52.1700 C   0  0  0  0  0  0  0  0  0  0  0  0
   57.7630   32.2240   51.2430 C   0  0  0  0  0  0  0  0  0  0  0  0
   58.4470   31.7680   50.1120 C   0  0  0  0  0  0  0  0  0  0  0  0
   60.6660   29.2890   49.3410 C   0  0  0  0  0  0  0  0  0  0  0  0
   60.9250   29.6170   50.5310 O   0  0  0  0  0  0  0  0  0  0  0  0
   60.6150   27.9800   49.0000 N   0  0  0  0  0  0  0  0  0  0  0  0
   60.3670   27.5910   47.7220 C   0  0  0  0  0  0  0  0  0  0  0  0
   60.3250   26.3570   47.4600 O   0  0  0  0  0  0  0  0  0  0  0  0
   57.8453   31.7417   43.5115 H   0  0  0  0  0  0  0  0  0  0  0  0
   58.0971   30.7059   42.0657 H   0  0  0  0  0  0  0  0  0  0  0  0
   56.7995   31.9479   42.0657 H   0  0  0  0  0  0  0  0  0  0  0  0
   55.4561   30.7196   43.5790 H   0  0  0  0  0  0  0  0  0  0  0  0
   56.1442   29.4691   42.4482 H   0  0  0  0  0  0  0  0  0  0  0  0
   57.5730   30.0862   45.0303 H   0  0  0  0  0  0  0  0  0  0  0  0
   56.0938   29.0265   45.0259 H   0  0  0  0  0  0  0  0  0  0  0  0
   57.1310   27.4649   43.5117 H   0  0  0  0  0  0  0  0  0  0  0  0
   58.5560   28.5556   43.2941 H   0  0  0  0  0  0  0  0  0  0  0  0
   57.9126   27.7880   46.1096 H   0  0  0  0  0  0  0  0  0  0  0  0
   58.5106   26.4649   45.0315 H   0  0  0  0  0  0  0  0  0  0  0  0
   60.6172   27.2520   45.1106 H   0  0  0  0  0  0  0  0  0  0  0  0
   60.0654   28.9115   44.6637 H   0  0  0  0  0  0  0  0  0  0  0  0
   60.3870   31.7090   45.8850 H   0  0  0  0  0  0  0  0  0  0  0  0
   58.9770   30.7530   45.4500 H   0  0  0  0  0  0  0  0  0  0  0  0
   62.0686   34.6085   48.3618 H   0  0  0  0  0  0  0  0  0  0  0  0
   59.7941   35.5448   48.3995 H   0  0  0  0  0  0  0  0  0  0  0  0
   59.8607   35.1047   44.9403 H   0  0  0  0  0  0  0  0  0  0  0  0
   57.9237   33.9513   43.6315 H   0  0  0  0  0  0  0  0  0  0  0  0
   56.3342   32.5289   45.1797 H   0  0  0  0  0  0  0  0  0  0  0  0
   61.4803   33.2538   50.6793 H   0  0  0  0  0  0  0  0  0  0  0  0
   60.2519   34.0599   52.6975 H   0  0  0  0  0  0  0  0  0  0  0  0
   57.8729   33.4002   53.0602 H   0  0  0  0  0  0  0  0  0  0  0  0
   56.7132   31.9371   51.4032 H   0  0  0  0  0  0  0  0  0  0  0  0
   57.9302   31.1291   49.3808 H   0  0  0  0  0  0  0  0  0  0  0  0
   60.7830   27.2530   49.7320 H   0  0  0  0  0  0  0  0  0  0  0  0
  1  2  1  0
  2  3  1  0
  3  4  1  0
  4  5  1  0
  5  6  1  0
  6  7  1  0
  7  8  1  0
  8  9  1  0
  8 10  2  0
 10 11  1  0
 11 12  1  0
 12 13  2  0
 12 14  1  0
 14 15  2  3
 15 16  1  0
 16 17  2  0
 17 18  1  0
 18 19  2  0
 19 20  1  0
 11 21  1  0
 21 22  2  0
 22 23  1  0
 23 24  2  0
 24 25  1  0
 25 26  2  0
 10 27  1  0
 27 28  2  0
 27 29  1  0
 29 30  1  0
 30 31  2  0
 30  7  1  0
 20 16  1  0
 26 21  1  0
  1 32  1  0
  1 33  1  0
  1 34  1  0
  2 35  1  0
  2 36  1  0
  3 37  1  0
  3 38  1  0
  4 39  1  0
  4 40  1  0
  5 41  1  0
  5 42  1  0
  6 43  1  0
  6 44  1  0
  9 45  1  0
  9 46  1  0
 14 47  1  0
 15 48  1  0
 17 49  1  0
 18 50  1  0
 19 51  1  0
 22 52  1  0
 23 53  1  0
 24 54  1  0
 25 55  1  0
 26 56  1  0
 29 57  1  0
M  END
>  <UniqueID>  (94) 
86

>  <SMILES>  (94) 
CCCCCCn1c(N)c(N(C(=O)C=Cc2cccs2)c2ccccc2)c(=O)[nH]c1=O

>  <Energy>  (94) 
93.25469921135884

>  <Genealogy>  (94) 
CCCCCCn1c(N)c(N(C(=O)C=Cc2cccs2)c2ccccc2)c(=O)[nH]c1=O (3D coordinates assigned)
CCCCCCn1c(N)c(N(C(=O)C=Cc2cccs2)c2ccccc2)c(=O)[nH]c1=O (optimized conformer: 93.25469921135884 kcal/mol)

>  <smiles>  (94) 
CCCCCCn1c(N)c(N(C(=O)C=Cc2cccs2)c2ccccc2)c(=O)[nH]c1=O

>  <score_type>  (94) 
oracle

>  <origin>  (94) 
adg

>  <m_score__min__energy>  (94) 
-7.6100000000000003

>  <m_primary>  (94) 
energy

$$$$
94:0
     RDKit          3D

 38 39  0  0  0  0  0  0  0  0999 V2000
   54.8280   26.3420   45.9780 N   0  0  0  0  0  0  0  0  0  0  0  0
   56.5270   26.0250   46.0010 S   0  0  0  0  0  0  0  0  0  0  0  0
   56.8930   25.3200   47.2770 O   0  0  0  0  0  0  0  0  0  0  0  0
   56.8720   25.1450   44.8310 O   0  0  0  0  0  0  0  0  0  0  0  0
   57.4060   27.5450   45.8980 C   0  0  0  0  0  0  0  0  0  0  0  0
   58.7250   27.6400   46.3610 C   0  0  0  0  0  0  0  0  0  0  0  0
   59.4120   28.8520   46.2720 C   0  0  0  0  0  0  0  0  0  0  0  0
   58.7870   29.9740   45.7200 C   0  0  0  0  0  0  0  0  0  0  0  0
   57.4700   29.8910   45.2480 C   0  0  0  0  0  0  0  0  0  0  0  0
   56.8450   31.0820   44.7480 N   0  0  0  0  0  0  0  0  0  0  0  0
   57.2570   32.4440   44.9400 C   0  0  0  0  0  0  0  0  0  0  0  0
   57.4330   33.1680   43.9240 O   0  0  0  0  0  0  0  0  0  0  0  0
   57.4470   33.0530   46.2990 C   0  0  0  0  0  0  0  0  0  0  0  0
   57.9600   34.3770   46.1830 O   0  0  0  0  0  0  0  0  0  0  0  0
   59.3300   34.6460   46.1290 C   0  0  0  0  0  0  0  0  0  0  0  0
   59.7520   35.8340   46.1290 O   0  0  0  0  0  0  0  0  0  0  0  0
   60.3010   33.5140   46.0500 C   0  0  0  0  0  0  0  0  0  0  0  0
   61.3440   33.6320   47.1300 C   0  0  0  0  0  0  0  0  0  0  0  0
   62.7080   33.5090   46.8120 C   0  0  0  0  0  0  0  0  0  0  0  0
   63.6750   33.5890   47.8170 C   0  0  0  0  0  0  0  0  0  0  0  0
   63.2940   33.8180   49.1410 C   0  0  0  0  0  0  0  0  0  0  0  0
   61.9420   33.9630   49.4640 C   0  0  0  0  0  0  0  0  0  0  0  0
   60.9680   33.8690   48.4650 C   0  0  0  0  0  0  0  0  0  0  0  0
   59.6590   34.0050   48.8000 F   0  0  0  0  0  0  0  0  0  0  0  0
   56.7730   28.6760   45.3660 C   0  0  0  0  0  0  0  0  0  0  0  0
   54.6470   27.0900   46.6860 H   0  0  0  0  0  0  0  0  0  0  0  0
   59.2197   26.7586   46.7951 H   0  0  0  0  0  0  0  0  0  0  0  0
   60.4472   28.9243   46.6369 H   0  0  0  0  0  0  0  0  0  0  0  0
   59.3319   30.9274   45.6558 H   0  0  0  0  0  0  0  0  0  0  0  0
   56.4791   33.0838   46.8208 H   0  0  0  0  0  0  0  0  0  0  0  0
   58.1635   32.4414   46.8669 H   0  0  0  0  0  0  0  0  0  0  0  0
   59.7596   32.5644   46.1729 H   0  0  0  0  0  0  0  0  0  0  0  0
   60.8007   33.5440   45.0705 H   0  0  0  0  0  0  0  0  0  0  0  0
   63.0149   33.3492   45.7678 H   0  0  0  0  0  0  0  0  0  0  0  0
   64.7392   33.4713   47.5649 H   0  0  0  0  0  0  0  0  0  0  0  0
   64.0580   33.8842   49.9296 H   0  0  0  0  0  0  0  0  0  0  0  0
   61.6435   34.1514   50.5058 H   0  0  0  0  0  0  0  0  0  0  0  0
   55.7247   28.6129   45.0388 H   0  0  0  0  0  0  0  0  0  0  0  0
  1  2  1  0
  2  3  2  0
  2  4  2  0
  2  5  1  0
  5  6  2  0
  6  7  1  0
  7  8  2  0
  8  9  1  0
  9 10  1  0
 10 11  1  0
 11 12  2  0
 11 13  1  0
 13 14  1  0
 14 15  1  0
 15 16  2  0
 15 17  1  0
 17 18  1  0
 18 19  2  0
 19 20  1  0
 20 21  2  0
 21 22  1  0
 22 23  2  0
 23 24  1  0
  9 25  2  0
 25  5  1  0
 23 18  1  0
  1 26  1  0
  6 27  1  0
  7 28  1  0
  8 29  1  0
 13 30  1  0
 13 31  1  0
 17 32  1  0
 17 33  1  0
 19 34  1  0
 20 35  1  0
 21 36  1  0
 22 37  1  0
 25 38  1  0
M  CHG  2   1  -1  10  -1
M  END
>  <UniqueID>  (95) 
87

>  <SMILES>  (95) 
[NH-]S(=O)(=O)c1cccc([N-]C(=O)COC(=O)Cc2ccccc2F)c1

>  <Energy>  (95) 
33.26693860847677

>  <Genealogy>  (95) 
[NH-]S(=O)(=O)c1cccc([N-]C(=O)COC(=O)Cc2ccccc2F)c1 (protonated)
[NH-]S(=O)(=O)c1cccc([N-]C(=O)COC(=O)Cc2ccccc2F)c1 (3D coordinates assigned)
[NH-]S(=O)(=O)c1cccc([N-]C(=O)COC(=O)Cc2ccccc2F)c1 (optimized conformer: 33.26693860847677 kcal/mol)

>  <smiles>  (95) 
NS(=O)(=O)c1cccc(NC(=O)COC(=O)Cc2ccccc2F)c1

>  <score_type>  (95) 
oracle

>  <origin>  (95) 
adg

>  <m_score__min__energy>  (95) 
-12.199999999999999

>  <m_primary>  (95) 
energy

$$$$
95:0
     RDKit          3D

 59 63  0  0  0  0  0  0  0  0999 V2000
   55.6330   26.3230   46.2210 O   0  0  0  0  0  0  0  0  0  0  0  0
   56.3220   27.2340   45.6890 C   0  0  0  0  0  0  0  0  0  0  0  0
   57.7310   27.0350   45.5300 N   0  0  0  0  0  0  0  0  0  0  0  0
   58.7660   27.9140   45.9900 C   0  0  0  0  0  0  0  0  0  0  0  0
   59.7010   28.4850   45.1070 C   0  0  0  0  0  0  0  0  0  0  0  0
   60.6810   29.3620   45.5830 C   0  0  0  0  0  0  0  0  0  0  0  0
   60.7270   29.6920   46.9410 C   0  0  0  0  0  0  0  0  0  0  0  0
   61.6760   30.5470   47.4050 N   0  0  0  0  0  0  0  0  0  0  0  0
   61.7580   30.9050   48.7180 C   0  0  0  0  0  0  0  0  0  0  0  0
   62.7920   31.8230   49.1460 N   0  0  0  0  0  0  0  0  0  0  0  0
   63.7820   31.4140   50.1560 C   0  0  0  0  0  0  0  0  0  0  0  0
   64.9850   32.3620   50.1620 C   0  0  0  0  0  0  0  0  0  0  0  0
   64.5510   33.8390   50.3990 C   0  0  0  0  0  0  0  0  0  0  0  0
   64.2280   34.1490   51.8260 N   0  0  0  0  0  0  0  0  0  0  0  0
   62.8320   33.8150   52.2060 C   0  0  0  0  0  0  0  0  0  0  0  0
   62.6500   33.7580   53.7360 C   0  0  0  0  0  0  0  0  0  0  0  0
   63.6520   34.5180   54.3780 O   0  0  0  0  0  0  0  0  0  0  0  0
   64.9140   33.8970   54.1960 C   0  0  0  0  0  0  0  0  0  0  0  0
   65.1550   33.4420   52.7410 C   0  0  0  0  0  0  0  0  0  0  0  0
   63.3290   34.2000   49.4920 C   0  0  0  0  0  0  0  0  0  0  0  0
   62.9510   33.1200   48.4700 C   0  0  0  0  0  0  0  0  0  0  0  0
   60.8250   30.3770   49.6300 C   0  0  0  0  0  0  0  0  0  0  0  0
   59.8380   29.4960   49.1820 C   0  0  0  0  0  0  0  0  0  0  0  0
   59.7790   29.1430   47.8290 C   0  0  0  0  0  0  0  0  0  0  0  0
   58.7980   28.2650   47.3470 C   0  0  0  0  0  0  0  0  0  0  0  0
   55.7030   28.4480   45.2490 N   0  0  0  0  0  0  0  0  0  0  0  0
   56.3020   29.4420   44.4070 C   0  0  0  0  0  0  0  0  0  0  0  0
   55.9390   29.4820   43.0540 C   0  0  0  0  0  0  0  0  0  0  0  0
   56.4890   30.4430   42.2000 C   0  0  0  0  0  0  0  0  0  0  0  0
   57.3920   31.3860   42.6980 C   0  0  0  0  0  0  0  0  0  0  0  0
   58.1400   32.7020   41.5320 Br  0  0  0  0  0  0  0  0  0  0  0  0
   57.7350   31.3760   44.0540 C   0  0  0  0  0  0  0  0  0  0  0  0
   57.1880   30.4160   44.9120 C   0  0  0  0  0  0  0  0  0  0  0  0
   57.4760   30.4800   46.2360 F   0  0  0  0  0  0  0  0  0  0  0  0
   59.6609   28.2400   44.0354 H   0  0  0  0  0  0  0  0  0  0  0  0
   61.4167   29.7928   44.8880 H   0  0  0  0  0  0  0  0  0  0  0  0
   63.3090   31.4270   51.1490 H   0  0  0  0  0  0  0  0  0  0  0  0
   64.1352   30.4017   49.9102 H   0  0  0  0  0  0  0  0  0  0  0  0
   65.6738   32.0593   50.9645 H   0  0  0  0  0  0  0  0  0  0  0  0
   65.4753   32.3013   49.1792 H   0  0  0  0  0  0  0  0  0  0  0  0
   65.4208   34.4565   50.1302 H   0  0  0  0  0  0  0  0  0  0  0  0
   62.1587   34.5823   51.7962 H   0  0  0  0  0  0  0  0  0  0  0  0
   62.5963   32.8212   51.7976 H   0  0  0  0  0  0  0  0  0  0  0  0
   61.6622   34.1641   53.9992 H   0  0  0  0  0  0  0  0  0  0  0  0
   62.7280   32.7117   54.0666 H   0  0  0  0  0  0  0  0  0  0  0  0
   65.7011   34.6131   54.4748 H   0  0  0  0  0  0  0  0  0  0  0  0
   64.9346   32.9987   54.8306 H   0  0  0  0  0  0  0  0  0  0  0  0
   66.1925   33.6703   52.4555 H   0  0  0  0  0  0  0  0  0  0  0  0
   64.9764   32.3590   52.6682 H   0  0  0  0  0  0  0  0  0  0  0  0
   62.4594   34.3765   50.1422 H   0  0  0  0  0  0  0  0  0  0  0  0
   63.6221   35.0881   48.9130 H   0  0  0  0  0  0  0  0  0  0  0  0
   62.0043   33.3952   47.9821 H   0  0  0  0  0  0  0  0  0  0  0  0
   63.7486   33.0399   47.7168 H   0  0  0  0  0  0  0  0  0  0  0  0
   60.8730   30.6574   50.6926 H   0  0  0  0  0  0  0  0  0  0  0  0
   59.1079   29.0801   49.8919 H   0  0  0  0  0  0  0  0  0  0  0  0
   58.0493   27.8492   48.0373 H   0  0  0  0  0  0  0  0  0  0  0  0
   55.2161   28.7520   42.6609 H   0  0  0  0  0  0  0  0  0  0  0  0
   56.2107   30.4567   41.1359 H   0  0  0  0  0  0  0  0  0  0  0  0
   58.4374   32.1257   44.4471 H   0  0  0  0  0  0  0  0  0  0  0  0
  1  2  2  0
  2  3  1  0
  3  4  1  0
  4  5  2  0
  5  6  1  0
  6  7  2  0
  7  8  1  0
  8  9  2  0
  9 10  1  0
 10 11  1  0
 11 12  1  0
 12 13  1  0
 13 14  1  0
 14 15  1  0
 15 16  1  0
 16 17  1  0
 17 18  1  0
 18 19  1  0
 13 20  1  0
 20 21  1  0
  9 22  1  0
 22 23  2  0
 23 24  1  0
 24 25  2  0
  2 26  1  0
 26 27  1  0
 27 28  2  0
 28 29  1  0
 29 30  2  0
 30 31  1  0
 30 32  1  0
 32 33  2  0
 33 34  1  0
 25  4  1  0
 33 27  1  0
 24  7  1  0
 21 10  1  0
 19 14  1  0
  5 35  1  0
  6 36  1  0
 11 37  1  0
 11 38  1  0
 12 39  1  0
 12 40  1  0
 13 41  1  0
 15 42  1  0
 15 43  1  0
 16 44  1  0
 16 45  1  0
 18 46  1  0
 18 47  1  0
 19 48  1  0
 19 49  1  0
 20 50  1  0
 20 51  1  0
 21 52  1  0
 21 53  1  0
 22 54  1  0
 23 55  1  0
 25 56  1  0
 28 57  1  0
 29 58  1  0
 32 59  1  0
M  CHG  2   3  -1  26  -1
M  END
>  <UniqueID>  (96) 
88

>  <SMILES>  (96) 
O=C([N-]c1ccc2nc(N3CCC(N4CCOCC4)CC3)ccc2c1)[N-]c1ccc(Br)cc1F

>  <Energy>  (96) 
95.39872472619173

>  <Genealogy>  (96) 
O=C([N-]c1ccc2nc(N3CCC(N4CCOCC4)CC3)ccc2c1)[N-]c1ccc(Br)cc1F (protonated)
O=C([N-]c1ccc2nc(N3CCC(N4CCOCC4)CC3)ccc2c1)[N-]c1ccc(Br)cc1F (3D coordinates assigned)
O=C([N-]c1ccc2nc(N3CCC(N4CCOCC4)CC3)ccc2c1)[N-]c1ccc(Br)cc1F (nonaromatic ring conformer: 95.39872472619173 kcal/mol)

>  <smiles>  (96) 
O=C(Nc1ccc2nc(N3CCC(N4CCOCC4)CC3)ccc2c1)Nc1ccc(Br)cc1F

>  <score_type>  (96) 
oracle

>  <origin>  (96) 
adg

>  <m_score__min__energy>  (96) 
-12.16

>  <m_primary>  (96) 
energy

$$$$
96:0
     RDKit          3D

 37 38  0  0  0  0  0  0  0  0999 V2000
   58.3320   33.3620   45.1280 H   0  0  0  0  0  0  0  0  0  0  0  0
   58.4540   32.3690   45.2750 O   0  0  0  0  0  0  0  0  0  0  0  0
   58.6060   31.8010   46.5420 C   0  0  0  0  0  0  0  0  0  0  0  0
   58.7420   30.4100   46.7120 C   0  0  0  0  0  0  0  0  0  0  0  0
   58.7210   29.1980   45.2270 Br  0  0  0  0  0  0  0  0  0  0  0  0
   58.8940   29.8760   47.9960 C   0  0  0  0  0  0  0  0  0  0  0  0
   58.9915   28.7881   48.1266 H   0  0  0  0  0  0  0  0  0  0  0  0
   58.9230   30.7160   49.1170 C   0  0  0  0  0  0  0  0  0  0  0  0
   59.0490   30.1330   50.4940 C   0  0  0  0  0  0  0  0  0  0  0  0
   59.6286   29.1993   50.4457 H   0  0  0  0  0  0  0  0  0  0  0  0
   59.5640   30.8494   51.1509 H   0  0  0  0  0  0  0  0  0  0  0  0
   57.7210   29.8540   51.0240 N   0  0  0  0  0  0  0  0  0  0  0  0
   57.1740   30.5470   52.1480 C   0  0  0  0  0  0  0  0  0  0  0  0
   57.4480   31.7640   52.3350 O   0  0  0  0  0  0  0  0  0  0  0  0
   56.2930   29.8190   53.0770 C   0  0  0  0  0  0  0  0  0  0  0  0
   56.6311   29.6544   54.1107 H   0  0  0  0  0  0  0  0  0  0  0  0
   55.0930   29.3500   52.7060 C   0  0  0  0  0  0  0  0  0  0  0  0
   54.9779   28.2636   52.5773 H   0  0  0  0  0  0  0  0  0  0  0  0
   53.9110   30.2130   52.4590 C   0  0  0  0  0  0  0  0  0  0  0  0
   53.7710   30.8140   51.1960 C   0  0  0  0  0  0  0  0  0  0  0  0
   54.5273   30.6316   50.4183 H   0  0  0  0  0  0  0  0  0  0  0  0
   52.6780   31.6420   50.9200 C   0  0  0  0  0  0  0  0  0  0  0  0
   52.5731   32.0993   49.9251 H   0  0  0  0  0  0  0  0  0  0  0  0
   51.7200   31.8890   51.9050 C   0  0  0  0  0  0  0  0  0  0  0  0
   50.6350   32.7130   51.6300 O   0  0  0  0  0  0  0  0  0  0  0  0
   51.8550   31.3110   53.1700 C   0  0  0  0  0  0  0  0  0  0  0  0
   51.1018   31.5089   53.9469 H   0  0  0  0  0  0  0  0  0  0  0  0
   52.9460   30.4810   53.4510 C   0  0  0  0  0  0  0  0  0  0  0  0
   53.0511   30.0354   54.4512 H   0  0  0  0  0  0  0  0  0  0  0  0
   58.7710   32.0990   48.9470 C   0  0  0  0  0  0  0  0  0  0  0  0
   58.7720   32.7601   49.8262 H   0  0  0  0  0  0  0  0  0  0  0  0
   58.6170   32.6490   47.6600 C   0  0  0  0  0  0  0  0  0  0  0  0
   58.4710   34.0300   47.4520 O   0  0  0  0  0  0  0  0  0  0  0  0
   59.5130   34.8960   47.0130 C   0  0  0  0  0  0  0  0  0  0  0  0
   60.0271   35.3233   47.8866 H   0  0  0  0  0  0  0  0  0  0  0  0
   60.2324   34.3261   46.4067 H   0  0  0  0  0  0  0  0  0  0  0  0
   59.0843   35.7075   46.4067 H   0  0  0  0  0  0  0  0  0  0  0  0
  1  2  1  0
  2  3  1  0
  3  4  2  0
  4  5  1  0
  4  6  1  0
  6  7  1  0
  6  8  2  0
  8  9  1  0
  9 10  1  0
  9 11  1  0
  9 12  1  0
 12 13  1  0
 13 14  2  0
 13 15  1  0
 15 16  1  0
 15 17  2  0
 17 18  1  0
 17 19  1  0
 19 20  2  0
 20 21  1  0
 20 22  1  0
 22 23  1  0
 22 24  2  0
 24 25  1  0
 24 26  1  0
 26 27  1  0
 26 28  2  0
 28 29  1  0
  8 30  1  0
 30 31  1  0
 30 32  2  0
 32 33  1  0
 33 34  1  0
 34 35  1  0
 34 36  1  0
 34 37  1  0
 32  3  1  0
 28 19  1  0
M  CHG  2  12  -1  25  -1
M  END
>  <UniqueID>  (97) 
89

>  <SMILES>  (97) 
COc1cc(C[N-]C(=O)/C=C/c2ccc([O-])cc2)cc(Br)c1O

>  <Energy>  (97) 
36.66531560544676

>  <Genealogy>  (97) 
COc1cc(C[N-]C(=O)C=Cc2ccc([O-])cc2)cc(Br)c1O (protonated)
COc1cc(C[N-]C(=O)/C=C/c2ccc([O-])cc2)cc(Br)c1O (cis-trans isomerization)
COc1cc(C[N-]C(=O)/C=C/c2ccc([O-])cc2)cc(Br)c1O (3D coordinates assigned)
COc1cc(C[N-]C(=O)/C=C/c2ccc([O-])cc2)cc(Br)c1O (optimized conformer: 36.66531560544676 kcal/mol)

>  <smiles>  (97) 
COc1cc(CNC(=O)C=Cc2ccc(O)cc2)cc(Br)c1O

>  <score_type>  (97) 
oracle

>  <origin>  (97) 
adg

>  <m_score__min__energy>  (97) 
-11.06

>  <m_primary>  (97) 
energy

$$$$
