0:0
     RDKit          3D

 40 42  0  0  0  0  0  0  0  0999 V2000
   61.6098   33.8057   46.1538 H   0  0  0  0  0  0  0  0  0  0  0  0
   60.7420   33.3740   46.6740 C   0  0  0  0  0  0  0  0  0  0  0  0
   60.9190   32.3680   47.5710 N   0  0  0  0  0  0  0  0  0  0  0  0
   59.8820   31.7940   48.2410 C   0  0  0  0  0  0  0  0  0  0  0  0
   60.1530   30.8380   49.0870 N   0  0  0  0  0  0  0  0  0  0  0  0
   59.3420   29.7220   49.4930 C   0  0  0  0  0  0  0  0  0  0  0  0
   59.1720   28.7390   48.7210 O   0  0  0  0  0  0  0  0  0  0  0  0
   58.7730   29.6850   50.8620 C   0  0  0  0  0  0  0  0  0  0  0  0
   59.4210   28.9680   51.8850 C   0  0  0  0  0  0  0  0  0  0  0  0
   60.3552   28.4297   51.6671 H   0  0  0  0  0  0  0  0  0  0  0  0
   58.8870   28.9350   53.1740 C   0  0  0  0  0  0  0  0  0  0  0  0
   59.4026   28.3725   53.9663 H   0  0  0  0  0  0  0  0  0  0  0  0
   57.7010   29.6130   53.4620 C   0  0  0  0  0  0  0  0  0  0  0  0
   57.2872   29.5864   54.4808 H   0  0  0  0  0  0  0  0  0  0  0  0
   57.0360   30.3280   52.4550 C   0  0  0  0  0  0  0  0  0  0  0  0
   55.7690   31.0820   52.7610 C   0  0  0  0  0  0  0  0  0  0  0  0
   56.0224   32.0361   53.2464 H   0  0  0  0  0  0  0  0  0  0  0  0
   55.2279   31.2699   51.8219 H   0  0  0  0  0  0  0  0  0  0  0  0
   54.9180   30.2990   53.6520 N   0  0  0  0  0  0  0  0  0  0  0  0
   53.6760   29.7110   53.2500 C   0  0  0  0  0  0  0  0  0  0  0  0
   53.3190   28.6040   53.7410 O   0  0  0  0  0  0  0  0  0  0  0  0
   52.8120   30.3960   52.2600 C   0  0  0  0  0  0  0  0  0  0  0  0
   52.6520   29.8710   50.9650 C   0  0  0  0  0  0  0  0  0  0  0  0
   53.1731   28.9440   50.6836 H   0  0  0  0  0  0  0  0  0  0  0  0
   51.8350   30.5190   50.0320 C   0  0  0  0  0  0  0  0  0  0  0  0
   51.6860   29.9850   48.7570 O   0  0  0  0  0  0  0  0  0  0  0  0
   51.1720   31.7000   50.3810 C   0  0  0  0  0  0  0  0  0  0  0  0
   50.3610   32.3440   49.4530 O   0  0  0  0  0  0  0  0  0  0  0  0
   51.3260   32.2330   51.6650 C   0  0  0  0  0  0  0  0  0  0  0  0
   50.6710   33.4080   52.0160 O   0  0  0  0  0  0  0  0  0  0  0  0
   52.1410   31.5860   52.6000 C   0  0  0  0  0  0  0  0  0  0  0  0
   52.2584   32.0101   53.6081 H   0  0  0  0  0  0  0  0  0  0  0  0
   57.5760   30.3630   51.1600 C   0  0  0  0  0  0  0  0  0  0  0  0
   57.0583   30.9262   50.3696 H   0  0  0  0  0  0  0  0  0  0  0  0
   58.5750   32.2790   48.0150 C   0  0  0  0  0  0  0  0  0  0  0  0
   57.7221   31.8491   48.5606 H   0  0  0  0  0  0  0  0  0  0  0  0
   58.3740   33.3090   47.0930 C   0  0  0  0  0  0  0  0  0  0  0  0
   57.3584   33.6865   46.9031 H   0  0  0  0  0  0  0  0  0  0  0  0
   59.4610   33.8590   46.4130 C   0  0  0  0  0  0  0  0  0  0  0  0
   59.2200   35.1550   45.2550 Cl  0  0  0  0  0  0  0  0  0  0  0  0
  1  2  1  0
  2  3  1  0
  3  4  1  0
  4  5  2  0
  5  6  1  0
  6  7  2  0
  6  8  1  0
  8  9  2  0
  9 10  1  0
  9 11  1  0
 11 12  1  0
 11 13  2  0
 13 14  1  0
 13 15  1  0
 15 16  1  0
 16 17  1  0
 16 18  1  0
 16 19  1  0
 19 20  1  0
 20 21  2  0
 20 22  1  0
 22 23  2  0
 23 24  1  0
 23 25  1  0
 25 26  1  0
 25 27  2  0
 27 28  1  0
 27 29  1  0
 29 30  1  0
 29 31  2  0
 31 32  1  0
 15 33  2  0
 33 34  1  0
  4 35  1  0
 35 36  1  0
 35 37  2  0
 37 38  1  0
 37 39  1  0
 39 40  1  0
 39  2  2  0
 33  8  1  0
 31 22  1  0
M  CHG  5   3  -1  19  -1  26  -1  28  -1  30  -1
M  END
>  <UniqueID>  (1) 
1

>  <SMILES>  (1) 
O=C(/N=c1\ccc(Cl)c[n-]1)c1cccc(C[N-]C(=O)c2cc([O-])c([O-])c([O-])c2)c1

>  <Energy>  (1) 
51.292829913149426

>  <Genealogy>  (1) 
O=C(N=c1ccc(Cl)c[n-]1)c1cccc(C[N-]C(=O)c2cc([O-])c([O-])c([O-])c2)c1 (protonated)
O=C(/N=c1\ccc(Cl)c[n-]1)c1cccc(C[N-]C(=O)c2cc([O-])c([O-])c([O-])c2)c1 (cis-trans isomerization)
O=C(/N=c1\ccc(Cl)c[n-]1)c1cccc(C[N-]C(=O)c2cc([O-])c([O-])c([O-])c2)c1 (3D coordinates assigned)
O=C(/N=c1\ccc(Cl)c[n-]1)c1cccc(C[N-]C(=O)c2cc([O-])c([O-])c([O-])c2)c1 (optimized conformer: 51.292829913149426 kcal/mol)

>  <smiles>  (1) 
O=C(N=c1ccc(Cl)c[nH]1)c1cccc(CNC(=O)c2cc(O)c(O)c(O)c2)c1

>  <score_type>  (1) 
oracle

>  <origin>  (1) 
adg

>  <m_score__min__energy>  (1) 
-21.350000000000001

>  <m_primary>  (1) 
energy

$$$$
1:0
     RDKit          3D

 38 40  0  0  0  0  0  0  0  0999 V2000
   59.2940   29.7270   44.3530 O   0  0  0  0  0  0  0  0  0  0  0  0
   58.5480   29.0330   45.0290 C   0  0  0  0  0  0  0  0  0  0  0  0
   58.3770   27.5870   44.5980 C   0  0  0  0  0  0  0  0  0  0  0  0
   57.2590   26.9110   45.3410 C   0  0  0  0  0  0  0  0  0  0  0  0
   57.3680   25.7000   45.9170 N   0  0  0  0  0  0  0  0  0  0  0  0
   56.1660   25.5220   46.5050 C   0  0  0  0  0  0  0  0  0  0  0  0
   55.8730   24.4790   47.1460 O   0  0  0  0  0  0  0  0  0  0  0  0
   55.3030   26.5490   46.3530 N   0  0  0  0  0  0  0  0  0  0  0  0
   56.0130   27.4230   45.6220 C   0  0  0  0  0  0  0  0  0  0  0  0
   55.5340   28.6670   45.2340 O   0  0  0  0  0  0  0  0  0  0  0  0
   57.8580   29.6560   46.1590 N   0  0  0  0  0  0  0  0  0  0  0  0
   58.3740   29.3630   47.5080 C   0  0  0  0  0  0  0  0  0  0  0  0
   59.6980   30.0780   47.8590 C   0  0  0  0  0  0  0  0  0  0  0  0
   60.0180   31.2790   47.0540 N   0  0  0  0  0  0  0  0  0  0  0  0
   61.3090   31.9360   47.2520 C   0  0  0  0  0  0  0  0  0  0  0  0
   62.3410   31.3150   47.9960 C   0  0  0  0  0  0  0  0  0  0  0  0
   63.5660   31.9570   48.2020 C   0  0  0  0  0  0  0  0  0  0  0  0
   63.7910   33.2260   47.6750 C   0  0  0  0  0  0  0  0  0  0  0  0
   62.7920   33.8590   46.9370 C   0  0  0  0  0  0  0  0  0  0  0  0
   61.5640   33.2260   46.7250 C   0  0  0  0  0  0  0  0  0  0  0  0
   59.1150   31.7890   46.0050 C   0  0  0  0  0  0  0  0  0  0  0  0
   57.7460   31.1130   45.9940 C   0  0  0  0  0  0  0  0  0  0  0  0
   58.1557   27.5604   43.5208 H   0  0  0  0  0  0  0  0  0  0  0  0
   59.3105   27.0506   44.8235 H   0  0  0  0  0  0  0  0  0  0  0  0
   56.8820   29.2770   46.1360 H   0  0  0  0  0  0  0  0  0  0  0  0
   57.6133   29.6704   48.2407 H   0  0  0  0  0  0  0  0  0  0  0  0
   58.5859   28.2839   47.5334 H   0  0  0  0  0  0  0  0  0  0  0  0
   59.6464   30.3837   48.9144 H   0  0  0  0  0  0  0  0  0  0  0  0
   60.4951   29.3522   47.6403 H   0  0  0  0  0  0  0  0  0  0  0  0
   62.1768   30.3126   48.4183 H   0  0  0  0  0  0  0  0  0  0  0  0
   64.3553   31.4574   48.7829 H   0  0  0  0  0  0  0  0  0  0  0  0
   64.7555   33.7282   47.8407 H   0  0  0  0  0  0  0  0  0  0  0  0
   62.9709   34.8609   46.5197 H   0  0  0  0  0  0  0  0  0  0  0  0
   60.7845   33.7368   46.1406 H   0  0  0  0  0  0  0  0  0  0  0  0
   58.9689   32.8673   46.1662 H   0  0  0  0  0  0  0  0  0  0  0  0
   59.5899   31.5708   45.0371 H   0  0  0  0  0  0  0  0  0  0  0  0
   57.1409   31.5197   46.8177 H   0  0  0  0  0  0  0  0  0  0  0  0
   57.2725   31.3128   45.0214 H   0  0  0  0  0  0  0  0  0  0  0  0
  1  2  2  0
  2  3  1  0
  3  4  1  0
  4  5  1  0
  5  6  1  0
  6  7  2  0
  6  8  1  0
  8  9  1  0
  9 10  1  0
  2 11  1  0
 11 12  1  0
 12 13  1  0
 13 14  1  0
 14 15  1  0
 15 16  2  0
 16 17  1  0
 17 18  2  0
 18 19  1  0
 19 20  2  0
 14 21  1  0
 21 22  1  0
  9  4  2  0
 22 11  1  0
 20 15  1  0
  3 23  1  0
  3 24  1  0
 11 25  1  0
 12 26  1  0
 12 27  1  0
 13 28  1  0
 13 29  1  0
 16 30  1  0
 17 31  1  0
 18 32  1  0
 19 33  1  0
 20 34  1  0
 21 35  1  0
 21 36  1  0
 22 37  1  0
 22 38  1  0
M  CHG  4   5  -1   8  -1  10  -1  11   1
M  END
>  <UniqueID>  (2) 
2

>  <SMILES>  (2) 
O=C(Cc1[n-]c(=O)[n-]c1[O-])[NH+]1CCN(c2ccccc2)CC1

>  <Energy>  (2) 
81.62134792206488

>  <Genealogy>  (2) 
O=C(Cc1[n-]c(=O)[n-]c1[O-])[NH+]1CCN(c2ccccc2)CC1 (protonated)
O=C(Cc1[n-]c(=O)[n-]c1[O-])[NH+]1CCN(c2ccccc2)CC1 (3D coordinates assigned)
O=C(Cc1[n-]c(=O)[n-]c1[O-])[NH+]1CCN(c2ccccc2)CC1 (nonaromatic ring conformer: 81.62134792206488 kcal/mol)

>  <smiles>  (2) 
O=C(Cc1[nH]c(=O)[nH]c1O)N1CCN(c2ccccc2)CC1

>  <score_type>  (2) 
oracle

>  <origin>  (2) 
adg

>  <m_score__min__energy>  (2) 
-14.07

>  <m_primary>  (2) 
energy

$$$$
2:0
     RDKit          3D

 34 35  0  0  0  0  0  0  0  0999 V2000
   57.3710   32.3490   40.7750 C   0  0  0  0  0  0  0  0  0  0  0  0
   57.9600   31.9700   42.1300 C   0  0  0  0  0  0  0  0  0  0  0  0
   57.1100   31.0440   42.8050 O   0  0  0  0  0  0  0  0  0  0  0  0
   56.6950   31.2060   44.1310 C   0  0  0  0  0  0  0  0  0  0  0  0
   55.5500   30.8150   44.4900 O   0  0  0  0  0  0  0  0  0  0  0  0
   57.5910   31.8750   45.1000 C   0  0  0  0  0  0  0  0  0  0  0  0
   57.8770   33.2400   44.9220 C   0  0  0  0  0  0  0  0  0  0  0  0
   58.6320   33.9380   45.8670 C   0  0  0  0  0  0  0  0  0  0  0  0
   59.1070   33.2850   47.0030 C   0  0  0  0  0  0  0  0  0  0  0  0
   58.8510   31.9260   47.1870 C   0  0  0  0  0  0  0  0  0  0  0  0
   58.1240   31.2030   46.2320 C   0  0  0  0  0  0  0  0  0  0  0  0
   57.9640   29.7920   46.4320 N   0  0  0  0  0  0  0  0  0  0  0  0
   58.5160   28.7920   45.5680 C   0  0  0  0  0  0  0  0  0  0  0  0
   58.8870   29.0880   44.4000 O   0  0  0  0  0  0  0  0  0  0  0  0
   58.7160   27.4030   46.0810 C   0  0  0  0  0  0  0  0  0  0  0  0
   57.3980   26.7020   46.1950 C   0  0  0  0  0  0  0  0  0  0  0  0
   57.2560   25.4470   46.6590 N   0  0  0  0  0  0  0  0  0  0  0  0
   55.9320   25.2140   46.5270 C   0  0  0  0  0  0  0  0  0  0  0  0
   55.3990   24.1270   46.8670 O   0  0  0  0  0  0  0  0  0  0  0  0
   55.2260   26.2360   45.9980 N   0  0  0  0  0  0  0  0  0  0  0  0
   56.1680   27.1700   45.7860 C   0  0  0  0  0  0  0  0  0  0  0  0
   55.8980   28.4160   45.2270 O   0  0  0  0  0  0  0  0  0  0  0  0
   56.4547   32.9386   40.9255 H   0  0  0  0  0  0  0  0  0  0  0  0
   58.1028   32.9461   40.2112 H   0  0  0  0  0  0  0  0  0  0  0  0
   57.1308   31.4356   40.2112 H   0  0  0  0  0  0  0  0  0  0  0  0
   58.9479   31.5104   41.9791 H   0  0  0  0  0  0  0  0  0  0  0  0
   58.0530   32.8785   42.7432 H   0  0  0  0  0  0  0  0  0  0  0  0
   57.5025   33.7632   44.0298 H   0  0  0  0  0  0  0  0  0  0  0  0
   58.8522   35.0049   45.7145 H   0  0  0  0  0  0  0  0  0  0  0  0
   59.6845   33.8419   47.7555 H   0  0  0  0  0  0  0  0  0  0  0  0
   59.2229   31.4180   48.0890 H   0  0  0  0  0  0  0  0  0  0  0  0
   59.3642   26.8484   45.3865 H   0  0  0  0  0  0  0  0  0  0  0  0
   59.1858   27.4502   47.0745 H   0  0  0  0  0  0  0  0  0  0  0  0
   56.6390   29.0150   44.8860 H   0  0  0  0  0  0  0  0  0  0  0  0
  1  2  1  0
  2  3  1  0
  3  4  1  0
  4  5  2  0
  4  6  1  0
  6  7  2  0
  7  8  1  0
  8  9  2  0
  9 10  1  0
 10 11  2  0
 11 12  1  0
 12 13  1  0
 13 14  2  0
 13 15  1  0
 15 16  1  0
 16 17  1  0
 17 18  1  0
 18 19  2  0
 18 20  1  0
 20 21  1  0
 21 22  1  0
 11  6  1  0
 21 16  2  0
  1 23  1  0
  1 24  1  0
  1 25  1  0
  2 26  1  0
  2 27  1  0
  7 28  1  0
  8 29  1  0
  9 30  1  0
 10 31  1  0
 15 32  1  0
 15 33  1  0
 22 34  1  0
M  CHG  3  12  -1  17  -1  20  -1
M  END
>  <UniqueID>  (3) 
3

>  <SMILES>  (3) 
CCOC(=O)c1ccccc1[N-]C(=O)Cc1[n-]c(=O)[n-]c1O

>  <Energy>  (3) 
65.85844730207741

>  <Genealogy>  (3) 
CCOC(=O)c1ccccc1[N-]C(=O)Cc1[n-]c(=O)[n-]c1O (protonated)
CCOC(=O)c1ccccc1[N-]C(=O)Cc1[n-]c(=O)[n-]c1O (3D coordinates assigned)
CCOC(=O)c1ccccc1[N-]C(=O)Cc1[n-]c(=O)[n-]c1O (optimized conformer: 65.85844730207741 kcal/mol)

>  <smiles>  (3) 
CCOC(=O)c1ccccc1NC(=O)Cc1[nH]c(=O)[nH]c1O

>  <score_type>  (3) 
oracle

>  <origin>  (3) 
adg

>  <m_score__min__energy>  (3) 
-12.630000000000001

>  <m_primary>  (3) 
energy

$$$$
3:0
     RDKit          3D

 47 49  0  0  0  0  0  0  0  0999 V2000
   65.0160   32.7280   49.7210 C   0  0  0  0  0  0  0  0  0  0  0  0
   63.6450   32.9990   49.4550 O   0  0  0  0  0  0  0  0  0  0  0  0
   62.7210   32.0430   49.0060 C   0  0  0  0  0  0  0  0  0  0  0  0
   61.8840   31.3400   49.8950 C   0  0  0  0  0  0  0  0  0  0  0  0
   60.9630   30.4090   49.4130 C   0  0  0  0  0  0  0  0  0  0  0  0
   60.8720   30.1570   48.0410 C   0  0  0  0  0  0  0  0  0  0  0  0
   59.6570   29.0590   47.4030 S   0  0  0  0  0  0  0  0  0  0  0  0
   60.1630   28.4610   46.1220 O   0  0  0  0  0  0  0  0  0  0  0  0
   59.3590   27.9510   48.3740 O   0  0  0  0  0  0  0  0  0  0  0  0
   58.2210   29.9730   47.0850 N   0  0  0  0  0  0  0  0  0  0  0  0
   57.9390   30.4890   45.7800 C   0  0  0  0  0  0  0  0  0  0  0  0
   58.1000   31.8630   45.5330 C   0  0  0  0  0  0  0  0  0  0  0  0
   57.8200   32.3940   44.2760 C   0  0  0  0  0  0  0  0  0  0  0  0
   57.3800   31.5610   43.2500 C   0  0  0  0  0  0  0  0  0  0  0  0
   57.2240   30.1920   43.4740 C   0  0  0  0  0  0  0  0  0  0  0  0
   57.5000   29.6300   44.7380 C   0  0  0  0  0  0  0  0  0  0  0  0
   57.3870   28.1560   44.9160 C   0  0  0  0  0  0  0  0  0  0  0  0
   58.2670   27.3880   44.4440 O   0  0  0  0  0  0  0  0  0  0  0  0
   56.2600   27.6100   45.6240 N   0  0  0  0  0  0  0  0  0  0  0  0
   56.0410   26.3600   45.9120 C   0  0  0  0  0  0  0  0  0  0  0  0
   54.8330   25.7810   45.6510 N   0  0  0  0  0  0  0  0  0  0  0  0
   54.5730   24.4840   45.9620 C   0  0  0  0  0  0  0  0  0  0  0  0
   55.5530   23.6990   46.5690 C   0  0  0  0  0  0  0  0  0  0  0  0
   56.7970   24.2610   46.8470 C   0  0  0  0  0  0  0  0  0  0  0  0
   57.0520   25.5970   46.5270 C   0  0  0  0  0  0  0  0  0  0  0  0
   58.3030   26.1390   46.8290 O   0  0  0  0  0  0  0  0  0  0  0  0
   61.7030   30.8470   47.1530 C   0  0  0  0  0  0  0  0  0  0  0  0
   62.6290   31.7960   47.6270 C   0  0  0  0  0  0  0  0  0  0  0  0
   63.4630   32.5180   46.7600 O   0  0  0  0  0  0  0  0  0  0  0  0
   63.2400   33.8690   46.3690 C   0  0  0  0  0  0  0  0  0  0  0  0
   65.1791   32.6958   50.8084 H   0  0  0  0  0  0  0  0  0  0  0  0
   65.2903   31.7583   49.2802 H   0  0  0  0  0  0  0  0  0  0  0  0
   65.6386   33.5204   49.2802 H   0  0  0  0  0  0  0  0  0  0  0  0
   61.9570   31.5263   50.9766 H   0  0  0  0  0  0  0  0  0  0  0  0
   60.3071   29.8722   50.1142 H   0  0  0  0  0  0  0  0  0  0  0  0
   58.4500   32.5247   46.3390 H   0  0  0  0  0  0  0  0  0  0  0  0
   57.9464   33.4714   44.0936 H   0  0  0  0  0  0  0  0  0  0  0  0
   57.1546   31.9834   42.2597 H   0  0  0  0  0  0  0  0  0  0  0  0
   56.8815   29.5432   42.6544 H   0  0  0  0  0  0  0  0  0  0  0  0
   53.5872   24.0522   45.7345 H   0  0  0  0  0  0  0  0  0  0  0  0
   55.3463   22.6494   46.8250 H   0  0  0  0  0  0  0  0  0  0  0  0
   57.5809   23.6512   47.3199 H   0  0  0  0  0  0  0  0  0  0  0  0
   58.5620   27.0830   46.5670 H   0  0  0  0  0  0  0  0  0  0  0  0
   61.6327   30.6465   46.0737 H   0  0  0  0  0  0  0  0  0  0  0  0
   63.1362   34.4978   47.2656 H   0  0  0  0  0  0  0  0  0  0  0  0
   64.0919   34.2227   45.7697 H   0  0  0  0  0  0  0  0  0  0  0  0
   62.3196   33.9301   45.7697 H   0  0  0  0  0  0  0  0  0  0  0  0
  1  2  1  0
  2  3  1  0
  3  4  2  0
  4  5  1  0
  5  6  2  0
  6  7  1  0
  7  8  2  0
  7  9  2  0
  7 10  1  0
 10 11  1  0
 11 12  2  0
 12 13  1  0
 13 14  2  0
 14 15  1  0
 15 16  2  0
 16 17  1  0
 17 18  2  0
 17 19  1  0
 19 20  2  3
 20 21  1  0
 21 22  1  0
 22 23  2  0
 23 24  1  0
 24 25  2  0
 25 26  1  0
  6 27  1  0
 27 28  2  0
 28 29  1  0
 29 30  1  0
 28  3  1  0
 16 11  1  0
 25 20  1  0
  1 31  1  0
  1 32  1  0
  1 33  1  0
  4 34  1  0
  5 35  1  0
 12 36  1  0
 13 37  1  0
 14 38  1  0
 15 39  1  0
 22 40  1  0
 23 41  1  0
 24 42  1  0
 26 43  1  0
 27 44  1  0
 30 45  1  0
 30 46  1  0
 30 47  1  0
M  CHG  2  10  -1  21  -1
M  END
>  <UniqueID>  (4) 
4

>  <SMILES>  (4) 
COc1ccc(S(=O)(=O)[N-]c2ccccc2C(=O)N=c2[n-]cccc2O)cc1OC

>  <Energy>  (4) 
61.13735762613468

>  <Genealogy>  (4) 
COc1ccc(S(=O)(=O)[N-]c2ccccc2C(=O)N=c2[n-]cccc2O)cc1OC (protonated)
COc1ccc(S(=O)(=O)[N-]c2ccccc2C(=O)N=c2[n-]cccc2O)cc1OC (3D coordinates assigned)
COc1ccc(S(=O)(=O)[N-]c2ccccc2C(=O)N=c2[n-]cccc2O)cc1OC (optimized conformer: 61.13735762613468 kcal/mol)

>  <smiles>  (4) 
COc1ccc(S(=O)(=O)Nc2ccccc2C(=O)N=c2[nH]cccc2O)cc1OC

>  <score_type>  (4) 
oracle

>  <origin>  (4) 
adg

>  <m_score__min__energy>  (4) 
-11.75

>  <m_primary>  (4) 
energy

$$$$
4:0
     RDKit          3D

 35 37  0  0  0  0  0  0  0  0999 V2000
   57.0220   22.2340   47.9500 O   0  0  0  0  0  0  0  0  0  0  0  0
   57.3830   22.9840   47.0040 C   0  0  0  0  0  0  0  0  0  0  0  0
   57.7130   24.3500   47.2870 N   0  0  0  0  0  0  0  0  0  0  0  0
   57.2170   25.3830   46.6730 C   0  0  0  0  0  0  0  0  0  0  0  0
   55.8870   25.5620   46.5230 N   0  0  0  0  0  0  0  0  0  0  0  0
   55.5780   26.7140   45.9310 N   0  0  0  0  0  0  0  0  0  0  0  0
   56.6610   27.4550   45.6090 C   0  0  0  0  0  0  0  0  0  0  0  0
   56.5690   29.0430   44.8750 S   0  0  0  0  0  0  0  0  0  0  0  0
   57.0130   28.9610   43.4410 O   0  0  0  0  0  0  0  0  0  0  0  0
   55.1380   29.5040   44.9080 O   0  0  0  0  0  0  0  0  0  0  0  0
   57.5510   30.1800   45.7560 N   0  0  0  0  0  0  0  0  0  0  0  0
   58.0720   31.2340   44.8830 C   0  0  0  0  0  0  0  0  0  0  0  0
   58.5020   32.4330   45.6830 C   0  0  0  0  0  0  0  0  0  0  0  0
   58.5910   32.3510   47.0820 C   0  0  0  0  0  0  0  0  0  0  0  0
   58.9830   33.4660   47.8290 C   0  0  0  0  0  0  0  0  0  0  0  0
   59.3050   34.6630   47.1830 C   0  0  0  0  0  0  0  0  0  0  0  0
   59.2270   34.7500   45.7910 C   0  0  0  0  0  0  0  0  0  0  0  0
   58.8220   33.6410   45.0410 C   0  0  0  0  0  0  0  0  0  0  0  0
   58.0930   26.6970   46.0670 S   0  0  0  0  0  0  0  0  0  0  0  0
   57.3890   22.4530   45.6300 C   0  0  0  0  0  0  0  0  0  0  0  0
   58.4710   21.8670   44.9990 C   0  0  0  0  0  0  0  0  0  0  0  0
   58.0520   21.5470   43.7280 C   0  0  0  0  0  0  0  0  0  0  0  0
   56.7430   21.9670   43.6530 C   0  0  0  0  0  0  0  0  0  0  0  0
   55.9390   21.8380   42.5270 O   0  0  0  0  0  0  0  0  0  0  0  0
   56.3250   22.5280   44.8050 N   0  0  0  0  0  0  0  0  0  0  0  0
   58.9366   30.8446   44.3255 H   0  0  0  0  0  0  0  0  0  0  0  0
   57.2743   31.5421   44.1911 H   0  0  0  0  0  0  0  0  0  0  0  0
   58.3515   31.4063   47.5920 H   0  0  0  0  0  0  0  0  0  0  0  0
   59.0380   33.4012   48.9257 H   0  0  0  0  0  0  0  0  0  0  0  0
   59.6201   35.5374   47.7714 H   0  0  0  0  0  0  0  0  0  0  0  0
   59.4844   35.6917   45.2841 H   0  0  0  0  0  0  0  0  0  0  0  0
   58.7539   33.7149   43.9456 H   0  0  0  0  0  0  0  0  0  0  0  0
   59.4686   21.6915   45.4280 H   0  0  0  0  0  0  0  0  0  0  0  0
   58.6399   21.0579   42.9373 H   0  0  0  0  0  0  0  0  0  0  0  0
   56.1840   22.3010   41.6610 H   0  0  0  0  0  0  0  0  0  0  0  0
  1  2  2  0
  2  3  1  0
  3  4  2  3
  4  5  1  0
  5  6  1  0
  6  7  2  0
  7  8  1  0
  8  9  2  0
  8 10  2  0
  8 11  1  0
 11 12  1  0
 12 13  1  0
 13 14  2  0
 14 15  1  0
 15 16  2  0
 16 17  1  0
 17 18  2  0
  7 19  1  0
  2 20  1  0
 20 21  2  0
 21 22  1  0
 22 23  2  0
 23 24  1  0
 23 25  1  0
 19  4  1  0
 25 20  1  0
 18 13  1  0
 12 26  1  0
 12 27  1  0
 14 28  1  0
 15 29  1  0
 16 30  1  0
 17 31  1  0
 18 32  1  0
 21 33  1  0
 22 34  1  0
 24 35  1  0
M  CHG  3   5  -1  11  -1  25  -1
M  END
>  <UniqueID>  (5) 
5

>  <SMILES>  (5) 
O=C(N=c1[n-]nc(S(=O)(=O)[N-]Cc2ccccc2)s1)c1ccc(O)[n-]1

>  <Energy>  (5) 
98.67052038736969

>  <Genealogy>  (5) 
O=C(N=c1[n-]nc(S(=O)(=O)[N-]Cc2ccccc2)s1)c1ccc(O)[n-]1 (protonated)
O=C(N=c1[n-]nc(S(=O)(=O)[N-]Cc2ccccc2)s1)c1ccc(O)[n-]1 (3D coordinates assigned)
O=C(N=c1[n-]nc(S(=O)(=O)[N-]Cc2ccccc2)s1)c1ccc(O)[n-]1 (optimized conformer: 98.67052038736969 kcal/mol)

>  <smiles>  (5) 
O=C(N=c1[nH]nc(S(=O)(=O)NCc2ccccc2)s1)c1ccc(O)[nH]1

>  <score_type>  (5) 
oracle

>  <origin>  (5) 
adg

>  <m_score__min__energy>  (5) 
-13.83

>  <m_primary>  (5) 
energy

$$$$
5:0
     RDKit          3D

 39 41  0  0  0  0  0  0  0  0999 V2000
   55.1280   27.3360   46.0530 H   0  0  0  0  0  0  0  0  0  0  0  0
   54.8130   26.3430   46.0040 N   0  0  0  0  0  0  0  0  0  0  0  0
   55.7580   25.2770   45.9520 C   0  0  0  0  0  0  0  0  0  0  0  0
   55.5470   24.2950   45.1920 O   0  0  0  0  0  0  0  0  0  0  0  0
   56.9940   25.3510   46.7540 C   0  0  0  0  0  0  0  0  0  0  0  0
   57.0180   24.8060   47.8890 O   0  0  0  0  0  0  0  0  0  0  0  0
   58.1470   26.0830   46.3130 N   0  0  0  0  0  0  0  0  0  0  0  0
   58.2090   27.3710   46.1480 C   0  0  0  0  0  0  0  0  0  0  0  0
   57.1650   28.1250   45.7320 N   0  0  0  0  0  0  0  0  0  0  0  0
   57.6890   29.3610   45.6690 C   0  0  0  0  0  0  0  0  0  0  0  0
   56.9980   30.5060   45.2530 O   0  0  0  0  0  0  0  0  0  0  0  0
   57.5140   31.8100   45.2800 C   0  0  0  0  0  0  0  0  0  0  0  0
   57.4870   32.6050   46.4410 C   0  0  0  0  0  0  0  0  0  0  0  0
   57.0451   32.2084   47.3670 H   0  0  0  0  0  0  0  0  0  0  0  0
   58.0200   33.8970   46.4210 C   0  0  0  0  0  0  0  0  0  0  0  0
   57.9876   34.5179   47.3284 H   0  0  0  0  0  0  0  0  0  0  0  0
   58.5940   34.4020   45.2510 C   0  0  0  0  0  0  0  0  0  0  0  0
   59.0058   35.4219   45.2352 H   0  0  0  0  0  0  0  0  0  0  0  0
   58.6440   33.6090   44.1010 C   0  0  0  0  0  0  0  0  0  0  0  0
   59.1023   34.0025   43.1817 H   0  0  0  0  0  0  0  0  0  0  0  0
   58.1120   32.3160   44.1180 C   0  0  0  0  0  0  0  0  0  0  0  0
   58.1632   31.6920   43.2135 H   0  0  0  0  0  0  0  0  0  0  0  0
   59.0160   29.3250   46.0220 C   0  0  0  0  0  0  0  0  0  0  0  0
   59.9310   30.4780   46.0580 C   0  0  0  0  0  0  0  0  0  0  0  0
   59.9854   31.1436   45.1840 H   0  0  0  0  0  0  0  0  0  0  0  0
   60.6980   30.7400   47.1220 C   0  0  0  0  0  0  0  0  0  0  0  0
   61.6274   30.1688   47.2632 H   0  0  0  0  0  0  0  0  0  0  0  0
   60.3340   31.7750   48.1150 C   0  0  0  0  0  0  0  0  0  0  0  0
   60.8960   33.0660   48.0070 C   0  0  0  0  0  0  0  0  0  0  0  0
   61.9970   33.4890   46.6980 Cl  0  0  0  0  0  0  0  0  0  0  0  0
   60.5620   34.0570   48.9360 C   0  0  0  0  0  0  0  0  0  0  0  0
   60.9965   35.0632   48.8426 H   0  0  0  0  0  0  0  0  0  0  0  0
   59.6810   33.7760   49.9800 C   0  0  0  0  0  0  0  0  0  0  0  0
   59.4142   34.5630   50.7007 H   0  0  0  0  0  0  0  0  0  0  0  0
   59.1380   32.4980   50.1110 C   0  0  0  0  0  0  0  0  0  0  0  0
   58.4518   32.2786   50.9422 H   0  0  0  0  0  0  0  0  0  0  0  0
   59.4600   31.4940   49.1930 C   0  0  0  0  0  0  0  0  0  0  0  0
   58.8120   29.8800   49.4780 Cl  0  0  0  0  0  0  0  0  0  0  0  0
   59.3570   28.0590   46.3270 N   0  0  0  0  0  0  0  0  0  0  0  0
  1  2  1  0
  2  3  1  0
  3  4  2  0
  3  5  1  0
  5  6  2  0
  5  7  1  0
  7  8  2  0
  8  9  1  0
  9 10  1  0
 10 11  1  0
 11 12  1  0
 12 13  2  0
 13 14  1  0
 13 15  1  0
 15 16  1  0
 15 17  2  0
 17 18  1  0
 17 19  1  0
 19 20  1  0
 19 21  2  0
 21 22  1  0
 10 23  2  0
 23 24  1  0
 24 25  1  0
 24 26  2  3
 26 27  1  0
 26 28  1  0
 28 29  2  0
 29 30  1  0
 29 31  1  0
 31 32  1  0
 31 33  2  0
 33 34  1  0
 33 35  1  0
 35 36  1  0
 35 37  2  0
 37 38  1  0
 23 39  1  0
 39  8  1  0
 21 12  1  0
 37 28  1  0
M  CHG  3   2  -1   9  -1  39  -1
M  END
>  <UniqueID>  (6) 
6

>  <SMILES>  (6) 
[NH-]C(=O)C(=O)/N=c1/[n-]c(C=Cc2c(Cl)cccc2Cl)c(Oc2ccccc2)[n-]1

>  <Energy>  (6) 
85.1242019732439

>  <Genealogy>  (6) 
[NH-]C(=O)C(=O)N=c1[n-]c(C=Cc2c(Cl)cccc2Cl)c(Oc2ccccc2)[n-]1 (protonated)
[NH-]C(=O)C(=O)/N=c1/[n-]c(C=Cc2c(Cl)cccc2Cl)c(Oc2ccccc2)[n-]1 (cis-trans isomerization)
[NH-]C(=O)C(=O)/N=c1/[n-]c(C=Cc2c(Cl)cccc2Cl)c(Oc2ccccc2)[n-]1 (3D coordinates assigned)
[NH-]C(=O)C(=O)/N=c1/[n-]c(C=Cc2c(Cl)cccc2Cl)c(Oc2ccccc2)[n-]1 (optimized conformer: 85.1242019732439 kcal/mol)

>  <smiles>  (6) 
NC(=O)C(=O)N=c1[nH]c(C=Cc2c(Cl)cccc2Cl)c(Oc2ccccc2)[nH]1

>  <score_type>  (6) 
oracle

>  <origin>  (6) 
adg

>  <m_score__min__energy>  (6) 
-14.109999999999999

>  <m_primary>  (6) 
energy

$$$$
6:0
     RDKit          3D

 68 70  0  0  0  0  0  0  0  0999 V2000
   57.8340   29.7800   44.1020 C   0  0  0  0  0  0  0  0  0  0  0  0
   58.1640   28.4890   44.7180 N   0  0  0  0  0  0  0  0  0  0  0  0
   58.1800   27.4310   43.7010 C   0  0  0  0  0  0  0  0  0  0  0  0
   59.7250   28.5890   45.4970 S   0  0  0  0  0  0  0  0  0  0  0  0
   60.7210   29.1940   44.5450 O   0  0  0  0  0  0  0  0  0  0  0  0
   60.1980   27.2060   45.8460 O   0  0  0  0  0  0  0  0  0  0  0  0
   59.6590   29.5700   46.9620 C   0  0  0  0  0  0  0  0  0  0  0  0
   60.3990   29.2000   48.0920 C   0  0  0  0  0  0  0  0  0  0  0  0
   60.3190   29.9580   49.2620 C   0  0  0  0  0  0  0  0  0  0  0  0
   59.5080   31.1020   49.3190 C   0  0  0  0  0  0  0  0  0  0  0  0
   59.3420   31.7790   50.5770 N   0  0  0  0  0  0  0  0  0  0  0  0
   59.6270   33.2150   50.6700 C   0  0  0  0  0  0  0  0  0  0  0  0
   58.8950   33.8200   51.8680 C   0  0  0  0  0  0  0  0  0  0  0  0
   57.5920   33.2790   51.9340 O   0  0  0  0  0  0  0  0  0  0  0  0
   57.6330   31.9320   52.3800 C   0  0  0  0  0  0  0  0  0  0  0  0
   58.7480   31.0820   51.7250 C   0  0  0  0  0  0  0  0  0  0  0  0
   58.7900   31.4970   48.1660 C   0  0  0  0  0  0  0  0  0  0  0  0
   57.9690   32.6710   48.1440 N   0  0  0  0  0  0  0  0  0  0  0  0
   57.7810   33.5140   47.0000 C   0  0  0  0  0  0  0  0  0  0  0  0
   56.8510   33.2780   46.1830 O   0  0  0  0  0  0  0  0  0  0  0  0
   58.6750   34.6960   46.7730 C   0  0  0  0  0  0  0  0  0  0  0  0
   59.8830   34.6030   47.5920 N   0  0  0  0  0  0  0  0  0  0  0  0
   61.0540   33.8950   47.1500 C   0  0  0  0  0  0  0  0  0  0  0  0
   61.1230   33.4840   45.9590 O   0  0  0  0  0  0  0  0  0  0  0  0
   62.1700   33.6030   48.0800 C   0  0  0  0  0  0  0  0  0  0  0  0
   63.0940   32.5960   47.7670 C   0  0  0  0  0  0  0  0  0  0  0  0
   64.1430   32.2960   48.6400 C   0  0  0  0  0  0  0  0  0  0  0  0
   64.3090   32.9990   49.8530 C   0  0  0  0  0  0  0  0  0  0  0  0
   65.4750   32.6300   50.7930 C   0  0  0  0  0  0  0  0  0  0  0  0
   66.8630   32.7780   50.1260 C   0  0  0  0  0  0  0  0  0  0  0  0
   65.4500   33.5540   52.0310 C   0  0  0  0  0  0  0  0  0  0  0  0
   65.3260   31.1610   51.2470 C   0  0  0  0  0  0  0  0  0  0  0  0
   63.3810   34.0250   50.1490 C   0  0  0  0  0  0  0  0  0  0  0  0
   62.3310   34.3210   49.2740 C   0  0  0  0  0  0  0  0  0  0  0  0
   58.8540   30.7130   47.0080 C   0  0  0  0  0  0  0  0  0  0  0  0
   57.6438   30.5241   44.8895 H   0  0  0  0  0  0  0  0  0  0  0  0
   58.6756   30.1141   43.4775 H   0  0  0  0  0  0  0  0  0  0  0  0
   56.9353   29.6692   43.4775 H   0  0  0  0  0  0  0  0  0  0  0  0
   58.1949   26.4481   44.1946 H   0  0  0  0  0  0  0  0  0  0  0  0
   57.2805   27.5124   43.0731 H   0  0  0  0  0  0  0  0  0  0  0  0
   59.0766   27.5395   43.0731 H   0  0  0  0  0  0  0  0  0  0  0  0
   61.0448   28.3102   48.0578 H   0  0  0  0  0  0  0  0  0  0  0  0
   60.8972   29.6556   50.1476 H   0  0  0  0  0  0  0  0  0  0  0  0
   60.7100   33.3637   50.7925 H   0  0  0  0  0  0  0  0  0  0  0  0
   59.2826   33.7104   49.7503 H   0  0  0  0  0  0  0  0  0  0  0  0
   59.4407   33.5805   52.7926 H   0  0  0  0  0  0  0  0  0  0  0  0
   58.8376   34.9126   51.7544 H   0  0  0  0  0  0  0  0  0  0  0  0
   57.7941   31.9334   53.4681 H   0  0  0  0  0  0  0  0  0  0  0  0
   56.6752   31.4739   52.0923 H   0  0  0  0  0  0  0  0  0  0  0  0
   59.5328   30.8842   52.4700 H   0  0  0  0  0  0  0  0  0  0  0  0
   58.3046   30.1402   51.3694 H   0  0  0  0  0  0  0  0  0  0  0  0
   58.9616   34.7319   45.7116 H   0  0  0  0  0  0  0  0  0  0  0  0
   58.1290   35.6083   47.0552 H   0  0  0  0  0  0  0  0  0  0  0  0
   59.7920   34.8710   48.5980 H   0  0  0  0  0  0  0  0  0  0  0  0
   62.9922   32.0368   46.8252 H   0  0  0  0  0  0  0  0  0  0  0  0
   64.8524   31.4975   48.3773 H   0  0  0  0  0  0  0  0  0  0  0  0
   67.6366   32.8605   50.9037 H   0  0  0  0  0  0  0  0  0  0  0  0
   67.0649   31.8963   49.5000 H   0  0  0  0  0  0  0  0  0  0  0  0
   66.8744   33.6825   49.5000 H   0  0  0  0  0  0  0  0  0  0  0  0
   65.4665   32.9426   52.9453 H   0  0  0  0  0  0  0  0  0  0  0  0
   66.3306   34.2129   52.0146 H   0  0  0  0  0  0  0  0  0  0  0  0
   64.5350   34.1644   52.0146 H   0  0  0  0  0  0  0  0  0  0  0  0
   65.3214   31.1156   52.3461 H   0  0  0  0  0  0  0  0  0  0  0  0
   64.3817   30.7513   50.8591 H   0  0  0  0  0  0  0  0  0  0  0  0
   66.1688   30.5701   50.8591 H   0  0  0  0  0  0  0  0  0  0  0  0
   63.4870   34.5986   51.0816 H   0  0  0  0  0  0  0  0  0  0  0  0
   61.6239   35.1254   49.5248 H   0  0  0  0  0  0  0  0  0  0  0  0
   58.2646   30.9990   46.1243 H   0  0  0  0  0  0  0  0  0  0  0  0
  1  2  1  0
  2  3  1  0
  2  4  1  0
  4  5  2  0
  4  6  2  0
  4  7  1  0
  7  8  2  0
  8  9  1  0
  9 10  2  0
 10 11  1  0
 11 12  1  0
 12 13  1  0
 13 14  1  0
 14 15  1  0
 15 16  1  0
 10 17  1  0
 17 18  1  0
 18 19  1  0
 19 20  2  0
 19 21  1  0
 21 22  1  0
 22 23  1  0
 23 24  2  0
 23 25  1  0
 25 26  2  0
 26 27  1  0
 27 28  2  0
 28 29  1  0
 29 30  1  0
 29 31  1  0
 29 32  1  0
 28 33  1  0
 33 34  2  0
 17 35  2  0
 35  7  1  0
 16 11  1  0
 34 25  1  0
  1 36  1  0
  1 37  1  0
  1 38  1  0
  3 39  1  0
  3 40  1  0
  3 41  1  0
  8 42  1  0
  9 43  1  0
 12 44  1  0
 12 45  1  0
 13 46  1  0
 13 47  1  0
 15 48  1  0
 15 49  1  0
 16 50  1  0
 16 51  1  0
 21 52  1  0
 21 53  1  0
 22 54  1  0
 26 55  1  0
 27 56  1  0
 30 57  1  0
 30 58  1  0
 30 59  1  0
 31 60  1  0
 31 61  1  0
 31 62  1  0
 32 63  1  0
 32 64  1  0
 32 65  1  0
 33 66  1  0
 34 67  1  0
 35 68  1  0
M  CHG  1  18  -1
M  END
>  <UniqueID>  (7) 
7

>  <SMILES>  (7) 
CN(C)S(=O)(=O)c1ccc(N2CCOCC2)c([N-]C(=O)CNC(=O)c2ccc(C(C)(C)C)cc2)c1

>  <Energy>  (7) 
84.26872104153507

>  <Genealogy>  (7) 
CN(C)S(=O)(=O)c1ccc(N2CCOCC2)c([N-]C(=O)CNC(=O)c2ccc(C(C)(C)C)cc2)c1 (protonated)
CN(C)S(=O)(=O)c1ccc(N2CCOCC2)c([N-]C(=O)CNC(=O)c2ccc(C(C)(C)C)cc2)c1 (3D coordinates assigned)
CN(C)S(=O)(=O)c1ccc(N2CCOCC2)c([N-]C(=O)CNC(=O)c2ccc(C(C)(C)C)cc2)c1 (nonaromatic ring conformer: 84.26872104153507 kcal/mol)

>  <smiles>  (7) 
CN(C)S(=O)(=O)c1ccc(N2CCOCC2)c(NC(=O)CNC(=O)c2ccc(C(C)(C)C)cc2)c1

>  <score_type>  (7) 
oracle

>  <origin>  (7) 
adg

>  <m_score__min__energy>  (7) 
-10.470000000000001

>  <m_primary>  (7) 
energy

$$$$
7:0
     RDKit          3D

 42 45  0  0  0  0  0  0  0  0999 V2000
   63.7700   33.1250   47.1020 C   0  0  0  0  0  0  0  0  0  0  0  0
   62.6140   33.5630   47.9990 C   0  0  0  0  0  0  0  0  0  0  0  0
   61.3700   32.7660   47.6890 C   0  0  0  0  0  0  0  0  0  0  0  0
   61.2500   31.4600   48.1910 C   0  0  0  0  0  0  0  0  0  0  0  0
   60.1330   30.6820   47.8830 C   0  0  0  0  0  0  0  0  0  0  0  0
   59.1350   31.1810   47.0460 C   0  0  0  0  0  0  0  0  0  0  0  0
   59.2430   32.4750   46.5000 C   0  0  0  0  0  0  0  0  0  0  0  0
   58.2830   32.9970   45.5960 C   0  0  0  0  0  0  0  0  0  0  0  0
   57.1710   32.1880   45.0500 C   0  0  0  0  0  0  0  0  0  0  0  0
   57.3280   31.0980   44.2810 C   0  0  0  0  0  0  0  0  0  0  0  0
   56.2560   30.1470   43.9160 C   0  0  0  0  0  0  0  0  0  0  0  0
   55.8400   30.1330   42.7260 O   0  0  0  0  0  0  0  0  0  0  0  0
   55.7260   29.2300   44.8840 N   0  0  0  0  0  0  0  0  0  0  0  0
   56.2710   28.1130   45.2630 C   0  0  0  0  0  0  0  0  0  0  0  0
   57.6080   27.8700   45.2020 N   0  0  0  0  0  0  0  0  0  0  0  0
   57.6860   26.6020   45.6300 C   0  0  0  0  0  0  0  0  0  0  0  0
   58.8280   25.8150   45.7640 C   0  0  0  0  0  0  0  0  0  0  0  0
   58.6600   24.4930   46.2160 C   0  0  0  0  0  0  0  0  0  0  0  0
   57.3710   23.9970   46.5150 C   0  0  0  0  0  0  0  0  0  0  0  0
   56.2390   24.8220   46.3690 C   0  0  0  0  0  0  0  0  0  0  0  0
   56.4440   26.1250   45.9230 C   0  0  0  0  0  0  0  0  0  0  0  0
   55.5180   27.0690   45.6970 N   0  0  0  0  0  0  0  0  0  0  0  0
   58.4080   34.3200   45.1540 C   0  0  0  0  0  0  0  0  0  0  0  0
   59.5090   35.0830   45.5460 C   0  0  0  0  0  0  0  0  0  0  0  0
   59.6360   36.2660   45.1350 O   0  0  0  0  0  0  0  0  0  0  0  0
   60.4530   34.5470   46.3600 N   0  0  0  0  0  0  0  0  0  0  0  0
   60.3590   33.2790   46.8470 C   0  0  0  0  0  0  0  0  0  0  0  0
   64.6171   32.8040   47.7261 H   0  0  0  0  0  0  0  0  0  0  0  0
   63.4445   32.2879   46.4670 H   0  0  0  0  0  0  0  0  0  0  0  0
   64.0810   33.9676   46.4670 H   0  0  0  0  0  0  0  0  0  0  0  0
   62.8925   33.4039   49.0512 H   0  0  0  0  0  0  0  0  0  0  0  0
   62.4076   34.6280   47.8170 H   0  0  0  0  0  0  0  0  0  0  0  0
   62.0427   31.0469   48.8321 H   0  0  0  0  0  0  0  0  0  0  0  0
   60.0391   29.6696   48.3027 H   0  0  0  0  0  0  0  0  0  0  0  0
   58.2580   30.5601   46.8108 H   0  0  0  0  0  0  0  0  0  0  0  0
   56.1443   32.5010   45.2906 H   0  0  0  0  0  0  0  0  0  0  0  0
   58.3365   30.8962   43.8908 H   0  0  0  0  0  0  0  0  0  0  0  0
   59.8253   26.2129   45.5250 H   0  0  0  0  0  0  0  0  0  0  0  0
   59.5379   23.8414   46.3374 H   0  0  0  0  0  0  0  0  0  0  0  0
   57.2511   22.9607   46.8638 H   0  0  0  0  0  0  0  0  0  0  0  0
   55.2295   24.4505   46.5990 H   0  0  0  0  0  0  0  0  0  0  0  0
   57.6398   34.7570   44.4991 H   0  0  0  0  0  0  0  0  0  0  0  0
  1  2  1  0
  2  3  1  0
  3  4  2  0
  4  5  1  0
  5  6  2  0
  6  7  1  0
  7  8  1  0
  8  9  1  0
  9 10  2  3
 10 11  1  0
 11 12  2  0
 11 13  1  0
 13 14  2  3
 14 15  1  0
 15 16  1  0
 16 17  2  0
 17 18  1  0
 18 19  2  0
 19 20  1  0
 20 21  2  0
 21 22  1  0
  8 23  2  0
 23 24  1  0
 24 25  2  0
 24 26  1  0
 26 27  1  0
 27  3  1  0
 27  7  2  0
 22 14  1  0
 21 16  1  0
  1 28  1  0
  1 29  1  0
  1 30  1  0
  2 31  1  0
  2 32  1  0
  4 33  1  0
  5 34  1  0
  6 35  1  0
  9 36  1  0
 10 37  1  0
 17 38  1  0
 18 39  1  0
 19 40  1  0
 20 41  1  0
 23 42  1  0
M  CHG  3  15  -1  22  -1  26  -1
M  END
>  <UniqueID>  (8) 
8

>  <SMILES>  (8) 
CCc1cccc2c(C=CC(=O)N=c3[n-]c4ccccc4[n-]3)cc(=O)[n-]c12

>  <Energy>  (8) 
92.06505107381012

>  <Genealogy>  (8) 
CCc1cccc2c(C=CC(=O)N=c3[n-]c4ccccc4[n-]3)cc(=O)[n-]c12 (protonated)
CCc1cccc2c(C=CC(=O)N=c3[n-]c4ccccc4[n-]3)cc(=O)[n-]c12 (3D coordinates assigned)
CCc1cccc2c(C=CC(=O)N=c3[n-]c4ccccc4[n-]3)cc(=O)[n-]c12 (optimized conformer: 92.06505107381012 kcal/mol)

>  <smiles>  (8) 
CCc1cccc2c(C=CC(=O)N=c3[nH]c4ccccc4[nH]3)cc(=O)[nH]c12

>  <score_type>  (8) 
oracle

>  <origin>  (8) 
adg

>  <m_score__min__energy>  (8) 
-13.43

>  <m_primary>  (8) 
energy

$$$$
8:0
     RDKit          3D

 58 61  0  0  0  0  0  0  0  0999 V2000
   56.3210   30.7750   42.6020 O   0  0  0  0  0  0  0  0  0  0  0  0
   56.7890   30.2690   43.9370 S   0  0  0  0  0  0  0  0  0  0  0  0
   55.5960   29.8180   44.7310 O   0  0  0  0  0  0  0  0  0  0  0  0
   57.8600   28.9250   43.6930 N   0  0  0  0  0  0  0  0  0  0  0  0
   58.2780   28.0260   44.7380 C   0  0  0  0  0  0  0  0  0  0  0  0
   59.5500   28.1160   45.3360 C   0  0  0  0  0  0  0  0  0  0  0  0
   59.9200   27.2290   46.3510 C   0  0  0  0  0  0  0  0  0  0  0  0
   59.0340   26.2350   46.7710 C   0  0  0  0  0  0  0  0  0  0  0  0
   57.7730   26.1200   46.1740 C   0  0  0  0  0  0  0  0  0  0  0  0
   56.6650   24.8460   46.6840 S   0  0  0  0  0  0  0  0  0  0  0  0
   56.7660   24.6700   48.1740 O   0  0  0  0  0  0  0  0  0  0  0  0
   55.2520   25.2420   46.3470 O   0  0  0  0  0  0  0  0  0  0  0  0
   57.0920   23.3490   45.8940 N   0  0  0  0  0  0  0  0  0  0  0  0
   58.5310   23.2670   45.6450 C   0  0  0  0  0  0  0  0  0  0  0  0
   58.7130   22.3790   44.4210 C   0  0  0  0  0  0  0  0  0  0  0  0
   57.3510   22.3370   43.7440 C   0  0  0  0  0  0  0  0  0  0  0  0
   56.4630   23.2510   44.5760 C   0  0  0  0  0  0  0  0  0  0  0  0
   57.3970   27.0220   45.1670 C   0  0  0  0  0  0  0  0  0  0  0  0
   57.6210   31.5350   44.8350 C   0  0  0  0  0  0  0  0  0  0  0  0
   57.9680   31.3200   46.1750 C   0  0  0  0  0  0  0  0  0  0  0  0
   58.6600   32.3040   46.8880 C   0  0  0  0  0  0  0  0  0  0  0  0
   59.0080   33.5100   46.2670 C   0  0  0  0  0  0  0  0  0  0  0  0
   59.9340   34.7280   47.1410 S   0  0  0  0  0  0  0  0  0  0  0  0
   59.3140   34.9640   48.4910 O   0  0  0  0  0  0  0  0  0  0  0  0
   59.8960   36.0170   46.3670 O   0  0  0  0  0  0  0  0  0  0  0  0
   61.5890   34.2000   47.3170 N   0  0  0  0  0  0  0  0  0  0  0  0
   61.7510   32.8500   46.7530 C   0  0  0  0  0  0  0  0  0  0  0  0
   63.1320   32.2670   47.1180 C   0  0  0  0  0  0  0  0  0  0  0  0
   63.9710   33.2570   47.6810 O   0  0  0  0  0  0  0  0  0  0  0  0
   63.4190   33.7070   48.9050 C   0  0  0  0  0  0  0  0  0  0  0  0
   61.9690   34.2090   48.7380 C   0  0  0  0  0  0  0  0  0  0  0  0
   58.6610   33.7250   44.9270 C   0  0  0  0  0  0  0  0  0  0  0  0
   57.9650   32.7420   44.2150 C   0  0  0  0  0  0  0  0  0  0  0  0
   58.1660   28.7390   42.7140 H   0  0  0  0  0  0  0  0  0  0  0  0
   60.2571   28.8896   45.0020 H   0  0  0  0  0  0  0  0  0  0  0  0
   60.9114   27.3143   46.8199 H   0  0  0  0  0  0  0  0  0  0  0  0
   59.3274   25.5410   47.5724 H   0  0  0  0  0  0  0  0  0  0  0  0
   58.9399   24.2695   45.4504 H   0  0  0  0  0  0  0  0  0  0  0  0
   59.0606   22.8538   46.5161 H   0  0  0  0  0  0  0  0  0  0  0  0
   59.4662   22.8076   43.7435 H   0  0  0  0  0  0  0  0  0  0  0  0
   59.0642   21.3731   44.6948 H   0  0  0  0  0  0  0  0  0  0  0  0
   57.4227   22.7057   42.7101 H   0  0  0  0  0  0  0  0  0  0  0  0
   56.9508   21.3139   43.6891 H   0  0  0  0  0  0  0  0  0  0  0  0
   56.3981   24.2455   44.1104 H   0  0  0  0  0  0  0  0  0  0  0  0
   55.4399   22.8538   44.6505 H   0  0  0  0  0  0  0  0  0  0  0  0
   56.4003   26.9410   44.7088 H   0  0  0  0  0  0  0  0  0  0  0  0
   57.6955   30.3749   46.6675 H   0  0  0  0  0  0  0  0  0  0  0  0
   58.9318   32.1303   47.9396 H   0  0  0  0  0  0  0  0  0  0  0  0
   60.9648   32.1942   47.1552 H   0  0  0  0  0  0  0  0  0  0  0  0
   61.6729   32.9133   45.6576 H   0  0  0  0  0  0  0  0  0  0  0  0
   62.9973   31.4538   47.8464 H   0  0  0  0  0  0  0  0  0  0  0  0
   63.6053   31.8896   46.1996 H   0  0  0  0  0  0  0  0  0  0  0  0
   63.4257   32.8748   49.6244 H   0  0  0  0  0  0  0  0  0  0  0  0
   64.0299   34.5488   49.2630 H   0  0  0  0  0  0  0  0  0  0  0  0
   61.2897   33.5512   49.3000 H   0  0  0  0  0  0  0  0  0  0  0  0
   61.8987   35.2374   49.1219 H   0  0  0  0  0  0  0  0  0  0  0  0
   58.9363   34.6687   44.4334 H   0  0  0  0  0  0  0  0  0  0  0  0
   57.6874   32.9181   43.1653 H   0  0  0  0  0  0  0  0  0  0  0  0
  1  2  2  0
  2  3  2  0
  2  4  1  0
  4  5  1  0
  5  6  2  0
  6  7  1  0
  7  8  2  0
  8  9  1  0
  9 10  1  0
 10 11  2  0
 10 12  2  0
 10 13  1  0
 13 14  1  0
 14 15  1  0
 15 16  1  0
 16 17  1  0
  9 18  2  0
  2 19  1  0
 19 20  2  0
 20 21  1  0
 21 22  2  0
 22 23  1  0
 23 24  2  0
 23 25  2  0
 23 26  1  0
 26 27  1  0
 27 28  1  0
 28 29  1  0
 29 30  1  0
 30 31  1  0
 22 32  1  0
 32 33  2  0
 18  5  1  0
 33 19  1  0
 17 13  1  0
 31 26  1  0
  4 34  1  0
  6 35  1  0
  7 36  1  0
  8 37  1  0
 14 38  1  0
 14 39  1  0
 15 40  1  0
 15 41  1  0
 16 42  1  0
 16 43  1  0
 17 44  1  0
 17 45  1  0
 18 46  1  0
 20 47  1  0
 21 48  1  0
 27 49  1  0
 27 50  1  0
 28 51  1  0
 28 52  1  0
 30 53  1  0
 30 54  1  0
 31 55  1  0
 31 56  1  0
 32 57  1  0
 33 58  1  0
M  END
>  <UniqueID>  (9) 
9

>  <SMILES>  (9) 
O=S(=O)(Nc1cccc(S(=O)(=O)N2CCCC2)c1)c1ccc(S(=O)(=O)N2CCOCC2)cc1

>  <Energy>  (9) 
69.82987961451113

>  <Genealogy>  (9) 
O=S(=O)(Nc1cccc(S(=O)(=O)N2CCCC2)c1)c1ccc(S(=O)(=O)N2CCOCC2)cc1 (3D coordinates assigned)
O=S(=O)(Nc1cccc(S(=O)(=O)N2CCCC2)c1)c1ccc(S(=O)(=O)N2CCOCC2)cc1 (nonaromatic ring conformer: 69.82987961451113 kcal/mol)

>  <smiles>  (9) 
O=S(=O)(Nc1cccc(S(=O)(=O)N2CCCC2)c1)c1ccc(S(=O)(=O)N2CCOCC2)cc1

>  <score_type>  (9) 
oracle

>  <origin>  (9) 
adg

>  <m_score__min__energy>  (9) 
-12.08

>  <m_primary>  (9) 
energy

$$$$
9:0
     RDKit          3D

 37 38  0  0  0  0  0  0  0  0999 V2000
   58.8870   32.7700   48.9190 C   0  0  0  0  0  0  0  0  0  0  0  0
   58.8390   33.2400   47.4940 C   0  0  0  0  0  0  0  0  0  0  0  0
   59.2830   34.5270   47.1580 C   0  0  0  0  0  0  0  0  0  0  0  0
   59.2740   34.9490   45.8260 C   0  0  0  0  0  0  0  0  0  0  0  0
   58.8310   34.0870   44.8200 C   0  0  0  0  0  0  0  0  0  0  0  0
   58.3890   32.7930   45.1400 C   0  0  0  0  0  0  0  0  0  0  0  0
   57.9290   31.8630   44.0490 C   0  0  0  0  0  0  0  0  0  0  0  0
   56.9410   30.9560   44.5400 O   0  0  0  0  0  0  0  0  0  0  0  0
   57.1740   29.6160   44.8940 C   0  0  0  0  0  0  0  0  0  0  0  0
   58.4650   29.0560   44.9290 C   0  0  0  0  0  0  0  0  0  0  0  0
   58.6450   27.7200   45.2930 C   0  0  0  0  0  0  0  0  0  0  0  0
   57.5430   26.9140   45.6140 C   0  0  0  0  0  0  0  0  0  0  0  0
   57.7610   25.4830   46.0370 C   0  0  0  0  0  0  0  0  0  0  0  0
   57.3880   25.2940   47.5100 C   0  0  0  0  0  0  0  0  0  0  0  0
   56.6460   24.0090   47.7020 C   0  0  0  0  0  0  0  0  0  0  0  0
   55.4520   23.9040   47.3160 O   0  0  0  0  0  0  0  0  0  0  0  0
   57.2880   22.9130   48.2640 O   0  0  0  0  0  0  0  0  0  0  0  0
   56.2510   27.4730   45.5880 C   0  0  0  0  0  0  0  0  0  0  0  0
   55.1430   26.7030   45.9270 O   0  0  0  0  0  0  0  0  0  0  0  0
   56.0720   28.8140   45.2240 C   0  0  0  0  0  0  0  0  0  0  0  0
   54.7920   29.3550   45.1970 O   0  0  0  0  0  0  0  0  0  0  0  0
   58.4130   32.3690   46.4790 C   0  0  0  0  0  0  0  0  0  0  0  0
   58.7987   33.6345   49.5934 H   0  0  0  0  0  0  0  0  0  0  0  0
   58.0552   32.0743   49.1039 H   0  0  0  0  0  0  0  0  0  0  0  0
   59.8422   32.2568   49.1039 H   0  0  0  0  0  0  0  0  0  0  0  0
   59.6396   35.2068   47.9459 H   0  0  0  0  0  0  0  0  0  0  0  0
   59.6165   35.9622   45.5690 H   0  0  0  0  0  0  0  0  0  0  0  0
   58.8284   34.4232   43.7726 H   0  0  0  0  0  0  0  0  0  0  0  0
   57.4989   32.4551   43.2277 H   0  0  0  0  0  0  0  0  0  0  0  0
   58.7931   31.2839   43.6912 H   0  0  0  0  0  0  0  0  0  0  0  0
   59.3367   29.6742   44.6682 H   0  0  0  0  0  0  0  0  0  0  0  0
   59.6595   27.2962   45.3283 H   0  0  0  0  0  0  0  0  0  0  0  0
   57.1349   24.8236   45.4180 H   0  0  0  0  0  0  0  0  0  0  0  0
   58.8239   25.2321   45.9052 H   0  0  0  0  0  0  0  0  0  0  0  0
   58.3056   25.2762   48.1164 H   0  0  0  0  0  0  0  0  0  0  0  0
   56.7425   26.1278   47.8233 H   0  0  0  0  0  0  0  0  0  0  0  0
   58.0957   31.3471   46.7340 H   0  0  0  0  0  0  0  0  0  0  0  0
  1  2  1  0
  2  3  2  0
  3  4  1  0
  4  5  2  0
  5  6  1  0
  6  7  1  0
  7  8  1  0
  8  9  1  0
  9 10  2  0
 10 11  1  0
 11 12  2  0
 12 13  1  0
 13 14  1  0
 14 15  1  0
 15 16  2  0
 15 17  1  0
 12 18  1  0
 18 19  1  0
 18 20  2  0
 20 21  1  0
  6 22  2  0
 22  2  1  0
 20  9  1  0
  1 23  1  0
  1 24  1  0
  1 25  1  0
  3 26  1  0
  4 27  1  0
  5 28  1  0
  7 29  1  0
  7 30  1  0
 10 31  1  0
 11 32  1  0
 13 33  1  0
 13 34  1  0
 14 35  1  0
 14 36  1  0
 22 37  1  0
M  CHG  3  17  -1  19  -1  21  -1
M  END
>  <UniqueID>  (10) 
10

>  <SMILES>  (10) 
Cc1cccc(COc2ccc(CCC(=O)[O-])c([O-])c2[O-])c1

>  <Energy>  (10) 
33.51441732582691

>  <Genealogy>  (10) 
Cc1cccc(COc2ccc(CCC(=O)[O-])c([O-])c2[O-])c1 (protonated)
Cc1cccc(COc2ccc(CCC(=O)[O-])c([O-])c2[O-])c1 (3D coordinates assigned)
Cc1cccc(COc2ccc(CCC(=O)[O-])c([O-])c2[O-])c1 (optimized conformer: 33.51441732582691 kcal/mol)

>  <smiles>  (10) 
Cc1cccc(COc2ccc(CCC(=O)O)c(O)c2O)c1

>  <score_type>  (10) 
oracle

>  <origin>  (10) 
adg

>  <m_score__min__energy>  (10) 
-16.690000000000001

>  <m_primary>  (10) 
energy

$$$$
10:0
     RDKit          3D

 36 37  0  0  0  0  0  0  0  0999 V2000
   61.2790   30.5000   48.3470 C   0  0  0  0  0  0  0  0  0  0  0  0
   60.6890   31.6040   47.5140 C   0  0  0  0  0  0  0  0  0  0  0  0
   61.4870   32.7070   47.1680 C   0  0  0  0  0  0  0  0  0  0  0  0
   60.9650   33.7410   46.3920 C   0  0  0  0  0  0  0  0  0  0  0  0
   59.6510   33.6790   45.9300 C   0  0  0  0  0  0  0  0  0  0  0  0
   58.8380   32.5830   46.2550 C   0  0  0  0  0  0  0  0  0  0  0  0
   57.4420   32.5610   45.7730 C   0  0  0  0  0  0  0  0  0  0  0  0
   56.6610   33.4850   46.1220 O   0  0  0  0  0  0  0  0  0  0  0  0
   56.9490   31.5310   44.9050 N   0  0  0  0  0  0  0  0  0  0  0  0
   57.5510   30.2120   44.7300 C   0  0  0  0  0  0  0  0  0  0  0  0
   56.6440   29.1430   45.2760 C   0  0  0  0  0  0  0  0  0  0  0  0
   55.5030   28.9980   44.7650 O   0  0  0  0  0  0  0  0  0  0  0  0
   57.0480   28.2500   46.3240 N   0  0  0  0  0  0  0  0  0  0  0  0
   57.9260   27.1170   46.2100 C   0  0  0  0  0  0  0  0  0  0  0  0
   57.4110   25.8020   46.2570 C   0  0  0  0  0  0  0  0  0  0  0  0
   55.9740   25.5050   46.4550 C   0  0  0  0  0  0  0  0  0  0  0  0
   54.9930   26.4250   45.9820 N   0  0  0  0  0  0  0  0  0  0  0  0
   55.5960   24.4490   47.0320 O   0  0  0  0  0  0  0  0  0  0  0  0
   58.2650   24.7530   46.1150 N   0  0  0  0  0  0  0  0  0  0  0  0
   59.6010   24.9350   45.9660 C   0  0  0  0  0  0  0  0  0  0  0  0
   60.3590   23.9410   45.8230 O   0  0  0  0  0  0  0  0  0  0  0  0
   60.1210   26.1860   45.9890 N   0  0  0  0  0  0  0  0  0  0  0  0
   59.3230   27.2750   46.1260 C   0  0  0  0  0  0  0  0  0  0  0  0
   59.8500   28.4150   46.2020 O   0  0  0  0  0  0  0  0  0  0  0  0
   59.3400   31.5620   47.0880 C   0  0  0  0  0  0  0  0  0  0  0  0
   58.4810   30.5380   47.4980 O   0  0  0  0  0  0  0  0  0  0  0  0
   61.1521   30.7375   49.4135 H   0  0  0  0  0  0  0  0  0  0  0  0
   60.7662   29.5541   48.1184 H   0  0  0  0  0  0  0  0  0  0  0  0
   62.3504   30.4007   48.1184 H   0  0  0  0  0  0  0  0  0  0  0  0
   62.5308   32.7553   47.5116 H   0  0  0  0  0  0  0  0  0  0  0  0
   61.5926   34.6095   46.1432 H   0  0  0  0  0  0  0  0  0  0  0  0
   59.2501   34.4929   45.3080 H   0  0  0  0  0  0  0  0  0  0  0  0
   57.7204   30.0306   43.6584 H   0  0  0  0  0  0  0  0  0  0  0  0
   58.5060   30.1813   45.2751 H   0  0  0  0  0  0  0  0  0  0  0  0
   55.1540   27.4550   46.0330 H   0  0  0  0  0  0  0  0  0  0  0  0
   58.3090   29.7050   46.9490 H   0  0  0  0  0  0  0  0  0  0  0  0
  1  2  1  0
  2  3  2  0
  3  4  1  0
  4  5  2  0
  5  6  1  0
  6  7  1  0
  7  8  2  0
  7  9  1  0
  9 10  1  0
 10 11  1  0
 11 12  2  0
 11 13  1  0
 13 14  1  0
 14 15  2  0
 15 16  1  0
 16 17  1  0
 16 18  2  0
 15 19  1  0
 19 20  1  0
 20 21  2  0
 20 22  1  0
 22 23  1  0
 23 24  2  0
  6 25  2  0
 25 26  1  0
 25  2  1  0
 23 14  1  0
  1 27  1  0
  1 28  1  0
  1 29  1  0
  3 30  1  0
  4 31  1  0
  5 32  1  0
 10 33  1  0
 10 34  1  0
 17 35  1  0
 26 36  1  0
M  CHG  5   9  -1  13  -1  17  -1  19  -1  22  -1
M  END
>  <UniqueID>  (11) 
11

>  <SMILES>  (11) 
Cc1cccc(C(=O)[N-]CC(=O)[N-]c2c(C([NH-])=O)[n-]c(=O)[n-]c2=O)c1O

>  <Energy>  (11) 
46.34911741221358

>  <Genealogy>  (11) 
Cc1cccc(C(=O)[N-]CC(=O)[N-]c2c(C([NH-])=O)[n-]c(=O)[n-]c2=O)c1O (protonated)
Cc1cccc(C(=O)[N-]CC(=O)[N-]c2c(C([NH-])=O)[n-]c(=O)[n-]c2=O)c1O (3D coordinates assigned)
Cc1cccc(C(=O)[N-]CC(=O)[N-]c2c(C([NH-])=O)[n-]c(=O)[n-]c2=O)c1O (optimized conformer: 46.34911741221358 kcal/mol)

>  <smiles>  (11) 
Cc1cccc(C(=O)NCC(=O)Nc2c(C(N)=O)[nH]c(=O)[nH]c2=O)c1O

>  <score_type>  (11) 
oracle

>  <origin>  (11) 
adg

>  <m_score__min__energy>  (11) 
-15.83

>  <m_primary>  (11) 
energy

$$$$
11:0
     RDKit          3D

 64 67  0  0  0  0  0  0  0  0999 V2000
   56.3770   29.3420   42.8130 C   0  0  0  0  0  0  0  0  0  0  0  0
   57.0040   30.5880   43.3610 C   0  0  0  0  0  0  0  0  0  0  0  0
   57.0500   30.8240   44.7440 C   0  0  0  0  0  0  0  0  0  0  0  0
   57.6300   31.9950   45.2400 C   0  0  0  0  0  0  0  0  0  0  0  0
   58.1750   32.9460   44.3630 C   0  0  0  0  0  0  0  0  0  0  0  0
   58.6860   34.2600   44.8870 C   0  0  0  0  0  0  0  0  0  0  0  0
   58.3830   34.3510   46.3080 N   0  0  0  0  0  0  0  0  0  0  0  0
   59.3580   34.0350   47.3050 C   0  0  0  0  0  0  0  0  0  0  0  0
   59.9910   34.9660   47.8720 O   0  0  0  0  0  0  0  0  0  0  0  0
   59.6990   32.6220   47.5850 C   0  0  0  0  0  0  0  0  0  0  0  0
   60.6130   31.9370   46.7650 C   0  0  0  0  0  0  0  0  0  0  0  0
   60.8230   30.5670   46.9350 C   0  0  0  0  0  0  0  0  0  0  0  0
   60.1330   29.8600   47.9330 C   0  0  0  0  0  0  0  0  0  0  0  0
   60.2150   28.3600   47.9870 C   0  0  0  0  0  0  0  0  0  0  0  0
   58.9630   27.7890   47.4950 N   0  0  0  0  0  0  0  0  0  0  0  0
   58.6950   27.6470   46.0910 C   0  0  0  0  0  0  0  0  0  0  0  0
   59.1840   28.4780   45.2780 O   0  0  0  0  0  0  0  0  0  0  0  0
   57.8700   26.5280   45.5810 C   0  0  0  0  0  0  0  0  0  0  0  0
   56.9160   25.9010   46.4030 C   0  0  0  0  0  0  0  0  0  0  0  0
   56.1600   24.8280   45.9210 C   0  0  0  0  0  0  0  0  0  0  0  0
   56.3540   24.3540   44.6160 C   0  0  0  0  0  0  0  0  0  0  0  0
   55.4410   22.9640   44.0280 S   0  0  0  0  0  0  0  0  0  0  0  0
   54.1710   22.8460   44.8240 O   0  0  0  0  0  0  0  0  0  0  0  0
   55.0610   23.1950   42.5900 O   0  0  0  0  0  0  0  0  0  0  0  0
   56.3380   21.4660   44.1430 N   0  0  0  0  0  0  0  0  0  0  0  0
   56.0280   20.6990   45.3690 C   0  0  0  0  0  0  0  0  0  0  0  0
   57.1480   20.7730   46.4160 C   0  0  0  0  0  0  0  0  0  0  0  0
   57.7800   22.0280   46.3660 O   0  0  0  0  0  0  0  0  0  0  0  0
   58.5320   22.1470   45.1730 C   0  0  0  0  0  0  0  0  0  0  0  0
   57.7810   21.6520   43.9110 C   0  0  0  0  0  0  0  0  0  0  0  0
   57.3070   24.9680   43.7940 C   0  0  0  0  0  0  0  0  0  0  0  0
   58.0640   26.0450   44.2730 C   0  0  0  0  0  0  0  0  0  0  0  0
   59.2560   30.5510   48.7810 C   0  0  0  0  0  0  0  0  0  0  0  0
   59.0370   31.9170   48.6060 C   0  0  0  0  0  0  0  0  0  0  0  0
   58.1140   32.7170   42.9780 C   0  0  0  0  0  0  0  0  0  0  0  0
   57.5370   31.5440   42.4820 C   0  0  0  0  0  0  0  0  0  0  0  0
   56.0531   28.6984   43.6442 H   0  0  0  0  0  0  0  0  0  0  0  0
   55.5065   29.6102   42.1963 H   0  0  0  0  0  0  0  0  0  0  0  0
   57.1111   28.8028   42.1963 H   0  0  0  0  0  0  0  0  0  0  0  0
   56.6279   30.0844   45.4402 H   0  0  0  0  0  0  0  0  0  0  0  0
   57.6596   32.1726   46.3252 H   0  0  0  0  0  0  0  0  0  0  0  0
   59.7741   34.3193   44.7369 H   0  0  0  0  0  0  0  0  0  0  0  0
   58.2028   35.0890   44.3491 H   0  0  0  0  0  0  0  0  0  0  0  0
   61.1652   32.4829   45.9859 H   0  0  0  0  0  0  0  0  0  0  0  0
   61.5336   30.0381   46.2829 H   0  0  0  0  0  0  0  0  0  0  0  0
   61.0485   28.0148   47.3576 H   0  0  0  0  0  0  0  0  0  0  0  0
   60.3837   28.0377   49.0251 H   0  0  0  0  0  0  0  0  0  0  0  0
   58.2930   27.3960   48.1880 H   0  0  0  0  0  0  0  0  0  0  0  0
   56.7636   26.2574   47.4324 H   0  0  0  0  0  0  0  0  0  0  0  0
   55.4089   24.3532   46.5694 H   0  0  0  0  0  0  0  0  0  0  0  0
   55.1055   21.1023   45.8121 H   0  0  0  0  0  0  0  0  0  0  0  0
   55.9143   19.6438   45.0797 H   0  0  0  0  0  0  0  0  0  0  0  0
   56.7190   20.6223   47.4176 H   0  0  0  0  0  0  0  0  0  0  0  0
   57.8901   19.9897   46.2024 H   0  0  0  0  0  0  0  0  0  0  0  0
   58.7908   23.2065   45.0299 H   0  0  0  0  0  0  0  0  0  0  0  0
   59.4211   21.5096   45.2886 H   0  0  0  0  0  0  0  0  0  0  0  0
   57.9156   22.3923   43.1086 H   0  0  0  0  0  0  0  0  0  0  0  0
   58.2018   20.6733   43.6371 H   0  0  0  0  0  0  0  0  0  0  0  0
   57.4618   24.6031   42.7679 H   0  0  0  0  0  0  0  0  0  0  0  0
   58.8153   26.5166   43.6225 H   0  0  0  0  0  0  0  0  0  0  0  0
   58.7380   30.0128   49.5885 H   0  0  0  0  0  0  0  0  0  0  0  0
   58.3407   32.4475   49.2721 H   0  0  0  0  0  0  0  0  0  0  0  0
   58.5220   33.4638   42.2810 H   0  0  0  0  0  0  0  0  0  0  0  0
   57.5005   31.3692   41.3966 H   0  0  0  0  0  0  0  0  0  0  0  0
  1  2  1  0
  2  3  2  0
  3  4  1  0
  4  5  2  0
  5  6  1  0
  6  7  1  0
  7  8  1  0
  8  9  2  0
  8 10  1  0
 10 11  2  0
 11 12  1  0
 12 13  2  0
 13 14  1  0
 14 15  1  0
 15 16  1  0
 16 17  2  0
 16 18  1  0
 18 19  2  0
 19 20  1  0
 20 21  2  0
 21 22  1  0
 22 23  2  0
 22 24  2  0
 22 25  1  0
 25 26  1  0
 26 27  1  0
 27 28  1  0
 28 29  1  0
 29 30  1  0
 21 31  1  0
 31 32  2  0
 13 33  1  0
 33 34  2  0
  5 35  1  0
 35 36  2  0
 36  2  1  0
 34 10  1  0
 32 18  1  0
 30 25  1  0
  1 37  1  0
  1 38  1  0
  1 39  1  0
  3 40  1  0
  4 41  1  0
  6 42  1  0
  6 43  1  0
 11 44  1  0
 12 45  1  0
 14 46  1  0
 14 47  1  0
 15 48  1  0
 19 49  1  0
 20 50  1  0
 26 51  1  0
 26 52  1  0
 27 53  1  0
 27 54  1  0
 29 55  1  0
 29 56  1  0
 30 57  1  0
 30 58  1  0
 31 59  1  0
 32 60  1  0
 33 61  1  0
 34 62  1  0
 35 63  1  0
 36 64  1  0
M  CHG  1   7  -1
M  END
>  <UniqueID>  (12) 
12

>  <SMILES>  (12) 
Cc1ccc(C[N-]C(=O)c2ccc(CNC(=O)c3ccc(S(=O)(=O)N4CCOCC4)cc3)cc2)cc1

>  <Energy>  (12) 
77.94122786901231

>  <Genealogy>  (12) 
Cc1ccc(C[N-]C(=O)c2ccc(CNC(=O)c3ccc(S(=O)(=O)N4CCOCC4)cc3)cc2)cc1 (protonated)
Cc1ccc(C[N-]C(=O)c2ccc(CNC(=O)c3ccc(S(=O)(=O)N4CCOCC4)cc3)cc2)cc1 (3D coordinates assigned)
Cc1ccc(C[N-]C(=O)c2ccc(CNC(=O)c3ccc(S(=O)(=O)N4CCOCC4)cc3)cc2)cc1 (nonaromatic ring conformer: 77.94122786901231 kcal/mol)

>  <smiles>  (12) 
Cc1ccc(CNC(=O)c2ccc(CNC(=O)c3ccc(S(=O)(=O)N4CCOCC4)cc3)cc2)cc1

>  <score_type>  (12) 
oracle

>  <origin>  (12) 
adg

>  <m_score__min__energy>  (12) 
-12.210000000000001

>  <m_primary>  (12) 
energy

$$$$
12:0
     RDKit          3D

 41 42  0  0  0  0  0  0  0  0999 V2000
   56.5900   19.9890   43.0330 H   0  0  0  0  0  0  0  0  0  0  0  0
   56.3340   21.0020   43.0040 N   0  0  0  0  0  0  0  0  0  0  0  0
   56.3710   21.7590   44.0550 C   0  0  0  0  0  0  0  0  0  0  0  0
   55.2260   22.3370   44.5030 N   0  0  0  0  0  0  0  0  0  0  0  0
   55.1900   23.1450   45.5990 C   0  0  0  0  0  0  0  0  0  0  0  0
   53.8720   23.7410   45.9990 C   0  0  0  0  0  0  0  0  0  0  0  0
   53.8019   23.7727   47.0963 H   0  0  0  0  0  0  0  0  0  0  0  0
   53.7941   24.7619   45.5969 H   0  0  0  0  0  0  0  0  0  0  0  0
   53.0540   23.1252   45.5969 H   0  0  0  0  0  0  0  0  0  0  0  0
   56.3840   23.4010   46.3170 C   0  0  0  0  0  0  0  0  0  0  0  0
   56.4430   24.2930   47.5390 C   0  0  0  0  0  0  0  0  0  0  0  0
   55.4441   24.3495   47.9962 H   0  0  0  0  0  0  0  0  0  0  0  0
   57.1614   23.8708   48.2572 H   0  0  0  0  0  0  0  0  0  0  0  0
   56.8770   25.6320   47.1640 N   0  0  0  0  0  0  0  0  0  0  0  0
   56.3530   26.3440   46.0380 C   0  0  0  0  0  0  0  0  0  0  0  0
   55.1350   26.6690   45.9950 O   0  0  0  0  0  0  0  0  0  0  0  0
   57.2560   26.6980   44.8980 C   0  0  0  0  0  0  0  0  0  0  0  0
   58.0140   25.9101   44.7768 H   0  0  0  0  0  0  0  0  0  0  0  0
   56.6566   26.7873   43.9800 H   0  0  0  0  0  0  0  0  0  0  0  0
   57.9270   27.9820   45.1600 N   0  0  0  0  0  0  0  0  0  0  0  0
   59.2590   27.9760   45.4740 C   0  0  0  0  0  0  0  0  0  0  0  0
   59.8041   27.0215   45.5161 H   0  0  0  0  0  0  0  0  0  0  0  0
   59.9320   29.1670   45.7410 C   0  0  0  0  0  0  0  0  0  0  0  0
   61.0041   29.1529   45.9869 H   0  0  0  0  0  0  0  0  0  0  0  0
   59.2410   30.3740   45.6950 C   0  0  0  0  0  0  0  0  0  0  0  0
   59.7687   31.3185   45.8937 H   0  0  0  0  0  0  0  0  0  0  0  0
   57.8710   30.3850   45.3950 C   0  0  0  0  0  0  0  0  0  0  0  0
   57.1110   31.6030   45.3470 N   0  0  0  0  0  0  0  0  0  0  0  0
   57.7640   33.2080   45.2680 S   0  0  0  0  0  0  0  0  0  0  0  0
   58.5630   33.3730   44.0070 O   0  0  0  0  0  0  0  0  0  0  0  0
   56.6250   34.1900   45.2510 O   0  0  0  0  0  0  0  0  0  0  0  0
   58.7780   33.5340   46.6970 C   0  0  0  0  0  0  0  0  0  0  0  0
   58.1950   33.3466   47.6108 H   0  0  0  0  0  0  0  0  0  0  0  0
   59.6573   32.8733   46.6811 H   0  0  0  0  0  0  0  0  0  0  0  0
   59.1075   34.5834   46.6811 H   0  0  0  0  0  0  0  0  0  0  0  0
   57.2240   29.1640   45.1350 C   0  0  0  0  0  0  0  0  0  0  0  0
   55.9900   29.1680   44.8740 O   0  0  0  0  0  0  0  0  0  0  0  0
   57.5760   22.8140   45.8580 C   0  0  0  0  0  0  0  0  0  0  0  0
   58.5189   23.0053   46.3913 H   0  0  0  0  0  0  0  0  0  0  0  0
   57.5730   21.9910   44.7320 C   0  0  0  0  0  0  0  0  0  0  0  0
   58.5069   21.5287   44.3796 H   0  0  0  0  0  0  0  0  0  0  0  0
  1  2  1  0
  2  3  2  0
  3  4  1  0
  4  5  1  0
  5  6  1  0
  6  7  1  0
  6  8  1  0
  6  9  1  0
  5 10  2  0
 10 11  1  0
 11 12  1  0
 11 13  1  0
 11 14  1  0
 14 15  1  0
 15 16  2  0
 15 17  1  0
 17 18  1  0
 17 19  1  0
 17 20  1  0
 20 21  1  0
 21 22  1  0
 21 23  2  0
 23 24  1  0
 23 25  1  0
 25 26  1  0
 25 27  2  0
 27 28  1  0
 28 29  1  0
 29 30  2  0
 29 31  2  0
 29 32  1  0
 32 33  1  0
 32 34  1  0
 32 35  1  0
 27 36  1  0
 36 37  2  0
 10 38  1  0
 38 39  1  0
 38 40  2  0
 40 41  1  0
 40  3  1  0
 36 20  1  0
M  CHG  3   4  -1  14  -1  28  -1
M  END
>  <UniqueID>  (13) 
13

>  <SMILES>  (13) 
[H]/N=c1\ccc(C[N-]C(=O)Cn2cccc([N-]S(C)(=O)=O)c2=O)c(C)[n-]1

>  <Energy>  (13) 
40.99677388511584

>  <Genealogy>  (13) 
Cc1[n-]c(=N)ccc1C[N-]C(=O)Cn1cccc([N-]S(C)(=O)=O)c1=O (protonated)
[H]/N=c1\ccc(C[N-]C(=O)Cn2cccc([N-]S(C)(=O)=O)c2=O)c(C)[n-]1 (cis-trans isomerization)
[H]/N=c1\ccc(C[N-]C(=O)Cn2cccc([N-]S(C)(=O)=O)c2=O)c(C)[n-]1 (3D coordinates assigned)
[H]/N=c1\ccc(C[N-]C(=O)Cn2cccc([N-]S(C)(=O)=O)c2=O)c(C)[n-]1 (optimized conformer: 40.99677388511584 kcal/mol)

>  <smiles>  (13) 
Cc1[nH]c(=N)ccc1CNC(=O)Cn1cccc(NS(C)(=O)=O)c1=O

>  <score_type>  (13) 
oracle

>  <origin>  (13) 
adg

>  <m_score__min__energy>  (13) 
-12.630000000000001

>  <m_primary>  (13) 
energy

$$$$
13:0
     RDKit          3D

 61 64  0  0  0  0  0  0  0  0999 V2000
   54.7690   25.8530   45.7160 O   0  0  0  0  0  0  0  0  0  0  0  0
   54.9670   24.6150   45.5840 C   0  0  0  0  0  0  0  0  0  0  0  0
   55.4760   24.0930   44.2610 C   0  0  0  0  0  0  0  0  0  0  0  0
   57.0130   24.0250   44.2170 C   0  0  0  0  0  0  0  0  0  0  0  0
   57.6480   25.2430   44.8420 C   0  0  0  0  0  0  0  0  0  0  0  0
   58.1670   25.1910   46.1440 C   0  0  0  0  0  0  0  0  0  0  0  0
   58.8070   26.3060   46.6960 C   0  0  0  0  0  0  0  0  0  0  0  0
   58.9420   27.4940   45.9500 C   0  0  0  0  0  0  0  0  0  0  0  0
   59.6610   28.6660   46.5160 C   0  0  0  0  0  0  0  0  0  0  0  0
   60.3930   28.5450   47.7100 C   0  0  0  0  0  0  0  0  0  0  0  0
   61.1010   29.6360   48.2240 C   0  0  0  0  0  0  0  0  0  0  0  0
   61.0860   30.8750   47.5590 C   0  0  0  0  0  0  0  0  0  0  0  0
   61.8440   31.9880   48.0730 N   0  0  0  0  0  0  0  0  0  0  0  0
   62.7680   31.7990   49.2000 C   0  0  0  0  0  0  0  0  0  0  0  0
   63.7640   32.9650   49.2870 C   0  0  0  0  0  0  0  0  0  0  0  0
   64.2240   33.3520   47.9450 N   0  0  0  0  0  0  0  0  0  0  0  0
   63.1310   33.8460   47.0810 C   0  0  0  0  0  0  0  0  0  0  0  0
   61.7350   33.3260   47.4810 C   0  0  0  0  0  0  0  0  0  0  0  0
   60.3570   30.9940   46.3640 C   0  0  0  0  0  0  0  0  0  0  0  0
   59.6500   29.9040   45.8500 C   0  0  0  0  0  0  0  0  0  0  0  0
   58.4070   27.5450   44.6500 C   0  0  0  0  0  0  0  0  0  0  0  0
   57.7660   26.4310   44.1030 C   0  0  0  0  0  0  0  0  0  0  0  0
   54.7100   23.7570   46.7100 N   0  0  0  0  0  0  0  0  0  0  0  0
   54.0910   22.4310   46.6620 C   0  0  2  0  0  0  0  0  0  0  0  0
   54.8120   21.5550   45.6250 C   0  0  0  0  0  0  0  0  0  0  0  0
   56.0080   20.9230   46.1820 N   0  0  0  0  0  0  0  0  0  0  0  0
   56.2050   20.5420   47.4600 C   0  0  0  0  0  0  0  0  0  0  0  0
   57.4500   19.9530   47.5440 C   0  0  0  0  0  0  0  0  0  0  0  0
   58.0160   19.9690   46.3230 N   0  0  0  0  0  0  0  0  0  0  0  0
   57.1190   20.5620   45.5100 C   0  0  0  0  0  0  0  0  0  0  0  0
   52.6200   22.5350   46.3490 C   0  0  0  0  0  0  0  0  0  0  0  0
   51.7640   22.5840   47.2730 O   0  0  0  0  0  0  0  0  0  0  0  0
   52.2030   22.6040   45.0260 O   0  0  0  0  0  0  0  0  0  0  0  0
   55.0717   23.0829   44.0992 H   0  0  0  0  0  0  0  0  0  0  0  0
   55.1454   24.7866   43.4738 H   0  0  0  0  0  0  0  0  0  0  0  0
   57.3453   23.1304   44.7641 H   0  0  0  0  0  0  0  0  0  0  0  0
   57.3224   23.9824   43.1623 H   0  0  0  0  0  0  0  0  0  0  0  0
   58.0703   24.2681   46.7347 H   0  0  0  0  0  0  0  0  0  0  0  0
   59.2075   26.2550   47.7192 H   0  0  0  0  0  0  0  0  0  0  0  0
   60.4090   27.5838   48.2447 H   0  0  0  0  0  0  0  0  0  0  0  0
   61.6743   29.5241   49.1561 H   0  0  0  0  0  0  0  0  0  0  0  0
   62.1910   31.7465   50.1351 H   0  0  0  0  0  0  0  0  0  0  0  0
   63.3290   30.8656   49.0447 H   0  0  0  0  0  0  0  0  0  0  0  0
   63.2723   33.8261   49.7632 H   0  0  0  0  0  0  0  0  0  0  0  0
   64.6326   32.6467   49.8822 H   0  0  0  0  0  0  0  0  0  0  0  0
   64.6610   32.5130   47.4940 H   0  0  0  0  0  0  0  0  0  0  0  0
   63.1190   34.9448   47.1317 H   0  0  0  0  0  0  0  0  0  0  0  0
   63.3323   33.4724   46.0662 H   0  0  0  0  0  0  0  0  0  0  0  0
   61.2878   34.0128   48.2147 H   0  0  0  0  0  0  0  0  0  0  0  0
   61.1013   33.2712   46.5835 H   0  0  0  0  0  0  0  0  0  0  0  0
   60.3427   31.9544   45.8279 H   0  0  0  0  0  0  0  0  0  0  0  0
   59.0798   30.0155   44.9160 H   0  0  0  0  0  0  0  0  0  0  0  0
   58.4941   28.4691   44.0598 H   0  0  0  0  0  0  0  0  0  0  0  0
   57.3506   26.4848   43.0859 H   0  0  0  0  0  0  0  0  0  0  0  0
   54.1887   21.9598   47.6511 H   0  0  0  0  0  0  0  0  0  0  0  0
   54.1222   20.7700   45.2814 H   0  0  0  0  0  0  0  0  0  0  0  0
   55.1246   22.2010   44.7913 H   0  0  0  0  0  0  0  0  0  0  0  0
   55.4969   20.6771   48.2908 H   0  0  0  0  0  0  0  0  0  0  0  0
   57.9041   19.5394   48.4565 H   0  0  0  0  0  0  0  0  0  0  0  0
   58.9510   19.5840   46.0530 H   0  0  0  0  0  0  0  0  0  0  0  0
   57.2743   20.7300   44.4340 H   0  0  0  0  0  0  0  0  0  0  0  0
  1  2  2  0
  2  3  1  0
  3  4  1  0
  4  5  1  0
  5  6  2  0
  6  7  1  0
  7  8  2  0
  8  9  1  0
  9 10  2  0
 10 11  1  0
 11 12  2  0
 12 13  1  0
 13 14  1  0
 14 15  1  0
 15 16  1  0
 16 17  1  0
 17 18  1  0
 12 19  1  0
 19 20  2  0
  8 21  1  0
 21 22  2  0
  2 23  1  0
 23 24  1  0
 24 25  1  0
 25 26  1  0
 26 27  1  0
 27 28  2  0
 28 29  1  0
 29 30  2  0
 24 31  1  0
 31 32  2  0
 31 33  1  0
 22  5  1  0
 30 26  1  0
 20  9  1  0
 18 13  1  0
  3 34  1  0
  3 35  1  0
  4 36  1  0
  4 37  1  0
  6 38  1  0
  7 39  1  0
 10 40  1  0
 11 41  1  0
 14 42  1  0
 14 43  1  0
 15 44  1  0
 15 45  1  0
 16 46  1  0
 17 47  1  0
 17 48  1  0
 18 49  1  0
 18 50  1  0
 19 51  1  0
 20 52  1  0
 21 53  1  0
 22 54  1  0
 24 55  1  1
 25 56  1  0
 25 57  1  0
 27 58  1  0
 28 59  1  0
 29 60  1  0
 30 61  1  0
M  CHG  3  23  -1  29   1  33  -1
M  END
>  <UniqueID>  (14) 
14

>  <SMILES>  (14) 
O=C(CCc1ccc(-c2ccc(N3CCNCC3)cc2)cc1)[N-][C@H](Cn1cc[nH+]c1)C(=O)[O-]

>  <Energy>  (14) 
102.67031797969891

>  <Genealogy>  (14) 
O=C(CCc1ccc(-c2ccc(N3CCNCC3)cc2)cc1)[N-]C(Cn1cc[nH+]c1)C(=O)[O-] (protonated)
O=C(CCc1ccc(-c2ccc(N3CCNCC3)cc2)cc1)[N-][C@H](Cn1cc[nH+]c1)C(=O)[O-] (chirality)
O=C(CCc1ccc(-c2ccc(N3CCNCC3)cc2)cc1)[N-][C@H](Cn1cc[nH+]c1)C(=O)[O-] (3D coordinates assigned)
O=C(CCc1ccc(-c2ccc(N3CCNCC3)cc2)cc1)[N-][C@H](Cn1cc[nH+]c1)C(=O)[O-] (nonaromatic ring conformer: 102.67031797969891 kcal/mol)

>  <smiles>  (14) 
O=C(CCc1ccc(-c2ccc(N3CCNCC3)cc2)cc1)NC(Cn1ccnc1)C(=O)O

>  <score_type>  (14) 
oracle

>  <origin>  (14) 
adg

>  <m_score__min__energy>  (14) 
-12.199999999999999

>  <m_primary>  (14) 
energy

$$$$
14:0
     RDKit          3D

 49 51  0  0  0  0  0  0  0  0999 V2000
   55.7740   24.2350   45.0880 C   0  0  0  0  0  0  0  0  0  0  0  0
   55.3900   25.4480   45.8650 C   0  0  0  0  0  0  0  0  0  0  0  0
   54.2570   25.9700   45.6850 O   0  0  0  0  0  0  0  0  0  0  0  0
   56.3560   26.0700   46.7210 N   0  0  0  0  0  0  0  0  0  0  0  0
   57.4790   26.8600   46.3010 C   0  0  0  0  0  0  0  0  0  0  0  0
   58.7970   26.4520   46.5580 C   0  0  0  0  0  0  0  0  0  0  0  0
   59.8700   27.2230   46.1190 C   0  0  0  0  0  0  0  0  0  0  0  0
   59.6420   28.4140   45.4340 C   0  0  0  0  0  0  0  0  0  0  0  0
   58.3330   28.8560   45.1720 C   0  0  0  0  0  0  0  0  0  0  0  0
   58.1630   30.1950   44.4790 C   0  0  0  0  0  0  0  0  0  0  0  0
   56.9100   30.8670   44.8740 N   0  0  0  0  0  0  0  0  0  0  0  0
   57.0590   32.3080   45.1560 C   0  0  0  0  0  0  0  0  0  0  0  0
   58.3730   32.6530   45.8030 C   0  0  0  0  0  0  0  0  0  0  0  0
   59.0020   31.8410   46.6720 N   0  0  0  0  0  0  0  0  0  0  0  0
   60.0800   32.5550   47.0590 C   0  0  0  0  0  0  0  0  0  0  0  0
   61.0840   32.0950   48.0540 C   0  0  0  0  0  0  0  0  0  0  0  0
   62.3680   32.6700   48.0050 C   0  0  0  0  0  0  0  0  0  0  0  0
   63.3500   32.3120   48.9280 C   0  0  0  0  0  0  0  0  0  0  0  0
   63.0700   31.3720   49.9170 C   0  0  0  0  0  0  0  0  0  0  0  0
   61.8100   30.7780   49.9800 C   0  0  0  0  0  0  0  0  0  0  0  0
   60.8070   31.1170   49.0530 C   0  0  0  0  0  0  0  0  0  0  0  0
   59.4780   30.4130   49.1510 C   0  0  0  0  0  0  0  0  0  0  0  0
   60.1270   33.7380   46.4800 O   0  0  0  0  0  0  0  0  0  0  0  0
   59.0850   33.8260   45.6920 C   0  0  0  0  0  0  0  0  0  0  0  0
   58.7430   35.0300   44.8760 C   0  0  0  0  0  0  0  0  0  0  0  0
   57.2400   28.0380   45.5710 C   0  0  0  0  0  0  0  0  0  0  0  0
   55.9090   28.3480   45.2710 O   0  0  0  0  0  0  0  0  0  0  0  0
   56.0316   23.4214   45.7820 H   0  0  0  0  0  0  0  0  0  0  0  0
   54.9306   23.9233   44.4543 H   0  0  0  0  0  0  0  0  0  0  0  0
   56.6431   24.4654   44.4543 H   0  0  0  0  0  0  0  0  0  0  0  0
   58.9832   25.5184   47.1090 H   0  0  0  0  0  0  0  0  0  0  0  0
   60.9004   26.8906   46.3137 H   0  0  0  0  0  0  0  0  0  0  0  0
   60.4969   29.0167   45.0935 H   0  0  0  0  0  0  0  0  0  0  0  0
   59.0119   30.8423   44.7441 H   0  0  0  0  0  0  0  0  0  0  0  0
   58.1240   30.0138   43.3947 H   0  0  0  0  0  0  0  0  0  0  0  0
   56.5450   30.3950   45.7340 H   0  0  0  0  0  0  0  0  0  0  0  0
   56.9809   32.8597   44.2076 H   0  0  0  0  0  0  0  0  0  0  0  0
   56.2636   32.5865   45.8630 H   0  0  0  0  0  0  0  0  0  0  0  0
   62.6000   33.4125   47.2273 H   0  0  0  0  0  0  0  0  0  0  0  0
   64.3475   32.7727   48.8750 H   0  0  0  0  0  0  0  0  0  0  0  0
   63.8438   31.0979   50.6492 H   0  0  0  0  0  0  0  0  0  0  0  0
   61.5976   30.0357   50.7635 H   0  0  0  0  0  0  0  0  0  0  0  0
   59.2143   30.2733   50.2097 H   0  0  0  0  0  0  0  0  0  0  0  0
   58.7045   31.0196   48.6574 H   0  0  0  0  0  0  0  0  0  0  0  0
   59.5453   29.4323   48.6574 H   0  0  0  0  0  0  0  0  0  0  0  0
   58.5043   35.8703   45.5445 H   0  0  0  0  0  0  0  0  0  0  0  0
   59.6004   35.2985   44.2414 H   0  0  0  0  0  0  0  0  0  0  0  0
   57.8725   34.8076   44.2414 H   0  0  0  0  0  0  0  0  0  0  0  0
   55.1440   27.6920   45.2870 H   0  0  0  0  0  0  0  0  0  0  0  0
  1  2  1  0
  2  3  2  0
  2  4  1  0
  4  5  1  0
  5  6  2  0
  6  7  1  0
  7  8  2  0
  8  9  1  0
  9 10  1  0
 10 11  1  0
 11 12  1  0
 12 13  1  0
 13 14  1  0
 14 15  2  0
 15 16  1  0
 16 17  2  0
 17 18  1  0
 18 19  2  0
 19 20  1  0
 20 21  2  0
 21 22  1  0
 15 23  1  0
 23 24  1  0
 24 25  1  0
  9 26  2  0
 26 27  1  0
 26  5  1  0
 24 13  2  0
 21 16  1  0
  1 28  1  0
  1 29  1  0
  1 30  1  0
  6 31  1  0
  7 32  1  0
  8 33  1  0
 10 34  1  0
 10 35  1  0
 11 36  1  0
 12 37  1  0
 12 38  1  0
 17 39  1  0
 18 40  1  0
 19 41  1  0
 20 42  1  0
 22 43  1  0
 22 44  1  0
 22 45  1  0
 25 46  1  0
 25 47  1  0
 25 48  1  0
 27 49  1  0
M  CHG  1   4  -1
M  END
>  <UniqueID>  (15) 
15

>  <SMILES>  (15) 
CC(=O)[N-]c1cccc(CNCc2nc(-c3ccccc3C)oc2C)c1O

>  <Energy>  (15) 
86.62627949815635

>  <Genealogy>  (15) 
CC(=O)[N-]c1cccc(CNCc2nc(-c3ccccc3C)oc2C)c1O (protonated)
CC(=O)[N-]c1cccc(CNCc2nc(-c3ccccc3C)oc2C)c1O (3D coordinates assigned)
CC(=O)[N-]c1cccc(CNCc2nc(-c3ccccc3C)oc2C)c1O (optimized conformer: 86.62627949815635 kcal/mol)

>  <smiles>  (15) 
CC(=O)Nc1cccc(CNCc2nc(-c3ccccc3C)oc2C)c1O

>  <score_type>  (15) 
oracle

>  <origin>  (15) 
adg

>  <m_score__min__energy>  (15) 
-11.81

>  <m_primary>  (15) 
energy

$$$$
15:0
     RDKit          3D

 62 65  0  0  0  0  0  0  0  0999 V2000
   55.4870   30.0900   44.4990 O   0  0  0  0  0  0  0  0  0  0  0  0
   56.7460   30.0190   44.5420 C   0  0  0  0  0  0  0  0  0  0  0  0
   57.4160   28.8430   44.0660 N   0  0  0  0  0  0  0  0  0  0  0  0
   58.0010   27.8100   44.8730 C   0  0  0  0  0  0  0  0  0  0  0  0
   59.3500   27.9230   45.2320 C   0  0  0  0  0  0  0  0  0  0  0  0
   59.9610   26.9290   45.9990 C   0  0  0  0  0  0  0  0  0  0  0  0
   59.2370   25.8030   46.3950 C   0  0  0  0  0  0  0  0  0  0  0  0
   57.8960   25.6580   46.0130 C   0  0  0  0  0  0  0  0  0  0  0  0
   56.9930   24.2090   46.4670 S   0  0  0  0  0  0  0  0  0  0  0  0
   55.5200   24.5090   46.4190 O   0  0  0  0  0  0  0  0  0  0  0  0
   57.3430   23.8310   47.8800 O   0  0  0  0  0  0  0  0  0  0  0  0
   57.3490   22.8660   45.4050 N   0  0  0  0  0  0  0  0  0  0  0  0
   56.3490   21.7950   45.5740 C   0  0  0  0  0  0  0  0  0  0  0  0
   56.3170   20.8810   44.3390 C   0  0  0  0  0  0  0  0  0  0  0  0
   55.9790   21.5530   43.1320 O   0  0  0  0  0  0  0  0  0  0  0  0
   56.2660   22.9450   43.1490 C   0  0  0  0  0  0  0  0  0  0  0  0
   57.4980   23.3040   43.9990 C   0  0  0  0  0  0  0  0  0  0  0  0
   57.2800   26.6650   45.2540 C   0  0  0  0  0  0  0  0  0  0  0  0
   57.5280   31.1300   45.1340 C   0  0  0  0  0  0  0  0  0  0  0  0
   58.7770   30.8850   45.7350 C   0  0  0  0  0  0  0  0  0  0  0  0
   59.5120   31.9350   46.2920 C   0  0  0  0  0  0  0  0  0  0  0  0
   59.0160   33.2430   46.2580 C   0  0  0  0  0  0  0  0  0  0  0  0
   59.9400   34.5480   46.9980 S   0  0  0  0  0  0  0  0  0  0  0  0
   59.6490   35.8490   46.3020 O   0  0  0  0  0  0  0  0  0  0  0  0
   61.4060   34.2510   46.8580 O   0  0  0  0  0  0  0  0  0  0  0  0
   59.5410   34.6890   48.6830 N   0  0  0  0  0  0  0  0  0  0  0  0
   60.6290   34.1400   49.4990 C   0  0  0  0  0  0  0  0  0  0  0  0
   60.0980   33.0600   50.4440 C   0  0  0  0  0  0  0  0  0  0  0  0
   60.0740   31.7090   49.7770 C   0  0  0  0  0  0  0  0  0  0  0  0
   58.9050   30.9310   49.7900 C   0  0  0  0  0  0  0  0  0  0  0  0
   58.8750   29.6930   49.1400 C   0  0  0  0  0  0  0  0  0  0  0  0
   60.0090   29.2270   48.4690 C   0  0  0  0  0  0  0  0  0  0  0  0
   61.1730   30.0000   48.4420 C   0  0  0  0  0  0  0  0  0  0  0  0
   61.2060   31.2390   49.0890 C   0  0  0  0  0  0  0  0  0  0  0  0
   57.7710   33.4930   45.6660 C   0  0  0  0  0  0  0  0  0  0  0  0
   57.0350   32.4460   45.1060 C   0  0  0  0  0  0  0  0  0  0  0  0
   59.9310   28.7991   44.9081 H   0  0  0  0  0  0  0  0  0  0  0  0
   61.0161   27.0335   46.2921 H   0  0  0  0  0  0  0  0  0  0  0  0
   59.7198   25.0278   47.0081 H   0  0  0  0  0  0  0  0  0  0  0  0
   56.6077   21.1961   46.4597 H   0  0  0  0  0  0  0  0  0  0  0  0
   55.3573   22.2541   45.6996 H   0  0  0  0  0  0  0  0  0  0  0  0
   57.3126   20.4295   44.2167 H   0  0  0  0  0  0  0  0  0  0  0  0
   55.5317   20.1316   44.5173 H   0  0  0  0  0  0  0  0  0  0  0  0
   56.4464   23.2766   42.1158 H   0  0  0  0  0  0  0  0  0  0  0  0
   55.4001   23.4499   43.6021 H   0  0  0  0  0  0  0  0  0  0  0  0
   58.3828   22.8141   43.5664 H   0  0  0  0  0  0  0  0  0  0  0  0
   57.6066   24.3986   43.9941 H   0  0  0  0  0  0  0  0  0  0  0  0
   56.2267   26.5577   44.9555 H   0  0  0  0  0  0  0  0  0  0  0  0
   59.1770   29.8608   45.7664 H   0  0  0  0  0  0  0  0  0  0  0  0
   60.4865   31.7320   46.7601 H   0  0  0  0  0  0  0  0  0  0  0  0
   59.4590   35.7110   48.8920 H   0  0  0  0  0  0  0  0  0  0  0  0
   61.3906   33.7002   48.8382 H   0  0  0  0  0  0  0  0  0  0  0  0
   61.0689   34.9513   50.0975 H   0  0  0  0  0  0  0  0  0  0  0  0
   60.7469   33.0098   51.3308 H   0  0  0  0  0  0  0  0  0  0  0  0
   59.0686   33.3242   50.7280 H   0  0  0  0  0  0  0  0  0  0  0  0
   58.0093   31.2967   50.3135 H   0  0  0  0  0  0  0  0  0  0  0  0
   57.9581   29.0855   49.1569 H   0  0  0  0  0  0  0  0  0  0  0  0
   59.9853   28.2512   47.9618 H   0  0  0  0  0  0  0  0  0  0  0  0
   62.0640   29.6333   47.9113 H   0  0  0  0  0  0  0  0  0  0  0  0
   62.1214   31.8483   49.0595 H   0  0  0  0  0  0  0  0  0  0  0  0
   57.3715   34.5176   45.6421 H   0  0  0  0  0  0  0  0  0  0  0  0
   56.0609   32.6533   44.6389 H   0  0  0  0  0  0  0  0  0  0  0  0
  1  2  2  0
  2  3  1  0
  3  4  1  0
  4  5  2  0
  5  6  1  0
  6  7  2  0
  7  8  1  0
  8  9  1  0
  9 10  2  0
  9 11  2  0
  9 12  1  0
 12 13  1  0
 13 14  1  0
 14 15  1  0
 15 16  1  0
 16 17  1  0
  8 18  2  0
  2 19  1  0
 19 20  2  0
 20 21  1  0
 21 22  2  0
 22 23  1  0
 23 24  2  0
 23 25  2  0
 23 26  1  0
 26 27  1  0
 27 28  1  0
 28 29  1  0
 29 30  2  0
 30 31  1  0
 31 32  2  0
 32 33  1  0
 33 34  2  0
 22 35  1  0
 35 36  2  0
 18  4  1  0
 36 19  1  0
 17 12  1  0
 34 29  1  0
  5 37  1  0
  6 38  1  0
  7 39  1  0
 13 40  1  0
 13 41  1  0
 14 42  1  0
 14 43  1  0
 16 44  1  0
 16 45  1  0
 17 46  1  0
 17 47  1  0
 18 48  1  0
 20 49  1  0
 21 50  1  0
 26 51  1  0
 27 52  1  0
 27 53  1  0
 28 54  1  0
 28 55  1  0
 30 56  1  0
 31 57  1  0
 32 58  1  0
 33 59  1  0
 34 60  1  0
 35 61  1  0
 36 62  1  0
M  CHG  1   3  -1
M  END
>  <UniqueID>  (16) 
16

>  <SMILES>  (16) 
O=C([N-]c1cccc(S(=O)(=O)N2CCOCC2)c1)c1ccc(S(=O)(=O)NCCc2ccccc2)cc1

>  <Energy>  (16) 
76.07787589415909

>  <Genealogy>  (16) 
O=C([N-]c1cccc(S(=O)(=O)N2CCOCC2)c1)c1ccc(S(=O)(=O)NCCc2ccccc2)cc1 (protonated)
O=C([N-]c1cccc(S(=O)(=O)N2CCOCC2)c1)c1ccc(S(=O)(=O)NCCc2ccccc2)cc1 (3D coordinates assigned)
O=C([N-]c1cccc(S(=O)(=O)N2CCOCC2)c1)c1ccc(S(=O)(=O)NCCc2ccccc2)cc1 (nonaromatic ring conformer: 76.07787589415909 kcal/mol)

>  <smiles>  (16) 
O=C(Nc1cccc(S(=O)(=O)N2CCOCC2)c1)c1ccc(S(=O)(=O)NCCc2ccccc2)cc1

>  <score_type>  (16) 
oracle

>  <origin>  (16) 
adg

>  <m_score__min__energy>  (16) 
-13.460000000000001

>  <m_primary>  (16) 
energy

$$$$
16:0
     RDKit          3D

 54 57  0  0  1  0  0  0  0  0999 V2000
   63.0450   31.5670   47.2100 O   0  0  0  0  0  0  0  0  0  0  0  0
   63.1290   32.8220   47.4240 C   0  0  0  0  0  0  0  0  0  0  0  0
   62.2160   33.8040   46.8130 C   0  0  0  0  0  0  0  0  0  0  0  0
   60.8300   34.2140   47.9020 S   0  0  0  0  0  0  0  0  0  0  0  0
   59.2950   33.8360   47.1330 C   0  0  0  0  0  0  0  0  0  0  0  0
   58.1310   34.1990   47.1120 N   0  0  0  0  0  0  0  0  0  0  0  0
   63.8000   31.5940   49.7990 N   0  0  0  0  0  0  0  0  0  0  0  0
   64.5390   32.5930   49.3040 C   0  0  0  0  0  0  0  0  0  0  0  0
   64.1520   33.2880   48.2930 N   0  0  0  0  0  0  0  0  0  0  0  0
   56.5500   30.8620   44.3410 C   0  0  0  0  0  0  0  0  0  0  0  0
   55.5780   30.1390   44.7950 O   0  0  0  0  0  0  0  0  0  0  0  0
   57.3900   30.2050   43.3530 C   0  0  0  0  0  0  0  0  0  0  0  0
   58.4650   29.4830   43.9290 O   0  0  0  0  0  0  0  0  0  0  0  0
   58.4350   28.2510   44.4930 C   0  0  0  0  0  0  0  0  0  0  0  0
   57.8410   27.2010   43.7770 C   0  0  0  0  0  0  0  0  0  0  0  0
   57.7790   25.9410   44.2860 C   0  0  0  0  0  0  0  0  0  0  0  0
   58.2880   25.6160   45.5240 C   0  0  0  0  0  0  0  0  0  0  0  0
   58.2430   24.2670   46.1160 C   0  0  0  0  0  0  0  0  0  0  0  0
   57.8260   23.2510   45.1150 C   0  0  0  0  0  0  0  0  0  0  0  0
   56.7370   23.2500   44.3580 N   0  0  0  0  0  0  0  0  0  0  0  0
   56.7810   22.1300   43.6040 C   0  0  0  0  0  0  0  0  0  0  0  0
   55.8970   21.8070   42.7640 O   0  0  0  0  0  0  0  0  0  0  0  0
   57.9090   21.4280   43.8960 N   0  0  0  0  0  0  0  0  0  0  0  0
   58.5690   22.1230   44.8420 C   0  0  0  0  0  0  0  0  0  0  0  0
   59.7730   21.7070   45.3880 O   0  0  0  0  0  0  0  0  0  0  0  0
   58.8800   26.6330   46.2490 C   0  0  0  0  0  0  0  0  0  0  0  0
   58.9400   27.9090   45.7290 C   0  0  0  0  0  0  0  0  0  0  0  0
   59.1670   32.4110   45.8610 S   0  0  0  0  0  0  0  0  0  0  0  0
   56.6100   32.1390   44.8900 N   0  0  0  0  0  0  0  0  0  0  0  0
   57.4080   32.7100   45.6140 C   0  0  0  0  0  0  0  0  0  0  0  0
   65.7680   32.9400   49.8540 C   0  0  0  0  0  0  0  0  0  0  0  0
   66.1960   32.2070   50.9370 C   0  0  0  0  0  0  0  0  0  0  0  0
   65.4190   31.1850   51.4270 C   0  0  0  0  0  0  0  0  0  0  0  0
   64.1890   30.8480   50.8660 C   0  0  0  0  0  0  0  0  0  0  0  0
   57.1360   33.7650   46.4500 N   0  0  0  0  0  0  0  0  0  0  0  0
   62.7789   34.7233   46.5938 H   0  0  0  0  0  0  0  0  0  0  0  0
   61.8053   33.3591   45.8946 H   0  0  0  0  0  0  0  0  0  0  0  0
   62.8930   31.3660   49.3640 H   0  0  0  0  0  0  0  0  0  0  0  0
   56.7685   29.5055   42.7747 H   0  0  0  0  0  0  0  0  0  0  0  0
   57.8255   30.9907   42.7181 H   0  0  0  0  0  0  0  0  0  0  0  0
   57.4161   27.4009   42.7823 H   0  0  0  0  0  0  0  0  0  0  0  0
   57.3040   25.1511   43.6857 H   0  0  0  0  0  0  0  0  0  0  0  0
   59.2431   24.0081   46.4939 H   0  0  0  0  0  0  0  0  0  0  0  0
   57.5068   24.2712   46.9333 H   0  0  0  0  0  0  0  0  0  0  0  0
   55.9740   23.9770   44.3370 H   0  0  0  0  0  0  0  0  0  0  0  0
   58.2100   20.5130   43.4640 H   0  0  0  0  0  0  0  0  0  0  0  0
   60.0050   20.7200   45.2760 H   0  0  0  0  0  0  0  0  0  0  0  0
   59.3040   26.4243   47.2423 H   0  0  0  0  0  0  0  0  0  0  0  0
   59.4162   28.6956   46.3328 H   0  0  0  0  0  0  0  0  0  0  0  0
   66.3706   33.7629   49.4421 H   0  0  0  0  0  0  0  0  0  0  0  0
   67.1611   32.4394   51.4110 H   0  0  0  0  0  0  0  0  0  0  0  0
   65.7812   30.6123   52.2935 H   0  0  0  0  0  0  0  0  0  0  0  0
   63.5711   30.0288   51.2623 H   0  0  0  0  0  0  0  0  0  0  0  0
   56.1630   34.1400   46.4940 H   0  0  0  0  0  0  0  0  0  0  0  0
  1  2  2  0
  2  3  1  0
  3  4  1  0
  4  5  1  0
  5  6  2  0
  6  7  1  0
  7  8  1  0
  8  9  2  0
  9 10  1  0
 10 11  2  0
 10 12  1  0
 12 13  1  0
 13 14  1  0
 14 15  2  0
 15 16  1  0
 16 17  2  0
 17 18  1  0
 18 19  1  0
 19 20  1  0
 20 21  1  0
 21 22  2  0
 21 23  1  0
 23 24  1  0
 24 25  1  0
 17 26  1  0
 26 27  2  0
  8 28  1  0
  2 29  1  0
 29 30  2  0
 30 31  1  0
 31 32  2  0
 32 33  1  0
 33 34  2  0
 34 35  1  0
 28  5  1  0
 35 30  1  0
 27 14  1  0
 24 19  2  0
  3 36  1  0
  3 37  1  0
  7 38  1  0
 12 39  1  0
 12 40  1  0
 15 41  1  0
 16 42  1  0
 18 43  1  0
 18 44  1  0
 20 45  1  0
 23 46  1  0
 25 47  1  0
 26 48  1  0
 27 49  1  0
 31 50  1  0
 32 51  1  0
 33 52  1  0
 34 53  1  0
 35 54  1  0
M  END
>  <smiles>  (17) 
O=C(CSc1n[nH]c(=NC(=O)COc2ccc(Cc3[nH]c(=O)[nH]c3O)cc2)s1)N=c1cccc[nH]1

>  <score_type>  (17) 
oracle

>  <origin>  (17) 
adg

>  <m_score__min__energy>  (17) 
-10.02

>  <m_primary>  (17) 
energy

$$$$
17:0
     RDKit          3D

 43 46  0  0  1  0  0  0  0  0999 V2000
   59.2700   28.7040   47.8350 O   0  0  0  0  0  0  0  0  0  0  0  0
   58.8060   28.4760   46.6680 C   0  0  0  0  0  0  0  0  0  0  0  0
   59.5770   29.0790   45.5460 C   0  0  0  0  0  0  0  0  0  0  0  0
   58.9110   30.3340   45.1190 C   0  0  0  0  0  0  0  0  0  0  0  0
   58.9250   31.3840   45.9900 N   0  0  0  0  0  0  0  0  0  0  0  0
   58.3450   32.5420   45.6690 C   0  0  0  0  0  0  0  0  0  0  0  0
   57.7330   32.6450   44.4390 C   0  0  0  0  0  0  0  0  0  0  0  0
   57.2400   33.8960   44.3790 N   0  0  0  0  0  0  0  0  0  0  0  0
   57.5240   34.5230   45.4900 N   0  0  0  0  0  0  0  0  0  0  0  0
   58.2010   33.7180   46.3000 N   0  0  0  0  0  0  0  0  0  0  0  0
   58.6850   34.0630   47.6140 C   0  0  0  0  0  0  0  0  0  0  0  0
   59.8630   33.2770   48.0330 C   0  0  0  0  0  0  0  0  0  0  0  0
   59.7370   32.2770   48.9800 C   0  0  0  0  0  0  0  0  0  0  0  0
   60.8330   31.5200   49.3920 C   0  0  0  0  0  0  0  0  0  0  0  0
   62.0670   31.8040   48.8160 C   0  0  0  0  0  0  0  0  0  0  0  0
   62.1960   32.8000   47.8700 C   0  0  0  0  0  0  0  0  0  0  0  0
   63.7830   33.1070   47.1830 Cl  0  0  0  0  0  0  0  0  0  0  0  0
   61.0960   33.5570   47.4590 C   0  0  0  0  0  0  0  0  0  0  0  0
   57.7120   31.5950   43.5540 C   0  0  0  0  0  0  0  0  0  0  0  0
   57.1480   31.6960   42.4260 O   0  0  0  0  0  0  0  0  0  0  0  0
   58.3120   30.4260   43.9110 N   0  0  0  0  0  0  0  0  0  0  0  0
   57.6470   27.7120   46.4310 N   0  0  0  0  0  0  0  0  0  0  0  0
   57.6040   26.4470   46.2220 C   0  0  0  0  0  0  0  0  0  0  0  0
   58.7510   25.7650   46.2340 N   0  0  0  0  0  0  0  0  0  0  0  0
   58.7270   24.4330   46.0160 C   0  0  0  0  0  0  0  0  0  0  0  0
   57.5090   23.7860   45.7830 C   0  0  0  0  0  0  0  0  0  0  0  0
   56.3420   24.5140   45.7770 C   0  0  0  0  0  0  0  0  0  0  0  0
   56.3850   25.8730   46.0000 C   0  0  0  0  0  0  0  0  0  0  0  0
   55.2240   26.6330   46.0010 O   0  0  0  0  0  0  0  0  0  0  0  0
   60.6013   29.3008   45.8802 H   0  0  0  0  0  0  0  0  0  0  0  0
   59.6160   28.3744   44.7022 H   0  0  0  0  0  0  0  0  0  0  0  0
   58.9588   35.1284   47.6156 H   0  0  0  0  0  0  0  0  0  0  0  0
   57.8767   33.8389   48.3257 H   0  0  0  0  0  0  0  0  0  0  0  0
   58.7488   32.0741   49.4185 H   0  0  0  0  0  0  0  0  0  0  0  0
   60.7257   30.7262   50.1459 H   0  0  0  0  0  0  0  0  0  0  0  0
   62.9526   31.2262   49.1191 H   0  0  0  0  0  0  0  0  0  0  0  0
   61.2033   34.3500   46.7043 H   0  0  0  0  0  0  0  0  0  0  0  0
   58.3050   29.6090   43.2410 H   0  0  0  0  0  0  0  0  0  0  0  0
   59.6820   26.2100   46.4040 H   0  0  0  0  0  0  0  0  0  0  0  0
   59.6642   23.8571   46.0216 H   0  0  0  0  0  0  0  0  0  0  0  0
   57.4845   22.7007   45.6055 H   0  0  0  0  0  0  0  0  0  0  0  0
   55.3793   24.0138   45.5951 H   0  0  0  0  0  0  0  0  0  0  0  0
   55.1460   27.5670   45.6120 H   0  0  0  0  0  0  0  0  0  0  0  0
  1  2  2  0
  2  3  1  0
  3  4  1  0
  4  5  2  0
  5  6  1  0
  6  7  2  0
  7  8  1  0
  8  9  2  0
  9 10  1  0
 10 11  1  0
 11 12  1  0
 12 13  2  0
 13 14  1  0
 14 15  2  0
 15 16  1  0
 16 17  1  0
 16 18  2  0
  7 19  1  0
 19 20  2  0
 19 21  1  0
  2 22  1  0
 22 23  2  0
 23 24  1  0
 24 25  1  0
 25 26  2  0
 26 27  1  0
 27 28  2  0
 28 29  1  0
 21  4  1  0
 28 23  1  0
 10  6  1  0
 18 12  1  0
  3 30  1  0
  3 31  1  0
 11 32  1  0
 11 33  1  0
 13 34  1  0
 14 35  1  0
 15 36  1  0
 18 37  1  0
 21 38  1  0
 24 39  1  0
 25 40  1  0
 26 41  1  0
 27 42  1  0
 29 43  1  0
M  END
>  <smiles>  (18) 
O=C(Cc1nc2c(nnn2Cc2cccc(Cl)c2)c(=O)[nH]1)N=c1[nH]cccc1O

>  <score_type>  (18) 
oracle

>  <origin>  (18) 
adg

>  <m_score__min__energy>  (18) 
-10.07

>  <m_primary>  (18) 
energy

$$$$
18:0
     RDKit          3D

 57 60  0  0  0  0  0  0  0  0999 V2000
   58.8110   21.8990   44.8740 C   0  0  0  0  0  0  0  0  0  0  0  0
   57.7870   21.8470   43.7480 C   0  0  0  0  0  0  0  0  0  0  0  0
   56.6140   22.7290   44.0540 C   0  0  0  0  0  0  0  0  0  0  0  0
   55.3330   22.2750   44.1080 N   0  0  0  0  0  0  0  0  0  0  0  0
   54.6110   23.3350   44.4270 N   0  0  0  0  0  0  0  0  0  0  0  0
   53.5580   23.4730   45.2370 C   0  0  0  0  0  0  0  0  0  0  0  0
   52.6550   22.6070   45.3910 O   0  0  0  0  0  0  0  0  0  0  0  0
   53.6370   24.6320   45.9350 N   0  0  0  0  0  0  0  0  0  0  0  0
   54.8070   25.1950   45.6200 N   0  0  0  0  0  0  0  0  0  0  0  0
   55.3570   24.3810   44.6950 C   0  0  0  0  0  0  0  0  0  0  0  0
   56.6730   24.0770   44.4520 C   0  0  0  0  0  0  0  0  0  0  0  0
   58.1250   25.0280   44.9220 S   0  0  0  0  0  0  0  0  0  0  0  0
   57.8600   26.3340   43.6710 C   0  0  0  0  0  0  0  0  0  0  0  0
   58.1990   27.6680   44.2590 C   0  0  0  0  0  0  0  0  0  0  0  0
   59.3170   27.8310   44.8170 O   0  0  0  0  0  0  0  0  0  0  0  0
   57.2570   28.7490   44.1770 N   0  0  0  0  0  0  0  0  0  0  0  0
   57.5680   30.1120   44.5050 C   0  0  0  0  0  0  0  0  0  0  0  0
   57.1870   31.1710   43.6690 C   0  0  0  0  0  0  0  0  0  0  0  0
   57.4660   32.4910   44.0300 C   0  0  0  0  0  0  0  0  0  0  0  0
   58.1300   32.7790   45.2400 C   0  0  0  0  0  0  0  0  0  0  0  0
   58.4150   34.0990   45.6300 O   0  0  0  0  0  0  0  0  0  0  0  0
   59.2470   34.9950   44.8990 C   0  0  0  0  0  0  0  0  0  0  0  0
   58.5070   31.7170   46.0860 C   0  0  0  0  0  0  0  0  0  0  0  0
   59.3530   32.0160   47.6150 S   0  0  0  0  0  0  0  0  0  0  0  0
   59.1340   30.8580   48.5490 O   0  0  0  0  0  0  0  0  0  0  0  0
   58.7710   33.2410   48.2640 O   0  0  0  0  0  0  0  0  0  0  0  0
   61.0670   32.2600   47.3770 N   0  0  0  0  0  0  0  0  0  0  0  0
   61.8200   31.7770   48.5540 C   0  0  0  0  0  0  0  0  0  0  0  0
   63.3100   32.1860   48.5070 C   0  0  0  0  0  0  0  0  0  0  0  0
   63.7210   32.6860   47.1190 C   0  0  0  0  0  0  0  0  0  0  0  0
   62.8240   33.8480   46.6610 C   0  0  0  0  0  0  0  0  0  0  0  0
   61.3600   33.6780   47.1140 C   0  0  0  0  0  0  0  0  0  0  0  0
   58.2140   30.3940   45.7150 C   0  0  0  0  0  0  0  0  0  0  0  0
   58.2917   21.8726   45.8434 H   0  0  0  0  0  0  0  0  0  0  0  0
   59.4860   21.0340   44.7960 H   0  0  0  0  0  0  0  0  0  0  0  0
   59.3949   22.8280   44.7960 H   0  0  0  0  0  0  0  0  0  0  0  0
   58.2598   22.1866   42.8146 H   0  0  0  0  0  0  0  0  0  0  0  0
   57.4314   20.8114   43.6424 H   0  0  0  0  0  0  0  0  0  0  0  0
   58.5045   26.1432   42.8003 H   0  0  0  0  0  0  0  0  0  0  0  0
   56.8059   26.3304   43.3565 H   0  0  0  0  0  0  0  0  0  0  0  0
   56.2690   28.5220   43.9210 H   0  0  0  0  0  0  0  0  0  0  0  0
   56.6654   30.9611   42.7235 H   0  0  0  0  0  0  0  0  0  0  0  0
   57.1650   33.3134   43.3643 H   0  0  0  0  0  0  0  0  0  0  0  0
   59.8233   35.6156   45.6010 H   0  0  0  0  0  0  0  0  0  0  0  0
   59.9382   34.4195   44.2658 H   0  0  0  0  0  0  0  0  0  0  0  0
   58.6219   35.6418   44.2658 H   0  0  0  0  0  0  0  0  0  0  0  0
   61.3658   32.1999   49.4622 H   0  0  0  0  0  0  0  0  0  0  0  0
   61.7731   30.6780   48.5550 H   0  0  0  0  0  0  0  0  0  0  0  0
   63.4819   32.9885   49.2394 H   0  0  0  0  0  0  0  0  0  0  0  0
   63.9150   31.2981   48.7427 H   0  0  0  0  0  0  0  0  0  0  0  0
   64.7648   33.0310   47.1560 H   0  0  0  0  0  0  0  0  0  0  0  0
   63.6126   31.8579   46.4031 H   0  0  0  0  0  0  0  0  0  0  0  0
   63.2173   34.7847   47.0829 H   0  0  0  0  0  0  0  0  0  0  0  0
   62.8337   33.8642   45.5612 H   0  0  0  0  0  0  0  0  0  0  0  0
   61.1950   34.2590   48.0334 H   0  0  0  0  0  0  0  0  0  0  0  0
   60.6947   34.0382   46.3155 H   0  0  0  0  0  0  0  0  0  0  0  0
   58.4960   29.5680   46.3845 H   0  0  0  0  0  0  0  0  0  0  0  0
  1  2  1  0
  2  3  1  0
  3  4  1  0
  4  5  1  0
  5  6  1  0
  6  7  2  0
  6  8  1  0
  8  9  1  0
  9 10  2  0
 10 11  1  0
 11 12  1  0
 12 13  1  0
 13 14  1  0
 14 15  2  0
 14 16  1  0
 16 17  1  0
 17 18  2  0
 18 19  1  0
 19 20  2  0
 20 21  1  0
 21 22  1  0
 20 23  1  0
 23 24  1  0
 24 25  2  0
 24 26  2  0
 24 27  1  0
 27 28  1  0
 28 29  1  0
 29 30  1  0
 30 31  1  0
 31 32  1  0
 23 33  2  0
 11  3  2  0
 33 17  1  0
 10  5  1  0
 32 27  1  0
  1 34  1  0
  1 35  1  0
  1 36  1  0
  2 37  1  0
  2 38  1  0
 13 39  1  0
 13 40  1  0
 16 41  1  0
 18 42  1  0
 19 43  1  0
 22 44  1  0
 22 45  1  0
 22 46  1  0
 28 47  1  0
 28 48  1  0
 29 49  1  0
 29 50  1  0
 30 51  1  0
 30 52  1  0
 31 53  1  0
 31 54  1  0
 32 55  1  0
 32 56  1  0
 33 57  1  0
M  CHG  2   4  -1   8  -1
M  END
>  <UniqueID>  (19) 
17

>  <SMILES>  (19) 
CCc1[n-]n2c(=O)[n-]nc2c1SCC(=O)Nc1ccc(OC)c(S(=O)(=O)N2CCCCC2)c1

>  <Energy>  (19) 
157.1945190364638

>  <Genealogy>  (19) 
CCc1[n-]n2c(=O)[n-]nc2c1SCC(=O)Nc1ccc(OC)c(S(=O)(=O)N2CCCCC2)c1 (protonated)
CCc1[n-]n2c(=O)[n-]nc2c1SCC(=O)Nc1ccc(OC)c(S(=O)(=O)N2CCCCC2)c1 (3D coordinates assigned)
CCc1[n-]n2c(=O)[n-]nc2c1SCC(=O)Nc1ccc(OC)c(S(=O)(=O)N2CCCCC2)c1 (nonaromatic ring conformer: 157.1945190364638 kcal/mol)

>  <smiles>  (19) 
CCc1[nH]n2c(=O)[nH]nc2c1SCC(=O)Nc1ccc(OC)c(S(=O)(=O)N2CCCCC2)c1

>  <score_type>  (19) 
oracle

>  <origin>  (19) 
adg

>  <m_score__min__energy>  (19) 
-13.550000000000001

>  <m_primary>  (19) 
energy

$$$$
19:0
     RDKit          3D

 64 68  0  0  0  0  0  0  0  0999 V2000
   54.8691   29.1313   44.4382 H   0  0  0  0  0  0  0  0  0  0  0  0
   55.8750   29.5710   44.5080 C   0  0  0  0  0  0  0  0  0  0  0  0
   56.0610   30.8860   44.2310 N   0  0  0  0  0  0  0  0  0  0  0  0
   57.2880   31.4780   44.3030 C   0  0  0  0  0  0  0  0  0  0  0  0
   57.4350   32.7540   44.0770 N   0  0  0  0  0  0  0  0  0  0  0  0
   57.2970   33.8060   45.0500 C   0  0  0  0  0  0  0  0  0  0  0  0
   56.5180   34.7650   44.8060 O   0  0  0  0  0  0  0  0  0  0  0  0
   58.0680   33.8060   46.3110 C   0  0  0  0  0  0  0  0  0  0  0  0
   59.1300   34.7030   46.4900 C   0  0  0  0  0  0  0  0  0  0  0  0
   59.2965   35.5067   45.7577 H   0  0  0  0  0  0  0  0  0  0  0  0
   59.9780   34.5820   47.5930 C   0  0  0  0  0  0  0  0  0  0  0  0
   60.8024   35.2972   47.7303 H   0  0  0  0  0  0  0  0  0  0  0  0
   59.7840   33.5530   48.5270 C   0  0  0  0  0  0  0  0  0  0  0  0
   60.7810   33.3390   49.6490 C   0  0  0  0  0  0  0  0  0  0  0  0
   60.9239   34.2983   50.1679 H   0  0  0  0  0  0  0  0  0  0  0  0
   60.3578   32.5560   50.2953 H   0  0  0  0  0  0  0  0  0  0  0  0
   62.1100   32.8480   49.2120 N   0  0  0  0  0  0  0  0  0  0  0  0
   62.0920   31.7480   48.2460 C   0  0  0  0  0  0  0  0  0  0  0  0
   61.9483   30.7889   48.7651 H   0  0  0  0  0  0  0  0  0  0  0  0
   61.2672   31.8634   47.5274 H   0  0  0  0  0  0  0  0  0  0  0  0
   63.4460   31.7680   47.5400 C   0  0  0  0  0  0  0  0  0  0  0  0
   64.0660   30.9236   47.8757 H   0  0  0  0  0  0  0  0  0  0  0  0
   63.3363   31.6748   46.4495 H   0  0  0  0  0  0  0  0  0  0  0  0
   64.0940   33.0890   47.9280 C   0  0  0  0  0  0  0  0  0  0  0  0
   64.9602   32.9163   48.5837 H   0  0  0  0  0  0  0  0  0  0  0  0
   64.4660   33.6387   47.0508 H   0  0  0  0  0  0  0  0  0  0  0  0
   63.0130   33.8590   48.6650 C   0  0  0  0  0  0  0  0  0  0  0  0
   63.4538   34.4582   49.4753 H   0  0  0  0  0  0  0  0  0  0  0  0
   62.4851   34.5565   47.9981 H   0  0  0  0  0  0  0  0  0  0  0  0
   58.6580   32.7220   48.4020 C   0  0  0  0  0  0  0  0  0  0  0  0
   58.4445   31.9703   49.1762 H   0  0  0  0  0  0  0  0  0  0  0  0
   57.8070   32.8450   47.2990 C   0  0  0  0  0  0  0  0  0  0  0  0
   56.9308   32.1865   47.2060 H   0  0  0  0  0  0  0  0  0  0  0  0
   58.4060   30.6990   44.6260 C   0  0  0  0  0  0  0  0  0  0  0  0
   59.4070   31.1544   44.6487 H   0  0  0  0  0  0  0  0  0  0  0  0
   58.2470   29.3390   44.9200 C   0  0  0  0  0  0  0  0  0  0  0  0
   59.3780   28.6010   45.3050 O   0  0  0  0  0  0  0  0  0  0  0  0
   59.7730   28.3260   46.6230 C   0  0  0  0  0  0  0  0  0  0  0  0
   60.3350   27.0910   46.9900 C   0  0  0  0  0  0  0  0  0  0  0  0
   60.5064   26.3187   46.2257 H   0  0  0  0  0  0  0  0  0  0  0  0
   60.6770   26.8400   48.3220 C   0  0  0  0  0  0  0  0  0  0  0  0
   61.1057   25.8669   48.6037 H   0  0  0  0  0  0  0  0  0  0  0  0
   60.4750   27.8270   49.3030 C   0  0  0  0  0  0  0  0  0  0  0  0
   60.7940   27.6000   50.6820 N   0  0  0  0  0  0  0  0  0  0  0  0
   60.5180   28.4940   51.7660 C   0  0  0  0  0  0  0  0  0  0  0  0
   61.4480   28.7960   52.5620 O   0  0  0  0  0  0  0  0  0  0  0  0
   59.2020   29.0370   51.9430 N   0  0  0  0  0  0  0  0  0  0  0  0
   58.8640   30.4180   52.1240 C   0  0  0  0  0  0  0  0  0  0  0  0
   59.8270   31.3890   52.4620 C   0  0  0  0  0  0  0  0  0  0  0  0
   60.8694   31.0883   52.6438 H   0  0  0  0  0  0  0  0  0  0  0  0
   59.4600   32.7360   52.5670 C   0  0  0  0  0  0  0  0  0  0  0  0
   60.2133   33.4905   52.8375 H   0  0  0  0  0  0  0  0  0  0  0  0
   58.1390   33.1240   52.3290 C   0  0  0  0  0  0  0  0  0  0  0  0
   57.7870   34.4350   52.3970 F   0  0  0  0  0  0  0  0  0  0  0  0
   57.1820   32.1650   51.9830 C   0  0  0  0  0  0  0  0  0  0  0  0
   56.1417   32.4699   51.7963 H   0  0  0  0  0  0  0  0  0  0  0  0
   57.5450   30.8200   51.8740 C   0  0  0  0  0  0  0  0  0  0  0  0
   56.7903   30.0718   51.5901 H   0  0  0  0  0  0  0  0  0  0  0  0
   59.9800   29.0800   48.9200 C   0  0  0  0  0  0  0  0  0  0  0  0
   59.8652   29.8753   49.6712 H   0  0  0  0  0  0  0  0  0  0  0  0
   59.6310   29.3260   47.5890 C   0  0  0  0  0  0  0  0  0  0  0  0
   59.2419   30.3134   47.2999 H   0  0  0  0  0  0  0  0  0  0  0  0
   56.9580   28.7770   44.8810 C   0  0  0  0  0  0  0  0  0  0  0  0
   56.8061   27.7195   45.1428 H   0  0  0  0  0  0  0  0  0  0  0  0
  1  2  1  0
  2  3  1  0
  3  4  1  0
  4  5  2  0
  5  6  1  0
  6  7  2  0
  6  8  1  0
  8  9  2  0
  9 10  1  0
  9 11  1  0
 11 12  1  0
 11 13  2  0
 13 14  1  0
 14 15  1  0
 14 16  1  0
 14 17  1  0
 17 18  1  0
 18 19  1  0
 18 20  1  0
 18 21  1  0
 21 22  1  0
 21 23  1  0
 21 24  1  0
 24 25  1  0
 24 26  1  0
 24 27  1  0
 27 28  1  0
 27 29  1  0
 13 30  1  0
 30 31  1  0
 30 32  2  0
 32 33  1  0
  4 34  1  0
 34 35  1  0
 34 36  2  0
 36 37  1  0
 37 38  1  0
 38 39  2  0
 39 40  1  0
 39 41  1  0
 41 42  1  0
 41 43  2  0
 43 44  1  0
 44 45  1  0
 45 46  2  0
 45 47  1  0
 47 48  1  0
 48 49  2  0
 49 50  1  0
 49 51  1  0
 51 52  1  0
 51 53  2  0
 53 54  1  0
 53 55  1  0
 55 56  1  0
 55 57  2  0
 57 58  1  0
 43 59  1  0
 59 60  1  0
 59 61  2  0
 61 62  1  0
 36 63  1  0
 63 64  1  0
 63  2  2  0
 32  8  1  0
 61 38  1  0
 27 17  1  0
 57 48  1  0
M  CHG  3   3  -1  44  -1  47  -1
M  END
>  <UniqueID>  (20) 
18

>  <SMILES>  (20) 
O=C([N-]c1ccc(F)cc1)[N-]c1ccc(Oc2cc[n-]/c(=N\C(=O)c3ccc(CN4CCCC4)cc3)c2)cc1

>  <Energy>  (20) 
99.61713292510962

>  <Genealogy>  (20) 
O=C([N-]c1ccc(F)cc1)[N-]c1ccc(Oc2cc[n-]c(=NC(=O)c3ccc(CN4CCCC4)cc3)c2)cc1 (protonated)
O=C([N-]c1ccc(F)cc1)[N-]c1ccc(Oc2cc[n-]/c(=N\C(=O)c3ccc(CN4CCCC4)cc3)c2)cc1 (cis-trans isomerization)
O=C([N-]c1ccc(F)cc1)[N-]c1ccc(Oc2cc[n-]/c(=N\C(=O)c3ccc(CN4CCCC4)cc3)c2)cc1 (3D coordinates assigned)
O=C([N-]c1ccc(F)cc1)[N-]c1ccc(Oc2cc[n-]/c(=N\C(=O)c3ccc(CN4CCCC4)cc3)c2)cc1 (nonaromatic ring conformer: 99.61713292510962 kcal/mol)

>  <smiles>  (20) 
O=C(Nc1ccc(F)cc1)Nc1ccc(Oc2cc[nH]c(=NC(=O)c3ccc(CN4CCCC4)cc3)c2)cc1

>  <score_type>  (20) 
oracle

>  <origin>  (20) 
adg

>  <m_score__min__energy>  (20) 
-13.27

>  <m_primary>  (20) 
energy

$$$$
20:0
     RDKit          3D

 46 49  0  0  0  0  0  0  0  0999 V2000
   62.0060   32.5170   48.5530 O   0  0  0  0  0  0  0  0  0  0  0  0
   61.1290   33.1770   47.9300 C   0  0  0  0  0  0  0  0  0  0  0  0
   61.0360   33.0560   46.4370 C   0  0  0  0  0  0  0  0  0  0  0  0
   59.6420   32.7790   46.0210 N   0  0  0  0  0  0  0  0  0  0  0  0
   58.7800   33.8350   45.8230 C   0  0  0  0  0  0  0  0  0  0  0  0
   59.1650   35.0270   45.9950 O   0  0  0  0  0  0  0  0  0  0  0  0
   57.4580   33.6020   45.4300 C   0  0  0  0  0  0  0  0  0  0  0  0
   56.6650   34.5630   45.2350 O   0  0  0  0  0  0  0  0  0  0  0  0
   57.0220   32.3320   45.2590 N   0  0  0  0  0  0  0  0  0  0  0  0
   57.8370   31.2720   45.4690 C   0  0  0  0  0  0  0  0  0  0  0  0
   57.3340   29.9770   45.3010 C   0  0  0  0  0  0  0  0  0  0  0  0
   58.1470   28.8570   45.5360 C   0  0  0  0  0  0  0  0  0  0  0  0
   57.6040   27.4870   45.3740 C   0  0  0  0  0  0  0  0  0  0  0  0
   58.2600   26.6290   44.7200 O   0  0  0  0  0  0  0  0  0  0  0  0
   56.3390   27.1420   45.9650 N   0  0  0  0  0  0  0  0  0  0  0  0
   55.7330   25.9970   45.8650 C   0  0  0  0  0  0  0  0  0  0  0  0
   54.4030   25.8540   45.6590 N   0  0  0  0  0  0  0  0  0  0  0  0
   54.0460   24.5430   45.6130 C   0  0  0  0  0  0  0  0  0  0  0  0
   55.0940   23.6510   45.7900 C   0  0  0  0  0  0  0  0  0  0  0  0
   54.9630   21.9050   45.7940 Cl  0  0  0  0  0  0  0  0  0  0  0  0
   56.5190   24.5170   46.0090 S   0  0  0  0  0  0  0  0  0  0  0  0
   59.4760   29.0580   45.9410 C   0  0  0  0  0  0  0  0  0  0  0  0
   59.9860   30.3480   46.1070 C   0  0  0  0  0  0  0  0  0  0  0  0
   59.1780   31.4850   45.8680 C   0  0  0  0  0  0  0  0  0  0  0  0
   60.2070   34.0040   48.6490 N   0  0  0  0  0  0  0  0  0  0  0  0
   60.3090   34.1800   50.0970 C   0  0  0  0  0  0  0  0  0  0  0  0
   59.2600   33.3680   50.8050 C   0  0  0  0  0  0  0  0  0  0  0  0
   58.8100   33.7530   52.0790 C   0  0  0  0  0  0  0  0  0  0  0  0
   57.8610   32.9790   52.7530 C   0  0  0  0  0  0  0  0  0  0  0  0
   57.3650   31.8110   52.1670 C   0  0  0  0  0  0  0  0  0  0  0  0
   57.8220   31.4120   50.9070 C   0  0  0  0  0  0  0  0  0  0  0  0
   58.7720   32.1840   50.2300 C   0  0  0  0  0  0  0  0  0  0  0  0
   61.3700   33.9976   45.9767 H   0  0  0  0  0  0  0  0  0  0  0  0
   61.6755   32.2234   46.1088 H   0  0  0  0  0  0  0  0  0  0  0  0
   56.2910   29.8352   44.9816 H   0  0  0  0  0  0  0  0  0  0  0  0
   53.0089   24.2155   45.4485 H   0  0  0  0  0  0  0  0  0  0  0  0
   60.1237   28.1892   46.1300 H   0  0  0  0  0  0  0  0  0  0  0  0
   61.0297   30.4817   46.4278 H   0  0  0  0  0  0  0  0  0  0  0  0
   59.4640   34.5110   48.1150 H   0  0  0  0  0  0  0  0  0  0  0  0
   61.3050   33.8540   50.4313 H   0  0  0  0  0  0  0  0  0  0  0  0
   60.1557   35.2426   50.3363 H   0  0  0  0  0  0  0  0  0  0  0  0
   59.2056   34.6662   52.5475 H   0  0  0  0  0  0  0  0  0  0  0  0
   57.5040   33.2896   53.7460 H   0  0  0  0  0  0  0  0  0  0  0  0
   56.6150   31.2055   52.6970 H   0  0  0  0  0  0  0  0  0  0  0  0
   57.4342   30.4906   50.4480 H   0  0  0  0  0  0  0  0  0  0  0  0
   59.1379   31.8622   49.2438 H   0  0  0  0  0  0  0  0  0  0  0  0
  1  2  2  0
  2  3  1  0
  3  4  1  0
  4  5  1  0
  5  6  2  0
  5  7  1  0
  7  8  2  0
  7  9  1  0
  9 10  1  0
 10 11  2  0
 11 12  1  0
 12 13  1  0
 13 14  2  0
 13 15  1  0
 15 16  2  3
 16 17  1  0
 17 18  1  0
 18 19  2  0
 19 20  1  0
 19 21  1  0
 12 22  2  0
 22 23  1  0
 23 24  2  0
  2 25  1  0
 25 26  1  0
 26 27  1  0
 27 28  2  0
 28 29  1  0
 29 30  2  0
 30 31  1  0
 31 32  2  0
 24  4  1  0
 32 27  1  0
 24 10  1  0
 21 16  1  0
  3 33  1  0
  3 34  1  0
 11 35  1  0
 18 36  1  0
 22 37  1  0
 23 38  1  0
 25 39  1  0
 26 40  1  0
 26 41  1  0
 28 42  1  0
 29 43  1  0
 30 44  1  0
 31 45  1  0
 32 46  1  0
M  CHG  2   9  -1  17  -1
M  END
>  <UniqueID>  (21) 
19

>  <SMILES>  (21) 
O=C(Cn1c(=O)c(=O)[n-]c2cc(C(=O)N=c3[n-]cc(Cl)s3)ccc21)NCc1ccccc1

>  <Energy>  (21) 
91.9538367500603

>  <Genealogy>  (21) 
O=C(Cn1c(=O)c(=O)[n-]c2cc(C(=O)N=c3[n-]cc(Cl)s3)ccc21)NCc1ccccc1 (protonated)
O=C(Cn1c(=O)c(=O)[n-]c2cc(C(=O)N=c3[n-]cc(Cl)s3)ccc21)NCc1ccccc1 (3D coordinates assigned)
O=C(Cn1c(=O)c(=O)[n-]c2cc(C(=O)N=c3[n-]cc(Cl)s3)ccc21)NCc1ccccc1 (optimized conformer: 91.9538367500603 kcal/mol)

>  <smiles>  (21) 
O=C(Cn1c(=O)c(=O)[nH]c2cc(C(=O)N=c3[nH]cc(Cl)s3)ccc21)NCc1ccccc1

>  <score_type>  (21) 
oracle

>  <origin>  (21) 
adg

>  <m_score__min__energy>  (21) 
-12.51

>  <m_primary>  (21) 
energy

$$$$
21:0
     RDKit          3D

 47 47  0  0  0  0  0  0  0  0999 V2000
   57.6400   32.0390   41.9660 C   0  0  0  0  0  0  0  0  0  0  0  0
   57.7700   31.6060   43.4200 C   0  0  0  0  0  0  0  0  0  0  0  0
   57.0400   29.9980   43.6990 S   0  0  0  0  0  0  0  0  0  0  0  0
   56.0730   30.1090   44.8440 O   0  0  0  0  0  0  0  0  0  0  0  0
   56.2860   29.5670   42.4700 O   0  0  0  0  0  0  0  0  0  0  0  0
   58.2920   28.7890   44.1240 C   0  0  0  0  0  0  0  0  0  0  0  0
   57.6770   27.5400   44.7670 C   0  0  0  0  0  0  0  0  0  0  0  0
   57.5300   27.6690   46.2880 C   0  0  0  0  0  0  0  0  0  0  0  0
   59.0640   28.1040   47.1000 S   0  0  0  0  0  0  0  0  0  0  0  0
   60.1900   28.0340   46.1060 O   0  0  0  0  0  0  0  0  0  0  0  0
   59.3190   27.1150   48.2030 O   0  0  0  0  0  0  0  0  0  0  0  0
   58.9380   29.7070   47.7680 N   0  0  0  0  0  0  0  0  0  0  0  0
   58.5130   30.6730   46.7520 C   0  0  0  0  0  0  0  0  0  0  0  0
   59.4000   31.8930   46.7630 C   0  0  0  0  0  0  0  0  0  0  0  0
   60.7610   31.7630   47.0890 C   0  0  0  0  0  0  0  0  0  0  0  0
   61.5930   32.8860   47.1290 C   0  0  0  0  0  0  0  0  0  0  0  0
   63.2980   32.7070   47.5310 S   0  0  0  0  0  0  0  0  0  0  0  0
   63.5100   32.8670   49.2880 C   0  0  0  0  0  0  0  0  0  0  0  0
   63.7890   31.3580   47.0860 O   0  0  0  0  0  0  0  0  0  0  0  0
   64.0990   33.7670   46.8270 O   0  0  0  0  0  0  0  0  0  0  0  0
   61.0700   34.1480   46.8260 C   0  0  0  0  0  0  0  0  0  0  0  0
   59.7190   34.2900   46.5010 C   0  0  0  0  0  0  0  0  0  0  0  0
   58.8700   33.1660   46.4690 C   0  0  0  0  0  0  0  0  0  0  0  0
   57.5060   33.2780   46.1540 O   0  0  0  0  0  0  0  0  0  0  0  0
   56.9620   34.2280   45.2440 C   0  0  0  0  0  0  0  0  0  0  0  0
   57.3239   33.0918   41.9238 H   0  0  0  0  0  0  0  0  0  0  0  0
   58.6113   31.9273   41.4619 H   0  0  0  0  0  0  0  0  0  0  0  0
   56.8909   31.4108   41.4619 H   0  0  0  0  0  0  0  0  0  0  0  0
   58.8367   31.5642   43.6855 H   0  0  0  0  0  0  0  0  0  0  0  0
   57.2367   32.3377   44.0446 H   0  0  0  0  0  0  0  0  0  0  0  0
   58.8270   28.4929   43.2096 H   0  0  0  0  0  0  0  0  0  0  0  0
   58.9790   29.2468   44.8509 H   0  0  0  0  0  0  0  0  0  0  0  0
   56.6814   27.3732   44.3301 H   0  0  0  0  0  0  0  0  0  0  0  0
   58.3546   26.6964   44.5690 H   0  0  0  0  0  0  0  0  0  0  0  0
   56.7849   28.4489   46.5039 H   0  0  0  0  0  0  0  0  0  0  0  0
   57.2181   26.6875   46.6744 H   0  0  0  0  0  0  0  0  0  0  0  0
   58.5651   30.1991   45.7607 H   0  0  0  0  0  0  0  0  0  0  0  0
   57.4825   30.9864   46.9751 H   0  0  0  0  0  0  0  0  0  0  0  0
   61.1752   30.7692   47.3146 H   0  0  0  0  0  0  0  0  0  0  0  0
   62.7352   32.2823   49.8056 H   0  0  0  0  0  0  0  0  0  0  0  0
   64.5040   32.4920   49.5730 H   0  0  0  0  0  0  0  0  0  0  0  0
   63.4219   33.9258   49.5730 H   0  0  0  0  0  0  0  0  0  0  0  0
   61.7252   35.0314   46.8438 H   0  0  0  0  0  0  0  0  0  0  0  0
   59.3150   35.2864   46.2684 H   0  0  0  0  0  0  0  0  0  0  0  0
   56.4924   35.0480   45.8071 H   0  0  0  0  0  0  0  0  0  0  0  0
   57.7660   34.6314   44.6108 H   0  0  0  0  0  0  0  0  0  0  0  0
   56.2072   33.7387   44.6108 H   0  0  0  0  0  0  0  0  0  0  0  0
  1  2  1  0
  2  3  1  0
  3  4  2  0
  3  5  2  0
  3  6  1  0
  6  7  1  0
  7  8  1  0
  8  9  1  0
  9 10  2  0
  9 11  2  0
  9 12  1  0
 12 13  1  0
 13 14  1  0
 14 15  2  0
 15 16  1  0
 16 17  1  0
 17 18  1  0
 17 19  2  0
 17 20  2  0
 16 21  2  0
 21 22  1  0
 22 23  2  0
 23 24  1  0
 24 25  1  0
 23 14  1  0
  1 26  1  0
  1 27  1  0
  1 28  1  0
  2 29  1  0
  2 30  1  0
  6 31  1  0
  6 32  1  0
  7 33  1  0
  7 34  1  0
  8 35  1  0
  8 36  1  0
 13 37  1  0
 13 38  1  0
 15 39  1  0
 18 40  1  0
 18 41  1  0
 18 42  1  0
 21 43  1  0
 22 44  1  0
 25 45  1  0
 25 46  1  0
 25 47  1  0
M  CHG  1  12  -1
M  END
>  <UniqueID>  (22) 
20

>  <SMILES>  (22) 
CCS(=O)(=O)CCCS(=O)(=O)[N-]Cc1cc(S(C)(=O)=O)ccc1OC

>  <Energy>  (22) 
23.65061300063705

>  <Genealogy>  (22) 
CCS(=O)(=O)CCCS(=O)(=O)[N-]Cc1cc(S(C)(=O)=O)ccc1OC (protonated)
CCS(=O)(=O)CCCS(=O)(=O)[N-]Cc1cc(S(C)(=O)=O)ccc1OC (3D coordinates assigned)
CCS(=O)(=O)CCCS(=O)(=O)[N-]Cc1cc(S(C)(=O)=O)ccc1OC (optimized conformer: 23.65061300063705 kcal/mol)

>  <smiles>  (22) 
CCS(=O)(=O)CCCS(=O)(=O)NCc1cc(S(C)(=O)=O)ccc1OC

>  <score_type>  (22) 
oracle

>  <origin>  (22) 
adg

>  <m_score__min__energy>  (22) 
-10.23

>  <m_primary>  (22) 
energy

$$$$
22:0
     RDKit          3D

 60 63  0  0  0  0  0  0  0  0999 V2000
   51.3570   23.8890   44.5180 C   0  0  0  0  0  0  0  0  0  0  0  0
   52.4530   22.9890   44.8520 N   0  0  0  0  0  0  0  0  0  0  0  0
   53.8390   23.3510   44.8530 C   0  0  0  0  0  0  0  0  0  0  0  0
   54.3670   23.7240   43.7730 O   0  0  0  0  0  0  0  0  0  0  0  0
   54.6570   23.3380   46.0830 C   0  0  0  0  0  0  0  0  0  0  0  0
   54.4490   22.3660   47.0720 C   0  0  0  0  0  0  0  0  0  0  0  0
   55.2370   22.3590   48.2250 C   0  0  0  0  0  0  0  0  0  0  0  0
   56.2470   23.3100   48.3950 C   0  0  0  0  0  0  0  0  0  0  0  0
   56.4920   24.2720   47.3980 C   0  0  0  0  0  0  0  0  0  0  0  0
   57.5360   25.2560   47.5290 N   0  0  0  0  0  0  0  0  0  0  0  0
   58.7320   25.3150   46.6870 C   0  0  0  0  0  0  0  0  0  0  0  0
   58.4690   26.1100   45.4330 C   0  0  0  0  0  0  0  0  0  0  0  0
   58.0020   25.4670   44.2750 C   0  0  0  0  0  0  0  0  0  0  0  0
   57.7740   26.1990   43.1070 C   0  0  0  0  0  0  0  0  0  0  0  0
   57.9900   27.5790   43.0920 C   0  0  0  0  0  0  0  0  0  0  0  0
   58.4130   28.2450   44.2520 C   0  0  0  0  0  0  0  0  0  0  0  0
   58.6410   29.6640   44.2090 N   0  0  0  0  0  0  0  0  0  0  0  0
   57.8080   30.6220   44.8840 C   0  0  0  0  0  0  0  0  0  0  0  0
   56.6300   30.3070   45.2100 O   0  0  0  0  0  0  0  0  0  0  0  0
   58.2970   31.9950   45.1580 C   0  0  0  0  0  0  0  0  0  0  0  0
   57.6340   33.1060   44.6070 C   0  0  0  0  0  0  0  0  0  0  0  0
   58.0840   34.4010   44.8730 C   0  0  0  0  0  0  0  0  0  0  0  0
   59.1950   34.6050   45.6930 C   0  0  0  0  0  0  0  0  0  0  0  0
   59.8710   33.5100   46.2560 C   0  0  0  0  0  0  0  0  0  0  0  0
   61.0060   33.7170   47.1180 N   0  0  0  0  0  0  0  0  0  0  0  0
   60.8040   33.9330   48.5560 C   0  0  0  0  0  0  0  0  0  0  0  0
   62.1300   33.7960   49.3060 C   0  0  0  0  0  0  0  0  0  0  0  0
   62.8870   32.7520   48.7310 O   0  0  0  0  0  0  0  0  0  0  0  0
   63.4070   33.1600   47.4750 C   0  0  0  0  0  0  0  0  0  0  0  0
   62.3590   33.8300   46.5560 C   0  0  0  0  0  0  0  0  0  0  0  0
   59.4120   32.2100   45.9900 C   0  0  0  0  0  0  0  0  0  0  0  0
   58.6630   27.5010   45.4180 C   0  0  0  0  0  0  0  0  0  0  0  0
   55.6910   24.2740   46.2440 C   0  0  0  0  0  0  0  0  0  0  0  0
   50.8974   24.2664   45.4434 H   0  0  0  0  0  0  0  0  0  0  0  0
   51.7430   24.7342   43.9292 H   0  0  0  0  0  0  0  0  0  0  0  0
   50.6031   23.3459   43.9292 H   0  0  0  0  0  0  0  0  0  0  0  0
   53.6635   21.6074   46.9394 H   0  0  0  0  0  0  0  0  0  0  0  0
   55.0619   21.6014   49.0031 H   0  0  0  0  0  0  0  0  0  0  0  0
   56.8533   23.3063   49.3128 H   0  0  0  0  0  0  0  0  0  0  0  0
   57.4330   25.9990   48.2580 H   0  0  0  0  0  0  0  0  0  0  0  0
   59.5466   25.7921   47.2516 H   0  0  0  0  0  0  0  0  0  0  0  0
   59.0112   24.2902   46.4011 H   0  0  0  0  0  0  0  0  0  0  0  0
   57.8151   24.3831   44.2877 H   0  0  0  0  0  0  0  0  0  0  0  0
   57.4239   25.6879   42.1980 H   0  0  0  0  0  0  0  0  0  0  0  0
   57.8273   28.1473   42.1644 H   0  0  0  0  0  0  0  0  0  0  0  0
   59.3790   30.0230   43.5620 H   0  0  0  0  0  0  0  0  0  0  0  0
   56.7556   32.9541   43.9625 H   0  0  0  0  0  0  0  0  0  0  0  0
   57.5609   35.2636   44.4346 H   0  0  0  0  0  0  0  0  0  0  0  0
   59.5427   35.6280   45.8993 H   0  0  0  0  0  0  0  0  0  0  0  0
   60.3986   34.9427   48.7176 H   0  0  0  0  0  0  0  0  0  0  0  0
   60.0994   33.1782   48.9352 H   0  0  0  0  0  0  0  0  0  0  0  0
   62.6915   34.7392   49.2345 H   0  0  0  0  0  0  0  0  0  0  0  0
   61.9326   33.5679   50.3638 H   0  0  0  0  0  0  0  0  0  0  0  0
   64.2219   33.8772   47.6529 H   0  0  0  0  0  0  0  0  0  0  0  0
   63.7523   32.2516   46.9597 H   0  0  0  0  0  0  0  0  0  0  0  0
   62.6115   34.8944   46.4411 H   0  0  0  0  0  0  0  0  0  0  0  0
   62.3741   33.3191   45.5820 H   0  0  0  0  0  0  0  0  0  0  0  0
   59.9301   31.3489   46.4373 H   0  0  0  0  0  0  0  0  0  0  0  0
   59.0136   28.0125   46.3265 H   0  0  0  0  0  0  0  0  0  0  0  0
   55.8764   25.0188   45.4560 H   0  0  0  0  0  0  0  0  0  0  0  0
  1  2  1  0
  2  3  1  0
  3  4  2  0
  3  5  1  0
  5  6  2  0
  6  7  1  0
  7  8  2  0
  8  9  1  0
  9 10  1  0
 10 11  1  0
 11 12  1  0
 12 13  2  0
 13 14  1  0
 14 15  2  0
 15 16  1  0
 16 17  1  0
 17 18  1  0
 18 19  2  0
 18 20  1  0
 20 21  2  0
 21 22  1  0
 22 23  2  0
 23 24  1  0
 24 25  1  0
 25 26  1  0
 26 27  1  0
 27 28  1  0
 28 29  1  0
 29 30  1  0
 24 31  2  0
 16 32  2  0
  9 33  2  0
 33  5  1  0
 32 12  1  0
 31 20  1  0
 30 25  1  0
  1 34  1  0
  1 35  1  0
  1 36  1  0
  6 37  1  0
  7 38  1  0
  8 39  1  0
 10 40  1  0
 11 41  1  0
 11 42  1  0
 13 43  1  0
 14 44  1  0
 15 45  1  0
 17 46  1  0
 21 47  1  0
 22 48  1  0
 23 49  1  0
 26 50  1  0
 26 51  1  0
 27 52  1  0
 27 53  1  0
 29 54  1  0
 29 55  1  0
 30 56  1  0
 30 57  1  0
 31 58  1  0
 32 59  1  0
 33 60  1  0
M  CHG  1   2  -1
M  END
>  <UniqueID>  (23) 
21

>  <SMILES>  (23) 
C[N-]C(=O)c1cccc(NCc2cccc(NC(=O)c3cccc(N4CCOCC4)c3)c2)c1

>  <Energy>  (23) 
82.10007819155317

>  <Genealogy>  (23) 
C[N-]C(=O)c1cccc(NCc2cccc(NC(=O)c3cccc(N4CCOCC4)c3)c2)c1 (protonated)
C[N-]C(=O)c1cccc(NCc2cccc(NC(=O)c3cccc(N4CCOCC4)c3)c2)c1 (3D coordinates assigned)
C[N-]C(=O)c1cccc(NCc2cccc(NC(=O)c3cccc(N4CCOCC4)c3)c2)c1 (nonaromatic ring conformer: 82.10007819155317 kcal/mol)

>  <smiles>  (23) 
CNC(=O)c1cccc(NCc2cccc(NC(=O)c3cccc(N4CCOCC4)c3)c2)c1

>  <score_type>  (23) 
oracle

>  <origin>  (23) 
adg

>  <m_score__min__energy>  (23) 
-12.869999999999999

>  <m_primary>  (23) 
energy

$$$$
23:0
     RDKit          3D

 46 49  0  0  0  0  0  0  0  0999 V2000
   58.4074   30.8473   45.6536 H   0  0  0  0  0  0  0  0  0  0  0  0
   58.9050   31.8180   45.7950 C   0  0  0  0  0  0  0  0  0  0  0  0
   59.9400   31.9350   46.7260 C   0  0  0  0  0  0  0  0  0  0  0  0
   60.2540   31.0557   47.3076 H   0  0  0  0  0  0  0  0  0  0  0  0
   60.5820   33.1680   46.9240 C   0  0  0  0  0  0  0  0  0  0  0  0
   61.6800   33.2960   47.9090 C   0  0  0  0  0  0  0  0  0  0  0  0
   62.8840   32.6800   47.7580 N   0  0  0  0  0  0  0  0  0  0  0  0
   63.5490   33.0590   48.8580 C   0  0  0  0  0  0  0  0  0  0  0  0
   64.8460   32.7180   49.2320 C   0  0  0  0  0  0  0  0  0  0  0  0
   65.4665   32.0637   48.6021 H   0  0  0  0  0  0  0  0  0  0  0  0
   65.3360   33.2400   50.4450 C   0  0  0  0  0  0  0  0  0  0  0  0
   66.9640   32.8510   50.9670 Cl  0  0  0  0  0  0  0  0  0  0  0  0
   64.5210   34.0790   51.2400 C   0  0  0  0  0  0  0  0  0  0  0  0
   64.9111   34.4824   52.1861 H   0  0  0  0  0  0  0  0  0  0  0  0
   63.2150   34.4010   50.8290 C   0  0  0  0  0  0  0  0  0  0  0  0
   62.5711   35.0532   51.4373 H   0  0  0  0  0  0  0  0  0  0  0  0
   62.7660   33.8650   49.6250 C   0  0  0  0  0  0  0  0  0  0  0  0
   61.5700   34.0370   49.0450 N   0  0  0  0  0  0  0  0  0  0  0  0
   60.1570   34.2820   46.1830 C   0  0  0  0  0  0  0  0  0  0  0  0
   60.6488   35.2549   46.3301 H   0  0  0  0  0  0  0  0  0  0  0  0
   59.1130   34.1650   45.2590 C   0  0  0  0  0  0  0  0  0  0  0  0
   58.7744   35.0502   44.7006 H   0  0  0  0  0  0  0  0  0  0  0  0
   58.4950   32.9220   45.0410 C   0  0  0  0  0  0  0  0  0  0  0  0
   57.4040   32.7540   44.1210 N   0  0  0  0  0  0  0  0  0  0  0  0
   57.3990   31.9990   42.9040 C   0  0  0  0  0  0  0  0  0  0  0  0
   58.0250   32.4510   41.9070 O   0  0  0  0  0  0  0  0  0  0  0  0
   56.6400   30.7840   42.8000 N   0  0  0  0  0  0  0  0  0  0  0  0
   56.4850   29.9040   43.7440 C   0  0  0  0  0  0  0  0  0  0  0  0
   55.3410   29.6940   44.4220 N   0  0  0  0  0  0  0  0  0  0  0  0
   55.5780   28.7100   45.2430 O   0  0  0  0  0  0  0  0  0  0  0  0
   56.8160   28.2760   45.1310 C   0  0  0  0  0  0  0  0  0  0  0  0
   57.3700   27.1000   45.9140 C   0  0  0  0  0  0  0  0  0  0  0  0
   58.3420   26.3100   45.0180 C   0  0  0  0  0  0  0  0  0  0  0  0
   59.0417   25.7413   45.6482 H   0  0  0  0  0  0  0  0  0  0  0  0
   57.7728   25.6152   44.3829 H   0  0  0  0  0  0  0  0  0  0  0  0
   58.9058   27.0092   44.3829 H   0  0  0  0  0  0  0  0  0  0  0  0
   56.2420   26.1570   46.3810 C   0  0  0  0  0  0  0  0  0  0  0  0
   56.2148   26.1342   47.4804 H   0  0  0  0  0  0  0  0  0  0  0  0
   55.2774   26.5212   45.9978 H   0  0  0  0  0  0  0  0  0  0  0  0
   56.4295   25.1431   45.9978 H   0  0  0  0  0  0  0  0  0  0  0  0
   58.1250   27.6420   47.1400 C   0  0  0  0  0  0  0  0  0  0  0  0
   57.6336   27.2892   48.0587 H   0  0  0  0  0  0  0  0  0  0  0  0
   59.1644   27.2826   47.1189 H   0  0  0  0  0  0  0  0  0  0  0  0
   58.1169   28.7418   47.1189 H   0  0  0  0  0  0  0  0  0  0  0  0
   57.4580   29.0230   44.1550 C   0  0  0  0  0  0  0  0  0  0  0  0
   58.4940   28.9329   43.7965 H   0  0  0  0  0  0  0  0  0  0  0  0
  1  2  1  0
  2  3  2  0
  3  4  1  0
  3  5  1  0
  5  6  1  0
  6  7  2  0
  7  8  1  0
  8  9  2  0
  9 10  1  0
  9 11  1  0
 11 12  1  0
 11 13  2  0
 13 14  1  0
 13 15  1  0
 15 16  1  0
 15 17  2  0
 17 18  1  0
  5 19  2  0
 19 20  1  0
 19 21  1  0
 21 22  1  0
 21 23  2  0
 23 24  1  0
 24 25  1  0
 25 26  2  0
 25 27  1  0
 27 28  2  0
 28 29  1  0
 29 30  1  0
 30 31  1  0
 31 32  1  0
 32 33  1  0
 33 34  1  0
 33 35  1  0
 33 36  1  0
 32 37  1  0
 37 38  1  0
 37 39  1  0
 37 40  1  0
 32 41  1  0
 41 42  1  0
 41 43  1  0
 41 44  1  0
 31 45  2  0
 45 46  1  0
 23  2  1  0
 45 28  1  0
 18  6  1  0
 17  8  1  0
M  CHG  3  18  -1  24  -1  29  -1
M  END
>  <UniqueID>  (24) 
22

>  <SMILES>  (24) 
CC(C)(C)c1c/c(=N/C(=O)[N-]c2ccc(-c3nc4cc(Cl)ccc4[n-]3)cc2)[n-]o1

>  <Energy>  (24) 
118.21720807050815

>  <Genealogy>  (24) 
CC(C)(C)c1cc(=NC(=O)[N-]c2ccc(-c3nc4cc(Cl)ccc4[n-]3)cc2)[n-]o1 (protonated)
CC(C)(C)c1c/c(=N/C(=O)[N-]c2ccc(-c3nc4cc(Cl)ccc4[n-]3)cc2)[n-]o1 (cis-trans isomerization)
CC(C)(C)c1c/c(=N/C(=O)[N-]c2ccc(-c3nc4cc(Cl)ccc4[n-]3)cc2)[n-]o1 (3D coordinates assigned)
CC(C)(C)c1c/c(=N/C(=O)[N-]c2ccc(-c3nc4cc(Cl)ccc4[n-]3)cc2)[n-]o1 (optimized conformer: 118.21720807050815 kcal/mol)

>  <smiles>  (24) 
CC(C)(C)c1cc(=NC(=O)Nc2ccc(-c3nc4cc(Cl)ccc4[nH]3)cc2)[nH]o1

>  <score_type>  (24) 
oracle

>  <origin>  (24) 
adg

>  <m_score__min__energy>  (24) 
-12.92

>  <m_primary>  (24) 
energy

$$$$
24:0
     RDKit          3D

 48 51  0  0  0  0  0  0  0  0999 V2000
   57.0280   22.9690   47.8810 O   0  0  0  0  0  0  0  0  0  0  0  0
   56.8250   23.9410   47.1110 C   0  0  0  0  0  0  0  0  0  0  0  0
   55.7430   24.7460   47.2290 N   0  0  0  0  0  0  0  0  0  0  0  0
   55.9380   25.6390   46.2460 C   0  0  0  0  0  0  0  0  0  0  0  0
   55.0870   26.7080   45.9910 O   0  0  0  0  0  0  0  0  0  0  0  0
   57.1120   25.3620   45.5780 C   0  0  0  0  0  0  0  0  0  0  0  0
   57.7190   26.1630   44.4640 C   0  0  0  0  0  0  0  0  0  0  0  0
   58.2630   27.4970   44.9090 C   0  0  0  0  0  0  0  0  0  0  0  0
   57.4670   28.6440   44.7770 C   0  0  0  0  0  0  0  0  0  0  0  0
   57.8750   29.8620   45.3300 C   0  0  0  0  0  0  0  0  0  0  0  0
   59.0980   29.9600   46.0130 C   0  0  0  0  0  0  0  0  0  0  0  0
   59.5100   31.1270   46.6740 O   0  0  0  0  0  0  0  0  0  0  0  0
   60.1140   31.1980   47.9720 C   0  0  0  0  0  0  0  0  0  0  0  0
   61.3440   32.0770   48.0050 C   0  0  0  0  0  0  0  0  0  0  0  0
   62.5970   31.4630   47.8140 C   0  0  0  0  0  0  0  0  0  0  0  0
   63.7750   32.2060   47.9070 C   0  0  0  0  0  0  0  0  0  0  0  0
   63.7200   33.5760   48.1700 C   0  0  0  0  0  0  0  0  0  0  0  0
   62.4890   34.2100   48.3230 C   0  0  0  0  0  0  0  0  0  0  0  0
   61.2850   33.4780   48.2470 C   0  0  0  0  0  0  0  0  0  0  0  0
   59.9820   34.2300   48.4340 C   0  0  0  0  0  0  0  0  0  0  0  0
   59.1130   34.1750   47.2030 C   0  0  0  0  0  0  0  0  0  0  0  0
   59.5640   34.7240   45.9860 C   0  0  0  0  0  0  0  0  0  0  0  0
   58.7880   34.6170   44.8300 C   0  0  0  0  0  0  0  0  0  0  0  0
   57.5540   33.9670   44.8770 C   0  0  0  0  0  0  0  0  0  0  0  0
   57.0780   33.4560   46.0870 C   0  0  0  0  0  0  0  0  0  0  0  0
   57.8490   33.5610   47.2490 C   0  0  0  0  0  0  0  0  0  0  0  0
   59.9060   28.8240   46.1170 C   0  0  0  0  0  0  0  0  0  0  0  0
   59.4870   27.5970   45.5910 C   0  0  0  0  0  0  0  0  0  0  0  0
   57.6880   24.2760   46.1250 N   0  0  0  0  0  0  0  0  0  0  0  0
   58.5422   25.5804   44.0248 H   0  0  0  0  0  0  0  0  0  0  0  0
   56.9179   26.3663   43.7382 H   0  0  0  0  0  0  0  0  0  0  0  0
   56.5126   28.5851   44.2333 H   0  0  0  0  0  0  0  0  0  0  0  0
   57.2332   30.7497   45.2292 H   0  0  0  0  0  0  0  0  0  0  0  0
   59.3757   31.6018   48.6804 H   0  0  0  0  0  0  0  0  0  0  0  0
   60.4302   30.1800   48.2435 H   0  0  0  0  0  0  0  0  0  0  0  0
   62.6478   30.3874   47.5893 H   0  0  0  0  0  0  0  0  0  0  0  0
   64.7483   31.7113   47.7729 H   0  0  0  0  0  0  0  0  0  0  0  0
   64.6506   34.1560   48.2566 H   0  0  0  0  0  0  0  0  0  0  0  0
   62.4551   35.2943   48.5053 H   0  0  0  0  0  0  0  0  0  0  0  0
   59.4327   33.7836   49.2760 H   0  0  0  0  0  0  0  0  0  0  0  0
   60.2250   35.2848   48.6299 H   0  0  0  0  0  0  0  0  0  0  0  0
   60.5344   35.2406   45.9464 H   0  0  0  0  0  0  0  0  0  0  0  0
   59.1491   35.0447   43.8831 H   0  0  0  0  0  0  0  0  0  0  0  0
   56.9556   33.8569   43.9606 H   0  0  0  0  0  0  0  0  0  0  0  0
   56.0925   32.9689   46.1259 H   0  0  0  0  0  0  0  0  0  0  0  0
   57.4661   33.1627   48.2002 H   0  0  0  0  0  0  0  0  0  0  0  0
   60.8826   28.8956   46.6182 H   0  0  0  0  0  0  0  0  0  0  0  0
   60.1198   26.7054   45.7122 H   0  0  0  0  0  0  0  0  0  0  0  0
  1  2  2  0
  2  3  1  0
  3  4  1  0
  4  5  1  0
  4  6  2  0
  6  7  1  0
  7  8  1  0
  8  9  2  0
  9 10  1  0
 10 11  2  0
 11 12  1  0
 12 13  1  0
 13 14  1  0
 14 15  2  0
 15 16  1  0
 16 17  2  0
 17 18  1  0
 18 19  2  0
 19 20  1  0
 20 21  1  0
 21 22  2  0
 22 23  1  0
 23 24  2  0
 24 25  1  0
 25 26  2  0
 11 27  1  0
 27 28  2  0
  6 29  1  0
 29  2  1  0
 28  8  1  0
 19 14  1  0
 26 21  1  0
  7 30  1  0
  7 31  1  0
  9 32  1  0
 10 33  1  0
 13 34  1  0
 13 35  1  0
 15 36  1  0
 16 37  1  0
 17 38  1  0
 18 39  1  0
 20 40  1  0
 20 41  1  0
 22 42  1  0
 23 43  1  0
 24 44  1  0
 25 45  1  0
 26 46  1  0
 27 47  1  0
 28 48  1  0
M  CHG  3   3  -1   5  -1  29  -1
M  END
>  <UniqueID>  (25) 
23

>  <SMILES>  (25) 
O=c1[n-]c([O-])c(Cc2ccc(OCc3ccccc3Cc3ccccc3)cc2)[n-]1

>  <Energy>  (25) 
86.58140250631223

>  <Genealogy>  (25) 
O=c1[n-]c([O-])c(Cc2ccc(OCc3ccccc3Cc3ccccc3)cc2)[n-]1 (protonated)
O=c1[n-]c([O-])c(Cc2ccc(OCc3ccccc3Cc3ccccc3)cc2)[n-]1 (3D coordinates assigned)
O=c1[n-]c([O-])c(Cc2ccc(OCc3ccccc3Cc3ccccc3)cc2)[n-]1 (optimized conformer: 86.58140250631223 kcal/mol)

>  <smiles>  (25) 
O=c1[nH]c(O)c(Cc2ccc(OCc3ccccc3Cc3ccccc3)cc2)[nH]1

>  <score_type>  (25) 
oracle

>  <origin>  (25) 
adg

>  <m_score__min__energy>  (25) 
-18.399999999999999

>  <m_primary>  (25) 
energy

$$$$
25:0
     RDKit          3D

 65 69  0  0  0  0  0  0  0  0999 V2000
   58.5343   27.9578   42.1903 H   0  0  0  0  0  0  0  0  0  0  0  0
   57.9390   27.1060   42.5510 C   0  0  0  0  0  0  0  0  0  0  0  0
   57.1751   26.6544   41.9010 H   0  0  0  0  0  0  0  0  0  0  0  0
   58.1450   26.6170   43.7860 C   0  0  0  0  0  0  0  0  0  0  0  0
   57.4600   25.5430   44.3640 C   0  0  0  0  0  0  0  0  0  0  0  0
   56.4580   24.8200   43.8250 C   0  0  0  0  0  0  0  0  0  0  0  0
   56.4435   24.6833   42.7336 H   0  0  0  0  0  0  0  0  0  0  0  0
   55.3760   24.2000   44.6230 C   0  0  0  0  0  0  0  0  0  0  0  0
   54.5670   24.9560   45.4880 C   0  0  0  0  0  0  0  0  0  0  0  0
   54.7650   26.3240   45.6360 O   0  0  0  0  0  0  0  0  0  0  0  0
   53.5900   24.3440   46.2070 N   0  0  0  0  0  0  0  0  0  0  0  0
   53.3900   23.0050   46.1220 C   0  0  0  0  0  0  0  0  0  0  0  0
   52.4740   22.4620   46.7920 O   0  0  0  0  0  0  0  0  0  0  0  0
   54.1820   22.2480   45.3210 N   0  0  0  0  0  0  0  0  0  0  0  0
   55.1710   22.8110   44.5800 C   0  0  0  0  0  0  0  0  0  0  0  0
   55.8900   22.0760   43.8510 O   0  0  0  0  0  0  0  0  0  0  0  0
   57.9710   25.3970   45.6450 C   0  0  0  0  0  0  0  0  0  0  0  0
   57.6595   24.6555   46.3954 H   0  0  0  0  0  0  0  0  0  0  0  0
   58.9450   26.3610   45.7960 C   0  0  0  0  0  0  0  0  0  0  0  0
   59.7060   26.5980   47.0660 C   0  0  0  0  0  0  0  0  0  0  0  0
   59.0534   26.3948   47.9279 H   0  0  0  0  0  0  0  0  0  0  0  0
   60.5785   25.9290   47.1009 H   0  0  0  0  0  0  0  0  0  0  0  0
   60.0444   27.6441   47.1009 H   0  0  0  0  0  0  0  0  0  0  0  0
   59.0560   27.1090   44.6700 N   0  0  0  0  0  0  0  0  0  0  0  0
   59.9380   28.2780   44.5170 C   0  0  0  0  0  0  0  0  0  0  0  0
   60.9862   27.9450   44.5376 H   0  0  0  0  0  0  0  0  0  0  0  0
   59.7130   28.7686   43.5585 H   0  0  0  0  0  0  0  0  0  0  0  0
   59.7100   29.2650   45.6330 C   0  0  0  0  0  0  0  0  0  0  0  0
   60.6770   29.4410   46.6330 C   0  0  0  0  0  0  0  0  0  0  0  0
   61.6007   28.8442   46.6104 H   0  0  0  0  0  0  0  0  0  0  0  0
   60.4760   30.3680   47.6570 C   0  0  0  0  0  0  0  0  0  0  0  0
   61.2498   30.5023   48.4272 H   0  0  0  0  0  0  0  0  0  0  0  0
   59.2950   31.1340   47.7170 C   0  0  0  0  0  0  0  0  0  0  0  0
   59.1160   32.1140   48.8280 C   0  0  0  0  0  0  0  0  0  0  0  0
   59.1930   33.3470   48.5710 O   0  0  0  0  0  0  0  0  0  0  0  0
   58.8340   31.6990   50.1780 N   0  0  0  0  0  0  0  0  0  0  0  0
   58.3560   30.7880   50.3440 H   0  0  0  0  0  0  0  0  0  0  0  0
   59.0490   32.5510   51.3210 C   0  0  0  0  0  0  0  0  0  0  0  0
   57.9570   33.0490   52.0580 C   0  0  0  0  0  0  0  0  0  0  0  0
   56.9334   32.7540   51.7837 H   0  0  0  0  0  0  0  0  0  0  0  0
   58.1640   33.9150   53.1350 C   0  0  0  0  0  0  0  0  0  0  0  0
   57.3050   34.2868   53.7129 H   0  0  0  0  0  0  0  0  0  0  0  0
   59.4560   34.3090   53.4790 C   0  0  0  0  0  0  0  0  0  0  0  0
   59.6149   34.9905   54.3277 H   0  0  0  0  0  0  0  0  0  0  0  0
   60.5480   33.8400   52.7480 C   0  0  0  0  0  0  0  0  0  0  0  0
   61.5650   34.1591   53.0197 H   0  0  0  0  0  0  0  0  0  0  0  0
   60.3570   32.9620   51.6660 C   0  0  0  0  0  0  0  0  0  0  0  0
   61.4950   32.4770   50.9340 N   0  0  0  0  0  0  0  0  0  0  0  0
   62.0600   33.2920   49.8570 C   0  0  0  0  0  0  0  0  0  0  0  0
   61.5104   33.0976   48.9242 H   0  0  0  0  0  0  0  0  0  0  0  0
   61.9734   34.3564   50.1209 H   0  0  0  0  0  0  0  0  0  0  0  0
   63.5380   32.9350   49.6620 C   0  0  0  0  0  0  0  0  0  0  0  0
   63.9177   33.4486   48.7664 H   0  0  0  0  0  0  0  0  0  0  0  0
   64.0978   33.2542   50.5535 H   0  0  0  0  0  0  0  0  0  0  0  0
   63.7020   31.5370   49.5000 O   0  0  0  0  0  0  0  0  0  0  0  0
   63.3190   30.8660   50.6850 C   0  0  0  0  0  0  0  0  0  0  0  0
   63.5367   29.7931   50.5781 H   0  0  0  0  0  0  0  0  0  0  0  0
   63.8844   31.2897   51.5281 H   0  0  0  0  0  0  0  0  0  0  0  0
   61.8230   31.0500   50.9560 C   0  0  0  0  0  0  0  0  0  0  0  0
   61.2430   30.5284   50.1804 H   0  0  0  0  0  0  0  0  0  0  0  0
   61.5749   30.6318   51.9427 H   0  0  0  0  0  0  0  0  0  0  0  0
   58.3170   30.9370   46.7200 C   0  0  0  0  0  0  0  0  0  0  0  0
   57.3809   31.5138   46.7535 H   0  0  0  0  0  0  0  0  0  0  0  0
   58.5260   30.0160   45.6900 C   0  0  0  0  0  0  0  0  0  0  0  0
   57.7555   29.8785   44.9170 H   0  0  0  0  0  0  0  0  0  0  0  0
  1  2  1  0
  2  3  1  0
  2  4  2  0
  4  5  1  0
  5  6  2  0
  6  7  1  0
  6  8  1  0
  8  9  2  0
  9 10  1  0
  9 11  1  0
 11 12  1  0
 12 13  2  0
 12 14  1  0
 14 15  1  0
 15 16  2  0
  5 17  1  0
 17 18  1  0
 17 19  2  0
 19 20  1  0
 20 21  1  0
 20 22  1  0
 20 23  1  0
 19 24  1  0
 24 25  1  0
 25 26  1  0
 25 27  1  0
 25 28  1  0
 28 29  2  0
 29 30  1  0
 29 31  1  0
 31 32  1  0
 31 33  2  0
 33 34  1  0
 34 35  2  0
 34 36  1  0
 36 37  1  0
 36 38  1  0
 38 39  2  0
 39 40  1  0
 39 41  1  0
 41 42  1  0
 41 43  2  0
 43 44  1  0
 43 45  1  0
 45 46  1  0
 45 47  2  0
 47 48  1  0
 48 49  1  0
 49 50  1  0
 49 51  1  0
 49 52  1  0
 52 53  1  0
 52 54  1  0
 52 55  1  0
 55 56  1  0
 56 57  1  0
 56 58  1  0
 56 59  1  0
 59 60  1  0
 59 61  1  0
 33 62  1  0
 62 63  1  0
 62 64  2  0
 64 65  1  0
 24  4  1  0
 64 28  1  0
 15  8  1  0
 47 38  1  0
 59 48  1  0
M  CHG  3  10  -1  11  -1  14  -1
M  END
>  <UniqueID>  (26) 
24

>  <SMILES>  (26) 
C=c1/c(=C/c2c([O-])[n-]c(=O)[n-]c2=O)cc(C)n1Cc1ccc(C(=O)Nc2ccccc2N2CCOCC2)cc1

>  <Energy>  (26) 
121.47991016619653

>  <Genealogy>  (26) 
C=c1c(=Cc2c([O-])[n-]c(=O)[n-]c2=O)cc(C)n1Cc1ccc(C(=O)Nc2ccccc2N2CCOCC2)cc1 (protonated)
C=c1/c(=C/c2c([O-])[n-]c(=O)[n-]c2=O)cc(C)n1Cc1ccc(C(=O)Nc2ccccc2N2CCOCC2)cc1 (cis-trans isomerization)
C=c1/c(=C/c2c([O-])[n-]c(=O)[n-]c2=O)cc(C)n1Cc1ccc(C(=O)Nc2ccccc2N2CCOCC2)cc1 (3D coordinates assigned)
C=c1/c(=C/c2c([O-])[n-]c(=O)[n-]c2=O)cc(C)n1Cc1ccc(C(=O)Nc2ccccc2N2CCOCC2)cc1 (nonaromatic ring conformer: 121.47991016619653 kcal/mol)

>  <smiles>  (26) 
C=c1c(=Cc2c(O)[nH]c(=O)[nH]c2=O)cc(C)n1Cc1ccc(C(=O)Nc2ccccc2N2CCOCC2)cc1

>  <score_type>  (26) 
oracle

>  <origin>  (26) 
adg

>  <m_score__min__energy>  (26) 
-16.870000000000001

>  <m_primary>  (26) 
energy

$$$$
26:0
     RDKit          3D

 69 74  0  0  0  0  0  0  0  0999 V2000
   61.4930   26.8380   50.4770 O   0  0  0  0  0  0  0  0  0  0  0  0
   61.0170   27.8510   49.8900 C   0  0  0  0  0  0  0  0  0  0  0  0
   60.0470   27.6510   48.7860 C   0  0  0  0  0  0  0  0  0  0  0  0
   60.0130   26.4310   48.0900 C   0  0  0  0  0  0  0  0  0  0  0  0
   59.0370   26.1930   47.1180 C   0  0  0  0  0  0  0  0  0  0  0  0
   58.0730   27.1700   46.8320 C   0  0  0  0  0  0  0  0  0  0  0  0
   56.8000   26.8470   45.6520 S   0  0  0  0  0  0  0  0  0  0  0  0
   55.8410   25.8370   46.2160 O   0  0  0  0  0  0  0  0  0  0  0  0
   57.4230   26.2700   44.4100 O   0  0  0  0  0  0  0  0  0  0  0  0
   55.9240   28.2810   45.2270 N   0  0  0  0  0  0  0  0  0  0  0  0
   56.5660   29.4460   44.7080 C   0  0  0  0  0  0  0  0  0  0  0  0
   56.4180   29.7690   43.3390 C   0  0  0  0  0  0  0  0  0  0  0  0
   56.9900   30.9420   42.8130 C   0  0  0  0  0  0  0  0  0  0  0  0
   57.7190   31.7560   43.6780 C   0  0  0  0  0  0  0  0  0  0  0  0
   58.2830   32.9480   43.4000 N   0  0  0  0  0  0  0  0  0  0  0  0
   58.8150   33.3700   44.5700 C   0  0  0  0  0  0  0  0  0  0  0  0
   58.6320   32.4300   45.5710 C   0  0  0  0  0  0  0  0  0  0  0  0
   57.9010   31.4170   44.9970 C   0  0  0  0  0  0  0  0  0  0  0  0
   57.3440   30.2670   45.5480 C   0  0  0  0  0  0  0  0  0  0  0  0
   58.9930   32.6370   47.0090 C   0  0  0  0  0  0  0  0  0  0  0  0
   59.9400   33.8450   47.1660 C   0  0  0  0  0  0  0  0  0  0  0  0
   59.5080   35.0370   46.2870 C   0  0  0  0  0  0  0  0  0  0  0  0
   59.5220   34.6730   44.7900 C   0  0  0  0  0  0  0  0  0  0  0  0
   58.1130   28.3970   47.5080 C   0  0  0  0  0  0  0  0  0  0  0  0
   59.0890   28.6350   48.4830 C   0  0  0  0  0  0  0  0  0  0  0  0
   61.3870   29.1640   50.3450 N   0  0  0  0  0  0  0  0  0  0  0  0
   61.6500   29.3650   51.7770 C   0  0  0  0  0  0  0  0  0  0  0  0
   61.4360   30.8330   52.2150 C   0  0  0  0  0  0  0  0  0  0  0  0
   61.4610   31.8040   51.0940 N   0  0  0  0  0  0  0  0  0  0  0  0
   61.7810   33.1660   51.5710 C   0  0  0  0  0  0  0  0  0  0  0  0
   60.7680   33.6400   52.5800 C   0  0  0  0  0  0  0  0  0  0  0  0
   59.4320   33.8660   52.2020 C   0  0  0  0  0  0  0  0  0  0  0  0
   58.4980   34.2980   53.1470 C   0  0  0  0  0  0  0  0  0  0  0  0
   58.8900   34.5140   54.4710 C   0  0  0  0  0  0  0  0  0  0  0  0
   60.2170   34.2930   54.8550 C   0  0  0  0  0  0  0  0  0  0  0  0
   61.1540   33.8560   53.9140 C   0  0  0  0  0  0  0  0  0  0  0  0
   62.4160   31.3910   50.0540 C   0  0  0  0  0  0  0  0  0  0  0  0
   61.8750   30.1430   49.3660 C   0  0  0  0  0  0  0  0  0  0  0  0
   60.7613   25.6559   48.3120 H   0  0  0  0  0  0  0  0  0  0  0  0
   59.0253   25.2360   46.5757 H   0  0  0  0  0  0  0  0  0  0  0  0
   55.8502   29.0966   42.6791 H   0  0  0  0  0  0  0  0  0  0  0  0
   56.8658   31.2080   41.7529 H   0  0  0  0  0  0  0  0  0  0  0  0
   58.2740   33.4580   42.4890 H   0  0  0  0  0  0  0  0  0  0  0  0
   57.5058   30.0075   46.6046 H   0  0  0  0  0  0  0  0  0  0  0  0
   58.0761   32.8194   47.5887 H   0  0  0  0  0  0  0  0  0  0  0  0
   59.5053   31.7362   47.3779 H   0  0  0  0  0  0  0  0  0  0  0  0
   59.9394   34.1620   48.2193 H   0  0  0  0  0  0  0  0  0  0  0  0
   60.9446   33.5328   46.8447 H   0  0  0  0  0  0  0  0  0  0  0  0
   58.4893   35.3393   46.5712 H   0  0  0  0  0  0  0  0  0  0  0  0
   60.2212   35.8589   46.4476 H   0  0  0  0  0  0  0  0  0  0  0  0
   59.0137   35.4637   44.2186 H   0  0  0  0  0  0  0  0  0  0  0  0
   60.5646   34.5783   44.4523 H   0  0  0  0  0  0  0  0  0  0  0  0
   57.3740   29.1767   47.2714 H   0  0  0  0  0  0  0  0  0  0  0  0
   59.1067   29.5975   49.0153 H   0  0  0  0  0  0  0  0  0  0  0  0
   60.9705   28.7212   52.3548 H   0  0  0  0  0  0  0  0  0  0  0  0
   62.7034   29.1092   51.9639 H   0  0  0  0  0  0  0  0  0  0  0  0
   60.4590   30.9064   52.7151 H   0  0  0  0  0  0  0  0  0  0  0  0
   62.2719   31.0927   52.8813 H   0  0  0  0  0  0  0  0  0  0  0  0
   62.7768   33.1581   52.0383 H   0  0  0  0  0  0  0  0  0  0  0  0
   61.7629   33.8506   50.7102 H   0  0  0  0  0  0  0  0  0  0  0  0
   59.1218   33.7021   51.1594 H   0  0  0  0  0  0  0  0  0  0  0  0
   57.4530   34.4683   52.8486 H   0  0  0  0  0  0  0  0  0  0  0  0
   58.1539   34.8583   55.2124 H   0  0  0  0  0  0  0  0  0  0  0  0
   60.5232   34.4631   55.8977 H   0  0  0  0  0  0  0  0  0  0  0  0
   62.1964   33.6807   54.2186 H   0  0  0  0  0  0  0  0  0  0  0  0
   62.5339   32.1990   49.3170 H   0  0  0  0  0  0  0  0  0  0  0  0
   63.3954   31.1764   50.5065 H   0  0  0  0  0  0  0  0  0  0  0  0
   61.0459   30.4303   48.7026 H   0  0  0  0  0  0  0  0  0  0  0  0
   62.6914   29.6818   48.7908 H   0  0  0  0  0  0  0  0  0  0  0  0
  1  2  2  0
  2  3  1  0
  3  4  2  0
  4  5  1  0
  5  6  2  0
  6  7  1  0
  7  8  2  0
  7  9  2  0
  7 10  1  0
 10 11  1  0
 11 12  2  0
 12 13  1  0
 13 14  2  0
 14 15  1  0
 15 16  1  0
 16 17  2  0
 17 18  1  0
 18 19  2  0
 17 20  1  0
 20 21  1  0
 21 22  1  0
 22 23  1  0
  6 24  1  0
 24 25  2  0
  2 26  1  0
 26 27  1  0
 27 28  1  0
 28 29  1  0
 29 30  1  0
 30 31  1  0
 31 32  2  0
 32 33  1  0
 33 34  2  0
 34 35  1  0
 35 36  2  0
 29 37  1  0
 37 38  1  0
 25  3  1  0
 38 26  1  0
 19 11  1  0
 36 31  1  0
 18 14  1  0
 23 16  1  0
  4 39  1  0
  5 40  1  0
 12 41  1  0
 13 42  1  0
 15 43  1  0
 19 44  1  0
 20 45  1  0
 20 46  1  0
 21 47  1  0
 21 48  1  0
 22 49  1  0
 22 50  1  0
 23 51  1  0
 23 52  1  0
 24 53  1  0
 25 54  1  0
 27 55  1  0
 27 56  1  0
 28 57  1  0
 28 58  1  0
 30 59  1  0
 30 60  1  0
 32 61  1  0
 33 62  1  0
 34 63  1  0
 35 64  1  0
 36 65  1  0
 37 66  1  0
 37 67  1  0
 38 68  1  0
 38 69  1  0
M  CHG  1  10  -1
M  END
>  <UniqueID>  (27) 
25

>  <SMILES>  (27) 
O=C(c1ccc(S(=O)(=O)[N-]c2ccc3[nH]c4c(c3c2)CCCC4)cc1)N1CCN(Cc2ccccc2)CC1

>  <Energy>  (27) 
124.00049825850984

>  <Genealogy>  (27) 
O=C(c1ccc(S(=O)(=O)[N-]c2ccc3[nH]c4c(c3c2)CCCC4)cc1)N1CCN(Cc2ccccc2)CC1 (protonated)
O=C(c1ccc(S(=O)(=O)[N-]c2ccc3[nH]c4c(c3c2)CCCC4)cc1)N1CCN(Cc2ccccc2)CC1 (3D coordinates assigned)
O=C(c1ccc(S(=O)(=O)[N-]c2ccc3[nH]c4c(c3c2)CCCC4)cc1)N1CCN(Cc2ccccc2)CC1 (nonaromatic ring conformer: 124.00049825850984 kcal/mol)

>  <smiles>  (27) 
O=C(c1ccc(S(=O)(=O)Nc2ccc3[nH]c4c(c3c2)CCCC4)cc1)N1CCN(Cc2ccccc2)CC1

>  <score_type>  (27) 
oracle

>  <origin>  (27) 
adg

>  <m_score__min__energy>  (27) 
-12.24

>  <m_primary>  (27) 
energy

$$$$
27:0
     RDKit          3D

 46 49  0  0  0  0  0  0  0  0999 V2000
   60.5678   30.1260   45.3444 H   0  0  0  0  0  0  0  0  0  0  0  0
   60.1600   30.0620   46.3640 C   0  0  0  0  0  0  0  0  0  0  0  0
   59.8030   31.2260   47.0480 C   0  0  0  0  0  0  0  0  0  0  0  0
   59.9305   32.2064   46.5657 H   0  0  0  0  0  0  0  0  0  0  0  0
   59.2840   31.1490   48.3440 C   0  0  0  0  0  0  0  0  0  0  0  0
   59.0060   32.0701   48.8772 H   0  0  0  0  0  0  0  0  0  0  0  0
   59.1150   29.8990   48.9710 C   0  0  0  0  0  0  0  0  0  0  0  0
   58.5650   29.8120   50.3460 C   0  0  0  0  0  0  0  0  0  0  0  0
   57.5060   30.5800   50.7160 N   0  0  0  0  0  0  0  0  0  0  0  0
   57.0100   30.5010   51.9760 C   0  0  0  0  0  0  0  0  0  0  0  0
   55.6400   31.5440   52.4670 S   0  0  0  0  0  0  0  0  0  0  0  0
   54.3810   30.2310   52.2900 C   0  0  0  0  0  0  0  0  0  0  0  0
   54.7998   29.4085   51.6916 H   0  0  0  0  0  0  0  0  0  0  0  0
   54.1024   29.8731   53.2922 H   0  0  0  0  0  0  0  0  0  0  0  0
   53.1510   30.7580   51.6090 C   0  0  0  0  0  0  0  0  0  0  0  0
   52.4850   31.8150   52.1480 N   0  0  0  0  0  0  0  0  0  0  0  0
   51.3920   32.3420   51.5360 C   0  0  0  0  0  0  0  0  0  0  0  0
   50.7910   33.3170   52.0550 O   0  0  0  0  0  0  0  0  0  0  0  0
   50.9510   31.8190   50.3620 N   0  0  0  0  0  0  0  0  0  0  0  0
   51.5870   30.7680   49.7840 C   0  0  0  0  0  0  0  0  0  0  0  0
   51.1650   30.3030   48.6920 O   0  0  0  0  0  0  0  0  0  0  0  0
   52.7080   30.2080   50.3990 C   0  0  0  0  0  0  0  0  0  0  0  0
   53.2316   29.3543   49.9440 H   0  0  0  0  0  0  0  0  0  0  0  0
   57.5680   29.6510   52.8730 N   0  0  0  0  0  0  0  0  0  0  0  0
   58.6330   28.8900   52.5220 C   0  0  0  0  0  0  0  0  0  0  0  0
   59.1470   28.0740   53.3960 N   0  0  0  0  0  0  0  0  0  0  0  0
   59.7880   26.8160   53.1270 C   0  0  0  0  0  0  0  0  0  0  0  0
   59.2030   25.5870   53.4860 C   0  0  0  0  0  0  0  0  0  0  0  0
   58.2376   25.5744   54.0131 H   0  0  0  0  0  0  0  0  0  0  0  0
   59.8410   24.3830   53.1770 C   0  0  0  0  0  0  0  0  0  0  0  0
   59.3842   23.4285   53.4773 H   0  0  0  0  0  0  0  0  0  0  0  0
   61.0660   24.3860   52.4830 C   0  0  0  0  0  0  0  0  0  0  0  0
   61.7480   23.2050   52.1530 O   0  0  0  0  0  0  0  0  0  0  0  0
   61.9050   22.0950   53.0310 C   0  0  0  0  0  0  0  0  0  0  0  0
   61.8559   22.4423   54.0736 H   0  0  0  0  0  0  0  0  0  0  0  0
   61.1009   21.3668   52.8488 H   0  0  0  0  0  0  0  0  0  0  0  0
   62.8795   21.6184   52.8488 H   0  0  0  0  0  0  0  0  0  0  0  0
   61.6290   25.6100   52.1000 C   0  0  0  0  0  0  0  0  0  0  0  0
   62.5823   25.6240   51.5513 H   0  0  0  0  0  0  0  0  0  0  0  0
   60.9900   26.8130   52.4090 C   0  0  0  0  0  0  0  0  0  0  0  0
   61.4347   27.7657   52.0856 H   0  0  0  0  0  0  0  0  0  0  0  0
   59.1220   28.9680   51.2550 N   0  0  0  0  0  0  0  0  0  0  0  0
   59.4800   28.7320   48.2700 C   0  0  0  0  0  0  0  0  0  0  0  0
   59.3556   27.7478   48.7452 H   0  0  0  0  0  0  0  0  0  0  0  0
   59.9990   28.8170   46.9750 C   0  0  0  0  0  0  0  0  0  0  0  0
   60.2813   27.9007   46.4359 H   0  0  0  0  0  0  0  0  0  0  0  0
  1  2  1  0
  2  3  2  0
  3  4  1  0
  3  5  1  0
  5  6  1  0
  5  7  2  0
  7  8  1  0
  8  9  2  0
  9 10  1  0
 10 11  1  0
 11 12  1  0
 12 13  1  0
 12 14  1  0
 12 15  1  0
 15 16  1  0
 16 17  1  0
 17 18  2  0
 17 19  1  0
 19 20  1  0
 20 21  2  0
 20 22  1  0
 22 23  1  0
 10 24  2  0
 24 25  1  0
 25 26  2  0
 26 27  1  0
 27 28  2  0
 28 29  1  0
 28 30  1  0
 30 31  1  0
 30 32  2  0
 32 33  1  0
 33 34  1  0
 34 35  1  0
 34 36  1  0
 34 37  1  0
 32 38  1  0
 38 39  1  0
 38 40  2  0
 40 41  1  0
 25 42  1  0
  7 43  1  0
 43 44  1  0
 43 45  2  0
 45 46  1  0
 45  2  1  0
 42  8  1  0
 22 15  2  0
 40 27  1  0
M  CHG  3  16  -1  19  -1  42  -1
M  END
>  <UniqueID>  (28) 
26

>  <SMILES>  (28) 
COc1ccc(/N=c2/nc(SCc3cc(=O)[n-]c(=O)[n-]3)nc(-c3ccccc3)[n-]2)cc1

>  <Energy>  (28) 
53.62485374258666

>  <Genealogy>  (28) 
COc1ccc(N=c2nc(SCc3cc(=O)[n-]c(=O)[n-]3)nc(-c3ccccc3)[n-]2)cc1 (protonated)
COc1ccc(/N=c2/nc(SCc3cc(=O)[n-]c(=O)[n-]3)nc(-c3ccccc3)[n-]2)cc1 (cis-trans isomerization)
COc1ccc(/N=c2/nc(SCc3cc(=O)[n-]c(=O)[n-]3)nc(-c3ccccc3)[n-]2)cc1 (3D coordinates assigned)
COc1ccc(/N=c2/nc(SCc3cc(=O)[n-]c(=O)[n-]3)nc(-c3ccccc3)[n-]2)cc1 (optimized conformer: 53.62485374258666 kcal/mol)

>  <smiles>  (28) 
COc1ccc(N=c2nc(SCc3cc(=O)[nH]c(=O)[nH]3)nc(-c3ccccc3)[nH]2)cc1

>  <score_type>  (28) 
oracle

>  <origin>  (28) 
adg

>  <m_score__min__energy>  (28) 
-13.31

>  <m_primary>  (28) 
energy

$$$$
28:0
     RDKit          3D

 43 45  0  0  0  0  0  0  0  0999 V2000
   55.7230   23.3040   44.8050 C   0  0  0  0  0  0  0  0  0  0  0  0
   55.5610   22.9920   46.2810 C   0  0  0  0  0  0  0  0  0  0  0  0
   55.7350   24.1850   47.0410 O   0  0  0  0  0  0  0  0  0  0  0  0
   56.4720   25.3000   46.6130 C   0  0  0  0  0  0  0  0  0  0  0  0
   57.8750   25.3710   46.7340 C   0  0  0  0  0  0  0  0  0  0  0  0
   58.5770   26.5090   46.3020 C   0  0  0  0  0  0  0  0  0  0  0  0
   60.0540   26.6260   46.5580 C   0  0  0  0  0  0  0  0  0  0  0  0
   60.3910   28.0170   46.8480 N   0  0  0  0  0  0  0  0  0  0  0  0
   60.5270   28.9900   45.8000 C   0  0  0  0  0  0  0  0  0  0  0  0
   60.9450   28.6200   44.6710 O   0  0  0  0  0  0  0  0  0  0  0  0
   60.1350   30.4040   46.0240 C   0  0  0  0  0  0  0  0  0  0  0  0
   60.7380   31.2380   46.9660 C   0  0  0  0  0  0  0  0  0  0  0  0
   60.0110   32.4040   46.9420 C   0  0  0  0  0  0  0  0  0  0  0  0
   60.1460   33.5570   47.7130 C   0  0  0  0  0  0  0  0  0  0  0  0
   59.2210   34.5950   47.5070 C   0  0  0  0  0  0  0  0  0  0  0  0
   58.1900   34.4570   46.5540 C   0  0  0  0  0  0  0  0  0  0  0  0
   58.0750   33.2790   45.7930 C   0  0  0  0  0  0  0  0  0  0  0  0
   59.0090   32.2560   46.0120 C   0  0  0  0  0  0  0  0  0  0  0  0
   59.0800   31.0360   45.4300 N   0  0  0  0  0  0  0  0  0  0  0  0
   58.1620   30.4720   44.4360 C   0  0  0  0  0  0  0  0  0  0  0  0
   57.8650   27.5860   45.7470 C   0  0  0  0  0  0  0  0  0  0  0  0
   56.4770   27.5220   45.6290 C   0  0  0  0  0  0  0  0  0  0  0  0
   55.7820   26.3880   46.0590 C   0  0  0  0  0  0  0  0  0  0  0  0
   54.3970   26.3410   45.9370 O   0  0  0  0  0  0  0  0  0  0  0  0
   56.2270   24.2748   44.6886 H   0  0  0  0  0  0  0  0  0  0  0  0
   56.3268   22.5178   44.3282 H   0  0  0  0  0  0  0  0  0  0  0  0
   54.7326   23.3456   44.3282 H   0  0  0  0  0  0  0  0  0  0  0  0
   54.5548   22.5858   46.4616 H   0  0  0  0  0  0  0  0  0  0  0  0
   56.3155   22.2511   46.5840 H   0  0  0  0  0  0  0  0  0  0  0  0
   58.4264   24.5258   47.1716 H   0  0  0  0  0  0  0  0  0  0  0  0
   60.3279   25.9960   47.4171 H   0  0  0  0  0  0  0  0  0  0  0  0
   60.6072   26.2936   45.6672 H   0  0  0  0  0  0  0  0  0  0  0  0
   60.4460   28.3160   47.8460 H   0  0  0  0  0  0  0  0  0  0  0  0
   61.6111   31.0103   47.5952 H   0  0  0  0  0  0  0  0  0  0  0  0
   60.9497   33.6516   48.4580 H   0  0  0  0  0  0  0  0  0  0  0  0
   59.3016   35.5222   48.0934 H   0  0  0  0  0  0  0  0  0  0  0  0
   57.4710   35.2760   46.4048 H   0  0  0  0  0  0  0  0  0  0  0  0
   57.2748   33.1637   45.0471 H   0  0  0  0  0  0  0  0  0  0  0  0
   57.3332   29.9628   44.9496 H   0  0  0  0  0  0  0  0  0  0  0  0
   57.7618   31.2802   43.8062 H   0  0  0  0  0  0  0  0  0  0  0  0
   58.7021   29.7497   43.8062 H   0  0  0  0  0  0  0  0  0  0  0  0
   58.4040   28.4818   45.4048 H   0  0  0  0  0  0  0  0  0  0  0  0
   55.9257   28.3691   45.1949 H   0  0  0  0  0  0  0  0  0  0  0  0
  1  2  1  0
  2  3  1  0
  3  4  1  0
  4  5  2  0
  5  6  1  0
  6  7  1  0
  7  8  1  0
  8  9  1  0
  9 10  2  0
  9 11  1  0
 11 12  2  0
 12 13  1  0
 13 14  2  0
 14 15  1  0
 15 16  2  0
 16 17  1  0
 17 18  2  0
 18 19  1  0
 19 20  1  0
  6 21  2  0
 21 22  1  0
 22 23  2  0
 23 24  1  0
 23  4  1  0
 19 11  1  0
 18 13  1  0
  1 25  1  0
  1 26  1  0
  1 27  1  0
  2 28  1  0
  2 29  1  0
  5 30  1  0
  7 31  1  0
  7 32  1  0
  8 33  1  0
 12 34  1  0
 14 35  1  0
 15 36  1  0
 16 37  1  0
 17 38  1  0
 20 39  1  0
 20 40  1  0
 20 41  1  0
 21 42  1  0
 22 43  1  0
M  CHG  1  24  -1
M  END
>  <UniqueID>  (29) 
27

>  <SMILES>  (29) 
CCOc1cc(CNC(=O)c2cc3ccccc3n2C)ccc1[O-]

>  <Energy>  (29) 
76.69320954621092

>  <Genealogy>  (29) 
CCOc1cc(CNC(=O)c2cc3ccccc3n2C)ccc1[O-] (protonated)
CCOc1cc(CNC(=O)c2cc3ccccc3n2C)ccc1[O-] (3D coordinates assigned)
CCOc1cc(CNC(=O)c2cc3ccccc3n2C)ccc1[O-] (optimized conformer: 76.69320954621092 kcal/mol)

>  <smiles>  (29) 
CCOc1cc(CNC(=O)c2cc3ccccc3n2C)ccc1O

>  <score_type>  (29) 
oracle

>  <origin>  (29) 
adg

>  <m_score__min__energy>  (29) 
-11.789999999999999

>  <m_primary>  (29) 
energy

$$$$
29:0
     RDKit          3D

 44 45  0  0  0  0  0  0  0  0999 V2000
   52.2065   28.8792   47.7788 H   0  0  0  0  0  0  0  0  0  0  0  0
   51.9510   29.6630   48.5070 C   0  0  0  0  0  0  0  0  0  0  0  0
   52.6360   29.7530   49.6760 N   0  0  0  0  0  0  0  0  0  0  0  0
   52.3610   30.6970   50.6190 C   0  0  0  0  0  0  0  0  0  0  0  0
   53.0640   30.6800   51.7180 N   0  0  0  0  0  0  0  0  0  0  0  0
   54.4280   30.2760   51.8890 C   0  0  0  0  0  0  0  0  0  0  0  0
   54.7030   29.0510   51.9810 O   0  0  0  0  0  0  0  0  0  0  0  0
   55.4980   31.3010   52.1480 C   0  0  0  0  0  0  0  0  0  0  0  0
   55.2947   31.7914   53.1114 H   0  0  0  0  0  0  0  0  0  0  0  0
   55.4814   32.0270   51.3217 H   0  0  0  0  0  0  0  0  0  0  0  0
   56.8980   30.6690   52.1980 C   0  0  0  0  0  0  0  0  0  0  0  0
   56.8259   29.6222   51.8677 H   0  0  0  0  0  0  0  0  0  0  0  0
   57.2626   30.7383   53.2335 H   0  0  0  0  0  0  0  0  0  0  0  0
   57.8520   31.3690   51.3390 N   0  0  0  0  0  0  0  0  0  0  0  0
   58.3710   30.8500   50.1120 C   0  0  0  0  0  0  0  0  0  0  0  0
   58.1590   29.6440   49.8190 O   0  0  0  0  0  0  0  0  0  0  0  0
   59.1830   31.6720   49.2650 N   0  0  0  0  0  0  0  0  0  0  0  0
   58.7600   32.2480   48.0230 C   0  0  0  0  0  0  0  0  0  0  0  0
   58.1900   31.4030   47.0640 C   0  0  0  0  0  0  0  0  0  0  0  0
   58.0922   30.3279   47.2751 H   0  0  0  0  0  0  0  0  0  0  0  0
   57.7420   31.9130   45.8360 C   0  0  0  0  0  0  0  0  0  0  0  0
   57.0970   31.0790   44.8630 N   0  0  0  0  0  0  0  0  0  0  0  0
   56.7080   29.7080   45.0250 C   0  0  0  0  0  0  0  0  0  0  0  0
   55.4910   29.4040   44.9150 O   0  0  0  0  0  0  0  0  0  0  0  0
   57.7060   28.6200   45.2770 C   0  0  0  0  0  0  0  0  0  0  0  0
   57.8324   28.4822   46.3610 H   0  0  0  0  0  0  0  0  0  0  0  0
   57.3474   27.6822   44.8275 H   0  0  0  0  0  0  0  0  0  0  0  0
   58.6712   28.8965   44.8275 H   0  0  0  0  0  0  0  0  0  0  0  0
   57.8490   33.2840   45.5870 C   0  0  0  0  0  0  0  0  0  0  0  0
   57.4568   33.7002   44.6473 H   0  0  0  0  0  0  0  0  0  0  0  0
   58.4500   34.1300   46.5220 C   0  0  0  0  0  0  0  0  0  0  0  0
   58.5497   35.2033   46.3029 H   0  0  0  0  0  0  0  0  0  0  0  0
   58.9290   33.6180   47.7430 C   0  0  0  0  0  0  0  0  0  0  0  0
   59.5900   34.4310   48.6790 O   0  0  0  0  0  0  0  0  0  0  0  0
   60.9130   34.2020   49.1550 C   0  0  0  0  0  0  0  0  0  0  0  0
   60.9121   34.2022   50.2550 H   0  0  0  0  0  0  0  0  0  0  0  0
   61.2711   33.2285   48.7888 H   0  0  0  0  0  0  0  0  0  0  0  0
   61.5774   34.9985   48.7888 H   0  0  0  0  0  0  0  0  0  0  0  0
   51.3480   31.6530   50.3480 C   0  0  0  0  0  0  0  0  0  0  0  0
   51.0730   32.7090   51.2110 O   0  0  0  0  0  0  0  0  0  0  0  0
   50.6290   31.5640   49.1540 C   0  0  0  0  0  0  0  0  0  0  0  0
   49.8266   32.2860   48.9420 H   0  0  0  0  0  0  0  0  0  0  0  0
   50.9250   30.5630   48.2300 C   0  0  0  0  0  0  0  0  0  0  0  0
   50.3546   30.4849   47.2927 H   0  0  0  0  0  0  0  0  0  0  0  0
  1  2  1  0
  2  3  1  0
  3  4  1  0
  4  5  2  0
  5  6  1  0
  6  7  2  0
  6  8  1  0
  8  9  1  0
  8 10  1  0
  8 11  1  0
 11 12  1  0
 11 13  1  0
 11 14  1  0
 14 15  1  0
 15 16  2  0
 15 17  1  0
 17 18  1  0
 18 19  2  0
 19 20  1  0
 19 21  1  0
 21 22  1  0
 22 23  1  0
 23 24  2  0
 23 25  1  0
 25 26  1  0
 25 27  1  0
 25 28  1  0
 21 29  2  0
 29 30  1  0
 29 31  1  0
 31 32  1  0
 31 33  2  0
 33 34  1  0
 34 35  1  0
 35 36  1  0
 35 37  1  0
 35 38  1  0
  4 39  1  0
 39 40  1  0
 39 41  2  0
 41 42  1  0
 41 43  1  0
 43 44  1  0
 43  2  2  0
 33 18  1  0
M  CHG  5   3  -1  14  -1  17  -1  22  -1  40  -1
M  END
>  <UniqueID>  (30) 
28

>  <SMILES>  (30) 
COc1ccc([N-]C(C)=O)cc1[N-]C(=O)[N-]CCC(=O)/N=c1/[n-]cccc1[O-]

>  <Energy>  (30) 
57.36849399537451

>  <Genealogy>  (30) 
COc1ccc([N-]C(C)=O)cc1[N-]C(=O)[N-]CCC(=O)N=c1[n-]cccc1[O-] (protonated)
COc1ccc([N-]C(C)=O)cc1[N-]C(=O)[N-]CCC(=O)/N=c1/[n-]cccc1[O-] (cis-trans isomerization)
COc1ccc([N-]C(C)=O)cc1[N-]C(=O)[N-]CCC(=O)/N=c1/[n-]cccc1[O-] (3D coordinates assigned)
COc1ccc([N-]C(C)=O)cc1[N-]C(=O)[N-]CCC(=O)/N=c1/[n-]cccc1[O-] (optimized conformer: 57.36849399537451 kcal/mol)

>  <smiles>  (30) 
COc1ccc(NC(C)=O)cc1NC(=O)NCCC(=O)N=c1[nH]cccc1O

>  <score_type>  (30) 
oracle

>  <origin>  (30) 
adg

>  <m_score__min__energy>  (30) 
-16.48

>  <m_primary>  (30) 
energy

$$$$
30:0
     RDKit          3D

 52 54  0  0  0  0  0  0  0  0999 V2000
   61.5640   29.1930   53.1590 C   0  0  0  0  0  0  0  0  0  0  0  0
   60.1410   28.9290   53.3770 N   0  0  0  0  0  0  0  0  0  0  0  0
   59.1490   29.8250   52.8400 C   0  0  0  0  0  0  0  0  0  0  0  0
   57.7910   29.4830   52.8810 C   0  0  0  0  0  0  0  0  0  0  0  0
   56.8170   30.3380   52.3350 C   0  0  0  0  0  0  0  0  0  0  0  0
   55.3830   29.9680   52.3770 C   0  0  0  0  0  0  0  0  0  0  0  0
   55.0430   28.7530   52.3820 O   0  0  0  0  0  0  0  0  0  0  0  0
   54.3730   30.9860   52.4080 N   0  0  0  0  0  0  0  0  0  0  0  0
   53.3550   31.1430   51.3770 C   0  0  0  0  0  0  0  0  0  0  0  0
   52.1000   31.7070   51.9680 C   0  0  0  0  0  0  0  0  0  0  0  0
   51.7960   31.6690   53.2770 N   0  0  0  0  0  0  0  0  0  0  0  0
   50.5850   32.2660   53.3300 C   0  0  0  0  0  0  0  0  0  0  0  0
   49.9560   32.4280   54.4080 O   0  0  0  0  0  0  0  0  0  0  0  0
   50.1020   32.6780   52.1380 N   0  0  0  0  0  0  0  0  0  0  0  0
   51.0720   32.3120   51.2860 C   0  0  0  0  0  0  0  0  0  0  0  0
   51.0200   32.5220   49.9140 O   0  0  0  0  0  0  0  0  0  0  0  0
   57.2240   31.5480   51.7460 C   0  0  0  0  0  0  0  0  0  0  0  0
   58.5810   31.9120   51.7080 C   0  0  0  0  0  0  0  0  0  0  0  0
   59.0150   33.1760   51.0640 C   0  0  0  0  0  0  0  0  0  0  0  0
   59.2760   34.1810   51.7800 O   0  0  0  0  0  0  0  0  0  0  0  0
   59.1390   33.2740   49.6370 N   0  0  0  0  0  0  0  0  0  0  0  0
   59.8630   34.3660   48.9910 C   0  0  0  0  0  0  0  0  0  0  0  0
   61.2190   33.8890   48.5370 C   0  0  0  0  0  0  0  0  0  0  0  0
   62.1670   33.4900   49.4950 C   0  0  0  0  0  0  0  0  0  0  0  0
   63.4410   33.0710   49.0970 C   0  0  0  0  0  0  0  0  0  0  0  0
   63.7790   33.0500   47.7410 C   0  0  0  0  0  0  0  0  0  0  0  0
   62.8440   33.4470   46.7810 C   0  0  0  0  0  0  0  0  0  0  0  0
   61.5680   33.8690   47.1730 C   0  0  0  0  0  0  0  0  0  0  0  0
   60.6820   34.2580   46.2210 F   0  0  0  0  0  0  0  0  0  0  0  0
   59.5370   31.0380   52.2510 C   0  0  0  0  0  0  0  0  0  0  0  0
   59.6710   27.5540   54.3340 S   0  0  0  0  0  0  0  0  0  0  0  0
   58.7840   28.0960   55.7790 C   0  0  0  0  0  0  0  0  0  0  0  0
   60.9010   26.7970   54.7560 O   0  0  0  0  0  0  0  0  0  0  0  0
   58.7960   26.6370   53.5210 O   0  0  0  0  0  0  0  0  0  0  0  0
   62.0724   29.2873   54.1299 H   0  0  0  0  0  0  0  0  0  0  0  0
   62.0084   28.3620   52.5916 H   0  0  0  0  0  0  0  0  0  0  0  0
   61.6807   30.1281   52.5916 H   0  0  0  0  0  0  0  0  0  0  0  0
   57.4830   28.5347   53.3457 H   0  0  0  0  0  0  0  0  0  0  0  0
   53.7284   31.8253   50.5992 H   0  0  0  0  0  0  0  0  0  0  0  0
   53.1336   30.1583   50.9396 H   0  0  0  0  0  0  0  0  0  0  0  0
   56.4700   32.2191   51.3089 H   0  0  0  0  0  0  0  0  0  0  0  0
   58.6780   32.5640   49.0280 H   0  0  0  0  0  0  0  0  0  0  0  0
   59.2903   34.7177   48.1202 H   0  0  0  0  0  0  0  0  0  0  0  0
   59.9920   35.1885   49.7100 H   0  0  0  0  0  0  0  0  0  0  0  0
   61.9057   33.5073   50.5634 H   0  0  0  0  0  0  0  0  0  0  0  0
   64.1773   32.7578   49.8518 H   0  0  0  0  0  0  0  0  0  0  0  0
   64.7812   32.7209   47.4292 H   0  0  0  0  0  0  0  0  0  0  0  0
   63.1115   33.4278   45.7142 H   0  0  0  0  0  0  0  0  0  0  0  0
   60.6028   31.3077   52.2141 H   0  0  0  0  0  0  0  0  0  0  0  0
   59.3197   27.7687   56.6823 H   0  0  0  0  0  0  0  0  0  0  0  0
   58.7104   29.1935   55.7738 H   0  0  0  0  0  0  0  0  0  0  0  0
   57.7738   27.6607   55.7738 H   0  0  0  0  0  0  0  0  0  0  0  0
  1  2  1  0
  2  3  1  0
  3  4  2  0
  4  5  1  0
  5  6  1  0
  6  7  2  0
  6  8  1  0
  8  9  1  0
  9 10  1  0
 10 11  1  0
 11 12  1  0
 12 13  2  0
 12 14  1  0
 14 15  1  0
 15 16  1  0
  5 17  2  0
 17 18  1  0
 18 19  1  0
 19 20  2  0
 19 21  1  0
 21 22  1  0
 22 23  1  0
 23 24  2  0
 24 25  1  0
 25 26  2  0
 26 27  1  0
 27 28  2  0
 28 29  1  0
 18 30  2  0
  2 31  1  0
 31 32  1  0
 31 33  2  0
 31 34  2  0
 30  3  1  0
 15 10  2  0
 28 23  1  0
  1 35  1  0
  1 36  1  0
  1 37  1  0
  4 38  1  0
  9 39  1  0
  9 40  1  0
 17 41  1  0
 21 42  1  0
 22 43  1  0
 22 44  1  0
 24 45  1  0
 25 46  1  0
 26 47  1  0
 27 48  1  0
 30 49  1  0
 32 50  1  0
 32 51  1  0
 32 52  1  0
M  CHG  4   8  -1  11  -1  14  -1  16  -1
M  END
>  <UniqueID>  (31) 
29

>  <SMILES>  (31) 
CN(c1cc(C(=O)[N-]Cc2[n-]c(=O)[n-]c2[O-])cc(C(=O)NCc2ccccc2F)c1)S(C)(=O)=O

>  <Energy>  (31) 
82.00967594910355

>  <Genealogy>  (31) 
CN(c1cc(C(=O)[N-]Cc2[n-]c(=O)[n-]c2[O-])cc(C(=O)NCc2ccccc2F)c1)S(C)(=O)=O (protonated)
CN(c1cc(C(=O)[N-]Cc2[n-]c(=O)[n-]c2[O-])cc(C(=O)NCc2ccccc2F)c1)S(C)(=O)=O (3D coordinates assigned)
CN(c1cc(C(=O)[N-]Cc2[n-]c(=O)[n-]c2[O-])cc(C(=O)NCc2ccccc2F)c1)S(C)(=O)=O (optimized conformer: 82.00967594910355 kcal/mol)

>  <smiles>  (31) 
CN(c1cc(C(=O)NCc2ccccc2F)cc(C(=O)NCc2[nH]c(=O)[nH]c2O)c1)S(C)(=O)=O

>  <score_type>  (31) 
oracle

>  <origin>  (31) 
adg

>  <m_score__min__energy>  (31) 
-18.41

>  <m_primary>  (31) 
energy

$$$$
31:0
     RDKit          3D

 59 61  0  0  0  0  0  0  0  0999 V2000
   67.7730   33.7100   50.7310 C   0  0  0  0  0  0  0  0  0  0  0  0
   66.4420   33.6950   50.6750 C   0  0  0  0  0  0  0  0  0  0  0  0
   65.6800   32.5480   50.1470 C   0  0  0  0  0  0  0  0  0  0  0  0
   66.2170   31.4090   50.1600 O   0  0  0  0  0  0  0  0  0  0  0  0
   64.3480   32.6970   49.6280 N   0  0  0  0  0  0  0  0  0  0  0  0
   64.1420   32.8050   48.1790 C   0  0  0  0  0  0  0  0  0  0  0  0
   63.0290   33.8120   47.8450 C   0  0  0  0  0  0  0  0  0  0  0  0
   61.8980   33.8700   48.8950 C   0  0  0  0  0  0  0  0  0  0  0  0
   61.8510   32.6440   49.8290 C   0  0  1  0  0  0  0  0  0  0  0  0
   61.4110   31.3720   49.1360 C   0  0  0  0  0  0  0  0  0  0  0  0
   61.5520   30.2510   49.6990 O   0  0  0  0  0  0  0  0  0  0  0  0
   60.8760   31.4420   47.8060 N   0  0  0  0  0  0  0  0  0  0  0  0
   60.1500   30.3710   47.1840 C   0  0  0  0  0  0  0  0  0  0  0  0
   60.5730   29.8150   45.9640 C   0  0  0  0  0  0  0  0  0  0  0  0
   59.8460   28.7810   45.3700 C   0  0  0  0  0  0  0  0  0  0  0  0
   58.6840   28.2880   45.9860 C   0  0  0  0  0  0  0  0  0  0  0  0
   57.8280   27.2660   45.2850 C   0  0  0  0  0  0  0  0  0  0  0  0
   56.3670   27.4480   45.5980 C   0  0  0  0  0  0  0  0  0  0  0  0
   55.7950   26.6420   46.3770 O   0  0  0  0  0  0  0  0  0  0  0  0
   55.6570   28.6050   45.1440 N   0  0  0  0  0  0  0  0  0  0  0  0
   56.2480   29.6570   44.3700 C   0  0  0  0  0  0  0  0  0  0  0  0
   56.0530   29.7440   42.9810 C   0  0  0  0  0  0  0  0  0  0  0  0
   56.6650   30.7640   42.2490 C   0  0  0  0  0  0  0  0  0  0  0  0
   57.4730   31.7030   42.8950 C   0  0  0  0  0  0  0  0  0  0  0  0
   57.6800   31.6240   44.2770 C   0  0  0  0  0  0  0  0  0  0  0  0
   58.4930   32.6190   44.9150 N   0  0  0  0  0  0  0  0  0  0  0  0
   58.1030   33.4670   46.0040 C   0  0  0  0  0  0  0  0  0  0  0  0
   59.0790   34.3680   46.6980 C   0  0  0  0  0  0  0  0  0  0  0  0
   56.8980   33.4780   46.3650 O   0  0  0  0  0  0  0  0  0  0  0  0
   57.0370   30.6160   45.0160 C   0  0  0  0  0  0  0  0  0  0  0  0
   58.2850   28.8150   47.2250 C   0  0  0  0  0  0  0  0  0  0  0  0
   59.0210   29.8410   47.8230 C   0  0  0  0  0  0  0  0  0  0  0  0
   63.2130   32.4670   50.5340 C   0  0  0  0  0  0  0  0  0  0  0  0
   68.2967   34.5896   51.1336 H   0  0  0  0  0  0  0  0  0  0  0  0
   68.3483   32.8428   50.3746 H   0  0  0  0  0  0  0  0  0  0  0  0
   65.8888   34.5740   51.0374 H   0  0  0  0  0  0  0  0  0  0  0  0
   65.0788   33.1374   47.7080 H   0  0  0  0  0  0  0  0  0  0  0  0
   63.8424   31.8179   47.7970 H   0  0  0  0  0  0  0  0  0  0  0  0
   63.4798   34.8123   47.7667 H   0  0  0  0  0  0  0  0  0  0  0  0
   62.5709   33.4786   46.9021 H   0  0  0  0  0  0  0  0  0  0  0  0
   62.0428   34.7697   49.5111 H   0  0  0  0  0  0  0  0  0  0  0  0
   60.9478   33.8868   48.3411 H   0  0  0  0  0  0  0  0  0  0  0  0
   61.0766   32.8429   50.5845 H   0  0  0  0  0  0  0  0  0  0  0  0
   61.0890   32.2920   47.2360 H   0  0  0  0  0  0  0  0  0  0  0  0
   61.4814   30.1964   45.4747 H   0  0  0  0  0  0  0  0  0  0  0  0
   60.1848   28.3510   44.4159 H   0  0  0  0  0  0  0  0  0  0  0  0
   57.9740   27.3643   44.1992 H   0  0  0  0  0  0  0  0  0  0  0  0
   58.1305   26.2687   45.6370 H   0  0  0  0  0  0  0  0  0  0  0  0
   55.4168   29.0070   42.4690 H   0  0  0  0  0  0  0  0  0  0  0  0
   56.5105   30.8281   41.1618 H   0  0  0  0  0  0  0  0  0  0  0  0
   57.9485   32.5077   42.3151 H   0  0  0  0  0  0  0  0  0  0  0  0
   58.9649   34.2627   47.7870 H   0  0  0  0  0  0  0  0  0  0  0  0
   60.1035   34.0914   46.4082 H   0  0  0  0  0  0  0  0  0  0  0  0
   58.8850   35.4113   46.4082 H   0  0  0  0  0  0  0  0  0  0  0  0
   57.1546   30.5805   46.1091 H   0  0  0  0  0  0  0  0  0  0  0  0
   57.3898   28.4186   47.7265 H   0  0  0  0  0  0  0  0  0  0  0  0
   58.7121   30.2355   48.8023 H   0  0  0  0  0  0  0  0  0  0  0  0
   63.2752   33.1829   51.3668 H   0  0  0  0  0  0  0  0  0  0  0  0
   63.2736   31.4279   50.8899 H   0  0  0  0  0  0  0  0  0  0  0  0
  1  2  2  0
  2  3  1  0
  3  4  2  0
  3  5  1  0
  5  6  1  0
  6  7  1  0
  7  8  1  0
  8  9  1  0
  9 10  1  0
 10 11  2  0
 10 12  1  0
 12 13  1  0
 13 14  2  0
 14 15  1  0
 15 16  2  0
 16 17  1  0
 17 18  1  0
 18 19  2  0
 18 20  1  0
 20 21  1  0
 21 22  2  0
 22 23  1  0
 23 24  2  0
 24 25  1  0
 25 26  1  0
 26 27  1  0
 27 28  1  0
 27 29  2  0
 25 30  2  0
 16 31  1  0
 31 32  2  0
  9 33  1  0
 33  5  1  0
 32 13  1  0
 30 21  1  0
  1 34  1  0
  1 35  1  0
  2 36  1  0
  6 37  1  0
  6 38  1  0
  7 39  1  0
  7 40  1  0
  8 41  1  0
  8 42  1  0
  9 43  1  1
 12 44  1  0
 14 45  1  0
 15 46  1  0
 17 47  1  0
 17 48  1  0
 22 49  1  0
 23 50  1  0
 24 51  1  0
 28 52  1  0
 28 53  1  0
 28 54  1  0
 30 55  1  0
 31 56  1  0
 32 57  1  0
 33 58  1  0
 33 59  1  0
M  CHG  2  20  -1  26  -1
M  END
>  <UniqueID>  (32) 
30

>  <SMILES>  (32) 
C=CC(=O)N1CCC[C@@H](C(=O)Nc2ccc(CC(=O)[N-]c3cccc([N-]C(C)=O)c3)cc2)C1

>  <Energy>  (32) 
76.54273443509825

>  <Genealogy>  (32) 
C=CC(=O)N1CCCC(C(=O)Nc2ccc(CC(=O)[N-]c3cccc([N-]C(C)=O)c3)cc2)C1 (protonated)
C=CC(=O)N1CCC[C@@H](C(=O)Nc2ccc(CC(=O)[N-]c3cccc([N-]C(C)=O)c3)cc2)C1 (chirality)
C=CC(=O)N1CCC[C@@H](C(=O)Nc2ccc(CC(=O)[N-]c3cccc([N-]C(C)=O)c3)cc2)C1 (3D coordinates assigned)
C=CC(=O)N1CCC[C@@H](C(=O)Nc2ccc(CC(=O)[N-]c3cccc([N-]C(C)=O)c3)cc2)C1 (nonaromatic ring conformer: 76.54273443509825 kcal/mol)

>  <smiles>  (32) 
C=CC(=O)N1CCCC(C(=O)Nc2ccc(CC(=O)Nc3cccc(NC(C)=O)c3)cc2)C1

>  <score_type>  (32) 
oracle

>  <origin>  (32) 
adg

>  <m_score__min__energy>  (32) 
-12.109999999999999

>  <m_primary>  (32) 
energy

$$$$
32:0
     RDKit          3D

 44 46  0  0  0  0  0  0  0  0999 V2000
   58.9290   30.7560   49.9840 O   0  0  0  0  0  0  0  0  0  0  0  0
   59.3480   30.2180   48.9250 C   0  0  0  0  0  0  0  0  0  0  0  0
   58.8470   30.7010   47.6720 N   0  0  0  0  0  0  0  0  0  0  0  0
   58.9800   32.0720   47.1960 C   0  0  0  0  0  0  0  0  0  0  0  0
   58.5910   32.1350   45.7490 C   0  0  0  0  0  0  0  0  0  0  0  0
   58.5350   33.3710   45.0830 C   0  0  0  0  0  0  0  0  0  0  0  0
   58.1390   33.4320   43.7430 C   0  0  0  0  0  0  0  0  0  0  0  0
   57.7850   32.2630   43.0620 C   0  0  0  0  0  0  0  0  0  0  0  0
   57.4000   32.3250   41.7640 F   0  0  0  0  0  0  0  0  0  0  0  0
   57.8230   31.0320   43.7230 C   0  0  0  0  0  0  0  0  0  0  0  0
   58.2190   30.9670   45.0630 C   0  0  0  0  0  0  0  0  0  0  0  0
   60.4130   29.1430   48.9940 C   0  0  1  0  0  0  0  0  0  0  0  0
   60.9960   29.0000   50.3960 C   0  0  0  0  0  0  0  0  0  0  0  0
   61.3920   27.6000   50.5780 N   0  0  0  0  0  0  0  0  0  0  0  0
   60.8970   26.8520   49.4200 C   0  0  0  0  0  0  0  0  0  0  0  0
   59.9020   27.7430   48.6820 C   0  0  2  0  0  0  0  0  0  0  0  0
   59.8340   27.4630   47.1680 C   0  0  0  0  0  0  0  0  0  0  0  0
   58.4280   27.1370   46.7350 C   0  0  0  0  0  0  0  0  0  0  0  0
   57.8370   25.9160   47.0970 C   0  0  0  0  0  0  0  0  0  0  0  0
   56.5210   25.6320   46.7200 C   0  0  0  0  0  0  0  0  0  0  0  0
   55.7830   26.5640   45.9830 C   0  0  0  0  0  0  0  0  0  0  0  0
   54.4760   26.2650   45.6160 O   0  0  0  0  0  0  0  0  0  0  0  0
   56.3640   27.7910   45.6230 C   0  0  0  0  0  0  0  0  0  0  0  0
   55.6490   28.7400   44.8940 O   0  0  0  0  0  0  0  0  0  0  0  0
   57.6810   28.0740   46.0030 C   0  0  0  0  0  0  0  0  0  0  0  0
   58.3217   32.7299   47.7823 H   0  0  0  0  0  0  0  0  0  0  0  0
   60.0228   32.4023   47.3116 H   0  0  0  0  0  0  0  0  0  0  0  0
   58.8036   34.2941   45.6175 H   0  0  0  0  0  0  0  0  0  0  0  0
   58.1059   34.4012   43.2238 H   0  0  0  0  0  0  0  0  0  0  0  0
   57.5410   30.1128   43.1886 H   0  0  0  0  0  0  0  0  0  0  0  0
   58.2392   29.9972   45.5817 H   0  0  0  0  0  0  0  0  0  0  0  0
   61.1460   29.4820   48.2471 H   0  0  0  0  0  0  0  0  0  0  0  0
   61.8738   29.6540   50.5044 H   0  0  0  0  0  0  0  0  0  0  0  0
   60.2515   29.2893   51.1523 H   0  0  0  0  0  0  0  0  0  0  0  0
   60.9220   27.2290   51.4380 H   0  0  0  0  0  0  0  0  0  0  0  0
   61.7343   26.5946   48.7547 H   0  0  0  0  0  0  0  0  0  0  0  0
   60.4122   25.9189   49.7430 H   0  0  0  0  0  0  0  0  0  0  0  0
   58.8643   27.5738   49.0052 H   0  0  0  0  0  0  0  0  0  0  0  0
   60.1796   28.3537   46.6228 H   0  0  0  0  0  0  0  0  0  0  0  0
   60.4757   26.5977   46.9454 H   0  0  0  0  0  0  0  0  0  0  0  0
   58.4113   25.1803   47.6792 H   0  0  0  0  0  0  0  0  0  0  0  0
   56.0644   24.6724   47.0039 H   0  0  0  0  0  0  0  0  0  0  0  0
   54.7370   28.5410   44.5000 H   0  0  0  0  0  0  0  0  0  0  0  0
   58.1341   29.0374   45.7262 H   0  0  0  0  0  0  0  0  0  0  0  0
  1  2  2  0
  2  3  1  0
  3  4  1  0
  4  5  1  0
  5  6  2  0
  6  7  1  0
  7  8  2  0
  8  9  1  0
  8 10  1  0
 10 11  2  0
  2 12  1  0
 12 13  1  0
 13 14  1  0
 14 15  1  0
 15 16  1  0
 16 17  1  0
 17 18  1  0
 18 19  2  0
 19 20  1  0
 20 21  2  0
 21 22  1  0
 21 23  1  0
 23 24  1  0
 23 25  2  0
 11  5  1  0
 16 12  1  0
 25 18  1  0
  4 26  1  0
  4 27  1  0
  6 28  1  0
  7 29  1  0
 10 30  1  0
 11 31  1  0
 12 32  1  6
 13 33  1  0
 13 34  1  0
 14 35  1  0
 15 36  1  0
 15 37  1  0
 16 38  1  1
 17 39  1  0
 17 40  1  0
 19 41  1  0
 20 42  1  0
 24 43  1  0
 25 44  1  0
M  CHG  2   3  -1  22  -1
M  END
>  <UniqueID>  (33) 
31

>  <SMILES>  (33) 
O=C([N-]Cc1ccc(F)cc1)[C@H]1CNC[C@@H]1Cc1ccc([O-])c(O)c1

>  <Energy>  (33) 
42.889416146843914

>  <Genealogy>  (33) 
O=C([N-]Cc1ccc(F)cc1)C1CNCC1Cc1ccc([O-])c(O)c1 (protonated)
O=C([N-]Cc1ccc(F)cc1)[C@H]1CNC[C@@H]1Cc1ccc([O-])c(O)c1 (chirality)
O=C([N-]Cc1ccc(F)cc1)[C@H]1CNC[C@@H]1Cc1ccc([O-])c(O)c1 (3D coordinates assigned)
O=C([N-]Cc1ccc(F)cc1)[C@H]1CNC[C@@H]1Cc1ccc([O-])c(O)c1 (nonaromatic ring conformer: 42.889416146843914 kcal/mol)

>  <smiles>  (33) 
O=C(NCc1ccc(F)cc1)C1CNCC1Cc1ccc(O)c(O)c1

>  <score_type>  (33) 
oracle

>  <origin>  (33) 
adg

>  <m_score__min__energy>  (33) 
-11.949999999999999

>  <m_primary>  (33) 
energy

$$$$
33:0
     RDKit          3D

 59 61  0  0  0  0  0  0  0  0999 V2000
   58.8080   31.1170   49.8030 C   0  0  0  0  0  0  0  0  0  0  0  0
   59.0060   29.8450   48.9840 C   0  0  0  0  0  0  0  0  0  0  0  0
   60.4480   29.6120   48.7330 N   0  0  0  0  0  0  0  0  0  0  0  0
   61.2620   30.6660   49.3920 C   0  0  0  0  0  0  0  0  0  0  0  0
   62.0890   30.1220   50.5640 C   0  0  0  0  0  0  0  0  0  0  0  0
   60.7310   29.5060   47.2790 C   0  0  0  0  0  0  0  0  0  0  0  0
   59.9340   28.3740   46.6850 C   0  0  0  0  0  0  0  0  0  0  0  0
   60.0210   27.0820   47.2350 C   0  0  0  0  0  0  0  0  0  0  0  0
   59.3500   26.0130   46.6350 C   0  0  0  0  0  0  0  0  0  0  0  0
   58.5900   26.2210   45.4810 C   0  0  0  0  0  0  0  0  0  0  0  0
   58.4690   27.5120   44.9370 C   0  0  0  0  0  0  0  0  0  0  0  0
   57.7690   27.7260   43.6260 C   0  0  0  0  0  0  0  0  0  0  0  0
   57.3930   29.1350   43.5140 N   0  0  0  0  0  0  0  0  0  0  0  0
   56.3570   29.7240   44.3240 C   0  0  0  0  0  0  0  0  0  0  0  0
   55.5400   28.9870   44.9380 O   0  0  0  0  0  0  0  0  0  0  0  0
   56.2650   31.1460   44.4990 N   0  0  0  0  0  0  0  0  0  0  0  0
   57.2690   32.0010   45.0620 C   0  0  0  0  0  0  0  0  0  0  0  0
   57.4310   33.3280   44.6280 C   0  0  0  0  0  0  0  0  0  0  0  0
   58.4270   34.1340   45.1860 C   0  0  0  0  0  0  0  0  0  0  0  0
   59.2410   33.6350   46.2120 C   0  0  0  0  0  0  0  0  0  0  0  0
   60.3080   34.4700   46.7860 C   0  0  0  0  0  0  0  0  0  0  0  0
   60.0130   35.3370   47.6530 O   0  0  0  0  0  0  0  0  0  0  0  0
   61.6790   34.3060   46.3920 N   0  0  0  0  0  0  0  0  0  0  0  0
   62.5460   33.2150   46.8270 C   0  0  0  0  0  0  0  0  0  0  0  0
   62.9280   33.3680   48.2660 C   0  0  0  0  0  0  0  0  0  0  0  0
   62.3560   34.2560   49.1060 N   0  0  0  0  0  0  0  0  0  0  0  0
   62.9390   34.2420   50.3340 C   0  0  0  0  0  0  0  0  0  0  0  0
   64.0030   33.3590   50.4710 C   0  0  0  0  0  0  0  0  0  0  0  0
   64.2010   32.5540   49.0070 S   0  0  0  0  0  0  0  0  0  0  0  0
   59.0390   32.3330   46.6900 C   0  0  0  0  0  0  0  0  0  0  0  0
   58.0570   31.5210   46.1160 C   0  0  0  0  0  0  0  0  0  0  0  0
   59.1280   28.5860   45.5550 C   0  0  0  0  0  0  0  0  0  0  0  0
   58.8460   30.8726   50.8748 H   0  0  0  0  0  0  0  0  0  0  0  0
   59.6051   31.8359   49.5623 H   0  0  0  0  0  0  0  0  0  0  0  0
   57.8301   31.5596   49.5623 H   0  0  0  0  0  0  0  0  0  0  0  0
   58.5914   28.9894   49.5372 H   0  0  0  0  0  0  0  0  0  0  0  0
   58.4893   29.9573   48.0194 H   0  0  0  0  0  0  0  0  0  0  0  0
   61.9467   31.0997   48.6483 H   0  0  0  0  0  0  0  0  0  0  0  0
   60.5700   31.4212   49.7930 H   0  0  0  0  0  0  0  0  0  0  0  0
   61.6247   30.4274   51.5133 H   0  0  0  0  0  0  0  0  0  0  0  0
   62.1240   29.0239   50.5095 H   0  0  0  0  0  0  0  0  0  0  0  0
   63.1112   30.5246   50.5095 H   0  0  0  0  0  0  0  0  0  0  0  0
   60.4530   30.4478   46.7833 H   0  0  0  0  0  0  0  0  0  0  0  0
   61.8035   29.3117   47.1310 H   0  0  0  0  0  0  0  0  0  0  0  0
   60.6201   26.9124   48.1418 H   0  0  0  0  0  0  0  0  0  0  0  0
   59.4202   25.0060   47.0720 H   0  0  0  0  0  0  0  0  0  0  0  0
   58.0849   25.3723   44.9967 H   0  0  0  0  0  0  0  0  0  0  0  0
   58.4429   27.4569   42.7993 H   0  0  0  0  0  0  0  0  0  0  0  0
   56.8692   27.0952   43.5767 H   0  0  0  0  0  0  0  0  0  0  0  0
   58.0590   29.7530   42.9950 H   0  0  0  0  0  0  0  0  0  0  0  0
   56.7716   33.7335   43.8465 H   0  0  0  0  0  0  0  0  0  0  0  0
   58.5722   35.1610   44.8196 H   0  0  0  0  0  0  0  0  0  0  0  0
   62.0148   32.2607   46.6963 H   0  0  0  0  0  0  0  0  0  0  0  0
   63.4627   33.2351   46.2193 H   0  0  0  0  0  0  0  0  0  0  0  0
   62.5937   34.8828   51.1587 H   0  0  0  0  0  0  0  0  0  0  0  0
   64.6092   33.2121   51.3771 H   0  0  0  0  0  0  0  0  0  0  0  0
   59.6540   31.9499   47.5177 H   0  0  0  0  0  0  0  0  0  0  0  0
   57.9020   30.4996   46.4939 H   0  0  0  0  0  0  0  0  0  0  0  0
   59.0121   29.6024   45.1507 H   0  0  0  0  0  0  0  0  0  0  0  0
  1  2  1  0
  2  3  1  0
  3  4  1  0
  4  5  1  0
  3  6  1  0
  6  7  1  0
  7  8  2  0
  8  9  1  0
  9 10  2  0
 10 11  1  0
 11 12  1  0
 12 13  1  0
 13 14  1  0
 14 15  2  0
 14 16  1  0
 16 17  1  0
 17 18  2  0
 18 19  1  0
 19 20  2  0
 20 21  1  0
 21 22  2  0
 21 23  1  0
 23 24  1  0
 24 25  1  0
 25 26  2  0
 26 27  1  0
 27 28  2  0
 28 29  1  0
 20 30  1  0
 30 31  2  0
 11 32  2  0
 32  7  1  0
 31 17  1  0
 29 25  1  0
  1 33  1  0
  1 34  1  0
  1 35  1  0
  2 36  1  0
  2 37  1  0
  4 38  1  0
  4 39  1  0
  5 40  1  0
  5 41  1  0
  5 42  1  0
  6 43  1  0
  6 44  1  0
  8 45  1  0
  9 46  1  0
 10 47  1  0
 12 48  1  0
 12 49  1  0
 13 50  1  0
 18 51  1  0
 19 52  1  0
 24 53  1  0
 24 54  1  0
 27 55  1  0
 28 56  1  0
 30 57  1  0
 31 58  1  0
 32 59  1  0
M  CHG  2  16  -1  23  -1
M  END
>  <UniqueID>  (34) 
32

>  <SMILES>  (34) 
CCN(CC)Cc1cccc(CNC(=O)[N-]c2ccc(C(=O)[N-]Cc3nccs3)cc2)c1

>  <Energy>  (34) 
92.0428816400697

>  <Genealogy>  (34) 
CCN(CC)Cc1cccc(CNC(=O)[N-]c2ccc(C(=O)[N-]Cc3nccs3)cc2)c1 (protonated)
CCN(CC)Cc1cccc(CNC(=O)[N-]c2ccc(C(=O)[N-]Cc3nccs3)cc2)c1 (3D coordinates assigned)
CCN(CC)Cc1cccc(CNC(=O)[N-]c2ccc(C(=O)[N-]Cc3nccs3)cc2)c1 (optimized conformer: 92.0428816400697 kcal/mol)

>  <smiles>  (34) 
CCN(CC)Cc1cccc(CNC(=O)Nc2ccc(C(=O)NCc3nccs3)cc2)c1

>  <score_type>  (34) 
oracle

>  <origin>  (34) 
adg

>  <m_score__min__energy>  (34) 
-11.380000000000001

>  <m_primary>  (34) 
energy

$$$$
34:0
     RDKit          3D

 46 47  0  0  0  0  0  0  0  0999 V2000
   55.1510   26.6770   45.9900 O   0  0  0  0  0  0  0  0  0  0  0  0
   56.4050   26.5910   46.0520 C   0  0  0  0  0  0  0  0  0  0  0  0
   57.0010   25.9970   47.1580 O   0  0  0  0  0  0  0  0  0  0  0  0
   57.2550   27.1650   44.9600 C   0  0  0  0  0  0  0  0  0  0  0  0
   57.5140   28.6600   45.1780 C   0  0  0  0  0  0  0  0  0  0  0  0
   56.3480   29.5060   44.7310 C   0  0  0  0  0  0  0  0  0  0  0  0
   55.1930   29.0020   44.7220 O   0  0  0  0  0  0  0  0  0  0  0  0
   56.5000   30.8870   44.3780 N   0  0  0  0  0  0  0  0  0  0  0  0
   57.3280   31.8450   45.0480 C   0  0  0  0  0  0  0  0  0  0  0  0
   58.6860   31.5910   45.3040 C   0  0  0  0  0  0  0  0  0  0  0  0
   59.4690   32.5420   45.9640 C   0  0  0  0  0  0  0  0  0  0  0  0
   58.9100   33.7660   46.3700 C   0  0  0  0  0  0  0  0  0  0  0  0
   59.7120   34.7750   47.1020 C   0  0  0  0  0  0  0  0  0  0  0  0
   60.0170   35.8550   46.5270 O   0  0  0  0  0  0  0  0  0  0  0  0
   60.1020   34.5970   48.5410 C   0  0  0  0  0  0  0  0  0  0  0  0
   59.4980   33.3670   49.0430 N   0  0  0  0  0  0  0  0  0  0  0  0
   60.7280   32.1810   49.3570 S   0  0  0  0  0  0  0  0  0  0  0  0
   61.6660   32.1200   48.1830 O   0  0  0  0  0  0  0  0  0  0  0  0
   61.5100   32.5840   50.5750 O   0  0  0  0  0  0  0  0  0  0  0  0
   60.0340   30.5760   49.6090 C   0  0  0  0  0  0  0  0  0  0  0  0
   59.2890   29.9090   48.7170 C   0  0  0  0  0  0  0  0  0  0  0  0
   59.7910   28.8790   47.7850 C   0  0  0  0  0  0  0  0  0  0  0  0
   60.3280   29.2220   46.5320 C   0  0  0  0  0  0  0  0  0  0  0  0
   60.7760   28.2240   45.6610 C   0  0  0  0  0  0  0  0  0  0  0  0
   60.6670   26.8780   46.0220 C   0  0  0  0  0  0  0  0  0  0  0  0
   60.0950   26.5290   47.2480 C   0  0  0  0  0  0  0  0  0  0  0  0
   59.6490   27.5250   48.1230 C   0  0  0  0  0  0  0  0  0  0  0  0
   57.5680   34.0390   46.0570 C   0  0  0  0  0  0  0  0  0  0  0  0
   56.7860   33.0860   45.3970 C   0  0  0  0  0  0  0  0  0  0  0  0
   58.2183   26.6343   44.9403 H   0  0  0  0  0  0  0  0  0  0  0  0
   56.7213   27.0423   44.0060 H   0  0  0  0  0  0  0  0  0  0  0  0
   57.6916   28.8373   46.2490 H   0  0  0  0  0  0  0  0  0  0  0  0
   58.3905   28.9444   44.5772 H   0  0  0  0  0  0  0  0  0  0  0  0
   59.1349   30.6393   44.9835 H   0  0  0  0  0  0  0  0  0  0  0  0
   60.5294   32.3313   46.1670 H   0  0  0  0  0  0  0  0  0  0  0  0
   61.1970   34.5310   48.6219 H   0  0  0  0  0  0  0  0  0  0  0  0
   59.7499   35.4549   49.1326 H   0  0  0  0  0  0  0  0  0  0  0  0
   60.2288   30.0856   50.5742 H   0  0  0  0  0  0  0  0  0  0  0  0
   58.2161   30.1480   48.6755 H   0  0  0  0  0  0  0  0  0  0  0  0
   60.3960   30.2791   46.2356 H   0  0  0  0  0  0  0  0  0  0  0  0
   61.2148   28.4985   44.6904 H   0  0  0  0  0  0  0  0  0  0  0  0
   61.0312   26.0943   45.3415 H   0  0  0  0  0  0  0  0  0  0  0  0
   59.9952   25.4693   47.5256 H   0  0  0  0  0  0  0  0  0  0  0  0
   59.1849   27.2453   49.0803 H   0  0  0  0  0  0  0  0  0  0  0  0
   57.1293   35.0092   46.3330 H   0  0  0  0  0  0  0  0  0  0  0  0
   55.7384   33.3138   45.1509 H   0  0  0  0  0  0  0  0  0  0  0  0
  1  2  2  0
  2  3  1  0
  2  4  1  0
  4  5  1  0
  5  6  1  0
  6  7  2  0
  6  8  1  0
  8  9  1  0
  9 10  2  0
 10 11  1  0
 11 12  2  0
 12 13  1  0
 13 14  2  0
 13 15  1  0
 15 16  1  0
 16 17  1  0
 17 18  2  0
 17 19  2  0
 17 20  1  0
 20 21  2  3
 21 22  1  0
 22 23  2  0
 23 24  1  0
 24 25  2  0
 25 26  1  0
 26 27  2  0
 12 28  1  0
 28 29  2  0
 29  9  1  0
 27 22  1  0
  4 30  1  0
  4 31  1  0
  5 32  1  0
  5 33  1  0
 10 34  1  0
 11 35  1  0
 15 36  1  0
 15 37  1  0
 20 38  1  0
 21 39  1  0
 23 40  1  0
 24 41  1  0
 25 42  1  0
 26 43  1  0
 27 44  1  0
 28 45  1  0
 29 46  1  0
M  CHG  3   3  -1   8  -1  16  -1
M  END
>  <UniqueID>  (35) 
33

>  <SMILES>  (35) 
O=C([O-])CCC(=O)[N-]c1ccc(C(=O)C[N-]S(=O)(=O)C=Cc2ccccc2)cc1

>  <Energy>  (35) 
49.80009057086643

>  <Genealogy>  (35) 
O=C([O-])CCC(=O)[N-]c1ccc(C(=O)C[N-]S(=O)(=O)C=Cc2ccccc2)cc1 (protonated)
O=C([O-])CCC(=O)[N-]c1ccc(C(=O)C[N-]S(=O)(=O)C=Cc2ccccc2)cc1 (3D coordinates assigned)
O=C([O-])CCC(=O)[N-]c1ccc(C(=O)C[N-]S(=O)(=O)C=Cc2ccccc2)cc1 (optimized conformer: 49.80009057086643 kcal/mol)

>  <smiles>  (35) 
O=C(O)CCC(=O)Nc1ccc(C(=O)CNS(=O)(=O)C=Cc2ccccc2)cc1

>  <score_type>  (35) 
oracle

>  <origin>  (35) 
adg

>  <m_score__min__energy>  (35) 
-14.08

>  <m_primary>  (35) 
energy

$$$$
35:0
     RDKit          3D

 48 50  0  0  0  0  0  0  0  0999 V2000
   56.8720   29.8240   51.7250 O   0  0  0  0  0  0  0  0  0  0  0  0
   57.2630   30.4250   52.7610 C   0  0  0  0  0  0  0  0  0  0  0  0
   58.6740   30.9500   52.8060 C   0  0  0  0  0  0  0  0  0  0  0  0
   59.0750   31.5570   51.4860 C   0  0  0  0  0  0  0  0  0  0  0  0
   59.4840   30.7350   50.4240 C   0  0  0  0  0  0  0  0  0  0  0  0
   59.8670   31.2950   49.2030 C   0  0  0  0  0  0  0  0  0  0  0  0
   59.8670   32.6880   49.0300 C   0  0  0  0  0  0  0  0  0  0  0  0
   60.2590   33.2890   47.7380 C   0  0  0  0  0  0  0  0  0  0  0  0
   61.4850   33.4150   47.4720 O   0  0  0  0  0  0  0  0  0  0  0  0
   59.2780   33.7120   46.7740 N   0  0  0  0  0  0  0  0  0  0  0  0
   59.6180   34.5290   45.6210 C   0  0  0  0  0  0  0  0  0  0  0  0
   58.3310   34.6620   44.8180 C   0  0  0  0  0  0  0  0  0  0  0  0
   57.4300   33.5270   45.2970 C   0  0  0  0  0  0  0  0  0  0  0  0
   57.9340   33.1600   46.6870 C   0  0  0  0  0  0  0  0  0  0  0  0
   59.4500   33.5100   50.0880 C   0  0  0  0  0  0  0  0  0  0  0  0
   59.0700   32.9500   51.3110 C   0  0  0  0  0  0  0  0  0  0  0  0
   56.3360   30.6110   53.8390 N   0  0  0  0  0  0  0  0  0  0  0  0
   55.7210   29.5530   54.6330 C   0  0  0  0  0  0  0  0  0  0  0  0
   55.2670   28.4260   53.7610 C   0  0  0  0  0  0  0  0  0  0  0  0
   56.0650   27.4890   53.4890 O   0  0  0  0  0  0  0  0  0  0  0  0
   53.9070   28.3800   53.3120 N   0  0  0  0  0  0  0  0  0  0  0  0
   53.1750   29.4680   52.7280 C   0  0  0  0  0  0  0  0  0  0  0  0
   52.1220   30.0390   53.4530 C   0  0  0  0  0  0  0  0  0  0  0  0
   51.4030   31.1180   52.9260 C   0  0  0  0  0  0  0  0  0  0  0  0
   51.7460   31.6440   51.6780 C   0  0  0  0  0  0  0  0  0  0  0  0
   51.0330   32.7180   51.1570 O   0  0  0  0  0  0  0  0  0  0  0  0
   52.8110   31.0950   50.9580 C   0  0  0  0  0  0  0  0  0  0  0  0
   53.5290   30.0150   51.4800 C   0  0  0  0  0  0  0  0  0  0  0  0
   58.7456   31.7182   53.5901 H   0  0  0  0  0  0  0  0  0  0  0  0
   59.3503   30.1097   53.0214 H   0  0  0  0  0  0  0  0  0  0  0  0
   59.5030   29.6429   50.5542 H   0  0  0  0  0  0  0  0  0  0  0  0
   60.1703   30.6407   48.3724 H   0  0  0  0  0  0  0  0  0  0  0  0
   59.9732   35.5189   45.9434 H   0  0  0  0  0  0  0  0  0  0  0  0
   60.4240   34.0759   45.0251 H   0  0  0  0  0  0  0  0  0  0  0  0
   57.8571   35.6359   45.0104 H   0  0  0  0  0  0  0  0  0  0  0  0
   58.5184   34.6041   43.7356 H   0  0  0  0  0  0  0  0  0  0  0  0
   56.3833   33.8620   45.3445 H   0  0  0  0  0  0  0  0  0  0  0  0
   57.4623   32.6663   44.6128 H   0  0  0  0  0  0  0  0  0  0  0  0
   57.2868   33.6015   47.4591 H   0  0  0  0  0  0  0  0  0  0  0  0
   57.9296   32.0718   46.8475 H   0  0  0  0  0  0  0  0  0  0  0  0
   59.4220   34.6015   49.9541 H   0  0  0  0  0  0  0  0  0  0  0  0
   58.7653   33.6044   52.1410 H   0  0  0  0  0  0  0  0  0  0  0  0
   56.4559   29.1736   55.3582 H   0  0  0  0  0  0  0  0  0  0  0  0
   54.8459   29.9685   55.1541 H   0  0  0  0  0  0  0  0  0  0  0  0
   51.8583   29.6373   54.4425 H   0  0  0  0  0  0  0  0  0  0  0  0
   50.5674   31.5521   53.4947 H   0  0  0  0  0  0  0  0  0  0  0  0
   53.0848   31.5138   49.9784 H   0  0  0  0  0  0  0  0  0  0  0  0
   54.3722   29.5918   50.9145 H   0  0  0  0  0  0  0  0  0  0  0  0
  1  2  2  0
  2  3  1  0
  3  4  1  0
  4  5  2  0
  5  6  1  0
  6  7  2  0
  7  8  1  0
  8  9  2  0
  8 10  1  0
 10 11  1  0
 11 12  1  0
 12 13  1  0
 13 14  1  0
  7 15  1  0
 15 16  2  0
  2 17  1  0
 17 18  1  0
 18 19  1  0
 19 20  2  0
 19 21  1  0
 21 22  1  0
 22 23  2  0
 23 24  1  0
 24 25  2  0
 25 26  1  0
 25 27  1  0
 27 28  2  0
 16  4  1  0
 28 22  1  0
 14 10  1  0
  3 29  1  0
  3 30  1  0
  5 31  1  0
  6 32  1  0
 11 33  1  0
 11 34  1  0
 12 35  1  0
 12 36  1  0
 13 37  1  0
 13 38  1  0
 14 39  1  0
 14 40  1  0
 15 41  1  0
 16 42  1  0
 18 43  1  0
 18 44  1  0
 23 45  1  0
 24 46  1  0
 27 47  1  0
 28 48  1  0
M  CHG  3  17  -1  21  -1  26  -1
M  END
>  <UniqueID>  (36) 
34

>  <SMILES>  (36) 
O=C(Cc1ccc(C(=O)N2CCCC2)cc1)[N-]CC(=O)[N-]c1ccc([O-])cc1

>  <Energy>  (36) 
52.39530530190906

>  <Genealogy>  (36) 
O=C(Cc1ccc(C(=O)N2CCCC2)cc1)[N-]CC(=O)[N-]c1ccc([O-])cc1 (protonated)
O=C(Cc1ccc(C(=O)N2CCCC2)cc1)[N-]CC(=O)[N-]c1ccc([O-])cc1 (3D coordinates assigned)
O=C(Cc1ccc(C(=O)N2CCCC2)cc1)[N-]CC(=O)[N-]c1ccc([O-])cc1 (nonaromatic ring conformer: 52.39530530190906 kcal/mol)

>  <smiles>  (36) 
O=C(Cc1ccc(C(=O)N2CCCC2)cc1)NCC(=O)Nc1ccc(O)cc1

>  <score_type>  (36) 
oracle

>  <origin>  (36) 
adg

>  <m_score__min__energy>  (36) 
-13.75

>  <m_primary>  (36) 
energy

$$$$
36:0
     RDKit          3D

 54 56  0  0  0  0  0  0  0  0999 V2000
   55.1890   26.7040   46.0000 O   0  0  0  0  0  0  0  0  0  0  0  0
   56.4810   26.2960   45.6390 C   0  0  0  0  0  0  0  0  0  0  0  0
   57.4680   26.4940   46.7990 C   0  0  0  0  0  0  0  0  0  0  0  0
   58.2140   27.8440   46.7590 C   0  0  2  0  0  0  0  0  0  0  0  0
   57.8660   28.6510   45.4870 C   0  0  0  0  0  0  0  0  0  0  0  0
   58.8460   29.7350   45.2910 N   0  0  2  0  0  0  0  0  0  0  0  0
   58.3990   30.7360   44.2900 C   0  0  0  0  0  0  0  0  0  0  0  0
   58.2840   32.1410   44.8280 C   0  0  0  0  0  0  0  0  0  0  0  0
   58.5190   33.3110   44.1140 C   0  0  0  0  0  0  0  0  0  0  0  0
   58.2980   34.4710   44.8660 C   0  0  0  0  0  0  0  0  0  0  0  0
   57.8790   34.2230   46.1660 C   0  0  0  0  0  0  0  0  0  0  0  0
   57.7810   32.5580   46.3790 S   0  0  0  0  0  0  0  0  0  0  0  0
   60.1980   29.2050   44.9910 C   0  0  0  0  0  0  0  0  0  0  0  0
   60.4970   27.8480   45.6700 C   0  0  0  0  0  0  0  0  0  0  0  0
   59.6690   27.5800   46.8630 N   0  0  0  0  0  0  0  0  0  0  0  0
   60.2940   27.8660   48.1710 C   0  0  0  0  0  0  0  0  0  0  0  0
   59.7420   29.1270   48.8520 C   0  0  0  0  0  0  0  0  0  0  0  0
   59.6490   30.1790   47.9100 O   0  0  0  0  0  0  0  0  0  0  0  0
   59.8750   31.4280   48.5320 C   0  0  0  0  0  0  0  0  0  0  0  0
   61.1000   32.0520   47.9310 C   0  0  0  0  0  0  0  0  0  0  0  0
   61.0040   33.2740   47.2440 C   0  0  0  0  0  0  0  0  0  0  0  0
   62.1370   33.8400   46.6520 C   0  0  0  0  0  0  0  0  0  0  0  0
   63.3700   33.1880   46.7340 C   0  0  0  0  0  0  0  0  0  0  0  0
   63.4710   31.9650   47.4020 C   0  0  0  0  0  0  0  0  0  0  0  0
   62.3400   31.3930   47.9940 C   0  0  0  0  0  0  0  0  0  0  0  0
   54.7300   25.9030   46.3640 H   0  0  0  0  0  0  0  0  0  0  0  0
   56.4579   25.2310   45.3648 H   0  0  0  0  0  0  0  0  0  0  0  0
   56.8153   26.9073   44.7878 H   0  0  0  0  0  0  0  0  0  0  0  0
   56.9085   26.4349   47.7442 H   0  0  0  0  0  0  0  0  0  0  0  0
   58.2291   25.7049   46.7100 H   0  0  0  0  0  0  0  0  0  0  0  0
   57.8948   28.4651   47.6089 H   0  0  0  0  0  0  0  0  0  0  0  0
   57.8850   27.9812   44.6146 H   0  0  0  0  0  0  0  0  0  0  0  0
   56.8632   29.0884   45.6012 H   0  0  0  0  0  0  0  0  0  0  0  0
   58.9130   30.2610   46.1940 H   0  0  0  0  0  0  0  0  0  0  0  0
   59.1227   30.7421   43.4616 H   0  0  0  0  0  0  0  0  0  0  0  0
   57.3895   30.4359   43.9724 H   0  0  0  0  0  0  0  0  0  0  0  0
   58.8458   33.3237   43.0637 H   0  0  0  0  0  0  0  0  0  0  0  0
   58.4429   35.4847   44.4641 H   0  0  0  0  0  0  0  0  0  0  0  0
   57.6504   34.9847   46.9260 H   0  0  0  0  0  0  0  0  0  0  0  0
   60.2870   29.0759   43.9022 H   0  0  0  0  0  0  0  0  0  0  0  0
   60.9236   29.9304   45.3876 H   0  0  0  0  0  0  0  0  0  0  0  0
   60.3180   27.0473   44.9373 H   0  0  0  0  0  0  0  0  0  0  0  0
   61.5428   27.8845   46.0091 H   0  0  0  0  0  0  0  0  0  0  0  0
   60.1194   27.0069   48.8354 H   0  0  0  0  0  0  0  0  0  0  0  0
   61.3643   28.0405   47.9865 H   0  0  0  0  0  0  0  0  0  0  0  0
   58.7434   28.9137   49.2610 H   0  0  0  0  0  0  0  0  0  0  0  0
   60.4194   29.4266   49.6652 H   0  0  0  0  0  0  0  0  0  0  0  0
   59.0076   32.0846   48.3691 H   0  0  0  0  0  0  0  0  0  0  0  0
   60.0193   31.2867   49.6133 H   0  0  0  0  0  0  0  0  0  0  0  0
   60.0337   33.7872   47.1717 H   0  0  0  0  0  0  0  0  0  0  0  0
   62.0576   34.8000   46.1209 H   0  0  0  0  0  0  0  0  0  0  0  0
   64.2615   33.6377   46.2725 H   0  0  0  0  0  0  0  0  0  0  0  0
   64.4416   31.4510   47.4625 H   0  0  0  0  0  0  0  0  0  0  0  0
   62.4212   30.4250   48.5101 H   0  0  0  0  0  0  0  0  0  0  0  0
  1  2  1  0
  2  3  1  0
  3  4  1  0
  4  5  1  0
  5  6  1  0
  6  7  1  0
  7  8  1  0
  8  9  2  0
  9 10  1  0
 10 11  2  0
 11 12  1  0
  6 13  1  0
 13 14  1  0
 14 15  1  0
 15 16  1  0
 16 17  1  0
 17 18  1  0
 18 19  1  0
 19 20  1  0
 20 21  2  0
 21 22  1  0
 22 23  2  0
 23 24  1  0
 24 25  2  0
 15  4  1  0
 25 20  1  0
 12  8  1  0
  1 26  1  0
  2 27  1  0
  2 28  1  0
  3 29  1  0
  3 30  1  0
  4 31  1  1
  5 32  1  0
  5 33  1  0
  6 34  1  1
  7 35  1  0
  7 36  1  0
  9 37  1  0
 10 38  1  0
 11 39  1  0
 13 40  1  0
 13 41  1  0
 14 42  1  0
 14 43  1  0
 16 44  1  0
 16 45  1  0
 17 46  1  0
 17 47  1  0
 19 48  1  0
 19 49  1  0
 21 50  1  0
 22 51  1  0
 23 52  1  0
 24 53  1  0
 25 54  1  0
M  CHG  1   6   1
M  END
>  <UniqueID>  (37) 
35

>  <SMILES>  (37) 
OCC[C@@H]1C[N@H+](Cc2cccs2)CCN1CCOCc1ccccc1

>  <Energy>  (37) 
97.22378101734549

>  <Genealogy>  (37) 
OCCC1C[NH+](Cc2cccs2)CCN1CCOCc1ccccc1 (protonated)
OCC[C@@H]1C[N@H+](Cc2cccs2)CCN1CCOCc1ccccc1 (chirality)
OCC[C@@H]1C[N@H+](Cc2cccs2)CCN1CCOCc1ccccc1 (3D coordinates assigned)
OCC[C@@H]1C[N@H+](Cc2cccs2)CCN1CCOCc1ccccc1 (nonaromatic ring conformer: 97.22378101734549 kcal/mol)

>  <smiles>  (37) 
OCCC1CN(Cc2cccs2)CCN1CCOCc1ccccc1

>  <score_type>  (37) 
oracle

>  <origin>  (37) 
adg

>  <m_score__min__energy>  (37) 
-6.3399999999999999

>  <m_primary>  (37) 
energy

$$$$
37:0
     RDKit          3D

 55 58  0  0  0  0  0  0  0  0999 V2000
   68.3330   26.7950   49.7470 C   0  0  0  0  0  0  0  0  0  0  0  0
   67.4020   27.5360   50.6610 C   0  0  0  0  0  0  0  0  0  0  0  0
   66.4840   26.8280   51.4470 C   0  0  0  0  0  0  0  0  0  0  0  0
   65.6580   27.5220   52.3300 C   0  0  0  0  0  0  0  0  0  0  0  0
   65.7510   28.9090   52.4220 C   0  0  0  0  0  0  0  0  0  0  0  0
   66.6730   29.5980   51.6240 C   0  0  0  0  0  0  0  0  0  0  0  0
   66.7400   30.8950   51.7310 N   0  0  0  0  0  0  0  0  0  0  0  0
   65.7630   31.8460   51.2830 C   0  0  0  0  0  0  0  0  0  0  0  0
   66.0470   33.0730   51.3210 O   0  0  0  0  0  0  0  0  0  0  0  0
   64.4120   31.4290   50.8660 C   0  0  0  0  0  0  0  0  0  0  0  0
   63.4310   30.8670   51.6750 C   0  0  0  0  0  0  0  0  0  0  0  0
   62.2360   30.5930   50.9970 C   0  0  0  0  0  0  0  0  0  0  0  0
   62.2640   30.9470   49.6460 C   0  0  0  0  0  0  0  0  0  0  0  0
   61.1600   30.7950   48.6650 C   0  0  0  0  0  0  0  0  0  0  0  0
   59.8320   31.0630   49.0450 C   0  0  0  0  0  0  0  0  0  0  0  0
   58.7870   30.9130   48.1290 C   0  0  0  0  0  0  0  0  0  0  0  0
   59.0450   30.5180   46.8140 C   0  0  0  0  0  0  0  0  0  0  0  0
   57.9400   30.3560   45.9120 N   0  0  0  0  0  0  0  0  0  0  0  0
   57.4400   31.3360   44.9930 C   0  0  0  0  0  0  0  0  0  0  0  0
   56.2860   31.2190   44.5020 O   0  0  0  0  0  0  0  0  0  0  0  0
   58.3000   32.4840   44.6470 C   0  0  0  0  0  0  0  0  0  0  0  0
   58.4560   33.5950   45.3840 C   0  0  0  0  0  0  0  0  0  0  0  0
   59.4590   33.7780   46.4530 C   0  0  0  0  0  0  0  0  0  0  0  0
   59.0840   34.2160   47.7340 C   0  0  0  0  0  0  0  0  0  0  0  0
   60.0530   34.4190   48.7190 C   0  0  0  0  0  0  0  0  0  0  0  0
   61.4040   34.2170   48.4270 C   0  0  0  0  0  0  0  0  0  0  0  0
   61.8030   33.8350   47.1340 C   0  0  0  0  0  0  0  0  0  0  0  0
   63.2580   33.5820   46.8280 C   0  0  0  0  0  0  0  0  0  0  0  0
   64.0630   34.0750   47.8400 F   0  0  0  0  0  0  0  0  0  0  0  0
   63.5040   32.2250   46.7030 F   0  0  0  0  0  0  0  0  0  0  0  0
   63.5900   34.2100   45.6420 F   0  0  0  0  0  0  0  0  0  0  0  0
   60.8190   33.6060   46.1550 C   0  0  0  0  0  0  0  0  0  0  0  0
   60.3660   30.2330   46.4310 C   0  0  0  0  0  0  0  0  0  0  0  0
   61.4130   30.3750   47.3460 C   0  0  0  0  0  0  0  0  0  0  0  0
   63.7840   31.6010   49.3160 S   0  0  0  0  0  0  0  0  0  0  0  0
   67.4950   28.8930   50.7820 N   0  0  0  0  0  0  0  0  0  0  0  0
   69.0548   26.2205   50.3461 H   0  0  0  0  0  0  0  0  0  0  0  0
   67.7540   26.1079   49.1124 H   0  0  0  0  0  0  0  0  0  0  0  0
   68.8727   27.5134   49.1124 H   0  0  0  0  0  0  0  0  0  0  0  0
   66.4153   25.7330   51.3682 H   0  0  0  0  0  0  0  0  0  0  0  0
   64.9344   26.9756   52.9527 H   0  0  0  0  0  0  0  0  0  0  0  0
   65.1028   29.4609   53.1187 H   0  0  0  0  0  0  0  0  0  0  0  0
   63.5788   30.6576   52.7447 H   0  0  0  0  0  0  0  0  0  0  0  0
   61.3583   30.1416   51.4828 H   0  0  0  0  0  0  0  0  0  0  0  0
   59.6144   31.3933   50.0714 H   0  0  0  0  0  0  0  0  0  0  0  0
   57.7519   31.1077   48.4464 H   0  0  0  0  0  0  0  0  0  0  0  0
   58.8620   32.4242   43.7033 H   0  0  0  0  0  0  0  0  0  0  0  0
   57.7816   34.4384   45.1748 H   0  0  0  0  0  0  0  0  0  0  0  0
   58.0237   34.3997   47.9620 H   0  0  0  0  0  0  0  0  0  0  0  0
   59.7516   34.7388   49.7274 H   0  0  0  0  0  0  0  0  0  0  0  0
   62.1603   34.3576   49.2133 H   0  0  0  0  0  0  0  0  0  0  0  0
   61.1191   33.2888   45.1454 H   0  0  0  0  0  0  0  0  0  0  0  0
   60.5777   29.8962   45.4054 H   0  0  0  0  0  0  0  0  0  0  0  0
   62.4444   30.1564   47.0321 H   0  0  0  0  0  0  0  0  0  0  0  0
   68.2330   29.3830   50.2290 H   0  0  0  0  0  0  0  0  0  0  0  0
  1  2  1  0
  2  3  2  0
  3  4  1  0
  4  5  2  0
  5  6  1  0
  6  7  2  3
  7  8  1  0
  8  9  2  0
  8 10  1  0
 10 11  2  0
 11 12  1  0
 12 13  2  0
 13 14  1  0
 14 15  2  0
 15 16  1  0
 16 17  2  0
 17 18  1  0
 18 19  1  0
 19 20  2  0
 19 21  1  0
 21 22  2  3
 22 23  1  0
 23 24  2  0
 24 25  1  0
 25 26  2  0
 26 27  1  0
 27 28  1  0
 28 29  1  0
 28 30  1  0
 28 31  1  0
 27 32  2  0
 17 33  1  0
 33 34  2  0
 13 35  1  0
  6 36  1  0
 36  2  1  0
 35 10  1  0
 34 14  1  0
 32 23  1  0
  1 37  1  0
  1 38  1  0
  1 39  1  0
  3 40  1  0
  4 41  1  0
  5 42  1  0
 11 43  1  0
 12 44  1  0
 15 45  1  0
 16 46  1  0
 21 47  1  0
 22 48  1  0
 24 49  1  0
 25 50  1  0
 26 51  1  0
 32 52  1  0
 33 53  1  0
 34 54  1  0
 36 55  1  0
M  CHG  1  18  -1
M  END
>  <UniqueID>  (38) 
36

>  <SMILES>  (38) 
Cc1cccc(=NC(=O)c2ccc(-c3ccc([N-]C(=O)C=Cc4cccc(C(F)(F)F)c4)cc3)s2)[nH]1

>  <Energy>  (38) 
107.18531882534431

>  <Genealogy>  (38) 
Cc1cccc(=NC(=O)c2ccc(-c3ccc([N-]C(=O)C=Cc4cccc(C(F)(F)F)c4)cc3)s2)[nH]1 (protonated)
Cc1cccc(=NC(=O)c2ccc(-c3ccc([N-]C(=O)C=Cc4cccc(C(F)(F)F)c4)cc3)s2)[nH]1 (3D coordinates assigned)
Cc1cccc(=NC(=O)c2ccc(-c3ccc([N-]C(=O)C=Cc4cccc(C(F)(F)F)c4)cc3)s2)[nH]1 (optimized conformer: 107.18531882534431 kcal/mol)

>  <smiles>  (38) 
Cc1cccc(=NC(=O)c2ccc(-c3ccc(NC(=O)C=Cc4cccc(C(F)(F)F)c4)cc3)s2)[nH]1

>  <score_type>  (38) 
oracle

>  <origin>  (38) 
adg

>  <m_score__min__energy>  (38) 
-10.85

>  <m_primary>  (38) 
energy

$$$$
38:0
     RDKit          3D

 38 41  0  0  1  0  0  0  0  0999 V2000
   58.7980   22.5870   45.0360 C   0  0  0  0  0  0  0  0  0  0  0  0
   57.5840   22.6500   44.5200 C   0  0  0  0  0  0  0  0  0  0  0  0
   57.1010   22.0410   43.4220 N   0  0  0  0  0  0  0  0  0  0  0  0
   55.8330   22.3530   43.2340 N   0  0  0  0  0  0  0  0  0  0  0  0
   55.4010   23.2000   44.2110 C   0  0  0  0  0  0  0  0  0  0  0  0
   54.0590   23.7650   44.3430 C   0  0  0  0  0  0  0  0  0  0  0  0
   56.5010   23.3850   45.0180 C   0  0  0  0  0  0  0  0  0  0  0  0
   56.5270   24.1350   46.0880 C   0  0  0  0  0  0  0  0  0  0  0  0
   57.0640   25.4670   46.1870 C   0  0  0  0  0  0  0  0  0  0  0  0
   58.7850   25.9430   46.3800 S   0  0  0  0  0  0  0  0  0  0  0  0
   58.4010   27.8020   46.3620 C   0  0  0  0  0  0  0  0  0  0  0  0
   59.2890   28.6520   46.4690 N   0  0  0  0  0  0  0  0  0  0  0  0
   58.9730   30.0140   46.2120 C   0  0  0  0  0  0  0  0  0  0  0  0
   57.8340   30.5200   45.7590 N   0  0  0  0  0  0  0  0  0  0  0  0
   57.9080   31.8610   45.6400 C   0  0  0  0  0  0  0  0  0  0  0  0
   56.9920   32.8040   45.2190 C   0  0  0  0  0  0  0  0  0  0  0  0
   57.3770   34.1350   45.2090 C   0  0  0  0  0  0  0  0  0  0  0  0
   58.6330   34.5120   45.6070 C   0  0  0  0  0  0  0  0  0  0  0  0
   59.5340   33.5440   46.0270 C   0  0  0  0  0  0  0  0  0  0  0  0
   59.1810   32.1970   46.0490 C   0  0  0  0  0  0  0  0  0  0  0  0
   59.8190   31.0720   46.3930 N   0  0  0  0  0  0  0  0  0  0  0  0
   57.0950   27.7940   46.2200 N   0  0  0  0  0  0  0  0  0  0  0  0
   56.3960   26.7150   46.1300 C   0  0  0  0  0  0  0  0  0  0  0  0
   54.9860   26.6840   45.9760 O   0  0  0  0  0  0  0  0  0  0  0  0
   59.0373   23.1512   45.9495 H   0  0  0  0  0  0  0  0  0  0  0  0
   59.5699   21.9704   44.5523 H   0  0  0  0  0  0  0  0  0  0  0  0
   57.7110   21.4110   42.8390 H   0  0  0  0  0  0  0  0  0  0  0  0
   53.8087   23.8704   45.4090 H   0  0  0  0  0  0  0  0  0  0  0  0
   54.0278   24.7526   43.8597 H   0  0  0  0  0  0  0  0  0  0  0  0
   53.3308   23.0971   43.8597 H   0  0  0  0  0  0  0  0  0  0  0  0
   56.0956   23.7057   47.0043 H   0  0  0  0  0  0  0  0  0  0  0  0
   55.9823   32.5064   44.8997 H   0  0  0  0  0  0  0  0  0  0  0  0
   56.6624   34.9021   44.8759 H   0  0  0  0  0  0  0  0  0  0  0  0
   58.9243   35.5726   45.5936 H   0  0  0  0  0  0  0  0  0  0  0  0
   60.5423   33.8451   46.3474 H   0  0  0  0  0  0  0  0  0  0  0  0
   60.8020   31.0440   46.7400 H   0  0  0  0  0  0  0  0  0  0  0  0
   56.5930   28.7760   46.1780 H   0  0  0  0  0  0  0  0  0  0  0  0
   54.3590   26.7140   46.7480 H   0  0  0  0  0  0  0  0  0  0  0  0
  1  2  2  0
  2  3  1  0
  3  4  1  0
  4  5  2  0
  5  6  1  0
  5  7  1  0
  7  8  2  0
  8  9  1  0
  9 10  1  0
 10 11  1  0
 11 12  2  0
 12 13  1  0
 13 14  2  0
 14 15  1  0
 15 16  2  0
 16 17  1  0
 17 18  2  0
 18 19  1  0
 19 20  2  0
 20 21  1  0
 11 22  1  0
 22 23  1  0
 23 24  1  0
  7  2  1  0
 23  9  2  0
 21 13  1  0
 20 15  1  0
  1 25  1  0
  1 26  1  0
  3 27  1  0
  6 28  1  0
  6 29  1  0
  6 30  1  0
  8 31  1  0
 16 32  1  0
 17 33  1  0
 18 34  1  0
 19 35  1  0
 21 36  1  0
 22 37  1  0
 24 38  1  0
M  END
>  <smiles>  (39) 
C=c1[nH]nc(C)c1=Cc1sc(=Nc2nc3ccccc3[nH]2)[nH]c1O

>  <score_type>  (39) 
oracle

>  <origin>  (39) 
adg

>  <m_score__min__energy>  (39) 
-9.4100000000000001

>  <m_primary>  (39) 
energy

$$$$
39:0
     RDKit          3D

 70 73  0  0  0  0  0  0  0  0999 V2000
   57.7830   33.3450   45.0680 C   0  0  0  0  0  0  0  0  0  0  0  0
   58.3490   32.9560   46.4160 C   0  0  0  0  0  0  0  0  0  0  0  0
   58.2200   31.6310   46.8600 C   0  0  0  0  0  0  0  0  0  0  0  0
   57.5860   30.6840   46.0560 O   0  0  0  0  0  0  0  0  0  0  0  0
   58.7240   31.2500   48.1070 C   0  0  0  0  0  0  0  0  0  0  0  0
   58.5680   29.8200   48.5870 C   0  0  0  0  0  0  0  0  0  0  0  0
   59.3830   28.8630   47.7620 C   0  0  0  0  0  0  0  0  0  0  0  0
   59.5680   27.6820   48.1650 O   0  0  0  0  0  0  0  0  0  0  0  0
   59.8770   29.2710   46.4780 N   0  0  0  0  0  0  0  0  0  0  0  0
   60.5410   28.3450   45.5620 C   0  0  0  0  0  0  0  0  0  0  0  0
   59.7240   27.0910   45.4090 C   0  0  0  0  0  0  0  0  0  0  0  0
   60.1560   25.8970   46.0060 C   0  0  0  0  0  0  0  0  0  0  0  0
   59.4290   24.7170   45.8280 C   0  0  0  0  0  0  0  0  0  0  0  0
   58.2560   24.7170   45.0590 C   0  0  0  0  0  0  0  0  0  0  0  0
   57.5090   23.4600   44.8480 C   0  0  0  0  0  0  0  0  0  0  0  0
   58.0910   22.4690   44.0390 C   0  0  0  0  0  0  0  0  0  0  0  0
   57.4190   21.2720   43.7880 C   0  0  0  0  0  0  0  0  0  0  0  0
   56.1610   21.0470   44.3450 C   0  0  0  0  0  0  0  0  0  0  0  0
   55.5730   22.0170   45.1610 C   0  0  0  0  0  0  0  0  0  0  0  0
   56.2370   23.2260   45.4280 C   0  0  0  0  0  0  0  0  0  0  0  0
   55.4660   24.3970   46.5150 S   0  0  0  0  0  0  0  0  0  0  0  0
   54.7930   25.7090   45.6110 N   0  0  0  0  0  0  0  0  0  0  0  0
   54.3820   23.7170   47.3020 O   0  0  0  0  0  0  0  0  0  0  0  0
   56.4840   24.9550   47.4690 O   0  0  0  0  0  0  0  0  0  0  0  0
   57.8280   25.9070   44.4540 C   0  0  0  0  0  0  0  0  0  0  0  0
   58.5550   27.0890   44.6300 C   0  0  0  0  0  0  0  0  0  0  0  0
   59.3150   32.2250   48.9300 C   0  0  0  0  0  0  0  0  0  0  0  0
   59.7270   31.8870   50.0750 O   0  0  0  0  0  0  0  0  0  0  0  0
   59.4520   33.5240   48.4980 N   0  0  0  0  0  0  0  0  0  0  0  0
   60.0780   34.5120   49.4080 C   0  0  0  0  0  0  0  0  0  0  0  0
   61.3760   33.9830   49.9680 C   0  0  0  0  0  0  0  0  0  0  0  0
   61.6570   34.2190   51.1760 O   0  0  0  0  0  0  0  0  0  0  0  0
   62.3090   33.2460   49.1520 N   0  0  0  0  0  0  0  0  0  0  0  0
   62.2160   33.2720   47.6870 C   0  0  0  0  0  0  0  0  0  0  0  0
   63.5850   32.9860   47.0600 C   0  0  0  0  0  0  0  0  0  0  0  0
   64.1580   31.8150   47.6070 O   0  0  0  0  0  0  0  0  0  0  0  0
   64.4370   32.0220   48.9770 C   0  0  0  0  0  0  0  0  0  0  0  0
   63.1440   32.2080   49.7740 C   0  0  0  0  0  0  0  0  0  0  0  0
   59.0470   33.8890   47.2270 C   0  0  0  0  0  0  0  0  0  0  0  0
   59.2890   35.2950   46.7030 C   0  0  0  0  0  0  0  0  0  0  0  0
   56.8843   33.9627   45.2121 H   0  0  0  0  0  0  0  0  0  0  0  0
   58.5353   33.9178   44.5059 H   0  0  0  0  0  0  0  0  0  0  0  0
   57.5179   32.4374   44.5059 H   0  0  0  0  0  0  0  0  0  0  0  0
   58.8981   29.7578   49.6345 H   0  0  0  0  0  0  0  0  0  0  0  0
   57.5088   29.5398   48.4895 H   0  0  0  0  0  0  0  0  0  0  0  0
   59.7310   30.2580   46.1660 H   0  0  0  0  0  0  0  0  0  0  0  0
   60.6563   28.8258   44.5794 H   0  0  0  0  0  0  0  0  0  0  0  0
   61.5285   28.0828   45.9697 H   0  0  0  0  0  0  0  0  0  0  0  0
   61.0708   25.8898   46.6167 H   0  0  0  0  0  0  0  0  0  0  0  0
   59.7784   23.7835   46.2933 H   0  0  0  0  0  0  0  0  0  0  0  0
   59.0851   22.6384   43.5997 H   0  0  0  0  0  0  0  0  0  0  0  0
   57.8824   20.5051   43.1499 H   0  0  0  0  0  0  0  0  0  0  0  0
   55.6307   20.1049   44.1419 H   0  0  0  0  0  0  0  0  0  0  0  0
   54.5808   21.8323   45.5985 H   0  0  0  0  0  0  0  0  0  0  0  0
   54.8280   26.5530   46.2240 H   0  0  0  0  0  0  0  0  0  0  0  0
   56.9165   25.9112   43.8382 H   0  0  0  0  0  0  0  0  0  0  0  0
   58.2101   28.0202   44.1568 H   0  0  0  0  0  0  0  0  0  0  0  0
   60.2777   35.4389   48.8504 H   0  0  0  0  0  0  0  0  0  0  0  0
   59.3887   34.7063   50.2430 H   0  0  0  0  0  0  0  0  0  0  0  0
   61.4985   32.5069   47.3557 H   0  0  0  0  0  0  0  0  0  0  0  0
   61.8787   34.2694   47.3683 H   0  0  0  0  0  0  0  0  0  0  0  0
   63.4631   32.8538   45.9748 H   0  0  0  0  0  0  0  0  0  0  0  0
   64.2519   33.8346   47.2722 H   0  0  0  0  0  0  0  0  0  0  0  0
   64.9803   31.1500   49.3699 H   0  0  0  0  0  0  0  0  0  0  0  0
   65.0471   32.9316   49.0785 H   0  0  0  0  0  0  0  0  0  0  0  0
   62.5891   31.2584   49.7930 H   0  0  0  0  0  0  0  0  0  0  0  0
   63.3957   32.5165   50.7994 H   0  0  0  0  0  0  0  0  0  0  0  0
   59.4080   35.9866   47.5501 H   0  0  0  0  0  0  0  0  0  0  0  0
   60.2022   35.3057   46.0898 H   0  0  0  0  0  0  0  0  0  0  0  0
   58.4319   35.6104   46.0898 H   0  0  0  0  0  0  0  0  0  0  0  0
  1  2  1  0
  2  3  1  0
  3  4  1  0
  3  5  2  0
  5  6  1  0
  6  7  1  0
  7  8  2  0
  7  9  1  0
  9 10  1  0
 10 11  1  0
 11 12  2  0
 12 13  1  0
 13 14  2  0
 14 15  1  0
 15 16  2  0
 16 17  1  0
 17 18  2  0
 18 19  1  0
 19 20  2  0
 20 21  1  0
 21 22  1  0
 21 23  2  0
 21 24  2  0
 14 25  1  0
 25 26  2  0
  5 27  1  0
 27 28  2  0
 27 29  1  0
 29 30  1  0
 30 31  1  0
 31 32  2  0
 31 33  1  0
 33 34  1  0
 34 35  1  0
 35 36  1  0
 36 37  1  0
 37 38  1  0
 29 39  1  0
 39 40  1  0
 39  2  2  0
 26 11  1  0
 38 33  1  0
 20 15  1  0
  1 41  1  0
  1 42  1  0
  1 43  1  0
  6 44  1  0
  6 45  1  0
  9 46  1  0
 10 47  1  0
 10 48  1  0
 12 49  1  0
 13 50  1  0
 16 51  1  0
 17 52  1  0
 18 53  1  0
 19 54  1  0
 22 55  1  0
 25 56  1  0
 26 57  1  0
 30 58  1  0
 30 59  1  0
 34 60  1  0
 34 61  1  0
 35 62  1  0
 35 63  1  0
 37 64  1  0
 37 65  1  0
 38 66  1  0
 38 67  1  0
 40 68  1  0
 40 69  1  0
 40 70  1  0
M  CHG  2   4  -1  22  -1
M  END
>  <UniqueID>  (40) 
37

>  <SMILES>  (40) 
Cc1c([O-])c(CC(=O)NCc2ccc(-c3ccccc3S([NH-])(=O)=O)cc2)c(=O)n(CC(=O)N2CCOCC2)c1C

>  <Energy>  (40) 
90.43725801106726

>  <Genealogy>  (40) 
Cc1c([O-])c(CC(=O)NCc2ccc(-c3ccccc3S([NH-])(=O)=O)cc2)c(=O)n(CC(=O)N2CCOCC2)c1C (protonated)
Cc1c([O-])c(CC(=O)NCc2ccc(-c3ccccc3S([NH-])(=O)=O)cc2)c(=O)n(CC(=O)N2CCOCC2)c1C (3D coordinates assigned)
Cc1c([O-])c(CC(=O)NCc2ccc(-c3ccccc3S([NH-])(=O)=O)cc2)c(=O)n(CC(=O)N2CCOCC2)c1C (nonaromatic ring conformer: 90.43725801106726 kcal/mol)

>  <smiles>  (40) 
Cc1c(O)c(CC(=O)NCc2ccc(-c3ccccc3S(N)(=O)=O)cc2)c(=O)n(CC(=O)N2CCOCC2)c1C

>  <score_type>  (40) 
oracle

>  <origin>  (40) 
adg

>  <m_score__min__energy>  (40) 
-13.41

>  <m_primary>  (40) 
energy

$$$$
40:0
     RDKit          3D

 57 59  0  0  0  0  0  0  0  0999 V2000
   58.9010   31.8870   49.3040 C   0  0  0  0  0  0  0  0  0  0  0  0
   59.4210   31.8740   47.9790 O   0  0  0  0  0  0  0  0  0  0  0  0
   60.7390   32.2210   47.6370 C   0  0  0  0  0  0  0  0  0  0  0  0
   61.8140   31.3290   47.8200 C   0  0  0  0  0  0  0  0  0  0  0  0
   63.1110   31.6990   47.4580 C   0  0  0  0  0  0  0  0  0  0  0  0
   63.3510   32.9600   46.9110 C   0  0  0  0  0  0  0  0  0  0  0  0
   62.2960   33.8550   46.7250 C   0  0  0  0  0  0  0  0  0  0  0  0
   60.9880   33.4960   47.0900 C   0  0  0  0  0  0  0  0  0  0  0  0
   59.8500   34.4610   46.8480 C   0  0  0  0  0  0  0  0  0  0  0  0
   59.2170   34.1970   45.6110 O   0  0  0  0  0  0  0  0  0  0  0  0
   57.9880   33.5120   45.7870 C   0  0  0  0  0  0  0  0  0  0  0  0
   57.7970   32.5100   44.6430 C   0  0  0  0  0  0  0  0  0  0  0  0
   57.1140   31.2820   45.1040 N   0  0  0  0  0  0  0  0  0  0  0  0
   58.0810   30.2860   45.6320 C   0  0  0  0  0  0  0  0  0  0  0  0
   57.5100   28.8600   45.5950 C   0  0  0  0  0  0  0  0  0  0  0  0
   57.1590   28.4260   44.2180 N   0  0  0  0  0  0  0  0  0  0  0  0
   58.1820   27.5350   43.6350 C   0  0  0  0  0  0  0  0  0  0  0  0
   58.0930   26.1600   44.2420 C   0  0  0  0  0  0  0  0  0  0  0  0
   58.6990   25.9000   45.4810 C   0  0  0  0  0  0  0  0  0  0  0  0
   58.6260   24.6260   46.0510 C   0  0  0  0  0  0  0  0  0  0  0  0
   57.9510   23.5840   45.3890 C   0  0  0  0  0  0  0  0  0  0  0  0
   57.8610   22.2270   45.9800 C   0  0  0  0  0  0  0  0  0  0  0  0
   58.4570   21.0930   45.3440 N   0  0  0  0  0  0  0  0  0  0  0  0
   57.2320   22.0580   47.0600 O   0  0  0  0  0  0  0  0  0  0  0  0
   57.3340   23.8540   44.1530 C   0  0  0  0  0  0  0  0  0  0  0  0
   57.4080   25.1290   43.5840 C   0  0  0  0  0  0  0  0  0  0  0  0
   56.8730   29.5550   43.3030 C   0  0  0  0  0  0  0  0  0  0  0  0
   56.2240   30.7270   44.0510 C   0  0  0  0  0  0  0  0  0  0  0  0
   59.7321   31.8662   50.0243 H   0  0  0  0  0  0  0  0  0  0  0  0
   58.3070   32.8003   49.4558 H   0  0  0  0  0  0  0  0  0  0  0  0
   58.2621   31.0045   49.4558 H   0  0  0  0  0  0  0  0  0  0  0  0
   61.6304   30.3338   48.2512 H   0  0  0  0  0  0  0  0  0  0  0  0
   63.9441   30.9958   47.6042 H   0  0  0  0  0  0  0  0  0  0  0  0
   64.3732   33.2493   46.6259 H   0  0  0  0  0  0  0  0  0  0  0  0
   62.4900   34.8467   46.2903 H   0  0  0  0  0  0  0  0  0  0  0  0
   59.1131   34.3590   47.6583 H   0  0  0  0  0  0  0  0  0  0  0  0
   60.2559   35.4831   46.8233 H   0  0  0  0  0  0  0  0  0  0  0  0
   58.0009   32.9752   46.7470 H   0  0  0  0  0  0  0  0  0  0  0  0
   57.1596   34.2357   45.7845 H   0  0  0  0  0  0  0  0  0  0  0  0
   57.1920   32.9802   43.8537 H   0  0  0  0  0  0  0  0  0  0  0  0
   58.7899   32.2293   44.2618 H   0  0  0  0  0  0  0  0  0  0  0  0
   58.9953   30.3192   45.0213 H   0  0  0  0  0  0  0  0  0  0  0  0
   58.2958   30.5409   46.6803 H   0  0  0  0  0  0  0  0  0  0  0  0
   58.2615   28.1679   46.0028 H   0  0  0  0  0  0  0  0  0  0  0  0
   56.5877   28.8524   46.1944 H   0  0  0  0  0  0  0  0  0  0  0  0
   58.0220   27.4622   42.5491 H   0  0  0  0  0  0  0  0  0  0  0  0
   59.1779   27.9523   43.8449 H   0  0  0  0  0  0  0  0  0  0  0  0
   59.2348   26.7041   46.0068 H   0  0  0  0  0  0  0  0  0  0  0  0
   59.1002   24.4364   47.0253 H   0  0  0  0  0  0  0  0  0  0  0  0
   58.8460   21.1460   44.3770 H   0  0  0  0  0  0  0  0  0  0  0  0
   58.4290   20.1590   45.8110 H   0  0  0  0  0  0  0  0  0  0  0  0
   56.7886   23.0546   43.6300 H   0  0  0  0  0  0  0  0  0  0  0  0
   56.9260   25.3242   42.6147 H   0  0  0  0  0  0  0  0  0  0  0  0
   57.8153   29.8967   42.8498 H   0  0  0  0  0  0  0  0  0  0  0  0
   56.1733   29.2065   42.5290 H   0  0  0  0  0  0  0  0  0  0  0  0
   55.9908   31.5229   43.3284 H   0  0  0  0  0  0  0  0  0  0  0  0
   55.3133   30.3523   44.5412 H   0  0  0  0  0  0  0  0  0  0  0  0
  1  2  1  0
  2  3  1  0
  3  4  2  0
  4  5  1  0
  5  6  2  0
  6  7  1  0
  7  8  2  0
  8  9  1  0
  9 10  1  0
 10 11  1  0
 11 12  1  0
 12 13  1  0
 13 14  1  0
 14 15  1  0
 15 16  1  0
 16 17  1  0
 17 18  1  0
 18 19  2  0
 19 20  1  0
 20 21  2  0
 21 22  1  0
 22 23  1  0
 22 24  2  0
 21 25  1  0
 25 26  2  0
 16 27  1  0
 27 28  1  0
  8  3  1  0
 28 13  1  0
 26 18  1  0
  1 29  1  0
  1 30  1  0
  1 31  1  0
  4 32  1  0
  5 33  1  0
  6 34  1  0
  7 35  1  0
  9 36  1  0
  9 37  1  0
 11 38  1  0
 11 39  1  0
 12 40  1  0
 12 41  1  0
 14 42  1  0
 14 43  1  0
 15 44  1  0
 15 45  1  0
 17 46  1  0
 17 47  1  0
 19 48  1  0
 20 49  1  0
 23 50  1  0
 23 51  1  0
 25 52  1  0
 26 53  1  0
 27 54  1  0
 27 55  1  0
 28 56  1  0
 28 57  1  0
M  END
>  <UniqueID>  (41) 
38

>  <SMILES>  (41) 
COc1ccccc1COCCN1CCN(Cc2ccc(C(N)=O)cc2)CC1

>  <Energy>  (41) 
73.54731552250722

>  <Genealogy>  (41) 
COc1ccccc1COCCN1CCN(Cc2ccc(C(N)=O)cc2)CC1 (3D coordinates assigned)
COc1ccccc1COCCN1CCN(Cc2ccc(C(N)=O)cc2)CC1 (nonaromatic ring conformer: 73.54731552250722 kcal/mol)

>  <smiles>  (41) 
COc1ccccc1COCCN1CCN(Cc2ccc(C(N)=O)cc2)CC1

>  <score_type>  (41) 
oracle

>  <origin>  (41) 
adg

>  <m_score__min__energy>  (41) 
-8.5500000000000007

>  <m_primary>  (41) 
energy

$$$$
41:0
     RDKit          3D

 61 64  0  0  0  0  0  0  0  0999 V2000
   61.7690   34.6760   55.4310 C   0  0  0  0  0  0  0  0  0  0  0  0
   61.0030   33.3570   55.3790 C   0  0  0  0  0  0  0  0  0  0  0  0
   59.5870   33.5710   55.7590 N   0  0  0  0  0  0  0  0  0  0  0  0
   58.8480   32.2900   55.9480 C   0  0  0  0  0  0  0  0  0  0  0  0
   57.8210   31.9820   54.8400 C   0  0  0  0  0  0  0  0  0  0  0  0
   58.2980   32.4870   53.5480 N   0  0  0  0  0  0  0  0  0  0  0  0
   58.5390   31.5860   52.4530 C   0  0  0  0  0  0  0  0  0  0  0  0
   59.8400   31.1180   52.2130 C   0  0  0  0  0  0  0  0  0  0  0  0
   60.1080   30.3090   51.1060 C   0  0  0  0  0  0  0  0  0  0  0  0
   59.0820   29.9700   50.2180 C   0  0  0  0  0  0  0  0  0  0  0  0
   59.4580   29.1470   48.7080 S   0  0  0  0  0  0  0  0  0  0  0  0
   58.1930   28.6050   48.1070 O   0  0  0  0  0  0  0  0  0  0  0  0
   60.4060   28.0050   48.9420 O   0  0  0  0  0  0  0  0  0  0  0  0
   60.1550   30.3070   47.6230 N   0  0  0  0  0  0  0  0  0  0  0  0
   59.6110   31.6200   47.4380 C   0  0  0  0  0  0  0  0  0  0  0  0
   60.0420   32.6880   48.2440 C   0  0  0  0  0  0  0  0  0  0  0  0
   59.5050   33.9670   48.0690 C   0  0  0  0  0  0  0  0  0  0  0  0
   58.5370   34.1920   47.0890 C   0  0  0  0  0  0  0  0  0  0  0  0
   58.1010   33.1390   46.2800 C   0  0  0  0  0  0  0  0  0  0  0  0
   58.6470   31.8510   46.4320 C   0  0  0  0  0  0  0  0  0  0  0  0
   58.1350   30.7160   45.5850 C   0  0  0  0  0  0  0  0  0  0  0  0
   57.7750   30.4030   50.4730 C   0  0  0  0  0  0  0  0  0  0  0  0
   57.4890   31.1880   51.6020 C   0  0  0  0  0  0  0  0  0  0  0  0
   56.1510   31.6260   51.8730 N   0  0  0  0  0  0  0  0  0  0  0  0
   55.0260   30.7620   52.0630 C   0  0  0  0  0  0  0  0  0  0  0  0
   55.1790   29.5090   52.0730 O   0  0  0  0  0  0  0  0  0  0  0  0
   53.6880   31.3660   52.3730 C   0  0  0  0  0  0  0  0  0  0  0  0
   52.7000   31.1150   51.2730 C   0  0  0  0  0  0  0  0  0  0  0  0
   52.7830   29.8450   50.1670 S   0  0  0  0  0  0  0  0  0  0  0  0
   51.4580   30.4110   49.2980 C   0  0  0  0  0  0  0  0  0  0  0  0
   50.9950   29.8520   48.2690 O   0  0  0  0  0  0  0  0  0  0  0  0
   50.9490   31.5550   49.8040 N   0  0  0  0  0  0  0  0  0  0  0  0
   51.6430   31.9480   50.9050 C   0  0  0  0  0  0  0  0  0  0  0  0
   51.3100   33.1020   51.6050 O   0  0  0  0  0  0  0  0  0  0  0  0
   58.7270   33.8870   53.4430 C   0  0  0  0  0  0  0  0  0  0  0  0
   58.9000   34.5050   54.8390 C   0  0  0  0  0  0  0  0  0  0  0  0
   61.9353   34.9623   56.4800 H   0  0  0  0  0  0  0  0  0  0  0  0
   62.7386   34.5571   54.9252 H   0  0  0  0  0  0  0  0  0  0  0  0
   61.1852   35.4592   54.9252 H   0  0  0  0  0  0  0  0  0  0  0  0
   61.0475   32.9512   54.3575 H   0  0  0  0  0  0  0  0  0  0  0  0
   61.4606   32.6487   56.0854 H   0  0  0  0  0  0  0  0  0  0  0  0
   59.5809   31.4702   55.9763 H   0  0  0  0  0  0  0  0  0  0  0  0
   58.2809   32.3882   56.8854 H   0  0  0  0  0  0  0  0  0  0  0  0
   57.6754   30.8938   54.7727 H   0  0  0  0  0  0  0  0  0  0  0  0
   56.8695   32.4753   55.0874 H   0  0  0  0  0  0  0  0  0  0  0  0
   60.6541   31.3899   52.9010 H   0  0  0  0  0  0  0  0  0  0  0  0
   61.1287   29.9376   50.9323 H   0  0  0  0  0  0  0  0  0  0  0  0
   60.8060   32.5165   49.0166 H   0  0  0  0  0  0  0  0  0  0  0  0
   59.8460   34.7974   48.7048 H   0  0  0  0  0  0  0  0  0  0  0  0
   58.1167   35.1994   46.9532 H   0  0  0  0  0  0  0  0  0  0  0  0
   57.3264   33.3182   45.5199 H   0  0  0  0  0  0  0  0  0  0  0  0
   57.7705   29.9079   46.2363 H   0  0  0  0  0  0  0  0  0  0  0  0
   57.3116   31.0748   44.9500 H   0  0  0  0  0  0  0  0  0  0  0  0
   58.9490   30.3362   44.9500 H   0  0  0  0  0  0  0  0  0  0  0  0
   56.9647   30.1258   49.7827 H   0  0  0  0  0  0  0  0  0  0  0  0
   53.3045   30.9246   53.3047 H   0  0  0  0  0  0  0  0  0  0  0  0
   53.8175   32.4534   52.4772 H   0  0  0  0  0  0  0  0  0  0  0  0
   59.6861   33.9321   52.9062 H   0  0  0  0  0  0  0  0  0  0  0  0
   57.9586   34.4537   52.8967 H   0  0  0  0  0  0  0  0  0  0  0  0
   59.4959   35.4255   54.7521 H   0  0  0  0  0  0  0  0  0  0  0  0
   57.9026   34.7243   55.2477 H   0  0  0  0  0  0  0  0  0  0  0  0
  1  2  1  0
  2  3  1  0
  3  4  1  0
  4  5  1  0
  5  6  1  0
  6  7  1  0
  7  8  2  0
  8  9  1  0
  9 10  2  0
 10 11  1  0
 11 12  2  0
 11 13  2  0
 11 14  1  0
 14 15  1  0
 15 16  2  0
 16 17  1  0
 17 18  2  0
 18 19  1  0
 19 20  2  0
 20 21  1  0
 10 22  1  0
 22 23  2  0
 23 24  1  0
 24 25  1  0
 25 26  2  0
 25 27  1  0
 27 28  1  0
 28 29  1  0
 29 30  1  0
 30 31  2  0
 30 32  1  0
 32 33  1  0
 33 34  1  0
  6 35  1  0
 35 36  1  0
 36  3  1  0
 23  7  1  0
 33 28  2  0
 20 15  1  0
  1 37  1  0
  1 38  1  0
  1 39  1  0
  2 40  1  0
  2 41  1  0
  4 42  1  0
  4 43  1  0
  5 44  1  0
  5 45  1  0
  8 46  1  0
  9 47  1  0
 16 48  1  0
 17 49  1  0
 18 50  1  0
 19 51  1  0
 21 52  1  0
 21 53  1  0
 21 54  1  0
 22 55  1  0
 27 56  1  0
 27 57  1  0
 35 58  1  0
 35 59  1  0
 36 60  1  0
 36 61  1  0
M  CHG  4  14  -1  24  -1  32  -1  34  -1
M  END
>  <UniqueID>  (42) 
39

>  <SMILES>  (42) 
CCN1CCN(c2ccc(S(=O)(=O)[N-]c3ccccc3C)cc2[N-]C(=O)Cc2sc(=O)[n-]c2[O-])CC1

>  <Energy>  (42) 
114.68669966712305

>  <Genealogy>  (42) 
CCN1CCN(c2ccc(S(=O)(=O)[N-]c3ccccc3C)cc2[N-]C(=O)Cc2sc(=O)[n-]c2[O-])CC1 (protonated)
CCN1CCN(c2ccc(S(=O)(=O)[N-]c3ccccc3C)cc2[N-]C(=O)Cc2sc(=O)[n-]c2[O-])CC1 (3D coordinates assigned)
CCN1CCN(c2ccc(S(=O)(=O)[N-]c3ccccc3C)cc2[N-]C(=O)Cc2sc(=O)[n-]c2[O-])CC1 (nonaromatic ring conformer: 114.68669966712305 kcal/mol)

>  <smiles>  (42) 
CCN1CCN(c2ccc(S(=O)(=O)Nc3ccccc3C)cc2NC(=O)Cc2sc(=O)[nH]c2O)CC1

>  <score_type>  (42) 
oracle

>  <origin>  (42) 
adg

>  <m_score__min__energy>  (42) 
-16.530000000000001

>  <m_primary>  (42) 
energy

$$$$
42:0
     RDKit          3D

 40 42  0  0  0  0  0  0  0  0999 V2000
   57.0980   27.5880   46.1740 O   0  0  0  0  0  0  0  0  0  0  0  0
   57.4130   28.7980   46.0240 C   0  0  0  0  0  0  0  0  0  0  0  0
   56.5550   29.6390   45.2410 N   0  0  0  0  0  0  0  0  0  0  0  0
   56.9760   30.6750   44.3370 C   0  0  0  0  0  0  0  0  0  0  0  0
   57.4820   31.8970   44.8180 C   0  0  0  0  0  0  0  0  0  0  0  0
   57.8850   32.8940   43.9270 C   0  0  0  0  0  0  0  0  0  0  0  0
   57.7700   32.6910   42.5510 C   0  0  0  0  0  0  0  0  0  0  0  0
   57.2420   31.4930   42.0630 C   0  0  0  0  0  0  0  0  0  0  0  0
   56.8400   30.4840   42.9480 C   0  0  0  0  0  0  0  0  0  0  0  0
   56.3180   29.3010   42.4250 O   0  0  0  0  0  0  0  0  0  0  0  0
   58.6730   29.3000   46.6210 C   0  0  0  0  0  0  0  0  0  0  0  0
   59.8010   29.5390   45.8190 C   0  0  0  0  0  0  0  0  0  0  0  0
   60.9730   30.0520   46.3790 C   0  0  0  0  0  0  0  0  0  0  0  0
   61.0380   30.3300   47.7570 C   0  0  0  0  0  0  0  0  0  0  0  0
   62.1760   30.8880   48.3620 O   0  0  0  0  0  0  0  0  0  0  0  0
   62.5290   32.2720   48.3310 C   0  0  0  0  0  0  0  0  0  0  0  0
   61.3930   33.1000   47.7900 C   0  0  0  0  0  0  0  0  0  0  0  0
   61.3630   33.4770   46.4370 C   0  0  0  0  0  0  0  0  0  0  0  0
   60.2970   34.2340   45.9400 C   0  0  0  0  0  0  0  0  0  0  0  0
   59.2600   34.6270   46.7900 C   0  0  0  0  0  0  0  0  0  0  0  0
   59.2880   34.2670   48.1400 C   0  0  0  0  0  0  0  0  0  0  0  0
   60.3520   33.5090   48.6410 C   0  0  0  0  0  0  0  0  0  0  0  0
   59.9290   30.0490   48.5620 C   0  0  0  0  0  0  0  0  0  0  0  0
   58.7560   29.5370   48.0020 C   0  0  0  0  0  0  0  0  0  0  0  0
   57.5605   32.0678   45.9018 H   0  0  0  0  0  0  0  0  0  0  0  0
   58.2936   33.8406   44.3103 H   0  0  0  0  0  0  0  0  0  0  0  0
   58.0951   33.4744   41.8505 H   0  0  0  0  0  0  0  0  0  0  0  0
   57.1414   31.3412   40.9782 H   0  0  0  0  0  0  0  0  0  0  0  0
   56.2340   28.4550   42.9750 H   0  0  0  0  0  0  0  0  0  0  0  0
   59.7610   29.3205   44.7417 H   0  0  0  0  0  0  0  0  0  0  0  0
   61.8488   30.2395   45.7404 H   0  0  0  0  0  0  0  0  0  0  0  0
   62.7657   32.6071   49.3516 H   0  0  0  0  0  0  0  0  0  0  0  0
   63.4027   32.3992   47.6748 H   0  0  0  0  0  0  0  0  0  0  0  0
   62.1809   33.1757   45.7660 H   0  0  0  0  0  0  0  0  0  0  0  0
   60.2750   34.5204   44.8782 H   0  0  0  0  0  0  0  0  0  0  0  0
   58.4213   35.2200   46.3964 H   0  0  0  0  0  0  0  0  0  0  0  0
   58.4730   34.5798   48.8092 H   0  0  0  0  0  0  0  0  0  0  0  0
   60.3738   33.2321   49.7053 H   0  0  0  0  0  0  0  0  0  0  0  0
   59.9810   30.2328   49.6453 H   0  0  0  0  0  0  0  0  0  0  0  0
   57.8923   29.3183   48.6471 H   0  0  0  0  0  0  0  0  0  0  0  0
  1  2  2  0
  2  3  1  0
  3  4  1  0
  4  5  2  0
  5  6  1  0
  6  7  2  0
  7  8  1  0
  8  9  2  0
  9 10  1  0
  2 11  1  0
 11 12  2  0
 12 13  1  0
 13 14  2  0
 14 15  1  0
 15 16  1  0
 16 17  1  0
 17 18  2  0
 18 19  1  0
 19 20  2  0
 20 21  1  0
 21 22  2  0
 14 23  1  0
 23 24  2  0
  9  4  1  0
 24 11  1  0
 22 17  1  0
  5 25  1  0
  6 26  1  0
  7 27  1  0
  8 28  1  0
 10 29  1  0
 12 30  1  0
 13 31  1  0
 16 32  1  0
 16 33  1  0
 18 34  1  0
 19 35  1  0
 20 36  1  0
 21 37  1  0
 22 38  1  0
 23 39  1  0
 24 40  1  0
M  CHG  1   3  -1
M  END
>  <UniqueID>  (43) 
40

>  <SMILES>  (43) 
O=C([N-]c1ccccc1O)c1ccc(OCc2ccccc2)cc1

>  <Energy>  (43) 
49.39477885433244

>  <Genealogy>  (43) 
O=C([N-]c1ccccc1O)c1ccc(OCc2ccccc2)cc1 (protonated)
O=C([N-]c1ccccc1O)c1ccc(OCc2ccccc2)cc1 (3D coordinates assigned)
O=C([N-]c1ccccc1O)c1ccc(OCc2ccccc2)cc1 (optimized conformer: 49.39477885433244 kcal/mol)

>  <smiles>  (43) 
O=C(Nc1ccccc1O)c1ccc(OCc2ccccc2)cc1

>  <score_type>  (43) 
oracle

>  <origin>  (43) 
adg

>  <m_score__min__energy>  (43) 
-11.630000000000001

>  <m_primary>  (43) 
energy

$$$$
43:0
     RDKit          3D

 46 48  0  0  0  0  0  0  0  0999 V2000
   58.8800   28.0960   47.8120 C   0  0  0  0  0  0  0  0  0  0  0  0
   59.5760   28.5200   46.6020 N   0  0  0  0  0  0  0  0  0  0  0  0
   60.7590   29.1020   46.5720 N   0  0  0  0  0  0  0  0  0  0  0  0
   61.1240   29.3060   45.3160 N   0  0  0  0  0  0  0  0  0  0  0  0
   60.1770   28.8550   44.5030 N   0  0  0  0  0  0  0  0  0  0  0  0
   59.2180   28.3670   45.3150 C   0  0  0  0  0  0  0  0  0  0  0  0
   57.6940   27.6170   44.7320 S   0  0  0  0  0  0  0  0  0  0  0  0
   57.2130   29.0400   43.6950 C   0  0  0  0  0  0  0  0  0  0  0  0
   56.1920   29.8910   44.4000 C   0  0  0  0  0  0  0  0  0  0  0  0
   55.1590   29.3360   44.8590 O   0  0  0  0  0  0  0  0  0  0  0  0
   56.4060   31.2820   44.6800 N   0  0  0  0  0  0  0  0  0  0  0  0
   57.5630   31.8650   45.2900 C   0  0  0  0  0  0  0  0  0  0  0  0
   58.0870   33.0910   44.8500 C   0  0  0  0  0  0  0  0  0  0  0  0
   59.2350   33.6200   45.4490 C   0  0  0  0  0  0  0  0  0  0  0  0
   59.8530   32.9420   46.5080 C   0  0  0  0  0  0  0  0  0  0  0  0
   61.3320   33.5670   47.2310 S   0  0  0  0  0  0  0  0  0  0  0  0
   60.9670   34.5760   48.2840 O   0  0  0  0  0  0  0  0  0  0  0  0
   62.1730   34.2320   46.1760 O   0  0  0  0  0  0  0  0  0  0  0  0
   62.2330   32.2520   47.9480 N   0  0  0  0  0  0  0  0  0  0  0  0
   61.8400   32.0920   49.3660 C   0  0  0  0  0  0  0  0  0  0  0  0
   62.8640   31.2510   50.1350 C   0  0  0  0  0  0  0  0  0  0  0  0
   64.2460   31.9290   50.1480 C   0  0  0  0  0  0  0  0  0  0  0  0
   64.4430   32.8990   48.9720 C   0  0  0  0  0  0  0  0  0  0  0  0
   63.6920   32.4170   47.7240 C   0  0  0  0  0  0  0  0  0  0  0  0
   59.2900   31.7540   46.9920 C   0  0  0  0  0  0  0  0  0  0  0  0
   58.1440   31.2270   46.3930 C   0  0  0  0  0  0  0  0  0  0  0  0
   59.4397   28.4369   48.6955 H   0  0  0  0  0  0  0  0  0  0  0  0
   57.8705   28.5327   47.8264 H   0  0  0  0  0  0  0  0  0  0  0  0
   58.8050   26.9987   47.8264 H   0  0  0  0  0  0  0  0  0  0  0  0
   61.3320   29.3540   47.4090 H   0  0  0  0  0  0  0  0  0  0  0  0
   58.1041   29.6483   43.4808 H   0  0  0  0  0  0  0  0  0  0  0  0
   56.7740   28.6633   42.7594 H   0  0  0  0  0  0  0  0  0  0  0  0
   57.5936   33.6368   44.0323 H   0  0  0  0  0  0  0  0  0  0  0  0
   59.6537   34.5708   45.0877 H   0  0  0  0  0  0  0  0  0  0  0  0
   61.7692   33.0856   49.8327 H   0  0  0  0  0  0  0  0  0  0  0  0
   60.8693   31.5758   49.4015 H   0  0  0  0  0  0  0  0  0  0  0  0
   62.5175   31.1233   51.1712 H   0  0  0  0  0  0  0  0  0  0  0  0
   62.9596   30.2762   49.6344 H   0  0  0  0  0  0  0  0  0  0  0  0
   64.3539   32.4896   51.0882 H   0  0  0  0  0  0  0  0  0  0  0  0
   65.0047   31.1378   50.0562 H   0  0  0  0  0  0  0  0  0  0  0  0
   64.0641   33.8913   49.2579 H   0  0  0  0  0  0  0  0  0  0  0  0
   65.5163   32.9471   48.7360 H   0  0  0  0  0  0  0  0  0  0  0  0
   63.8415   33.1525   46.9199 H   0  0  0  0  0  0  0  0  0  0  0  0
   64.0965   31.4288   47.4596 H   0  0  0  0  0  0  0  0  0  0  0  0
   59.7515   31.2355   47.8453 H   0  0  0  0  0  0  0  0  0  0  0  0
   57.6947   30.3048   46.7901 H   0  0  0  0  0  0  0  0  0  0  0  0
  1  2  1  0
  2  3  1  0
  3  4  2  0
  4  5  1  0
  5  6  2  0
  6  7  1  0
  7  8  1  0
  8  9  1  0
  9 10  2  0
  9 11  1  0
 11 12  1  0
 12 13  2  0
 13 14  1  0
 14 15  2  0
 15 16  1  0
 16 17  2  0
 16 18  2  0
 16 19  1  0
 19 20  1  0
 20 21  1  0
 21 22  1  0
 22 23  1  0
 23 24  1  0
 15 25  1  0
 25 26  2  0
  6  2  1  0
 26 12  1  0
 24 19  1  0
  1 27  1  0
  1 28  1  0
  1 29  1  0
  3 30  1  0
  8 31  1  0
  8 32  1  0
 13 33  1  0
 14 34  1  0
 20 35  1  0
 20 36  1  0
 21 37  1  0
 21 38  1  0
 22 39  1  0
 22 40  1  0
 23 41  1  0
 23 42  1  0
 24 43  1  0
 24 44  1  0
 25 45  1  0
 26 46  1  0
M  CHG  2   3   1  11  -1
M  END
>  <UniqueID>  (44) 
41

>  <SMILES>  (44) 
Cn1[nH+]nnc1SCC(=O)[N-]c1ccc(S(=O)(=O)N2CCCCC2)cc1

>  <Energy>  (44) 
90.28208610179611

>  <Genealogy>  (44) 
Cn1[nH+]nnc1SCC(=O)[N-]c1ccc(S(=O)(=O)N2CCCCC2)cc1 (protonated)
Cn1[nH+]nnc1SCC(=O)[N-]c1ccc(S(=O)(=O)N2CCCCC2)cc1 (3D coordinates assigned)
Cn1[nH+]nnc1SCC(=O)[N-]c1ccc(S(=O)(=O)N2CCCCC2)cc1 (nonaromatic ring conformer: 90.28208610179611 kcal/mol)

>  <smiles>  (44) 
Cn1nnnc1SCC(=O)Nc1ccc(S(=O)(=O)N2CCCCC2)cc1

>  <score_type>  (44) 
oracle

>  <origin>  (44) 
adg

>  <m_score__min__energy>  (44) 
-9.9900000000000002

>  <m_primary>  (44) 
energy

$$$$
44:0
     RDKit          3D

 52 54  0  0  0  0  0  0  0  0999 V2000
   56.9250   24.0030   47.6790 H   0  0  0  0  0  0  0  0  0  0  0  0
   57.1700   23.1300   47.2310 O   0  0  0  0  0  0  0  0  0  0  0  0
   57.0640   22.9190   45.8510 C   0  0  0  0  0  0  0  0  0  0  0  0
   57.9900   22.0610   45.2430 C   0  0  0  0  0  0  0  0  0  0  0  0
   58.7759   21.5885   45.8505 H   0  0  0  0  0  0  0  0  0  0  0  0
   57.9240   21.8000   43.8710 C   0  0  0  0  0  0  0  0  0  0  0  0
   58.6596   21.1299   43.4021 H   0  0  0  0  0  0  0  0  0  0  0  0
   56.9230   22.3910   43.0960 C   0  0  0  0  0  0  0  0  0  0  0  0
   56.8667   22.1799   42.0179 H   0  0  0  0  0  0  0  0  0  0  0  0
   55.9920   23.2510   43.6890 C   0  0  0  0  0  0  0  0  0  0  0  0
   55.2025   23.7076   43.0740 H   0  0  0  0  0  0  0  0  0  0  0  0
   56.0570   23.5370   45.0660 C   0  0  0  0  0  0  0  0  0  0  0  0
   55.0540   24.4930   45.6730 C   0  0  0  0  0  0  0  0  0  0  0  0
   54.2299   23.9180   46.1204 H   0  0  0  0  0  0  0  0  0  0  0  0
   54.6679   25.1544   44.8834 H   0  0  0  0  0  0  0  0  0  0  0  0
   55.6890   25.3080   46.7060 N   0  0  0  0  0  0  0  0  0  0  0  0
   56.8820   26.0890   46.5710 C   0  0  0  0  0  0  0  0  0  0  0  0
   57.7850   25.9670   47.4410 O   0  0  0  0  0  0  0  0  0  0  0  0
   57.0790   27.0500   45.4750 C   0  0  0  0  0  0  0  0  0  0  0  0
   56.3190   28.0940   45.2540 O   0  0  0  0  0  0  0  0  0  0  0  0
   56.8060   28.7590   44.2320 C   0  0  0  0  0  0  0  0  0  0  0  0
   56.2400   30.0100   43.7060 C   0  0  0  0  0  0  0  0  0  0  0  0
   55.2625   29.9893   43.2020 H   0  0  0  0  0  0  0  0  0  0  0  0
   56.8900   31.1730   43.8280 C   0  0  0  0  0  0  0  0  0  0  0  0
   56.7243   31.9522   43.0694 H   0  0  0  0  0  0  0  0  0  0  0  0
   57.8170   31.4520   44.9350 C   0  0  0  0  0  0  0  0  0  0  0  0
   58.9920   30.9930   44.9240 O   0  0  0  0  0  0  0  0  0  0  0  0
   57.3640   32.2540   46.0280 N   0  0  0  0  0  0  0  0  0  0  0  0
   58.2440   33.0600   46.8710 C   0  0  0  0  0  0  0  0  0  0  0  0
   57.6470   33.5858   47.6307 H   0  0  0  0  0  0  0  0  0  0  0  0
   58.9360   34.1630   46.0420 C   0  0  0  0  0  0  0  0  0  0  0  0
   59.6695   33.6829   45.3775 H   0  0  0  0  0  0  0  0  0  0  0  0
   58.1381   34.6892   45.4974 H   0  0  0  0  0  0  0  0  0  0  0  0
   59.6710   35.2310   46.8770 C   0  0  0  0  0  0  0  0  0  0  0  0
   60.2164   35.9002   46.1953 H   0  0  0  0  0  0  0  0  0  0  0  0
   58.9179   35.7812   47.4602 H   0  0  0  0  0  0  0  0  0  0  0  0
   60.6730   34.6070   47.8670 C   0  0  0  0  0  0  0  0  0  0  0  0
   61.3937   35.3837   48.1626 H   0  0  0  0  0  0  0  0  0  0  0  0
   60.0824   34.2258   48.7131 H   0  0  0  0  0  0  0  0  0  0  0  0
   61.4610   33.4070   47.3040 C   0  0  0  0  0  0  0  0  0  0  0  0
   61.9039   33.7153   46.3454 H   0  0  0  0  0  0  0  0  0  0  0  0
   62.1981   33.1472   48.0781 H   0  0  0  0  0  0  0  0  0  0  0  0
   60.6520   32.1260   47.0570 C   0  0  0  0  0  0  0  0  0  0  0  0
   60.5748   31.9712   45.9707 H   0  0  0  0  0  0  0  0  0  0  0  0
   61.1871   31.3117   47.5675 H   0  0  0  0  0  0  0  0  0  0  0  0
   59.2250   32.1540   47.6440 C   0  0  0  0  0  0  0  0  0  0  0  0
   58.8277   31.1283   47.6356 H   0  0  0  0  0  0  0  0  0  0  0  0
   59.3075   32.5691   48.6593 H   0  0  0  0  0  0  0  0  0  0  0  0
   57.9340   28.1270   43.7510 C   0  0  0  0  0  0  0  0  0  0  0  0
   58.5597   28.4395   42.9020 H   0  0  0  0  0  0  0  0  0  0  0  0
   58.1140   27.0220   44.5560 C   0  0  0  0  0  0  0  0  0  0  0  0
   58.9155   26.2721   44.4829 H   0  0  0  0  0  0  0  0  0  0  0  0
  1  2  1  0
  2  3  1  0
  3  4  2  0
  4  5  1  0
  4  6  1  0
  6  7  1  0
  6  8  2  0
  8  9  1  0
  8 10  1  0
 10 11  1  0
 10 12  2  0
 12 13  1  0
 13 14  1  0
 13 15  1  0
 13 16  1  0
 16 17  1  0
 17 18  2  0
 17 19  1  0
 19 20  1  0
 20 21  1  0
 21 22  1  0
 22 23  1  0
 22 24  2  0
 24 25  1  0
 24 26  1  0
 26 27  2  0
 26 28  1  0
 28 29  1  0
 29 30  1  0
 29 31  1  0
 31 32  1  0
 31 33  1  0
 31 34  1  0
 34 35  1  0
 34 36  1  0
 34 37  1  0
 37 38  1  0
 37 39  1  0
 37 40  1  0
 40 41  1  0
 40 42  1  0
 40 43  1  0
 43 44  1  0
 43 45  1  0
 43 46  1  0
 46 47  1  0
 46 48  1  0
 21 49  2  0
 49 50  1  0
 49 51  1  0
 51 52  1  0
 12  3  1  0
 51 19  2  0
 46 29  1  0
M  CHG  2  16  -1  28  -1
M  END
>  <UniqueID>  (45) 
42

>  <SMILES>  (45) 
O=C(/C=C/c1ccc(C(=O)[N-]Cc2ccccc2O)o1)[N-]C1CCCCCC1

>  <Energy>  (45) 
76.67003981452031

>  <Genealogy>  (45) 
O=C(C=Cc1ccc(C(=O)[N-]Cc2ccccc2O)o1)[N-]C1CCCCCC1 (protonated)
O=C(/C=C/c1ccc(C(=O)[N-]Cc2ccccc2O)o1)[N-]C1CCCCCC1 (cis-trans isomerization)
O=C(/C=C/c1ccc(C(=O)[N-]Cc2ccccc2O)o1)[N-]C1CCCCCC1 (3D coordinates assigned)
O=C(/C=C/c1ccc(C(=O)[N-]Cc2ccccc2O)o1)[N-]C1CCCCCC1 (nonaromatic ring conformer: 76.67003981452031 kcal/mol)

>  <smiles>  (45) 
O=C(C=Cc1ccc(C(=O)NCc2ccccc2O)o1)NC1CCCCCC1

>  <score_type>  (45) 
oracle

>  <origin>  (45) 
adg

>  <m_score__min__energy>  (45) 
-10.109999999999999

>  <m_primary>  (45) 
energy

$$$$
45:0
     RDKit          3D

 63 66  0  0  0  0  0  0  0  0999 V2000
   57.3950   30.3800   43.5980 C   0  0  0  0  0  0  0  0  0  0  0  0
   57.6710   29.4800   44.7710 C   0  0  0  0  0  0  0  0  0  0  0  0
   57.0060   28.2490   44.8470 C   0  0  0  0  0  0  0  0  0  0  0  0
   57.2450   27.3720   45.9110 C   0  0  0  0  0  0  0  0  0  0  0  0
   56.3540   25.8500   46.0260 S   0  0  0  0  0  0  0  0  0  0  0  0
   56.6610   25.1940   47.3440 O   0  0  0  0  0  0  0  0  0  0  0  0
   54.8780   26.1340   45.9800 O   0  0  0  0  0  0  0  0  0  0  0  0
   56.7760   24.7600   44.7260 N   0  0  0  0  0  0  0  0  0  0  0  0
   55.5830   24.0890   44.1650 C   0  0  0  0  0  0  0  0  0  0  0  0
   55.4710   22.6250   44.6280 C   0  0  0  0  0  0  0  0  0  0  0  0
   56.6010   21.8370   44.2790 O   0  0  0  0  0  0  0  0  0  0  0  0
   57.8260   22.5610   44.2720 C   0  0  0  0  0  0  0  0  0  0  0  0
   57.8180   23.8120   45.1650 C   0  0  0  0  0  0  0  0  0  0  0  0
   58.1870   27.7110   46.8880 C   0  0  0  0  0  0  0  0  0  0  0  0
   58.8670   28.9360   46.8280 C   0  0  0  0  0  0  0  0  0  0  0  0
   59.8370   29.2940   47.9200 C   0  0  0  0  0  0  0  0  0  0  0  0
   58.5670   29.8510   45.7990 C   0  0  0  0  0  0  0  0  0  0  0  0
   59.1830   31.1120   45.8050 O   0  0  0  0  0  0  0  0  0  0  0  0
   58.5050   32.3160   45.4460 C   0  0  0  0  0  0  0  0  0  0  0  0
   58.5100   33.2880   46.5930 C   0  0  0  0  0  0  0  0  0  0  0  0
   57.4190   33.7850   46.9840 O   0  0  0  0  0  0  0  0  0  0  0  0
   59.7270   33.6240   47.2780 N   0  0  0  0  0  0  0  0  0  0  0  0
   59.7280   33.6510   48.7490 C   0  0  0  0  0  0  0  0  0  0  0  0
   61.0840   34.1020   49.3020 C   0  0  0  0  0  0  0  0  0  0  0  0
   62.1700   33.4300   48.5720 N   0  0  0  0  0  0  0  0  0  0  0  0
   63.2940   32.8670   49.2720 C   0  0  0  0  0  0  0  0  0  0  0  0
   64.5300   33.4100   49.1070 N   0  0  0  0  0  0  0  0  0  0  0  0
   65.6140   32.9030   49.7460 C   0  0  0  0  0  0  0  0  0  0  0  0
   65.4720   31.8020   50.5870 C   0  0  0  0  0  0  0  0  0  0  0  0
   64.2040   31.2430   50.7400 C   0  0  0  0  0  0  0  0  0  0  0  0
   63.1410   31.7760   50.0790 N   0  0  0  0  0  0  0  0  0  0  0  0
   62.1720   33.4310   47.1020 C   0  0  0  0  0  0  0  0  0  0  0  0
   60.9080   34.0860   46.5350 C   0  0  0  0  0  0  0  0  0  0  0  0
   57.0906   31.3727   43.9612 H   0  0  0  0  0  0  0  0  0  0  0  0
   58.3050   30.4761   42.9875 H   0  0  0  0  0  0  0  0  0  0  0  0
   56.5876   29.9494   42.9875 H   0  0  0  0  0  0  0  0  0  0  0  0
   56.2883   27.9689   44.0618 H   0  0  0  0  0  0  0  0  0  0  0  0
   54.6841   24.6335   44.4898 H   0  0  0  0  0  0  0  0  0  0  0  0
   55.6768   24.0916   43.0690 H   0  0  0  0  0  0  0  0  0  0  0  0
   55.3611   22.6124   45.7224 H   0  0  0  0  0  0  0  0  0  0  0  0
   54.5993   22.1881   44.1188 H   0  0  0  0  0  0  0  0  0  0  0  0
   58.6255   21.8914   44.6219 H   0  0  0  0  0  0  0  0  0  0  0  0
   57.9849   22.9076   43.2402 H   0  0  0  0  0  0  0  0  0  0  0  0
   57.6186   23.5123   46.2044 H   0  0  0  0  0  0  0  0  0  0  0  0
   58.7984   24.3053   45.0912 H   0  0  0  0  0  0  0  0  0  0  0  0
   58.3961   27.0108   47.7102 H   0  0  0  0  0  0  0  0  0  0  0  0
   59.3670   29.1205   48.8993 H   0  0  0  0  0  0  0  0  0  0  0  0
   60.7377   28.6691   47.8297 H   0  0  0  0  0  0  0  0  0  0  0  0
   60.1158   30.3543   47.8297 H   0  0  0  0  0  0  0  0  0  0  0  0
   59.0116   32.7726   44.5829 H   0  0  0  0  0  0  0  0  0  0  0  0
   57.4628   32.0737   45.1909 H   0  0  0  0  0  0  0  0  0  0  0  0
   58.9512   34.3492   49.0941 H   0  0  0  0  0  0  0  0  0  0  0  0
   59.5288   32.6322   49.1128 H   0  0  0  0  0  0  0  0  0  0  0  0
   61.1830   35.1910   49.1822 H   0  0  0  0  0  0  0  0  0  0  0  0
   61.1465   33.8385   50.3681 H   0  0  0  0  0  0  0  0  0  0  0  0
   66.6035   33.3608   49.6001 H   0  0  0  0  0  0  0  0  0  0  0  0
   66.3397   31.3834   51.1179 H   0  0  0  0  0  0  0  0  0  0  0  0
   64.0630   30.3708   51.3953 H   0  0  0  0  0  0  0  0  0  0  0  0
   62.2090   31.3160   50.1820 H   0  0  0  0  0  0  0  0  0  0  0  0
   63.0520   33.9873   46.7469 H   0  0  0  0  0  0  0  0  0  0  0  0
   62.2014   32.3866   46.7580 H   0  0  0  0  0  0  0  0  0  0  0  0
   60.9915   35.1790   46.6265 H   0  0  0  0  0  0  0  0  0  0  0  0
   60.8006   33.8078   45.4762 H   0  0  0  0  0  0  0  0  0  0  0  0
  1  2  1  0
  2  3  2  0
  3  4  1  0
  4  5  1  0
  5  6  2  0
  5  7  2  0
  5  8  1  0
  8  9  1  0
  9 10  1  0
 10 11  1  0
 11 12  1  0
 12 13  1  0
  4 14  2  0
 14 15  1  0
 15 16  1  0
 15 17  2  0
 17 18  1  0
 18 19  1  0
 19 20  1  0
 20 21  2  0
 20 22  1  0
 22 23  1  0
 23 24  1  0
 24 25  1  0
 25 26  1  0
 26 27  2  0
 27 28  1  0
 28 29  2  0
 29 30  1  0
 30 31  2  0
 25 32  1  0
 32 33  1  0
 17  2  1  0
 33 22  1  0
 13  8  1  0
 31 26  1  0
  1 34  1  0
  1 35  1  0
  1 36  1  0
  3 37  1  0
  9 38  1  0
  9 39  1  0
 10 40  1  0
 10 41  1  0
 12 42  1  0
 12 43  1  0
 13 44  1  0
 13 45  1  0
 14 46  1  0
 16 47  1  0
 16 48  1  0
 16 49  1  0
 19 50  1  0
 19 51  1  0
 23 52  1  0
 23 53  1  0
 24 54  1  0
 24 55  1  0
 28 56  1  0
 29 57  1  0
 30 58  1  0
 31 59  1  0
 32 60  1  0
 32 61  1  0
 33 62  1  0
 33 63  1  0
M  CHG  1  31   1
M  END
>  <UniqueID>  (46) 
43

>  <SMILES>  (46) 
Cc1cc(S(=O)(=O)N2CCOCC2)cc(C)c1OCC(=O)N1CCN(c2nccc[nH+]2)CC1

>  <Energy>  (46) 
87.9881823922613

>  <Genealogy>  (46) 
Cc1cc(S(=O)(=O)N2CCOCC2)cc(C)c1OCC(=O)N1CCN(c2nccc[nH+]2)CC1 (protonated)
Cc1cc(S(=O)(=O)N2CCOCC2)cc(C)c1OCC(=O)N1CCN(c2nccc[nH+]2)CC1 (3D coordinates assigned)
Cc1cc(S(=O)(=O)N2CCOCC2)cc(C)c1OCC(=O)N1CCN(c2nccc[nH+]2)CC1 (nonaromatic ring conformer: 87.9881823922613 kcal/mol)

>  <smiles>  (46) 
Cc1cc(S(=O)(=O)N2CCOCC2)cc(C)c1OCC(=O)N1CCN(c2ncccn2)CC1

>  <score_type>  (46) 
oracle

>  <origin>  (46) 
adg

>  <m_score__min__energy>  (46) 
-8.6899999999999995

>  <m_primary>  (46) 
energy

$$$$
46:0
     RDKit          3D

 58 61  0  0  0  0  0  0  0  0999 V2000
   55.1530   23.7890   43.7140 C   0  0  0  0  0  0  0  0  0  0  0  0
   56.4380   23.1380   44.1450 C   0  0  0  0  0  0  0  0  0  0  0  0
   56.5610   21.7400   44.0710 C   0  0  0  0  0  0  0  0  0  0  0  0
   57.7460   21.1120   44.4600 C   0  0  0  0  0  0  0  0  0  0  0  0
   58.8230   21.8710   44.9190 C   0  0  0  0  0  0  0  0  0  0  0  0
   58.7210   23.2630   44.9810 C   0  0  0  0  0  0  0  0  0  0  0  0
   57.5400   23.9060   44.5840 C   0  0  0  0  0  0  0  0  0  0  0  0
   57.4680   25.3370   44.6410 N   0  0  0  0  0  0  0  0  0  0  0  0
   56.8690   25.9740   45.8200 C   0  0  0  0  0  0  0  0  0  0  0  0
   56.5940   27.4620   45.5780 C   0  0  0  0  0  0  0  0  0  0  0  0
   57.7610   28.1040   44.9500 N   0  0  0  0  0  0  0  0  0  0  0  0
   58.1850   29.4230   45.3500 C   0  0  0  0  0  0  0  0  0  0  0  0
   57.8250   30.5120   44.6310 N   0  0  0  0  0  0  0  0  0  0  0  0
   58.2010   31.7670   44.9880 C   0  0  0  0  0  0  0  0  0  0  0  0
   57.7410   32.9070   44.1240 C   0  0  0  0  0  0  0  0  0  0  0  0
   58.9700   31.9690   46.1640 C   0  0  0  0  0  0  0  0  0  0  0  0
   59.3740   30.8080   46.8730 C   0  0  0  0  0  0  0  0  0  0  0  0
   58.9610   29.5850   46.4500 N   0  0  0  0  0  0  0  0  0  0  0  0
   60.2530   30.8510   48.0850 C   0  0  0  0  0  0  0  0  0  0  0  0
   61.6270   31.4600   47.7700 C   0  0  0  0  0  0  0  0  0  0  0  0
   61.6140   32.9250   47.5800 N   0  0  0  0  0  0  0  0  0  0  0  0
   63.0100   33.7660   48.2190 S   0  0  0  0  0  0  0  0  0  0  0  0
   64.1710   32.6850   49.0360 C   0  0  0  0  0  0  0  0  0  0  0  0
   63.7210   34.4410   47.0800 O   0  0  0  0  0  0  0  0  0  0  0  0
   62.5640   34.8190   49.1940 O   0  0  0  0  0  0  0  0  0  0  0  0
   60.3260   33.6240   47.7270 C   0  0  0  0  0  0  0  0  0  0  0  0
   59.3280   33.3960   46.5740 C   0  0  0  0  0  0  0  0  0  0  0  0
   58.4530   27.4360   43.8340 C   0  0  0  0  0  0  0  0  0  0  0  0
   57.7710   26.1210   43.4420 C   0  0  0  0  0  0  0  0  0  0  0  0
   54.5745   24.0821   44.6025 H   0  0  0  0  0  0  0  0  0  0  0  0
   55.3781   24.6818   43.1121 H   0  0  0  0  0  0  0  0  0  0  0  0
   54.5663   23.0794   43.1121 H   0  0  0  0  0  0  0  0  0  0  0  0
   55.7179   21.1362   43.7041 H   0  0  0  0  0  0  0  0  0  0  0  0
   57.8305   20.0167   44.4044 H   0  0  0  0  0  0  0  0  0  0  0  0
   59.7526   21.3733   45.2321 H   0  0  0  0  0  0  0  0  0  0  0  0
   59.5722   23.8580   45.3434 H   0  0  0  0  0  0  0  0  0  0  0  0
   55.9204   25.4692   46.0553 H   0  0  0  0  0  0  0  0  0  0  0  0
   57.5783   25.8865   46.6562 H   0  0  0  0  0  0  0  0  0  0  0  0
   55.7224   27.5664   44.9151 H   0  0  0  0  0  0  0  0  0  0  0  0
   56.3949   27.9498   46.5436 H   0  0  0  0  0  0  0  0  0  0  0  0
   57.4056   33.7382   44.7617 H   0  0  0  0  0  0  0  0  0  0  0  0
   58.5732   33.2448   43.4889 H   0  0  0  0  0  0  0  0  0  0  0  0
   56.9074   32.5726   43.4889 H   0  0  0  0  0  0  0  0  0  0  0  0
   59.7627   31.4593   48.8593 H   0  0  0  0  0  0  0  0  0  0  0  0
   60.4074   29.8189   48.4329 H   0  0  0  0  0  0  0  0  0  0  0  0
   62.3063   31.2268   48.6032 H   0  0  0  0  0  0  0  0  0  0  0  0
   61.9543   31.0217   46.8157 H   0  0  0  0  0  0  0  0  0  0  0  0
   64.0620   32.7865   50.1259 H   0  0  0  0  0  0  0  0  0  0  0  0
   63.9713   31.6437   48.7429 H   0  0  0  0  0  0  0  0  0  0  0  0
   65.1954   32.9584   48.7429 H   0  0  0  0  0  0  0  0  0  0  0  0
   59.8550   33.2799   48.6596 H   0  0  0  0  0  0  0  0  0  0  0  0
   60.5570   34.6995   47.7267 H   0  0  0  0  0  0  0  0  0  0  0  0
   58.3890   33.8924   46.8600 H   0  0  0  0  0  0  0  0  0  0  0  0
   59.8529   33.7951   45.6936 H   0  0  0  0  0  0  0  0  0  0  0  0
   58.4550   28.1085   42.9635 H   0  0  0  0  0  0  0  0  0  0  0  0
   59.4779   27.2040   44.1592 H   0  0  0  0  0  0  0  0  0  0  0  0
   56.8366   26.3412   42.9050 H   0  0  0  0  0  0  0  0  0  0  0  0
   58.4464   25.5432   42.7940 H   0  0  0  0  0  0  0  0  0  0  0  0
  1  2  1  0
  2  3  2  0
  3  4  1  0
  4  5  2  0
  5  6  1  0
  6  7  2  0
  7  8  1  0
  8  9  1  0
  9 10  1  0
 10 11  1  0
 11 12  1  0
 12 13  2  0
 13 14  1  0
 14 15  1  0
 14 16  2  0
 16 17  1  0
 17 18  2  0
 17 19  1  0
 19 20  1  0
 20 21  1  0
 21 22  1  0
 22 23  1  0
 22 24  2  0
 22 25  2  0
 21 26  1  0
 26 27  1  0
 11 28  1  0
 28 29  1  0
  7  2  1  0
 29  8  1  0
 18 12  1  0
 27 16  1  0
  1 30  1  0
  1 31  1  0
  1 32  1  0
  3 33  1  0
  4 34  1  0
  5 35  1  0
  6 36  1  0
  9 37  1  0
  9 38  1  0
 10 39  1  0
 10 40  1  0
 15 41  1  0
 15 42  1  0
 15 43  1  0
 19 44  1  0
 19 45  1  0
 20 46  1  0
 20 47  1  0
 23 48  1  0
 23 49  1  0
 23 50  1  0
 26 51  1  0
 26 52  1  0
 27 53  1  0
 27 54  1  0
 28 55  1  0
 28 56  1  0
 29 57  1  0
 29 58  1  0
M  END
>  <UniqueID>  (47) 
44

>  <SMILES>  (47) 
Cc1ccccc1N1CCN(c2nc(C)c3c(n2)CCN(S(C)(=O)=O)CC3)CC1

>  <Energy>  (47) 
79.22430920039164

>  <Genealogy>  (47) 
Cc1ccccc1N1CCN(c2nc(C)c3c(n2)CCN(S(C)(=O)=O)CC3)CC1 (3D coordinates assigned)
Cc1ccccc1N1CCN(c2nc(C)c3c(n2)CCN(S(C)(=O)=O)CC3)CC1 (nonaromatic ring conformer: 79.22430920039164 kcal/mol)

>  <smiles>  (47) 
Cc1ccccc1N1CCN(c2nc(C)c3c(n2)CCN(S(C)(=O)=O)CC3)CC1

>  <score_type>  (47) 
oracle

>  <origin>  (47) 
adg

>  <m_score__min__energy>  (47) 
-7.0300000000000002

>  <m_primary>  (47) 
energy

$$$$
47:0
     RDKit          3D

 34 35  0  0  0  0  0  0  0  0999 V2000
   59.2580   35.0720   45.5510 C   0  0  0  0  0  0  0  0  0  0  0  0
   58.9850   33.6000   45.6390 C   0  0  0  0  0  0  0  0  0  0  0  0
   59.8050   32.7730   46.4140 C   0  0  0  0  0  0  0  0  0  0  0  0
   59.5010   31.4160   46.5270 C   0  0  0  0  0  0  0  0  0  0  0  0
   58.4120   30.8980   45.8980 N   0  0  0  0  0  0  0  0  0  0  0  0
   57.5890   31.6820   45.1300 C   0  0  0  0  0  0  0  0  0  0  0  0
   56.5250   31.2100   44.5440 N   0  0  0  0  0  0  0  0  0  0  0  0
   56.1910   29.8360   44.3000 C   0  0  0  0  0  0  0  0  0  0  0  0
   55.1440   29.3300   44.7880 O   0  0  0  0  0  0  0  0  0  0  0  0
   57.1440   28.9730   43.5320 C   0  0  0  0  0  0  0  0  0  0  0  0
   58.1800   28.5100   44.3950 O   0  0  0  0  0  0  0  0  0  0  0  0
   57.9640   27.5970   45.4330 C   0  0  0  0  0  0  0  0  0  0  0  0
   57.3940   27.9540   46.5000 O   0  0  0  0  0  0  0  0  0  0  0  0
   58.4850   26.2050   45.3030 C   0  0  0  0  0  0  0  0  0  0  0  0
   57.3510   25.2750   45.0060 C   0  0  0  0  0  0  0  0  0  0  0  0
   57.2590   24.4290   43.9080 C   0  0  0  0  0  0  0  0  0  0  0  0
   56.0390   23.7450   43.8430 C   0  0  0  0  0  0  0  0  0  0  0  0
   55.1640   24.0640   44.8730 C   0  0  0  0  0  0  0  0  0  0  0  0
   55.9070   25.2010   45.8650 S   0  0  0  0  0  0  0  0  0  0  0  0
   57.8600   33.0520   45.0110 C   0  0  0  0  0  0  0  0  0  0  0  0
   59.3358   35.4917   46.5648 H   0  0  0  0  0  0  0  0  0  0  0  0
   60.2023   35.2382   45.0118 H   0  0  0  0  0  0  0  0  0  0  0  0
   58.4361   35.5658   45.0118 H   0  0  0  0  0  0  0  0  0  0  0  0
   60.6826   33.1893   46.9303 H   0  0  0  0  0  0  0  0  0  0  0  0
   60.1469   30.7602   47.1293 H   0  0  0  0  0  0  0  0  0  0  0  0
   58.2080   29.8890   46.0620 H   0  0  0  0  0  0  0  0  0  0  0  0
   56.6020   28.1105   43.1168 H   0  0  0  0  0  0  0  0  0  0  0  0
   57.5879   29.5606   42.7148 H   0  0  0  0  0  0  0  0  0  0  0  0
   59.2183   26.1627   44.4842 H   0  0  0  0  0  0  0  0  0  0  0  0
   58.9693   25.9048   46.2439 H   0  0  0  0  0  0  0  0  0  0  0  0
   58.0620   24.3088   43.1659 H   0  0  0  0  0  0  0  0  0  0  0  0
   55.7963   23.0223   43.0500 H   0  0  0  0  0  0  0  0  0  0  0  0
   54.1571   23.6448   45.0157 H   0  0  0  0  0  0  0  0  0  0  0  0
   57.1889   33.6966   44.4243 H   0  0  0  0  0  0  0  0  0  0  0  0
  1  2  1  0
  2  3  1  0
  3  4  2  0
  4  5  1  0
  5  6  1  0
  6  7  2  3
  7  8  1  0
  8  9  2  0
  8 10  1  0
 10 11  1  0
 11 12  1  0
 12 13  2  0
 12 14  1  0
 14 15  1  0
 15 16  2  0
 16 17  1  0
 17 18  2  0
 18 19  1  0
  6 20  1  0
 20  2  2  0
 19 15  1  0
  1 21  1  0
  1 22  1  0
  1 23  1  0
  3 24  1  0
  4 25  1  0
  5 26  1  0
 10 27  1  0
 10 28  1  0
 14 29  1  0
 14 30  1  0
 16 31  1  0
 17 32  1  0
 18 33  1  0
 20 34  1  0
M  END
>  <UniqueID>  (48) 
45

>  <SMILES>  (48) 
Cc1cc[nH]c(=NC(=O)COC(=O)Cc2cccs2)c1

>  <Energy>  (48) 
57.362175372564465

>  <Genealogy>  (48) 
Cc1cc[nH]c(=NC(=O)COC(=O)Cc2cccs2)c1 (3D coordinates assigned)
Cc1cc[nH]c(=NC(=O)COC(=O)Cc2cccs2)c1 (optimized conformer: 57.362175372564465 kcal/mol)

>  <smiles>  (48) 
Cc1cc[nH]c(=NC(=O)COC(=O)Cc2cccs2)c1

>  <score_type>  (48) 
oracle

>  <origin>  (48) 
adg

>  <m_score__min__energy>  (48) 
-7.1200000000000001

>  <m_primary>  (48) 
energy

$$$$
48:0
     RDKit          3D

 52 55  0  0  0  0  0  0  0  0999 V2000
   58.1740   33.6800   44.4840 H   0  0  0  0  0  0  0  0  0  0  0  0
   57.3510   33.0450   44.3880 N   0  0  0  0  0  0  0  0  0  0  0  0
   57.4860   31.7570   43.7930 C   0  0  0  0  0  0  0  0  0  0  0  0
   57.9470   31.6550   42.6240 O   0  0  0  0  0  0  0  0  0  0  0  0
   57.1630   30.5420   44.5690 C   0  0  0  0  0  0  0  0  0  0  0  0
   55.8490   30.0620   44.4690 C   0  0  0  0  0  0  0  0  0  0  0  0
   55.0769   30.6873   43.9970 H   0  0  0  0  0  0  0  0  0  0  0  0
   55.5190   28.8390   44.9460 N   0  0  0  0  0  0  0  0  0  0  0  0
   56.4290   28.0260   45.5390 C   0  0  0  0  0  0  0  0  0  0  0  0
   56.0340   26.7570   45.9900 C   0  0  0  0  0  0  0  0  0  0  0  0
   54.7170   26.3410   45.8220 O   0  0  0  0  0  0  0  0  0  0  0  0
   56.9570   25.9030   46.6070 C   0  0  0  0  0  0  0  0  0  0  0  0
   56.5080   24.6420   47.0380 O   0  0  0  0  0  0  0  0  0  0  0  0
   56.4110   23.4700   46.2290 C   0  0  0  0  0  0  0  0  0  0  0  0
   56.8502   22.6207   46.7729 H   0  0  0  0  0  0  0  0  0  0  0  0
   55.3491   23.2826   46.0116 H   0  0  0  0  0  0  0  0  0  0  0  0
   57.1610   23.6540   44.8900 C   0  0  0  0  0  0  0  0  0  0  0  0
   57.8026   24.5414   44.9944 H   0  0  0  0  0  0  0  0  0  0  0  0
   56.1910   23.9370   43.7120 C   0  0  0  0  0  0  0  0  0  0  0  0
   55.1939   24.1530   44.1233 H   0  0  0  0  0  0  0  0  0  0  0  0
   56.5973   24.7905   43.1495 H   0  0  0  0  0  0  0  0  0  0  0  0
   56.0720   22.7560   42.7330 C   0  0  0  0  0  0  0  0  0  0  0  0
   55.1526   22.8726   42.1404 H   0  0  0  0  0  0  0  0  0  0  0  0
   56.9573   22.7548   42.0801 H   0  0  0  0  0  0  0  0  0  0  0  0
   56.0210   21.4760   43.4480 N   0  0  0  0  0  0  0  0  0  0  0  0
   55.2100   21.4940   44.1100 H   0  0  0  0  0  0  0  0  0  0  0  0
   57.2600   21.1870   44.1980 C   0  0  0  0  0  0  0  0  0  0  0  0
   56.9892   20.6467   45.1171 H   0  0  0  0  0  0  0  0  0  0  0  0
   57.9036   20.5950   43.5307 H   0  0  0  0  0  0  0  0  0  0  0  0
   58.0660   22.4440   44.5940 C   0  0  0  0  0  0  0  0  0  0  0  0
   58.6561   22.2160   45.4939 H   0  0  0  0  0  0  0  0  0  0  0  0
   58.7120   22.7090   43.7440 H   0  0  0  0  0  0  0  0  0  0  0  0
   58.2840   26.3350   46.7810 C   0  0  0  0  0  0  0  0  0  0  0  0
   59.0141   25.6735   47.2702 H   0  0  0  0  0  0  0  0  0  0  0  0
   58.6810   27.5980   46.3370 C   0  0  0  0  0  0  0  0  0  0  0  0
   59.7216   27.9233   46.4827 H   0  0  0  0  0  0  0  0  0  0  0  0
   57.7630   28.4610   45.7040 C   0  0  0  0  0  0  0  0  0  0  0  0
   58.1310   29.7600   45.2690 C   0  0  0  0  0  0  0  0  0  0  0  0
   59.3340   30.1880   45.5660 N   0  0  0  0  0  0  0  0  0  0  0  0
   59.7410   31.2170   46.4790 C   0  0  0  0  0  0  0  0  0  0  0  0
   59.5620   32.5590   46.1180 C   0  0  0  0  0  0  0  0  0  0  0  0
   59.0855   32.8060   45.1578 H   0  0  0  0  0  0  0  0  0  0  0  0
   59.9850   33.5910   46.9700 C   0  0  0  0  0  0  0  0  0  0  0  0
   59.7560   34.9950   46.5810 C   0  0  0  0  0  0  0  0  0  0  0  0
   60.0104   35.8002   47.2860 H   0  0  0  0  0  0  0  0  0  0  0  0
   59.2740   35.2870   45.4550 O   0  0  0  0  0  0  0  0  0  0  0  0
   60.6220   33.2670   48.1790 C   0  0  0  0  0  0  0  0  0  0  0  0
   60.9457   34.0680   48.8599 H   0  0  0  0  0  0  0  0  0  0  0  0
   60.8460   31.9300   48.5200 C   0  0  0  0  0  0  0  0  0  0  0  0
   61.3568   31.6836   49.4625 H   0  0  0  0  0  0  0  0  0  0  0  0
   60.4240   30.9050   47.6690 C   0  0  0  0  0  0  0  0  0  0  0  0
   60.6950   29.5830   48.0030 O   0  0  0  0  0  0  0  0  0  0  0  0
  1  2  1  0
  2  3  1  0
  3  4  2  0
  3  5  1  0
  5  6  2  0
  6  7  1  0
  6  8  1  0
  8  9  1  0
  9 10  2  0
 10 11  1  0
 10 12  1  0
 12 13  1  0
 13 14  1  0
 14 15  1  0
 14 16  1  0
 14 17  1  0
 17 18  1  0
 17 19  1  0
 19 20  1  0
 19 21  1  0
 19 22  1  0
 22 23  1  0
 22 24  1  0
 22 25  1  0
 25 26  1  0
 25 27  1  0
 27 28  1  0
 27 29  1  0
 27 30  1  0
 30 31  1  0
 30 32  1  0
 12 33  2  0
 33 34  1  0
 33 35  1  0
 35 36  1  0
 35 37  2  0
 37 38  1  0
 38 39  2  0
 39 40  1  0
 40 41  2  0
 41 42  1  0
 41 43  1  0
 43 44  1  0
 44 45  1  0
 44 46  2  0
 43 47  2  0
 47 48  1  0
 47 49  1  0
 49 50  1  0
 49 51  2  0
 51 52  1  0
 38  5  1  0
 51 40  1  0
 37  9  1  0
 30 17  1  0
M  CHG  4   2  -1   8  -1  11  -1  52  -1
M  END
>  <UniqueID>  (49) 
46

>  <SMILES>  (49) 
[NH-]C(=O)c1c[n-]c2c([O-])c(OCC3CCNCC3)ccc2/c1=N/c1cc(C=O)ccc1[O-]

>  <Energy>  (49) 
88.29622573819583

>  <Genealogy>  (49) 
[NH-]C(=O)c1c[n-]c2c([O-])c(OCC3CCNCC3)ccc2c1=Nc1cc(C=O)ccc1[O-] (protonated)
[NH-]C(=O)c1c[n-]c2c([O-])c(OCC3CCNCC3)ccc2/c1=N/c1cc(C=O)ccc1[O-] (cis-trans isomerization)
[NH-]C(=O)c1c[n-]c2c([O-])c(OCC3CCNCC3)ccc2/c1=N/c1cc(C=O)ccc1[O-] (3D coordinates assigned)
[NH-]C(=O)c1c[n-]c2c([O-])c(OCC3CCNCC3)ccc2/c1=N/c1cc(C=O)ccc1[O-] (nonaromatic ring conformer: 88.29622573819583 kcal/mol)

>  <smiles>  (49) 
NC(=O)c1c[nH]c2c(O)c(OCC3CCNCC3)ccc2c1=Nc1cc(C=O)ccc1O

>  <score_type>  (49) 
oracle

>  <origin>  (49) 
adg

>  <m_score__min__energy>  (49) 
-16.75

>  <m_primary>  (49) 
energy

$$$$
49:0
     RDKit          3D

 45 47  0  0  0  0  0  0  0  0999 V2000
   59.6010   32.5100   46.6230 C   0  0  0  0  0  0  0  0  0  0  0  0
   60.8480   32.7700   47.3370 N   0  0  0  0  0  0  0  0  0  0  0  0
   61.2170   33.9550   47.8620 C   0  0  0  0  0  0  0  0  0  0  0  0
   62.4750   33.8500   48.4200 C   0  0  0  0  0  0  0  0  0  0  0  0
   62.8950   32.5510   48.2150 C   0  0  0  0  0  0  0  0  0  0  0  0
   61.8770   31.9150   47.5280 C   0  0  0  0  0  0  0  0  0  0  0  0
   61.8980   30.4730   47.1010 C   0  0  0  0  0  0  0  0  0  0  0  0
   60.5550   29.8660   47.1910 N   0  0  0  0  0  0  0  0  0  0  0  0
   60.4350   29.0730   48.4320 C   0  0  0  0  0  0  0  0  0  0  0  0
   59.9370   29.9230   49.5740 C   0  0  0  0  0  0  0  0  0  0  0  0
   60.8470   30.6340   50.3730 C   0  0  0  0  0  0  0  0  0  0  0  0
   60.3890   31.4160   51.4360 C   0  0  0  0  0  0  0  0  0  0  0  0
   59.0230   31.4860   51.7180 C   0  0  0  0  0  0  0  0  0  0  0  0
   58.1080   30.7680   50.9410 C   0  0  0  0  0  0  0  0  0  0  0  0
   56.7490   30.8410   51.2370 O   0  0  0  0  0  0  0  0  0  0  0  0
   58.5650   29.9820   49.8740 C   0  0  0  0  0  0  0  0  0  0  0  0
   60.2230   28.8690   45.7820 S   0  0  0  0  0  0  0  0  0  0  0  0
   60.3400   29.6990   44.5340 O   0  0  0  0  0  0  0  0  0  0  0  0
   61.2420   27.7680   45.6860 O   0  0  0  0  0  0  0  0  0  0  0  0
   58.6100   28.1510   45.8410 C   0  0  0  0  0  0  0  0  0  0  0  0
   58.4240   26.8770   46.3990 C   0  0  0  0  0  0  0  0  0  0  0  0
   57.1470   26.3100   46.4490 C   0  0  0  0  0  0  0  0  0  0  0  0
   56.0490   27.0080   45.9340 C   0  0  0  0  0  0  0  0  0  0  0  0
   54.7820   26.4400   45.9870 O   0  0  0  0  0  0  0  0  0  0  0  0
   56.2310   28.2750   45.3660 C   0  0  0  0  0  0  0  0  0  0  0  0
   55.1440   28.9710   44.8490 O   0  0  0  0  0  0  0  0  0  0  0  0
   57.5090   28.8430   45.3170 C   0  0  0  0  0  0  0  0  0  0  0  0
   58.7915   32.3412   47.3484 H   0  0  0  0  0  0  0  0  0  0  0  0
   59.3528   33.3757   45.9914 H   0  0  0  0  0  0  0  0  0  0  0  0
   59.7194   31.6172   45.9914 H   0  0  0  0  0  0  0  0  0  0  0  0
   60.6064   34.8699   47.8479 H   0  0  0  0  0  0  0  0  0  0  0  0
   63.0351   34.6477   48.9299 H   0  0  0  0  0  0  0  0  0  0  0  0
   63.8503   32.1092   48.5348 H   0  0  0  0  0  0  0  0  0  0  0  0
   62.2492   30.4128   46.0603 H   0  0  0  0  0  0  0  0  0  0  0  0
   62.5730   29.9224   47.7727 H   0  0  0  0  0  0  0  0  0  0  0  0
   59.7278   28.2474   48.2637 H   0  0  0  0  0  0  0  0  0  0  0  0
   61.4294   28.6830   48.6947 H   0  0  0  0  0  0  0  0  0  0  0  0
   61.9247   30.5749   50.1609 H   0  0  0  0  0  0  0  0  0  0  0  0
   61.1060   31.9780   52.0525 H   0  0  0  0  0  0  0  0  0  0  0  0
   58.6659   32.1070   52.5528 H   0  0  0  0  0  0  0  0  0  0  0  0
   56.1720   31.6010   50.8960 H   0  0  0  0  0  0  0  0  0  0  0  0
   57.8469   29.4090   49.2690 H   0  0  0  0  0  0  0  0  0  0  0  0
   59.2859   26.3225   46.7985 H   0  0  0  0  0  0  0  0  0  0  0  0
   57.0053   25.3140   46.8937 H   0  0  0  0  0  0  0  0  0  0  0  0
   57.6503   29.8361   44.8657 H   0  0  0  0  0  0  0  0  0  0  0  0
  1  2  1  0
  2  3  1  0
  3  4  2  0
  4  5  1  0
  5  6  2  0
  6  7  1  0
  7  8  1  0
  8  9  1  0
  9 10  1  0
 10 11  2  0
 11 12  1  0
 12 13  2  0
 13 14  1  0
 14 15  1  0
 14 16  2  0
  8 17  1  0
 17 18  2  0
 17 19  2  0
 17 20  1  0
 20 21  2  0
 21 22  1  0
 22 23  2  0
 23 24  1  0
 23 25  1  0
 25 26  1  0
 25 27  2  0
  6  2  1  0
 16 10  1  0
 27 20  1  0
  1 28  1  0
  1 29  1  0
  1 30  1  0
  3 31  1  0
  4 32  1  0
  5 33  1  0
  7 34  1  0
  7 35  1  0
  9 36  1  0
  9 37  1  0
 11 38  1  0
 12 39  1  0
 13 40  1  0
 15 41  1  0
 16 42  1  0
 21 43  1  0
 22 44  1  0
 27 45  1  0
M  CHG  2  24  -1  26  -1
M  END
>  <UniqueID>  (50) 
47

>  <SMILES>  (50) 
Cn1cccc1CN(Cc1cccc(O)c1)S(=O)(=O)c1ccc([O-])c([O-])c1

>  <Energy>  (50) 
70.11090763221554

>  <Genealogy>  (50) 
Cn1cccc1CN(Cc1cccc(O)c1)S(=O)(=O)c1ccc([O-])c([O-])c1 (protonated)
Cn1cccc1CN(Cc1cccc(O)c1)S(=O)(=O)c1ccc([O-])c([O-])c1 (3D coordinates assigned)
Cn1cccc1CN(Cc1cccc(O)c1)S(=O)(=O)c1ccc([O-])c([O-])c1 (optimized conformer: 70.11090763221554 kcal/mol)

>  <smiles>  (50) 
Cn1cccc1CN(Cc1cccc(O)c1)S(=O)(=O)c1ccc(O)c(O)c1

>  <score_type>  (50) 
oracle

>  <origin>  (50) 
adg

>  <m_score__min__energy>  (50) 
-14.73

>  <m_primary>  (50) 
energy

$$$$
50:0
     RDKit          3D

 42 44  0  0  0  0  0  0  0  0999 V2000
   62.5430   33.8030   46.8940 C   0  0  0  0  0  0  0  0  0  0  0  0
   61.2220   33.6880   46.7900 C   0  0  0  0  0  0  0  0  0  0  0  0
   60.5450   33.9040   45.6360 N   0  0  0  0  0  0  0  0  0  0  0  0
   59.2590   33.6860   45.9860 C   0  0  0  0  0  0  0  0  0  0  0  0
   58.2150   33.7880   45.1540 C   0  0  0  0  0  0  0  0  0  0  0  0
   57.0230   32.8760   45.2380 C   0  0  0  0  0  0  0  0  0  0  0  0
   57.2920   31.5980   44.5040 C   0  0  0  0  0  0  0  0  0  0  0  0
   58.0990   31.5920   43.5350 O   0  0  0  0  0  0  0  0  0  0  0  0
   56.6220   30.3990   44.9070 N   0  0  0  0  0  0  0  0  0  0  0  0
   57.0470   29.0570   44.6330 C   0  0  0  0  0  0  0  0  0  0  0  0
   57.5420   28.6780   43.3710 C   0  0  0  0  0  0  0  0  0  0  0  0
   57.9690   27.3640   43.1500 C   0  0  0  0  0  0  0  0  0  0  0  0
   57.9230   26.4280   44.1880 C   0  0  0  0  0  0  0  0  0  0  0  0
   57.4630   26.8070   45.4570 C   0  0  0  0  0  0  0  0  0  0  0  0
   57.4020   25.6130   46.7930 S   0  0  0  0  0  0  0  0  0  0  0  0
   57.3820   24.1930   45.6880 C   0  0  0  0  0  0  0  0  0  0  0  0
   58.5850   23.6650   45.3290 N   0  0  0  0  0  0  0  0  0  0  0  0
   58.6910   22.5970   44.4960 C   0  0  0  0  0  0  0  0  0  0  0  0
   57.5440   22.0080   43.9700 C   0  0  0  0  0  0  0  0  0  0  0  0
   56.2940   22.5240   44.3120 C   0  0  0  0  0  0  0  0  0  0  0  0
   56.1910   23.6320   45.1670 C   0  0  0  0  0  0  0  0  0  0  0  0
   54.5730   24.2370   45.5550 S   0  0  0  0  0  0  0  0  0  0  0  0
   54.6160   25.9630   45.6530 N   0  0  0  0  0  0  0  0  0  0  0  0
   53.5710   23.8130   44.5160 O   0  0  0  0  0  0  0  0  0  0  0  0
   54.1340   23.6810   46.8840 O   0  0  0  0  0  0  0  0  0  0  0  0
   57.0210   28.1180   45.6710 C   0  0  0  0  0  0  0  0  0  0  0  0
   59.2200   33.3500   47.3210 C   0  0  0  0  0  0  0  0  0  0  0  0
   58.1930   33.0790   47.9980 O   0  0  0  0  0  0  0  0  0  0  0  0
   60.4390   33.3550   47.7970 O   0  0  0  0  0  0  0  0  0  0  0  0
   63.0372   33.6148   47.8585 H   0  0  0  0  0  0  0  0  0  0  0  0
   63.1413   34.0863   46.0155 H   0  0  0  0  0  0  0  0  0  0  0  0
   58.2301   34.5689   44.3795 H   0  0  0  0  0  0  0  0  0  0  0  0
   56.8126   32.6504   46.2939 H   0  0  0  0  0  0  0  0  0  0  0  0
   56.1573   33.3762   44.7792 H   0  0  0  0  0  0  0  0  0  0  0  0
   57.5932   29.4162   42.5571 H   0  0  0  0  0  0  0  0  0  0  0  0
   58.3414   27.0668   42.1585 H   0  0  0  0  0  0  0  0  0  0  0  0
   58.2483   25.3926   44.0085 H   0  0  0  0  0  0  0  0  0  0  0  0
   59.6827   22.1976   44.2371 H   0  0  0  0  0  0  0  0  0  0  0  0
   57.6228   21.1452   43.2922 H   0  0  0  0  0  0  0  0  0  0  0  0
   55.3824   22.0590   43.9086 H   0  0  0  0  0  0  0  0  0  0  0  0
   53.6580   26.2790   45.9230 H   0  0  0  0  0  0  0  0  0  0  0  0
   56.6500   28.4129   46.6636 H   0  0  0  0  0  0  0  0  0  0  0  0
  1  2  2  0
  2  3  1  0
  3  4  1  0
  4  5  2  3
  5  6  1  0
  6  7  1  0
  7  8  2  0
  7  9  1  0
  9 10  1  0
 10 11  2  0
 11 12  1  0
 12 13  2  0
 13 14  1  0
 14 15  1  0
 15 16  1  0
 16 17  2  0
 17 18  1  0
 18 19  2  0
 19 20  1  0
 20 21  2  0
 21 22  1  0
 22 23  1  0
 22 24  2  0
 22 25  2  0
 14 26  2  0
  4 27  1  0
 27 28  2  0
 27 29  1  0
 29  2  1  0
 26 10  1  0
 21 16  1  0
  1 30  1  0
  1 31  1  0
  5 32  1  0
  6 33  1  0
  6 34  1  0
 11 35  1  0
 12 36  1  0
 13 37  1  0
 18 38  1  0
 19 39  1  0
 20 40  1  0
 23 41  1  0
 26 42  1  0
M  CHG  3   3  -1   9  -1  23  -1
M  END
>  <UniqueID>  (51) 
48

>  <SMILES>  (51) 
C=c1[n-]c(=CCC(=O)[N-]c2cccc(Sc3ncccc3S([NH-])(=O)=O)c2)c(=O)o1

>  <Energy>  (51) 
75.85593349021563

>  <Genealogy>  (51) 
C=c1[n-]c(=CCC(=O)[N-]c2cccc(Sc3ncccc3S([NH-])(=O)=O)c2)c(=O)o1 (protonated)
C=c1[n-]c(=CCC(=O)[N-]c2cccc(Sc3ncccc3S([NH-])(=O)=O)c2)c(=O)o1 (3D coordinates assigned)
C=c1[n-]c(=CCC(=O)[N-]c2cccc(Sc3ncccc3S([NH-])(=O)=O)c2)c(=O)o1 (optimized conformer: 75.85593349021563 kcal/mol)

>  <smiles>  (51) 
C=c1[nH]c(=CCC(=O)Nc2cccc(Sc3ncccc3S(N)(=O)=O)c2)c(=O)o1

>  <score_type>  (51) 
oracle

>  <origin>  (51) 
adg

>  <m_score__min__energy>  (51) 
-14.06

>  <m_primary>  (51) 
energy

$$$$
51:0
     RDKit          3D

 42 44  0  0  0  0  0  0  0  0999 V2000
   56.3048   27.4642   45.8220 H   0  0  0  0  0  0  0  0  0  0  0  0
   57.0260   28.2520   45.5590 C   0  0  0  0  0  0  0  0  0  0  0  0
   56.5900   29.5130   45.3060 N   0  0  0  0  0  0  0  0  0  0  0  0
   57.4360   30.5280   44.9800 C   0  0  0  0  0  0  0  0  0  0  0  0
   56.9220   31.7020   44.7400 N   0  0  0  0  0  0  0  0  0  0  0  0
   57.2040   32.9610   45.3720 C   0  0  0  0  0  0  0  0  0  0  0  0
   56.3380   33.8780   45.4100 O   0  0  0  0  0  0  0  0  0  0  0  0
   58.5880   33.2220   45.9020 C   0  0  0  0  0  0  0  0  0  0  0  0
   59.3074   32.7098   45.2461 H   0  0  0  0  0  0  0  0  0  0  0  0
   58.9080   34.7220   45.8680 C   0  0  0  0  0  0  0  0  0  0  0  0
   58.8050   35.0917   44.8371 H   0  0  0  0  0  0  0  0  0  0  0  0
   58.2079   35.2522   46.5304 H   0  0  0  0  0  0  0  0  0  0  0  0
   60.3460   34.9730   46.3560 C   0  0  0  0  0  0  0  0  0  0  0  0
   61.0388   34.6917   45.5492 H   0  0  0  0  0  0  0  0  0  0  0  0
   60.4106   36.0393   46.6185 H   0  0  0  0  0  0  0  0  0  0  0  0
   60.7140   34.2090   47.5740 N   0  0  0  0  0  0  0  0  0  0  0  0
   62.0380   33.1030   47.2850 S   0  0  0  0  0  0  0  0  0  0  0  0
   61.5200   31.7080   47.0760 O   0  0  0  0  0  0  0  0  0  0  0  0
   62.8170   33.5210   46.0700 O   0  0  0  0  0  0  0  0  0  0  0  0
   63.1020   33.1000   48.6790 C   0  0  0  0  0  0  0  0  0  0  0  0
   63.0070   34.1640   49.9760 S   0  0  0  0  0  0  0  0  0  0  0  0
   64.2850   33.4930   50.8410 C   0  0  0  0  0  0  0  0  0  0  0  0
   64.6552   33.8430   51.8159 H   0  0  0  0  0  0  0  0  0  0  0  0
   64.7940   32.4220   50.1160 C   0  0  0  0  0  0  0  0  0  0  0  0
   65.6387   31.8080   50.4616 H   0  0  0  0  0  0  0  0  0  0  0  0
   64.1300   32.1990   48.9050 C   0  0  0  0  0  0  0  0  0  0  0  0
   64.3962   31.3928   48.2055 H   0  0  0  0  0  0  0  0  0  0  0  0
   59.5840   33.5480   48.2560 C   0  0  0  0  0  0  0  0  0  0  0  0
   59.9810   32.9397   49.0821 H   0  0  0  0  0  0  0  0  0  0  0  0
   58.9091   34.3392   48.6146 H   0  0  0  0  0  0  0  0  0  0  0  0
   58.7660   32.6340   47.3230 C   0  0  0  0  0  0  0  0  0  0  0  0
   59.2824   31.6663   47.2396 H   0  0  0  0  0  0  0  0  0  0  0  0
   57.7633   32.5284   47.7628 H   0  0  0  0  0  0  0  0  0  0  0  0
   58.8180   30.2560   44.8740 C   0  0  0  0  0  0  0  0  0  0  0  0
   59.5170   31.0516   44.5766 H   0  0  0  0  0  0  0  0  0  0  0  0
   59.2940   28.9660   45.1500 C   0  0  0  0  0  0  0  0  0  0  0  0
   60.7540   28.6530   45.0050 C   0  0  0  0  0  0  0  0  0  0  0  0
   61.2089   28.5555   46.0018 H   0  0  0  0  0  0  0  0  0  0  0  0
   60.8736   27.7088   44.4534 H   0  0  0  0  0  0  0  0  0  0  0  0
   61.2501   29.4652   44.4534 H   0  0  0  0  0  0  0  0  0  0  0  0
   58.3860   27.9540   45.4860 C   0  0  0  0  0  0  0  0  0  0  0  0
   58.7425   26.9336   45.6904 H   0  0  0  0  0  0  0  0  0  0  0  0
  1  2  1  0
  2  3  1  0
  3  4  1  0
  4  5  2  0
  5  6  1  0
  6  7  2  0
  6  8  1  0
  8  9  1  0
  8 10  1  0
 10 11  1  0
 10 12  1  0
 10 13  1  0
 13 14  1  0
 13 15  1  0
 13 16  1  0
 16 17  1  0
 17 18  2  0
 17 19  2  0
 17 20  1  0
 20 21  1  0
 21 22  1  0
 22 23  1  0
 22 24  2  0
 24 25  1  0
 24 26  1  0
 26 27  1  0
 16 28  1  0
 28 29  1  0
 28 30  1  0
 28 31  1  0
 31 32  1  0
 31 33  1  0
  4 34  1  0
 34 35  1  0
 34 36  2  0
 36 37  1  0
 37 38  1  0
 37 39  1  0
 37 40  1  0
 36 41  1  0
 41 42  1  0
 41  2  2  0
 31  8  1  0
 26 20  2  0
M  CHG  1   3  -1
M  END
>  <UniqueID>  (52) 
49

>  <SMILES>  (52) 
Cc1cc[n-]/c(=N/C(=O)C2CCN(S(=O)(=O)c3cccs3)CC2)c1

>  <Energy>  (52) 
84.36483504431453

>  <Genealogy>  (52) 
Cc1cc[n-]c(=NC(=O)C2CCN(S(=O)(=O)c3cccs3)CC2)c1 (protonated)
Cc1cc[n-]/c(=N/C(=O)C2CCN(S(=O)(=O)c3cccs3)CC2)c1 (cis-trans isomerization)
Cc1cc[n-]/c(=N/C(=O)C2CCN(S(=O)(=O)c3cccs3)CC2)c1 (3D coordinates assigned)
Cc1cc[n-]/c(=N/C(=O)C2CCN(S(=O)(=O)c3cccs3)CC2)c1 (nonaromatic ring conformer: 84.36483504431453 kcal/mol)

>  <smiles>  (52) 
Cc1cc[nH]c(=NC(=O)C2CCN(S(=O)(=O)c3cccs3)CC2)c1

>  <score_type>  (52) 
oracle

>  <origin>  (52) 
adg

>  <m_score__min__energy>  (52) 
-10.58

>  <m_primary>  (52) 
energy

$$$$
52:0
     RDKit          3D

 50 52  0  0  0  0  0  0  0  0999 V2000
   61.8850   30.0500   49.7700 C   0  0  0  0  0  0  0  0  0  0  0  0
   60.6500   29.3240   50.2900 C   0  0  0  0  0  0  0  0  0  0  0  0
   60.0110   28.5070   49.2000 C   0  0  0  0  0  0  0  0  0  0  0  0
   58.7930   28.9120   48.6360 C   0  0  0  0  0  0  0  0  0  0  0  0
   58.2150   28.1730   47.6000 C   0  0  0  0  0  0  0  0  0  0  0  0
   58.8360   27.0060   47.1280 C   0  0  0  0  0  0  0  0  0  0  0  0
   58.2420   26.2450   46.0560 N   0  0  0  0  0  0  0  0  0  0  0  0
   57.6380   25.0460   46.3380 C   0  0  0  0  0  0  0  0  0  0  0  0
   57.5820   24.5650   47.6430 O   0  0  0  0  0  0  0  0  0  0  0  0
   57.0830   24.2780   45.3150 C   0  0  0  0  0  0  0  0  0  0  0  0
   57.1720   24.7420   44.0080 C   0  0  0  0  0  0  0  0  0  0  0  0
   56.6910   24.0670   43.0610 O   0  0  0  0  0  0  0  0  0  0  0  0
   57.7770   25.9270   43.7550 N   0  0  0  0  0  0  0  0  0  0  0  0
   58.3010   26.6850   44.7540 C   0  0  0  0  0  0  0  0  0  0  0  0
   59.0610   28.2570   44.3090 S   0  0  0  0  0  0  0  0  0  0  0  0
   57.5220   29.0360   43.7030 C   0  0  0  0  0  0  0  0  0  0  0  0
   56.7860   29.7650   44.7890 C   0  0  0  0  0  0  0  0  0  0  0  0
   55.5580   29.5200   44.9250 O   0  0  0  0  0  0  0  0  0  0  0  0
   57.3770   30.7200   45.6880 N   0  0  0  0  0  0  0  0  0  0  0  0
   57.8090   32.0940   45.6010 C   0  0  0  0  0  0  0  0  0  0  0  0
   57.0560   33.0890   44.9490 C   0  0  0  0  0  0  0  0  0  0  0  0
   57.5450   34.3890   44.8220 C   0  0  0  0  0  0  0  0  0  0  0  0
   58.7830   34.7280   45.3570 C   0  0  0  0  0  0  0  0  0  0  0  0
   59.5290   33.7730   46.0440 C   0  0  0  0  0  0  0  0  0  0  0  0
   59.0530   32.4560   46.1920 C   0  0  0  0  0  0  0  0  0  0  0  0
   59.8850   31.4890   46.9620 C   0  0  0  0  0  0  0  0  0  0  0  0
   60.4500   30.5190   46.3860 O   0  0  0  0  0  0  0  0  0  0  0  0
   60.0360   31.6540   48.3430 O   0  0  0  0  0  0  0  0  0  0  0  0
   59.0880   32.3500   49.1430 C   0  0  0  0  0  0  0  0  0  0  0  0
   60.0650   26.6100   47.6830 C   0  0  0  0  0  0  0  0  0  0  0  0
   60.6540   27.3630   48.7010 C   0  0  0  0  0  0  0  0  0  0  0  0
   62.4872   30.4040   50.6198 H   0  0  0  0  0  0  0  0  0  0  0  0
   62.4848   29.3607   49.1575 H   0  0  0  0  0  0  0  0  0  0  0  0
   61.5744   30.9093   49.1575 H   0  0  0  0  0  0  0  0  0  0  0  0
   60.9439   28.6579   51.1146 H   0  0  0  0  0  0  0  0  0  0  0  0
   59.9238   30.0717   50.6415 H   0  0  0  0  0  0  0  0  0  0  0  0
   58.2899   29.8156   49.0106 H   0  0  0  0  0  0  0  0  0  0  0  0
   57.2679   28.5079   47.1519 H   0  0  0  0  0  0  0  0  0  0  0  0
   56.5843   23.3233   45.5382 H   0  0  0  0  0  0  0  0  0  0  0  0
   57.7773   29.7512   42.9072 H   0  0  0  0  0  0  0  0  0  0  0  0
   56.8650   28.2367   43.3296 H   0  0  0  0  0  0  0  0  0  0  0  0
   56.0687   32.8377   44.5342 H   0  0  0  0  0  0  0  0  0  0  0  0
   56.9488   35.1494   44.2964 H   0  0  0  0  0  0  0  0  0  0  0  0
   59.1730   35.7496   45.2378 H   0  0  0  0  0  0  0  0  0  0  0  0
   60.5016   34.0510   46.4761 H   0  0  0  0  0  0  0  0  0  0  0  0
   59.3138   32.1842   50.2067 H   0  0  0  0  0  0  0  0  0  0  0  0
   59.1400   33.4260   48.9205 H   0  0  0  0  0  0  0  0  0  0  0  0
   58.0770   31.9780   48.9205 H   0  0  0  0  0  0  0  0  0  0  0  0
   60.5653   25.7026   47.3138 H   0  0  0  0  0  0  0  0  0  0  0  0
   61.6269   27.0582   49.1141 H   0  0  0  0  0  0  0  0  0  0  0  0
  1  2  1  0
  2  3  1  0
  3  4  2  0
  4  5  1  0
  5  6  2  0
  6  7  1  0
  7  8  1  0
  8  9  1  0
  8 10  2  0
 10 11  1  0
 11 12  2  0
 11 13  1  0
 13 14  2  0
 14 15  1  0
 15 16  1  0
 16 17  1  0
 17 18  2  0
 17 19  1  0
 19 20  1  0
 20 21  2  0
 21 22  1  0
 22 23  2  0
 23 24  1  0
 24 25  2  0
 25 26  1  0
 26 27  2  0
 26 28  1  0
 28 29  1  0
  6 30  1  0
 30 31  2  0
 31  3  1  0
 14  7  1  0
 25 20  1  0
  1 32  1  0
  1 33  1  0
  1 34  1  0
  2 35  1  0
  2 36  1  0
  4 37  1  0
  5 38  1  0
 10 39  1  0
 16 40  1  0
 16 41  1  0
 21 42  1  0
 22 43  1  0
 23 44  1  0
 24 45  1  0
 29 46  1  0
 29 47  1  0
 29 48  1  0
 30 49  1  0
 31 50  1  0
M  CHG  2   9  -1  19  -1
M  END
>  <UniqueID>  (53) 
50

>  <SMILES>  (53) 
CCc1ccc(-n2c([O-])cc(=O)nc2SCC(=O)[N-]c2ccccc2C(=O)OC)cc1

>  <Energy>  (53) 
59.87997709207781

>  <Genealogy>  (53) 
CCc1ccc(-n2c([O-])cc(=O)nc2SCC(=O)[N-]c2ccccc2C(=O)OC)cc1 (protonated)
CCc1ccc(-n2c([O-])cc(=O)nc2SCC(=O)[N-]c2ccccc2C(=O)OC)cc1 (3D coordinates assigned)
CCc1ccc(-n2c([O-])cc(=O)nc2SCC(=O)[N-]c2ccccc2C(=O)OC)cc1 (optimized conformer: 59.87997709207781 kcal/mol)

>  <smiles>  (53) 
CCc1ccc(-n2c(O)cc(=O)nc2SCC(=O)Nc2ccccc2C(=O)OC)cc1

>  <score_type>  (53) 
oracle

>  <origin>  (53) 
adg

>  <m_score__min__energy>  (53) 
-12.390000000000001

>  <m_primary>  (53) 
energy

$$$$
53:0
     RDKit          3D

 37 39  0  0  0  0  0  0  0  0999 V2000
   51.7635   32.4762   49.9337 H   0  0  0  0  0  0  0  0  0  0  0  0
   52.0150   31.9530   50.8680 C   0  0  0  0  0  0  0  0  0  0  0  0
   53.0760   31.0420   50.8940 C   0  0  0  0  0  0  0  0  0  0  0  0
   53.6618   30.8567   49.9816 H   0  0  0  0  0  0  0  0  0  0  0  0
   53.3960   30.3630   52.0810 C   0  0  0  0  0  0  0  0  0  0  0  0
   54.5590   29.4110   52.1200 C   0  0  0  0  0  0  0  0  0  0  0  0
   54.6403   28.8955   51.1517 H   0  0  0  0  0  0  0  0  0  0  0  0
   54.3967   28.6757   52.9219 H   0  0  0  0  0  0  0  0  0  0  0  0
   55.8250   30.1600   52.3900 C   0  0  0  0  0  0  0  0  0  0  0  0
   55.7790   31.2460   53.0280 O   0  0  0  0  0  0  0  0  0  0  0  0
   57.0640   29.6500   51.8740 N   0  0  0  0  0  0  0  0  0  0  0  0
   58.0000   30.3470   51.3030 C   0  0  0  0  0  0  0  0  0  0  0  0
   57.7720   31.4180   50.5020 N   0  0  0  0  0  0  0  0  0  0  0  0
   58.9430   31.9370   50.0530 C   0  0  0  0  0  0  0  0  0  0  0  0
   59.0430   33.0430   49.2090 C   0  0  0  0  0  0  0  0  0  0  0  0
   58.1370   33.5600   48.8600 H   0  0  0  0  0  0  0  0  0  0  0  0
   60.3160   33.4900   48.8090 C   0  0  0  0  0  0  0  0  0  0  0  0
   60.3900   34.6040   47.9600 O   0  0  0  0  0  0  0  0  0  0  0  0
   60.3320   34.5370   46.5370 C   0  0  0  0  0  0  0  0  0  0  0  0
   60.7874   33.5958   46.1953 H   0  0  0  0  0  0  0  0  0  0  0  0
   60.8816   35.3874   46.1071 H   0  0  0  0  0  0  0  0  0  0  0  0
   58.8810   34.5910   46.0860 C   0  0  0  0  0  0  0  0  0  0  0  0
   58.2237   34.6155   46.9677 H   0  0  0  0  0  0  0  0  0  0  0  0
   58.7182   35.4958   45.4820 H   0  0  0  0  0  0  0  0  0  0  0  0
   58.6514   33.7008   45.4820 H   0  0  0  0  0  0  0  0  0  0  0  0
   61.4750   32.8090   49.2680 C   0  0  0  0  0  0  0  0  0  0  0  0
   62.4712   33.1556   48.9558 H   0  0  0  0  0  0  0  0  0  0  0  0
   61.3590   31.6970   50.1170 C   0  0  0  0  0  0  0  0  0  0  0  0
   62.2524   31.1657   50.4769 H   0  0  0  0  0  0  0  0  0  0  0  0
   60.0840   31.2850   50.4910 C   0  0  0  0  0  0  0  0  0  0  0  0
   59.6460   30.0020   51.4840 S   0  0  0  0  0  0  0  0  0  0  0  0
   52.6550   30.6240   53.2460 C   0  0  0  0  0  0  0  0  0  0  0  0
   52.9093   30.1095   54.1844 H   0  0  0  0  0  0  0  0  0  0  0  0
   51.5950   31.5360   53.2160 C   0  0  0  0  0  0  0  0  0  0  0  0
   51.0133   31.7314   54.1289 H   0  0  0  0  0  0  0  0  0  0  0  0
   51.2730   32.2000   52.0280 C   0  0  0  0  0  0  0  0  0  0  0  0
   50.2200   33.1060   52.0010 O   0  0  0  0  0  0  0  0  0  0  0  0
  1  2  1  0
  2  3  2  0
  3  4  1  0
  3  5  1  0
  5  6  1  0
  6  7  1  0
  6  8  1  0
  6  9  1  0
  9 10  2  0
  9 11  1  0
 11 12  2  0
 12 13  1  0
 13 14  1  0
 14 15  2  0
 15 16  1  0
 15 17  1  0
 17 18  1  0
 18 19  1  0
 19 20  1  0
 19 21  1  0
 19 22  1  0
 22 23  1  0
 22 24  1  0
 22 25  1  0
 17 26  2  0
 26 27  1  0
 26 28  1  0
 28 29  1  0
 28 30  2  0
 30 31  1  0
  5 32  2  0
 32 33  1  0
 32 34  1  0
 34 35  1  0
 34 36  2  0
 36 37  1  0
 36  2  1  0
 31 12  1  0
 30 14  1  0
M  CHG  2  13  -1  37  -1
M  END
>  <UniqueID>  (54) 
51

>  <SMILES>  (54) 
CCOc1ccc2s/c(=N/C(=O)Cc3ccc([O-])cc3)[n-]c2c1

>  <Energy>  (54) 
70.50424460472948

>  <Genealogy>  (54) 
CCOc1ccc2sc(=NC(=O)Cc3ccc([O-])cc3)[n-]c2c1 (protonated)
CCOc1ccc2s/c(=N/C(=O)Cc3ccc([O-])cc3)[n-]c2c1 (cis-trans isomerization)
CCOc1ccc2s/c(=N/C(=O)Cc3ccc([O-])cc3)[n-]c2c1 (3D coordinates assigned)
CCOc1ccc2s/c(=N/C(=O)Cc3ccc([O-])cc3)[n-]c2c1 (optimized conformer: 70.50424460472948 kcal/mol)

>  <smiles>  (54) 
CCOc1ccc2sc(=NC(=O)Cc3ccc(O)cc3)[nH]c2c1

>  <score_type>  (54) 
oracle

>  <origin>  (54) 
adg

>  <m_score__min__energy>  (54) 
-12.119999999999999

>  <m_primary>  (54) 
energy

$$$$
54:0
     RDKit          3D

 56 59  0  0  0  0  0  0  0  0999 V2000
   55.2150   29.3980   44.9510 O   0  0  0  0  0  0  0  0  0  0  0  0
   56.2750   28.7160   44.9640 C   0  0  0  0  0  0  0  0  0  0  0  0
   57.4630   29.2160   44.3300 N   0  0  0  0  0  0  0  0  0  0  0  0
   57.5170   30.5330   43.6960 C   0  0  0  0  0  0  0  0  0  0  0  0
   57.6210   31.6340   44.7610 C   0  0  0  0  0  0  0  0  0  0  0  0
   58.1340   31.1090   46.1090 C   0  0  0  0  0  0  0  0  0  0  0  0
   59.6290   30.7630   46.0840 C   0  0  0  0  0  0  0  0  0  0  0  0
   59.8480   29.3410   46.5270 C   0  0  0  0  0  0  0  0  0  0  0  0
   59.4730   28.9350   47.8190 C   0  0  0  0  0  0  0  0  0  0  0  0
   59.7100   27.6230   48.2420 C   0  0  0  0  0  0  0  0  0  0  0  0
   60.3310   26.7120   47.3830 C   0  0  0  0  0  0  0  0  0  0  0  0
   60.7180   27.1110   46.1010 C   0  0  0  0  0  0  0  0  0  0  0  0
   60.4830   28.4230   45.6750 C   0  0  0  0  0  0  0  0  0  0  0  0
   56.2840   27.4070   45.6340 C   0  0  0  0  0  0  0  0  0  0  0  0
   57.4060   26.6940   46.0040 C   0  0  0  0  0  0  0  0  0  0  0  0
   56.8950   25.5470   46.5740 C   0  0  0  0  0  0  0  0  0  0  0  0
   57.7120   24.3840   47.1010 C   0  0  1  0  0  0  0  0  0  0  0  0
   57.2310   23.9720   48.4880 C   0  0  0  0  0  0  0  0  0  0  0  0
   56.2610   22.8220   48.2450 C   0  0  0  0  0  0  0  0  0  0  0  0
   56.4280   22.4420   46.7770 C   0  0  0  0  0  0  0  0  0  0  0  0
   57.5990   23.1700   46.2760 N   0  0  0  0  0  0  0  0  0  0  0  0
   57.5770   23.4010   44.8180 C   0  0  0  0  0  0  0  0  0  0  0  0
   56.4130   22.6300   44.1840 C   0  0  0  0  0  0  0  0  0  0  0  0
   55.6600   23.3470   43.0740 C   0  0  0  0  0  0  0  0  0  0  0  0
   56.6360   22.2330   42.7330 C   0  0  0  0  0  0  0  0  0  0  0  0
   55.5490   25.5800   46.5340 N   0  0  0  0  0  0  0  0  0  0  0  0
   55.1760   26.7150   45.9640 N   0  0  0  0  0  0  0  0  0  0  0  0
   58.3080   28.6050   44.2680 H   0  0  0  0  0  0  0  0  0  0  0  0
   58.3959   30.5823   43.0363 H   0  0  0  0  0  0  0  0  0  0  0  0
   56.5977   30.6865   43.1117 H   0  0  0  0  0  0  0  0  0  0  0  0
   58.3126   32.4091   44.3992 H   0  0  0  0  0  0  0  0  0  0  0  0
   56.6096   32.0345   44.9241 H   0  0  0  0  0  0  0  0  0  0  0  0
   57.9650   31.8812   46.8740 H   0  0  0  0  0  0  0  0  0  0  0  0
   57.5841   30.1833   46.3342 H   0  0  0  0  0  0  0  0  0  0  0  0
   60.0122   30.8864   45.0603 H   0  0  0  0  0  0  0  0  0  0  0  0
   60.1618   31.4362   46.7718 H   0  0  0  0  0  0  0  0  0  0  0  0
   58.9912   29.6517   48.5003 H   0  0  0  0  0  0  0  0  0  0  0  0
   59.4074   27.3079   49.2515 H   0  0  0  0  0  0  0  0  0  0  0  0
   60.5152   25.6801   47.7164 H   0  0  0  0  0  0  0  0  0  0  0  0
   61.2076   26.3933   45.4263 H   0  0  0  0  0  0  0  0  0  0  0  0
   60.7970   28.7366   44.6685 H   0  0  0  0  0  0  0  0  0  0  0  0
   58.4616   26.9750   45.8745 H   0  0  0  0  0  0  0  0  0  0  0  0
   58.7496   24.7491   47.0992 H   0  0  0  0  0  0  0  0  0  0  0  0
   58.0770   23.6395   49.1074 H   0  0  0  0  0  0  0  0  0  0  0  0
   56.7557   24.8063   49.0247 H   0  0  0  0  0  0  0  0  0  0  0  0
   56.5091   21.9681   48.8925 H   0  0  0  0  0  0  0  0  0  0  0  0
   55.2245   23.1109   48.4735 H   0  0  0  0  0  0  0  0  0  0  0  0
   56.5887   21.3578   46.6834 H   0  0  0  0  0  0  0  0  0  0  0  0
   55.5282   22.7010   46.1997 H   0  0  0  0  0  0  0  0  0  0  0  0
   57.4525   24.4760   44.6211 H   0  0  0  0  0  0  0  0  0  0  0  0
   58.5238   23.0498   44.3818 H   0  0  0  0  0  0  0  0  0  0  0  0
   56.1146   22.1117   45.1072 H   0  0  0  0  0  0  0  0  0  0  0  0
   54.5786   23.1875   42.9510 H   0  0  0  0  0  0  0  0  0  0  0  0
   55.5401   24.3967   42.7678 H   0  0  0  0  0  0  0  0  0  0  0  0
   56.2609   21.2673   42.3632 H   0  0  0  0  0  0  0  0  0  0  0  0
   57.5149   22.1427   42.0777 H   0  0  0  0  0  0  0  0  0  0  0  0
  1  2  2  0
  2  3  1  0
  3  4  1  0
  4  5  1  0
  5  6  1  0
  6  7  1  0
  7  8  1  0
  8  9  2  0
  9 10  1  0
 10 11  2  0
 11 12  1  0
 12 13  2  0
  2 14  1  0
 14 15  2  0
 15 16  1  0
 16 17  1  0
 17 18  1  0
 18 19  1  0
 19 20  1  0
 20 21  1  0
 21 22  1  0
 22 23  1  0
 23 24  1  0
 24 25  1  0
 16 26  2  0
 26 27  1  0
 13  8  1  0
 27 14  1  0
 21 17  1  0
 25 23  1  0
  3 28  1  0
  4 29  1  0
  4 30  1  0
  5 31  1  0
  5 32  1  0
  6 33  1  0
  6 34  1  0
  7 35  1  0
  7 36  1  0
  9 37  1  0
 10 38  1  0
 11 39  1  0
 12 40  1  0
 13 41  1  0
 15 42  1  0
 17 43  1  1
 18 44  1  0
 18 45  1  0
 19 46  1  0
 19 47  1  0
 20 48  1  0
 20 49  1  0
 22 50  1  0
 22 51  1  0
 23 52  1  0
 24 53  1  0
 24 54  1  0
 25 55  1  0
 25 56  1  0
M  CHG  1  27  -1
M  END
>  <UniqueID>  (55) 
52

>  <SMILES>  (55) 
O=C(NCCCCc1ccccc1)c1cc([C@H]2CCCN2CC2CC2)n[n-]1

>  <Energy>  (55) 
346.84714591125214

>  <Genealogy>  (55) 
O=C(NCCCCc1ccccc1)c1cc(C2CCCN2CC2CC2)n[n-]1 (protonated)
O=C(NCCCCc1ccccc1)c1cc([C@H]2CCCN2CC2CC2)n[n-]1 (chirality)
O=C(NCCCCc1ccccc1)c1cc([C@H]2CCCN2CC2CC2)n[n-]1 (3D coordinates assigned)
O=C(NCCCCc1ccccc1)c1cc([C@H]2CCCN2CC2CC2)n[n-]1 (nonaromatic ring conformer: 346.84714591125214 kcal/mol)

>  <smiles>  (55) 
O=C(NCCCCc1ccccc1)c1cc(C2CCCN2CC2CC2)n[nH]1

>  <score_type>  (55) 
oracle

>  <origin>  (55) 
adg

>  <m_score__min__energy>  (55) 
-11.859999999999999

>  <m_primary>  (55) 
energy

$$$$
55:0
     RDKit          3D

 52 54  0  0  0  0  0  0  0  0999 V2000
   61.6138   29.1173   45.5349 H   0  0  0  0  0  0  0  0  0  0  0  0
   60.5700   28.7800   45.6170 C   0  0  0  0  0  0  0  0  0  0  0  0
   60.1910   27.9340   46.6630 C   0  0  0  0  0  0  0  0  0  0  0  0
   60.9367   27.6119   47.4048 H   0  0  0  0  0  0  0  0  0  0  0  0
   58.8570   27.4920   46.7710 C   0  0  0  0  0  0  0  0  0  0  0  0
   58.4350   26.6050   47.7750 O   0  0  0  0  0  0  0  0  0  0  0  0
   58.0770   25.2380   47.5680 C   0  0  0  0  0  0  0  0  0  0  0  0
   58.8843   24.7303   47.0198 H   0  0  0  0  0  0  0  0  0  0  0  0
   57.9243   24.7558   48.5448 H   0  0  0  0  0  0  0  0  0  0  0  0
   56.8090   25.1480   46.7760 C   0  0  0  0  0  0  0  0  0  0  0  0
   56.4140   24.0390   46.1160 N   0  0  0  0  0  0  0  0  0  0  0  0
   55.2100   24.4240   45.6360 C   0  0  0  0  0  0  0  0  0  0  0  0
   54.3550   23.5590   44.8080 C   0  0  0  0  0  0  0  0  0  0  0  0
   53.1910   23.3100   45.2180 O   0  0  0  0  0  0  0  0  0  0  0  0
   54.7780   22.9670   43.5690 N   0  0  0  0  0  0  0  0  0  0  0  0
   56.1180   22.8020   42.9930 C   0  0  0  0  0  0  0  0  0  0  0  0
   55.9799   22.5782   41.9249 H   0  0  0  0  0  0  0  0  0  0  0  0
   56.8550   21.6030   43.5960 C   0  0  0  0  0  0  0  0  0  0  0  0
   56.8176   21.6638   44.6937 H   0  0  0  0  0  0  0  0  0  0  0  0
   56.3733   20.6716   43.2638 H   0  0  0  0  0  0  0  0  0  0  0  0
   57.9036   21.6122   43.2638 H   0  0  0  0  0  0  0  0  0  0  0  0
   56.9430   24.0950   43.0450 C   0  0  0  0  0  0  0  0  0  0  0  0
   57.1212   24.3743   44.0939 H   0  0  0  0  0  0  0  0  0  0  0  0
   57.9067   23.9356   42.5392 H   0  0  0  0  0  0  0  0  0  0  0  0
   56.3924   24.9018   42.5392 H   0  0  0  0  0  0  0  0  0  0  0  0
   54.9280   25.6600   45.9740 O   0  0  0  0  0  0  0  0  0  0  0  0
   55.9000   26.1340   46.6860 N   0  0  0  0  0  0  0  0  0  0  0  0
   55.9410   27.0900   47.1010 H   0  0  0  0  0  0  0  0  0  0  0  0
   57.9140   27.9390   45.8380 C   0  0  0  0  0  0  0  0  0  0  0  0
   56.8656   27.6186   45.9289 H   0  0  0  0  0  0  0  0  0  0  0  0
   58.2900   28.7910   44.7880 C   0  0  0  0  0  0  0  0  0  0  0  0
   57.2800   29.2010   43.7500 C   0  0  0  0  0  0  0  0  0  0  0  0
   56.8822   28.3030   43.2548 H   0  0  0  0  0  0  0  0  0  0  0  0
   57.7685   29.8514   43.0095 H   0  0  0  0  0  0  0  0  0  0  0  0
   56.1560   29.9500   44.3940 C   0  0  0  0  0  0  0  0  0  0  0  0
   55.1610   29.3150   44.8430 O   0  0  0  0  0  0  0  0  0  0  0  0
   56.2330   31.3820   44.4960 N   0  0  0  0  0  0  0  0  0  0  0  0
   57.1690   32.0580   45.0950 C   0  0  0  0  0  0  0  0  0  0  0  0
   57.5750   33.2920   44.7150 N   0  0  0  0  0  0  0  0  0  0  0  0
   58.5220   33.5890   45.6260 C   0  0  0  0  0  0  0  0  0  0  0  0
   59.3310   34.8450   45.6060 C   0  0  0  0  0  0  0  0  0  0  0  0
   59.5370   35.1649   46.6381 H   0  0  0  0  0  0  0  0  0  0  0  0
   60.2808   34.6610   45.0826 H   0  0  0  0  0  0  0  0  0  0  0  0
   58.7707   35.6337   45.0826 H   0  0  0  0  0  0  0  0  0  0  0  0
   58.6620   32.5260   46.4990 C   0  0  0  0  0  0  0  0  0  0  0  0
   59.6010   32.4190   47.6550 C   0  0  0  0  0  0  0  0  0  0  0  0
   59.0338   32.4836   48.5953 H   0  0  0  0  0  0  0  0  0  0  0  0
   60.1288   31.4549   47.6107 H   0  0  0  0  0  0  0  0  0  0  0  0
   60.3322   33.2396   47.6107 H   0  0  0  0  0  0  0  0  0  0  0  0
   57.8070   31.5980   46.1490 O   0  0  0  0  0  0  0  0  0  0  0  0
   59.6270   29.1980   44.6760 C   0  0  0  0  0  0  0  0  0  0  0  0
   59.9340   29.8488   43.8440 H   0  0  0  0  0  0  0  0  0  0  0  0
  1  2  1  0
  2  3  2  0
  3  4  1  0
  3  5  1  0
  5  6  1  0
  6  7  1  0
  7  8  1  0
  7  9  1  0
  7 10  1  0
 10 11  1  0
 11 12  2  0
 12 13  1  0
 13 14  2  0
 13 15  1  0
 15 16  1  0
 16 17  1  0
 16 18  1  0
 18 19  1  0
 18 20  1  0
 18 21  1  0
 16 22  1  0
 22 23  1  0
 22 24  1  0
 22 25  1  0
 12 26  1  0
 26 27  1  0
 27 28  1  0
  5 29  2  0
 29 30  1  0
 29 31  1  0
 31 32  1  0
 32 33  1  0
 32 34  1  0
 32 35  1  0
 35 36  2  0
 35 37  1  0
 37 38  2  0
 38 39  1  0
 39 40  1  0
 40 41  1  0
 41 42  1  0
 41 43  1  0
 41 44  1  0
 40 45  2  0
 45 46  1  0
 46 47  1  0
 46 48  1  0
 46 49  1  0
 45 50  1  0
 31 51  2  0
 51 52  1  0
 51  2  1  0
 27 10  2  0
 50 38  1  0
M  CHG  3  15  -1  27   1  39  -1
M  END
>  <UniqueID>  (56) 
53

>  <SMILES>  (56) 
Cc1[n-]/c(=N\C(=O)Cc2cccc(OCc3nc(C(=O)[N-]C(C)C)o[nH+]3)c2)oc1C

>  <Energy>  (56) 
115.89261674287195

>  <Genealogy>  (56) 
Cc1[n-]c(=NC(=O)Cc2cccc(OCc3nc(C(=O)[N-]C(C)C)o[nH+]3)c2)oc1C (protonated)
Cc1[n-]/c(=N\C(=O)Cc2cccc(OCc3nc(C(=O)[N-]C(C)C)o[nH+]3)c2)oc1C (cis-trans isomerization)
Cc1[n-]/c(=N\C(=O)Cc2cccc(OCc3nc(C(=O)[N-]C(C)C)o[nH+]3)c2)oc1C (3D coordinates assigned)
Cc1[n-]/c(=N\C(=O)Cc2cccc(OCc3nc(C(=O)[N-]C(C)C)o[nH+]3)c2)oc1C (optimized conformer: 115.89261674287195 kcal/mol)

>  <smiles>  (56) 
Cc1[nH]c(=NC(=O)Cc2cccc(OCc3noc(C(=O)NC(C)C)n3)c2)oc1C

>  <score_type>  (56) 
oracle

>  <origin>  (56) 
adg

>  <m_score__min__energy>  (56) 
-10.140000000000001

>  <m_primary>  (56) 
energy

$$$$
56:0
     RDKit          3D

 57 61  0  0  0  0  0  0  0  0999 V2000
   57.5260   31.8950   45.2860 O   0  0  0  0  0  0  0  0  0  0  0  0
   58.4580   31.9670   46.1450 C   0  0  0  0  0  0  0  0  0  0  0  0
   58.8250   33.2710   46.7810 C   0  0  0  0  0  0  0  0  0  0  0  0
   60.2290   33.2070   47.1900 N   0  0  0  0  0  0  0  0  0  0  0  0
   61.1500   33.7910   46.4600 N   0  0  0  0  0  0  0  0  0  0  0  0
   62.4680   33.7870   46.7610 C   0  0  0  0  0  0  0  0  0  0  0  0
   63.2990   34.3640   46.0230 O   0  0  0  0  0  0  0  0  0  0  0  0
   62.8240   33.1120   47.9250 C   0  0  0  0  0  0  0  0  0  0  0  0
   64.1450   33.0580   48.3060 C   0  0  0  0  0  0  0  0  0  0  0  0
   64.4530   32.3790   49.4610 C   0  0  0  0  0  0  0  0  0  0  0  0
   63.5120   31.7550   50.2500 C   0  0  0  0  0  0  0  0  0  0  0  0
   62.1820   31.8070   49.8710 C   0  0  0  0  0  0  0  0  0  0  0  0
   61.8990   32.4910   48.7120 C   0  0  0  0  0  0  0  0  0  0  0  0
   60.5650   32.5530   48.3130 C   0  0  0  0  0  0  0  0  0  0  0  0
   59.6810   31.9920   49.0130 O   0  0  0  0  0  0  0  0  0  0  0  0
   59.1560   30.7820   46.5000 N   0  0  0  0  0  0  0  0  0  0  0  0
   58.8490   29.5170   45.9240 C   0  0  0  0  0  0  0  0  0  0  0  0
   59.1160   29.3180   44.5880 C   0  0  0  0  0  0  0  0  0  0  0  0
   58.8450   28.1110   43.9480 C   0  0  0  0  0  0  0  0  0  0  0  0
   58.2850   27.0930   44.7140 C   0  0  0  0  0  0  0  0  0  0  0  0
   58.0030   27.2440   46.0440 C   0  0  0  0  0  0  0  0  0  0  0  0
   57.4180   26.2080   46.9260 C   0  0  0  0  0  0  0  0  0  0  0  0
   56.4170   25.3460   46.2520 C   0  0  0  0  0  0  0  0  0  0  0  0
   55.1460   25.8210   46.1580 N   0  0  0  0  0  0  0  0  0  0  0  0
   54.1610   25.1440   45.6100 N   0  0  0  0  0  0  0  0  0  0  0  0
   54.3670   23.9210   45.1020 C   0  0  0  0  0  0  0  0  0  0  0  0
   53.3840   23.3240   44.5910 O   0  0  0  0  0  0  0  0  0  0  0  0
   55.6360   23.3750   45.1610 C   0  0  0  0  0  0  0  0  0  0  0  0
   56.6530   24.1070   45.7410 C   0  0  0  0  0  0  0  0  0  0  0  0
   57.9970   23.5320   45.7750 C   0  0  0  0  0  0  0  0  0  0  0  0
   58.2660   22.8330   44.4800 C   0  0  0  0  0  0  0  0  0  0  0  0
   57.1860   21.9920   43.9250 C   0  0  0  0  0  0  0  0  0  0  0  0
   55.8680   22.0160   44.6110 C   0  0  0  0  0  0  0  0  0  0  0  0
   58.2960   28.4730   46.6290 C   0  0  0  0  0  0  0  0  0  0  0  0
   58.6854   34.0888   46.0587 H   0  0  0  0  0  0  0  0  0  0  0  0
   58.1848   33.4581   47.6557 H   0  0  0  0  0  0  0  0  0  0  0  0
   60.8580   34.2870   45.5950 H   0  0  0  0  0  0  0  0  0  0  0  0
   64.9293   33.5425   47.7058 H   0  0  0  0  0  0  0  0  0  0  0  0
   65.5072   32.3315   49.7717 H   0  0  0  0  0  0  0  0  0  0  0  0
   63.8125   31.2245   51.1656 H   0  0  0  0  0  0  0  0  0  0  0  0
   61.3919   31.3260   50.4662 H   0  0  0  0  0  0  0  0  0  0  0  0
   59.9360   30.7840   47.2040 H   0  0  0  0  0  0  0  0  0  0  0  0
   59.5584   30.1402   44.0064 H   0  0  0  0  0  0  0  0  0  0  0  0
   59.0648   27.9681   42.8797 H   0  0  0  0  0  0  0  0  0  0  0  0
   58.0606   26.1302   44.2316 H   0  0  0  0  0  0  0  0  0  0  0  0
   58.2322   25.5688   47.2980 H   0  0  0  0  0  0  0  0  0  0  0  0
   56.8938   26.7352   47.7367 H   0  0  0  0  0  0  0  0  0  0  0  0
   53.2190   25.5710   45.5750 H   0  0  0  0  0  0  0  0  0  0  0  0
   58.7364   24.3333   45.9211 H   0  0  0  0  0  0  0  0  0  0  0  0
   58.0707   22.8138   46.6049 H   0  0  0  0  0  0  0  0  0  0  0  0
   58.5017   23.6039   43.7316 H   0  0  0  0  0  0  0  0  0  0  0  0
   59.0829   22.1310   44.7033 H   0  0  0  0  0  0  0  0  0  0  0  0
   57.0211   22.3131   42.8859 H   0  0  0  0  0  0  0  0  0  0  0  0
   57.5455   20.9601   44.0511 H   0  0  0  0  0  0  0  0  0  0  0  0
   55.0732   21.7681   43.8921 H   0  0  0  0  0  0  0  0  0  0  0  0
   55.8592   21.2778   45.4265 H   0  0  0  0  0  0  0  0  0  0  0  0
   58.0766   28.6149   47.6975 H   0  0  0  0  0  0  0  0  0  0  0  0
  1  2  2  0
  2  3  1  0
  3  4  1  0
  4  5  1  0
  5  6  1  0
  6  7  2  0
  6  8  1  0
  8  9  2  0
  9 10  1  0
 10 11  2  0
 11 12  1  0
 12 13  2  0
 13 14  1  0
 14 15  2  0
  2 16  1  0
 16 17  1  0
 17 18  2  0
 18 19  1  0
 19 20  2  0
 20 21  1  0
 21 22  1  0
 22 23  1  0
 23 24  2  0
 24 25  1  0
 25 26  1  0
 26 27  2  0
 26 28  1  0
 28 29  2  0
 29 30  1  0
 30 31  1  0
 31 32  1  0
 32 33  1  0
 21 34  2  0
 14  4  1  0
 34 17  1  0
 13  8  1  0
 29 23  1  0
 33 28  1  0
  3 35  1  0
  3 36  1  0
  5 37  1  0
  9 38  1  0
 10 39  1  0
 11 40  1  0
 12 41  1  0
 16 42  1  0
 18 43  1  0
 19 44  1  0
 20 45  1  0
 22 46  1  0
 22 47  1  0
 25 48  1  0
 30 49  1  0
 30 50  1  0
 31 51  1  0
 31 52  1  0
 32 53  1  0
 32 54  1  0
 33 55  1  0
 33 56  1  0
 34 57  1  0
M  END
>  <smiles>  (57) 
O=C(Cn1[nH]c(=O)c2ccccc2c1=O)Nc1cccc(Cc2n[nH]c(=O)c3c2CCCC3)c1

>  <score_type>  (57) 
oracle

>  <origin>  (57) 
adg

>  <m_score__min__energy>  (57) 
-10.68

>  <m_primary>  (57) 
energy

$$$$
57:0
     RDKit          3D

 55 58  0  0  0  0  0  0  0  0999 V2000
   61.0060   29.7420   45.9660 C   0  0  0  0  0  0  0  0  0  0  0  0
   60.0390   30.6730   46.0010 C   0  0  0  0  0  0  0  0  0  0  0  0
   58.7200   30.5560   45.5310 C   0  0  0  0  0  0  0  0  0  0  0  0
   58.1150   29.5860   44.8160 C   0  0  0  0  0  0  0  0  0  0  0  0
   57.4920   28.3710   45.3740 C   0  0  0  0  0  0  0  0  0  0  0  0
   56.1050   28.1820   45.2810 C   0  0  0  0  0  0  0  0  0  0  0  0
   55.2970   29.1590   44.7070 O   0  0  0  0  0  0  0  0  0  0  0  0
   55.5450   27.0410   45.7630 N   0  0  0  0  0  0  0  0  0  0  0  0
   56.3070   26.0660   46.3230 C   0  0  0  0  0  0  0  0  0  0  0  0
   55.7640   25.0210   46.7650 O   0  0  0  0  0  0  0  0  0  0  0  0
   57.6540   26.2160   46.4000 N   0  0  0  0  0  0  0  0  0  0  0  0
   58.2630   27.3360   45.9330 C   0  0  0  0  0  0  0  0  0  0  0  0
   59.5170   27.4330   46.0030 O   0  0  0  0  0  0  0  0  0  0  0  0
   58.0570   31.7010   45.9460 C   0  0  0  0  0  0  0  0  0  0  0  0
   58.9860   32.4900   46.5920 C   0  0  0  0  0  0  0  0  0  0  0  0
   58.6890   33.8190   47.2150 C   0  0  0  0  0  0  0  0  0  0  0  0
   60.1830   31.8670   46.6310 N   0  0  0  0  0  0  0  0  0  0  0  0
   61.3660   32.3640   47.2800 C   0  0  0  0  0  0  0  0  0  0  0  0
   62.1120   33.3830   46.6720 C   0  0  0  0  0  0  0  0  0  0  0  0
   63.2770   33.8580   47.2780 C   0  0  0  0  0  0  0  0  0  0  0  0
   63.7040   33.3160   48.4900 C   0  0  0  0  0  0  0  0  0  0  0  0
   62.9690   32.2960   49.1020 C   0  0  0  0  0  0  0  0  0  0  0  0
   61.7910   31.8070   48.5000 C   0  0  0  0  0  0  0  0  0  0  0  0
   61.0250   30.7690   49.0600 O   0  0  0  0  0  0  0  0  0  0  0  0
   60.4500   30.7500   50.3670 C   0  0  0  0  0  0  0  0  0  0  0  0
   58.9300   30.5540   50.3190 C   0  0  0  0  0  0  0  0  0  0  0  0
   58.2260   31.8550   50.2050 N   0  0  0  0  0  0  0  0  0  0  0  0
   57.3020   32.0810   51.3260 C   0  0  0  0  0  0  0  0  0  0  0  0
   58.0830   32.7680   52.4310 C   0  0  0  0  0  0  0  0  0  0  0  0
   59.2290   33.4650   51.7230 C   0  0  0  0  0  0  0  0  0  0  0  0
   59.1670   32.9860   50.2770 C   0  0  0  0  0  0  0  0  0  0  0  0
   62.0026   29.9686   46.3727 H   0  0  0  0  0  0  0  0  0  0  0  0
   60.8015   28.7527   45.5306 H   0  0  0  0  0  0  0  0  0  0  0  0
   58.0834   29.7114   43.7236 H   0  0  0  0  0  0  0  0  0  0  0  0
   54.3280   28.9680   44.4840 H   0  0  0  0  0  0  0  0  0  0  0  0
   56.9936   31.9353   45.7899 H   0  0  0  0  0  0  0  0  0  0  0  0
   58.7104   33.7233   48.3106 H   0  0  0  0  0  0  0  0  0  0  0  0
   59.4458   34.5508   46.8960 H   0  0  0  0  0  0  0  0  0  0  0  0
   57.6927   34.1591   46.8960 H   0  0  0  0  0  0  0  0  0  0  0  0
   61.7788   33.8099   45.7145 H   0  0  0  0  0  0  0  0  0  0  0  0
   63.8581   34.6599   46.7992 H   0  0  0  0  0  0  0  0  0  0  0  0
   64.6217   33.6920   48.9659 H   0  0  0  0  0  0  0  0  0  0  0  0
   63.3113   31.8728   50.0579 H   0  0  0  0  0  0  0  0  0  0  0  0
   60.8972   29.9247   50.9405 H   0  0  0  0  0  0  0  0  0  0  0  0
   60.6542   31.7200   50.8439 H   0  0  0  0  0  0  0  0  0  0  0  0
   58.6756   29.9307   49.4491 H   0  0  0  0  0  0  0  0  0  0  0  0
   58.6115   30.0655   51.2517 H   0  0  0  0  0  0  0  0  0  0  0  0
   56.4681   32.7210   51.0019 H   0  0  0  0  0  0  0  0  0  0  0  0
   56.8851   31.1274   51.6821 H   0  0  0  0  0  0  0  0  0  0  0  0
   57.4501   33.4990   52.9555 H   0  0  0  0  0  0  0  0  0  0  0  0
   58.4372   32.0568   53.1917 H   0  0  0  0  0  0  0  0  0  0  0  0
   59.1038   34.5568   51.7719 H   0  0  0  0  0  0  0  0  0  0  0  0
   60.1980   33.2321   52.1886 H   0  0  0  0  0  0  0  0  0  0  0  0
   58.8169   33.8031   49.6291 H   0  0  0  0  0  0  0  0  0  0  0  0
   60.1652   32.6710   49.9387 H   0  0  0  0  0  0  0  0  0  0  0  0
  1  2  2  0
  2  3  1  0
  3  4  2  3
  4  5  1  0
  5  6  2  0
  6  7  1  0
  6  8  1  0
  8  9  1  0
  9 10  2  0
  9 11  1  0
 11 12  1  0
 12 13  2  0
  3 14  1  0
 14 15  2  0
 15 16  1  0
 15 17  1  0
 17 18  1  0
 18 19  2  0
 19 20  1  0
 20 21  2  0
 21 22  1  0
 22 23  2  0
 23 24  1  0
 24 25  1  0
 25 26  1  0
 26 27  1  0
 27 28  1  0
 28 29  1  0
 29 30  1  0
 30 31  1  0
 17  2  1  0
 23 18  1  0
 31 27  1  0
 12  5  1  0
  1 32  1  0
  1 33  1  0
  4 34  1  0
  7 35  1  0
 14 36  1  0
 16 37  1  0
 16 38  1  0
 16 39  1  0
 19 40  1  0
 20 41  1  0
 21 42  1  0
 22 43  1  0
 25 44  1  0
 25 45  1  0
 26 46  1  0
 26 47  1  0
 28 48  1  0
 28 49  1  0
 29 50  1  0
 29 51  1  0
 30 52  1  0
 30 53  1  0
 31 54  1  0
 31 55  1  0
M  CHG  2   8  -1  11  -1
M  END
>  <UniqueID>  (58) 
54

>  <SMILES>  (58) 
C=c1c(=Cc2c(O)[n-]c(=O)[n-]c2=O)cc(C)n1-c1ccccc1OCCN1CCCC1

>  <Energy>  (58) 
109.08344220817732

>  <Genealogy>  (58) 
C=c1c(=Cc2c(O)[n-]c(=O)[n-]c2=O)cc(C)n1-c1ccccc1OCCN1CCCC1 (protonated)
C=c1c(=Cc2c(O)[n-]c(=O)[n-]c2=O)cc(C)n1-c1ccccc1OCCN1CCCC1 (3D coordinates assigned)
C=c1c(=Cc2c(O)[n-]c(=O)[n-]c2=O)cc(C)n1-c1ccccc1OCCN1CCCC1 (nonaromatic ring conformer: 109.08344220817732 kcal/mol)

>  <smiles>  (58) 
C=c1c(=Cc2c(O)[nH]c(=O)[nH]c2=O)cc(C)n1-c1ccccc1OCCN1CCCC1

>  <score_type>  (58) 
oracle

>  <origin>  (58) 
adg

>  <m_score__min__energy>  (58) 
-13.9

>  <m_primary>  (58) 
energy

$$$$
58:0
     RDKit          3D

 61 64  0  0  0  0  0  0  0  0999 V2000
   62.7210   31.4660   47.4930 C   0  0  0  0  0  0  0  0  0  0  0  0
   62.4600   32.9090   47.5570 N   0  0  0  0  0  0  0  0  0  0  0  0
   63.2890   33.7960   46.7430 C   0  0  0  0  0  0  0  0  0  0  0  0
   61.8180   33.4510   48.7220 C   0  0  0  0  0  0  0  0  0  0  0  0
   62.5350   33.9510   49.6270 O   0  0  0  0  0  0  0  0  0  0  0  0
   60.3100   33.4030   48.9220 C   0  0  2  0  0  0  0  0  0  0  0  0
   59.5110   34.5650   48.2620 C   0  0  0  0  0  0  0  0  0  0  0  0
   58.8640   34.2860   46.9270 C   0  0  0  0  0  0  0  0  0  0  0  0
   59.5670   34.5000   45.7300 C   0  0  0  0  0  0  0  0  0  0  0  0
   58.9850   34.1680   44.4900 C   0  0  0  0  0  0  0  0  0  0  0  0
   57.7240   33.5750   44.4450 C   0  0  0  0  0  0  0  0  0  0  0  0
   57.0310   33.3240   45.6330 C   0  0  0  0  0  0  0  0  0  0  0  0
   57.5960   33.6740   46.8660 C   0  0  0  0  0  0  0  0  0  0  0  0
   60.0390   33.4610   50.3630 N   0  0  0  0  0  0  0  0  0  0  0  0
   59.4130   32.2500   50.7600 C   0  0  0  0  0  0  0  0  0  0  0  0
   59.0520   32.0110   51.9420 O   0  0  0  0  0  0  0  0  0  0  0  0
   59.2350   31.3460   49.6870 N   0  0  0  0  0  0  0  0  0  0  0  0
   58.8480   29.9380   49.7750 C   0  0  0  0  0  0  0  0  0  0  0  0
   59.4900   29.1540   48.6670 C   0  0  0  0  0  0  0  0  0  0  0  0
   60.7140   29.3150   48.4150 O   0  0  0  0  0  0  0  0  0  0  0  0
   58.6930   28.2730   47.8700 N   0  0  0  0  0  0  0  0  0  0  0  0
   58.3530   28.5170   46.5000 C   0  0  0  0  0  0  0  0  0  0  0  0
   57.8110   29.7640   46.1640 C   0  0  0  0  0  0  0  0  0  0  0  0
   57.4540   30.0460   44.8390 C   0  0  0  0  0  0  0  0  0  0  0  0
   57.6430   29.0830   43.8450 C   0  0  0  0  0  0  0  0  0  0  0  0
   58.1670   27.8290   44.1760 C   0  0  0  0  0  0  0  0  0  0  0  0
   58.5070   27.5300   45.4990 C   0  0  0  0  0  0  0  0  0  0  0  0
   59.0620   25.8660   45.8820 S   0  0  0  0  0  0  0  0  0  0  0  0
   57.5190   25.1230   45.3470 C   0  0  0  0  0  0  0  0  0  0  0  0
   56.3400   25.3850   46.0540 C   0  0  0  0  0  0  0  0  0  0  0  0
   55.1340   24.8400   45.6160 C   0  0  0  0  0  0  0  0  0  0  0  0
   55.0940   24.0220   44.4840 C   0  0  0  0  0  0  0  0  0  0  0  0
   56.2770   23.7380   43.7850 C   0  0  0  0  0  0  0  0  0  0  0  0
   57.4910   24.2900   44.2170 C   0  0  0  0  0  0  0  0  0  0  0  0
   59.7790   32.0270   48.5650 C   0  0  0  0  0  0  0  0  0  0  0  0
   59.8480   31.5000   47.4260 O   0  0  0  0  0  0  0  0  0  0  0  0
   62.7942   31.0610   48.5131 H   0  0  0  0  0  0  0  0  0  0  0  0
   61.8984   30.9679   46.9590 H   0  0  0  0  0  0  0  0  0  0  0  0
   63.6660   31.2876   46.9590 H   0  0  0  0  0  0  0  0  0  0  0  0
   63.8913   34.4404   47.4002 H   0  0  0  0  0  0  0  0  0  0  0  0
   63.9560   33.1943   46.1081 H   0  0  0  0  0  0  0  0  0  0  0  0
   62.6436   34.4208   46.1081 H   0  0  0  0  0  0  0  0  0  0  0  0
   58.7140   34.8576   48.9614 H   0  0  0  0  0  0  0  0  0  0  0  0
   60.2603   35.3437   48.0568 H   0  0  0  0  0  0  0  0  0  0  0  0
   60.5791   34.9298   45.7605 H   0  0  0  0  0  0  0  0  0  0  0  0
   59.5268   34.3772   43.5558 H   0  0  0  0  0  0  0  0  0  0  0  0
   57.2756   33.3054   43.4774 H   0  0  0  0  0  0  0  0  0  0  0  0
   56.0389   32.8501   45.5993 H   0  0  0  0  0  0  0  0  0  0  0  0
   57.0447   33.4692   47.7956 H   0  0  0  0  0  0  0  0  0  0  0  0
   60.2160   34.2810   50.9900 H   0  0  0  0  0  0  0  0  0  0  0  0
   59.1737   29.5315   50.7439 H   0  0  0  0  0  0  0  0  0  0  0  0
   57.7546   29.8597   49.6835 H   0  0  0  0  0  0  0  0  0  0  0  0
   57.6649   30.5256   46.9442 H   0  0  0  0  0  0  0  0  0  0  0  0
   57.0249   31.0256   44.5814 H   0  0  0  0  0  0  0  0  0  0  0  0
   57.3797   29.3108   42.8016 H   0  0  0  0  0  0  0  0  0  0  0  0
   58.3126   27.0730   43.3903 H   0  0  0  0  0  0  0  0  0  0  0  0
   56.3649   26.0190   46.9526 H   0  0  0  0  0  0  0  0  0  0  0  0
   54.2062   25.0557   46.1661 H   0  0  0  0  0  0  0  0  0  0  0  0
   54.1370   23.6015   44.1415 H   0  0  0  0  0  0  0  0  0  0  0  0
   56.2519   23.0842   42.9007 H   0  0  0  0  0  0  0  0  0  0  0  0
   58.4206   24.0708   43.6713 H   0  0  0  0  0  0  0  0  0  0  0  0
  1  2  1  0
  2  3  1  0
  2  4  1  0
  4  5  2  0
  4  6  1  0
  6  7  1  6
  7  8  1  0
  8  9  2  0
  9 10  1  0
 10 11  2  0
 11 12  1  0
 12 13  2  0
  6 14  1  0
 14 15  1  0
 15 16  2  0
 15 17  1  0
 17 18  1  0
 18 19  1  0
 19 20  2  0
 19 21  1  0
 21 22  1  0
 22 23  2  0
 23 24  1  0
 24 25  2  0
 25 26  1  0
 26 27  2  0
 27 28  1  0
 28 29  1  0
 29 30  2  0
 30 31  1  0
 31 32  2  0
 32 33  1  0
 33 34  2  0
 17 35  1  0
 35 36  2  0
 35  6  1  0
 13  8  1  0
 27 22  1  0
 34 29  1  0
  1 37  1  0
  1 38  1  0
  1 39  1  0
  3 40  1  0
  3 41  1  0
  3 42  1  0
  7 43  1  0
  7 44  1  0
  9 45  1  0
 10 46  1  0
 11 47  1  0
 12 48  1  0
 13 49  1  0
 14 50  1  0
 18 51  1  0
 18 52  1  0
 23 53  1  0
 24 54  1  0
 25 55  1  0
 26 56  1  0
 30 57  1  0
 31 58  1  0
 32 59  1  0
 33 60  1  0
 34 61  1  0
M  CHG  1  21  -1
M  END
>  <UniqueID>  (59) 
55

>  <SMILES>  (59) 
CN(C)C(=O)[C@]1(Cc2ccccc2)NC(=O)N(CC(=O)[N-]c2ccccc2Sc2ccccc2)C1=O

>  <Energy>  (59) 
92.0351794167146

>  <Genealogy>  (59) 
CN(C)C(=O)C1(Cc2ccccc2)NC(=O)N(CC(=O)[N-]c2ccccc2Sc2ccccc2)C1=O (protonated)
CN(C)C(=O)[C@]1(Cc2ccccc2)NC(=O)N(CC(=O)[N-]c2ccccc2Sc2ccccc2)C1=O (chirality)
CN(C)C(=O)[C@]1(Cc2ccccc2)NC(=O)N(CC(=O)[N-]c2ccccc2Sc2ccccc2)C1=O (3D coordinates assigned)
CN(C)C(=O)[C@]1(Cc2ccccc2)NC(=O)N(CC(=O)[N-]c2ccccc2Sc2ccccc2)C1=O (nonaromatic ring conformer: 92.0351794167146 kcal/mol)

>  <smiles>  (59) 
CN(C)C(=O)C1(Cc2ccccc2)NC(=O)N(CC(=O)Nc2ccccc2Sc2ccccc2)C1=O

>  <score_type>  (59) 
oracle

>  <origin>  (59) 
adg

>  <m_score__min__energy>  (59) 
-11.800000000000001

>  <m_primary>  (59) 
energy

$$$$
59:0
     RDKit          3D

 47 49  0  0  0  0  0  0  0  0999 V2000
   63.5130   33.4710   46.3750 C   0  0  0  0  0  0  0  0  0  0  0  0
   63.1710   33.1650   47.8080 C   0  0  0  0  0  0  0  0  0  0  0  0
   64.0850   32.4600   48.6060 C   0  0  0  0  0  0  0  0  0  0  0  0
   63.7790   32.1640   49.9340 C   0  0  0  0  0  0  0  0  0  0  0  0
   62.5610   32.5680   50.4780 C   0  0  0  0  0  0  0  0  0  0  0  0
   61.6220   33.2560   49.6930 C   0  0  0  0  0  0  0  0  0  0  0  0
   60.4240   33.7130   50.2570 O   0  0  0  0  0  0  0  0  0  0  0  0
   59.3780   32.8970   50.7200 C   0  0  0  0  0  0  0  0  0  0  0  0
   59.1450   31.6070   50.2090 C   0  0  0  0  0  0  0  0  0  0  0  0
   58.0500   30.8600   50.6470 C   0  0  0  0  0  0  0  0  0  0  0  0
   57.1650   31.3840   51.6060 C   0  0  0  0  0  0  0  0  0  0  0  0
   55.9800   30.6140   52.0600 C   0  0  0  0  0  0  0  0  0  0  0  0
   54.6830   31.2120   52.1380 N   0  0  0  0  0  0  0  0  0  0  0  0
   56.1100   29.4000   52.3740 O   0  0  0  0  0  0  0  0  0  0  0  0
   57.3980   32.6760   52.1080 C   0  0  0  0  0  0  0  0  0  0  0  0
   58.4960   33.4220   51.6700 C   0  0  0  0  0  0  0  0  0  0  0  0
   61.9230   33.5480   48.3430 C   0  0  0  0  0  0  0  0  0  0  0  0
   61.0020   34.2730   47.5090 N   0  0  0  0  0  0  0  0  0  0  0  0
   59.5710   34.1640   47.5040 C   0  0  0  0  0  0  0  0  0  0  0  0
   58.9000   35.0320   48.1230 O   0  0  0  0  0  0  0  0  0  0  0  0
   58.8630   33.0930   46.7640 C   0  0  0  0  0  0  0  0  0  0  0  0
   59.4110   31.8000   46.7050 C   0  0  0  0  0  0  0  0  0  0  0  0
   58.7800   30.7970   45.9640 C   0  0  0  0  0  0  0  0  0  0  0  0
   57.5840   31.0670   45.2860 C   0  0  0  0  0  0  0  0  0  0  0  0
   56.8140   29.8090   44.3280 S   0  0  0  0  0  0  0  0  0  0  0  0
   55.1870   29.5610   44.8590 N   0  0  0  0  0  0  0  0  0  0  0  0
   56.7910   30.2180   42.8820 O   0  0  0  0  0  0  0  0  0  0  0  0
   57.5850   28.5280   44.4730 O   0  0  0  0  0  0  0  0  0  0  0  0
   57.0090   32.3410   45.3810 C   0  0  0  0  0  0  0  0  0  0  0  0
   57.6430   33.3480   46.1130 C   0  0  0  0  0  0  0  0  0  0  0  0
   64.3324   34.2041   46.3421 H   0  0  0  0  0  0  0  0  0  0  0  0
   63.8272   32.5469   45.8677 H   0  0  0  0  0  0  0  0  0  0  0  0
   62.6294   33.8856   45.8677 H   0  0  0  0  0  0  0  0  0  0  0  0
   65.0479   32.1392   48.1818 H   0  0  0  0  0  0  0  0  0  0  0  0
   64.5003   31.6106   50.5533 H   0  0  0  0  0  0  0  0  0  0  0  0
   62.3335   32.3460   51.5311 H   0  0  0  0  0  0  0  0  0  0  0  0
   59.8302   31.1843   49.4594 H   0  0  0  0  0  0  0  0  0  0  0  0
   57.8780   29.8532   50.2386 H   0  0  0  0  0  0  0  0  0  0  0  0
   54.4870   32.1570   51.7440 H   0  0  0  0  0  0  0  0  0  0  0  0
   53.8810   30.6640   52.5210 H   0  0  0  0  0  0  0  0  0  0  0  0
   56.7102   33.1039   52.8522 H   0  0  0  0  0  0  0  0  0  0  0  0
   58.6677   34.4299   52.0757 H   0  0  0  0  0  0  0  0  0  0  0  0
   60.3425   31.5761   47.2455 H   0  0  0  0  0  0  0  0  0  0  0  0
   59.2240   29.7919   45.9129 H   0  0  0  0  0  0  0  0  0  0  0  0
   55.2300   28.9330   45.6920 H   0  0  0  0  0  0  0  0  0  0  0  0
   56.0538   32.5494   44.8769 H   0  0  0  0  0  0  0  0  0  0  0  0
   57.1852   34.3459   46.1805 H   0  0  0  0  0  0  0  0  0  0  0  0
  1  2  1  0
  2  3  2  0
  3  4  1  0
  4  5  2  0
  5  6  1  0
  6  7  1  0
  7  8  1  0
  8  9  2  0
  9 10  1  0
 10 11  2  0
 11 12  1  0
 12 13  1  0
 12 14  2  0
 11 15  1  0
 15 16  2  0
  6 17  2  0
 17 18  1  0
 18 19  1  0
 19 20  2  0
 19 21  1  0
 21 22  2  0
 22 23  1  0
 23 24  2  0
 24 25  1  0
 25 26  1  0
 25 27  2  0
 25 28  2  0
 24 29  1  0
 29 30  2  0
 17  2  1  0
 30 21  1  0
 16  8  1  0
  1 31  1  0
  1 32  1  0
  1 33  1  0
  3 34  1  0
  4 35  1  0
  5 36  1  0
  9 37  1  0
 10 38  1  0
 13 39  1  0
 13 40  1  0
 15 41  1  0
 16 42  1  0
 22 43  1  0
 23 44  1  0
 26 45  1  0
 29 46  1  0
 30 47  1  0
M  CHG  2  18  -1  26  -1
M  END
>  <UniqueID>  (60) 
56

>  <SMILES>  (60) 
Cc1cccc(Oc2ccc(C(N)=O)cc2)c1[N-]C(=O)c1ccc(S([NH-])(=O)=O)cc1

>  <Energy>  (60) 
60.13135180015811

>  <Genealogy>  (60) 
Cc1cccc(Oc2ccc(C(N)=O)cc2)c1[N-]C(=O)c1ccc(S([NH-])(=O)=O)cc1 (protonated)
Cc1cccc(Oc2ccc(C(N)=O)cc2)c1[N-]C(=O)c1ccc(S([NH-])(=O)=O)cc1 (3D coordinates assigned)
Cc1cccc(Oc2ccc(C(N)=O)cc2)c1[N-]C(=O)c1ccc(S([NH-])(=O)=O)cc1 (optimized conformer: 60.13135180015811 kcal/mol)

>  <smiles>  (60) 
Cc1cccc(Oc2ccc(C(N)=O)cc2)c1NC(=O)c1ccc(S(N)(=O)=O)cc1

>  <score_type>  (60) 
oracle

>  <origin>  (60) 
adg

>  <m_score__min__energy>  (60) 
-12.9

>  <m_primary>  (60) 
energy

$$$$
60:0
     RDKit          3D

 12 12  0  0  0  0  0  0  0  0999 V2000
   55.1750   29.2590   44.8640 N   0  0  0  0  0  0  0  0  0  0  0  0
   56.5690   29.3250   45.1550 C   0  0  0  0  0  0  0  0  0  0  0  0
   57.1670   30.4320   45.0840 O   0  0  0  0  0  0  0  0  0  0  0  0
   57.3130   28.1140   45.5350 C   0  0  0  0  0  0  0  0  0  0  0  0
   58.9920   27.9590   45.4820 S   0  0  0  0  0  0  0  0  0  0  0  0
   58.9510   26.3760   46.0450 C   0  0  0  0  0  0  0  0  0  0  0  0
   59.9710   25.6640   46.2320 O   0  0  0  0  0  0  0  0  0  0  0  0
   57.6970   25.9420   46.2820 N   0  0  0  0  0  0  0  0  0  0  0  0
   56.7820   26.9090   45.9980 C   0  0  0  0  0  0  0  0  0  0  0  0
   55.4180   26.6920   46.1630 O   0  0  0  0  0  0  0  0  0  0  0  0
   54.4630   29.3570   45.6220 H   0  0  0  0  0  0  0  0  0  0  0  0
   54.7700   27.4700   46.1960 H   0  0  0  0  0  0  0  0  0  0  0  0
  1  2  1  0
  2  3  2  0
  2  4  1  0
  4  5  1  0
  5  6  1  0
  6  7  2  0
  6  8  1  0
  8  9  1  0
  9 10  1  0
  9  4  2  0
  1 11  1  0
 10 12  1  0
M  CHG  2   1  -1   8  -1
M  END
>  <UniqueID>  (61) 
57

>  <SMILES>  (61) 
[NH-]C(=O)c1sc(=O)[n-]c1O

>  <Energy>  (61) 
39.95713783613121

>  <Genealogy>  (61) 
[NH-]C(=O)c1sc(=O)[n-]c1O (protonated)
[NH-]C(=O)c1sc(=O)[n-]c1O (3D coordinates assigned)
[NH-]C(=O)c1sc(=O)[n-]c1O (optimized conformer: 39.95713783613121 kcal/mol)

>  <smiles>  (61) 
NC(=O)c1sc(=O)[nH]c1O

>  <score_type>  (61) 
oracle

>  <origin>  (61) 
adg

>  <m_score__min__energy>  (61) 
-10.199999999999999

>  <m_primary>  (61) 
energy

$$$$
61:0
     RDKit          3D

 28 29  0  0  0  0  0  0  0  0999 V2000
   54.7740   26.7080   45.2400 H   0  0  0  0  0  0  0  0  0  0  0  0
   55.3630   26.3780   46.0380 N   0  0  0  0  0  0  0  0  0  0  0  0
   56.9270   27.0800   45.8340 S   0  0  0  0  0  0  0  0  0  0  0  0
   57.6530   27.0670   47.1490 O   0  0  0  0  0  0  0  0  0  0  0  0
   57.7160   26.2880   44.8300 O   0  0  0  0  0  0  0  0  0  0  0  0
   56.7620   28.7320   45.2770 C   0  0  0  0  0  0  0  0  0  0  0  0
   55.5870   29.2820   44.9010 N   0  0  0  0  0  0  0  0  0  0  0  0
   55.7110   30.5400   44.4790 N   0  0  0  0  0  0  0  0  0  0  0  0
   56.9840   30.9910   44.5060 C   0  0  0  0  0  0  0  0  0  0  0  0
   57.2920   32.1970   44.1300 N   0  0  0  0  0  0  0  0  0  0  0  0
   57.8670   33.2570   44.9090 C   0  0  0  0  0  0  0  0  0  0  0  0
   57.3670   34.4080   44.8080 O   0  0  0  0  0  0  0  0  0  0  0  0
   59.1370   33.0990   45.7040 C   0  0  0  0  0  0  0  0  0  0  0  0
   59.1649   32.0896   46.1402 H   0  0  0  0  0  0  0  0  0  0  0  0
   59.9931   33.2519   45.0304 H   0  0  0  0  0  0  0  0  0  0  0  0
   59.2270   34.3340   47.0490 S   0  0  0  0  0  0  0  0  0  0  0  0
   60.9540   34.0390   47.4500 C   0  0  0  0  0  0  0  0  0  0  0  0
   61.8760   33.8050   46.4230 C   0  0  0  0  0  0  0  0  0  0  0  0
   61.5448   33.8169   45.3741 H   0  0  0  0  0  0  0  0  0  0  0  0
   63.2180   33.5560   46.7290 C   0  0  0  0  0  0  0  0  0  0  0  0
   63.9391   33.3646   45.9207 H   0  0  0  0  0  0  0  0  0  0  0  0
   63.6440   33.5500   48.0590 C   0  0  0  0  0  0  0  0  0  0  0  0
   64.6973   33.3417   48.2983 H   0  0  0  0  0  0  0  0  0  0  0  0
   62.7310   33.8090   49.0870 C   0  0  0  0  0  0  0  0  0  0  0  0
   63.0688   33.8146   50.1338 H   0  0  0  0  0  0  0  0  0  0  0  0
   61.3880   34.0610   48.7840 C   0  0  0  0  0  0  0  0  0  0  0  0
   60.5120   34.3060   49.7900 F   0  0  0  0  0  0  0  0  0  0  0  0
   58.0380   29.8120   45.1030 S   0  0  0  0  0  0  0  0  0  0  0  0
  1  2  1  0
  2  3  1  0
  3  4  2  0
  3  5  2  0
  3  6  1  0
  6  7  2  0
  7  8  1  0
  8  9  1  0
  9 10  2  0
 10 11  1  0
 11 12  2  0
 11 13  1  0
 13 14  1  0
 13 15  1  0
 13 16  1  0
 16 17  1  0
 17 18  2  0
 18 19  1  0
 18 20  1  0
 20 21  1  0
 20 22  2  0
 22 23  1  0
 22 24  1  0
 24 25  1  0
 24 26  2  0
 26 27  1  0
  9 28  1  0
 28  6  1  0
 26 17  1  0
M  CHG  2   2  -1   8  -1
M  END
>  <UniqueID>  (62) 
58

>  <SMILES>  (62) 
[NH-]S(=O)(=O)c1n[n-]/c(=N/C(=O)CSc2ccccc2F)s1

>  <Energy>  (62) 
63.45741479289363

>  <Genealogy>  (62) 
[NH-]S(=O)(=O)c1n[n-]c(=NC(=O)CSc2ccccc2F)s1 (protonated)
[NH-]S(=O)(=O)c1n[n-]/c(=N/C(=O)CSc2ccccc2F)s1 (cis-trans isomerization)
[NH-]S(=O)(=O)c1n[n-]/c(=N/C(=O)CSc2ccccc2F)s1 (3D coordinates assigned)
[NH-]S(=O)(=O)c1n[n-]/c(=N/C(=O)CSc2ccccc2F)s1 (optimized conformer: 63.45741479289363 kcal/mol)

>  <smiles>  (62) 
NS(=O)(=O)c1n[nH]c(=NC(=O)CSc2ccccc2F)s1

>  <score_type>  (62) 
oracle

>  <origin>  (62) 
adg

>  <m_score__min__energy>  (62) 
-12.57

>  <m_primary>  (62) 
energy

$$$$
62:0
     RDKit          3D

 18 18  0  0  0  0  0  0  0  0999 V2000
   55.1410   29.3350   44.8570 O   0  0  0  0  0  0  0  0  0  0  0  0
   56.3810   29.5570   44.8790 C   0  0  0  0  0  0  0  0  0  0  0  0
   56.8460   30.8660   44.8650 O   0  0  0  0  0  0  0  0  0  0  0  0
   57.3510   28.4160   44.8710 C   0  0  0  0  0  0  0  0  0  0  0  0
   57.5570   27.8470   46.2790 C   0  0  0  0  0  0  0  0  0  0  0  0
   57.1730   26.4350   46.3380 N   0  0  0  0  0  0  0  0  0  0  0  0
   57.9810   25.3810   46.5660 C   0  0  0  0  0  0  0  0  0  0  0  0
   59.3550   25.4760   46.7480 O   0  0  0  0  0  0  0  0  0  0  0  0
   57.2590   24.2040   46.6000 C   0  0  0  0  0  0  0  0  0  0  0  0
   55.9380   24.5580   46.3880 C   0  0  0  0  0  0  0  0  0  0  0  0
   55.9290   25.9300   46.2380 C   0  0  0  0  0  0  0  0  0  0  0  0
   54.7920   26.6980   46.0160 O   0  0  0  0  0  0  0  0  0  0  0  0
   56.9631   27.6211   44.2170 H   0  0  0  0  0  0  0  0  0  0  0  0
   58.3188   28.7871   44.5027 H   0  0  0  0  0  0  0  0  0  0  0  0
   58.6179   27.9426   46.5536 H   0  0  0  0  0  0  0  0  0  0  0  0
   56.9241   28.4110   46.9800 H   0  0  0  0  0  0  0  0  0  0  0  0
   57.6540   23.1904   46.7627 H   0  0  0  0  0  0  0  0  0  0  0  0
   55.0707   23.8826   46.3473 H   0  0  0  0  0  0  0  0  0  0  0  0
  1  2  2  0
  2  3  1  0
  2  4  1  0
  4  5  1  0
  5  6  1  0
  6  7  1  0
  7  8  1  0
  7  9  2  0
  9 10  1  0
 10 11  2  0
 11 12  1  0
 11  6  1  0
  4 13  1  0
  4 14  1  0
  5 15  1  0
  5 16  1  0
  9 17  1  0
 10 18  1  0
M  CHG  3   3  -1   8  -1  12  -1
M  END
>  <UniqueID>  (63) 
59

>  <SMILES>  (63) 
O=C([O-])CCn1c([O-])ccc1[O-]

>  <Energy>  (63) 
40.35396473352743

>  <Genealogy>  (63) 
O=C([O-])CCn1c([O-])ccc1[O-] (protonated)
O=C([O-])CCn1c([O-])ccc1[O-] (3D coordinates assigned)
O=C([O-])CCn1c([O-])ccc1[O-] (optimized conformer: 40.35396473352743 kcal/mol)

>  <smiles>  (63) 
O=C(O)CCn1c(O)ccc1O

>  <score_type>  (63) 
oracle

>  <origin>  (63) 
adg

>  <m_score__min__energy>  (63) 
-12.98

>  <m_primary>  (63) 
energy

$$$$
63:0
     RDKit          3D

 40 42  0  0  0  0  0  0  0  0999 V2000
   59.5960   35.3260   45.4920 C   0  0  0  0  0  0  0  0  0  0  0  0
   60.2140   34.5270   46.5940 C   0  0  0  0  0  0  0  0  0  0  0  0
   61.4410   33.8820   46.4010 C   0  0  0  0  0  0  0  0  0  0  0  0
   61.9850   33.1220   47.4380 C   0  0  0  0  0  0  0  0  0  0  0  0
   61.3030   33.0110   48.6510 C   0  0  0  0  0  0  0  0  0  0  0  0
   60.0770   33.6730   48.8180 C   0  0  0  0  0  0  0  0  0  0  0  0
   59.3220   33.5690   50.0850 C   0  0  0  0  0  0  0  0  0  0  0  0
   59.7260   34.1880   51.1050 O   0  0  0  0  0  0  0  0  0  0  0  0
   58.1720   32.7220   50.2060 N   0  0  0  0  0  0  0  0  0  0  0  0
   58.1030   31.5040   50.9600 C   0  0  0  0  0  0  0  0  0  0  0  0
   59.2260   30.6710   51.0090 C   0  0  0  0  0  0  0  0  0  0  0  0
   59.1950   29.4880   51.7500 C   0  0  0  0  0  0  0  0  0  0  0  0
   58.0440   29.1320   52.4560 C   0  0  0  0  0  0  0  0  0  0  0  0
   56.9110   29.9610   52.4310 C   0  0  0  0  0  0  0  0  0  0  0  0
   55.6900   29.6010   53.1910 C   0  0  0  0  0  0  0  0  0  0  0  0
   55.7630   29.4400   54.4380 O   0  0  0  0  0  0  0  0  0  0  0  0
   54.4290   29.3790   52.5440 N   0  0  0  0  0  0  0  0  0  0  0  0
   53.3590   30.3280   52.4320 C   0  0  0  0  0  0  0  0  0  0  0  0
   52.4480   30.5410   53.4830 C   0  0  0  0  0  0  0  0  0  0  0  0
   51.4080   31.4650   53.3370 C   0  0  0  0  0  0  0  0  0  0  0  0
   51.2600   32.1700   52.1390 C   0  0  0  0  0  0  0  0  0  0  0  0
   50.2280   33.0890   51.9960 O   0  0  0  0  0  0  0  0  0  0  0  0
   52.1480   31.9440   51.0820 C   0  0  0  0  0  0  0  0  0  0  0  0
   53.1900   31.0210   51.2260 C   0  0  0  0  0  0  0  0  0  0  0  0
   56.9550   31.1580   51.6970 C   0  0  0  0  0  0  0  0  0  0  0  0
   59.5670   34.4010   47.7850 N   0  0  0  0  0  0  0  0  0  0  0  0
   58.9767   36.1267   45.9225 H   0  0  0  0  0  0  0  0  0  0  0  0
   60.3887   35.7691   44.8713 H   0  0  0  0  0  0  0  0  0  0  0  0
   58.9679   34.6701   44.8713 H   0  0  0  0  0  0  0  0  0  0  0  0
   61.9715   33.9730   45.4417 H   0  0  0  0  0  0  0  0  0  0  0  0
   62.9495   32.6115   47.2995 H   0  0  0  0  0  0  0  0  0  0  0  0
   61.7236   32.4090   49.4700 H   0  0  0  0  0  0  0  0  0  0  0  0
   60.1381   30.9495   50.4609 H   0  0  0  0  0  0  0  0  0  0  0  0
   60.0796   28.8347   51.7777 H   0  0  0  0  0  0  0  0  0  0  0  0
   58.0248   28.1969   53.0350 H   0  0  0  0  0  0  0  0  0  0  0  0
   52.5540   29.9790   54.4226 H   0  0  0  0  0  0  0  0  0  0  0  0
   50.7057   31.6371   54.1660 H   0  0  0  0  0  0  0  0  0  0  0  0
   52.0271   32.4926   50.1363 H   0  0  0  0  0  0  0  0  0  0  0  0
   53.8795   30.8387   50.3886 H   0  0  0  0  0  0  0  0  0  0  0  0
   56.0847   31.8307   51.6983 H   0  0  0  0  0  0  0  0  0  0  0  0
  1  2  1  0
  2  3  2  0
  3  4  1  0
  4  5  2  0
  5  6  1  0
  6  7  1  0
  7  8  2  0
  7  9  1  0
  9 10  1  0
 10 11  2  0
 11 12  1  0
 12 13  2  0
 13 14  1  0
 14 15  1  0
 15 16  2  0
 15 17  1  0
 17 18  1  0
 18 19  2  0
 19 20  1  0
 20 21  2  0
 21 22  1  0
 21 23  1  0
 23 24  2  0
 14 25  2  0
  6 26  2  0
 26  2  1  0
 25 10  1  0
 24 18  1  0
  1 27  1  0
  1 28  1  0
  1 29  1  0
  3 30  1  0
  4 31  1  0
  5 32  1  0
 11 33  1  0
 12 34  1  0
 13 35  1  0
 19 36  1  0
 20 37  1  0
 23 38  1  0
 24 39  1  0
 25 40  1  0
M  CHG  3   9  -1  17  -1  22  -1
M  END
>  <UniqueID>  (64) 
60

>  <SMILES>  (64) 
Cc1cccc(C(=O)[N-]c2cccc(C(=O)[N-]c3ccc([O-])cc3)c2)n1

>  <Energy>  (64) 
52.69252408250104

>  <Genealogy>  (64) 
Cc1cccc(C(=O)[N-]c2cccc(C(=O)[N-]c3ccc([O-])cc3)c2)n1 (protonated)
Cc1cccc(C(=O)[N-]c2cccc(C(=O)[N-]c3ccc([O-])cc3)c2)n1 (3D coordinates assigned)
Cc1cccc(C(=O)[N-]c2cccc(C(=O)[N-]c3ccc([O-])cc3)c2)n1 (optimized conformer: 52.69252408250104 kcal/mol)

>  <smiles>  (64) 
Cc1cccc(C(=O)Nc2cccc(C(=O)Nc3ccc(O)cc3)c2)n1

>  <score_type>  (64) 
oracle

>  <origin>  (64) 
adg

>  <m_score__min__energy>  (64) 
-13.83

>  <m_primary>  (64) 
energy

$$$$
64:0
     RDKit          3D

 31 32  0  0  0  0  0  0  0  0999 V2000
   55.2420   29.3540   44.5930 N   0  0  0  0  0  0  0  0  0  0  0  0
   56.6630   29.4580   44.4600 C   0  0  0  0  0  0  0  0  0  0  0  0
   57.5380   28.0860   44.2480 S   0  0  0  0  0  0  0  0  0  0  0  0
   57.3310   30.7840   44.4890 C   0  0  0  0  0  0  0  0  0  0  0  0
   57.4140   31.5770   43.3300 C   0  0  0  0  0  0  0  0  0  0  0  0
   58.0470   32.8210   43.3670 C   0  0  0  0  0  0  0  0  0  0  0  0
   58.5990   33.2930   44.5580 C   0  0  0  0  0  0  0  0  0  0  0  0
   58.5230   32.5230   45.7260 C   0  0  0  0  0  0  0  0  0  0  0  0
   59.0840   33.0170   46.9540 N   0  0  0  0  0  0  0  0  0  0  0  0
   58.4120   32.7960   48.2370 C   0  0  0  0  0  0  0  0  0  0  0  0
   59.4090   32.4880   49.3780 C   0  0  0  0  0  0  0  0  0  0  0  0
   60.7920   33.1780   49.2860 C   0  0  0  0  0  0  0  0  0  0  0  0
   60.7590   34.5400   48.5900 C   0  0  0  0  0  0  0  0  0  0  0  0
   60.2580   34.2890   46.9040 S   0  0  0  0  0  0  0  0  0  0  0  0
   61.4490   33.8830   46.0820 O   0  0  0  0  0  0  0  0  0  0  0  0
   59.6470   35.5430   46.3500 O   0  0  0  0  0  0  0  0  0  0  0  0
   57.8880   31.2700   45.6860 C   0  0  0  0  0  0  0  0  0  0  0  0
   54.6580   30.1830   44.8380 H   0  0  0  0  0  0  0  0  0  0  0  0
   54.7690   28.4270   44.5120 H   0  0  0  0  0  0  0  0  0  0  0  0
   56.9771   31.2144   42.3878 H   0  0  0  0  0  0  0  0  0  0  0  0
   58.1106   33.4310   42.4538 H   0  0  0  0  0  0  0  0  0  0  0  0
   59.0961   34.2740   44.5802 H   0  0  0  0  0  0  0  0  0  0  0  0
   57.8437   33.7007   48.4988 H   0  0  0  0  0  0  0  0  0  0  0  0
   57.7510   31.9241   48.1241 H   0  0  0  0  0  0  0  0  0  0  0  0
   58.9418   32.7987   50.3241 H   0  0  0  0  0  0  0  0  0  0  0  0
   59.6140   31.4097   49.3050 H   0  0  0  0  0  0  0  0  0  0  0  0
   61.1772   33.3196   50.3066 H   0  0  0  0  0  0  0  0  0  0  0  0
   61.4357   32.5243   48.6791 H   0  0  0  0  0  0  0  0  0  0  0  0
   60.0406   35.2004   49.0977 H   0  0  0  0  0  0  0  0  0  0  0  0
   61.7533   35.0093   48.6254 H   0  0  0  0  0  0  0  0  0  0  0  0
   57.8258   30.6624   46.6008 H   0  0  0  0  0  0  0  0  0  0  0  0
  1  2  1  0
  2  3  2  0
  2  4  1  0
  4  5  2  0
  5  6  1  0
  6  7  2  0
  7  8  1  0
  8  9  1  0
  9 10  1  0
 10 11  1  0
 11 12  1  0
 12 13  1  0
 13 14  1  0
 14 15  2  0
 14 16  2  0
  8 17  2  0
 17  4  1  0
 14  9  1  0
  1 18  1  0
  1 19  1  0
  5 20  1  0
  6 21  1  0
  7 22  1  0
 10 23  1  0
 10 24  1  0
 11 25  1  0
 11 26  1  0
 12 27  1  0
 12 28  1  0
 13 29  1  0
 13 30  1  0
 17 31  1  0
M  END
>  <UniqueID>  (65) 
61

>  <SMILES>  (65) 
NC(=S)c1cccc(N2CCCCS2(=O)=O)c1

>  <Energy>  (65) 
38.828309609541805

>  <Genealogy>  (65) 
NC(=S)c1cccc(N2CCCCS2(=O)=O)c1 (3D coordinates assigned)
NC(=S)c1cccc(N2CCCCS2(=O)=O)c1 (nonaromatic ring conformer: 38.828309609541805 kcal/mol)

>  <smiles>  (65) 
NC(=S)c1cccc(N2CCCCS2(=O)=O)c1

>  <score_type>  (65) 
oracle

>  <origin>  (65) 
adg

>  <m_score__min__energy>  (65) 
-7.8099999999999996

>  <m_primary>  (65) 
energy

$$$$
65:0
     RDKit          3D

 30 32  0  0  0  0  0  0  0  0999 V2000
   57.4699   33.9032   47.1285 H   0  0  0  0  0  0  0  0  0  0  0  0
   57.6030   33.5070   46.1110 C   0  0  0  0  0  0  0  0  0  0  0  0
   56.9630   32.4730   45.6110 O   0  0  0  0  0  0  0  0  0  0  0  0
   57.3740   32.2840   44.3790 C   0  0  0  0  0  0  0  0  0  0  0  0
   56.8480   31.2150   43.4770 C   0  0  0  0  0  0  0  0  0  0  0  0
   57.4629   31.1710   42.5660 H   0  0  0  0  0  0  0  0  0  0  0  0
   55.8059   31.4454   43.2108 H   0  0  0  0  0  0  0  0  0  0  0  0
   56.8980   29.8940   44.1730 C   0  0  0  0  0  0  0  0  0  0  0  0
   55.8560   29.4450   44.7220 O   0  0  0  0  0  0  0  0  0  0  0  0
   58.1460   29.1860   44.2410 N   0  0  0  0  0  0  0  0  0  0  0  0
   58.4650   28.2140   45.0460 C   0  0  0  0  0  0  0  0  0  0  0  0
   60.0110   27.8270   45.6010 S   0  0  0  0  0  0  0  0  0  0  0  0
   59.4770   26.5140   46.5130 C   0  0  0  0  0  0  0  0  0  0  0  0
   60.1078   25.8484   47.1205 H   0  0  0  0  0  0  0  0  0  0  0  0
   58.0940   26.4210   46.3610 C   0  0  0  0  0  0  0  0  0  0  0  0
   57.2780   25.3320   46.9870 C   0  0  0  0  0  0  0  0  0  0  0  0
   57.7807   24.3656   46.8345 H   0  0  0  0  0  0  0  0  0  0  0  0
   57.1737   25.5302   48.0640 H   0  0  0  0  0  0  0  0  0  0  0  0
   55.9220   25.2900   46.3600 C   0  0  0  0  0  0  0  0  0  0  0  0
   55.1730   26.3850   46.1290 N   0  0  0  0  0  0  0  0  0  0  0  0
   54.0270   25.9620   45.6270 N   0  0  0  0  0  0  0  0  0  0  0  0
   54.1150   24.6220   45.5800 C   0  0  0  0  0  0  0  0  0  0  0  0
   53.1880   23.8840   45.1530 O   0  0  0  0  0  0  0  0  0  0  0  0
   55.2870   24.1450   46.0370 N   0  0  0  0  0  0  0  0  0  0  0  0
   57.5450   27.3600   45.5420 N   0  0  0  0  0  0  0  0  0  0  0  0
   56.5250   27.4080   45.3170 H   0  0  0  0  0  0  0  0  0  0  0  0
   58.3190   33.2320   44.0420 C   0  0  0  0  0  0  0  0  0  0  0  0
   58.8431   33.3369   43.0806 H   0  0  0  0  0  0  0  0  0  0  0  0
   58.4680   34.0200   45.1640 C   0  0  0  0  0  0  0  0  0  0  0  0
   59.1401   34.8829   45.2812 H   0  0  0  0  0  0  0  0  0  0  0  0
  1  2  1  0
  2  3  1  0
  3  4  1  0
  4  5  1  0
  5  6  1  0
  5  7  1  0
  5  8  1  0
  8  9  2  0
  8 10  1  0
 10 11  2  0
 11 12  1  0
 12 13  1  0
 13 14  1  0
 13 15  2  0
 15 16  1  0
 16 17  1  0
 16 18  1  0
 16 19  1  0
 19 20  2  0
 20 21  1  0
 21 22  1  0
 22 23  2  0
 22 24  1  0
 15 25  1  0
 25 26  1  0
  4 27  2  0
 27 28  1  0
 27 29  1  0
 29 30  1  0
 29  2  2  0
 25 11  1  0
 24 19  1  0
M  CHG  2  21  -1  24  -1
M  END
>  <UniqueID>  (66) 
62

>  <SMILES>  (66) 
O=C(Cc1ccco1)/N=c1/[nH]c(Cc2n[n-]c(=O)[n-]2)cs1

>  <Energy>  (66) 
118.46588348145987

>  <Genealogy>  (66) 
O=C(Cc1ccco1)N=c1[nH]c(Cc2n[n-]c(=O)[n-]2)cs1 (protonated)
O=C(Cc1ccco1)/N=c1/[nH]c(Cc2n[n-]c(=O)[n-]2)cs1 (cis-trans isomerization)
O=C(Cc1ccco1)/N=c1/[nH]c(Cc2n[n-]c(=O)[n-]2)cs1 (3D coordinates assigned)
O=C(Cc1ccco1)/N=c1/[nH]c(Cc2n[n-]c(=O)[n-]2)cs1 (optimized conformer: 118.46588348145987 kcal/mol)

>  <smiles>  (66) 
O=C(Cc1ccco1)N=c1[nH]c(Cc2n[nH]c(=O)[nH]2)cs1

>  <score_type>  (66) 
oracle

>  <origin>  (66) 
adg

>  <m_score__min__energy>  (66) 
-12.289999999999999

>  <m_primary>  (66) 
energy

$$$$
66:0
     RDKit          3D

 36 37  0  0  0  0  0  0  0  0999 V2000
   56.0400   27.1000   45.7390 H   0  0  0  0  0  0  0  0  0  0  0  0
   55.2970   26.5300   46.1200 O   0  0  0  0  0  0  0  0  0  0  0  0
   54.8690   25.3350   45.5420 C   0  0  0  0  0  0  0  0  0  0  0  0
   53.5620   24.9930   45.6760 N   0  0  0  0  0  0  0  0  0  0  0  0
   53.0940   23.8140   45.1970 C   0  0  0  0  0  0  0  0  0  0  0  0
   51.5190   23.4320   45.3770 S   0  0  0  0  0  0  0  0  0  0  0  0
   53.9140   22.9690   44.5890 O   0  0  0  0  0  0  0  0  0  0  0  0
   55.2010   23.2400   44.4090 C   0  0  0  0  0  0  0  0  0  0  0  0
   55.9240   22.3980   43.8120 O   0  0  0  0  0  0  0  0  0  0  0  0
   55.7420   24.4580   44.8600 C   0  0  0  0  0  0  0  0  0  0  0  0
   57.1620   24.7750   44.5830 C   0  0  0  0  0  0  0  0  0  0  0  0
   57.4780   24.9850   43.5505 H   0  0  0  0  0  0  0  0  0  0  0  0
   58.0390   24.8090   45.5380 N   0  0  0  0  0  0  0  0  0  0  0  0
   58.3260   26.0130   46.3140 C   0  0  0  0  0  0  0  0  0  0  0  0
   58.6617   25.7187   47.3193 H   0  0  0  0  0  0  0  0  0  0  0  0
   57.4073   26.6154   46.3685 H   0  0  0  0  0  0  0  0  0  0  0  0
   59.4210   26.8630   45.6510 C   0  0  0  0  0  0  0  0  0  0  0  0
   59.8172   26.3117   44.7855 H   0  0  0  0  0  0  0  0  0  0  0  0
   60.1969   27.0499   46.4080 H   0  0  0  0  0  0  0  0  0  0  0  0
   58.9110   28.2240   45.1710 C   0  0  0  0  0  0  0  0  0  0  0  0
   58.9844   28.2726   44.0745 H   0  0  0  0  0  0  0  0  0  0  0  0
   59.5241   29.0160   45.6258 H   0  0  0  0  0  0  0  0  0  0  0  0
   57.5200   28.4140   45.5690 N   0  0  0  0  0  0  0  0  0  0  0  0
   56.6080   29.2450   44.8450 C   0  0  0  0  0  0  0  0  0  0  0  0
   55.3760   28.9820   44.8710 O   0  0  0  0  0  0  0  0  0  0  0  0
   57.1180   30.4210   44.0950 C   0  0  0  0  0  0  0  0  0  0  0  0
   56.8750   30.4980   42.7080 C   0  0  0  0  0  0  0  0  0  0  0  0
   56.3066   29.6981   42.2109 H   0  0  0  0  0  0  0  0  0  0  0  0
   57.3470   31.5770   41.9580 C   0  0  0  0  0  0  0  0  0  0  0  0
   57.1518   31.6207   40.8763 H   0  0  0  0  0  0  0  0  0  0  0  0
   58.0650   32.5990   42.5770 C   0  0  0  0  0  0  0  0  0  0  0  0
   58.4383   33.4465   41.9834 H   0  0  0  0  0  0  0  0  0  0  0  0
   58.3100   32.5470   43.9490 C   0  0  0  0  0  0  0  0  0  0  0  0
   58.8751   33.3570   44.4333 H   0  0  0  0  0  0  0  0  0  0  0  0
   57.8420   31.4710   44.7160 C   0  0  0  0  0  0  0  0  0  0  0  0
   58.1500   31.5260   46.4500 Cl  0  0  0  0  0  0  0  0  0  0  0  0
  1  2  1  0
  2  3  1  0
  3  4  1  0
  4  5  1  0
  5  6  2  0
  5  7  1  0
  7  8  1  0
  8  9  2  0
  8 10  1  0
 10 11  1  0
 11 12  1  0
 11 13  2  0
 13 14  1  0
 14 15  1  0
 14 16  1  0
 14 17  1  0
 17 18  1  0
 17 19  1  0
 17 20  1  0
 20 21  1  0
 20 22  1  0
 20 23  1  0
 23 24  1  0
 24 25  2  0
 24 26  1  0
 26 27  2  0
 27 28  1  0
 27 29  1  0
 29 30  1  0
 29 31  2  0
 31 32  1  0
 31 33  1  0
 33 34  1  0
 33 35  2  0
 35 36  1  0
 10  3  2  0
 35 26  1  0
M  CHG  2   4  -1  23  -1
M  END
>  <UniqueID>  (67) 
63

>  <SMILES>  (67) 
O=C([N-]CCC/N=C/c1c(O)[n-]c(=S)oc1=O)c1ccccc1Cl

>  <Energy>  (67) 
40.51773945443778

>  <Genealogy>  (67) 
O=C([N-]CCCN=Cc1c(O)[n-]c(=S)oc1=O)c1ccccc1Cl (protonated)
O=C([N-]CCC/N=C/c1c(O)[n-]c(=S)oc1=O)c1ccccc1Cl (cis-trans isomerization)
O=C([N-]CCC/N=C/c1c(O)[n-]c(=S)oc1=O)c1ccccc1Cl (3D coordinates assigned)
O=C([N-]CCC/N=C/c1c(O)[n-]c(=S)oc1=O)c1ccccc1Cl (optimized conformer: 40.51773945443778 kcal/mol)

>  <smiles>  (67) 
O=C(NCCCN=Cc1c(O)[nH]c(=S)oc1=O)c1ccccc1Cl

>  <score_type>  (67) 
oracle

>  <origin>  (67) 
adg

>  <m_score__min__energy>  (67) 
-11.41

>  <m_primary>  (67) 
energy

$$$$
67:0
     RDKit          3D

 47 50  0  0  0  0  0  0  0  0999 V2000
   56.7920   29.7960   42.8220 O   0  0  0  0  0  0  0  0  0  0  0  0
   56.5300   29.8470   44.3010 S   0  0  0  0  0  0  0  0  0  0  0  0
   55.1500   29.3040   44.5520 O   0  0  0  0  0  0  0  0  0  0  0  0
   56.5940   31.5070   44.8350 N   0  0  0  0  0  0  0  0  0  0  0  0
   57.8010   32.1960   44.3610 C   0  0  0  0  0  0  0  0  0  0  0  0
   58.4220   33.0560   45.4340 C   0  0  0  0  0  0  0  0  0  0  0  0
   59.0630   34.2610   45.1010 C   0  0  0  0  0  0  0  0  0  0  0  0
   59.6390   35.0520   46.0990 C   0  0  0  0  0  0  0  0  0  0  0  0
   59.5900   34.6410   47.4350 C   0  0  0  0  0  0  0  0  0  0  0  0
   58.9770   33.4320   47.7730 C   0  0  0  0  0  0  0  0  0  0  0  0
   58.9350   33.0310   49.0670 F   0  0  0  0  0  0  0  0  0  0  0  0
   58.4050   32.6350   46.7760 C   0  0  0  0  0  0  0  0  0  0  0  0
   57.7250   28.8410   45.1210 C   0  0  0  0  0  0  0  0  0  0  0  0
   58.0000   27.5560   44.6410 C   0  0  0  0  0  0  0  0  0  0  0  0
   58.9870   26.7790   45.2500 C   0  0  0  0  0  0  0  0  0  0  0  0
   59.7140   27.2850   46.3300 C   0  0  0  0  0  0  0  0  0  0  0  0
   59.4530   28.5770   46.8230 C   0  0  0  0  0  0  0  0  0  0  0  0
   60.2530   29.1390   47.9400 C   0  0  0  0  0  0  0  0  0  0  0  0
   60.5300   28.5520   49.1670 C   0  0  0  0  0  0  0  0  0  0  0  0
   61.2440   29.4080   49.9230 N   0  0  0  0  0  0  0  0  0  0  0  0
   61.4370   30.5050   49.2090 N   0  0  0  0  0  0  0  0  0  0  0  0
   62.0960   31.7010   49.7240 C   0  0  0  0  0  0  0  0  0  0  0  0
   62.7390   32.4440   48.5980 C   0  0  0  0  0  0  0  0  0  0  0  0
   62.7990   33.8160   48.4660 C   0  0  0  0  0  0  0  0  0  0  0  0
   63.4400   34.0440   47.2670 C   0  0  0  0  0  0  0  0  0  0  0  0
   63.7270   32.7990   46.7430 C   0  0  0  0  0  0  0  0  0  0  0  0
   63.2940   31.8640   47.5580 O   0  0  0  0  0  0  0  0  0  0  0  0
   60.8450   30.3880   48.0070 C   0  0  0  0  0  0  0  0  0  0  0  0
   58.4380   29.3400   46.2190 C   0  0  0  0  0  0  0  0  0  0  0  0
   55.7700   31.9920   44.4140 H   0  0  0  0  0  0  0  0  0  0  0  0
   58.5361   31.4433   44.0401 H   0  0  0  0  0  0  0  0  0  0  0  0
   57.5111   32.8518   43.5268 H   0  0  0  0  0  0  0  0  0  0  0  0
   59.1118   34.5833   44.0504 H   0  0  0  0  0  0  0  0  0  0  0  0
   60.1315   35.9990   45.8334 H   0  0  0  0  0  0  0  0  0  0  0  0
   60.0345   35.2702   48.2202 H   0  0  0  0  0  0  0  0  0  0  0  0
   57.9397   31.6746   47.0426 H   0  0  0  0  0  0  0  0  0  0  0  0
   57.4382   27.1577   43.7833 H   0  0  0  0  0  0  0  0  0  0  0  0
   59.1930   25.7645   44.8780 H   0  0  0  0  0  0  0  0  0  0  0  0
   60.4960   26.6693   46.7984 H   0  0  0  0  0  0  0  0  0  0  0  0
   60.2151   27.5438   49.4743 H   0  0  0  0  0  0  0  0  0  0  0  0
   61.3517   32.3478   50.2115 H   0  0  0  0  0  0  0  0  0  0  0  0
   62.8647   31.4084   50.4544 H   0  0  0  0  0  0  0  0  0  0  0  0
   62.4158   34.5697   49.1697 H   0  0  0  0  0  0  0  0  0  0  0  0
   63.6753   35.0204   46.8183 H   0  0  0  0  0  0  0  0  0  0  0  0
   64.2407   32.6175   45.7874 H   0  0  0  0  0  0  0  0  0  0  0  0
   60.8334   31.1517   47.2154 H   0  0  0  0  0  0  0  0  0  0  0  0
   58.2012   30.3394   46.6128 H   0  0  0  0  0  0  0  0  0  0  0  0
  1  2  2  0
  2  3  2  0
  2  4  1  0
  4  5  1  0
  5  6  1  0
  6  7  2  0
  7  8  1  0
  8  9  2  0
  9 10  1  0
 10 11  1  0
 10 12  2  0
  2 13  1  0
 13 14  2  0
 14 15  1  0
 15 16  2  0
 16 17  1  0
 17 18  1  0
 18 19  1  0
 19 20  2  0
 20 21  1  0
 21 22  1  0
 22 23  1  0
 23 24  2  0
 24 25  1  0
 25 26  2  0
 26 27  1  0
 21 28  1  0
 17 29  2  0
 12  6  1  0
 29 13  1  0
 28 18  2  0
 27 23  1  0
  4 30  1  0
  5 31  1  0
  5 32  1  0
  7 33  1  0
  8 34  1  0
  9 35  1  0
 12 36  1  0
 14 37  1  0
 15 38  1  0
 16 39  1  0
 19 40  1  0
 22 41  1  0
 22 42  1  0
 24 43  1  0
 25 44  1  0
 26 45  1  0
 28 46  1  0
 29 47  1  0
M  END
>  <UniqueID>  (68) 
64

>  <SMILES>  (68) 
O=S(=O)(NCc1cccc(F)c1)c1cccc(-c2cnn(Cc3ccco3)c2)c1

>  <Energy>  (68) 
103.84248668076442

>  <Genealogy>  (68) 
O=S(=O)(NCc1cccc(F)c1)c1cccc(-c2cnn(Cc3ccco3)c2)c1 (3D coordinates assigned)
O=S(=O)(NCc1cccc(F)c1)c1cccc(-c2cnn(Cc3ccco3)c2)c1 (optimized conformer: 103.84248668076442 kcal/mol)

>  <smiles>  (68) 
O=S(=O)(NCc1cccc(F)c1)c1cccc(-c2cnn(Cc3ccco3)c2)c1

>  <score_type>  (68) 
oracle

>  <origin>  (68) 
adg

>  <m_score__min__energy>  (68) 
-9.1899999999999995

>  <m_primary>  (68) 
energy

$$$$
68:0
     RDKit          3D

 51 55  0  0  0  0  0  0  0  0999 V2000
   59.6490   35.9050   46.2480 O   0  0  0  0  0  0  0  0  0  0  0  0
   59.0910   34.7970   46.0280 C   0  0  0  0  0  0  0  0  0  0  0  0
   58.1960   34.5750   44.8630 C   0  0  0  0  0  0  0  0  0  0  0  0
   57.6270   32.8390   44.9600 S   0  0  0  0  0  0  0  0  0  0  0  0
   58.5810   32.5850   46.4600 C   0  0  0  0  0  0  0  0  0  0  0  0
   59.2620   33.6340   46.8840 C   0  0  0  0  0  0  0  0  0  0  0  0
   60.0950   33.5770   48.0990 C   0  0  0  0  0  0  0  0  0  0  0  0
   60.7420   34.6030   48.4440 O   0  0  0  0  0  0  0  0  0  0  0  0
   60.1600   32.3080   48.8930 C   0  0  0  0  0  0  0  0  0  0  0  0
   60.9160   32.1970   50.0930 C   0  0  0  0  0  0  0  0  0  0  0  0
   61.6880   33.3290   50.6580 C   0  0  0  0  0  0  0  0  0  0  0  0
   61.2840   33.8420   51.7370 O   0  0  0  0  0  0  0  0  0  0  0  0
   62.8420   33.9060   49.9860 N   0  0  0  0  0  0  0  0  0  0  0  0
   63.9900   34.1270   50.8790 C   0  0  0  0  0  0  0  0  0  0  0  0
   64.9190   32.9330   50.7340 C   0  0  0  0  0  0  0  0  0  0  0  0
   64.5930   32.3360   49.3780 C   0  0  0  0  0  0  0  0  0  0  0  0
   63.3260   33.0410   48.8980 C   0  0  0  0  0  0  0  0  0  0  0  0
   60.9770   30.9710   50.7620 C   0  0  0  0  0  0  0  0  0  0  0  0
   60.2670   29.8710   50.3000 C   0  0  0  0  0  0  0  0  0  0  0  0
   59.4860   29.9550   49.1380 C   0  0  0  0  0  0  0  0  0  0  0  0
   58.7590   28.8460   48.6680 O   0  0  0  0  0  0  0  0  0  0  0  0
   59.3140   27.6660   48.0870 C   0  0  0  0  0  0  0  0  0  0  0  0
   59.0370   27.6170   46.6080 C   0  0  0  0  0  0  0  0  0  0  0  0
   59.8690   28.3110   45.7130 C   0  0  0  0  0  0  0  0  0  0  0  0
   59.6120   28.2760   44.3390 C   0  0  0  0  0  0  0  0  0  0  0  0
   58.5170   27.5560   43.8500 C   0  0  0  0  0  0  0  0  0  0  0  0
   57.6780   26.8740   44.7350 C   0  0  0  0  0  0  0  0  0  0  0  0
   57.9320   26.9070   46.1100 C   0  0  0  0  0  0  0  0  0  0  0  0
   59.4300   31.1770   48.4260 C   0  0  0  0  0  0  0  0  0  0  0  0
   58.6180   31.3040   47.1790 C   0  0  0  0  0  0  0  0  0  0  0  0
   57.9590   30.3320   46.7230 O   0  0  0  0  0  0  0  0  0  0  0  0
   57.3358   35.2590   44.9101 H   0  0  0  0  0  0  0  0  0  0  0  0
   58.7236   34.7660   43.9169 H   0  0  0  0  0  0  0  0  0  0  0  0
   62.5520   34.8320   49.5860 H   0  0  0  0  0  0  0  0  0  0  0  0
   64.5165   35.0493   50.5924 H   0  0  0  0  0  0  0  0  0  0  0  0
   63.6549   34.2324   51.9214 H   0  0  0  0  0  0  0  0  0  0  0  0
   65.9700   33.2556   50.7706 H   0  0  0  0  0  0  0  0  0  0  0  0
   64.7816   32.2048   51.5469 H   0  0  0  0  0  0  0  0  0  0  0  0
   65.4191   32.5143   48.6739 H   0  0  0  0  0  0  0  0  0  0  0  0
   64.4471   31.2476   49.4428 H   0  0  0  0  0  0  0  0  0  0  0  0
   63.5521   33.6501   48.0104 H   0  0  0  0  0  0  0  0  0  0  0  0
   62.5574   32.3012   48.6297 H   0  0  0  0  0  0  0  0  0  0  0  0
   61.5958   30.8766   51.6665 H   0  0  0  0  0  0  0  0  0  0  0  0
   60.3176   28.9212   50.8525 H   0  0  0  0  0  0  0  0  0  0  0  0
   60.4018   27.6608   48.2505 H   0  0  0  0  0  0  0  0  0  0  0  0
   58.8512   26.7882   48.5616 H   0  0  0  0  0  0  0  0  0  0  0  0
   60.7264   28.8844   46.0951 H   0  0  0  0  0  0  0  0  0  0  0  0
   60.2711   28.8148   43.6424 H   0  0  0  0  0  0  0  0  0  0  0  0
   58.3164   27.5267   42.7688 H   0  0  0  0  0  0  0  0  0  0  0  0
   56.8159   26.3099   44.3495 H   0  0  0  0  0  0  0  0  0  0  0  0
   57.2642   26.3752   46.8037 H   0  0  0  0  0  0  0  0  0  0  0  0
  1  2  2  0
  2  3  1  0
  3  4  1  0
  4  5  1  0
  5  6  2  0
  6  7  1  0
  7  8  2  0
  7  9  1  0
  9 10  2  0
 10 11  1  0
 11 12  2  0
 11 13  1  0
 13 14  1  0
 14 15  1  0
 15 16  1  0
 16 17  1  0
 10 18  1  0
 18 19  2  0
 19 20  1  0
 20 21  1  0
 21 22  1  0
 22 23  1  0
 23 24  2  0
 24 25  1  0
 25 26  2  0
 26 27  1  0
 27 28  2  0
 20 29  2  0
 29 30  1  0
 30 31  2  0
  6  2  1  0
 29  9  1  0
 30  5  1  0
 17 13  1  0
 28 23  1  0
  3 32  1  0
  3 33  1  0
 13 34  1  0
 14 35  1  0
 14 36  1  0
 15 37  1  0
 15 38  1  0
 16 39  1  0
 16 40  1  0
 17 41  1  0
 17 42  1  0
 18 43  1  0
 19 44  1  0
 22 45  1  0
 22 46  1  0
 24 47  1  0
 25 48  1  0
 26 49  1  0
 27 50  1  0
 28 51  1  0
M  CHG  1  13   1
M  END
>  <UniqueID>  (69) 
65

>  <SMILES>  (69) 
O=C1CSC2=C1C(=O)c1c(C(=O)[NH+]3CCCC3)ccc(OCc3ccccc3)c1C2=O

>  <Energy>  (69) 
83.63808453216134

>  <Genealogy>  (69) 
O=C1CSC2=C1C(=O)c1c(C(=O)[NH+]3CCCC3)ccc(OCc3ccccc3)c1C2=O (protonated)
O=C1CSC2=C1C(=O)c1c(C(=O)[NH+]3CCCC3)ccc(OCc3ccccc3)c1C2=O (3D coordinates assigned)
O=C1CSC2=C1C(=O)c1c(C(=O)[NH+]3CCCC3)ccc(OCc3ccccc3)c1C2=O (nonaromatic ring conformer: 83.63808453216134 kcal/mol)

>  <smiles>  (69) 
O=C1CSC2=C1C(=O)c1c(C(=O)N3CCCC3)ccc(OCc3ccccc3)c1C2=O

>  <score_type>  (69) 
oracle

>  <origin>  (69) 
adg

>  <m_score__min__energy>  (69) 
-7.3300000000000001

>  <m_primary>  (69) 
energy

$$$$
69:0
     RDKit          3D

 44 46  0  0  0  0  0  0  0  0999 V2000
   58.5270   31.9880   43.0500 O   0  0  0  0  0  0  0  0  0  0  0  0
   57.4770   31.4860   43.5360 C   0  0  0  0  0  0  0  0  0  0  0  0
   56.5540   30.7090   42.6410 C   0  0  0  0  0  0  0  0  0  0  0  0
   56.3470   29.3640   43.1680 N   0  0  0  0  0  0  0  0  0  0  0  0
   56.1320   29.0790   44.5560 C   0  0  0  0  0  0  0  0  0  0  0  0
   55.1960   29.6590   45.1690 O   0  0  0  0  0  0  0  0  0  0  0  0
   57.0220   28.1190   45.2620 C   0  0  0  0  0  0  0  0  0  0  0  0
   58.4150   28.3410   45.2720 C   0  0  0  0  0  0  0  0  0  0  0  0
   59.2710   27.4580   45.9420 C   0  0  0  0  0  0  0  0  0  0  0  0
   58.7540   26.3480   46.6130 C   0  0  0  0  0  0  0  0  0  0  0  0
   57.3780   26.1150   46.6160 C   0  0  0  0  0  0  0  0  0  0  0  0
   56.5090   26.9940   45.9470 C   0  0  0  0  0  0  0  0  0  0  0  0
   55.1440   26.7270   45.9790 O   0  0  0  0  0  0  0  0  0  0  0  0
   57.1520   31.6630   44.9240 N   0  0  0  0  0  0  0  0  0  0  0  0
   57.9510   32.4220   45.8480 C   0  0  0  0  0  0  0  0  0  0  0  0
   58.2150   33.7880   45.6430 C   0  0  0  0  0  0  0  0  0  0  0  0
   59.0170   34.4970   46.5460 C   0  0  0  0  0  0  0  0  0  0  0  0
   59.5850   33.8430   47.6530 C   0  0  0  0  0  0  0  0  0  0  0  0
   60.4400   34.6060   48.6290 C   0  0  0  0  0  0  0  0  0  0  0  0
   61.8510   34.0840   48.6230 C   0  0  0  0  0  0  0  0  0  0  0  0
   62.4540   33.6890   47.4210 C   0  0  0  0  0  0  0  0  0  0  0  0
   63.7670   33.2100   47.4340 C   0  0  0  0  0  0  0  0  0  0  0  0
   64.4540   33.1310   48.6030 N   0  0  0  0  0  0  0  0  0  0  0  0
   63.8940   33.5060   49.7880 C   0  0  0  0  0  0  0  0  0  0  0  0
   62.5850   33.9910   49.8190 C   0  0  0  0  0  0  0  0  0  0  0  0
   59.3240   32.4790   47.8540 C   0  0  0  0  0  0  0  0  0  0  0  0
   58.5210   31.7740   46.9530 C   0  0  0  0  0  0  0  0  0  0  0  0
   55.5858   31.2277   42.5809 H   0  0  0  0  0  0  0  0  0  0  0  0
   57.0058   30.6346   41.6408 H   0  0  0  0  0  0  0  0  0  0  0  0
   58.8322   29.2145   44.7495 H   0  0  0  0  0  0  0  0  0  0  0  0
   60.3559   27.6398   45.9396 H   0  0  0  0  0  0  0  0  0  0  0  0
   59.4305   25.6580   47.1386 H   0  0  0  0  0  0  0  0  0  0  0  0
   56.9719   25.2397   47.1442 H   0  0  0  0  0  0  0  0  0  0  0  0
   56.1960   31.3790   45.2360 H   0  0  0  0  0  0  0  0  0  0  0  0
   57.7893   34.3023   44.7688 H   0  0  0  0  0  0  0  0  0  0  0  0
   59.2031   35.5696   46.3884 H   0  0  0  0  0  0  0  0  0  0  0  0
   60.4474   35.6694   48.3477 H   0  0  0  0  0  0  0  0  0  0  0  0
   60.0214   34.4805   49.6385 H   0  0  0  0  0  0  0  0  0  0  0  0
   61.8979   33.7555   46.4742 H   0  0  0  0  0  0  0  0  0  0  0  0
   64.2454   32.8960   46.4946 H   0  0  0  0  0  0  0  0  0  0  0  0
   64.4733   33.4265   50.7197 H   0  0  0  0  0  0  0  0  0  0  0  0
   62.1309   34.2983   50.7726 H   0  0  0  0  0  0  0  0  0  0  0  0
   59.7534   31.9621   48.7249 H   0  0  0  0  0  0  0  0  0  0  0  0
   58.3346   30.7017   47.1122 H   0  0  0  0  0  0  0  0  0  0  0  0
  1  2  2  0
  2  3  1  0
  3  4  1  0
  4  5  1  0
  5  6  2  0
  5  7  1  0
  7  8  2  0
  8  9  1  0
  9 10  2  0
 10 11  1  0
 11 12  2  0
 12 13  1  0
  2 14  1  0
 14 15  1  0
 15 16  2  0
 16 17  1  0
 17 18  2  0
 18 19  1  0
 19 20  1  0
 20 21  2  0
 21 22  1  0
 22 23  2  0
 23 24  1  0
 24 25  2  0
 18 26  1  0
 26 27  2  0
 12  7  1  0
 27 15  1  0
 25 20  1  0
  3 28  1  0
  3 29  1  0
  8 30  1  0
  9 31  1  0
 10 32  1  0
 11 33  1  0
 14 34  1  0
 16 35  1  0
 17 36  1  0
 19 37  1  0
 19 38  1  0
 21 39  1  0
 22 40  1  0
 24 41  1  0
 25 42  1  0
 26 43  1  0
 27 44  1  0
M  CHG  2   4  -1  13  -1
M  END
>  <UniqueID>  (70) 
66

>  <SMILES>  (70) 
O=C(C[N-]C(=O)c1ccccc1[O-])Nc1ccc(Cc2ccncc2)cc1

>  <Energy>  (70) 
49.846109015524206

>  <Genealogy>  (70) 
O=C(C[N-]C(=O)c1ccccc1[O-])Nc1ccc(Cc2ccncc2)cc1 (protonated)
O=C(C[N-]C(=O)c1ccccc1[O-])Nc1ccc(Cc2ccncc2)cc1 (3D coordinates assigned)
O=C(C[N-]C(=O)c1ccccc1[O-])Nc1ccc(Cc2ccncc2)cc1 (optimized conformer: 49.846109015524206 kcal/mol)

>  <smiles>  (70) 
O=C(CNC(=O)c1ccccc1O)Nc1ccc(Cc2ccncc2)cc1

>  <score_type>  (70) 
oracle

>  <origin>  (70) 
adg

>  <m_score__min__energy>  (70) 
-14.26

>  <m_primary>  (70) 
energy

$$$$
70:0
     RDKit          3D

 42 44  0  0  1  0  0  0  0  0999 V2000
   55.0730   24.9070   45.5690 C   0  0  0  0  0  0  0  0  0  0  0  0
   55.2920   26.2440   45.9960 O   0  0  0  0  0  0  0  0  0  0  0  0
   56.6110   26.6260   46.2070 C   0  0  0  0  0  0  0  0  0  0  0  0
   57.4940   25.8440   46.9280 C   0  0  0  0  0  0  0  0  0  0  0  0
   58.8000   26.2470   47.1220 C   0  0  0  0  0  0  0  0  0  0  0  0
   59.2230   27.4570   46.5810 C   0  0  0  0  0  0  0  0  0  0  0  0
   58.3340   28.2590   45.8460 C   0  0  0  0  0  0  0  0  0  0  0  0
   59.5760   33.4230   47.1590 N   0  0  0  0  0  0  0  0  0  0  0  0
   58.8370   32.6950   46.3940 C   0  0  0  0  0  0  0  0  0  0  0  0
   59.1350   31.4030   46.2090 N   0  0  0  0  0  0  0  0  0  0  0  0
   58.3780   30.5860   45.4040 C   0  0  0  0  0  0  0  0  0  0  0  0
   58.7870   29.4230   45.2490 N   0  0  0  0  0  0  0  0  0  0  0  0
   60.9790   33.1250   47.1730 C   0  0  0  0  0  0  0  0  0  0  0  0
   61.8280   33.8440   46.3530 C   0  0  0  0  0  0  0  0  0  0  0  0
   63.1800   33.5510   46.3720 C   0  0  0  0  0  0  0  0  0  0  0  0
   63.6780   32.5570   47.1950 C   0  0  0  0  0  0  0  0  0  0  0  0
   62.8080   31.8480   48.0100 C   0  0  0  0  0  0  0  0  0  0  0  0
   61.4470   32.1230   48.0090 C   0  0  0  0  0  0  0  0  0  0  0  0
   57.7600   33.1890   45.7650 N   0  0  0  0  0  0  0  0  0  0  0  0
   57.0000   32.4240   44.9760 C   0  0  0  0  0  0  0  0  0  0  0  0
   57.2870   31.0540   44.7630 C   0  0  0  0  0  0  0  0  0  0  0  0
   56.2870   30.3520   44.0110 C   0  0  0  0  0  0  0  0  0  0  0  0
   56.6480   30.0330   42.6360 N   0  0  0  0  0  0  0  0  0  0  0  0
   55.1570   29.9720   44.3490 O   0  0  0  0  0  0  0  0  0  0  0  0
   57.0060   27.8430   45.6520 C   0  0  0  0  0  0  0  0  0  0  0  0
   54.9661   24.2542   46.4479 H   0  0  0  0  0  0  0  0  0  0  0  0
   54.1553   24.8609   44.9642 H   0  0  0  0  0  0  0  0  0  0  0  0
   55.9280   24.5705   44.9642 H   0  0  0  0  0  0  0  0  0  0  0  0
   57.1517   24.8887   47.3524 H   0  0  0  0  0  0  0  0  0  0  0  0
   59.4971   25.6196   47.6968 H   0  0  0  0  0  0  0  0  0  0  0  0
   60.2613   27.7882   46.7299 H   0  0  0  0  0  0  0  0  0  0  0  0
   59.9730   31.0380   46.7040 H   0  0  0  0  0  0  0  0  0  0  0  0
   61.4358   34.6351   45.6970 H   0  0  0  0  0  0  0  0  0  0  0  0
   63.8673   34.1154   45.7247 H   0  0  0  0  0  0  0  0  0  0  0  0
   64.7545   32.3308   47.2031 H   0  0  0  0  0  0  0  0  0  0  0  0
   63.2014   31.0574   48.6658 H   0  0  0  0  0  0  0  0  0  0  0  0
   60.7575   31.5600   48.6552 H   0  0  0  0  0  0  0  0  0  0  0  0
   57.5050   34.2140   45.8970 H   0  0  0  0  0  0  0  0  0  0  0  0
   56.1270   32.8711   44.4780 H   0  0  0  0  0  0  0  0  0  0  0  0
   57.6420   29.9090   42.3560 H   0  0  0  0  0  0  0  0  0  0  0  0
   55.9210   29.9200   41.9020 H   0  0  0  0  0  0  0  0  0  0  0  0
   56.2981   28.4596   45.0787 H   0  0  0  0  0  0  0  0  0  0  0  0
  1  2  1  0
  2  3  1  0
  3  4  2  0
  4  5  1  0
  5  6  2  0
  6  7  1  0
  7  8  1  0
  8  9  2  0
  9 10  1  0
 10 11  1  0
 11 12  2  0
 12 13  1  0
 13 14  2  0
 14 15  1  0
 15 16  2  0
 16 17  1  0
 17 18  2  0
 11 19  1  0
 19 20  1  0
 20 21  2  0
 21 22  1  0
 22 23  1  0
 22 24  2  0
  7 25  2  0
 25  3  1  0
 21  9  1  0
 18 13  1  0
  1 26  1  0
  1 27  1  0
  1 28  1  0
  4 29  1  0
  5 30  1  0
  6 31  1  0
 10 32  1  0
 14 33  1  0
 15 34  1  0
 16 35  1  0
 17 36  1  0
 18 37  1  0
 19 38  1  0
 20 39  1  0
 23 40  1  0
 23 41  1  0
 25 42  1  0
M  END
>  <smiles>  (71) 
COc1cccc(N=c2[nH]c(=Nc3ccccc3)[nH]cc2C(N)=O)c1

>  <score_type>  (71) 
oracle

>  <origin>  (71) 
adg

>  <m_score__min__energy>  (71) 
-8.6799999999999997

>  <m_primary>  (71) 
energy

$$$$
71:0
     RDKit          3D

 56 59  0  0  0  0  0  0  0  0999 V2000
   60.3202   35.1181   45.0865 H   0  0  0  0  0  0  0  0  0  0  0  0
   59.6370   34.7010   45.8410 C   0  0  0  0  0  0  0  0  0  0  0  0
   58.3570   34.1280   45.3990 C   0  0  0  0  0  0  0  0  0  0  0  0
   57.4760   34.8900   44.9180 O   0  0  0  0  0  0  0  0  0  0  0  0
   58.1030   32.7240   45.5190 N   0  0  0  0  0  0  0  0  0  0  0  0
   59.1640   31.7270   45.5540 C   0  0  0  0  0  0  0  0  0  0  0  0
   59.7423   31.7724   44.6194 H   0  0  0  0  0  0  0  0  0  0  0  0
   59.8315   31.9280   46.4049 H   0  0  0  0  0  0  0  0  0  0  0  0
   58.5560   30.3630   45.7020 C   0  0  0  0  0  0  0  0  0  0  0  0
   57.3850   30.0250   45.0080 C   0  0  0  0  0  0  0  0  0  0  0  0
   56.9250   30.7540   44.3247 H   0  0  0  0  0  0  0  0  0  0  0  0
   56.7990   28.7680   45.1790 C   0  0  0  0  0  0  0  0  0  0  0  0
   55.8898   28.5096   44.6164 H   0  0  0  0  0  0  0  0  0  0  0  0
   57.3610   27.8300   46.0640 C   0  0  0  0  0  0  0  0  0  0  0  0
   56.7210   26.5000   46.2340 C   0  0  0  0  0  0  0  0  0  0  0  0
   55.4290   26.3290   45.8420 N   0  0  0  0  0  0  0  0  0  0  0  0
   54.7900   25.1340   45.9710 C   0  0  0  0  0  0  0  0  0  0  0  0
   53.5480   24.9890   45.6090 N   0  0  0  0  0  0  0  0  0  0  0  0
   52.7670   23.7840   45.6710 C   0  0  0  0  0  0  0  0  0  0  0  0
   51.6840   23.6390   44.7940 C   0  0  0  0  0  0  0  0  0  0  0  0
   51.4610   24.4330   44.0661 H   0  0  0  0  0  0  0  0  0  0  0  0
   50.8840   22.4920   44.8370 C   0  0  0  0  0  0  0  0  0  0  0  0
   50.0459   22.3797   44.1335 H   0  0  0  0  0  0  0  0  0  0  0  0
   51.1490   21.4890   45.7730 C   0  0  0  0  0  0  0  0  0  0  0  0
   50.5255   20.5832   45.8003 H   0  0  0  0  0  0  0  0  0  0  0  0
   52.2060   21.6370   46.6740 C   0  0  0  0  0  0  0  0  0  0  0  0
   52.4083   20.8515   47.4170 H   0  0  0  0  0  0  0  0  0  0  0  0
   53.0080   22.7830   46.6330 C   0  0  0  0  0  0  0  0  0  0  0  0
   53.8297   22.9029   47.3545 H   0  0  0  0  0  0  0  0  0  0  0  0
   55.4440   24.0840   46.5290 N   0  0  0  0  0  0  0  0  0  0  0  0
   56.7310   24.2000   46.9480 C   0  0  0  0  0  0  0  0  0  0  0  0
   57.3120   23.2120   47.4660 O   0  0  0  0  0  0  0  0  0  0  0  0
   57.4020   25.4160   46.8100 C   0  0  0  0  0  0  0  0  0  0  0  0
   58.4440   25.5229   47.1460 H   0  0  0  0  0  0  0  0  0  0  0  0
   58.5370   28.1740   46.7580 C   0  0  0  0  0  0  0  0  0  0  0  0
   58.9992   27.4469   47.4419 H   0  0  0  0  0  0  0  0  0  0  0  0
   59.1220   29.4320   46.5850 C   0  0  0  0  0  0  0  0  0  0  0  0
   60.0320   29.6932   47.1450 H   0  0  0  0  0  0  0  0  0  0  0  0
   60.0000   34.7330   47.1280 C   0  0  0  0  0  0  0  0  0  0  0  0
   60.2535   35.6980   47.5913 H   0  0  0  0  0  0  0  0  0  0  0  0
   60.0680   33.5050   47.9390 C   0  0  0  0  0  0  0  0  0  0  0  0
   58.9050   33.1040   48.6150 C   0  0  0  0  0  0  0  0  0  0  0  0
   57.9906   33.7099   48.5335 H   0  0  0  0  0  0  0  0  0  0  0  0
   58.8990   31.9440   49.3890 C   0  0  0  0  0  0  0  0  0  0  0  0
   57.9800   31.6346   49.9084 H   0  0  0  0  0  0  0  0  0  0  0  0
   60.0570   31.1760   49.5050 C   0  0  0  0  0  0  0  0  0  0  0  0
   60.0476   30.2551   50.1065 H   0  0  0  0  0  0  0  0  0  0  0  0
   61.2290   31.5750   48.8580 C   0  0  0  0  0  0  0  0  0  0  0  0
   62.1395   30.9657   48.9565 H   0  0  0  0  0  0  0  0  0  0  0  0
   61.2570   32.7460   48.0830 C   0  0  0  0  0  0  0  0  0  0  0  0
   62.8010   33.2560   47.3700 S   0  0  0  0  0  0  0  0  0  0  0  0
   62.5600   33.8510   46.0110 O   0  0  0  0  0  0  0  0  0  0  0  0
   63.4460   34.2970   48.2400 O   0  0  0  0  0  0  0  0  0  0  0  0
   63.8680   31.9060   47.1760 N   0  0  0  0  0  0  0  0  0  0  0  0
   64.4460   31.8330   48.0420 H   0  0  0  0  0  0  0  0  0  0  0  0
   64.5150   32.1190   46.3840 H   0  0  0  0  0  0  0  0  0  0  0  0
  1  2  1  0
  2  3  1  0
  3  4  2  0
  3  5  1  0
  5  6  1  0
  6  7  1  0
  6  8  1  0
  6  9  1  0
  9 10  2  0
 10 11  1  0
 10 12  1  0
 12 13  1  0
 12 14  2  0
 14 15  1  0
 15 16  1  0
 16 17  1  0
 17 18  2  0
 18 19  1  0
 19 20  2  0
 20 21  1  0
 20 22  1  0
 22 23  1  0
 22 24  2  0
 24 25  1  0
 24 26  1  0
 26 27  1  0
 26 28  2  0
 28 29  1  0
 17 30  1  0
 30 31  1  0
 31 32  2  0
 31 33  1  0
 33 34  1  0
 14 35  1  0
 35 36  1  0
 35 37  2  0
 37 38  1  0
  2 39  2  0
 39 40  1  0
 39 41  1  0
 41 42  2  0
 42 43  1  0
 42 44  1  0
 44 45  1  0
 44 46  2  0
 46 47  1  0
 46 48  1  0
 48 49  1  0
 48 50  2  0
 50 51  1  0
 51 52  2  0
 51 53  2  0
 51 54  1  0
 54 55  1  0
 54 56  1  0
 37  9  1  0
 50 41  1  0
 33 15  2  0
 28 19  1  0
M  CHG  3   5  -1  16  -1  30  -1
M  END
>  <UniqueID>  (72) 
67

>  <SMILES>  (72) 
NS(=O)(=O)c1ccccc1/C=C/C(=O)[N-]Cc1ccc(-c2cc(=O)[n-]/c(=N/c3ccccc3)[n-]2)cc1

>  <Energy>  (72) 
74.50518256084548

>  <Genealogy>  (72) 
NS(=O)(=O)c1ccccc1C=CC(=O)[N-]Cc1ccc(-c2cc(=O)[n-]c(=Nc3ccccc3)[n-]2)cc1 (protonated)
NS(=O)(=O)c1ccccc1/C=C/C(=O)[N-]Cc1ccc(-c2cc(=O)[n-]/c(=N/c3ccccc3)[n-]2)cc1 (cis-trans isomerization)
NS(=O)(=O)c1ccccc1/C=C/C(=O)[N-]Cc1ccc(-c2cc(=O)[n-]/c(=N/c3ccccc3)[n-]2)cc1 (3D coordinates assigned)
NS(=O)(=O)c1ccccc1/C=C/C(=O)[N-]Cc1ccc(-c2cc(=O)[n-]/c(=N/c3ccccc3)[n-]2)cc1 (optimized conformer: 74.50518256084548 kcal/mol)

>  <smiles>  (72) 
NS(=O)(=O)c1ccccc1C=CC(=O)NCc1ccc(-c2cc(=O)[nH]c(=Nc3ccccc3)[nH]2)cc1

>  <score_type>  (72) 
oracle

>  <origin>  (72) 
adg

>  <m_score__min__energy>  (72) 
-14.25

>  <m_primary>  (72) 
energy

$$$$
72:0
     RDKit          3D

 58 60  0  0  0  0  0  0  0  0999 V2000
   64.5140   34.5980   51.8250 C   0  0  0  0  0  0  0  0  0  0  0  0
   63.6370   33.4570   51.5220 N   0  0  0  0  0  0  0  0  0  0  0  0
   62.4050   33.8560   50.8130 C   0  0  0  0  0  0  0  0  0  0  0  0
   62.6590   34.2290   49.3450 C   0  0  0  0  0  0  0  0  0  0  0  0
   63.4440   33.1830   48.6770 N   0  0  0  0  0  0  0  0  0  0  0  0
   63.2570   32.8920   47.2730 C   0  0  0  0  0  0  0  0  0  0  0  0
   63.7260   31.8220   46.7920 O   0  0  0  0  0  0  0  0  0  0  0  0
   62.4690   33.8190   46.3790 C   0  0  0  0  0  0  0  0  0  0  0  0
   60.9860   33.7450   46.6440 C   0  0  0  0  0  0  0  0  0  0  0  0
   60.1030   34.6250   45.9960 C   0  0  0  0  0  0  0  0  0  0  0  0
   58.7310   34.5610   46.2500 C   0  0  0  0  0  0  0  0  0  0  0  0
   58.2280   33.6260   47.1590 C   0  0  0  0  0  0  0  0  0  0  0  0
   59.1000   32.7530   47.8310 C   0  0  0  0  0  0  0  0  0  0  0  0
   58.5620   31.7330   48.7990 C   0  0  0  0  0  0  0  0  0  0  0  0
   59.6860   30.9580   49.4130 C   0  0  0  0  0  0  0  0  0  0  0  0
   60.0340   31.1930   50.6010 O   0  0  0  0  0  0  0  0  0  0  0  0
   60.3780   29.9760   48.6360 N   0  0  0  0  0  0  0  0  0  0  0  0
   59.7670   29.1270   47.6550 C   0  0  0  0  0  0  0  0  0  0  0  0
   59.7660   27.7450   47.8540 C   0  0  0  0  0  0  0  0  0  0  0  0
   59.2080   26.8940   46.8970 C   0  0  0  0  0  0  0  0  0  0  0  0
   58.6660   27.4190   45.7230 C   0  0  0  0  0  0  0  0  0  0  0  0
   58.6850   28.8050   45.4870 C   0  0  0  0  0  0  0  0  0  0  0  0
   58.1490   29.3180   44.2520 N   0  0  0  0  0  0  0  0  0  0  0  0
   56.9810   30.5990   44.1480 S   0  0  0  0  0  0  0  0  0  0  0  0
   57.0600   31.3760   42.5470 C   0  0  0  0  0  0  0  0  0  0  0  0
   55.6000   30.0600   44.3950 O   0  0  0  0  0  0  0  0  0  0  0  0
   57.2870   31.6250   45.2020 O   0  0  0  0  0  0  0  0  0  0  0  0
   59.2320   29.6570   46.4660 C   0  0  0  0  0  0  0  0  0  0  0  0
   60.4800   32.8190   47.5720 C   0  0  0  0  0  0  0  0  0  0  0  0
   64.6480   32.6930   49.3590 C   0  0  0  0  0  0  0  0  0  0  0  0
   64.3410   32.3620   50.8260 C   0  0  0  0  0  0  0  0  0  0  0  0
   64.6024   34.7131   52.9154 H   0  0  0  0  0  0  0  0  0  0  0  0
   65.5099   34.4198   51.3931 H   0  0  0  0  0  0  0  0  0  0  0  0
   64.0857   35.5145   51.3931 H   0  0  0  0  0  0  0  0  0  0  0  0
   61.6937   33.0175   50.8448 H   0  0  0  0  0  0  0  0  0  0  0  0
   62.0059   34.7482   51.3177 H   0  0  0  0  0  0  0  0  0  0  0  0
   61.6946   34.3433   48.8285 H   0  0  0  0  0  0  0  0  0  0  0  0
   63.2221   35.1733   49.3102 H   0  0  0  0  0  0  0  0  0  0  0  0
   62.8084   34.8509   46.5522 H   0  0  0  0  0  0  0  0  0  0  0  0
   62.6410   33.5094   45.3376 H   0  0  0  0  0  0  0  0  0  0  0  0
   60.4940   35.3679   45.2852 H   0  0  0  0  0  0  0  0  0  0  0  0
   58.0447   35.2481   45.7334 H   0  0  0  0  0  0  0  0  0  0  0  0
   57.1458   33.5734   47.3489 H   0  0  0  0  0  0  0  0  0  0  0  0
   57.9992   32.2467   49.5923 H   0  0  0  0  0  0  0  0  0  0  0  0
   57.9016   31.0391   48.2583 H   0  0  0  0  0  0  0  0  0  0  0  0
   60.2071   27.3240   48.7695 H   0  0  0  0  0  0  0  0  0  0  0  0
   59.1958   25.8076   47.0692 H   0  0  0  0  0  0  0  0  0  0  0  0
   58.2209   26.7439   44.9772 H   0  0  0  0  0  0  0  0  0  0  0  0
   58.5690   28.9940   43.3510 H   0  0  0  0  0  0  0  0  0  0  0  0
   57.1705   32.4633   42.6722 H   0  0  0  0  0  0  0  0  0  0  0  0
   57.9227   30.9814   41.9901 H   0  0  0  0  0  0  0  0  0  0  0  0
   56.1356   31.1631   41.9901 H   0  0  0  0  0  0  0  0  0  0  0  0
   59.2411   30.7444   46.3002 H   0  0  0  0  0  0  0  0  0  0  0  0
   61.1681   32.1416   48.0990 H   0  0  0  0  0  0  0  0  0  0  0  0
   65.0071   31.7857   48.8512 H   0  0  0  0  0  0  0  0  0  0  0  0
   65.4183   33.4776   49.3262 H   0  0  0  0  0  0  0  0  0  0  0  0
   63.7104   31.4613   50.8590 H   0  0  0  0  0  0  0  0  0  0  0  0
   65.3013   32.2054   51.3392 H   0  0  0  0  0  0  0  0  0  0  0  0
  1  2  1  0
  2  3  1  0
  3  4  1  0
  4  5  1  0
  5  6  1  0
  6  7  2  0
  6  8  1  0
  8  9  1  0
  9 10  2  0
 10 11  1  0
 11 12  2  0
 12 13  1  0
 13 14  1  0
 14 15  1  0
 15 16  2  0
 15 17  1  0
 17 18  1  0
 18 19  2  0
 19 20  1  0
 20 21  2  0
 21 22  1  0
 22 23  1  0
 23 24  1  0
 24 25  1  0
 24 26  2  0
 24 27  2  0
 22 28  2  0
 13 29  2  0
  5 30  1  0
 30 31  1  0
 31  2  1  0
 29  9  1  0
 28 18  1  0
  1 32  1  0
  1 33  1  0
  1 34  1  0
  3 35  1  0
  3 36  1  0
  4 37  1  0
  4 38  1  0
  8 39  1  0
  8 40  1  0
 10 41  1  0
 11 42  1  0
 12 43  1  0
 14 44  1  0
 14 45  1  0
 19 46  1  0
 20 47  1  0
 21 48  1  0
 23 49  1  0
 25 50  1  0
 25 51  1  0
 25 52  1  0
 28 53  1  0
 29 54  1  0
 30 55  1  0
 30 56  1  0
 31 57  1  0
 31 58  1  0
M  CHG  1  17  -1
M  END
>  <UniqueID>  (73) 
68

>  <SMILES>  (73) 
CN1CCN(C(=O)Cc2cccc(CC(=O)[N-]c3cccc(NS(C)(=O)=O)c3)c2)CC1

>  <Energy>  (73) 
62.65070011220094

>  <Genealogy>  (73) 
CN1CCN(C(=O)Cc2cccc(CC(=O)[N-]c3cccc(NS(C)(=O)=O)c3)c2)CC1 (protonated)
CN1CCN(C(=O)Cc2cccc(CC(=O)[N-]c3cccc(NS(C)(=O)=O)c3)c2)CC1 (3D coordinates assigned)
CN1CCN(C(=O)Cc2cccc(CC(=O)[N-]c3cccc(NS(C)(=O)=O)c3)c2)CC1 (nonaromatic ring conformer: 62.65070011220094 kcal/mol)

>  <smiles>  (73) 
CN1CCN(C(=O)Cc2cccc(CC(=O)Nc3cccc(NS(C)(=O)=O)c3)c2)CC1

>  <score_type>  (73) 
oracle

>  <origin>  (73) 
adg

>  <m_score__min__energy>  (73) 
-11.630000000000001

>  <m_primary>  (73) 
energy

$$$$
73:0
     RDKit          3D

 41 43  0  0  1  0  0  0  0  0999 V2000
   56.2770   29.7460   42.6100 C   0  0  0  0  0  0  0  0  0  0  0  0
   56.7980   29.6420   44.0220 C   0  0  0  0  0  0  0  0  0  0  0  0
   55.9420   29.7540   44.9230 O   0  0  0  0  0  0  0  0  0  0  0  0
   58.1750   29.4320   44.2590 N   0  0  0  0  0  0  0  0  0  0  0  0
   58.7940   29.3160   45.5190 C   0  0  0  0  0  0  0  0  0  0  0  0
   60.0870   29.7820   45.6420 C   0  0  0  0  0  0  0  0  0  0  0  0
   60.7490   29.6970   46.8480 C   0  0  0  0  0  0  0  0  0  0  0  0
   60.1820   29.1590   47.9800 C   0  0  0  0  0  0  0  0  0  0  0  0
   60.8740   29.0760   49.2220 N   0  0  0  0  0  0  0  0  0  0  0  0
   61.4230   30.1590   49.6740 C   0  0  0  0  0  0  0  0  0  0  0  0
   62.3710   30.0010   50.6220 N   0  0  0  0  0  0  0  0  0  0  0  0
   63.0040   31.0730   51.1580 C   0  0  0  0  0  0  0  0  0  0  0  0
   62.6530   32.3310   50.7080 C   0  0  0  0  0  0  0  0  0  0  0  0
   63.5220   33.8710   51.4380 Br  0  0  0  0  0  0  0  0  0  0  0  0
   61.6830   32.4850   49.7390 C   0  0  0  0  0  0  0  0  0  0  0  0
   61.4010   33.6860   49.3610 N   0  0  0  0  0  0  0  0  0  0  0  0
   60.6130   33.8330   48.1820 C   0  0  0  0  0  0  0  0  0  0  0  0
   59.2450   34.0360   48.2140 C   0  0  0  0  0  0  0  0  0  0  0  0
   58.5230   34.1720   47.0230 C   0  0  0  0  0  0  0  0  0  0  0  0
   59.1440   34.1090   45.8100 C   0  0  0  0  0  0  0  0  0  0  0  0
   60.5250   33.9050   45.7580 C   0  0  0  0  0  0  0  0  0  0  0  0
   61.2520   33.7670   46.9410 C   0  0  0  0  0  0  0  0  0  0  0  0
   63.1360   33.4890   46.8070 Br  0  0  0  0  0  0  0  0  0  0  0  0
   61.0830   31.3890   49.2380 N   0  0  0  0  0  0  0  0  0  0  0  0
   58.8890   28.6910   47.8670 C   0  0  0  0  0  0  0  0  0  0  0  0
   58.2210   28.7770   46.6430 C   0  0  0  0  0  0  0  0  0  0  0  0
   55.1985   29.9613   42.6320 H   0  0  0  0  0  0  0  0  0  0  0  0
   56.8021   30.5570   42.0842 H   0  0  0  0  0  0  0  0  0  0  0  0
   56.4505   28.7955   42.0842 H   0  0  0  0  0  0  0  0  0  0  0  0
   58.7750   29.3570   43.3830 H   0  0  0  0  0  0  0  0  0  0  0  0
   60.5931   30.2245   44.7713 H   0  0  0  0  0  0  0  0  0  0  0  0
   61.7794   30.0773   46.9081 H   0  0  0  0  0  0  0  0  0  0  0  0
   62.6550   29.0670   50.9800 H   0  0  0  0  0  0  0  0  0  0  0  0
   63.7765   30.9447   51.9306 H   0  0  0  0  0  0  0  0  0  0  0  0
   58.7222   34.0908   49.1803 H   0  0  0  0  0  0  0  0  0  0  0  0
   57.4356   34.3325   47.0656 H   0  0  0  0  0  0  0  0  0  0  0  0
   58.5632   34.2177   44.8822 H   0  0  0  0  0  0  0  0  0  0  0  0
   61.0383   33.8533   44.7865 H   0  0  0  0  0  0  0  0  0  0  0  0
   60.3490   31.5000   48.5040 H   0  0  0  0  0  0  0  0  0  0  0  0
   58.3846   28.2506   48.7397 H   0  0  0  0  0  0  0  0  0  0  0  0
   57.1911   28.3961   46.5776 H   0  0  0  0  0  0  0  0  0  0  0  0
  1  2  1  0
  2  3  2  0
  2  4  1  0
  4  5  1  0
  5  6  2  0
  6  7  1  0
  7  8  2  0
  8  9  1  0
  9 10  2  0
 10 11  1  0
 11 12  1  0
 12 13  2  0
 13 14  1  0
 13 15  1  0
 15 16  2  0
 16 17  1  0
 17 18  2  0
 18 19  1  0
 19 20  2  0
 20 21  1  0
 21 22  2  0
 22 23  1  0
 15 24  1  0
  8 25  1  0
 25 26  2  0
 26  5  1  0
 24 10  1  0
 22 17  1  0
  1 27  1  0
  1 28  1  0
  1 29  1  0
  4 30  1  0
  6 31  1  0
  7 32  1  0
 11 33  1  0
 12 34  1  0
 18 35  1  0
 19 36  1  0
 20 37  1  0
 21 38  1  0
 24 39  1  0
 25 40  1  0
 26 41  1  0
M  END
>  <smiles>  (74) 
CC(=O)Nc1ccc(N=c2[nH]cc(Br)c(=Nc3ccccc3Br)[nH]2)cc1

>  <score_type>  (74) 
oracle

>  <origin>  (74) 
adg

>  <m_score__min__energy>  (74) 
-8.8300000000000001

>  <m_primary>  (74) 
energy

$$$$
74:0
     RDKit          3D

 17 17  0  0  0  0  0  0  0  0999 V2000
   56.6510   29.5670   43.1620 C   0  0  0  0  0  0  0  0  0  0  0  0
   55.6890   29.3950   44.6970 S   0  0  0  0  0  0  0  0  0  0  0  0
   56.8010   28.1740   45.3910 C   0  0  0  0  0  0  0  0  0  0  0  0
   58.4700   28.3350   45.4850 S   0  0  0  0  0  0  0  0  0  0  0  0
   58.6730   26.8310   46.2120 C   0  0  0  0  0  0  0  0  0  0  0  0
   60.1420   26.2400   46.6380 S   0  0  0  0  0  0  0  0  0  0  0  0
   57.4830   26.1910   46.3880 N   0  0  0  0  0  0  0  0  0  0  0  0
   57.3090   24.8660   46.9910 C   0  0  0  0  0  0  0  0  0  0  0  0
   56.4380   26.9450   45.9260 C   0  0  0  0  0  0  0  0  0  0  0  0
   55.1070   26.5300   45.9830 O   0  0  0  0  0  0  0  0  0  0  0  0
   57.7060   29.7556   43.4097 H   0  0  0  0  0  0  0  0  0  0  0  0
   56.5723   28.6405   42.5742 H   0  0  0  0  0  0  0  0  0  0  0  0
   56.2562   30.4088   42.5742 H   0  0  0  0  0  0  0  0  0  0  0  0
   57.3210   24.9575   48.0871 H   0  0  0  0  0  0  0  0  0  0  0  0
   56.3472   24.4401   46.6692 H   0  0  0  0  0  0  0  0  0  0  0  0
   58.1282   24.2062   46.6692 H   0  0  0  0  0  0  0  0  0  0  0  0
   54.3760   27.1110   46.3710 H   0  0  0  0  0  0  0  0  0  0  0  0
  1  2  1  0
  2  3  1  0
  3  4  1  0
  4  5  1  0
  5  6  2  0
  5  7  1  0
  7  8  1  0
  7  9  1  0
  9 10  1  0
  9  3  2  0
  1 11  1  0
  1 12  1  0
  1 13  1  0
  8 14  1  0
  8 15  1  0
  8 16  1  0
 10 17  1  0
M  END
>  <UniqueID>  (75) 
69

>  <SMILES>  (75) 
CSc1sc(=S)n(C)c1O

>  <Energy>  (75) 
43.574176872240166

>  <Genealogy>  (75) 
CSc1sc(=S)n(C)c1O (3D coordinates assigned)
CSc1sc(=S)n(C)c1O (optimized conformer: 43.574176872240166 kcal/mol)

>  <smiles>  (75) 
CSc1sc(=S)n(C)c1O

>  <score_type>  (75) 
oracle

>  <origin>  (75) 
adg

>  <m_score__min__energy>  (75) 
-5.3899999999999997

>  <m_primary>  (75) 
energy

$$$$
75:0
     RDKit          3D

 42 44  0  0  0  0  0  0  0  0999 V2000
   61.2300   25.7240   46.0110 O   0  0  0  0  0  0  0  0  0  0  0  0
   60.3070   26.4930   46.3910 C   0  0  0  0  0  0  0  0  0  0  0  0
   60.4400   27.9680   46.1780 C   0  0  0  0  0  0  0  0  0  0  0  0
   59.3210   28.4600   45.3590 N   0  0  0  0  0  0  0  0  0  0  0  0
   58.8560   27.6790   44.3360 C   0  0  0  0  0  0  0  0  0  0  0  0
   57.7870   28.0990   43.5470 C   0  0  0  0  0  0  0  0  0  0  0  0
   57.1730   29.3180   43.8170 C   0  0  0  0  0  0  0  0  0  0  0  0
   57.6180   30.1040   44.8890 C   0  0  0  0  0  0  0  0  0  0  0  0
   57.0190   31.3740   45.1930 N   0  0  0  0  0  0  0  0  0  0  0  0
   57.6060   32.6630   44.9740 C   0  0  0  0  0  0  0  0  0  0  0  0
   57.4150   33.2720   43.8860 O   0  0  0  0  0  0  0  0  0  0  0  0
   58.3390   33.3380   46.0670 C   0  0  0  0  0  0  0  0  0  0  0  0
   58.1950   32.8490   47.3790 C   0  0  0  0  0  0  0  0  0  0  0  0
   58.9210   33.4090   48.4310 C   0  0  0  0  0  0  0  0  0  0  0  0
   59.7970   34.4670   48.1910 C   0  0  0  0  0  0  0  0  0  0  0  0
   59.9340   34.9800   46.9000 C   0  0  0  0  0  0  0  0  0  0  0  0
   59.1980   34.4420   45.8370 C   0  0  0  0  0  0  0  0  0  0  0  0
   59.3180   35.0520   44.5870 O   0  0  0  0  0  0  0  0  0  0  0  0
   58.7150   29.6600   45.6460 C   0  0  0  0  0  0  0  0  0  0  0  0
   59.1310   30.3720   46.6030 O   0  0  0  0  0  0  0  0  0  0  0  0
   59.1380   25.9730   47.0380 N   0  0  0  0  0  0  0  0  0  0  0  0
   57.9550   25.4870   46.3870 C   0  0  0  0  0  0  0  0  0  0  0  0
   58.0130   24.2590   45.7150 C   0  0  0  0  0  0  0  0  0  0  0  0
   56.8760   23.7410   45.0860 C   0  0  0  0  0  0  0  0  0  0  0  0
   55.6670   24.4410   45.1400 C   0  0  0  0  0  0  0  0  0  0  0  0
   55.5920   25.6540   45.8320 C   0  0  0  0  0  0  0  0  0  0  0  0
   54.3860   26.3390   45.9000 O   0  0  0  0  0  0  0  0  0  0  0  0
   56.7290   26.1750   46.4590 C   0  0  0  0  0  0  0  0  0  0  0  0
   60.4311   28.4792   47.1520 H   0  0  0  0  0  0  0  0  0  0  0  0
   61.3869   28.1742   45.6576 H   0  0  0  0  0  0  0  0  0  0  0  0
   59.3318   26.7080   44.1341 H   0  0  0  0  0  0  0  0  0  0  0  0
   57.4311   27.4714   42.7167 H   0  0  0  0  0  0  0  0  0  0  0  0
   56.3387   29.6648   43.1895 H   0  0  0  0  0  0  0  0  0  0  0  0
   57.5032   32.0170   47.5771 H   0  0  0  0  0  0  0  0  0  0  0  0
   58.8020   33.0152   49.4512 H   0  0  0  0  0  0  0  0  0  0  0  0
   60.3799   34.8972   49.0187 H   0  0  0  0  0  0  0  0  0  0  0  0
   60.6265   35.8146   46.7160 H   0  0  0  0  0  0  0  0  0  0  0  0
   59.0980   34.5840   43.7180 H   0  0  0  0  0  0  0  0  0  0  0  0
   58.9589   23.6985   45.6818 H   0  0  0  0  0  0  0  0  0  0  0  0
   56.9331   22.7828   44.5488 H   0  0  0  0  0  0  0  0  0  0  0  0
   54.7750   24.0378   44.6383 H   0  0  0  0  0  0  0  0  0  0  0  0
   56.6648   27.1250   47.0098 H   0  0  0  0  0  0  0  0  0  0  0  0
  1  2  2  0
  2  3  1  0
  3  4  1  0
  4  5  1  0
  5  6  2  0
  6  7  1  0
  7  8  2  0
  8  9  1  0
  9 10  1  0
 10 11  2  0
 10 12  1  0
 12 13  2  0
 13 14  1  0
 14 15  2  0
 15 16  1  0
 16 17  2  0
 17 18  1  0
  8 19  1  0
 19 20  2  0
  2 21  1  0
 21 22  1  0
 22 23  2  0
 23 24  1  0
 24 25  2  0
 25 26  1  0
 26 27  1  0
 26 28  2  0
 19  4  1  0
 28 22  1  0
 17 12  1  0
  3 29  1  0
  3 30  1  0
  5 31  1  0
  6 32  1  0
  7 33  1  0
 13 34  1  0
 14 35  1  0
 15 36  1  0
 16 37  1  0
 18 38  1  0
 23 39  1  0
 24 40  1  0
 25 41  1  0
 28 42  1  0
M  CHG  3   9  -1  21  -1  27  -1
M  END
>  <UniqueID>  (76) 
70

>  <SMILES>  (76) 
O=C(Cn1cccc([N-]C(=O)c2ccccc2O)c1=O)[N-]c1cccc([O-])c1

>  <Energy>  (76) 
58.99086594388379

>  <Genealogy>  (76) 
O=C(Cn1cccc([N-]C(=O)c2ccccc2O)c1=O)[N-]c1cccc([O-])c1 (protonated)
O=C(Cn1cccc([N-]C(=O)c2ccccc2O)c1=O)[N-]c1cccc([O-])c1 (3D coordinates assigned)
O=C(Cn1cccc([N-]C(=O)c2ccccc2O)c1=O)[N-]c1cccc([O-])c1 (optimized conformer: 58.99086594388379 kcal/mol)

>  <smiles>  (76) 
O=C(Cn1cccc(NC(=O)c2ccccc2O)c1=O)Nc1cccc(O)c1

>  <score_type>  (76) 
oracle

>  <origin>  (76) 
adg

>  <m_score__min__energy>  (76) 
-14.5

>  <m_primary>  (76) 
energy

$$$$
76:0
     RDKit          3D

 56 59  0  0  0  0  0  0  0  0999 V2000
   54.7760   28.9390   45.4520 H   0  0  0  0  0  0  0  0  0  0  0  0
   55.7000   28.6010   45.2080 O   0  0  0  0  0  0  0  0  0  0  0  0
   56.1260   27.3370   45.6040 C   0  0  0  0  0  0  0  0  0  0  0  0
   55.2090   26.3600   45.8370 N   0  0  0  0  0  0  0  0  0  0  0  0
   55.5900   25.1250   46.2510 C   0  0  0  0  0  0  0  0  0  0  0  0
   54.7230   24.2360   46.4580 O   0  0  0  0  0  0  0  0  0  0  0  0
   56.9050   24.8480   46.4470 N   0  0  0  0  0  0  0  0  0  0  0  0
   57.8610   25.7880   46.2260 C   0  0  0  0  0  0  0  0  0  0  0  0
   59.0720   25.4990   46.4270 O   0  0  0  0  0  0  0  0  0  0  0  0
   57.4950   27.0640   45.7700 C   0  0  0  0  0  0  0  0  0  0  0  0
   58.5160   28.1130   45.5750 C   0  0  0  0  0  0  0  0  0  0  0  0
   59.5689   27.8131   45.6822 H   0  0  0  0  0  0  0  0  0  0  0  0
   58.2730   29.4070   45.2770 C   0  0  0  0  0  0  0  0  0  0  0  0
   57.9120   29.8160   44.0080 C   0  0  0  0  0  0  0  0  0  0  0  0
   57.7267   29.1669   43.1395 H   0  0  0  0  0  0  0  0  0  0  0  0
   57.8280   31.1910   44.0360 C   0  0  0  0  0  0  0  0  0  0  0  0
   57.4320   32.0200   42.8520 C   0  0  0  0  0  0  0  0  0  0  0  0
   56.9819   32.9622   43.1981 H   0  0  0  0  0  0  0  0  0  0  0  0
   58.3221   32.2403   42.2444 H   0  0  0  0  0  0  0  0  0  0  0  0
   56.7013   31.4660   42.2444 H   0  0  0  0  0  0  0  0  0  0  0  0
   58.0780   31.6600   45.2840 N   0  0  0  0  0  0  0  0  0  0  0  0
   57.9990   33.0730   45.6980 C   0  0  0  0  0  0  0  0  0  0  0  0
   57.9752   33.7096   44.8012 H   0  0  0  0  0  0  0  0  0  0  0  0
   57.0854   33.2124   46.2945 H   0  0  0  0  0  0  0  0  0  0  0  0
   59.1880   33.4570   46.5440 C   0  0  0  0  0  0  0  0  0  0  0  0
   60.4830   33.4370   46.0020 C   0  0  0  0  0  0  0  0  0  0  0  0
   60.6323   33.1302   44.9563 H   0  0  0  0  0  0  0  0  0  0  0  0
   61.5840   33.8040   46.7810 C   0  0  0  0  0  0  0  0  0  0  0  0
   62.5920   33.7998   46.3407 H   0  0  0  0  0  0  0  0  0  0  0  0
   61.4090   34.1780   48.1230 C   0  0  0  0  0  0  0  0  0  0  0  0
   62.5070   34.5770   48.9560 N   0  0  0  0  0  0  0  0  0  0  0  0
   63.2550   33.5870   50.1660 S   0  0  0  0  0  0  0  0  0  0  0  0
   63.0670   34.2300   51.5110 O   0  0  0  0  0  0  0  0  0  0  0  0
   64.7290   33.4900   49.8820 O   0  0  0  0  0  0  0  0  0  0  0  0
   62.5130   31.9910   50.1910 C   0  0  0  0  0  0  0  0  0  0  0  0
   62.3880   31.2780   51.3910 C   0  0  0  0  0  0  0  0  0  0  0  0
   62.7579   31.7155   52.3300 H   0  0  0  0  0  0  0  0  0  0  0  0
   61.7940   30.0110   51.3980 C   0  0  0  0  0  0  0  0  0  0  0  0
   61.7096   29.4515   52.3413 H   0  0  0  0  0  0  0  0  0  0  0  0
   61.3050   29.4500   50.2070 C   0  0  0  0  0  0  0  0  0  0  0  0
   60.6880   28.0850   50.2060 C   0  0  0  0  0  0  0  0  0  0  0  0
   60.5367   27.7503   51.2428 H   0  0  0  0  0  0  0  0  0  0  0  0
   59.7187   28.1211   49.6872 H   0  0  0  0  0  0  0  0  0  0  0  0
   61.3555   27.3813   49.6872 H   0  0  0  0  0  0  0  0  0  0  0  0
   61.4450   30.1600   49.0050 C   0  0  0  0  0  0  0  0  0  0  0  0
   61.0830   29.7202   48.0639 H   0  0  0  0  0  0  0  0  0  0  0  0
   62.0430   31.4250   48.9980 C   0  0  0  0  0  0  0  0  0  0  0  0
   62.1447   31.9776   48.0523 H   0  0  0  0  0  0  0  0  0  0  0  0
   60.1220   34.1730   48.6710 C   0  0  0  0  0  0  0  0  0  0  0  0
   59.9770   34.4404   49.7281 H   0  0  0  0  0  0  0  0  0  0  0  0
   59.0180   33.8300   47.8830 C   0  0  0  0  0  0  0  0  0  0  0  0
   58.0083   33.8535   48.3188 H   0  0  0  0  0  0  0  0  0  0  0  0
   58.3340   30.5710   46.0650 C   0  0  0  0  0  0  0  0  0  0  0  0
   58.5200   30.6280   47.3950 C   0  0  0  0  0  0  0  0  0  0  0  0
   58.5499   31.6022   47.9049 H   0  0  0  0  0  0  0  0  0  0  0  0
   58.6424   29.7004   47.9735 H   0  0  0  0  0  0  0  0  0  0  0  0
  1  2  1  0
  2  3  1  0
  3  4  1  0
  4  5  1  0
  5  6  2  0
  5  7  1  0
  7  8  1  0
  8  9  2  0
  8 10  1  0
 10 11  1  0
 11 12  1  0
 11 13  2  0
 13 14  1  0
 14 15  1  0
 14 16  2  0
 16 17  1  0
 17 18  1  0
 17 19  1  0
 17 20  1  0
 16 21  1  0
 21 22  1  0
 22 23  1  0
 22 24  1  0
 22 25  1  0
 25 26  2  0
 26 27  1  0
 26 28  1  0
 28 29  1  0
 28 30  2  0
 30 31  1  0
 31 32  1  0
 32 33  2  0
 32 34  2  0
 32 35  1  0
 35 36  2  0
 36 37  1  0
 36 38  1  0
 38 39  1  0
 38 40  2  0
 40 41  1  0
 41 42  1  0
 41 43  1  0
 41 44  1  0
 40 45  1  0
 45 46  1  0
 45 47  2  0
 47 48  1  0
 30 49  1  0
 49 50  1  0
 49 51  2  0
 51 52  1  0
 21 53  1  0
 53 54  2  0
 54 55  1  0
 54 56  1  0
 10  3  2  0
 53 13  1  0
 51 25  1  0
 47 35  1  0
M  CHG  3   4  -1   7  -1  31  -1
M  END
>  <UniqueID>  (77) 
71

>  <SMILES>  (77) 
C=c1/c(=C\c2c(O)[n-]c(=O)[n-]c2=O)cc(C)n1Cc1ccc([N-]S(=O)(=O)c2ccc(C)cc2)cc1

>  <Energy>  (77) 
105.15394745821452

>  <Genealogy>  (77) 
C=c1c(=Cc2c(O)[n-]c(=O)[n-]c2=O)cc(C)n1Cc1ccc([N-]S(=O)(=O)c2ccc(C)cc2)cc1 (protonated)
C=c1/c(=C\c2c(O)[n-]c(=O)[n-]c2=O)cc(C)n1Cc1ccc([N-]S(=O)(=O)c2ccc(C)cc2)cc1 (cis-trans isomerization)
C=c1/c(=C\c2c(O)[n-]c(=O)[n-]c2=O)cc(C)n1Cc1ccc([N-]S(=O)(=O)c2ccc(C)cc2)cc1 (3D coordinates assigned)
C=c1/c(=C\c2c(O)[n-]c(=O)[n-]c2=O)cc(C)n1Cc1ccc([N-]S(=O)(=O)c2ccc(C)cc2)cc1 (optimized conformer: 105.15394745821452 kcal/mol)

>  <smiles>  (77) 
C=c1c(=Cc2c(O)[nH]c(=O)[nH]c2=O)cc(C)n1Cc1ccc(NS(=O)(=O)c2ccc(C)cc2)cc1

>  <score_type>  (77) 
oracle

>  <origin>  (77) 
adg

>  <m_score__min__energy>  (77) 
-15.23

>  <m_primary>  (77) 
energy

$$$$
77:0
     RDKit          3D

 55 57  0  0  0  0  0  0  0  0999 V2000
   60.3330   27.5830   48.6200 C   0  0  0  0  0  0  0  0  0  0  0  0
   60.7690   27.1650   50.0210 C   0  0  0  0  0  0  0  0  0  0  0  0
   60.8600   28.2990   50.8820 O   0  0  0  0  0  0  0  0  0  0  0  0
   59.9100   29.3270   50.9070 C   0  0  0  0  0  0  0  0  0  0  0  0
   58.9060   29.3110   51.8670 C   0  0  0  0  0  0  0  0  0  0  0  0
   57.9620   30.3350   51.8930 C   0  0  0  0  0  0  0  0  0  0  0  0
   56.9410   30.2810   52.8560 O   0  0  0  0  0  0  0  0  0  0  0  0
   55.5660   30.3210   52.5810 C   0  0  0  0  0  0  0  0  0  0  0  0
   55.0430   31.4730   51.9850 C   0  0  0  0  0  0  0  0  0  0  0  0
   53.6840   31.5540   51.6670 C   0  0  0  0  0  0  0  0  0  0  0  0
   52.8280   30.4790   51.9460 C   0  0  0  0  0  0  0  0  0  0  0  0
   51.3620   30.5730   51.6250 C   0  0  0  0  0  0  0  0  0  0  0  0
   51.0190   31.9610   51.1880 C   0  0  0  0  0  0  0  0  0  0  0  0
   50.7800   32.8540   52.0430 O   0  0  0  0  0  0  0  0  0  0  0  0
   51.0130   32.2830   49.8360 O   0  0  0  0  0  0  0  0  0  0  0  0
   53.3400   29.3390   52.5850 C   0  0  0  0  0  0  0  0  0  0  0  0
   54.7000   29.2540   52.9080 C   0  0  0  0  0  0  0  0  0  0  0  0
   55.2580   27.8330   53.7840 Cl  0  0  0  0  0  0  0  0  0  0  0  0
   58.0840   31.3910   50.9700 C   0  0  0  0  0  0  0  0  0  0  0  0
   57.3190   32.3920   51.0500 O   0  0  0  0  0  0  0  0  0  0  0  0
   59.0640   31.3410   50.0100 N   0  0  0  0  0  0  0  0  0  0  0  0
   59.1670   32.3450   48.9810 C   0  0  0  0  0  0  0  0  0  0  0  0
   60.0790   33.3970   49.1180 C   0  0  0  0  0  0  0  0  0  0  0  0
   60.2060   34.3570   48.1130 C   0  0  0  0  0  0  0  0  0  0  0  0
   59.4380   34.2730   46.9410 C   0  0  0  0  0  0  0  0  0  0  0  0
   59.6110   35.3220   45.8760 C   0  0  0  0  0  0  0  0  0  0  0  0
   58.5210   33.2030   46.7810 C   0  0  0  0  0  0  0  0  0  0  0  0
   57.7070   33.1060   45.5930 N   0  0  0  0  0  0  0  0  0  0  0  0
   57.5960   31.6790   44.6100 S   0  0  0  0  0  0  0  0  0  0  0  0
   58.8810   30.5250   45.0460 C   0  0  0  0  0  0  0  0  0  0  0  0
   56.2440   31.0440   44.7750 O   0  0  0  0  0  0  0  0  0  0  0  0
   57.7780   32.0670   43.1710 O   0  0  0  0  0  0  0  0  0  0  0  0
   58.4030   32.2490   47.8080 C   0  0  0  0  0  0  0  0  0  0  0  0
   59.9500   30.3420   50.0030 N   0  0  0  0  0  0  0  0  0  0  0  0
   59.5408   28.3425   48.6939 H   0  0  0  0  0  0  0  0  0  0  0  0
   61.1935   28.0022   48.0780 H   0  0  0  0  0  0  0  0  0  0  0  0
   59.9504   26.7056   48.0780 H   0  0  0  0  0  0  0  0  0  0  0  0
   60.0332   26.4581   50.4320 H   0  0  0  0  0  0  0  0  0  0  0  0
   61.7596   26.6911   49.9556 H   0  0  0  0  0  0  0  0  0  0  0  0
   58.8567   28.4944   52.6024 H   0  0  0  0  0  0  0  0  0  0  0  0
   55.7064   32.3223   51.7646 H   0  0  0  0  0  0  0  0  0  0  0  0
   53.2847   32.4644   51.1962 H   0  0  0  0  0  0  0  0  0  0  0  0
   51.1207   29.8671   50.8166 H   0  0  0  0  0  0  0  0  0  0  0  0
   50.7801   30.3251   52.5249 H   0  0  0  0  0  0  0  0  0  0  0  0
   52.6672   28.5052   52.8342 H   0  0  0  0  0  0  0  0  0  0  0  0
   60.6997   33.4679   50.0233 H   0  0  0  0  0  0  0  0  0  0  0  0
   60.9153   35.1881   48.2406 H   0  0  0  0  0  0  0  0  0  0  0  0
   59.7726   36.3018   46.3492 H   0  0  0  0  0  0  0  0  0  0  0  0
   60.4796   35.0694   45.2502 H   0  0  0  0  0  0  0  0  0  0  0  0
   58.7073   35.3617   45.2502 H   0  0  0  0  0  0  0  0  0  0  0  0
   57.2020   33.9470   45.2380 H   0  0  0  0  0  0  0  0  0  0  0  0
   58.9566   30.4571   46.1413 H   0  0  0  0  0  0  0  0  0  0  0  0
   58.6398   29.5344   44.6330 H   0  0  0  0  0  0  0  0  0  0  0  0
   59.8400   30.8709   44.6330 H   0  0  0  0  0  0  0  0  0  0  0  0
   57.6988   31.4123   47.6893 H   0  0  0  0  0  0  0  0  0  0  0  0
  1  2  1  0
  2  3  1  0
  3  4  1  0
  4  5  1  0
  5  6  2  0
  6  7  1  0
  7  8  1  0
  8  9  2  0
  9 10  1  0
 10 11  2  0
 11 12  1  0
 12 13  1  0
 13 14  2  0
 13 15  1  0
 11 16  1  0
 16 17  2  0
 17 18  1  0
  6 19  1  0
 19 20  2  0
 19 21  1  0
 21 22  1  0
 22 23  2  0
 23 24  1  0
 24 25  2  0
 25 26  1  0
 25 27  1  0
 27 28  1  0
 28 29  1  0
 29 30  1  0
 29 31  2  0
 29 32  2  0
 27 33  2  0
 21 34  1  0
 34  4  2  0
 17  8  1  0
 33 22  1  0
  1 35  1  0
  1 36  1  0
  1 37  1  0
  2 38  1  0
  2 39  1  0
  5 40  1  0
  9 41  1  0
 10 42  1  0
 12 43  1  0
 12 44  1  0
 16 45  1  0
 23 46  1  0
 24 47  1  0
 26 48  1  0
 26 49  1  0
 26 50  1  0
 28 51  1  0
 30 52  1  0
 30 53  1  0
 30 54  1  0
 33 55  1  0
M  CHG  1  15  -1
M  END
>  <UniqueID>  (78) 
72

>  <SMILES>  (78) 
CCOc1cc(Oc2ccc(CC(=O)[O-])cc2Cl)c(=O)n(-c2ccc(C)c(NS(C)(=O)=O)c2)n1

>  <Energy>  (78) 
68.03515393271206

>  <Genealogy>  (78) 
CCOc1cc(Oc2ccc(CC(=O)[O-])cc2Cl)c(=O)n(-c2ccc(C)c(NS(C)(=O)=O)c2)n1 (protonated)
CCOc1cc(Oc2ccc(CC(=O)[O-])cc2Cl)c(=O)n(-c2ccc(C)c(NS(C)(=O)=O)c2)n1 (3D coordinates assigned)
CCOc1cc(Oc2ccc(CC(=O)[O-])cc2Cl)c(=O)n(-c2ccc(C)c(NS(C)(=O)=O)c2)n1 (optimized conformer: 68.03515393271206 kcal/mol)

>  <smiles>  (78) 
CCOc1cc(Oc2ccc(CC(=O)O)cc2Cl)c(=O)n(-c2ccc(C)c(NS(C)(=O)=O)c2)n1

>  <score_type>  (78) 
oracle

>  <origin>  (78) 
adg

>  <m_score__min__energy>  (78) 
-12.77

>  <m_primary>  (78) 
energy

$$$$
78:0
     RDKit          3D

 33 34  0  0  0  0  0  0  0  0999 V2000
   57.8610   25.7060   47.4150 C   0  0  0  0  0  0  0  0  0  0  0  0
   58.5910   26.9550   47.2320 N   0  0  0  0  0  0  0  0  0  0  0  0
   59.4470   27.4380   48.1220 N   0  0  0  0  0  0  0  0  0  0  0  0
   59.9280   28.6020   47.6450 C   0  0  0  0  0  0  0  0  0  0  0  0
   59.3600   28.8580   46.4100 C   0  0  0  0  0  0  0  0  0  0  0  0
   59.5890   30.0600   45.5470 C   0  0  0  0  0  0  0  0  0  0  0  0
   58.6420   31.1200   45.8950 N   0  0  0  0  0  0  0  0  0  0  0  0
   58.7520   31.9580   47.0790 C   0  0  0  0  0  0  0  0  0  0  0  0
   57.7560   33.0970   46.8210 C   0  0  0  0  0  0  0  0  0  0  0  0
   57.2450   32.8580   45.4790 N   0  0  0  0  0  0  0  0  0  0  0  0
   57.7420   31.7670   45.0060 C   0  0  0  0  0  0  0  0  0  0  0  0
   57.4300   31.2620   43.6230 C   0  0  0  0  0  0  0  0  0  0  0  0
   56.3930   30.2370   43.6540 N   0  0  0  0  0  0  0  0  0  0  0  0
   55.4990   30.2790   44.5240 O   0  0  0  0  0  0  0  0  0  0  0  0
   56.2800   29.3460   42.6120 O   0  0  0  0  0  0  0  0  0  0  0  0
   58.4950   27.8040   46.1870 C   0  0  0  0  0  0  0  0  0  0  0  0
   57.6500   27.5900   44.9630 C   0  0  0  0  0  0  0  0  0  0  0  0
   56.3110   27.8880   45.2440 O   0  0  0  0  0  0  0  0  0  0  0  0
   57.7431   25.5043   48.4899 H   0  0  0  0  0  0  0  0  0  0  0  0
   56.8692   25.7890   46.9466 H   0  0  0  0  0  0  0  0  0  0  0  0
   58.4200   24.8825   46.9466 H   0  0  0  0  0  0  0  0  0  0  0  0
   60.6573   29.2472   48.1567 H   0  0  0  0  0  0  0  0  0  0  0  0
   60.6153   30.4257   45.6983 H   0  0  0  0  0  0  0  0  0  0  0  0
   59.4418   29.7789   44.4938 H   0  0  0  0  0  0  0  0  0  0  0  0
   58.4770   31.3953   47.9833 H   0  0  0  0  0  0  0  0  0  0  0  0
   59.7766   32.3213   47.2471 H   0  0  0  0  0  0  0  0  0  0  0  0
   56.9383   33.0687   47.5562 H   0  0  0  0  0  0  0  0  0  0  0  0
   58.2288   34.0861   46.9116 H   0  0  0  0  0  0  0  0  0  0  0  0
   57.0840   32.1030   43.0041 H   0  0  0  0  0  0  0  0  0  0  0  0
   58.3439   30.8183   43.2013 H   0  0  0  0  0  0  0  0  0  0  0  0
   58.0069   28.2460   44.1554 H   0  0  0  0  0  0  0  0  0  0  0  0
   57.7268   26.5376   44.6522 H   0  0  0  0  0  0  0  0  0  0  0  0
   55.9050   28.2040   44.3950 H   0  0  0  0  0  0  0  0  0  0  0  0
  1  2  1  0
  2  3  1  0
  3  4  2  0
  4  5  1  0
  5  6  1  0
  6  7  1  0
  7  8  1  0
  8  9  1  0
  9 10  1  0
 10 11  2  0
 11 12  1  0
 12 13  1  0
 13 14  2  0
 13 15  1  0
  5 16  2  0
 16 17  1  0
 17 18  1  0
 16  2  1  0
 11  7  1  0
  1 19  1  0
  1 20  1  0
  1 21  1  0
  4 22  1  0
  6 23  1  0
  6 24  1  0
  8 25  1  0
  8 26  1  0
  9 27  1  0
  9 28  1  0
 12 29  1  0
 12 30  1  0
 17 31  1  0
 17 32  1  0
 18 33  1  0
M  CHG  2  13   1  15  -1
M  END
>  <UniqueID>  (79) 
73

>  <SMILES>  (79) 
Cn1ncc(CN2CCN=C2C[N+](=O)[O-])c1CO

>  <Energy>  (79) 
69.02654883784909

>  <Genealogy>  (79) 
Cn1ncc(CN2CCN=C2C[N+](=O)[O-])c1CO (3D coordinates assigned)
Cn1ncc(CN2CCN=C2C[N+](=O)[O-])c1CO (nonaromatic ring conformer: 69.02654883784909 kcal/mol)

>  <smiles>  (79) 
Cn1ncc(CN2CCN=C2C[N+](=O)[O-])c1CO

>  <score_type>  (79) 
oracle

>  <origin>  (79) 
adg

>  <m_score__min__energy>  (79) 
-6.4900000000000002

>  <m_primary>  (79) 
energy

$$$$
79:0
     RDKit          3D

 65 69  0  0  0  0  0  0  0  0999 V2000
   56.9039   33.8775   43.8946 H   0  0  0  0  0  0  0  0  0  0  0  0
   57.5800   33.9240   44.7610 C   0  0  0  0  0  0  0  0  0  0  0  0
   57.5010   32.9910   45.7420 N   0  0  0  0  0  0  0  0  0  0  0  0
   58.3280   33.0100   46.8250 C   0  0  0  0  0  0  0  0  0  0  0  0
   58.1930   32.1160   47.7560 N   0  0  0  0  0  0  0  0  0  0  0  0
   58.9400   30.5520   47.7280 S   0  0  0  0  0  0  0  0  0  0  0  0
   60.4350   30.7260   47.7180 O   0  0  0  0  0  0  0  0  0  0  0  0
   58.5550   29.7950   48.9670 O   0  0  0  0  0  0  0  0  0  0  0  0
   58.3990   29.6570   46.2990 C   0  0  0  0  0  0  0  0  0  0  0  0
   58.0520   30.3850   45.1510 C   0  0  0  0  0  0  0  0  0  0  0  0
   58.1514   31.4805   45.1499 H   0  0  0  0  0  0  0  0  0  0  0  0
   57.5830   29.7340   44.0130 C   0  0  0  0  0  0  0  0  0  0  0  0
   57.3375   30.3139   43.1111 H   0  0  0  0  0  0  0  0  0  0  0  0
   57.4240   28.3500   44.0140 C   0  0  0  0  0  0  0  0  0  0  0  0
   57.0453   27.8428   43.1144 H   0  0  0  0  0  0  0  0  0  0  0  0
   57.7430   27.6010   45.1520 C   0  0  0  0  0  0  0  0  0  0  0  0
   57.5140   26.1850   45.1210 N   0  0  0  0  0  0  0  0  0  0  0  0
   58.1940   25.5900   44.5940 H   0  0  0  0  0  0  0  0  0  0  0  0
   56.2780   25.6000   45.5520 C   0  0  0  0  0  0  0  0  0  0  0  0
   55.3600   26.3320   46.0160 O   0  0  0  0  0  0  0  0  0  0  0  0
   56.0990   24.1020   45.4880 C   0  0  0  0  0  0  0  0  0  0  0  0
   55.6158   23.9527   46.4648 H   0  0  0  0  0  0  0  0  0  0  0  0
   57.3790   23.3630   45.1000 C   0  0  0  0  0  0  0  0  0  0  0  0
   58.2323   24.0245   44.8894 H   0  0  0  0  0  0  0  0  0  0  0  0
   57.8617   22.6774   45.8120 H   0  0  0  0  0  0  0  0  0  0  0  0
   56.6930   22.8190   43.8540 C   0  0  0  0  0  0  0  0  0  0  0  0
   57.1494   23.1508   42.9097 H   0  0  0  0  0  0  0  0  0  0  0  0
   56.6659   21.7361   43.6629 H   0  0  0  0  0  0  0  0  0  0  0  0
   55.4200   23.5660   44.2240 C   0  0  0  0  0  0  0  0  0  0  0  0
   55.1322   24.3462   43.5040 H   0  0  0  0  0  0  0  0  0  0  0  0
   54.4613   23.0309   44.2922 H   0  0  0  0  0  0  0  0  0  0  0  0
   58.2910   28.2410   46.2920 C   0  0  0  0  0  0  0  0  0  0  0  0
   58.7410   27.4180   47.4790 C   0  0  0  0  0  0  0  0  0  0  0  0
   58.4597   27.9325   48.4097 H   0  0  0  0  0  0  0  0  0  0  0  0
   58.2572   26.4307   47.4452 H   0  0  0  0  0  0  0  0  0  0  0  0
   59.8333   27.2924   47.4452 H   0  0  0  0  0  0  0  0  0  0  0  0
   59.3000   34.0430   46.9250 C   0  0  0  0  0  0  0  0  0  0  0  0
   60.1340   34.1720   47.9230 N   0  0  0  0  0  0  0  0  0  0  0  0
   61.4450   33.6060   48.0540 C   0  0  0  0  0  0  0  0  0  0  0  0
   62.3820   33.8140   47.0340 C   0  0  0  0  0  0  0  0  0  0  0  0
   62.0939   34.3727   46.1313 H   0  0  0  0  0  0  0  0  0  0  0  0
   63.6810   33.3150   47.1580 C   0  0  0  0  0  0  0  0  0  0  0  0
   64.4166   33.4921   46.3596 H   0  0  0  0  0  0  0  0  0  0  0  0
   64.0460   32.5910   48.2960 C   0  0  0  0  0  0  0  0  0  0  0  0
   65.0711   32.2045   48.3952 H   0  0  0  0  0  0  0  0  0  0  0  0
   63.1120   32.3570   49.3080 C   0  0  0  0  0  0  0  0  0  0  0  0
   63.4037   31.7820   50.1992 H   0  0  0  0  0  0  0  0  0  0  0  0
   61.8020   32.8520   49.1940 C   0  0  0  0  0  0  0  0  0  0  0  0
   60.8530   32.6120   50.2470 N   0  0  0  0  0  0  0  0  0  0  0  0
   60.2850   33.7520   50.9800 C   0  0  0  0  0  0  0  0  0  0  0  0
   60.9741   34.0320   51.7904 H   0  0  0  0  0  0  0  0  0  0  0  0
   60.1499   34.5799   50.2685 H   0  0  0  0  0  0  0  0  0  0  0  0
   58.9040   33.4180   51.5920 C   0  0  0  0  0  0  0  0  0  0  0  0
   58.9451   33.6204   52.6724 H   0  0  0  0  0  0  0  0  0  0  0  0
   58.1634   34.0456   51.0747 H   0  0  0  0  0  0  0  0  0  0  0  0
   58.5070   32.0690   51.4040 O   0  0  0  0  0  0  0  0  0  0  0  0
   59.5530   31.2050   51.7930 C   0  0  0  0  0  0  0  0  0  0  0  0
   59.9609   31.5336   52.7603 H   0  0  0  0  0  0  0  0  0  0  0  0
   59.1678   30.1792   51.8903 H   0  0  0  0  0  0  0  0  0  0  0  0
   60.6550   31.2410   50.7350 C   0  0  0  0  0  0  0  0  0  0  0  0
   61.5934   30.8746   51.1768 H   0  0  0  0  0  0  0  0  0  0  0  0
   60.3592   30.6013   49.8904 H   0  0  0  0  0  0  0  0  0  0  0  0
   59.3510   34.9770   45.9350 N   0  0  0  0  0  0  0  0  0  0  0  0
   58.5240   34.9400   44.8610 C   0  0  0  0  0  0  0  0  0  0  0  0
   58.5993   35.7068   44.0760 H   0  0  0  0  0  0  0  0  0  0  0  0
  1  2  1  0
  2  3  1  0
  3  4  1  0
  4  5  2  0
  5  6  1  0
  6  7  2  0
  6  8  2  0
  6  9  1  0
  9 10  2  0
 10 11  1  0
 10 12  1  0
 12 13  1  0
 12 14  2  0
 14 15  1  0
 14 16  1  0
 16 17  1  0
 17 18  1  0
 17 19  1  0
 19 20  2  0
 19 21  1  0
 21 22  1  0
 21 23  1  0
 23 24  1  0
 23 25  1  0
 23 26  1  0
 26 27  1  0
 26 28  1  0
 26 29  1  0
 29 30  1  0
 29 31  1  0
 16 32  2  0
 32 33  1  0
 33 34  1  0
 33 35  1  0
 33 36  1  0
  4 37  1  0
 37 38  2  0
 38 39  1  0
 39 40  2  0
 40 41  1  0
 40 42  1  0
 42 43  1  0
 42 44  2  0
 44 45  1  0
 44 46  1  0
 46 47  1  0
 46 48  2  0
 48 49  1  0
 49 50  1  0
 50 51  1  0
 50 52  1  0
 50 53  1  0
 53 54  1  0
 53 55  1  0
 53 56  1  0
 56 57  1  0
 57 58  1  0
 57 59  1  0
 57 60  1  0
 60 61  1  0
 60 62  1  0
 37 63  1  0
 63 64  1  0
 64 65  1  0
 64  2  2  0
 32  9  1  0
 48 39  1  0
 60 49  1  0
 29 21  1  0
M  CHG  2   3  -1  63  -1
M  END
>  <UniqueID>  (80) 
74

>  <SMILES>  (80) 
Cc1c(NC(=O)C2CCC2)cccc1S(=O)(=O)N=c1[n-]cc[n-]/c1=N/c1ccccc1N1CCOCC1

>  <Energy>  (80) 
162.77149113863968

>  <Genealogy>  (80) 
Cc1c(NC(=O)C2CCC2)cccc1S(=O)(=O)N=c1[n-]cc[n-]c1=Nc1ccccc1N1CCOCC1 (protonated)
Cc1c(NC(=O)C2CCC2)cccc1S(=O)(=O)N=c1[n-]cc[n-]/c1=N/c1ccccc1N1CCOCC1 (cis-trans isomerization)
Cc1c(NC(=O)C2CCC2)cccc1S(=O)(=O)N=c1[n-]cc[n-]/c1=N/c1ccccc1N1CCOCC1 (3D coordinates assigned)
Cc1c(NC(=O)C2CCC2)cccc1S(=O)(=O)N=c1[n-]cc[n-]/c1=N/c1ccccc1N1CCOCC1 (nonaromatic ring conformer: 162.77149113863968 kcal/mol)

>  <smiles>  (80) 
Cc1c(NC(=O)C2CCC2)cccc1S(=O)(=O)N=c1[nH]cc[nH]c1=Nc1ccccc1N1CCOCC1

>  <score_type>  (80) 
oracle

>  <origin>  (80) 
adg

>  <m_score__min__energy>  (80) 
-11.69

>  <m_primary>  (80) 
energy

$$$$
80:0
     RDKit          3D

 37 39  0  0  0  0  0  0  0  0999 V2000
   57.7730   27.2990   43.6850 O   0  0  0  0  0  0  0  0  0  0  0  0
   57.6700   26.9510   44.8910 C   0  0  0  0  0  0  0  0  0  0  0  0
   57.7010   25.4950   45.2380 C   0  0  0  0  0  0  0  0  0  0  0  0
   56.3100   24.9420   45.2530 C   0  0  0  0  0  0  0  0  0  0  0  0
   55.8970   23.3400   44.9310 S   0  0  0  0  0  0  0  0  0  0  0  0
   54.2720   23.6060   45.2680 C   0  0  0  0  0  0  0  0  0  0  0  0
   53.3800   22.7220   45.2010 O   0  0  0  0  0  0  0  0  0  0  0  0
   54.0200   24.8810   45.6340 N   0  0  0  0  0  0  0  0  0  0  0  0
   55.1560   25.6230   45.6330 C   0  0  0  0  0  0  0  0  0  0  0  0
   55.1520   26.9660   45.9930 O   0  0  0  0  0  0  0  0  0  0  0  0
   57.4310   27.9280   45.9180 N   0  0  0  0  0  0  0  0  0  0  0  0
   57.5850   29.3450   45.7400 C   0  0  0  0  0  0  0  0  0  0  0  0
   58.3110   30.0820   46.6870 C   0  0  0  0  0  0  0  0  0  0  0  0
   58.5050   31.4560   46.5210 C   0  0  0  0  0  0  0  0  0  0  0  0
   57.9910   32.1100   45.3940 C   0  0  0  0  0  0  0  0  0  0  0  0
   58.2510   33.8390   45.1740 S   0  0  0  0  0  0  0  0  0  0  0  0
   56.9610   34.5200   44.8130 O   0  0  0  0  0  0  0  0  0  0  0  0
   59.2430   34.0460   44.0660 O   0  0  0  0  0  0  0  0  0  0  0  0
   58.8700   34.5460   46.6330 N   0  0  0  0  0  0  0  0  0  0  0  0
   60.0440   34.2840   47.1210 C   0  0  0  0  0  0  0  0  0  0  0  0
   60.3030   34.4410   48.4490 N   0  0  0  0  0  0  0  0  0  0  0  0
   61.5290   34.1600   48.9620 C   0  0  0  0  0  0  0  0  0  0  0  0
   62.5440   33.7050   48.1230 C   0  0  0  0  0  0  0  0  0  0  0  0
   62.2650   33.5510   46.7670 C   0  0  0  0  0  0  0  0  0  0  0  0
   61.0260   33.8410   46.2920 N   0  0  0  0  0  0  0  0  0  0  0  0
   57.2750   31.3800   44.4380 C   0  0  0  0  0  0  0  0  0  0  0  0
   57.0810   30.0050   44.6030 C   0  0  0  0  0  0  0  0  0  0  0  0
   58.2996   24.9549   44.4896 H   0  0  0  0  0  0  0  0  0  0  0  0
   58.1494   25.3711   46.2348 H   0  0  0  0  0  0  0  0  0  0  0  0
   57.0490   27.5870   46.8290 H   0  0  0  0  0  0  0  0  0  0  0  0
   58.7312   29.5743   47.5677 H   0  0  0  0  0  0  0  0  0  0  0  0
   59.0634   32.0260   47.2782 H   0  0  0  0  0  0  0  0  0  0  0  0
   61.7200   34.2914   50.0373 H   0  0  0  0  0  0  0  0  0  0  0  0
   63.5424   33.4728   48.5221 H   0  0  0  0  0  0  0  0  0  0  0  0
   63.0477   33.1947   46.0812 H   0  0  0  0  0  0  0  0  0  0  0  0
   56.8637   31.8896   43.5542 H   0  0  0  0  0  0  0  0  0  0  0  0
   56.5310   29.4353   43.8395 H   0  0  0  0  0  0  0  0  0  0  0  0
  1  2  2  0
  2  3  1  0
  3  4  1  0
  4  5  1  0
  5  6  1  0
  6  7  2  0
  6  8  1  0
  8  9  1  0
  9 10  1  0
  2 11  1  0
 11 12  1  0
 12 13  2  0
 13 14  1  0
 14 15  2  0
 15 16  1  0
 16 17  2  0
 16 18  2  0
 16 19  1  0
 19 20  2  3
 20 21  1  0
 21 22  2  0
 22 23  1  0
 23 24  2  0
 24 25  1  0
 15 26  1  0
 26 27  2  0
  9  4  2  0
 27 12  1  0
 25 20  1  0
  3 28  1  0
  3 29  1  0
 11 30  1  0
 13 31  1  0
 14 32  1  0
 22 33  1  0
 23 34  1  0
 24 35  1  0
 26 36  1  0
 27 37  1  0
M  CHG  3   8  -1  10  -1  25  -1
M  END
>  <UniqueID>  (81) 
75

>  <SMILES>  (81) 
O=C(Cc1sc(=O)[n-]c1[O-])Nc1ccc(S(=O)(=O)N=c2nccc[n-]2)cc1

>  <Energy>  (81) 
75.55837487904355

>  <Genealogy>  (81) 
O=C(Cc1sc(=O)[n-]c1[O-])Nc1ccc(S(=O)(=O)N=c2nccc[n-]2)cc1 (protonated)
O=C(Cc1sc(=O)[n-]c1[O-])Nc1ccc(S(=O)(=O)N=c2nccc[n-]2)cc1 (3D coordinates assigned)
O=C(Cc1sc(=O)[n-]c1[O-])Nc1ccc(S(=O)(=O)N=c2nccc[n-]2)cc1 (optimized conformer: 75.55837487904355 kcal/mol)

>  <smiles>  (81) 
O=C(Cc1sc(=O)[nH]c1O)Nc1ccc(S(=O)(=O)N=c2nccc[nH]2)cc1

>  <score_type>  (81) 
oracle

>  <origin>  (81) 
adg

>  <m_score__min__energy>  (81) 
-14.960000000000001

>  <m_primary>  (81) 
energy

$$$$
81:0
     RDKit          3D

 38 40  0  0  0  0  0  0  0  0999 V2000
   60.1640   33.5720   49.5740 H   0  0  0  0  0  0  0  0  0  0  0  0
   59.2830   33.8600   49.1650 O   0  0  0  0  0  0  0  0  0  0  0  0
   59.1270   33.9810   47.7870 C   0  0  0  0  0  0  0  0  0  0  0  0
   59.8230   34.9670   47.0730 C   0  0  0  0  0  0  0  0  0  0  0  0
   60.5053   35.6492   47.6013 H   0  0  0  0  0  0  0  0  0  0  0  0
   59.6510   35.0840   45.6920 C   0  0  0  0  0  0  0  0  0  0  0  0
   60.1896   35.8658   45.1363 H   0  0  0  0  0  0  0  0  0  0  0  0
   58.7960   34.2100   45.0140 C   0  0  0  0  0  0  0  0  0  0  0  0
   58.6511   34.3168   43.9288 H   0  0  0  0  0  0  0  0  0  0  0  0
   58.1220   33.1970   45.7130 C   0  0  0  0  0  0  0  0  0  0  0  0
   57.2380   32.2730   44.9710 C   0  0  0  0  0  0  0  0  0  0  0  0
   56.1931   32.5827   44.8216 H   0  0  0  0  0  0  0  0  0  0  0  0
   57.6090   31.0860   44.4650 C   0  0  0  0  0  0  0  0  0  0  0  0
   58.0353   31.0796   43.4510 H   0  0  0  0  0  0  0  0  0  0  0  0
   57.4910   29.7880   45.1600 C   0  0  0  0  0  0  0  0  0  0  0  0
   58.4540   29.0500   45.8200 C   0  0  0  0  0  0  0  0  0  0  0  0
   59.8050   29.3890   45.9500 O   0  0  0  0  0  0  0  0  0  0  0  0
   60.3390   30.2020   46.9590 C   0  0  0  0  0  0  0  0  0  0  0  0
   59.7540   30.1580   48.2280 C   0  0  0  0  0  0  0  0  0  0  0  0
   58.8743   29.5209   48.4018 H   0  0  0  0  0  0  0  0  0  0  0  0
   60.2790   30.9180   49.2780 C   0  0  0  0  0  0  0  0  0  0  0  0
   59.8056   30.8788   50.2701 H   0  0  0  0  0  0  0  0  0  0  0  0
   61.4020   31.7280   49.0760 C   0  0  0  0  0  0  0  0  0  0  0  0
   61.8930   32.4690   50.1620 O   0  0  0  0  0  0  0  0  0  0  0  0
   62.7550   33.5950   50.0410 C   0  0  0  0  0  0  0  0  0  0  0  0
   63.0307   33.9551   51.0432 H   0  0  0  0  0  0  0  0  0  0  0  0
   63.6634   33.3041   49.4932 H   0  0  0  0  0  0  0  0  0  0  0  0
   62.2371   34.3960   49.4932 H   0  0  0  0  0  0  0  0  0  0  0  0
   62.0010   31.7670   47.8030 C   0  0  0  0  0  0  0  0  0  0  0  0
   62.8868   32.3967   47.6332 H   0  0  0  0  0  0  0  0  0  0  0  0
   61.4740   31.0080   46.7530 C   0  0  0  0  0  0  0  0  0  0  0  0
   61.9490   31.0413   45.7614 H   0  0  0  0  0  0  0  0  0  0  0  0
   57.8970   27.8990   46.2550 N   0  0  0  0  0  0  0  0  0  0  0  0
   56.6540   27.9470   45.8580 O   0  0  0  0  0  0  0  0  0  0  0  0
   56.3840   29.0350   45.2020 N   0  0  0  0  0  0  0  0  0  0  0  0
   55.1550   29.3440   44.6660 O   0  0  0  0  0  0  0  0  0  0  0  0
   58.2690   33.1080   47.1080 C   0  0  0  0  0  0  0  0  0  0  0  0
   57.7064   32.3477   47.6696 H   0  0  0  0  0  0  0  0  0  0  0  0
  1  2  1  0
  2  3  1  0
  3  4  2  0
  4  5  1  0
  4  6  1  0
  6  7  1  0
  6  8  2  0
  8  9  1  0
  8 10  1  0
 10 11  1  0
 11 12  1  0
 11 13  2  0
 13 14  1  0
 13 15  1  0
 15 16  1  0
 16 17  1  0
 17 18  1  0
 18 19  2  0
 19 20  1  0
 19 21  1  0
 21 22  1  0
 21 23  2  0
 23 24  1  0
 24 25  1  0
 25 26  1  0
 25 27  1  0
 25 28  1  0
 23 29  1  0
 29 30  1  0
 29 31  2  0
 31 32  1  0
 16 33  2  0
 33 34  1  0
 34 35  1  0
 35 36  1  0
 10 37  2  0
 37 38  1  0
 37  3  1  0
 35 15  2  0
 31 18  1  0
M  CHG  2  35   1  36  -1
M  END
>  <UniqueID>  (82) 
76

>  <SMILES>  (82) 
COc1ccc(Oc2no[n+]([O-])c2/C=C\c2cccc(O)c2)cc1

>  <Energy>  (82) 
88.25085062749964

>  <Genealogy>  (82) 
COc1ccc(Oc2no[n+]([O-])c2/C=C\c2cccc(O)c2)cc1 (cis-trans isomerization)
COc1ccc(Oc2no[n+]([O-])c2/C=C\c2cccc(O)c2)cc1 (3D coordinates assigned)
COc1ccc(Oc2no[n+]([O-])c2/C=C\c2cccc(O)c2)cc1 (optimized conformer: 88.25085062749964 kcal/mol)

>  <smiles>  (82) 
COc1ccc(Oc2no[n+]([O-])c2C=Cc2cccc(O)c2)cc1

>  <score_type>  (82) 
oracle

>  <origin>  (82) 
adg

>  <m_score__min__energy>  (82) 
-8.5700000000000003

>  <m_primary>  (82) 
energy

$$$$
82:0
     RDKit          3D

 75 79  0  0  0  0  0  0  0  0999 V2000
   65.2100   33.0750   49.7460 C   0  0  0  0  0  0  0  0  0  0  0  0
   63.7880   32.4900   49.7070 C   0  0  0  0  0  0  0  0  0  0  0  0
   62.7860   33.3430   49.0320 N   0  0  0  0  0  0  0  0  0  0  0  0
   61.4920   33.4700   49.7320 C   0  0  0  0  0  0  0  0  0  0  0  0
   61.1460   32.1460   50.4370 C   0  0  2  0  0  0  0  0  0  0  0  0
   61.4040   30.9560   49.5830 N   0  0  0  0  0  0  0  0  0  0  0  0
   60.2640   30.0130   49.7890 C   0  0  2  0  0  0  0  0  0  0  0  0
   60.6920   28.8880   50.7650 C   0  0  0  0  0  0  0  0  0  0  0  0
   61.6930   29.3660   51.7900 C   0  0  0  0  0  0  0  0  0  0  0  0
   61.2520   29.8990   53.0140 C   0  0  0  0  0  0  0  0  0  0  0  0
   62.1750   30.3900   53.9430 C   0  0  0  0  0  0  0  0  0  0  0  0
   63.5440   30.3510   53.6580 C   0  0  0  0  0  0  0  0  0  0  0  0
   63.9910   29.8180   52.4450 C   0  0  0  0  0  0  0  0  0  0  0  0
   63.0710   29.3290   51.5120 C   0  0  0  0  0  0  0  0  0  0  0  0
   59.7600   29.4210   48.4870 C   0  0  0  0  0  0  0  0  0  0  0  0
   58.6250   28.8680   48.4420 O   0  0  0  0  0  0  0  0  0  0  0  0
   60.5210   29.5570   47.3190 O   0  0  0  0  0  0  0  0  0  0  0  0
   60.1900   28.8880   46.1090 C   0  0  0  0  0  0  0  0  0  0  0  0
   59.2120   30.8660   50.4140 C   0  0  0  0  0  0  0  0  0  0  0  0
   59.7090   32.0590   50.7630 C   0  0  0  0  0  0  0  0  0  0  0  0
   58.9580   32.5260   51.8210 C   0  0  0  0  0  0  0  0  0  0  0  0
   59.2340   33.6660   52.5670 O   0  0  0  0  0  0  0  0  0  0  0  0
   57.9580   31.6550   52.0910 N   0  0  0  0  0  0  0  0  0  0  0  0
   56.9620   31.7620   53.1550 C   0  0  0  0  0  0  0  0  0  0  0  0
   55.8050   30.8510   52.8600 C   0  0  0  0  0  0  0  0  0  0  0  0
   54.8490   31.2080   51.8940 C   0  0  0  0  0  0  0  0  0  0  0  0
   53.7460   30.3810   51.6560 C   0  0  0  0  0  0  0  0  0  0  0  0
   53.5880   29.1980   52.3850 C   0  0  0  0  0  0  0  0  0  0  0  0
   54.5290   28.8430   53.3550 C   0  0  0  0  0  0  0  0  0  0  0  0
   55.6320   29.6670   53.5980 C   0  0  0  0  0  0  0  0  0  0  0  0
   58.1430   30.6100   51.2510 C   0  0  0  0  0  0  0  0  0  0  0  0
   57.4210   29.4210   51.3060 O   0  0  0  0  0  0  0  0  0  0  0  0
   62.6200   32.9740   47.3260 S   0  0  0  0  0  0  0  0  0  0  0  0
   63.6070   33.7700   46.5160 O   0  0  0  0  0  0  0  0  0  0  0  0
   62.9280   31.5160   47.1200 O   0  0  0  0  0  0  0  0  0  0  0  0
   60.9990   33.3040   46.7160 C   0  0  0  0  0  0  0  0  0  0  0  0
   60.0720   32.2610   46.5870 C   0  0  0  0  0  0  0  0  0  0  0  0
   58.7820   32.5200   46.1150 C   0  0  0  0  0  0  0  0  0  0  0  0
   58.4010   33.8280   45.7760 C   0  0  0  0  0  0  0  0  0  0  0  0
   57.0300   34.0990   45.2320 C   0  0  0  0  0  0  0  0  0  0  0  0
   59.3370   34.8690   45.8860 C   0  0  0  0  0  0  0  0  0  0  0  0
   60.6280   34.6090   46.3590 C   0  0  0  0  0  0  0  0  0  0  0  0
   65.5247   33.2045   50.7921 H   0  0  0  0  0  0  0  0  0  0  0  0
   65.9028   32.3889   49.2369 H   0  0  0  0  0  0  0  0  0  0  0  0
   65.2194   34.0501   49.2369 H   0  0  0  0  0  0  0  0  0  0  0  0
   63.8287   31.5260   49.1787 H   0  0  0  0  0  0  0  0  0  0  0  0
   63.4619   32.3973   50.7535 H   0  0  0  0  0  0  0  0  0  0  0  0
   61.5588   34.2745   50.4792 H   0  0  0  0  0  0  0  0  0  0  0  0
   60.7058   33.7070   49.0000 H   0  0  0  0  0  0  0  0  0  0  0  0
   61.7823   32.1449   51.3343 H   0  0  0  0  0  0  0  0  0  0  0  0
   61.4370   31.2590   48.5800 H   0  0  0  0  0  0  0  0  0  0  0  0
   59.7992   28.5165   51.2894 H   0  0  0  0  0  0  0  0  0  0  0  0
   61.1708   28.0941   50.1730 H   0  0  0  0  0  0  0  0  0  0  0  0
   60.1763   29.9300   53.2420 H   0  0  0  0  0  0  0  0  0  0  0  0
   61.8242   30.8071   54.8985 H   0  0  0  0  0  0  0  0  0  0  0  0
   64.2690   30.7397   54.3883 H   0  0  0  0  0  0  0  0  0  0  0  0
   65.0681   29.7833   52.2242 H   0  0  0  0  0  0  0  0  0  0  0  0
   63.4266   28.9140   50.5574 H   0  0  0  0  0  0  0  0  0  0  0  0
   59.7132   27.9243   46.3414 H   0  0  0  0  0  0  0  0  0  0  0  0
   59.4953   29.5093   45.5247 H   0  0  0  0  0  0  0  0  0  0  0  0
   61.1053   28.7127   45.5247 H   0  0  0  0  0  0  0  0  0  0  0  0
   57.4187   31.4742   54.1134 H   0  0  0  0  0  0  0  0  0  0  0  0
   56.6022   32.7998   53.2137 H   0  0  0  0  0  0  0  0  0  0  0  0
   54.9683   32.1407   51.3231 H   0  0  0  0  0  0  0  0  0  0  0  0
   53.0027   30.6613   50.8951 H   0  0  0  0  0  0  0  0  0  0  0  0
   52.7223   28.5465   52.1946 H   0  0  0  0  0  0  0  0  0  0  0  0
   54.4017   27.9131   53.9287 H   0  0  0  0  0  0  0  0  0  0  0  0
   56.3661   29.3883   54.3683 H   0  0  0  0  0  0  0  0  0  0  0  0
   60.3605   31.2347   46.8582 H   0  0  0  0  0  0  0  0  0  0  0  0
   58.0621   31.6951   46.0087 H   0  0  0  0  0  0  0  0  0  0  0  0
   56.3257   34.2382   46.0654 H   0  0  0  0  0  0  0  0  0  0  0  0
   57.0535   35.0099   44.6158 H   0  0  0  0  0  0  0  0  0  0  0  0
   56.7052   33.2477   44.6158 H   0  0  0  0  0  0  0  0  0  0  0  0
   59.0543   35.8927   45.5993 H   0  0  0  0  0  0  0  0  0  0  0  0
   61.3540   35.4302   46.4512 H   0  0  0  0  0  0  0  0  0  0  0  0
  1  2  1  0
  2  3  1  0
  3  4  1  0
  4  5  1  0
  5  6  1  0
  6  7  1  0
  7  8  1  1
  8  9  1  0
  9 10  2  0
 10 11  1  0
 11 12  2  0
 12 13  1  0
 13 14  2  0
  7 15  1  0
 15 16  2  0
 15 17  1  0
 17 18  1  0
  7 19  1  0
 19 20  1  0
 20 21  2  0
 21 22  1  0
 21 23  1  0
 23 24  1  0
 24 25  1  0
 25 26  2  0
 26 27  1  0
 27 28  2  0
 28 29  1  0
 29 30  2  0
 23 31  1  0
 31 32  1  0
  3 33  1  0
 33 34  2  0
 33 35  2  0
 33 36  1  0
 36 37  2  0
 37 38  1  0
 38 39  2  0
 39 40  1  0
 39 41  1  0
 41 42  2  0
 20  5  1  0
 30 25  1  0
 42 36  1  0
 14  9  1  0
 31 19  2  0
  1 43  1  0
  1 44  1  0
  1 45  1  0
  2 46  1  0
  2 47  1  0
  4 48  1  0
  4 49  1  0
  5 50  1  1
  6 51  1  0
  8 52  1  0
  8 53  1  0
 10 54  1  0
 11 55  1  0
 12 56  1  0
 13 57  1  0
 14 58  1  0
 18 59  1  0
 18 60  1  0
 18 61  1  0
 24 62  1  0
 24 63  1  0
 26 64  1  0
 27 65  1  0
 28 66  1  0
 29 67  1  0
 30 68  1  0
 37 69  1  0
 38 70  1  0
 40 71  1  0
 40 72  1  0
 40 73  1  0
 41 74  1  0
 42 75  1  0
M  CHG  2  22  -1  32  -1
M  END
>  <UniqueID>  (83) 
77

>  <SMILES>  (83) 
CCN(C[C@@H]1N[C@](Cc2ccccc2)(C(=O)OC)c2c1c([O-])n(Cc1ccccc1)c2[O-])S(=O)(=O)c1ccc(C)cc1

>  <Energy>  (83) 
134.9141351132416

>  <Genealogy>  (83) 
CCN(CC1NC(Cc2ccccc2)(C(=O)OC)c2c1c([O-])n(Cc1ccccc1)c2[O-])S(=O)(=O)c1ccc(C)cc1 (protonated)
CCN(C[C@@H]1N[C@](Cc2ccccc2)(C(=O)OC)c2c1c([O-])n(Cc1ccccc1)c2[O-])S(=O)(=O)c1ccc(C)cc1 (chirality)
CCN(C[C@@H]1N[C@](Cc2ccccc2)(C(=O)OC)c2c1c([O-])n(Cc1ccccc1)c2[O-])S(=O)(=O)c1ccc(C)cc1 (3D coordinates assigned)
CCN(C[C@@H]1N[C@](Cc2ccccc2)(C(=O)OC)c2c1c([O-])n(Cc1ccccc1)c2[O-])S(=O)(=O)c1ccc(C)cc1 (nonaromatic ring conformer: 134.9141351132416 kcal/mol)

>  <smiles>  (83) 
CCN(CC1NC(Cc2ccccc2)(C(=O)OC)c2c1c(O)n(Cc1ccccc1)c2O)S(=O)(=O)c1ccc(C)cc1

>  <score_type>  (83) 
oracle

>  <origin>  (83) 
adg

>  <m_score__min__energy>  (83) 
-12.74

>  <m_primary>  (83) 
energy

$$$$
83:0
     RDKit          3D

 47 50  0  0  0  0  0  0  0  0999 V2000
   64.2823   34.8164   48.7998 H   0  0  0  0  0  0  0  0  0  0  0  0
   63.7710   33.8910   48.4960 C   0  0  0  0  0  0  0  0  0  0  0  0
   63.7960   32.7730   49.3330 C   0  0  0  0  0  0  0  0  0  0  0  0
   64.3332   32.8159   50.2919 H   0  0  0  0  0  0  0  0  0  0  0  0
   63.1380   31.5990   48.9520 C   0  0  0  0  0  0  0  0  0  0  0  0
   63.1688   30.7173   49.6090 H   0  0  0  0  0  0  0  0  0  0  0  0
   62.4400   31.5390   47.7390 C   0  0  0  0  0  0  0  0  0  0  0  0
   61.8000   30.3430   47.3890 O   0  0  0  0  0  0  0  0  0  0  0  0
   60.4810   30.2510   46.9270 C   0  0  0  0  0  0  0  0  0  0  0  0
   59.9700   29.4380   45.5410 S   0  0  0  0  0  0  0  0  0  0  0  0
   58.3610   29.8990   45.7680 C   0  0  0  0  0  0  0  0  0  0  0  0
   57.3580   29.5160   45.0390 N   0  0  0  0  0  0  0  0  0  0  0  0
   56.5060   30.4260   44.3380 C   0  0  0  0  0  0  0  0  0  0  0  0
   55.2610   30.3990   44.5290 O   0  0  0  0  0  0  0  0  0  0  0  0
   57.1080   31.4800   43.4640 C   0  0  0  0  0  0  0  0  0  0  0  0
   56.3416   31.8719   42.7792 H   0  0  0  0  0  0  0  0  0  0  0  0
   57.9322   31.0475   42.8778 H   0  0  0  0  0  0  0  0  0  0  0  0
   57.6320   32.5970   44.3250 C   0  0  0  0  0  0  0  0  0  0  0  0
   56.9830   32.9300   45.5250 C   0  0  0  0  0  0  0  0  0  0  0  0
   56.0455   32.4239   45.7988 H   0  0  0  0  0  0  0  0  0  0  0  0
   57.5220   33.9010   46.3730 C   0  0  0  0  0  0  0  0  0  0  0  0
   57.0035   34.1603   47.3078 H   0  0  0  0  0  0  0  0  0  0  0  0
   58.7200   34.5460   46.0380 C   0  0  0  0  0  0  0  0  0  0  0  0
   59.2750   35.5350   46.9100 N   0  0  0  0  0  0  0  0  0  0  0  0
   58.6560   36.1440   47.4890 H   0  0  0  0  0  0  0  0  0  0  0  0
   60.3090   35.6660   46.9790 H   0  0  0  0  0  0  0  0  0  0  0  0
   59.3760   34.2090   44.8460 C   0  0  0  0  0  0  0  0  0  0  0  0
   60.3180   34.7101   44.5786 H   0  0  0  0  0  0  0  0  0  0  0  0
   58.8380   33.2390   43.9960 C   0  0  0  0  0  0  0  0  0  0  0  0
   59.3612   32.9766   43.0646 H   0  0  0  0  0  0  0  0  0  0  0  0
   58.2030   30.6680   46.8670 N   0  0  0  0  0  0  0  0  0  0  0  0
   59.3830   30.8810   47.5140 C   0  0  0  0  0  0  0  0  0  0  0  0
   59.4560   31.6780   48.7590 C   0  0  0  0  0  0  0  0  0  0  0  0
   59.5760   33.0770   48.6810 C   0  0  0  0  0  0  0  0  0  0  0  0
   59.5992   33.5680   47.6969 H   0  0  0  0  0  0  0  0  0  0  0  0
   59.6660   33.8490   49.8420 C   0  0  0  0  0  0  0  0  0  0  0  0
   59.7551   34.9429   49.7685 H   0  0  0  0  0  0  0  0  0  0  0  0
   59.6430   33.2350   51.0940 C   0  0  0  0  0  0  0  0  0  0  0  0
   59.7163   33.8448   52.0066 H   0  0  0  0  0  0  0  0  0  0  0  0
   59.5270   31.8470   51.1900 C   0  0  0  0  0  0  0  0  0  0  0  0
   59.5077   31.3670   52.1795 H   0  0  0  0  0  0  0  0  0  0  0  0
   59.4350   31.0620   50.0330 C   0  0  0  0  0  0  0  0  0  0  0  0
   59.2350   29.3230   50.2270 Cl  0  0  0  0  0  0  0  0  0  0  0  0
   62.4400   32.6620   46.8900 C   0  0  0  0  0  0  0  0  0  0  0  0
   61.9209   32.6163   45.9213 H   0  0  0  0  0  0  0  0  0  0  0  0
   63.0970   33.8350   47.2730 C   0  0  0  0  0  0  0  0  0  0  0  0
   63.0835   34.7139   46.6117 H   0  0  0  0  0  0  0  0  0  0  0  0
  1  2  1  0
  2  3  2  0
  3  4  1  0
  3  5  1  0
  5  6  1  0
  5  7  2  0
  7  8  1  0
  8  9  1  0
  9 10  1  0
 10 11  1  0
 11 12  2  0
 12 13  1  0
 13 14  2  0
 13 15  1  0
 15 16  1  0
 15 17  1  0
 15 18  1  0
 18 19  2  0
 19 20  1  0
 19 21  1  0
 21 22  1  0
 21 23  2  0
 23 24  1  0
 24 25  1  0
 24 26  1  0
 23 27  1  0
 27 28  1  0
 27 29  2  0
 29 30  1  0
 11 31  1  0
 31 32  1  0
 32 33  1  0
 33 34  2  0
 34 35  1  0
 34 36  1  0
 36 37  1  0
 36 38  2  0
 38 39  1  0
 38 40  1  0
 40 41  1  0
 40 42  2  0
 42 43  1  0
  7 44  1  0
 44 45  1  0
 44 46  2  0
 46 47  1  0
 46  2  1  0
 32  9  2  0
 42 33  1  0
 29 18  1  0
M  CHG  1  31  -1
M  END
>  <UniqueID>  (84) 
78

>  <SMILES>  (84) 
Nc1ccc(CC(=O)/N=c2/[n-]c(-c3ccccc3Cl)c(Oc3ccccc3)s2)cc1

>  <Energy>  (84) 
95.73313757917441

>  <Genealogy>  (84) 
Nc1ccc(CC(=O)N=c2[n-]c(-c3ccccc3Cl)c(Oc3ccccc3)s2)cc1 (protonated)
Nc1ccc(CC(=O)/N=c2/[n-]c(-c3ccccc3Cl)c(Oc3ccccc3)s2)cc1 (cis-trans isomerization)
Nc1ccc(CC(=O)/N=c2/[n-]c(-c3ccccc3Cl)c(Oc3ccccc3)s2)cc1 (3D coordinates assigned)
Nc1ccc(CC(=O)/N=c2/[n-]c(-c3ccccc3Cl)c(Oc3ccccc3)s2)cc1 (optimized conformer: 95.73313757917441 kcal/mol)

>  <smiles>  (84) 
Nc1ccc(CC(=O)N=c2[nH]c(-c3ccccc3Cl)c(Oc3ccccc3)s2)cc1

>  <score_type>  (84) 
oracle

>  <origin>  (84) 
adg

>  <m_score__min__energy>  (84) 
-11.029999999999999

>  <m_primary>  (84) 
energy

$$$$
84:0
     RDKit          3D

 59 62  0  0  0  0  0  0  0  0999 V2000
   59.3690   30.9580   50.0370 C   0  0  0  0  0  0  0  0  0  0  0  0
   58.9930   31.1790   48.6290 N   0  0  1  0  0  0  0  0  0  0  0  0
   58.6990   32.6020   48.2830 C   0  0  0  0  0  0  0  0  0  0  0  0
   59.9020   33.5440   48.6120 C   0  0  0  0  0  0  0  0  0  0  0  0
   60.5550   34.1420   47.3580 C   0  0  0  0  0  0  0  0  0  0  0  0
   59.5410   34.9350   46.5150 C   0  0  0  0  0  0  0  0  0  0  0  0
   58.1380   34.2940   46.4690 C   0  0  0  0  0  0  0  0  0  0  0  0
   58.1640   32.8070   46.8360 C   0  0  0  0  0  0  0  0  0  0  0  0
   60.2070   30.4730   47.5810 S   0  0  0  0  0  0  0  0  0  0  0  0
   61.4280   30.1370   48.3910 O   0  0  0  0  0  0  0  0  0  0  0  0
   60.6090   31.4500   46.5090 O   0  0  0  0  0  0  0  0  0  0  0  0
   59.6070   28.9850   46.8490 C   0  0  0  0  0  0  0  0  0  0  0  0
   60.4880   27.9660   46.4750 C   0  0  0  0  0  0  0  0  0  0  0  0
   60.0020   26.8040   45.8760 C   0  0  0  0  0  0  0  0  0  0  0  0
   58.6290   26.6450   45.6360 C   0  0  0  0  0  0  0  0  0  0  0  0
   58.1640   25.3950   45.1020 N   0  0  0  0  0  0  0  0  0  0  0  0
   57.5390   25.3310   43.7790 C   0  0  0  0  0  0  0  0  0  0  0  0
   56.2820   24.4600   43.8600 C   0  0  0  0  0  0  0  0  0  0  0  0
   56.5760   23.2030   44.4430 O   0  0  0  0  0  0  0  0  0  0  0  0
   56.9770   23.3760   45.7910 C   0  0  0  0  0  0  0  0  0  0  0  0
   58.2920   24.1580   45.8710 C   0  0  0  0  0  0  0  0  0  0  0  0
   57.7320   27.6850   45.9850 C   0  0  0  0  0  0  0  0  0  0  0  0
   56.2840   27.6060   45.6850 C   0  0  0  0  0  0  0  0  0  0  0  0
   55.6100   26.6290   46.1090 O   0  0  0  0  0  0  0  0  0  0  0  0
   55.6750   28.6270   44.8770 N   0  0  0  0  0  0  0  0  0  0  0  0
   56.2610   29.6300   44.2890 C   0  0  0  0  0  0  0  0  0  0  0  0
   56.7230   30.6910   44.9810 N   0  0  0  0  0  0  0  0  0  0  0  0
   57.2870   31.6220   44.1650 C   0  0  0  0  0  0  0  0  0  0  0  0
   57.2740   31.3070   42.8110 C   0  0  0  0  0  0  0  0  0  0  0  0
   56.5290   29.8090   42.6310 S   0  0  0  0  0  0  0  0  0  0  0  0
   58.2370   28.8430   46.6020 C   0  0  0  0  0  0  0  0  0  0  0  0
   58.6085   31.4050   50.6941 H   0  0  0  0  0  0  0  0  0  0  0  0
   59.4344   29.8777   50.2338 H   0  0  0  0  0  0  0  0  0  0  0  0
   60.3447   31.4263   50.2338 H   0  0  0  0  0  0  0  0  0  0  0  0
   58.1220   30.6260   48.4520 H   0  0  0  0  0  0  0  0  0  0  0  0
   57.8641   32.8946   48.9367 H   0  0  0  0  0  0  0  0  0  0  0  0
   59.5398   34.3673   49.2452 H   0  0  0  0  0  0  0  0  0  0  0  0
   60.6645   32.9381   49.1233 H   0  0  0  0  0  0  0  0  0  0  0  0
   61.3680   34.8160   47.6657 H   0  0  0  0  0  0  0  0  0  0  0  0
   60.9414   33.3154   46.7437 H   0  0  0  0  0  0  0  0  0  0  0  0
   59.4480   35.9444   46.9422 H   0  0  0  0  0  0  0  0  0  0  0  0
   59.9220   34.9499   45.4832 H   0  0  0  0  0  0  0  0  0  0  0  0
   57.4848   34.8220   47.1793 H   0  0  0  0  0  0  0  0  0  0  0  0
   57.7637   34.3789   45.4381 H   0  0  0  0  0  0  0  0  0  0  0  0
   57.1438   32.4013   46.7683 H   0  0  0  0  0  0  0  0  0  0  0  0
   58.8325   32.2837   46.1365 H   0  0  0  0  0  0  0  0  0  0  0  0
   61.5673   28.0810   46.6536 H   0  0  0  0  0  0  0  0  0  0  0  0
   60.7016   26.0050   45.5892 H   0  0  0  0  0  0  0  0  0  0  0  0
   57.2642   26.3447   43.4520 H   0  0  0  0  0  0  0  0  0  0  0  0
   58.2451   24.8962   43.0563 H   0  0  0  0  0  0  0  0  0  0  0  0
   55.5266   24.9736   44.4728 H   0  0  0  0  0  0  0  0  0  0  0  0
   55.9019   24.2951   42.8410 H   0  0  0  0  0  0  0  0  0  0  0  0
   56.1950   23.9291   46.3318 H   0  0  0  0  0  0  0  0  0  0  0  0
   57.1278   22.3851   46.2441 H   0  0  0  0  0  0  0  0  0  0  0  0
   58.5133   24.3990   46.9212 H   0  0  0  0  0  0  0  0  0  0  0  0
   59.1095   23.5491   45.4576 H   0  0  0  0  0  0  0  0  0  0  0  0
   57.7219   32.5566   44.5488 H   0  0  0  0  0  0  0  0  0  0  0  0
   57.6798   31.9285   41.9992 H   0  0  0  0  0  0  0  0  0  0  0  0
   57.5463   29.6477   46.8943 H   0  0  0  0  0  0  0  0  0  0  0  0
  1  2  1  0
  2  3  1  0
  3  4  1  0
  4  5  1  0
  5  6  1  0
  6  7  1  0
  7  8  1  0
  2  9  1  0
  9 10  2  0
  9 11  2  0
  9 12  1  0
 12 13  2  0
 13 14  1  0
 14 15  2  0
 15 16  1  0
 16 17  1  0
 17 18  1  0
 18 19  1  0
 19 20  1  0
 20 21  1  0
 15 22  1  0
 22 23  1  0
 23 24  2  0
 23 25  1  0
 25 26  2  3
 26 27  1  0
 27 28  1  0
 28 29  2  0
 29 30  1  0
 22 31  2  0
  8  3  1  0
 31 12  1  0
 21 16  1  0
 30 26  1  0
  1 32  1  0
  1 33  1  0
  1 34  1  0
  2 35  1  6
  3 36  1  0
  4 37  1  0
  4 38  1  0
  5 39  1  0
  5 40  1  0
  6 41  1  0
  6 42  1  0
  7 43  1  0
  7 44  1  0
  8 45  1  0
  8 46  1  0
 13 47  1  0
 14 48  1  0
 17 49  1  0
 17 50  1  0
 18 51  1  0
 18 52  1  0
 20 53  1  0
 20 54  1  0
 21 55  1  0
 21 56  1  0
 28 57  1  0
 29 58  1  0
 31 59  1  0
M  CHG  2   2   1  27  -1
M  END
>  <UniqueID>  (85) 
79

>  <SMILES>  (85) 
C[N@@H+](C1CCCCC1)S(=O)(=O)c1ccc(N2CCOCC2)c(C(=O)N=c2[n-]ccs2)c1

>  <Energy>  (85) 
111.16455210046561

>  <Genealogy>  (85) 
C[NH+](C1CCCCC1)S(=O)(=O)c1ccc(N2CCOCC2)c(C(=O)N=c2[n-]ccs2)c1 (protonated)
C[N@@H+](C1CCCCC1)S(=O)(=O)c1ccc(N2CCOCC2)c(C(=O)N=c2[n-]ccs2)c1 (chirality)
C[N@@H+](C1CCCCC1)S(=O)(=O)c1ccc(N2CCOCC2)c(C(=O)N=c2[n-]ccs2)c1 (3D coordinates assigned)
C[N@@H+](C1CCCCC1)S(=O)(=O)c1ccc(N2CCOCC2)c(C(=O)N=c2[n-]ccs2)c1 (nonaromatic ring conformer: 111.16455210046561 kcal/mol)

>  <smiles>  (85) 
CN(C1CCCCC1)S(=O)(=O)c1ccc(N2CCOCC2)c(C(=O)N=c2[nH]ccs2)c1

>  <score_type>  (85) 
oracle

>  <origin>  (85) 
adg

>  <m_score__min__energy>  (85) 
-9.5600000000000005

>  <m_primary>  (85) 
energy

$$$$
85:0
     RDKit          3D

 67 71  0  0  0  0  0  0  0  0999 V2000
   56.0200   27.6100   45.6230 O   0  0  0  0  0  0  0  0  0  0  0  0
   57.2160   27.2980   45.8690 C   0  0  0  0  0  0  0  0  0  0  0  0
   57.7810   25.9590   45.7480 C   0  0  0  0  0  0  0  0  0  0  0  0
   57.1810   24.7430   45.4250 C   0  0  0  0  0  0  0  0  0  0  0  0
   57.9960   23.5990   45.3690 C   0  0  0  0  0  0  0  0  0  0  0  0
   59.3850   23.6910   45.6290 C   0  0  0  0  0  0  0  0  0  0  0  0
   60.1910   22.5560   45.5740 O   0  0  0  0  0  0  0  0  0  0  0  0
   59.9650   24.9350   45.9460 C   0  0  0  0  0  0  0  0  0  0  0  0
   59.1330   26.0530   45.9990 C   0  0  0  0  0  0  0  0  0  0  0  0
   59.4340   27.4510   46.2840 C   0  0  0  0  0  0  0  0  0  0  0  0
   60.5760   27.9170   46.5380 O   0  0  0  0  0  0  0  0  0  0  0  0
   58.2350   28.2320   46.2380 N   0  0  0  0  0  0  0  0  0  0  0  0
   58.1470   29.6610   46.1550 C   0  0  0  0  0  0  0  0  0  0  0  0
   58.4770   30.4480   47.2680 C   0  0  0  0  0  0  0  0  0  0  0  0
   58.4110   31.8420   47.1960 C   0  0  0  0  0  0  0  0  0  0  0  0
   58.0160   32.4710   46.0070 C   0  0  0  0  0  0  0  0  0  0  0  0
   57.9270   33.9740   45.9390 C   0  0  0  0  0  0  0  0  0  0  0  0
   59.2670   34.6560   46.2750 C   0  0  0  0  0  0  0  0  0  0  0  0
   60.4290   34.0440   45.6050 N   0  0  0  0  0  0  0  0  0  0  0  0
   61.6630   34.1720   46.3890 C   0  0  0  0  0  0  0  0  0  0  0  0
   61.5910   33.2680   47.5810 C   0  0  0  0  0  0  0  0  0  0  0  0
   62.0510   31.9470   47.5050 C   0  0  0  0  0  0  0  0  0  0  0  0
   61.9390   31.1190   48.6210 C   0  0  0  0  0  0  0  0  0  0  0  0
   61.3640   31.6050   49.7960 C   0  0  0  0  0  0  0  0  0  0  0  0
   60.8950   32.9350   49.8410 C   0  0  0  0  0  0  0  0  0  0  0  0
   60.3390   33.4490   50.9020 N   0  0  0  0  0  0  0  0  0  0  0  0
   59.0250   33.1280   51.4620 C   0  0  0  0  0  0  0  0  0  0  0  0
   58.1820   32.3350   50.4520 C   0  0  0  0  0  0  0  0  0  0  0  0
   57.6040   31.1240   51.0730 N   0  0  0  0  0  0  0  0  0  0  0  0
   58.6300   30.4200   51.8660 C   0  0  0  0  0  0  0  0  0  0  0  0
   58.0410   29.1330   52.4830 C   0  0  0  0  0  0  0  0  0  0  0  0
   56.6330   29.0640   52.3500 O   0  0  0  0  0  0  0  0  0  0  0  0
   56.0500   30.2610   52.8250 C   0  0  0  0  0  0  0  0  0  0  0  0
   56.4410   31.4520   51.9280 C   0  0  0  0  0  0  0  0  0  0  0  0
   61.0200   33.7160   48.7330 N   0  0  0  0  0  0  0  0  0  0  0  0
   57.6720   31.6860   44.8960 C   0  0  0  0  0  0  0  0  0  0  0  0
   57.7320   30.2890   44.9650 C   0  0  0  0  0  0  0  0  0  0  0  0
   57.2170   29.3540   43.5670 Cl  0  0  0  0  0  0  0  0  0  0  0  0
   56.1021   24.6805   45.2201 H   0  0  0  0  0  0  0  0  0  0  0  0
   57.5510   22.6240   45.1211 H   0  0  0  0  0  0  0  0  0  0  0  0
   60.9330   22.4680   44.8890 H   0  0  0  0  0  0  0  0  0  0  0  0
   61.0432   25.0221   46.1460 H   0  0  0  0  0  0  0  0  0  0  0  0
   58.7902   29.9642   48.2049 H   0  0  0  0  0  0  0  0  0  0  0  0
   58.6702   32.4486   48.0763 H   0  0  0  0  0  0  0  0  0  0  0  0
   57.6278   34.2647   44.9212 H   0  0  0  0  0  0  0  0  0  0  0  0
   57.1873   34.3009   46.6846 H   0  0  0  0  0  0  0  0  0  0  0  0
   59.2059   35.7109   45.9692 H   0  0  0  0  0  0  0  0  0  0  0  0
   59.4233   34.5407   47.3577 H   0  0  0  0  0  0  0  0  0  0  0  0
   60.2400   33.0330   45.4110 H   0  0  0  0  0  0  0  0  0  0  0  0
   62.5246   33.8899   45.7660 H   0  0  0  0  0  0  0  0  0  0  0  0
   61.7792   35.2133   46.7240 H   0  0  0  0  0  0  0  0  0  0  0  0
   62.4963   31.5667   46.5738 H   0  0  0  0  0  0  0  0  0  0  0  0
   62.3040   30.0823   48.5754 H   0  0  0  0  0  0  0  0  0  0  0  0
   61.2771   30.9563   50.6801 H   0  0  0  0  0  0  0  0  0  0  0  0
   59.1582   32.5255   52.3727 H   0  0  0  0  0  0  0  0  0  0  0  0
   58.5027   34.0669   51.6978 H   0  0  0  0  0  0  0  0  0  0  0  0
   57.3658   32.9747   50.0851 H   0  0  0  0  0  0  0  0  0  0  0  0
   58.8336   32.0241   49.6221 H   0  0  0  0  0  0  0  0  0  0  0  0
   59.4750   30.1556   51.2132 H   0  0  0  0  0  0  0  0  0  0  0  0
   58.9719   31.0810   52.6760 H   0  0  0  0  0  0  0  0  0  0  0  0
   58.4863   28.2634   51.9774 H   0  0  0  0  0  0  0  0  0  0  0  0
   58.2756   29.1394   53.5577 H   0  0  0  0  0  0  0  0  0  0  0  0
   54.9552   30.1538   52.8256 H   0  0  0  0  0  0  0  0  0  0  0  0
   56.4159   30.4517   53.8447 H   0  0  0  0  0  0  0  0  0  0  0  0
   55.5866   31.7123   51.2859 H   0  0  0  0  0  0  0  0  0  0  0  0
   56.7144   32.2983   52.5753 H   0  0  0  0  0  0  0  0  0  0  0  0
   57.3524   32.1725   43.9626 H   0  0  0  0  0  0  0  0  0  0  0  0
  1  2  2  0
  2  3  1  0
  3  4  2  0
  4  5  1  0
  5  6  2  0
  6  7  1  0
  6  8  1  0
  8  9  2  0
  9 10  1  0
 10 11  2  0
 10 12  1  0
 12 13  1  0
 13 14  2  0
 14 15  1  0
 15 16  2  0
 16 17  1  0
 17 18  1  0
 18 19  1  0
 19 20  1  0
 20 21  1  0
 21 22  2  0
 22 23  1  0
 23 24  2  0
 24 25  1  0
 25 26  2  3
 26 27  1  0
 27 28  1  0
 28 29  1  0
 29 30  1  0
 30 31  1  0
 31 32  1  0
 32 33  1  0
 33 34  1  0
 25 35  1  0
 16 36  1  0
 36 37  2  0
 37 38  1  0
 12  2  1  0
 37 13  1  0
  9  3  1  0
 35 21  1  0
 34 29  1  0
  4 39  1  0
  5 40  1  0
  7 41  1  0
  8 42  1  0
 14 43  1  0
 15 44  1  0
 17 45  1  0
 17 46  1  0
 18 47  1  0
 18 48  1  0
 19 49  1  0
 20 50  1  0
 20 51  1  0
 22 52  1  0
 23 53  1  0
 24 54  1  0
 27 55  1  0
 27 56  1  0
 28 57  1  0
 28 58  1  0
 30 59  1  0
 30 60  1  0
 31 61  1  0
 31 62  1  0
 33 63  1  0
 33 64  1  0
 34 65  1  0
 34 66  1  0
 36 67  1  0
M  CHG  1  35  -1
M  END
>  <UniqueID>  (86) 
80

>  <SMILES>  (86) 
O=C1c2ccc(O)cc2C(=O)N1c1ccc(CCNCc2cccc(=NCCN3CCOCC3)[n-]2)cc1Cl

>  <Energy>  (86) 
119.00092191931161

>  <Genealogy>  (86) 
O=C1c2ccc(O)cc2C(=O)N1c1ccc(CCNCc2cccc(=NCCN3CCOCC3)[n-]2)cc1Cl (protonated)
O=C1c2ccc(O)cc2C(=O)N1c1ccc(CCNCc2cccc(=NCCN3CCOCC3)[n-]2)cc1Cl (3D coordinates assigned)
O=C1c2ccc(O)cc2C(=O)N1c1ccc(CCNCc2cccc(=NCCN3CCOCC3)[n-]2)cc1Cl (nonaromatic ring conformer: 119.00092191931161 kcal/mol)

>  <smiles>  (86) 
O=C1c2ccc(O)cc2C(=O)N1c1ccc(CCNCc2cccc(=NCCN3CCOCC3)[nH]2)cc1Cl

>  <score_type>  (86) 
oracle

>  <origin>  (86) 
adg

>  <m_score__min__energy>  (86) 
-13.44

>  <m_primary>  (86) 
energy

$$$$
86:0
     RDKit          3D

 47 50  0  0  0  0  0  0  0  0999 V2000
   55.4900   24.2900   47.0070 O   0  0  0  0  0  0  0  0  0  0  0  0
   55.0060   24.8370   45.9830 C   0  0  0  0  0  0  0  0  0  0  0  0
   54.2890   24.0270   45.0370 N   0  0  0  0  0  0  0  0  0  0  0  0
   54.7020   23.7060   43.6710 C   0  0  0  0  0  0  0  0  0  0  0  0
   55.9070   22.8130   43.6480 C   0  0  0  0  0  0  0  0  0  0  0  0
   57.1230   23.0610   44.2530 C   0  0  0  0  0  0  0  0  0  0  0  0
   57.9090   21.9640   43.9680 C   0  0  0  0  0  0  0  0  0  0  0  0
   57.1230   21.1120   43.2210 C   0  0  0  0  0  0  0  0  0  0  0  0
   55.9340   21.6440   43.0510 O   0  0  0  0  0  0  0  0  0  0  0  0
   55.2680   26.2240   45.7480 N   0  0  0  0  0  0  0  0  0  0  0  0
   56.5670   26.8230   45.7460 C   0  0  0  0  0  0  0  0  0  0  0  0
   57.7280   26.0420   45.8360 C   0  0  0  0  0  0  0  0  0  0  0  0
   58.9850   26.6540   45.8310 C   0  0  0  0  0  0  0  0  0  0  0  0
   59.0880   28.0460   45.7520 C   0  0  0  0  0  0  0  0  0  0  0  0
   57.9300   28.8360   45.6700 C   0  0  0  0  0  0  0  0  0  0  0  0
   58.0260   30.3080   45.6750 C   0  0  0  0  0  0  0  0  0  0  0  0
   59.1270   30.9770   46.0870 N   0  0  0  0  0  0  0  0  0  0  0  0
   58.8010   32.2700   45.9090 C   0  0  0  0  0  0  0  0  0  0  0  0
   59.7210   33.3930   46.1580 C   0  0  0  0  0  0  0  0  0  0  0  0
   59.4680   34.5280   45.6710 O   0  0  0  0  0  0  0  0  0  0  0  0
   60.9360   33.1910   46.8990 N   0  0  0  0  0  0  0  0  0  0  0  0
   60.8960   32.6550   48.2610 C   0  0  0  0  0  0  0  0  0  0  0  0
   62.1980   31.9010   48.5470 C   0  0  0  0  0  0  0  0  0  0  0  0
   63.3210   32.7210   48.2810 O   0  0  0  0  0  0  0  0  0  0  0  0
   63.3770   33.0280   46.9000 C   0  0  0  0  0  0  0  0  0  0  0  0
   62.1640   33.8660   46.4760 C   0  0  0  0  0  0  0  0  0  0  0  0
   57.5270   32.3300   45.3910 C   0  0  0  0  0  0  0  0  0  0  0  0
   56.8220   33.4770   45.0510 O   0  0  0  0  0  0  0  0  0  0  0  0
   57.0690   31.1120   45.2570 O   0  0  0  0  0  0  0  0  0  0  0  0
   56.6720   28.2120   45.6330 C   0  0  0  0  0  0  0  0  0  0  0  0
   53.8722   23.1973   43.1585 H   0  0  0  0  0  0  0  0  0  0  0  0
   54.9637   24.6461   43.1634 H   0  0  0  0  0  0  0  0  0  0  0  0
   57.4057   23.9477   44.8394 H   0  0  0  0  0  0  0  0  0  0  0  0
   58.9528   21.8015   44.2748 H   0  0  0  0  0  0  0  0  0  0  0  0
   57.4429   20.1358   42.8275 H   0  0  0  0  0  0  0  0  0  0  0  0
   57.6498   24.9473   45.9106 H   0  0  0  0  0  0  0  0  0  0  0  0
   59.8951   26.0389   45.8894 H   0  0  0  0  0  0  0  0  0  0  0  0
   60.0789   28.5237   45.7541 H   0  0  0  0  0  0  0  0  0  0  0  0
   60.7851   33.4818   48.9781 H   0  0  0  0  0  0  0  0  0  0  0  0
   60.0428   31.9680   48.3616 H   0  0  0  0  0  0  0  0  0  0  0  0
   62.2148   31.5979   49.6043 H   0  0  0  0  0  0  0  0  0  0  0  0
   62.2443   31.0162   47.8951 H   0  0  0  0  0  0  0  0  0  0  0  0
   64.2965   33.5956   46.6942 H   0  0  0  0  0  0  0  0  0  0  0  0
   63.3707   32.0871   46.3302 H   0  0  0  0  0  0  0  0  0  0  0  0
   62.2194   34.8576   46.9489 H   0  0  0  0  0  0  0  0  0  0  0  0
   62.1616   33.9824   45.3822 H   0  0  0  0  0  0  0  0  0  0  0  0
   55.7635   28.8207   45.5143 H   0  0  0  0  0  0  0  0  0  0  0  0
  1  2  2  0
  2  3  1  0
  3  4  1  0
  4  5  1  0
  5  6  2  0
  6  7  1  0
  7  8  2  0
  8  9  1  0
  2 10  1  0
 10 11  1  0
 11 12  2  0
 12 13  1  0
 13 14  2  0
 14 15  1  0
 15 16  1  0
 16 17  2  0
 17 18  1  0
 18 19  1  0
 19 20  2  0
 19 21  1  0
 21 22  1  0
 22 23  1  0
 23 24  1  0
 24 25  1  0
 25 26  1  0
 18 27  2  0
 27 28  1  0
 27 29  1  0
 15 30  2  0
  9  5  1  0
 30 11  1  0
 29 16  1  0
 26 21  1  0
  4 31  1  0
  4 32  1  0
  6 33  1  0
  7 34  1  0
  8 35  1  0
 12 36  1  0
 13 37  1  0
 14 38  1  0
 22 39  1  0
 22 40  1  0
 23 41  1  0
 23 42  1  0
 25 43  1  0
 25 44  1  0
 26 45  1  0
 26 46  1  0
 30 47  1  0
M  CHG  3   3  -1  10  -1  28  -1
M  END
>  <UniqueID>  (87) 
81

>  <SMILES>  (87) 
O=C([N-]Cc1ccco1)[N-]c1cccc(-c2nc(C(=O)N3CCOCC3)c([O-])o2)c1

>  <Energy>  (87) 
114.07769226691053

>  <Genealogy>  (87) 
O=C([N-]Cc1ccco1)[N-]c1cccc(-c2nc(C(=O)N3CCOCC3)c([O-])o2)c1 (protonated)
O=C([N-]Cc1ccco1)[N-]c1cccc(-c2nc(C(=O)N3CCOCC3)c([O-])o2)c1 (3D coordinates assigned)
O=C([N-]Cc1ccco1)[N-]c1cccc(-c2nc(C(=O)N3CCOCC3)c([O-])o2)c1 (nonaromatic ring conformer: 114.07769226691053 kcal/mol)

>  <smiles>  (87) 
O=C(NCc1ccco1)Nc1cccc(-c2nc(C(=O)N3CCOCC3)c(O)o2)c1

>  <score_type>  (87) 
oracle

>  <origin>  (87) 
adg

>  <m_score__min__energy>  (87) 
-13.57

>  <m_primary>  (87) 
energy

$$$$
87:0
     RDKit          3D

 43 45  0  0  0  0  0  0  0  0999 V2000
   59.1310   35.7790   49.4900 H   0  0  0  0  0  0  0  0  0  0  0  0
   59.2750   34.7970   49.2890 O   0  0  0  0  0  0  0  0  0  0  0  0
   60.4770   34.2940   48.7890 C   0  0  0  0  0  0  0  0  0  0  0  0
   61.3930   33.8120   49.6670 N   0  0  0  0  0  0  0  0  0  0  0  0
   62.5970   33.3480   49.2490 C   0  0  0  0  0  0  0  0  0  0  0  0
   63.4260   32.9060   50.0860 O   0  0  0  0  0  0  0  0  0  0  0  0
   62.9120   33.3650   47.9300 N   0  0  0  0  0  0  0  0  0  0  0  0
   62.0330   33.8310   47.0050 C   0  0  0  0  0  0  0  0  0  0  0  0
   62.3590   33.8300   45.7880 O   0  0  0  0  0  0  0  0  0  0  0  0
   60.7700   34.2930   47.4070 C   0  0  0  0  0  0  0  0  0  0  0  0
   59.8080   34.7880   46.3960 C   0  0  0  0  0  0  0  0  0  0  0  0
   59.6301   35.8713   46.3272 H   0  0  0  0  0  0  0  0  0  0  0  0
   59.1410   33.9730   45.5570 C   0  0  0  0  0  0  0  0  0  0  0  0
   59.2570   33.9540   44.1760 C   0  0  0  0  0  0  0  0  0  0  0  0
   59.9179   34.5853   43.5638 H   0  0  0  0  0  0  0  0  0  0  0  0
   58.3830   32.9900   43.7180 C   0  0  0  0  0  0  0  0  0  0  0  0
   58.1430   32.6940   42.2680 C   0  0  0  0  0  0  0  0  0  0  0  0
   57.4526   31.8425   42.1770 H   0  0  0  0  0  0  0  0  0  0  0  0
   57.7025   33.5768   41.7816 H   0  0  0  0  0  0  0  0  0  0  0  0
   59.0978   32.4455   41.7816 H   0  0  0  0  0  0  0  0  0  0  0  0
   57.7340   32.4030   44.7540 N   0  0  0  0  0  0  0  0  0  0  0  0
   56.7230   31.3380   44.6530 C   0  0  0  0  0  0  0  0  0  0  0  0
   55.9449   31.5113   45.4109 H   0  0  0  0  0  0  0  0  0  0  0  0
   56.2964   31.3633   43.6394 H   0  0  0  0  0  0  0  0  0  0  0  0
   57.3310   29.9700   44.8770 C   0  0  0  0  0  0  0  0  0  0  0  0
   58.7290   29.8210   44.8560 C   0  0  0  0  0  0  0  0  0  0  0  0
   59.3685   30.6960   44.6678 H   0  0  0  0  0  0  0  0  0  0  0  0
   59.3110   28.5720   45.0720 C   0  0  0  0  0  0  0  0  0  0  0  0
   60.4055   28.4652   45.0451 H   0  0  0  0  0  0  0  0  0  0  0  0
   58.5100   27.4580   45.3220 C   0  0  0  0  0  0  0  0  0  0  0  0
   58.9754   26.4744   45.4832 H   0  0  0  0  0  0  0  0  0  0  0  0
   57.1100   27.5860   45.3690 C   0  0  0  0  0  0  0  0  0  0  0  0
   56.2670   26.4930   45.6260 O   0  0  0  0  0  0  0  0  0  0  0  0
   56.4500   25.5690   46.6940 C   0  0  0  0  0  0  0  0  0  0  0  0
   56.3460   26.0941   47.6550 H   0  0  0  0  0  0  0  0  0  0  0  0
   55.6916   24.7751   46.6260 H   0  0  0  0  0  0  0  0  0  0  0  0
   57.4537   25.1241   46.6260 H   0  0  0  0  0  0  0  0  0  0  0  0
   56.5260   28.8440   45.1520 C   0  0  0  0  0  0  0  0  0  0  0  0
   55.1430   28.9640   45.2140 O   0  0  0  0  0  0  0  0  0  0  0  0
   58.1770   33.0140   45.8860 C   0  0  0  0  0  0  0  0  0  0  0  0
   57.7270   32.7370   47.1190 C   0  0  0  0  0  0  0  0  0  0  0  0
   56.9632   31.9588   47.2638 H   0  0  0  0  0  0  0  0  0  0  0  0
   58.1218   33.2881   47.9853 H   0  0  0  0  0  0  0  0  0  0  0  0
  1  2  1  0
  2  3  1  0
  3  4  1  0
  4  5  1  0
  5  6  2  0
  5  7  1  0
  7  8  1  0
  8  9  2  0
  8 10  1  0
 10 11  1  0
 11 12  1  0
 11 13  2  0
 13 14  1  0
 14 15  1  0
 14 16  2  0
 16 17  1  0
 17 18  1  0
 17 19  1  0
 17 20  1  0
 16 21  1  0
 21 22  1  0
 22 23  1  0
 22 24  1  0
 22 25  1  0
 25 26  2  0
 26 27  1  0
 26 28  1  0
 28 29  1  0
 28 30  2  0
 30 31  1  0
 30 32  1  0
 32 33  1  0
 33 34  1  0
 34 35  1  0
 34 36  1  0
 34 37  1  0
 32 38  2  0
 38 39  1  0
 21 40  1  0
 40 41  2  0
 41 42  1  0
 41 43  1  0
 10  3  2  0
 40 13  1  0
 38 25  1  0
M  CHG  3   4  -1   7  -1  39  -1
M  END
>  <UniqueID>  (88) 
82

>  <SMILES>  (88) 
C=c1/c(=C/c2c(O)[n-]c(=O)[n-]c2=O)cc(C)n1Cc1cccc(OC)c1[O-]

>  <Energy>  (88) 
85.09649147883287

>  <Genealogy>  (88) 
C=c1c(=Cc2c(O)[n-]c(=O)[n-]c2=O)cc(C)n1Cc1cccc(OC)c1[O-] (protonated)
C=c1/c(=C/c2c(O)[n-]c(=O)[n-]c2=O)cc(C)n1Cc1cccc(OC)c1[O-] (cis-trans isomerization)
C=c1/c(=C/c2c(O)[n-]c(=O)[n-]c2=O)cc(C)n1Cc1cccc(OC)c1[O-] (3D coordinates assigned)
C=c1/c(=C/c2c(O)[n-]c(=O)[n-]c2=O)cc(C)n1Cc1cccc(OC)c1[O-] (optimized conformer: 85.09649147883287 kcal/mol)

>  <smiles>  (88) 
C=c1c(=Cc2c(O)[nH]c(=O)[nH]c2=O)cc(C)n1Cc1cccc(OC)c1O

>  <score_type>  (88) 
oracle

>  <origin>  (88) 
adg

>  <m_score__min__energy>  (88) 
-13.529999999999999

>  <m_primary>  (88) 
energy

$$$$
88:0
     RDKit          3D

 48 50  0  0  0  0  0  0  0  0999 V2000
   55.2300   29.6620   43.0640 O   0  0  0  0  0  0  0  0  0  0  0  0
   55.9990   30.0310   43.9940 C   0  0  0  0  0  0  0  0  0  0  0  0
   56.9440   31.1660   43.7590 C   0  0  0  0  0  0  0  0  0  0  0  0
   57.6490   31.5040   44.9940 N   0  0  0  0  0  0  0  0  0  0  0  0
   58.2080   32.8080   45.2040 C   0  0  0  0  0  0  0  0  0  0  0  0
   58.2860   33.6140   44.2370 O   0  0  0  0  0  0  0  0  0  0  0  0
   58.7020   33.2190   46.5390 C   0  0  0  0  0  0  0  0  0  0  0  0
   59.1710   34.5290   46.7480 C   0  0  0  0  0  0  0  0  0  0  0  0
   59.6410   34.9210   48.0060 C   0  0  0  0  0  0  0  0  0  0  0  0
   59.6460   34.0130   49.0680 C   0  0  0  0  0  0  0  0  0  0  0  0
   59.1750   32.7070   48.8760 C   0  0  0  0  0  0  0  0  0  0  0  0
   59.1940   31.5370   50.1950 S   0  0  0  0  0  0  0  0  0  0  0  0
   58.9340   32.2200   51.5090 O   0  0  0  0  0  0  0  0  0  0  0  0
   58.1210   30.5140   49.9540 O   0  0  0  0  0  0  0  0  0  0  0  0
   60.7400   30.7440   50.2550 N   0  0  0  0  0  0  0  0  0  0  0  0
   61.2380   30.5230   48.9000 C   0  0  0  0  0  0  0  0  0  0  0  0
   62.0960   31.6860   48.4930 C   0  0  0  0  0  0  0  0  0  0  0  0
   62.9400   32.3090   49.4280 C   0  0  0  0  0  0  0  0  0  0  0  0
   63.7500   33.3810   49.0420 C   0  0  0  0  0  0  0  0  0  0  0  0
   63.7250   33.8380   47.7200 C   0  0  0  0  0  0  0  0  0  0  0  0
   62.8950   33.2160   46.7830 C   0  0  0  0  0  0  0  0  0  0  0  0
   62.0920   32.1350   47.1620 C   0  0  0  0  0  0  0  0  0  0  0  0
   58.6940   32.3180   47.6190 C   0  0  0  0  0  0  0  0  0  0  0  0
   56.0370   29.3210   45.2390 N   0  0  0  0  0  0  0  0  0  0  0  0
   56.8360   28.3580   45.6120 C   0  0  0  0  0  0  0  0  0  0  0  0
   58.1630   28.6460   45.7160 N   0  0  0  0  0  0  0  0  0  0  0  0
   59.0890   27.7180   46.0730 C   0  0  0  0  0  0  0  0  0  0  0  0
   58.6960   26.4100   46.3480 C   0  0  0  0  0  0  0  0  0  0  0  0
   57.3440   26.0770   46.2830 C   0  0  0  0  0  0  0  0  0  0  0  0
   56.3960   27.0470   45.9400 C   0  0  0  0  0  0  0  0  0  0  0  0
   55.0530   26.6990   45.9970 O   0  0  0  0  0  0  0  0  0  0  0  0
   57.6762   30.8754   42.9912 H   0  0  0  0  0  0  0  0  0  0  0  0
   56.3723   32.0433   43.4221 H   0  0  0  0  0  0  0  0  0  0  0  0
   57.7930   30.7650   45.7160 H   0  0  0  0  0  0  0  0  0  0  0  0
   59.1681   35.2496   45.9169 H   0  0  0  0  0  0  0  0  0  0  0  0
   60.0076   35.9467   48.1595 H   0  0  0  0  0  0  0  0  0  0  0  0
   60.0197   34.3232   50.0550 H   0  0  0  0  0  0  0  0  0  0  0  0
   61.8342   29.5990   48.8734 H   0  0  0  0  0  0  0  0  0  0  0  0
   60.3901   30.4287   48.2057 H   0  0  0  0  0  0  0  0  0  0  0  0
   62.9634   31.9516   50.4681 H   0  0  0  0  0  0  0  0  0  0  0  0
   64.4077   33.8657   49.7785 H   0  0  0  0  0  0  0  0  0  0  0  0
   64.3577   34.6857   47.4183 H   0  0  0  0  0  0  0  0  0  0  0  0
   62.8732   33.5776   45.7444 H   0  0  0  0  0  0  0  0  0  0  0  0
   61.4561   31.6356   46.4162 H   0  0  0  0  0  0  0  0  0  0  0  0
   58.3065   31.2986   47.4754 H   0  0  0  0  0  0  0  0  0  0  0  0
   60.1499   27.9997   46.1450 H   0  0  0  0  0  0  0  0  0  0  0  0
   59.4442   25.6486   46.6134 H   0  0  0  0  0  0  0  0  0  0  0  0
   57.0215   25.0484   46.5021 H   0  0  0  0  0  0  0  0  0  0  0  0
  1  2  2  0
  2  3  1  0
  3  4  1  0
  4  5  1  0
  5  6  2  0
  5  7  1  0
  7  8  2  0
  8  9  1  0
  9 10  2  0
 10 11  1  0
 11 12  1  0
 12 13  2  0
 12 14  2  0
 12 15  1  0
 15 16  1  0
 16 17  1  0
 17 18  2  0
 18 19  1  0
 19 20  2  0
 20 21  1  0
 21 22  2  0
 11 23  2  0
  2 24  1  0
 24 25  2  3
 25 26  1  0
 26 27  1  0
 27 28  2  0
 28 29  1  0
 29 30  2  0
 30 31  1  0
 23  7  1  0
 30 25  1  0
 22 17  1  0
  3 32  1  0
  3 33  1  0
  4 34  1  0
  8 35  1  0
  9 36  1  0
 10 37  1  0
 16 38  1  0
 16 39  1  0
 18 40  1  0
 19 41  1  0
 20 42  1  0
 21 43  1  0
 22 44  1  0
 23 45  1  0
 27 46  1  0
 28 47  1  0
 29 48  1  0
M  CHG  3  15  -1  26  -1  31  -1
M  END
>  <UniqueID>  (89) 
83

>  <SMILES>  (89) 
O=C(CNC(=O)c1cccc(S(=O)(=O)[N-]Cc2ccccc2)c1)N=c1[n-]cccc1[O-]

>  <Energy>  (89) 
58.045932627107014

>  <Genealogy>  (89) 
O=C(CNC(=O)c1cccc(S(=O)(=O)[N-]Cc2ccccc2)c1)N=c1[n-]cccc1[O-] (protonated)
O=C(CNC(=O)c1cccc(S(=O)(=O)[N-]Cc2ccccc2)c1)N=c1[n-]cccc1[O-] (3D coordinates assigned)
O=C(CNC(=O)c1cccc(S(=O)(=O)[N-]Cc2ccccc2)c1)N=c1[n-]cccc1[O-] (optimized conformer: 58.045932627107014 kcal/mol)

>  <smiles>  (89) 
O=C(CNC(=O)c1cccc(S(=O)(=O)NCc2ccccc2)c1)N=c1[nH]cccc1O

>  <score_type>  (89) 
oracle

>  <origin>  (89) 
adg

>  <m_score__min__energy>  (89) 
-15.42

>  <m_primary>  (89) 
energy

$$$$
89:0
     RDKit          3D

 52 54  0  0  0  0  0  0  0  0999 V2000
   54.7040   29.4130   45.5140 H   0  0  0  0  0  0  0  0  0  0  0  0
   55.0850   29.3350   44.5460 N   0  0  0  0  0  0  0  0  0  0  0  0
   56.4630   29.6030   44.2810 C   0  0  0  0  0  0  0  0  0  0  0  0
   56.7920   30.0750   43.1590 O   0  0  0  0  0  0  0  0  0  0  0  0
   57.4910   29.3460   45.3220 C   0  0  0  0  0  0  0  0  0  0  0  0
   58.5040   30.2940   45.5580 C   0  0  0  0  0  0  0  0  0  0  0  0
   58.5150   31.2325   44.9843 H   0  0  0  0  0  0  0  0  0  0  0  0
   59.4970   30.0560   46.5140 C   0  0  0  0  0  0  0  0  0  0  0  0
   60.2741   30.8134   46.6943 H   0  0  0  0  0  0  0  0  0  0  0  0
   59.5090   28.8640   47.2410 C   0  0  0  0  0  0  0  0  0  0  0  0
   60.5420   28.6580   48.2200 N   0  0  0  0  0  0  0  0  0  0  0  0
   61.1390   29.5980   48.8950 C   0  0  0  0  0  0  0  0  0  0  0  0
   61.5160   30.7760   48.3680 N   0  0  0  0  0  0  0  0  0  0  0  0
   62.0940   31.4770   49.3290 N   0  0  0  0  0  0  0  0  0  0  0  0
   62.6210   32.8400   49.1610 C   0  0  1  0  0  0  0  0  0  0  0  0
   63.3525   33.0221   49.9621 H   0  0  0  0  0  0  0  0  0  0  0  0
   63.3720   32.9860   47.8050 C   0  0  0  0  0  0  0  0  0  0  0  0
   63.5379   31.9800   47.3922 H   0  0  0  0  0  0  0  0  0  0  0  0
   64.3106   33.5183   48.0184 H   0  0  0  0  0  0  0  0  0  0  0  0
   62.6160   33.8230   46.7520 C   0  0  0  0  0  0  0  0  0  0  0  0
   63.0077   33.5781   45.7537 H   0  0  0  0  0  0  0  0  0  0  0  0
   62.7691   34.8870   46.9853 H   0  0  0  0  0  0  0  0  0  0  0  0
   61.0990   33.5380   46.7780 C   0  0  2  0  0  0  0  0  0  0  0  0
   60.9844   32.4614   46.5833 H   0  0  0  0  0  0  0  0  0  0  0  0
   60.3830   34.2920   45.7270 N   0  0  0  0  0  0  0  0  0  0  0  0
   60.3100   33.7200   44.8490 H   0  0  0  0  0  0  0  0  0  0  0  0
   59.0320   34.7130   46.1470 C   0  0  0  0  0  0  0  0  0  0  0  0
   58.9839   34.7350   47.2457 H   0  0  0  0  0  0  0  0  0  0  0  0
   58.8267   35.7145   45.7409 H   0  0  0  0  0  0  0  0  0  0  0  0
   57.9820   33.7350   45.6150 C   0  0  0  0  0  0  0  0  0  0  0  0
   58.4818   33.0371   44.9271 H   0  0  0  0  0  0  0  0  0  0  0  0
   57.4140   33.0440   46.6690 F   0  0  0  0  0  0  0  0  0  0  0  0
   56.9870   34.4020   44.9300 F   0  0  0  0  0  0  0  0  0  0  0  0
   60.4760   33.8630   48.1590 C   0  0  0  0  0  0  0  0  0  0  0  0
   59.7219   33.0956   48.3879 H   0  0  0  0  0  0  0  0  0  0  0  0
   60.0434   34.8716   48.0844 H   0  0  0  0  0  0  0  0  0  0  0  0
   61.5020   33.8990   49.3180 C   0  0  1  0  0  0  0  0  0  0  0  0
   62.0013   34.8784   49.2794 H   0  0  0  0  0  0  0  0  0  0  0  0
   60.8170   33.7710   50.6170 C   0  0  0  0  0  0  0  0  0  0  0  0
   60.2790   33.6700   51.6380 N   0  0  0  0  0  0  0  0  0  0  0  0
   62.0800   30.7680   50.4780 C   0  0  0  0  0  0  0  0  0  0  0  0
   62.4903   31.1022   51.4423 H   0  0  0  0  0  0  0  0  0  0  0  0
   61.4640   29.5510   50.2420 C   0  0  0  0  0  0  0  0  0  0  0  0
   61.2660   28.4680   51.2260 C   0  0  0  0  0  0  0  0  0  0  0  0
   61.5180   28.6920   52.4400 O   0  0  0  0  0  0  0  0  0  0  0  0
   60.7820   27.1790   50.8420 N   0  0  0  0  0  0  0  0  0  0  0  0
   60.4060   26.9900   49.8890 H   0  0  0  0  0  0  0  0  0  0  0  0
   60.7300   26.4130   51.5470 H   0  0  0  0  0  0  0  0  0  0  0  0
   58.4810   27.9240   47.0360 C   0  0  0  0  0  0  0  0  0  0  0  0
   58.4592   27.0002   47.6327 H   0  0  0  0  0  0  0  0  0  0  0  0
   57.4870   28.1560   46.0790 C   0  0  0  0  0  0  0  0  0  0  0  0
   56.5300   27.2120   45.9000 F   0  0  0  0  0  0  0  0  0  0  0  0
  1  2  1  0
  2  3  1  0
  3  4  2  0
  3  5  1  0
  5  6  2  0
  6  7  1  0
  6  8  1  0
  8  9  1  0
  8 10  2  0
 10 11  1  0
 11 12  2  0
 12 13  1  0
 13 14  1  0
 14 15  1  0
 15 16  1  1
 15 17  1  0
 17 18  1  0
 17 19  1  0
 17 20  1  0
 20 21  1  0
 20 22  1  0
 20 23  1  0
 23 24  1  6
 23 25  1  0
 25 26  1  0
 25 27  1  0
 27 28  1  0
 27 29  1  0
 27 30  1  0
 30 31  1  0
 30 32  1  0
 30 33  1  0
 23 34  1  0
 34 35  1  0
 34 36  1  0
 34 37  1  0
 37 38  1  1
 37 39  1  0
 39 40  3  0
 14 41  1  0
 41 42  1  0
 41 43  2  0
 43 44  1  0
 44 45  2  0
 44 46  1  0
 46 47  1  0
 46 48  1  0
 10 49  1  0
 49 50  1  0
 49 51  2  0
 51 52  1  0
 51  5  1  0
 43 12  1  0
 37 15  1  0
M  CHG  2   2  -1  13  -1
M  END
>  <UniqueID>  (90) 
84

>  <SMILES>  (90) 
N#C[C@@H]1C[C@@H](NCC(F)F)CCC1n1cc(C(N)=O)/c(=N/c2ccc(C([NH-])=O)c(F)c2)[n-]1

>  <Energy>  (90) 
92.26455811723253

>  <Genealogy>  (90) 
N#CC1CC(NCC(F)F)CCC1n1cc(C(N)=O)c(=Nc2ccc(C([NH-])=O)c(F)c2)[n-]1 (protonated)
N#C[C@@H]1C[C@@H](NCC(F)F)CCC1n1cc(C(N)=O)c(=Nc2ccc(C([NH-])=O)c(F)c2)[n-]1 (chirality)
N#C[C@@H]1C[C@@H](NCC(F)F)CCC1n1cc(C(N)=O)/c(=N/c2ccc(C([NH-])=O)c(F)c2)[n-]1 (cis-trans isomerization)
N#C[C@@H]1C[C@@H](NCC(F)F)CCC1n1cc(C(N)=O)/c(=N/c2ccc(C([NH-])=O)c(F)c2)[n-]1 (3D coordinates assigned)
N#C[C@@H]1C[C@@H](NCC(F)F)CCC1n1cc(C(N)=O)/c(=N/c2ccc(C([NH-])=O)c(F)c2)[n-]1 (nonaromatic ring conformer: 92.26455811723253 kcal/mol)

>  <smiles>  (90) 
N#CC1CC(NCC(F)F)CCC1n1cc(C(N)=O)c(=Nc2ccc(C(N)=O)c(F)c2)[nH]1

>  <score_type>  (90) 
oracle

>  <origin>  (90) 
adg

>  <m_score__min__energy>  (90) 
-11.880000000000001

>  <m_primary>  (90) 
energy

$$$$
90:0
     RDKit          3D

 24 25  0  0  0  0  0  0  0  0999 V2000
   51.7480   29.2250   50.1950 O   0  0  0  0  0  0  0  0  0  0  0  0
   52.2660   30.2260   50.7630 C   0  0  0  0  0  0  0  0  0  0  0  0
   51.6730   31.5800   50.4800 C   0  0  0  0  0  0  0  0  0  0  0  0
   51.0230   32.1380   51.7100 C   0  0  0  0  0  0  0  0  0  0  0  0
   50.9410   33.4490   51.9960 N   0  0  0  0  0  0  0  0  0  0  0  0
   50.3150   33.4730   53.1920 C   0  0  0  0  0  0  0  0  0  0  0  0
   49.9740   34.8600   53.9830 S   0  0  0  0  0  0  0  0  0  0  0  0
   49.9990   32.2550   53.6850 N   0  0  0  0  0  0  0  0  0  0  0  0
   50.4550   31.4220   52.7350 C   0  0  0  0  0  0  0  0  0  0  0  0
   50.3590   30.0360   52.8020 O   0  0  0  0  0  0  0  0  0  0  0  0
   53.4010   30.0230   51.7070 C   0  0  0  0  0  0  0  0  0  0  0  0
   54.5440   30.8430   51.6140 C   0  0  0  0  0  0  0  0  0  0  0  0
   55.6220   30.6670   52.4860 C   0  0  0  0  0  0  0  0  0  0  0  0
   55.5770   29.6730   53.4640 C   0  0  0  0  0  0  0  0  0  0  0  0
   54.4530   28.8520   53.5710 C   0  0  0  0  0  0  0  0  0  0  0  0
   53.3720   29.0230   52.7030 C   0  0  0  0  0  0  0  0  0  0  0  0
   52.4705   32.2625   50.1511 H   0  0  0  0  0  0  0  0  0  0  0  0
   50.9122   31.4767   49.6923 H   0  0  0  0  0  0  0  0  0  0  0  0
   50.6030   29.4630   52.0050 H   0  0  0  0  0  0  0  0  0  0  0  0
   54.5879   31.6300   50.8467 H   0  0  0  0  0  0  0  0  0  0  0  0
   56.5078   31.3136   52.4010 H   0  0  0  0  0  0  0  0  0  0  0  0
   56.4261   29.5364   54.1499 H   0  0  0  0  0  0  0  0  0  0  0  0
   54.4185   28.0677   54.3415 H   0  0  0  0  0  0  0  0  0  0  0  0
   52.4900   28.3724   52.7964 H   0  0  0  0  0  0  0  0  0  0  0  0
  1  2  2  0
  2  3  1  0
  3  4  1  0
  4  5  1  0
  5  6  1  0
  6  7  2  0
  6  8  1  0
  8  9  1  0
  9 10  1  0
  2 11  1  0
 11 12  2  0
 12 13  1  0
 13 14  2  0
 14 15  1  0
 15 16  2  0
  9  4  2  0
 16 11  1  0
  3 17  1  0
  3 18  1  0
 10 19  1  0
 12 20  1  0
 13 21  1  0
 14 22  1  0
 15 23  1  0
 16 24  1  0
M  CHG  2   5  -1   8  -1
M  END
>  <UniqueID>  (91) 
85

>  <SMILES>  (91) 
O=C(Cc1[n-]c(=S)[n-]c1O)c1ccccc1

>  <Energy>  (91) 
52.60698073643258

>  <Genealogy>  (91) 
O=C(Cc1[n-]c(=S)[n-]c1O)c1ccccc1 (protonated)
O=C(Cc1[n-]c(=S)[n-]c1O)c1ccccc1 (3D coordinates assigned)
O=C(Cc1[n-]c(=S)[n-]c1O)c1ccccc1 (optimized conformer: 52.60698073643258 kcal/mol)

>  <smiles>  (91) 
O=C(Cc1[nH]c(=S)[nH]c1O)c1ccccc1

>  <score_type>  (91) 
oracle

>  <origin>  (91) 
adg

>  <m_score__min__energy>  (91) 
-10.199999999999999

>  <m_primary>  (91) 
energy

$$$$
91:0
     RDKit          3D

 51 53  0  0  0  0  0  0  0  0999 V2000
   59.7070   33.8130   50.4870 C   0  0  0  0  0  0  0  0  0  0  0  0
   60.7870   33.8840   49.4130 C   0  0  0  0  0  0  0  0  0  0  0  0
   60.5720   32.8230   48.3680 C   0  0  0  0  0  0  0  0  0  0  0  0
   59.3480   32.7370   47.6870 C   0  0  0  0  0  0  0  0  0  0  0  0
   59.1370   31.7330   46.7380 C   0  0  0  0  0  0  0  0  0  0  0  0
   60.1490   30.8000   46.4500 C   0  0  0  0  0  0  0  0  0  0  0  0
   59.9310   29.7010   45.4370 C   0  0  0  0  0  0  0  0  0  0  0  0
   58.6210   28.9470   45.6630 C   0  0  0  0  0  0  0  0  0  0  0  0
   57.4320   29.3970   45.0200 C   0  0  0  0  0  0  0  0  0  0  0  0
   57.3450   30.7030   44.2400 C   0  0  0  0  0  0  0  0  0  0  0  0
   56.8160   30.4640   42.8270 C   0  0  0  0  0  0  0  0  0  0  0  0
   56.2700   28.6240   45.1630 C   0  0  0  0  0  0  0  0  0  0  0  0
   55.1940   28.9830   44.6070 O   0  0  0  0  0  0  0  0  0  0  0  0
   56.2890   27.4820   45.8920 N   0  0  0  0  0  0  0  0  0  0  0  0
   55.1410   26.7280   45.9970 O   0  0  0  0  0  0  0  0  0  0  0  0
   57.4140   27.0770   46.5350 C   0  0  0  0  0  0  0  0  0  0  0  0
   57.3800   26.0080   47.2080 O   0  0  0  0  0  0  0  0  0  0  0  0
   58.5730   27.8120   46.4590 N   0  0  0  0  0  0  0  0  0  0  0  0
   59.7400   27.3380   47.2430 C   0  0  0  0  0  0  0  0  0  0  0  0
   59.8190   27.9940   48.6050 C   0  0  0  0  0  0  0  0  0  0  0  0
   60.7720   27.5980   49.5620 C   0  0  0  0  0  0  0  0  0  0  0  0
   60.8460   28.2480   50.7980 C   0  0  0  0  0  0  0  0  0  0  0  0
   59.9830   29.3080   51.0890 C   0  0  0  0  0  0  0  0  0  0  0  0
   60.0680   29.9450   52.3250 O   0  0  0  0  0  0  0  0  0  0  0  0
   59.0430   29.7190   50.1360 C   0  0  0  0  0  0  0  0  0  0  0  0
   58.9670   29.0720   48.9000 C   0  0  0  0  0  0  0  0  0  0  0  0
   61.3600   30.8690   47.1580 C   0  0  0  0  0  0  0  0  0  0  0  0
   61.5710   31.8730   48.1070 C   0  0  0  0  0  0  0  0  0  0  0  0
   60.1762   33.8438   51.4814 H   0  0  0  0  0  0  0  0  0  0  0  0
   59.0239   34.6682   50.3772 H   0  0  0  0  0  0  0  0  0  0  0  0
   59.1417   32.8758   50.3772 H   0  0  0  0  0  0  0  0  0  0  0  0
   60.7547   34.8737   48.9340 H   0  0  0  0  0  0  0  0  0  0  0  0
   61.7662   33.7194   49.8863 H   0  0  0  0  0  0  0  0  0  0  0  0
   58.5505   33.4636   47.9013 H   0  0  0  0  0  0  0  0  0  0  0  0
   58.1725   31.6721   46.2126 H   0  0  0  0  0  0  0  0  0  0  0  0
   59.9123   30.1468   44.4316 H   0  0  0  0  0  0  0  0  0  0  0  0
   60.7543   28.9795   45.5447 H   0  0  0  0  0  0  0  0  0  0  0  0
   56.6672   31.3914   44.7660 H   0  0  0  0  0  0  0  0  0  0  0  0
   58.3540   31.1351   44.1675 H   0  0  0  0  0  0  0  0  0  0  0  0
   55.8148   30.0117   42.8819 H   0  0  0  0  0  0  0  0  0  0  0  0
   56.7563   31.4226   42.2908 H   0  0  0  0  0  0  0  0  0  0  0  0
   57.4959   29.7856   42.2908 H   0  0  0  0  0  0  0  0  0  0  0  0
   59.6572   26.2495   47.3784 H   0  0  0  0  0  0  0  0  0  0  0  0
   60.6509   27.6043   46.6868 H   0  0  0  0  0  0  0  0  0  0  0  0
   61.4628   26.7722   49.3364 H   0  0  0  0  0  0  0  0  0  0  0  0
   61.5864   27.9237   51.5441 H   0  0  0  0  0  0  0  0  0  0  0  0
   60.2350   29.4240   53.1780 H   0  0  0  0  0  0  0  0  0  0  0  0
   58.3626   30.5535   50.3611 H   0  0  0  0  0  0  0  0  0  0  0  0
   58.2344   29.4091   48.1518 H   0  0  0  0  0  0  0  0  0  0  0  0
   62.1486   30.1270   46.9640 H   0  0  0  0  0  0  0  0  0  0  0  0
   62.5253   31.9187   48.6522 H   0  0  0  0  0  0  0  0  0  0  0  0
  1  2  1  0
  2  3  1  0
  3  4  2  0
  4  5  1  0
  5  6  2  0
  6  7  1  0
  7  8  1  0
  8  9  2  0
  9 10  1  0
 10 11  1  0
  9 12  1  0
 12 13  2  0
 12 14  1  0
 14 15  1  0
 14 16  1  0
 16 17  2  0
 16 18  1  0
 18 19  1  0
 19 20  1  0
 20 21  2  0
 21 22  1  0
 22 23  2  0
 23 24  1  0
 23 25  1  0
 25 26  2  0
  6 27  1  0
 27 28  2  0
 28  3  1  0
 18  8  1  0
 26 20  1  0
  1 29  1  0
  1 30  1  0
  1 31  1  0
  2 32  1  0
  2 33  1  0
  4 34  1  0
  5 35  1  0
  7 36  1  0
  7 37  1  0
 10 38  1  0
 10 39  1  0
 11 40  1  0
 11 41  1  0
 11 42  1  0
 19 43  1  0
 19 44  1  0
 21 45  1  0
 22 46  1  0
 24 47  1  0
 25 48  1  0
 26 49  1  0
 27 50  1  0
 28 51  1  0
M  CHG  1  15  -1
M  END
>  <UniqueID>  (92) 
86

>  <SMILES>  (92) 
CCc1ccc(Cc2c(CC)c(=O)n([O-])c(=O)n2Cc2ccc(O)cc2)cc1

>  <Energy>  (92) 
59.49107851627354

>  <Genealogy>  (92) 
CCc1ccc(Cc2c(CC)c(=O)n([O-])c(=O)n2Cc2ccc(O)cc2)cc1 (protonated)
CCc1ccc(Cc2c(CC)c(=O)n([O-])c(=O)n2Cc2ccc(O)cc2)cc1 (3D coordinates assigned)
CCc1ccc(Cc2c(CC)c(=O)n([O-])c(=O)n2Cc2ccc(O)cc2)cc1 (optimized conformer: 59.49107851627354 kcal/mol)

>  <smiles>  (92) 
CCc1ccc(Cc2c(CC)c(=O)n(O)c(=O)n2Cc2ccc(O)cc2)cc1

>  <score_type>  (92) 
oracle

>  <origin>  (92) 
adg

>  <m_score__min__energy>  (92) 
-11.34

>  <m_primary>  (92) 
energy

$$$$
92:0
     RDKit          3D

 38 40  0  0  0  0  0  0  0  0999 V2000
   60.5460   23.0500   45.3090 C   0  0  0  0  0  0  0  0  0  0  0  0
   59.1820   22.6740   45.4630 O   0  0  0  0  0  0  0  0  0  0  0  0
   58.3060   22.3950   44.4000 C   0  0  0  0  0  0  0  0  0  0  0  0
   58.1750   21.0950   43.8690 C   0  0  0  0  0  0  0  0  0  0  0  0
   57.2890   20.8480   42.8190 C   0  0  0  0  0  0  0  0  0  0  0  0
   56.5340   21.8880   42.2790 C   0  0  0  0  0  0  0  0  0  0  0  0
   56.6570   23.1800   42.7920 C   0  0  0  0  0  0  0  0  0  0  0  0
   57.5320   23.4440   43.8610 C   0  0  0  0  0  0  0  0  0  0  0  0
   57.5990   24.8350   44.4460 C   0  0  0  0  0  0  0  0  0  0  0  0
   56.3070   25.2330   45.1070 C   0  0  0  0  0  0  0  0  0  0  0  0
   55.2020   24.4670   45.0870 N   0  0  0  0  0  0  0  0  0  0  0  0
   54.3000   25.1970   45.7730 C   0  0  0  0  0  0  0  0  0  0  0  0
   53.1190   24.8080   45.9680 O   0  0  0  0  0  0  0  0  0  0  0  0
   54.7600   26.3800   46.2310 N   0  0  0  0  0  0  0  0  0  0  0  0
   56.0390   26.3900   45.8200 C   0  0  0  0  0  0  0  0  0  0  0  0
   56.9570   27.5240   46.0410 C   0  0  0  0  0  0  0  0  0  0  0  0
   58.1850   27.3620   46.7320 C   0  0  0  0  0  0  0  0  0  0  0  0
   58.5790   26.0380   47.3460 C   0  0  0  0  0  0  0  0  0  0  0  0
   59.0770   28.4540   46.8070 C   0  0  0  0  0  0  0  0  0  0  0  0
   60.6530   28.3120   47.5800 Cl  0  0  0  0  0  0  0  0  0  0  0  0
   58.7310   29.6850   46.2440 C   0  0  0  0  0  0  0  0  0  0  0  0
   57.5060   29.8500   45.5980 C   0  0  0  0  0  0  0  0  0  0  0  0
   57.1090   31.4060   44.8870 Cl  0  0  0  0  0  0  0  0  0  0  0  0
   56.6200   28.7740   45.4940 C   0  0  0  0  0  0  0  0  0  0  0  0
   55.4120   28.9430   44.8240 O   0  0  0  0  0  0  0  0  0  0  0  0
   61.0056   23.1767   46.3003 H   0  0  0  0  0  0  0  0  0  0  0  0
   61.0820   22.2661   44.7538 H   0  0  0  0  0  0  0  0  0  0  0  0
   60.6046   23.9978   44.7538 H   0  0  0  0  0  0  0  0  0  0  0  0
   58.7742   20.2714   44.2845 H   0  0  0  0  0  0  0  0  0  0  0  0
   57.1863   19.8295   42.4164 H   0  0  0  0  0  0  0  0  0  0  0  0
   55.8409   21.6902   41.4481 H   0  0  0  0  0  0  0  0  0  0  0  0
   56.0648   23.9985   42.3568 H   0  0  0  0  0  0  0  0  0  0  0  0
   58.4049   24.8669   45.1940 H   0  0  0  0  0  0  0  0  0  0  0  0
   57.7904   25.5399   43.6235 H   0  0  0  0  0  0  0  0  0  0  0  0
   58.5544   26.1206   48.4426 H   0  0  0  0  0  0  0  0  0  0  0  0
   57.8738   25.2588   47.0211 H   0  0  0  0  0  0  0  0  0  0  0  0
   59.5955   25.7712   47.0211 H   0  0  0  0  0  0  0  0  0  0  0  0
   59.4307   30.5312   46.3108 H   0  0  0  0  0  0  0  0  0  0  0  0
  1  2  1  0
  2  3  1  0
  3  4  2  0
  4  5  1  0
  5  6  2  0
  6  7  1  0
  7  8  2  0
  8  9  1  0
  9 10  1  0
 10 11  1  0
 11 12  1  0
 12 13  2  0
 12 14  1  0
 14 15  1  0
 15 16  1  0
 16 17  2  0
 17 18  1  0
 17 19  1  0
 19 20  1  0
 19 21  2  0
 21 22  1  0
 22 23  1  0
 22 24  2  0
 24 25  1  0
  8  3  1  0
 15 10  2  0
 24 16  1  0
  1 26  1  0
  1 27  1  0
  1 28  1  0
  4 29  1  0
  5 30  1  0
  6 31  1  0
  7 32  1  0
  9 33  1  0
  9 34  1  0
 18 35  1  0
 18 36  1  0
 18 37  1  0
 21 38  1  0
M  CHG  3  11  -1  14  -1  25  -1
M  END
>  <UniqueID>  (93) 
87

>  <SMILES>  (93) 
COc1ccccc1Cc1[n-]c(=O)[n-]c1-c1c(C)c(Cl)cc(Cl)c1[O-]

>  <Energy>  (93) 
74.10469097676922

>  <Genealogy>  (93) 
COc1ccccc1Cc1[n-]c(=O)[n-]c1-c1c(C)c(Cl)cc(Cl)c1[O-] (protonated)
COc1ccccc1Cc1[n-]c(=O)[n-]c1-c1c(C)c(Cl)cc(Cl)c1[O-] (3D coordinates assigned)
COc1ccccc1Cc1[n-]c(=O)[n-]c1-c1c(C)c(Cl)cc(Cl)c1[O-] (optimized conformer: 74.10469097676922 kcal/mol)

>  <smiles>  (93) 
COc1ccccc1Cc1[nH]c(=O)[nH]c1-c1c(C)c(Cl)cc(Cl)c1O

>  <score_type>  (93) 
oracle

>  <origin>  (93) 
adg

>  <m_score__min__energy>  (93) 
-13.5

>  <m_primary>  (93) 
energy

$$$$
93:0
     RDKit          3D

 62 65  0  0  0  0  0  0  0  0999 V2000
   55.1640   29.3990   44.9690 N   0  0  0  0  0  0  0  0  0  0  0  0
   56.0800   29.5570   43.8880 C   0  0  0  0  0  0  0  0  0  0  0  0
   55.6460   29.8220   42.7370 O   0  0  0  0  0  0  0  0  0  0  0  0
   57.5550   29.3630   44.0950 C   0  0  0  0  0  0  0  0  0  0  0  0
   57.9880   29.8250   45.4350 N   0  0  0  0  0  0  0  0  0  0  0  0
   58.2480   28.9870   46.5110 C   0  0  0  0  0  0  0  0  0  0  0  0
   58.2570   27.6780   46.4700 N   0  0  0  0  0  0  0  0  0  0  0  0
   57.3840   26.6240   46.9740 C   0  0  0  0  0  0  0  0  0  0  0  0
   57.0330   25.7080   45.8360 C   0  0  0  0  0  0  0  0  0  0  0  0
   57.7510   25.7700   44.6300 C   0  0  0  0  0  0  0  0  0  0  0  0
   57.3950   24.9480   43.5560 C   0  0  0  0  0  0  0  0  0  0  0  0
   56.3150   24.0690   43.6730 C   0  0  0  0  0  0  0  0  0  0  0  0
   55.5830   24.0150   44.8640 C   0  0  0  0  0  0  0  0  0  0  0  0
   55.9370   24.8350   45.9420 C   0  0  0  0  0  0  0  0  0  0  0  0
   58.5550   29.5350   47.7090 N   0  0  0  0  0  0  0  0  0  0  0  0
   58.6640   30.8660   47.8860 C   0  0  0  0  0  0  0  0  0  0  0  0
   58.9520   31.3070   49.0330 O   0  0  0  0  0  0  0  0  0  0  0  0
   58.4840   31.7100   46.8310 N   0  0  0  0  0  0  0  0  0  0  0  0
   58.7070   33.1630   46.9800 C   0  0  0  0  0  0  0  0  0  0  0  0
   60.1490   33.4350   47.3280 C   0  0  0  0  0  0  0  0  0  0  0  0
   61.1470   33.3550   46.3450 C   0  0  0  0  0  0  0  0  0  0  0  0
   62.4870   33.5560   46.6840 C   0  0  0  0  0  0  0  0  0  0  0  0
   62.8460   33.8220   48.0070 C   0  0  0  0  0  0  0  0  0  0  0  0
   64.1490   34.0560   48.3060 F   0  0  0  0  0  0  0  0  0  0  0  0
   61.8580   33.8830   49.0050 C   0  0  0  0  0  0  0  0  0  0  0  0
   62.1990   34.1360   50.3770 N   0  0  0  0  0  0  0  0  0  0  0  0
   62.0690   33.1460   51.4070 C   0  0  0  0  0  0  0  0  0  0  0  0
   61.6690   31.9830   51.1310 O   0  0  0  0  0  0  0  0  0  0  0  0
   62.3590   33.5040   52.7620 N   0  0  0  0  0  0  0  0  0  0  0  0
   63.7080   33.5490   53.3130 C   0  0  0  0  0  0  0  0  0  0  0  0
   64.7000   33.0300   52.3060 C   0  0  0  0  0  0  0  0  0  0  0  0
   64.8940   31.6460   52.1570 C   0  0  0  0  0  0  0  0  0  0  0  0
   65.7870   31.1590   51.1970 C   0  0  0  0  0  0  0  0  0  0  0  0
   66.4930   32.0470   50.3820 C   0  0  0  0  0  0  0  0  0  0  0  0
   66.3030   33.4240   50.5220 C   0  0  0  0  0  0  0  0  0  0  0  0
   65.4080   33.9170   51.4760 C   0  0  0  0  0  0  0  0  0  0  0  0
   60.5120   33.7140   48.6540 C   0  0  0  0  0  0  0  0  0  0  0  0
   58.1500   31.1850   45.6090 C   0  0  0  0  0  0  0  0  0  0  0  0
   57.9970   31.9690   44.6280 O   0  0  0  0  0  0  0  0  0  0  0  0
   55.2520   28.5990   45.6350 H   0  0  0  0  0  0  0  0  0  0  0  0
   57.7912   28.2935   43.9936 H   0  0  0  0  0  0  0  0  0  0  0  0
   58.0877   29.9588   43.3392 H   0  0  0  0  0  0  0  0  0  0  0  0
   57.9038   26.0564   47.7599 H   0  0  0  0  0  0  0  0  0  0  0  0
   56.4695   27.0641   47.3983 H   0  0  0  0  0  0  0  0  0  0  0  0
   58.5959   26.4673   44.5302 H   0  0  0  0  0  0  0  0  0  0  0  0
   57.9664   24.9935   42.6171 H   0  0  0  0  0  0  0  0  0  0  0  0
   56.0404   23.4196   42.8287 H   0  0  0  0  0  0  0  0  0  0  0  0
   54.7288   23.3278   44.9535 H   0  0  0  0  0  0  0  0  0  0  0  0
   55.3554   24.7958   46.8749 H   0  0  0  0  0  0  0  0  0  0  0  0
   58.4599   33.6675   46.0342 H   0  0  0  0  0  0  0  0  0  0  0  0
   58.0646   33.5440   47.7875 H   0  0  0  0  0  0  0  0  0  0  0  0
   60.8730   33.1331   45.3031 H   0  0  0  0  0  0  0  0  0  0  0  0
   63.2626   33.5046   45.9057 H   0  0  0  0  0  0  0  0  0  0  0  0
   62.3590   35.1260   50.6720 H   0  0  0  0  0  0  0  0  0  0  0  0
   63.9610   34.5883   53.5695 H   0  0  0  0  0  0  0  0  0  0  0  0
   63.7485   32.9187   54.2136 H   0  0  0  0  0  0  0  0  0  0  0  0
   64.3414   30.9431   52.7978 H   0  0  0  0  0  0  0  0  0  0  0  0
   65.9336   30.0747   51.0836 H   0  0  0  0  0  0  0  0  0  0  0  0
   67.1981   31.6623   49.6304 H   0  0  0  0  0  0  0  0  0  0  0  0
   66.8594   34.1224   49.8796 H   0  0  0  0  0  0  0  0  0  0  0  0
   65.2572   35.0019   51.5776 H   0  0  0  0  0  0  0  0  0  0  0  0
   59.7327   33.8009   49.4255 H   0  0  0  0  0  0  0  0  0  0  0  0
  1  2  1  0
  2  3  2  0
  2  4  1  0
  4  5  1  0
  5  6  1  0
  6  7  2  3
  7  8  1  0
  8  9  1  0
  9 10  2  0
 10 11  1  0
 11 12  2  0
 12 13  1  0
 13 14  2  0
  6 15  1  0
 15 16  1  0
 16 17  2  0
 16 18  1  0
 18 19  1  0
 19 20  1  0
 20 21  2  0
 21 22  1  0
 22 23  2  0
 23 24  1  0
 23 25  1  0
 25 26  1  0
 26 27  1  0
 27 28  2  0
 27 29  1  0
 29 30  1  0
 30 31  1  0
 31 32  2  0
 32 33  1  0
 33 34  2  0
 34 35  1  0
 35 36  2  0
 25 37  2  0
 18 38  1  0
 38 39  2  0
 38  5  1  0
 14  9  1  0
 37 20  1  0
 36 31  1  0
  1 40  1  0
  4 41  1  0
  4 42  1  0
  8 43  1  0
  8 44  1  0
 10 45  1  0
 11 46  1  0
 12 47  1  0
 13 48  1  0
 14 49  1  0
 19 50  1  0
 19 51  1  0
 21 52  1  0
 22 53  1  0
 26 54  1  0
 30 55  1  0
 30 56  1  0
 32 57  1  0
 33 58  1  0
 34 59  1  0
 35 60  1  0
 36 61  1  0
 37 62  1  0
M  CHG  3   1  -1  15  -1  29  -1
M  END
>  <UniqueID>  (94) 
88

>  <SMILES>  (94) 
[NH-]C(=O)Cn1c(=NCc2ccccc2)[n-]c(=O)n(Cc2ccc(F)c(NC(=O)[N-]Cc3ccccc3)c2)c1=O

>  <Energy>  (94) 
88.32064447467594

>  <Genealogy>  (94) 
[NH-]C(=O)Cn1c(=NCc2ccccc2)[n-]c(=O)n(Cc2ccc(F)c(NC(=O)[N-]Cc3ccccc3)c2)c1=O (protonated)
[NH-]C(=O)Cn1c(=NCc2ccccc2)[n-]c(=O)n(Cc2ccc(F)c(NC(=O)[N-]Cc3ccccc3)c2)c1=O (3D coordinates assigned)
[NH-]C(=O)Cn1c(=NCc2ccccc2)[n-]c(=O)n(Cc2ccc(F)c(NC(=O)[N-]Cc3ccccc3)c2)c1=O (optimized conformer: 88.32064447467594 kcal/mol)

>  <smiles>  (94) 
NC(=O)Cn1c(=NCc2ccccc2)[nH]c(=O)n(Cc2ccc(F)c(NC(=O)NCc3ccccc3)c2)c1=O

>  <score_type>  (94) 
oracle

>  <origin>  (94) 
adg

>  <m_score__min__energy>  (94) 
-14.68

>  <m_primary>  (94) 
energy

$$$$
94:0
     RDKit          3D

 55 59  0  0  0  0  0  0  0  0999 V2000
   59.2550   34.7920   47.2460 C   0  0  0  0  0  0  0  0  0  0  0  0
   58.2700   33.4570   46.6040 S   0  0  0  0  0  0  0  0  0  0  0  0
   58.0700   33.6290   45.1240 O   0  0  0  0  0  0  0  0  0  0  0  0
   56.9280   33.4690   47.2790 O   0  0  0  0  0  0  0  0  0  0  0  0
   59.0650   31.9470   46.9150 N   0  0  0  0  0  0  0  0  0  0  0  0
   59.6950   31.1800   45.9960 C   0  0  0  0  0  0  0  0  0  0  0  0
   60.1940   30.0260   46.5890 C   0  0  0  0  0  0  0  0  0  0  0  0
   59.8380   30.1150   47.9220 C   0  0  0  0  0  0  0  0  0  0  0  0
   60.0610   29.2380   48.9830 C   0  0  0  0  0  0  0  0  0  0  0  0
   60.7200   28.0650   48.7930 N   0  0  0  0  0  0  0  0  0  0  0  0
   60.9300   27.1960   49.8140 C   0  0  0  0  0  0  0  0  0  0  0  0
   60.4790   27.4980   51.1000 C   0  0  0  0  0  0  0  0  0  0  0  0
   59.8060   28.7040   51.3470 C   0  0  0  0  0  0  0  0  0  0  0  0
   59.3870   29.0050   52.7350 C   0  0  0  0  0  0  0  0  0  0  0  0
   60.3140   28.9360   53.7880 C   0  0  0  0  0  0  0  0  0  0  0  0
   59.9090   29.1870   55.1010 C   0  0  0  0  0  0  0  0  0  0  0  0
   58.5760   29.5010   55.3760 C   0  0  0  0  0  0  0  0  0  0  0  0
   57.6340   29.5720   54.3350 C   0  0  0  0  0  0  0  0  0  0  0  0
   56.2490   29.8540   54.6240 N   0  0  0  0  0  0  0  0  0  0  0  0
   55.3800   29.0590   53.7440 C   0  0  0  0  0  0  0  0  0  0  0  0
   54.3210   29.9320   53.1220 C   0  0  0  0  0  0  0  0  0  0  0  0
   53.2290   30.3710   53.8840 C   0  0  0  0  0  0  0  0  0  0  0  0
   52.2290   31.1540   53.3000 C   0  0  0  0  0  0  0  0  0  0  0  0
   52.3000   31.5040   51.9400 C   0  0  0  0  0  0  0  0  0  0  0  0
   51.2460   32.3340   51.3170 C   0  0  0  0  0  0  0  0  0  0  0  0
   50.5400   33.1060   52.0190 O   0  0  0  0  0  0  0  0  0  0  0  0
   51.0200   32.2730   49.9460 O   0  0  0  0  0  0  0  0  0  0  0  0
   53.3890   31.0480   51.1750 C   0  0  0  0  0  0  0  0  0  0  0  0
   54.3870   30.2630   51.7610 C   0  0  0  0  0  0  0  0  0  0  0  0
   58.0460   29.3080   53.0160 C   0  0  0  0  0  0  0  0  0  0  0  0
   59.5710   29.5950   50.2710 C   0  0  0  0  0  0  0  0  0  0  0  0
   58.8440   30.8090   50.4230 C   0  0  0  0  0  0  0  0  0  0  0  0
   58.6360   31.6660   49.3270 C   0  0  0  0  0  0  0  0  0  0  0  0
   59.1530   31.2900   48.0870 C   0  0  0  0  0  0  0  0  0  0  0  0
   59.2358   34.7660   48.3455 H   0  0  0  0  0  0  0  0  0  0  0  0
   60.2918   34.6845   46.8947 H   0  0  0  0  0  0  0  0  0  0  0  0
   58.8464   35.7510   46.8947 H   0  0  0  0  0  0  0  0  0  0  0  0
   59.7979   31.4335   44.9306 H   0  0  0  0  0  0  0  0  0  0  0  0
   60.7534   29.2142   46.1012 H   0  0  0  0  0  0  0  0  0  0  0  0
   61.4581   26.2493   49.6273 H   0  0  0  0  0  0  0  0  0  0  0  0
   60.6518   26.7882   51.9224 H   0  0  0  0  0  0  0  0  0  0  0  0
   61.3637   28.6832   53.5777 H   0  0  0  0  0  0  0  0  0  0  0  0
   60.6414   29.1373   55.9202 H   0  0  0  0  0  0  0  0  0  0  0  0
   58.2618   29.6937   56.4124 H   0  0  0  0  0  0  0  0  0  0  0  0
   56.0430   29.6260   55.6260 H   0  0  0  0  0  0  0  0  0  0  0  0
   56.0600   30.8740   54.4810 H   0  0  0  0  0  0  0  0  0  0  0  0
   55.9885   28.6048   52.9481 H   0  0  0  0  0  0  0  0  0  0  0  0
   54.8905   28.2749   54.3403 H   0  0  0  0  0  0  0  0  0  0  0  0
   53.1588   30.0978   54.9472 H   0  0  0  0  0  0  0  0  0  0  0  0
   51.3803   31.4989   53.9089 H   0  0  0  0  0  0  0  0  0  0  0  0
   53.4559   31.3106   50.1089 H   0  0  0  0  0  0  0  0  0  0  0  0
   55.2286   29.9032   51.1508 H   0  0  0  0  0  0  0  0  0  0  0  0
   57.3109   29.3394   52.1983 H   0  0  0  0  0  0  0  0  0  0  0  0
   58.4399   31.0805   51.4094 H   0  0  0  0  0  0  0  0  0  0  0  0
   58.0802   32.6080   49.4446 H   0  0  0  0  0  0  0  0  0  0  0  0
  1  2  1  0
  2  3  2  0
  2  4  2  0
  2  5  1  0
  5  6  1  0
  6  7  2  0
  7  8  1  0
  8  9  2  0
  9 10  1  0
 10 11  2  0
 11 12  1  0
 12 13  2  0
 13 14  1  0
 14 15  2  0
 15 16  1  0
 16 17  2  0
 17 18  1  0
 18 19  1  0
 19 20  1  0
 20 21  1  0
 21 22  2  0
 22 23  1  0
 23 24  2  0
 24 25  1  0
 25 26  2  0
 25 27  1  0
 24 28  1  0
 28 29  2  0
 18 30  2  0
 13 31  1  0
 31 32  2  0
 32 33  1  0
 33 34  2  0
 34  5  1  0
 34  8  1  0
 31  9  1  0
 30 14  1  0
 29 21  1  0
  1 35  1  0
  1 36  1  0
  1 37  1  0
  6 38  1  0
  7 39  1  0
 11 40  1  0
 12 41  1  0
 15 42  1  0
 16 43  1  0
 17 44  1  0
 19 45  1  0
 19 46  1  0
 20 47  1  0
 20 48  1  0
 22 49  1  0
 23 50  1  0
 28 51  1  0
 29 52  1  0
 30 53  1  0
 32 54  1  0
 33 55  1  0
M  CHG  2  19   1  27  -1
M  END
>  <UniqueID>  (95) 
89

>  <SMILES>  (95) 
CS(=O)(=O)n1ccc2c3nccc(-c4cccc([NH2+]Cc5ccc(C(=O)[O-])cc5)c4)c3ccc21

>  <Energy>  (95) 
104.69500991263286

>  <Genealogy>  (95) 
CS(=O)(=O)n1ccc2c3nccc(-c4cccc([NH2+]Cc5ccc(C(=O)[O-])cc5)c4)c3ccc21 (protonated)
CS(=O)(=O)n1ccc2c3nccc(-c4cccc([NH2+]Cc5ccc(C(=O)[O-])cc5)c4)c3ccc21 (3D coordinates assigned)
CS(=O)(=O)n1ccc2c3nccc(-c4cccc([NH2+]Cc5ccc(C(=O)[O-])cc5)c4)c3ccc21 (optimized conformer: 104.69500991263286 kcal/mol)

>  <smiles>  (95) 
CS(=O)(=O)n1ccc2c3nccc(-c4cccc(NCc5ccc(C(=O)O)cc5)c4)c3ccc21

>  <score_type>  (95) 
oracle

>  <origin>  (95) 
adg

>  <m_score__min__energy>  (95) 
-12.390000000000001

>  <m_primary>  (95) 
energy

$$$$
95:0
     RDKit          3D

 41 43  0  0  0  0  0  0  0  0999 V2000
   55.5520   30.4290   44.5010 O   0  0  0  0  0  0  0  0  0  0  0  0
   56.8070   30.4390   44.6200 C   0  0  0  0  0  0  0  0  0  0  0  0
   57.6260   29.4590   43.8300 C   0  0  0  0  0  0  0  0  0  0  0  0
   58.3160   28.5100   44.7700 C   0  0  0  0  0  0  0  0  0  0  0  0
   59.7170   28.5170   44.8840 C   0  0  0  0  0  0  0  0  0  0  0  0
   60.3530   27.6770   45.8040 C   0  0  0  0  0  0  0  0  0  0  0  0
   59.5960   26.8310   46.6220 C   0  0  0  0  0  0  0  0  0  0  0  0
   58.2010   26.8260   46.5220 C   0  0  0  0  0  0  0  0  0  0  0  0
   57.5610   27.6640   45.6030 C   0  0  0  0  0  0  0  0  0  0  0  0
   57.4380   31.4660   45.4010 N   0  0  0  0  0  0  0  0  0  0  0  0
   57.0090   32.8570   45.2250 C   0  0  0  0  0  0  0  0  0  0  0  0
   57.9410   33.8140   45.9820 C   0  0  0  0  0  0  0  0  0  0  0  0
   59.3500   33.3970   45.8090 N   0  0  0  0  0  0  0  0  0  0  0  0
   60.2680   34.3950   46.3290 C   0  0  0  0  0  0  0  0  0  0  0  0
   59.9990   35.6170   46.1550 O   0  0  0  0  0  0  0  0  0  0  0  0
   61.5130   34.0540   47.0690 C   0  0  0  0  0  0  0  0  0  0  0  0
   62.7530   33.8310   46.4740 C   0  0  0  0  0  0  0  0  0  0  0  0
   63.7680   33.5170   47.3860 C   0  0  0  0  0  0  0  0  0  0  0  0
   63.3430   33.4840   48.7070 C   0  0  0  0  0  0  0  0  0  0  0  0
   61.7030   33.8460   48.7330 S   0  0  0  0  0  0  0  0  0  0  0  0
   59.6510   32.0380   46.3410 C   0  0  0  0  0  0  0  0  0  0  0  0
   58.4040   31.1410   46.4560 C   0  0  0  0  0  0  0  0  0  0  0  0
   56.9685   28.8924   43.1542 H   0  0  0  0  0  0  0  0  0  0  0  0
   58.3785   30.0021   43.2394 H   0  0  0  0  0  0  0  0  0  0  0  0
   60.3153   29.1854   44.2474 H   0  0  0  0  0  0  0  0  0  0  0  0
   61.4500   27.6815   45.8846 H   0  0  0  0  0  0  0  0  0  0  0  0
   60.0981   26.1699   47.3437 H   0  0  0  0  0  0  0  0  0  0  0  0
   57.6064   26.1622   47.1669 H   0  0  0  0  0  0  0  0  0  0  0  0
   56.4633   27.6616   45.5312 H   0  0  0  0  0  0  0  0  0  0  0  0
   57.0273   33.1074   44.1540 H   0  0  0  0  0  0  0  0  0  0  0  0
   55.9904   32.9656   45.6258 H   0  0  0  0  0  0  0  0  0  0  0  0
   57.8127   34.8333   45.5888 H   0  0  0  0  0  0  0  0  0  0  0  0
   57.6881   33.7902   47.0523 H   0  0  0  0  0  0  0  0  0  0  0  0
   59.5110   33.3520   44.7720 H   0  0  0  0  0  0  0  0  0  0  0  0
   62.9191   33.8956   45.3885 H   0  0  0  0  0  0  0  0  0  0  0  0
   64.8062   33.3151   47.0836 H   0  0  0  0  0  0  0  0  0  0  0  0
   63.9699   33.2602   49.5827 H   0  0  0  0  0  0  0  0  0  0  0  0
   60.3713   31.5506   45.6674 H   0  0  0  0  0  0  0  0  0  0  0  0
   60.0556   32.1666   47.3558 H   0  0  0  0  0  0  0  0  0  0  0  0
   58.7056   30.0877   46.3586 H   0  0  0  0  0  0  0  0  0  0  0  0
   57.9323   31.3115   47.4350 H   0  0  0  0  0  0  0  0  0  0  0  0
  1  2  2  0
  2  3  1  0
  3  4  1  0
  4  5  2  0
  5  6  1  0
  6  7  2  0
  7  8  1  0
  8  9  2  0
  2 10  1  0
 10 11  1  0
 11 12  1  0
 12 13  1  0
 13 14  1  0
 14 15  2  0
 14 16  1  0
 16 17  2  0
 17 18  1  0
 18 19  2  0
 19 20  1  0
 13 21  1  0
 21 22  1  0
  9  4  1  0
 22 10  1  0
 20 16  1  0
  3 23  1  0
  3 24  1  0
  5 25  1  0
  6 26  1  0
  7 27  1  0
  8 28  1  0
  9 29  1  0
 11 30  1  0
 11 31  1  0
 12 32  1  0
 12 33  1  0
 13 34  1  0
 17 35  1  0
 18 36  1  0
 19 37  1  0
 21 38  1  0
 21 39  1  0
 22 40  1  0
 22 41  1  0
M  CHG  1  13   1
M  END
>  <UniqueID>  (96) 
90

>  <SMILES>  (96) 
O=C(Cc1ccccc1)N1CC[NH+](C(=O)c2cccs2)CC1

>  <Energy>  (96) 
79.102384445089

>  <Genealogy>  (96) 
O=C(Cc1ccccc1)N1CC[NH+](C(=O)c2cccs2)CC1 (protonated)
O=C(Cc1ccccc1)N1CC[NH+](C(=O)c2cccs2)CC1 (3D coordinates assigned)
O=C(Cc1ccccc1)N1CC[NH+](C(=O)c2cccs2)CC1 (nonaromatic ring conformer: 79.102384445089 kcal/mol)

>  <smiles>  (96) 
O=C(Cc1ccccc1)N1CCN(C(=O)c2cccs2)CC1

>  <score_type>  (96) 
oracle

>  <origin>  (96) 
adg

>  <m_score__min__energy>  (96) 
-6.4800000000000004

>  <m_primary>  (96) 
energy

$$$$
