0:0
     RDKit          3D

 43 45  0  0  0  0  0  0  0  0999 V2000
   58.9023   30.8081   43.2789 H   0  0  0  0  0  0  0  0  0  0  0  0
   58.5990   30.0510   44.0170 C   0  0  0  0  0  0  0  0  0  0  0  0
   57.2460   29.8190   44.2600 C   0  0  0  0  0  0  0  0  0  0  0  0
   56.4841   30.4021   43.7220 H   0  0  0  0  0  0  0  0  0  0  0  0
   56.8560   28.8490   45.1840 C   0  0  0  0  0  0  0  0  0  0  0  0
   55.7865   28.6655   45.3641 H   0  0  0  0  0  0  0  0  0  0  0  0
   57.8200   28.1040   45.8870 C   0  0  0  0  0  0  0  0  0  0  0  0
   57.3680   27.0060   46.7720 C   0  0  0  0  0  0  0  0  0  0  0  0
   57.9800   26.8220   47.8580 O   0  0  0  0  0  0  0  0  0  0  0  0
   56.2140   26.1500   46.4040 C   0  0  0  0  0  0  0  0  0  0  0  0
   55.1530   26.6960   45.9970 O   0  0  0  0  0  0  0  0  0  0  0  0
   56.2340   24.7180   46.5130 N   0  0  0  0  0  0  0  0  0  0  0  0
   57.3970   23.8900   46.8020 C   0  0  0  0  0  0  0  0  0  0  0  0
   57.5221   23.8009   47.8912 H   0  0  0  0  0  0  0  0  0  0  0  0
   57.2527   22.8902   46.3665 H   0  0  0  0  0  0  0  0  0  0  0  0
   58.2945   24.3536   46.3665 H   0  0  0  0  0  0  0  0  0  0  0  0
   59.1980   28.3580   45.6600 C   0  0  0  0  0  0  0  0  0  0  0  0
   60.2550   27.6610   46.4250 C   0  0  0  0  0  0  0  0  0  0  0  0
   60.9070   26.7230   45.8890 O   0  0  0  0  0  0  0  0  0  0  0  0
   60.5900   28.1140   47.7440 N   0  0  0  0  0  0  0  0  0  0  0  0
   60.1370   29.1830   48.3270 C   0  0  0  0  0  0  0  0  0  0  0  0
   60.8050   30.7060   48.0900 S   0  0  0  0  0  0  0  0  0  0  0  0
   59.6160   31.4700   49.0070 C   0  0  0  0  0  0  0  0  0  0  0  0
   59.4530   32.9520   49.1350 C   0  0  0  0  0  0  0  0  0  0  0  0
   58.6453   33.1707   49.8490 H   0  0  0  0  0  0  0  0  0  0  0  0
   60.3943   33.3921   49.4959 H   0  0  0  0  0  0  0  0  0  0  0  0
   59.1090   33.5420   47.7950 C   0  0  0  0  0  0  0  0  0  0  0  0
   59.9040   34.5600   47.2430 C   0  0  0  0  0  0  0  0  0  0  0  0
   60.7598   34.9551   47.8101 H   0  0  0  0  0  0  0  0  0  0  0  0
   59.6120   35.0730   45.9760 C   0  0  0  0  0  0  0  0  0  0  0  0
   60.2317   35.8772   45.5527 H   0  0  0  0  0  0  0  0  0  0  0  0
   58.5330   34.5650   45.2460 C   0  0  0  0  0  0  0  0  0  0  0  0
   58.3036   34.9706   44.2496 H   0  0  0  0  0  0  0  0  0  0  0  0
   57.7460   33.5420   45.7820 C   0  0  0  0  0  0  0  0  0  0  0  0
   56.7070   33.0420   45.0680 F   0  0  0  0  0  0  0  0  0  0  0  0
   58.0340   33.0280   47.0510 C   0  0  0  0  0  0  0  0  0  0  0  0
   57.4165   32.2186   47.4676 H   0  0  0  0  0  0  0  0  0  0  0  0
   58.7100   30.5110   49.4530 C   0  0  0  0  0  0  0  0  0  0  0  0
   57.8263   30.7617   50.0582 H   0  0  0  0  0  0  0  0  0  0  0  0
   59.0090   29.2400   49.0780 N   0  0  0  0  0  0  0  0  0  0  0  0
   58.3910   28.4310   49.3040 H   0  0  0  0  0  0  0  0  0  0  0  0
   59.5700   29.3240   44.7090 C   0  0  0  0  0  0  0  0  0  0  0  0
   60.6356   29.5090   44.5081 H   0  0  0  0  0  0  0  0  0  0  0  0
  1  2  1  0
  2  3  2  0
  3  4  1  0
  3  5  1  0
  5  6  1  0
  5  7  2  0
  7  8  1  0
  8  9  2  0
  8 10  1  0
 10 11  2  0
 10 12  1  0
 12 13  1  0
 13 14  1  0
 13 15  1  0
 13 16  1  0
  7 17  1  0
 17 18  1  0
 18 19  2  0
 18 20  1  0
 20 21  2  0
 21 22  1  0
 22 23  1  0
 23 24  1  0
 24 25  1  0
 24 26  1  0
 24 27  1  0
 27 28  2  0
 28 29  1  0
 28 30  1  0
 30 31  1  0
 30 32  2  0
 32 33  1  0
 32 34  1  0
 34 35  1  0
 34 36  2  0
 36 37  1  0
 23 38  2  0
 38 39  1  0
 38 40  1  0
 40 41  1  0
 17 42  2  0
 42 43  1  0
 42  2  1  0
 40 21  1  0
 36 27  1  0
M  CHG  1  12  -1
M  END
>  <UniqueID>  (1) 
1

>  <SMILES>  (1) 
C[N-]C(=O)C(=O)c1ccccc1C(=O)/N=c1\[nH]cc(Cc2cccc(F)c2)s1

>  <Energy>  (1) 
85.87254321473549

>  <Genealogy>  (1) 
C[N-]C(=O)C(=O)c1ccccc1C(=O)N=c1[nH]cc(Cc2cccc(F)c2)s1 (protonated)
C[N-]C(=O)C(=O)c1ccccc1C(=O)/N=c1\[nH]cc(Cc2cccc(F)c2)s1 (cis-trans isomerization)
C[N-]C(=O)C(=O)c1ccccc1C(=O)/N=c1\[nH]cc(Cc2cccc(F)c2)s1 (3D coordinates assigned)
C[N-]C(=O)C(=O)c1ccccc1C(=O)/N=c1\[nH]cc(Cc2cccc(F)c2)s1 (optimized conformer: 85.87254321473549 kcal/mol)

>  <smiles>  (1) 
CNC(=O)C(=O)c1ccccc1C(=O)N=c1[nH]cc(Cc2cccc(F)c2)s1

>  <score_type>  (1) 
oracle

>  <origin>  (1) 
adg

>  <m_score__min__energy>  (1) 
-11.18

>  <m_primary>  (1) 
energy

$$$$
1:0
     RDKit          3D

 27 28  0  0  0  0  0  0  0  0999 V2000
   60.7430   30.1880   47.1230 N   0  0  0  0  0  0  0  0  0  0  0  0
   60.6370   31.6140   47.1750 C   0  0  0  0  0  0  0  0  0  0  0  0
   61.4510   32.2570   47.8930 O   0  0  0  0  0  0  0  0  0  0  0  0
   59.5880   32.3420   46.4220 C   0  0  0  0  0  0  0  0  0  0  0  0
   59.6820   33.7280   46.1970 C   0  0  0  0  0  0  0  0  0  0  0  0
   58.6770   34.4010   45.4980 C   0  0  0  0  0  0  0  0  0  0  0  0
   57.5690   33.7030   45.0140 C   0  0  0  0  0  0  0  0  0  0  0  0
   57.4630   32.3180   45.2190 C   0  0  0  0  0  0  0  0  0  0  0  0
   56.3290   31.5720   44.7520 N   0  0  0  0  0  0  0  0  0  0  0  0
   56.3640   30.2780   44.1350 C   0  0  0  0  0  0  0  0  0  0  0  0
   55.9550   30.1630   42.9490 O   0  0  0  0  0  0  0  0  0  0  0  0
   56.8180   29.0710   44.8570 C   0  0  0  0  0  0  0  0  0  0  0  0
   58.1690   28.8680   45.1750 C   0  0  0  0  0  0  0  0  0  0  0  0
   58.5260   27.7120   45.8690 C   0  0  0  0  0  0  0  0  0  0  0  0
   59.7310   27.4970   46.1620 O   0  0  0  0  0  0  0  0  0  0  0  0
   57.5720   26.8170   46.2320 N   0  0  0  0  0  0  0  0  0  0  0  0
   56.2650   27.0320   45.9330 C   0  0  0  0  0  0  0  0  0  0  0  0
   55.3930   26.1950   46.2830 O   0  0  0  0  0  0  0  0  0  0  0  0
   55.8980   28.1510   45.2560 N   0  0  0  0  0  0  0  0  0  0  0  0
   58.4610   31.6500   45.9400 C   0  0  0  0  0  0  0  0  0  0  0  0
   61.5260   29.7050   47.6160 H   0  0  0  0  0  0  0  0  0  0  0  0
   60.0070   29.5980   46.6760 H   0  0  0  0  0  0  0  0  0  0  0  0
   60.5524   34.2850   46.5740 H   0  0  0  0  0  0  0  0  0  0  0  0
   58.7589   35.4847   45.3283 H   0  0  0  0  0  0  0  0  0  0  0  0
   56.7771   34.2394   44.4707 H   0  0  0  0  0  0  0  0  0  0  0  0
   58.9313   29.6054   44.8830 H   0  0  0  0  0  0  0  0  0  0  0  0
   58.3628   30.5713   46.1319 H   0  0  0  0  0  0  0  0  0  0  0  0
  1  2  1  0
  2  3  2  0
  2  4  1  0
  4  5  2  0
  5  6  1  0
  6  7  2  0
  7  8  1  0
  8  9  1  0
  9 10  1  0
 10 11  2  0
 10 12  1  0
 12 13  2  0
 13 14  1  0
 14 15  2  0
 14 16  1  0
 16 17  1  0
 17 18  2  0
 17 19  1  0
  8 20  2  0
 20  4  1  0
 19 12  1  0
  1 21  1  0
  1 22  1  0
  5 23  1  0
  6 24  1  0
  7 25  1  0
 13 26  1  0
 20 27  1  0
M  CHG  3   9  -1  16  -1  19  -1
M  END
>  <UniqueID>  (2) 
2

>  <SMILES>  (2) 
NC(=O)c1cccc([N-]C(=O)c2cc(=O)[n-]c(=O)[n-]2)c1

>  <Energy>  (2) 
36.69005800941964

>  <Genealogy>  (2) 
NC(=O)c1cccc([N-]C(=O)c2cc(=O)[n-]c(=O)[n-]2)c1 (protonated)
NC(=O)c1cccc([N-]C(=O)c2cc(=O)[n-]c(=O)[n-]2)c1 (3D coordinates assigned)
NC(=O)c1cccc([N-]C(=O)c2cc(=O)[n-]c(=O)[n-]2)c1 (optimized conformer: 36.69005800941964 kcal/mol)

>  <smiles>  (2) 
NC(=O)c1cccc(NC(=O)c2cc(=O)[nH]c(=O)[nH]2)c1

>  <score_type>  (2) 
oracle

>  <origin>  (2) 
adg

>  <m_score__min__energy>  (2) 
-12.119999999999999

>  <m_primary>  (2) 
energy

$$$$
2:0
     RDKit          3D

 24 25  0  0  0  0  0  0  0  0999 V2000
   59.5460   26.1550   46.1550 O   0  0  0  0  0  0  0  0  0  0  0  0
   59.0150   27.2090   45.7200 C   0  0  0  0  0  0  0  0  0  0  0  0
   57.6630   27.3260   45.7010 N   0  0  0  0  0  0  0  0  0  0  0  0
   57.0590   28.4520   45.2370 C   0  0  0  0  0  0  0  0  0  0  0  0
   55.8010   28.5200   45.2440 O   0  0  0  0  0  0  0  0  0  0  0  0
   57.8140   29.4970   44.7750 N   0  0  0  0  0  0  0  0  0  0  0  0
   57.0460   30.9480   44.1920 S   0  0  0  0  0  0  0  0  0  0  0  0
   55.5740   30.8730   44.4910 O   0  0  0  0  0  0  0  0  0  0  0  0
   57.2300   31.0840   42.7060 O   0  0  0  0  0  0  0  0  0  0  0  0
   57.7600   32.3490   44.9830 C   0  0  0  0  0  0  0  0  0  0  0  0
   58.3040   33.3960   44.2220 C   0  0  0  0  0  0  0  0  0  0  0  0
   58.8710   34.5050   44.8600 C   0  0  0  0  0  0  0  0  0  0  0  0
   58.9000   34.5720   46.2550 C   0  0  0  0  0  0  0  0  0  0  0  0
   58.3640   33.5290   47.0160 C   0  0  0  0  0  0  0  0  0  0  0  0
   57.7970   32.4180   46.3820 C   0  0  0  0  0  0  0  0  0  0  0  0
   59.1770   29.4100   44.7870 C   0  0  0  0  0  0  0  0  0  0  0  0
   59.8060   28.2590   45.2600 C   0  0  0  0  0  0  0  0  0  0  0  0
   61.1590   28.1720   45.2710 F   0  0  0  0  0  0  0  0  0  0  0  0
   58.2845   33.3445   43.1234 H   0  0  0  0  0  0  0  0  0  0  0  0
   59.2946   35.3253   44.2620 H   0  0  0  0  0  0  0  0  0  0  0  0
   59.3445   35.4454   46.7546 H   0  0  0  0  0  0  0  0  0  0  0  0
   58.3880   33.5818   48.1145 H   0  0  0  0  0  0  0  0  0  0  0  0
   57.3794   31.5969   46.9832 H   0  0  0  0  0  0  0  0  0  0  0  0
   59.7820   30.2528   44.4214 H   0  0  0  0  0  0  0  0  0  0  0  0
  1  2  2  0
  2  3  1  0
  3  4  1  0
  4  5  2  0
  4  6  1  0
  6  7  1  0
  7  8  2  0
  7  9  2  0
  7 10  1  0
 10 11  2  0
 11 12  1  0
 12 13  2  0
 13 14  1  0
 14 15  2  0
  6 16  1  0
 16 17  2  0
 17 18  1  0
 17  2  1  0
 15 10  1  0
 11 19  1  0
 12 20  1  0
 13 21  1  0
 14 22  1  0
 15 23  1  0
 16 24  1  0
M  CHG  1   3  -1
M  END
>  <UniqueID>  (3) 
3

>  <SMILES>  (3) 
O=c1[n-]c(=O)n(S(=O)(=O)c2ccccc2)cc1F

>  <Energy>  (3) 
29.650419055546184

>  <Genealogy>  (3) 
O=c1[n-]c(=O)n(S(=O)(=O)c2ccccc2)cc1F (protonated)
O=c1[n-]c(=O)n(S(=O)(=O)c2ccccc2)cc1F (3D coordinates assigned)
O=c1[n-]c(=O)n(S(=O)(=O)c2ccccc2)cc1F (optimized conformer: 29.650419055546184 kcal/mol)

>  <smiles>  (3) 
O=c1[nH]c(=O)n(S(=O)(=O)c2ccccc2)cc1F

>  <score_type>  (3) 
oracle

>  <origin>  (3) 
adg

>  <m_score__min__energy>  (3) 
-8.4000000000000004

>  <m_primary>  (3) 
energy

$$$$
3:0
     RDKit          3D

 71 75  0  0  0  0  0  0  0  0999 V2000
   57.7910   32.2870   50.6040 C   0  0  0  0  0  0  0  0  0  0  0  0
   59.0980   31.5260   50.9240 C   0  0  2  0  0  0  0  0  0  0  0  0
   59.1410   31.2270   52.4740 C   0  0  0  0  0  0  0  0  0  0  0  0
   59.4830   29.7950   52.8730 C   0  0  0  0  0  0  0  0  0  0  0  0
   60.8290   29.3890   52.7960 C   0  0  0  0  0  0  0  0  0  0  0  0
   61.2080   28.0880   53.1250 C   0  0  0  0  0  0  0  0  0  0  0  0
   60.2550   27.1710   53.5510 C   0  0  0  0  0  0  0  0  0  0  0  0
   58.9190   27.5520   53.6620 C   0  0  0  0  0  0  0  0  0  0  0  0
   58.5040   28.8620   53.3370 C   0  0  0  0  0  0  0  0  0  0  0  0
   57.0490   29.2490   53.5530 C   0  0  0  0  0  0  0  0  0  0  0  0
   56.9570   30.3070   54.4390 F   0  0  0  0  0  0  0  0  0  0  0  0
   56.4390   29.6370   52.3720 F   0  0  0  0  0  0  0  0  0  0  0  0
   56.3520   28.1640   54.0540 F   0  0  0  0  0  0  0  0  0  0  0  0
   60.3030   32.4340   50.5530 C   0  0  0  0  0  0  0  0  0  0  0  0
   60.4120   32.6170   49.1040 N   0  0  0  0  0  0  0  0  0  0  0  0
   60.5580   33.9630   48.5330 C   0  0  0  0  0  0  0  0  0  0  0  0
   59.5980   34.1450   47.3900 C   0  0  0  0  0  0  0  0  0  0  0  0
   58.3100   33.5880   47.4530 C   0  0  0  0  0  0  0  0  0  0  0  0
   57.4430   33.6950   46.3610 C   0  0  0  0  0  0  0  0  0  0  0  0
   57.8540   34.3580   45.2010 C   0  0  0  0  0  0  0  0  0  0  0  0
   57.0150   34.4560   44.1430 F   0  0  0  0  0  0  0  0  0  0  0  0
   59.1360   34.9120   45.1290 C   0  0  0  0  0  0  0  0  0  0  0  0
   60.0070   34.8040   46.2180 C   0  0  0  0  0  0  0  0  0  0  0  0
   60.3970   31.4510   48.2650 C   0  0  0  0  0  0  0  0  0  0  0  0
   60.7910   31.5310   47.0680 O   0  0  0  0  0  0  0  0  0  0  0  0
   59.9720   30.1140   48.8230 C   0  0  2  0  0  0  0  0  0  0  0  0
   59.2270   29.3390   47.7510 C   0  0  0  0  0  0  0  0  0  0  0  0
   58.9700   29.9070   46.6050 N   0  0  0  0  0  0  0  0  0  0  0  0
   58.0670   29.1200   45.3610 S   0  0  0  0  0  0  0  0  0  0  0  0
   56.7050   29.7440   45.2550 O   0  0  0  0  0  0  0  0  0  0  0  0
   58.8020   29.2410   44.0560 O   0  0  0  0  0  0  0  0  0  0  0  0
   57.9160   27.4440   45.8050 C   0  0  0  0  0  0  0  0  0  0  0  0
   57.4300   26.5040   44.8870 C   0  0  0  0  0  0  0  0  0  0  0  0
   57.2950   25.1610   45.2530 C   0  0  0  0  0  0  0  0  0  0  0  0
   56.7940   24.2310   44.2840 N   0  0  0  0  0  0  0  0  0  0  0  0
   56.9040   22.5060   44.4090 S   0  0  0  0  0  0  0  0  0  0  0  0
   58.6180   22.0380   44.4750 C   0  0  0  0  0  0  0  0  0  0  0  0
   56.2650   21.8630   43.2090 O   0  0  0  0  0  0  0  0  0  0  0  0
   56.2200   22.0450   45.6660 O   0  0  0  0  0  0  0  0  0  0  0  0
   57.6460   24.7670   46.5570 C   0  0  0  0  0  0  0  0  0  0  0  0
   58.1220   25.7080   47.4720 C   0  0  0  0  0  0  0  0  0  0  0  0
   58.2690   27.0530   47.1010 C   0  0  0  0  0  0  0  0  0  0  0  0
   58.7720   28.0010   48.0580 N   0  0  0  0  0  0  0  0  0  0  0  0
   59.1040   30.2580   50.0640 C   0  0  0  0  0  0  0  0  0  0  0  0
   58.3700   29.3290   50.3730 O   0  0  0  0  0  0  0  0  0  0  0  0
   57.2955   32.5755   51.5427 H   0  0  0  0  0  0  0  0  0  0  0  0
   58.0257   33.1897   50.0208 H   0  0  0  0  0  0  0  0  0  0  0  0
   57.1218   31.6373   50.0208 H   0  0  0  0  0  0  0  0  0  0  0  0
   59.8951   31.8900   52.9232 H   0  0  0  0  0  0  0  0  0  0  0  0
   58.1163   31.3973   52.8358 H   0  0  0  0  0  0  0  0  0  0  0  0
   61.5939   30.1097   52.4711 H   0  0  0  0  0  0  0  0  0  0  0  0
   62.2632   27.7872   53.0471 H   0  0  0  0  0  0  0  0  0  0  0  0
   60.5554   26.1428   53.8010 H   0  0  0  0  0  0  0  0  0  0  0  0
   58.1751   26.8197   54.0087 H   0  0  0  0  0  0  0  0  0  0  0  0
   60.1693   33.4170   51.0282 H   0  0  0  0  0  0  0  0  0  0  0  0
   61.2233   31.9483   50.9094 H   0  0  0  0  0  0  0  0  0  0  0  0
   60.3460   34.7128   49.3094 H   0  0  0  0  0  0  0  0  0  0  0  0
   61.5865   34.0883   48.1635 H   0  0  0  0  0  0  0  0  0  0  0  0
   57.9823   33.0660   48.3641 H   0  0  0  0  0  0  0  0  0  0  0  0
   56.4356   33.2566   46.4149 H   0  0  0  0  0  0  0  0  0  0  0  0
   59.4595   35.4328   44.2157 H   0  0  0  0  0  0  0  0  0  0  0  0
   61.0165   35.2367   46.1569 H   0  0  0  0  0  0  0  0  0  0  0  0
   60.8781   29.5682   49.1250 H   0  0  0  0  0  0  0  0  0  0  0  0
   59.2970   30.8790   46.4100 H   0  0  0  0  0  0  0  0  0  0  0  0
   57.1528   26.8243   43.8718 H   0  0  0  0  0  0  0  0  0  0  0  0
   58.9343   21.9516   45.5250 H   0  0  0  0  0  0  0  0  0  0  0  0
   58.7535   21.0700   43.9704 H   0  0  0  0  0  0  0  0  0  0  0  0
   59.2266   22.8028   43.9704 H   0  0  0  0  0  0  0  0  0  0  0  0
   57.5451   23.7135   46.8569 H   0  0  0  0  0  0  0  0  0  0  0  0
   58.3840   25.3921   48.4926 H   0  0  0  0  0  0  0  0  0  0  0  0
   58.9020   27.6680   49.0400 H   0  0  0  0  0  0  0  0  0  0  0  0
  2  1  1  1
  2  3  1  0
  3  4  1  0
  4  5  2  0
  5  6  1  0
  6  7  2  0
  7  8  1  0
  8  9  2  0
  9 10  1  0
 10 11  1  0
 10 12  1  0
 10 13  1  0
  2 14  1  0
 14 15  1  0
 15 16  1  0
 16 17  1  0
 17 18  2  0
 18 19  1  0
 19 20  2  0
 20 21  1  0
 20 22  1  0
 22 23  2  0
 15 24  1  0
 24 25  2  0
 24 26  1  0
 26 27  1  0
 27 28  2  0
 28 29  1  0
 29 30  2  0
 29 31  2  0
 29 32  1  0
 32 33  2  0
 33 34  1  0
 34 35  1  0
 35 36  1  0
 36 37  1  0
 36 38  2  0
 36 39  2  0
 34 40  2  0
 40 41  1  0
 41 42  2  0
 42 43  1  0
 26 44  1  0
 44 45  2  0
 44  2  1  0
  9  4  1  0
 23 17  1  0
 43 27  1  0
 42 32  1  0
  1 46  1  0
  1 47  1  0
  1 48  1  0
  3 49  1  0
  3 50  1  0
  5 51  1  0
  6 52  1  0
  7 53  1  0
  8 54  1  0
 14 55  1  0
 14 56  1  0
 16 57  1  0
 16 58  1  0
 18 59  1  0
 19 60  1  0
 22 61  1  0
 23 62  1  0
 26 63  1  1
 28 64  1  0
 33 65  1  0
 37 66  1  0
 37 67  1  0
 37 68  1  0
 40 69  1  0
 41 70  1  0
 43 71  1  0
M  CHG  2  28   1  35  -1
M  END
>  <UniqueID>  (4) 
4

>  <SMILES>  (4) 
C[C@]1(Cc2ccccc2C(F)(F)F)CN(Cc2ccc(F)cc2)C(=O)[C@H](C2=[NH+]S(=O)(=O)c3cc([N-]S(C)(=O)=O)ccc3N2)C1=O

>  <Energy>  (4) 
87.15079425655684

>  <Genealogy>  (4) 
CC1(Cc2ccccc2C(F)(F)F)CN(Cc2ccc(F)cc2)C(=O)C(C2=[NH+]S(=O)(=O)c3cc([N-]S(C)(=O)=O)ccc3N2)C1=O (protonated)
C[C@]1(Cc2ccccc2C(F)(F)F)CN(Cc2ccc(F)cc2)C(=O)[C@H](C2=[NH+]S(=O)(=O)c3cc([N-]S(C)(=O)=O)ccc3N2)C1=O (chirality)
C[C@]1(Cc2ccccc2C(F)(F)F)CN(Cc2ccc(F)cc2)C(=O)[C@H](C2=[NH+]S(=O)(=O)c3cc([N-]S(C)(=O)=O)ccc3N2)C1=O (3D coordinates assigned)
C[C@]1(Cc2ccccc2C(F)(F)F)CN(Cc2ccc(F)cc2)C(=O)[C@H](C2=[NH+]S(=O)(=O)c3cc([N-]S(C)(=O)=O)ccc3N2)C1=O (nonaromatic ring conformer: 87.15079425655684 kcal/mol)

>  <smiles>  (4) 
CC1(Cc2ccccc2C(F)(F)F)CN(Cc2ccc(F)cc2)C(=O)C(C2=NS(=O)(=O)c3cc(NS(C)(=O)=O)ccc3N2)C1=O

>  <score_type>  (4) 
oracle

>  <origin>  (4) 
adg

>  <m_score__min__energy>  (4) 
-10.1

>  <m_primary>  (4) 
energy

$$$$
4:0
     RDKit          3D

 48 49  0  0  1  0  0  0  0  0999 V2000
   59.6970   33.4760   51.5280 C   0  0  0  0  0  0  0  0  0  0  0  0
   60.9340   33.0940   52.3120 C   0  0  0  0  0  0  0  0  0  0  0  0
   62.1110   33.7600   51.9170 N   0  0  0  0  0  0  0  0  0  0  0  0
   62.7810   33.4900   50.8750 C   0  0  0  0  0  0  0  0  0  0  0  0
   62.1810   33.7050   49.6840 N   0  0  0  0  0  0  0  0  0  0  0  0
   62.8410   33.4650   48.5430 C   0  0  0  0  0  0  0  0  0  0  0  0
   62.1250   33.7220   47.2970 C   0  0  0  0  0  0  0  0  0  0  0  0
   62.7130   33.4810   46.2220 O   0  0  0  0  0  0  0  0  0  0  0  0
   60.8040   34.2290   47.2310 N   0  0  0  0  0  0  0  0  0  0  0  0
   60.0710   34.4930   46.0340 C   0  0  0  0  0  0  0  0  0  0  0  0
   59.2140   33.3720   45.5740 C   0  0  0  0  0  0  0  0  0  0  0  0
   58.4910   33.5060   44.3890 C   0  0  0  0  0  0  0  0  0  0  0  0
   57.6820   32.4970   43.9070 C   0  0  0  0  0  0  0  0  0  0  0  0
   57.5590   31.2960   44.5980 C   0  0  0  0  0  0  0  0  0  0  0  0
   56.5360   30.0060   43.9980 S   0  0  0  0  0  0  0  0  0  0  0  0
   57.5780   28.6410   43.7500 N   0  0  0  0  0  0  0  0  0  0  0  0
   55.3910   29.6980   44.8840 O   0  0  0  0  0  0  0  0  0  0  0  0
   56.0140   30.4370   42.6380 O   0  0  0  0  0  0  0  0  0  0  0  0
   58.2750   31.1540   45.7770 C   0  0  0  0  0  0  0  0  0  0  0  0
   59.0880   32.1790   46.2530 C   0  0  0  0  0  0  0  0  0  0  0  0
   64.0980   33.0080   48.5960 N   0  0  0  0  0  0  0  0  0  0  0  0
   64.7390   32.7760   49.7530 C   0  0  0  0  0  0  0  0  0  0  0  0
   66.0480   32.3020   49.7780 O   0  0  0  0  0  0  0  0  0  0  0  0
   67.1030   33.0370   50.3280 C   0  0  0  0  0  0  0  0  0  0  0  0
   64.0610   33.0230   50.9490 C   0  0  0  0  0  0  0  0  0  0  0  0
   64.7560   32.7630   52.1040 O   0  0  0  0  0  0  0  0  0  0  0  0
   64.7840   31.3870   52.5250 C   0  0  0  0  0  0  0  0  0  0  0  0
   58.8840   33.7271   52.2252 H   0  0  0  0  0  0  0  0  0  0  0  0
   59.9190   34.3474   50.8945 H   0  0  0  0  0  0  0  0  0  0  0  0
   59.3890   32.6311   50.8945 H   0  0  0  0  0  0  0  0  0  0  0  0
   60.7512   33.3215   53.3726 H   0  0  0  0  0  0  0  0  0  0  0  0
   61.1040   32.0240   52.1217 H   0  0  0  0  0  0  0  0  0  0  0  0
   60.3350   34.4220   48.1620 H   0  0  0  0  0  0  0  0  0  0  0  0
   59.4268   35.3667   46.2119 H   0  0  0  0  0  0  0  0  0  0  0  0
   60.8165   34.6604   45.2426 H   0  0  0  0  0  0  0  0  0  0  0  0
   58.5679   34.4448   43.8209 H   0  0  0  0  0  0  0  0  0  0  0  0
   57.1292   32.6440   42.9674 H   0  0  0  0  0  0  0  0  0  0  0  0
   58.2240   28.8710   42.9560 H   0  0  0  0  0  0  0  0  0  0  0  0
   57.0280   27.8070   43.5140 H   0  0  0  0  0  0  0  0  0  0  0  0
   58.1993   30.2155   46.3458 H   0  0  0  0  0  0  0  0  0  0  0  0
   59.6422   32.0336   47.1920 H   0  0  0  0  0  0  0  0  0  0  0  0
   64.6290   32.8150   47.7230 H   0  0  0  0  0  0  0  0  0  0  0  0
   67.0449   32.9966   51.4257 H   0  0  0  0  0  0  0  0  0  0  0  0
   68.0603   32.6093   49.9954 H   0  0  0  0  0  0  0  0  0  0  0  0
   67.0335   34.0832   49.9954 H   0  0  0  0  0  0  0  0  0  0  0  0
   64.7850   31.3398   53.6240 H   0  0  0  0  0  0  0  0  0  0  0  0
   63.8963   30.8665   52.1364 H   0  0  0  0  0  0  0  0  0  0  0  0
   65.6922   30.9031   52.1364 H   0  0  0  0  0  0  0  0  0  0  0  0
  1  2  1  0
  2  3  1  0
  3  4  2  0
  4  5  1  0
  5  6  2  0
  6  7  1  0
  7  8  2  0
  7  9  1  0
  9 10  1  0
 10 11  1  0
 11 12  2  0
 12 13  1  0
 13 14  2  0
 14 15  1  0
 15 16  1  0
 15 17  2  0
 15 18  2  0
 14 19  1  0
 19 20  2  0
  6 21  1  0
 21 22  1  0
 22 23  1  0
 23 24  1  0
 22 25  2  0
 25 26  1  0
 26 27  1  0
 25  4  1  0
 20 11  1  0
  1 28  1  0
  1 29  1  0
  1 30  1  0
  2 31  1  0
  2 32  1  0
  9 33  1  0
 10 34  1  0
 10 35  1  0
 12 36  1  0
 13 37  1  0
 16 38  1  0
 16 39  1  0
 19 40  1  0
 20 41  1  0
 21 42  1  0
 24 43  1  0
 24 44  1  0
 24 45  1  0
 27 46  1  0
 27 47  1  0
 27 48  1  0
M  END
>  <smiles>  (5) 
CCN=c1nc(C(=O)NCc2ccc(S(N)(=O)=O)cc2)[nH]c(OC)c1OC

>  <score_type>  (5) 
oracle

>  <origin>  (5) 
adg

>  <m_score__min__energy>  (5) 
-7.3899999999999997

>  <m_primary>  (5) 
energy

$$$$
5:0
     RDKit          3D

 47 49  0  0  0  0  0  0  0  0999 V2000
   55.6217   25.5301   46.4597 H   0  0  0  0  0  0  0  0  0  0  0  0
   56.3360   26.2760   46.0810 C   0  0  0  0  0  0  0  0  0  0  0  0
   55.8880   27.4720   45.6220 N   0  0  0  0  0  0  0  0  0  0  0  0
   56.7140   28.4370   45.1250 C   0  0  0  0  0  0  0  0  0  0  0  0
   56.1500   29.5690   44.7910 N   0  0  0  0  0  0  0  0  0  0  0  0
   56.5640   30.6450   43.8900 C   0  0  0  0  0  0  0  0  0  0  0  0
   55.6646   31.1371   43.4914 H   0  0  0  0  0  0  0  0  0  0  0  0
   57.1680   30.1958   43.0878 H   0  0  0  0  0  0  0  0  0  0  0  0
   57.4200   31.6850   44.5840 C   0  0  0  0  0  0  0  0  0  0  0  0
   57.4590   32.9860   44.0640 C   0  0  0  0  0  0  0  0  0  0  0  0
   56.8736   33.2318   43.1657 H   0  0  0  0  0  0  0  0  0  0  0  0
   58.2330   33.9710   44.6750 C   0  0  0  0  0  0  0  0  0  0  0  0
   58.2666   34.9836   44.2467 H   0  0  0  0  0  0  0  0  0  0  0  0
   58.9670   33.6800   45.8290 C   0  0  0  0  0  0  0  0  0  0  0  0
   59.9410   34.9670   46.5410 Cl  0  0  0  0  0  0  0  0  0  0  0  0
   58.9280   32.3840   46.3860 C   0  0  0  0  0  0  0  0  0  0  0  0
   59.6270   32.0980   47.6140 N   0  0  0  0  0  0  0  0  0  0  0  0
   59.8480   32.8880   48.2590 H   0  0  0  0  0  0  0  0  0  0  0  0
   60.0800   30.7840   47.9880 C   0  0  0  0  0  0  0  0  0  0  0  0
   60.3900   29.9540   47.0900 O   0  0  0  0  0  0  0  0  0  0  0  0
   60.2290   30.4070   49.4180 C   0  0  0  0  0  0  0  0  0  0  0  0
   61.4830   30.0440   49.9440 C   0  0  0  0  0  0  0  0  0  0  0  0
   62.3685   30.0396   49.2914 H   0  0  0  0  0  0  0  0  0  0  0  0
   61.6110   29.6890   51.2900 C   0  0  0  0  0  0  0  0  0  0  0  0
   62.5929   29.3918   51.6868 H   0  0  0  0  0  0  0  0  0  0  0  0
   60.4970   29.7100   52.1340 C   0  0  0  0  0  0  0  0  0  0  0  0
   60.6027   29.4249   53.1911 H   0  0  0  0  0  0  0  0  0  0  0  0
   59.2460   30.0940   51.6340 C   0  0  0  0  0  0  0  0  0  0  0  0
   57.8370   30.1250   52.6890 S   0  0  0  0  0  0  0  0  0  0  0  0
   56.6710   29.4590   52.0100 O   0  0  0  0  0  0  0  0  0  0  0  0
   58.1420   29.3850   53.9620 O   0  0  0  0  0  0  0  0  0  0  0  0
   57.4140   31.8120   53.0630 C   0  0  0  0  0  0  0  0  0  0  0  0
   57.3798   31.9482   54.1540 H   0  0  0  0  0  0  0  0  0  0  0  0
   58.1715   32.4839   52.6331 H   0  0  0  0  0  0  0  0  0  0  0  0
   56.4291   32.0470   52.6331 H   0  0  0  0  0  0  0  0  0  0  0  0
   59.1140   30.4330   50.2770 C   0  0  0  0  0  0  0  0  0  0  0  0
   58.1290   30.7218   49.8816 H   0  0  0  0  0  0  0  0  0  0  0  0
   58.1420   31.3990   45.7600 C   0  0  0  0  0  0  0  0  0  0  0  0
   58.0903   30.3901   46.1953 H   0  0  0  0  0  0  0  0  0  0  0  0
   58.1160   28.1630   45.0550 C   0  0  0  0  0  0  0  0  0  0  0  0
   59.0770   29.0360   44.4500 N   0  0  0  0  0  0  0  0  0  0  0  0
   58.9280   29.3770   43.4740 H   0  0  0  0  0  0  0  0  0  0  0  0
   59.7750   29.5510   45.0180 H   0  0  0  0  0  0  0  0  0  0  0  0
   58.5820   26.9390   45.5640 C   0  0  0  0  0  0  0  0  0  0  0  0
   59.6610   26.7253   45.5603 H   0  0  0  0  0  0  0  0  0  0  0  0
   57.6960   25.9930   46.0730 C   0  0  0  0  0  0  0  0  0  0  0  0
   58.0681   25.0343   46.4636 H   0  0  0  0  0  0  0  0  0  0  0  0
  1  2  1  0
  2  3  1  0
  3  4  1  0
  4  5  2  0
  5  6  1  0
  6  7  1  0
  6  8  1  0
  6  9  1  0
  9 10  2  0
 10 11  1  0
 10 12  1  0
 12 13  1  0
 12 14  2  0
 14 15  1  0
 14 16  1  0
 16 17  1  0
 17 18  1  0
 17 19  1  0
 19 20  2  0
 19 21  1  0
 21 22  2  0
 22 23  1  0
 22 24  1  0
 24 25  1  0
 24 26  2  0
 26 27  1  0
 26 28  1  0
 28 29  1  0
 29 30  2  0
 29 31  2  0
 29 32  1  0
 32 33  1  0
 32 34  1  0
 32 35  1  0
 28 36  2  0
 36 37  1  0
 16 38  2  0
 38 39  1  0
  4 40  1  0
 40 41  1  0
 41 42  1  0
 41 43  1  0
 40 44  2  0
 44 45  1  0
 44 46  1  0
 46 47  1  0
 46  2  2  0
 38  9  1  0
 36 21  1  0
M  CHG  1   3  -1
M  END
>  <UniqueID>  (6) 
5

>  <SMILES>  (6) 
CS(=O)(=O)c1cccc(C(=O)Nc2cc(C/N=c3/[n-]cccc3N)ccc2Cl)c1

>  <Energy>  (6) 
69.13841255471978

>  <Genealogy>  (6) 
CS(=O)(=O)c1cccc(C(=O)Nc2cc(CN=c3[n-]cccc3N)ccc2Cl)c1 (protonated)
CS(=O)(=O)c1cccc(C(=O)Nc2cc(C/N=c3/[n-]cccc3N)ccc2Cl)c1 (cis-trans isomerization)
CS(=O)(=O)c1cccc(C(=O)Nc2cc(C/N=c3/[n-]cccc3N)ccc2Cl)c1 (3D coordinates assigned)
CS(=O)(=O)c1cccc(C(=O)Nc2cc(C/N=c3/[n-]cccc3N)ccc2Cl)c1 (optimized conformer: 69.13841255471978 kcal/mol)

>  <smiles>  (6) 
CS(=O)(=O)c1cccc(C(=O)Nc2cc(CN=c3[nH]cccc3N)ccc2Cl)c1

>  <score_type>  (6) 
oracle

>  <origin>  (6) 
adg

>  <m_score__min__energy>  (6) 
-10.869999999999999

>  <m_primary>  (6) 
energy

$$$$
6:0
     RDKit          3D

 36 38  0  0  0  0  0  0  0  0999 V2000
   58.5391   29.8191   49.8087 H   0  0  0  0  0  0  0  0  0  0  0  0
   58.1470   30.5580   50.5230 C   0  0  0  0  0  0  0  0  0  0  0  0
   57.0900   30.2400   51.3130 N   0  0  0  0  0  0  0  0  0  0  0  0
   56.5810   31.1320   52.2010 C   0  0  0  0  0  0  0  0  0  0  0  0
   55.5680   30.7820   52.9380 N   0  0  0  0  0  0  0  0  0  0  0  0
   54.3310   30.2020   52.4910 C   0  0  0  0  0  0  0  0  0  0  0  0
   54.2970   29.0620   51.9510 O   0  0  0  0  0  0  0  0  0  0  0  0
   53.0650   30.9830   52.6320 C   0  0  0  0  0  0  0  0  0  0  0  0
   52.4279   30.5097   53.3936 H   0  0  0  0  0  0  0  0  0  0  0  0
   53.3074   32.0121   52.9356 H   0  0  0  0  0  0  0  0  0  0  0  0
   52.3350   31.0150   51.3250 C   0  0  0  0  0  0  0  0  0  0  0  0
   51.4110   31.9510   50.9120 C   0  0  0  0  0  0  0  0  0  0  0  0
   51.0360   33.0880   51.6190 O   0  0  0  0  0  0  0  0  0  0  0  0
   50.9060   31.6170   49.7090 N   0  0  0  0  0  0  0  0  0  0  0  0
   51.5440   30.4590   49.4280 C   0  0  0  0  0  0  0  0  0  0  0  0
   51.3540   29.8150   48.3640 O   0  0  0  0  0  0  0  0  0  0  0  0
   52.4070   30.0590   50.3830 N   0  0  0  0  0  0  0  0  0  0  0  0
   52.9980   29.1970   50.3910 H   0  0  0  0  0  0  0  0  0  0  0  0
   57.1360   32.3720   52.3000 N   0  0  0  0  0  0  0  0  0  0  0  0
   58.1960   32.7360   51.5330 C   0  0  0  0  0  0  0  0  0  0  0  0
   58.6810   33.8920   51.6580 O   0  0  0  0  0  0  0  0  0  0  0  0
   58.7400   31.8230   50.6140 C   0  0  0  0  0  0  0  0  0  0  0  0
   59.8880   32.1900   49.7070 C   0  0  0  0  0  0  0  0  0  0  0  0
   60.6102   32.8032   50.2660 H   0  0  0  0  0  0  0  0  0  0  0  0
   60.3714   31.2681   49.3514 H   0  0  0  0  0  0  0  0  0  0  0  0
   59.3890   32.9690   48.5210 C   0  0  0  0  0  0  0  0  0  0  0  0
   58.3750   32.4430   47.7000 C   0  0  0  0  0  0  0  0  0  0  0  0
   57.9292   31.4658   47.9371 H   0  0  0  0  0  0  0  0  0  0  0  0
   57.9320   33.1590   46.5830 C   0  0  0  0  0  0  0  0  0  0  0  0
   57.1339   32.7477   45.9474 H   0  0  0  0  0  0  0  0  0  0  0  0
   58.5030   34.3970   46.2740 C   0  0  0  0  0  0  0  0  0  0  0  0
   58.1525   34.9597   45.3962 H   0  0  0  0  0  0  0  0  0  0  0  0
   59.5190   34.9210   47.0790 C   0  0  0  0  0  0  0  0  0  0  0  0
   59.9692   35.8938   46.8320 H   0  0  0  0  0  0  0  0  0  0  0  0
   59.9630   34.2100   48.1970 C   0  0  0  0  0  0  0  0  0  0  0  0
   60.7651   34.6235   48.8260 H   0  0  0  0  0  0  0  0  0  0  0  0
  1  2  1  0
  2  3  1  0
  3  4  1  0
  4  5  2  0
  5  6  1  0
  6  7  2  0
  6  8  1  0
  8  9  1  0
  8 10  1  0
  8 11  1  0
 11 12  2  0
 12 13  1  0
 12 14  1  0
 14 15  1  0
 15 16  2  0
 15 17  1  0
 17 18  1  0
  4 19  1  0
 19 20  1  0
 20 21  2  0
 20 22  1  0
 22 23  1  0
 23 24  1  0
 23 25  1  0
 23 26  1  0
 26 27  2  0
 27 28  1  0
 27 29  1  0
 29 30  1  0
 29 31  2  0
 31 32  1  0
 31 33  1  0
 33 34  1  0
 33 35  2  0
 35 36  1  0
 22  2  2  0
 35 26  1  0
 17 11  1  0
M  CHG  4   3  -1  13  -1  14  -1  19  -1
M  END
>  <UniqueID>  (7) 
6

>  <SMILES>  (7) 
O=C(Cc1[nH]c(=O)[n-]c1[O-])/N=c1/[n-]cc(Cc2ccccc2)c(=O)[n-]1

>  <Energy>  (7) 
70.23830465312832

>  <Genealogy>  (7) 
O=C(Cc1[nH]c(=O)[n-]c1[O-])N=c1[n-]cc(Cc2ccccc2)c(=O)[n-]1 (protonated)
O=C(Cc1[nH]c(=O)[n-]c1[O-])/N=c1/[n-]cc(Cc2ccccc2)c(=O)[n-]1 (cis-trans isomerization)
O=C(Cc1[nH]c(=O)[n-]c1[O-])/N=c1/[n-]cc(Cc2ccccc2)c(=O)[n-]1 (3D coordinates assigned)
O=C(Cc1[nH]c(=O)[n-]c1[O-])/N=c1/[n-]cc(Cc2ccccc2)c(=O)[n-]1 (optimized conformer: 70.23830465312832 kcal/mol)

>  <smiles>  (7) 
O=C(Cc1[nH]c(=O)[nH]c1O)N=c1[nH]cc(Cc2ccccc2)c(=O)[nH]1

>  <score_type>  (7) 
oracle

>  <origin>  (7) 
adg

>  <m_score__min__energy>  (7) 
-17.210000000000001

>  <m_primary>  (7) 
energy

$$$$
7:0
     RDKit          3D

 37 38  0  0  0  0  0  0  0  0999 V2000
   57.0210   22.3670   47.5670 O   0  0  0  0  0  0  0  0  0  0  0  0
   56.1160   23.2140   47.3430 C   0  0  0  0  0  0  0  0  0  0  0  0
   56.3020   24.6240   47.8340 C   0  0  0  0  0  0  0  0  0  0  0  0
   56.9660   25.4310   46.8160 N   0  0  0  0  0  0  0  0  0  0  0  0
   56.3300   26.5110   46.1220 C   0  0  0  0  0  0  0  0  0  0  0  0
   55.0750   26.5100   45.9920 O   0  0  0  0  0  0  0  0  0  0  0  0
   57.1320   27.6230   45.5440 C   0  0  0  0  0  0  0  0  0  0  0  0
   58.5360   27.5080   45.4940 C   0  0  0  0  0  0  0  0  0  0  0  0
   59.3190   28.5350   44.9580 C   0  0  0  0  0  0  0  0  0  0  0  0
   58.7140   29.6900   44.4650 C   0  0  0  0  0  0  0  0  0  0  0  0
   57.3250   29.8210   44.5020 C   0  0  0  0  0  0  0  0  0  0  0  0
   56.5300   28.8000   45.0340 C   0  0  0  0  0  0  0  0  0  0  0  0
   55.1500   28.9680   45.0370 O   0  0  0  0  0  0  0  0  0  0  0  0
   54.9570   22.8030   46.6070 N   0  0  0  0  0  0  0  0  0  0  0  0
   53.9340   23.7060   46.0910 C   0  0  0  0  0  0  0  0  0  0  0  0
   53.6570   23.3900   44.6490 C   0  0  0  0  0  0  0  0  0  0  0  0
   52.4620   23.2560   44.2690 O   0  0  0  0  0  0  0  0  0  0  0  0
   54.7060   23.2700   43.6790 N   0  0  0  0  0  0  0  0  0  0  0  0
   56.0810   22.9440   43.9300 C   0  0  0  0  0  0  0  0  0  0  0  0
   57.0330   23.9310   44.2410 C   0  0  0  0  0  0  0  0  0  0  0  0
   58.3590   23.5720   44.5060 C   0  0  0  0  0  0  0  0  0  0  0  0
   58.7380   22.2270   44.4870 C   0  0  0  0  0  0  0  0  0  0  0  0
   60.0240   21.8810   44.7480 F   0  0  0  0  0  0  0  0  0  0  0  0
   57.7890   21.2390   44.2120 C   0  0  0  0  0  0  0  0  0  0  0  0
   56.4630   21.5960   43.9430 C   0  0  0  0  0  0  0  0  0  0  0  0
   55.3187   25.0622   48.0601 H   0  0  0  0  0  0  0  0  0  0  0  0
   56.9248   24.6081   48.7405 H   0  0  0  0  0  0  0  0  0  0  0  0
   59.0212   26.5999   45.8811 H   0  0  0  0  0  0  0  0  0  0  0  0
   60.4136   28.4314   44.9253 H   0  0  0  0  0  0  0  0  0  0  0  0
   59.3315   30.4985   44.0467 H   0  0  0  0  0  0  0  0  0  0  0  0
   56.8519   30.7335   44.1101 H   0  0  0  0  0  0  0  0  0  0  0  0
   53.0103   23.5836   46.6756 H   0  0  0  0  0  0  0  0  0  0  0  0
   54.2901   24.7435   46.1736 H   0  0  0  0  0  0  0  0  0  0  0  0
   56.7342   24.9890   44.2761 H   0  0  0  0  0  0  0  0  0  0  0  0
   59.1043   24.3495   44.7296 H   0  0  0  0  0  0  0  0  0  0  0  0
   58.0846   20.1795   44.2070 H   0  0  0  0  0  0  0  0  0  0  0  0
   55.7164   20.8140   43.7406 H   0  0  0  0  0  0  0  0  0  0  0  0
  1  2  2  0
  2  3  1  0
  3  4  1  0
  4  5  1  0
  5  6  2  0
  5  7  1  0
  7  8  2  0
  8  9  1  0
  9 10  2  0
 10 11  1  0
 11 12  2  0
 12 13  1  0
  2 14  1  0
 14 15  1  0
 15 16  1  0
 16 17  2  0
 16 18  1  0
 18 19  1  0
 19 20  2  0
 20 21  1  0
 21 22  2  0
 22 23  1  0
 22 24  1  0
 24 25  2  0
 12  7  1  0
 25 19  1  0
  3 26  1  0
  3 27  1  0
  8 28  1  0
  9 29  1  0
 10 30  1  0
 11 31  1  0
 15 32  1  0
 15 33  1  0
 20 34  1  0
 21 35  1  0
 24 36  1  0
 25 37  1  0
M  CHG  4   4  -1  13  -1  14  -1  18  -1
M  END
>  <UniqueID>  (8) 
7

>  <SMILES>  (8) 
O=C(C[N-]C(=O)c1ccccc1[O-])[N-]CC(=O)[N-]c1ccc(F)cc1

>  <Energy>  (8) 
40.43147844623876

>  <Genealogy>  (8) 
O=C(C[N-]C(=O)c1ccccc1[O-])[N-]CC(=O)[N-]c1ccc(F)cc1 (protonated)
O=C(C[N-]C(=O)c1ccccc1[O-])[N-]CC(=O)[N-]c1ccc(F)cc1 (3D coordinates assigned)
O=C(C[N-]C(=O)c1ccccc1[O-])[N-]CC(=O)[N-]c1ccc(F)cc1 (optimized conformer: 40.43147844623876 kcal/mol)

>  <smiles>  (8) 
O=C(CNC(=O)c1ccccc1O)NCC(=O)Nc1ccc(F)cc1

>  <score_type>  (8) 
oracle

>  <origin>  (8) 
adg

>  <m_score__min__energy>  (8) 
-15.470000000000001

>  <m_primary>  (8) 
energy

$$$$
8:0
     RDKit          3D

 49 52  0  0  0  0  0  0  0  0999 V2000
   57.0940   24.7500   43.3620 C   0  0  0  0  0  0  0  0  0  0  0  0
   57.7700   25.4140   44.5730 C   0  0  0  0  0  0  0  0  0  0  0  0
   57.7720   26.8990   44.5400 N   0  0  0  0  0  0  0  0  0  0  0  0
   59.1060   27.4530   44.1690 C   0  0  0  0  0  0  0  0  0  0  0  0
   59.4160   28.8190   44.8110 C   0  0  0  0  0  0  0  0  0  0  0  0
   58.1920   29.6110   44.9770 N   0  0  0  0  0  0  0  0  0  0  0  0
   58.1030   30.9490   44.4630 C   0  0  0  0  0  0  0  0  0  0  0  0
   57.6310   31.2380   43.2270 N   0  0  0  0  0  0  0  0  0  0  0  0
   57.7730   32.5790   43.1150 C   0  0  0  0  0  0  0  0  0  0  0  0
   58.3060   33.1210   44.2260 N   0  0  0  0  0  0  0  0  0  0  0  0
   58.5850   34.4120   44.5170 C   0  0  0  0  0  0  0  0  0  0  0  0
   59.1140   34.6940   45.7820 C   0  0  0  0  0  0  0  0  0  0  0  0
   59.3250   33.6820   46.6920 N   0  0  0  0  0  0  0  0  0  0  0  0
   59.8800   34.0300   48.0140 C   0  0  0  0  0  0  0  0  0  0  0  0
   61.3660   33.7460   48.0680 C   0  0  0  0  0  0  0  0  0  0  0  0
   62.1100   33.7530   46.8740 C   0  0  0  0  0  0  0  0  0  0  0  0
   63.4780   33.4680   46.8880 C   0  0  0  0  0  0  0  0  0  0  0  0
   64.1180   33.1700   48.0920 C   0  0  0  0  0  0  0  0  0  0  0  0
   63.3920   33.1550   49.2840 C   0  0  0  0  0  0  0  0  0  0  0  0
   62.0210   33.4380   49.2820 C   0  0  0  0  0  0  0  0  0  0  0  0
   61.1680   33.4070   50.8220 Cl  0  0  0  0  0  0  0  0  0  0  0  0
   58.9950   32.3820   46.3700 C   0  0  0  0  0  0  0  0  0  0  0  0
   59.0940   31.4560   47.2190 O   0  0  0  0  0  0  0  0  0  0  0  0
   58.5110   32.1180   45.0840 C   0  0  0  0  0  0  0  0  0  0  0  0
   57.0050   28.9990   45.5820 C   0  0  0  0  0  0  0  0  0  0  0  0
   57.2120   27.4930   45.7750 C   0  0  0  0  0  0  0  0  0  0  0  0
   56.3501   24.0193   43.7123 H   0  0  0  0  0  0  0  0  0  0  0  0
   56.5948   25.5186   42.7537 H   0  0  0  0  0  0  0  0  0  0  0  0
   57.8535   24.2371   42.7537 H   0  0  0  0  0  0  0  0  0  0  0  0
   57.2406   25.0913   45.4816 H   0  0  0  0  0  0  0  0  0  0  0  0
   58.8239   25.0993   44.5544 H   0  0  0  0  0  0  0  0  0  0  0  0
   57.1140   27.1570   43.7650 H   0  0  0  0  0  0  0  0  0  0  0  0
   59.8786   26.7376   44.4872 H   0  0  0  0  0  0  0  0  0  0  0  0
   59.0956   27.6074   43.0799 H   0  0  0  0  0  0  0  0  0  0  0  0
   59.8764   28.6571   45.7968 H   0  0  0  0  0  0  0  0  0  0  0  0
   60.1029   29.3690   44.1510 H   0  0  0  0  0  0  0  0  0  0  0  0
   57.4873   33.1566   42.2235 H   0  0  0  0  0  0  0  0  0  0  0  0
   58.4026   35.2126   43.7851 H   0  0  0  0  0  0  0  0  0  0  0  0
   59.3629   35.7311   46.0511 H   0  0  0  0  0  0  0  0  0  0  0  0
   59.7107   35.0999   48.2053 H   0  0  0  0  0  0  0  0  0  0  0  0
   59.3774   33.4187   48.7780 H   0  0  0  0  0  0  0  0  0  0  0  0
   61.6108   33.9847   45.9216 H   0  0  0  0  0  0  0  0  0  0  0  0
   64.0510   33.4785   45.9491 H   0  0  0  0  0  0  0  0  0  0  0  0
   65.1951   32.9468   48.1015 H   0  0  0  0  0  0  0  0  0  0  0  0
   63.9002   32.9194   50.2307 H   0  0  0  0  0  0  0  0  0  0  0  0
   56.8165   29.4660   46.5599 H   0  0  0  0  0  0  0  0  0  0  0  0
   56.1460   29.1554   44.9129 H   0  0  0  0  0  0  0  0  0  0  0  0
   57.9089   27.3246   46.6092 H   0  0  0  0  0  0  0  0  0  0  0  0
   56.2442   27.0200   45.9977 H   0  0  0  0  0  0  0  0  0  0  0  0
  1  2  1  0
  2  3  1  0
  3  4  1  0
  4  5  1  0
  5  6  1  0
  6  7  1  0
  7  8  1  0
  8  9  2  0
  9 10  1  0
 10 11  1  0
 11 12  2  0
 12 13  1  0
 13 14  1  0
 14 15  1  0
 15 16  2  0
 16 17  1  0
 17 18  2  0
 18 19  1  0
 19 20  2  0
 20 21  1  0
 13 22  1  0
 22 23  2  0
 22 24  1  0
  6 25  1  0
 25 26  1  0
 26  3  1  0
 24  7  2  0
 24 10  1  0
 20 15  1  0
  1 27  1  0
  1 28  1  0
  1 29  1  0
  2 30  1  0
  2 31  1  0
  3 32  1  0
  4 33  1  0
  4 34  1  0
  5 35  1  0
  5 36  1  0
  9 37  1  0
 11 38  1  0
 12 39  1  0
 14 40  1  0
 14 41  1  0
 16 42  1  0
 17 43  1  0
 18 44  1  0
 19 45  1  0
 25 46  1  0
 25 47  1  0
 26 48  1  0
 26 49  1  0
M  CHG  1   3   1
M  END
>  <UniqueID>  (9) 
8

>  <SMILES>  (9) 
CC[NH+]1CCN(c2ncn3ccn(Cc4ccccc4Cl)c(=O)c23)CC1

>  <Energy>  (9) 
106.21059243204834

>  <Genealogy>  (9) 
CC[NH+]1CCN(c2ncn3ccn(Cc4ccccc4Cl)c(=O)c23)CC1 (protonated)
CC[NH+]1CCN(c2ncn3ccn(Cc4ccccc4Cl)c(=O)c23)CC1 (3D coordinates assigned)
CC[NH+]1CCN(c2ncn3ccn(Cc4ccccc4Cl)c(=O)c23)CC1 (nonaromatic ring conformer: 106.21059243204834 kcal/mol)

>  <smiles>  (9) 
CCN1CCN(c2ncn3ccn(Cc4ccccc4Cl)c(=O)c23)CC1

>  <score_type>  (9) 
oracle

>  <origin>  (9) 
adg

>  <m_score__min__energy>  (9) 
-6.2199999999999998

>  <m_primary>  (9) 
energy

$$$$
9:0
     RDKit          3D

 53 55  0  0  0  0  0  0  0  0999 V2000
   56.4250   30.0880   46.0060 H   0  0  0  0  0  0  0  0  0  0  0  0
   57.0330   29.3200   46.2640 O   0  0  0  0  0  0  0  0  0  0  0  0
   58.3890   29.2970   45.9390 C   0  0  0  0  0  0  0  0  0  0  0  0
   59.3310   29.9040   46.7930 C   0  0  0  0  0  0  0  0  0  0  0  0
   58.8740   30.5900   47.9290 O   0  0  0  0  0  0  0  0  0  0  0  0
   59.2150   30.2530   49.2700 C   0  0  0  0  0  0  0  0  0  0  0  0
   58.6082   30.8527   49.9644 H   0  0  0  0  0  0  0  0  0  0  0  0
   59.0188   29.1842   49.4407 H   0  0  0  0  0  0  0  0  0  0  0  0
   60.2814   30.4618   49.4407 H   0  0  0  0  0  0  0  0  0  0  0  0
   60.7010   29.8170   46.4810 C   0  0  0  0  0  0  0  0  0  0  0  0
   61.4425   30.2972   47.1364 H   0  0  0  0  0  0  0  0  0  0  0  0
   61.1240   29.1250   45.3450 C   0  0  0  0  0  0  0  0  0  0  0  0
   62.1981   29.0417   45.1227 H   0  0  0  0  0  0  0  0  0  0  0  0
   60.1910   28.5390   44.4910 C   0  0  0  0  0  0  0  0  0  0  0  0
   60.5331   27.9918   43.6002 H   0  0  0  0  0  0  0  0  0  0  0  0
   58.8180   28.6430   44.7610 C   0  0  0  0  0  0  0  0  0  0  0  0
   57.8660   28.0380   43.8020 C   0  0  0  0  0  0  0  0  0  0  0  0
   57.8391   26.9430   43.7006 H   0  0  0  0  0  0  0  0  0  0  0  0
   57.0380   28.7750   43.0550 C   0  0  0  0  0  0  0  0  0  0  0  0
   56.9990   28.5995   41.9698 H   0  0  0  0  0  0  0  0  0  0  0  0
   56.1740   29.8180   43.6440 C   0  0  0  0  0  0  0  0  0  0  0  0
   55.1930   29.4840   44.3590 O   0  0  0  0  0  0  0  0  0  0  0  0
   56.4680   31.2160   43.4860 N   0  0  0  0  0  0  0  0  0  0  0  0
   57.2010   31.9510   44.2710 C   0  0  0  0  0  0  0  0  0  0  0  0
   57.0330   31.9570   45.6110 N   0  0  0  0  0  0  0  0  0  0  0  0
   57.8570   32.8510   46.2240 C   0  0  0  0  0  0  0  0  0  0  0  0
   57.8648   32.9999   47.3138 H   0  0  0  0  0  0  0  0  0  0  0  0
   58.6890   33.5620   45.3630 C   0  0  0  0  0  0  0  0  0  0  0  0
   59.6310   34.6600   45.7500 C   0  0  0  0  0  0  0  0  0  0  0  0
   60.1676   35.0062   44.8543 H   0  0  0  0  0  0  0  0  0  0  0  0
   59.0488   35.4821   46.1918 H   0  0  0  0  0  0  0  0  0  0  0  0
   60.6320   34.1780   46.7690 C   0  0  0  0  0  0  0  0  0  0  0  0
   61.8930   33.7220   46.3670 C   0  0  0  0  0  0  0  0  0  0  0  0
   62.1519   33.7015   45.2981 H   0  0  0  0  0  0  0  0  0  0  0  0
   62.8240   33.2930   47.3150 C   0  0  0  0  0  0  0  0  0  0  0  0
   63.8131   32.9399   46.9880 H   0  0  0  0  0  0  0  0  0  0  0  0
   62.5070   33.3090   48.6820 C   0  0  0  0  0  0  0  0  0  0  0  0
   63.5220   32.8510   49.6920 C   0  0  0  0  0  0  0  0  0  0  0  0
   63.1345   33.0259   50.7065 H   0  0  0  0  0  0  0  0  0  0  0  0
   63.7177   31.7774   49.5543 H   0  0  0  0  0  0  0  0  0  0  0  0
   64.4565   33.4147   49.5543 H   0  0  0  0  0  0  0  0  0  0  0  0
   61.2500   33.7850   49.1000 C   0  0  0  0  0  0  0  0  0  0  0  0
   60.9450   33.8210   50.5050 N   0  0  0  0  0  0  0  0  0  0  0  0
   59.4460   33.3430   51.2370 S   0  0  0  0  0  0  0  0  0  0  0  0
   58.8240   34.5130   51.9460 O   0  0  0  0  0  0  0  0  0  0  0  0
   58.5100   32.8840   50.1550 O   0  0  0  0  0  0  0  0  0  0  0  0
   59.7100   31.9950   52.3710 C   0  0  0  0  0  0  0  0  0  0  0  0
   59.6374   32.3655   53.4042 H   0  0  0  0  0  0  0  0  0  0  0  0
   58.9464   31.2209   52.2046 H   0  0  0  0  0  0  0  0  0  0  0  0
   60.7092   31.5662   52.2046 H   0  0  0  0  0  0  0  0  0  0  0  0
   60.3230   34.2200   48.1370 C   0  0  0  0  0  0  0  0  0  0  0  0
   59.3421   34.5985   48.4603 H   0  0  0  0  0  0  0  0  0  0  0  0
   58.3670   33.0730   43.7870 S   0  0  0  0  0  0  0  0  0  0  0  0
  1  2  1  0
  2  3  1  0
  3  4  2  0
  4  5  1  0
  5  6  1  0
  6  7  1  0
  6  8  1  0
  6  9  1  0
  4 10  1  0
 10 11  1  0
 10 12  2  0
 12 13  1  0
 12 14  1  0
 14 15  1  0
 14 16  2  0
 16 17  1  0
 17 18  1  0
 17 19  2  0
 19 20  1  0
 19 21  1  0
 21 22  2  0
 21 23  1  0
 23 24  2  3
 24 25  1  0
 25 26  1  0
 26 27  1  0
 26 28  2  0
 28 29  1  0
 29 30  1  0
 29 31  1  0
 29 32  1  0
 32 33  2  0
 33 34  1  0
 33 35  1  0
 35 36  1  0
 35 37  2  0
 37 38  1  0
 38 39  1  0
 38 40  1  0
 38 41  1  0
 37 42  1  0
 42 43  1  0
 43 44  1  0
 44 45  2  0
 44 46  2  0
 44 47  1  0
 47 48  1  0
 47 49  1  0
 47 50  1  0
 42 51  2  0
 51 52  1  0
 28 53  1  0
 16  3  1  0
 53 24  1  0
 51 32  1  0
M  CHG  2  25  -1  43  -1
M  END
>  <UniqueID>  (10) 
9

>  <SMILES>  (10) 
COc1cccc(/C=C/C(=O)N=c2[n-]cc(Cc3ccc(C)c([N-]S(C)(=O)=O)c3)s2)c1O

>  <Energy>  (10) 
92.80944526953112

>  <Genealogy>  (10) 
COc1cccc(C=CC(=O)N=c2[n-]cc(Cc3ccc(C)c([N-]S(C)(=O)=O)c3)s2)c1O (protonated)
COc1cccc(/C=C/C(=O)N=c2[n-]cc(Cc3ccc(C)c([N-]S(C)(=O)=O)c3)s2)c1O (cis-trans isomerization)
COc1cccc(/C=C/C(=O)N=c2[n-]cc(Cc3ccc(C)c([N-]S(C)(=O)=O)c3)s2)c1O (3D coordinates assigned)
COc1cccc(/C=C/C(=O)N=c2[n-]cc(Cc3ccc(C)c([N-]S(C)(=O)=O)c3)s2)c1O (optimized conformer: 92.80944526953112 kcal/mol)

>  <smiles>  (10) 
COc1cccc(C=CC(=O)N=c2[nH]cc(Cc3ccc(C)c(NS(C)(=O)=O)c3)s2)c1O

>  <score_type>  (10) 
oracle

>  <origin>  (10) 
adg

>  <m_score__min__energy>  (10) 
-13.4

>  <m_primary>  (10) 
energy

$$$$
10:0
     RDKit          3D

 57 60  0  0  1  0  0  0  0  0999 V2000
   63.3820   31.6550   47.1670 C   0  0  0  0  0  0  0  0  0  0  0  0
   62.0160   31.4320   46.9950 O   0  0  0  0  0  0  0  0  0  0  0  0
   61.1060   32.4360   47.2990 C   0  0  0  0  0  0  0  0  0  0  0  0
   60.6940   33.3850   46.3840 C   0  0  0  0  0  0  0  0  0  0  0  0
   59.7870   34.3840   46.6960 C   0  0  0  0  0  0  0  0  0  0  0  0
   59.3870   35.3450   45.7180 N   0  0  0  0  0  0  0  0  0  0  0  0
   58.5400   35.0630   44.8460 O   0  0  0  0  0  0  0  0  0  0  0  0
   59.9660   36.5900   45.7670 O   0  0  0  0  0  0  0  0  0  0  0  0
   59.2530   34.4700   47.9510 C   0  0  0  0  0  0  0  0  0  0  0  0
   59.6490   33.5310   48.8890 C   0  0  0  0  0  0  0  0  0  0  0  0
   60.5630   32.5250   48.5740 C   0  0  0  0  0  0  0  0  0  0  0  0
   60.8980   31.6220   49.6170 N   0  0  0  0  0  0  0  0  0  0  0  0
   60.7670   30.2290   49.5590 C   0  0  0  0  0  0  0  0  0  0  0  0
   60.9050   29.4450   50.6990 C   0  0  0  0  0  0  0  0  0  0  0  0
   60.3710   28.2210   48.3700 C   0  0  0  0  0  0  0  0  0  0  0  0
   60.1100   27.5990   47.2500 N   0  0  0  0  0  0  0  0  0  0  0  0
   61.1730   25.9620   51.6980 C   0  0  0  0  0  0  0  0  0  0  0  0
   62.6720   25.6690   51.6250 C   0  0  0  0  0  0  0  0  0  0  0  0
   61.8420   25.2690   52.8070 C   0  0  0  0  0  0  0  0  0  0  0  0
   60.4980   27.4390   49.4600 N   0  0  0  0  0  0  0  0  0  0  0  0
   60.7670   28.0760   50.6210 C   0  0  0  0  0  0  0  0  0  0  0  0
   60.8990   27.3760   51.6900 N   0  0  0  0  0  0  0  0  0  0  0  0
   58.7740   27.3230   46.8490 C   0  0  0  0  0  0  0  0  0  0  0  0
   58.2910   26.0560   47.1680 C   0  0  0  0  0  0  0  0  0  0  0  0
   57.0080   25.6570   46.8370 C   0  0  0  0  0  0  0  0  0  0  0  0
   56.2080   26.5760   46.1640 C   0  0  0  0  0  0  0  0  0  0  0  0
   54.9030   26.2130   45.8090 O   0  0  0  0  0  0  0  0  0  0  0  0
   54.6830   24.8250   45.5750 C   0  0  0  0  0  0  0  0  0  0  0  0
   56.6860   27.8470   45.8400 C   0  0  0  0  0  0  0  0  0  0  0  0
   55.8280   28.6840   45.1780 O   0  0  0  0  0  0  0  0  0  0  0  0
   56.3420   29.5590   44.1910 C   0  0  0  0  0  0  0  0  0  0  0  0
   57.9720   28.2110   46.1880 C   0  0  0  0  0  0  0  0  0  0  0  0
   60.5010   29.5670   48.4190 N   0  0  0  0  0  0  0  0  0  0  0  0
   63.6149   31.6930   48.2414 H   0  0  0  0  0  0  0  0  0  0  0  0
   63.9489   30.8375   46.6976 H   0  0  0  0  0  0  0  0  0  0  0  0
   63.6595   32.6103   46.6976 H   0  0  0  0  0  0  0  0  0  0  0  0
   61.1038   33.3457   45.3639 H   0  0  0  0  0  0  0  0  0  0  0  0
   58.5317   35.2597   48.2080 H   0  0  0  0  0  0  0  0  0  0  0  0
   59.2331   33.5795   49.9062 H   0  0  0  0  0  0  0  0  0  0  0  0
   61.2740   32.0610   50.4990 H   0  0  0  0  0  0  0  0  0  0  0  0
   61.1252   29.9193   51.6668 H   0  0  0  0  0  0  0  0  0  0  0  0
   60.2375   25.7229   51.1710 H   0  0  0  0  0  0  0  0  0  0  0  0
   63.0556   24.9058   50.9319 H   0  0  0  0  0  0  0  0  0  0  0  0
   63.5851   26.2614   51.4660 H   0  0  0  0  0  0  0  0  0  0  0  0
   61.6321   24.2048   52.9896 H   0  0  0  0  0  0  0  0  0  0  0  0
   61.9147   25.4488   53.8898 H   0  0  0  0  0  0  0  0  0  0  0  0
   60.4030   26.4040   49.4470 H   0  0  0  0  0  0  0  0  0  0  0  0
   58.9488   25.3519   47.6986 H   0  0  0  0  0  0  0  0  0  0  0  0
   56.6356   24.6547   47.0951 H   0  0  0  0  0  0  0  0  0  0  0  0
   54.5997   24.2995   46.5378 H   0  0  0  0  0  0  0  0  0  0  0  0
   53.7526   24.6925   45.0033 H   0  0  0  0  0  0  0  0  0  0  0  0
   55.5268   24.4113   45.0033 H   0  0  0  0  0  0  0  0  0  0  0  0
   56.8414   30.4091   44.6788 H   0  0  0  0  0  0  0  0  0  0  0  0
   57.0664   29.0190   43.5636 H   0  0  0  0  0  0  0  0  0  0  0  0
   55.5176   29.9288   43.5636 H   0  0  0  0  0  0  0  0  0  0  0  0
   58.3498   29.2124   45.9341 H   0  0  0  0  0  0  0  0  0  0  0  0
   60.3760   30.0650   47.5110 H   0  0  0  0  0  0  0  0  0  0  0  0
  1  2  1  0
  2  3  1  0
  3  4  2  0
  4  5  1  0
  5  6  1  0
  6  7  2  0
  6  8  1  0
  5  9  2  0
  9 10  1  0
 10 11  2  0
 11 12  1  0
 12 13  1  0
 13 14  2  0
 14 15  1  0
 15 16  2  0
 16 17  1  0
 17 18  1  0
 18 19  1  0
 15 20  1  0
 20 21  1  0
 21 22  2  0
 22 23  1  0
 23 24  2  0
 24 25  1  0
 25 26  2  0
 26 27  1  0
 27 28  1  0
 26 29  1  0
 29 30  1  0
 30 31  1  0
 29 32  2  0
 21 33  1  0
 11  3  1  0
 33 13  1  0
 19 17  1  0
 32 23  1  0
  1 34  1  0
  1 35  1  0
  1 36  1  0
  4 37  1  0
  9 38  1  0
 10 39  1  0
 12 40  1  0
 14 41  1  0
 17 42  1  0
 18 43  1  0
 18 44  1  0
 19 45  1  0
 19 46  1  0
 20 47  1  0
 24 48  1  0
 25 49  1  0
 28 50  1  0
 28 51  1  0
 28 52  1  0
 31 53  1  0
 31 54  1  0
 31 55  1  0
 32 56  1  0
 33 57  1  0
M  CHG  2   6   1   8  -1
M  END
>  <smiles>  (11) 
COc1cc([N+](=O)[O-])ccc1Nc1cc(=NC2CC2)[nH]c(=Nc2ccc(OC)c(OC)c2)[nH]1

>  <score_type>  (11) 
oracle

>  <origin>  (11) 
adg

>  <m_score__min__energy>  (11) 
-8.3699999999999992

>  <m_primary>  (11) 
energy

$$$$
11:0
     RDKit          3D

 57 60  0  0  1  0  0  0  0  0999 V2000
   57.7830   30.1520   46.2940 O   0  0  0  0  0  0  0  0  0  0  0  0
   58.4440   29.4540   47.1350 C   0  0  0  0  0  0  0  0  0  0  0  0
   58.9350   30.0110   48.3170 N   0  0  0  0  0  0  0  0  0  0  0  0
   58.7780   31.3850   48.7400 C   0  0  0  0  0  0  0  0  0  0  0  0
   59.5490   32.2680   47.8400 C   0  0  0  0  0  0  0  0  0  0  0  0
   58.9950   33.0340   46.8400 C   0  0  0  0  0  0  0  0  0  0  0  0
   59.8150   33.8330   46.0390 C   0  0  0  0  0  0  0  0  0  0  0  0
   61.1810   33.8510   46.2530 C   0  0  0  0  0  0  0  0  0  0  0  0
   61.7460   33.0970   47.2410 C   0  0  0  0  0  0  0  0  0  0  0  0
   63.1790   33.0800   47.5080 C   0  0  0  0  0  0  0  0  0  0  0  0
   64.1230   32.9760   46.4960 O   0  0  0  0  0  0  0  0  0  0  0  0
   63.6430   33.1630   48.7250 N   0  0  0  0  0  0  0  0  0  0  0  0
   64.9930   33.0740   48.9970 O   0  0  0  0  0  0  0  0  0  0  0  0
   60.9240   32.3140   48.0240 C   0  0  0  0  0  0  0  0  0  0  0  0
   58.6340   28.0510   46.7530 C   0  0  0  0  0  0  0  0  0  0  0  0
   57.5500   27.2890   46.3700 C   0  0  0  0  0  0  0  0  0  0  0  0
   57.7090   25.9530   46.0040 C   0  0  0  0  0  0  0  0  0  0  0  0
   58.9330   25.3290   46.0020 C   0  0  0  0  0  0  0  0  0  0  0  0
   59.1670   23.9570   45.6170 C   0  0  0  0  0  0  0  0  0  0  0  0
   60.3810   23.5510   45.6270 O   0  0  0  0  0  0  0  0  0  0  0  0
   58.1700   22.9920   45.2200 C   0  0  0  0  0  0  0  0  0  0  0  0
   58.2650   22.1660   44.1230 C   0  0  0  0  0  0  0  0  0  0  0  0
   57.2690   21.2670   43.7740 C   0  0  0  0  0  0  0  0  0  0  0  0
   56.1290   21.1540   44.5160 C   0  0  0  0  0  0  0  0  0  0  0  0
   56.0040   21.9670   45.6240 C   0  0  0  0  0  0  0  0  0  0  0  0
   54.8500   21.9340   46.4750 N   0  0  0  0  0  0  0  0  0  0  0  0
   53.6590   22.5180   46.0150 C   0  0  0  0  0  0  0  0  0  0  0  0
   53.6310   23.0490   44.8850 O   0  0  0  0  0  0  0  0  0  0  0  0
   52.4740   22.4770   46.9030 C   0  0  0  0  0  0  0  0  0  0  0  0
   51.1970   22.6440   46.5600 C   0  0  0  0  0  0  0  0  0  0  0  0
   50.2350   22.5750   47.5020 C   0  0  0  0  0  0  0  0  0  0  0  0
   50.6670   22.3280   48.7950 C   0  0  0  0  0  0  0  0  0  0  0  0
   52.5160   22.1910   48.6510 S   0  0  0  0  0  0  0  0  0  0  0  0
   56.9940   22.8620   45.9680 C   0  0  0  0  0  0  0  0  0  0  0  0
   60.0180   26.1220   46.3960 C   0  0  0  0  0  0  0  0  0  0  0  0
   59.8680   27.4390   46.7590 C   0  0  0  0  0  0  0  0  0  0  0  0
   59.4780   29.3900   48.9860 H   0  0  0  0  0  0  0  0  0  0  0  0
   57.7139   31.6612   48.7018 H   0  0  0  0  0  0  0  0  0  0  0  0
   59.1487   31.4966   49.7696 H   0  0  0  0  0  0  0  0  0  0  0  0
   57.9081   33.0173   46.6715 H   0  0  0  0  0  0  0  0  0  0  0  0
   59.3746   34.4467   45.2394 H   0  0  0  0  0  0  0  0  0  0  0  0
   61.8212   34.4815   45.6185 H   0  0  0  0  0  0  0  0  0  0  0  0
   65.1020   32.7480   46.7050 H   0  0  0  0  0  0  0  0  0  0  0  0
   65.6070   33.0150   48.1960 H   0  0  0  0  0  0  0  0  0  0  0  0
   61.3736   31.7048   48.8220 H   0  0  0  0  0  0  0  0  0  0  0  0
   56.5473   27.7410   46.3531 H   0  0  0  0  0  0  0  0  0  0  0  0
   56.8208   25.3768   45.7056 H   0  0  0  0  0  0  0  0  0  0  0  0
   59.1682   22.2215   43.4976 H   0  0  0  0  0  0  0  0  0  0  0  0
   57.3997   20.6340   42.8839 H   0  0  0  0  0  0  0  0  0  0  0  0
   55.3383   20.4405   44.2407 H   0  0  0  0  0  0  0  0  0  0  0  0
   54.9460   21.4710   47.4090 H   0  0  0  0  0  0  0  0  0  0  0  0
   50.9286   22.8376   45.5110 H   0  0  0  0  0  0  0  0  0  0  0  0
   49.1704   22.7070   47.2585 H   0  0  0  0  0  0  0  0  0  0  0  0
   50.0537   22.2340   49.7033 H   0  0  0  0  0  0  0  0  0  0  0  0
   56.8557   23.4937   46.8579 H   0  0  0  0  0  0  0  0  0  0  0  0
   61.0234   25.6761   46.4156 H   0  0  0  0  0  0  0  0  0  0  0  0
   60.7535   28.0175   47.0612 H   0  0  0  0  0  0  0  0  0  0  0  0
  1  2  2  0
  2  3  1  0
  3  4  1  0
  4  5  1  0
  5  6  2  0
  6  7  1  0
  7  8  2  0
  8  9  1  0
  9 10  1  0
 10 11  1  0
 10 12  2  0
 12 13  1  0
  9 14  2  0
  2 15  1  0
 15 16  2  0
 16 17  1  0
 17 18  2  0
 18 19  1  0
 19 20  2  0
 19 21  1  0
 21 22  2  0
 22 23  1  0
 23 24  2  0
 24 25  1  0
 25 26  1  0
 26 27  1  0
 27 28  2  0
 27 29  1  0
 29 30  2  0
 30 31  1  0
 31 32  2  0
 32 33  1  0
 25 34  2  0
 18 35  1  0
 35 36  2  0
 14  5  1  0
 36 15  1  0
 34 21  1  0
 33 29  1  0
  3 37  1  0
  4 38  1  0
  4 39  1  0
  6 40  1  0
  7 41  1  0
  8 42  1  0
 11 43  1  0
 13 44  1  0
 14 45  1  0
 16 46  1  0
 17 47  1  0
 22 48  1  0
 23 49  1  0
 24 50  1  0
 26 51  1  0
 30 52  1  0
 31 53  1  0
 32 54  1  0
 34 55  1  0
 35 56  1  0
 36 57  1  0
M  END
>  <smiles>  (12) 
O=C(NCc1cccc(C(O)=NO)c1)c1ccc(C(=O)c2cccc(NC(=O)c3cccs3)c2)cc1

>  <score_type>  (12) 
oracle

>  <origin>  (12) 
adg

>  <m_score__min__energy>  (12) 
-10.67

>  <m_primary>  (12) 
energy

$$$$
12:0
     RDKit          3D

 29 31  0  0  0  0  0  0  0  0999 V2000
   60.3511   30.1032   45.6340 H   0  0  0  0  0  0  0  0  0  0  0  0
   59.8050   29.1760   45.4060 C   0  0  0  0  0  0  0  0  0  0  0  0
   60.3488   28.2234   45.3240 H   0  0  0  0  0  0  0  0  0  0  0  0
   58.4760   29.2070   45.2280 C   0  0  0  0  0  0  0  0  0  0  0  0
   57.6120   28.1390   44.9330 C   0  0  0  0  0  0  0  0  0  0  0  0
   57.8420   26.8140   44.9060 C   0  0  0  0  0  0  0  0  0  0  0  0
   58.5107   26.4384   44.1175 H   0  0  0  0  0  0  0  0  0  0  0  0
   57.2800   25.8210   45.8360 C   0  0  0  0  0  0  0  0  0  0  0  0
   57.9940   24.8660   46.4610 N   0  0  0  0  0  0  0  0  0  0  0  0
   57.0980   24.3100   47.3040 C   0  0  0  0  0  0  0  0  0  0  0  0
   57.3890   23.3510   48.0660 O   0  0  0  0  0  0  0  0  0  0  0  0
   55.8700   24.8700   47.2770 N   0  0  0  0  0  0  0  0  0  0  0  0
   56.0080   25.8330   46.3530 C   0  0  0  0  0  0  0  0  0  0  0  0
   54.9940   26.7120   45.9940 O   0  0  0  0  0  0  0  0  0  0  0  0
   56.3810   28.6320   44.6730 N   0  0  0  0  0  0  0  0  0  0  0  0
   56.5010   29.9590   44.8570 C   0  0  0  0  0  0  0  0  0  0  0  0
   55.5400   30.7580   44.6980 O   0  0  0  0  0  0  0  0  0  0  0  0
   57.7440   30.3470   45.2020 N   0  0  0  0  0  0  0  0  0  0  0  0
   58.1810   31.7060   45.3830 C   0  0  0  0  0  0  0  0  0  0  0  0
   58.0860   32.6330   44.3330 C   0  0  0  0  0  0  0  0  0  0  0  0
   57.6907   32.3164   43.3565 H   0  0  0  0  0  0  0  0  0  0  0  0
   58.4920   33.9570   44.5240 C   0  0  0  0  0  0  0  0  0  0  0  0
   58.4224   34.6777   43.6959 H   0  0  0  0  0  0  0  0  0  0  0  0
   58.9860   34.3660   45.7650 C   0  0  0  0  0  0  0  0  0  0  0  0
   59.3099   35.4069   45.9117 H   0  0  0  0  0  0  0  0  0  0  0  0
   59.0690   33.4530   46.8210 C   0  0  0  0  0  0  0  0  0  0  0  0
   59.6820   33.9690   48.3820 Cl  0  0  0  0  0  0  0  0  0  0  0  0
   58.6640   32.1270   46.6320 C   0  0  0  0  0  0  0  0  0  0  0  0
   58.7244   31.4117   47.4655 H   0  0  0  0  0  0  0  0  0  0  0  0
  1  2  1  0
  2  3  1  0
  2  4  2  0
  4  5  1  0
  5  6  2  0
  6  7  1  0
  6  8  1  0
  8  9  1  0
  9 10  1  0
 10 11  2  0
 10 12  1  0
 12 13  1  0
 13 14  1  0
  5 15  1  0
 15 16  1  0
 16 17  2  0
 16 18  1  0
 18 19  1  0
 19 20  2  0
 20 21  1  0
 20 22  1  0
 22 23  1  0
 22 24  2  0
 24 25  1  0
 24 26  1  0
 26 27  1  0
 26 28  2  0
 28 29  1  0
 18  4  1  0
 28 19  1  0
 13  8  2  0
M  CHG  4   9  -1  12  -1  14  -1  15  -1
M  END
>  <UniqueID>  (13) 
10

>  <SMILES>  (13) 
C=c1/c(=C\c2[n-]c(=O)[n-]c2[O-])[n-]c(=O)n1-c1cccc(Cl)c1

>  <Energy>  (13) 
112.07434620358242

>  <Genealogy>  (13) 
C=c1c(=Cc2[n-]c(=O)[n-]c2[O-])[n-]c(=O)n1-c1cccc(Cl)c1 (protonated)
C=c1/c(=C\c2[n-]c(=O)[n-]c2[O-])[n-]c(=O)n1-c1cccc(Cl)c1 (cis-trans isomerization)
C=c1/c(=C\c2[n-]c(=O)[n-]c2[O-])[n-]c(=O)n1-c1cccc(Cl)c1 (3D coordinates assigned)
C=c1/c(=C\c2[n-]c(=O)[n-]c2[O-])[n-]c(=O)n1-c1cccc(Cl)c1 (optimized conformer: 112.07434620358242 kcal/mol)

>  <smiles>  (13) 
C=c1c(=Cc2[nH]c(=O)[nH]c2O)[nH]c(=O)n1-c1cccc(Cl)c1

>  <score_type>  (13) 
oracle

>  <origin>  (13) 
adg

>  <m_score__min__energy>  (13) 
-17.02

>  <m_primary>  (13) 
energy

$$$$
13:0
     RDKit          3D

 62 65  0  0  0  0  0  0  0  0999 V2000
   59.7685   33.3115   50.6370 H   0  0  0  0  0  0  0  0  0  0  0  0
   60.7890   33.2880   50.2270 C   0  0  0  0  0  0  0  0  0  0  0  0
   61.7060   34.2040   50.6360 N   0  0  0  0  0  0  0  0  0  0  0  0
   62.9750   34.2070   50.1490 C   0  0  0  0  0  0  0  0  0  0  0  0
   63.6949   34.9610   50.5002 H   0  0  0  0  0  0  0  0  0  0  0  0
   63.3690   33.2550   49.2030 C   0  0  0  0  0  0  0  0  0  0  0  0
   64.3934   33.2612   48.8024 H   0  0  0  0  0  0  0  0  0  0  0  0
   62.4450   32.2920   48.7700 C   0  0  0  0  0  0  0  0  0  0  0  0
   62.8410   31.2790   47.7310 C   0  0  0  0  0  0  0  0  0  0  0  0
   63.1566   30.3508   48.2298 H   0  0  0  0  0  0  0  0  0  0  0  0
   63.6704   31.6834   47.1323 H   0  0  0  0  0  0  0  0  0  0  0  0
   61.7120   30.9940   46.8510 N   0  0  0  0  0  0  0  0  0  0  0  0
   61.5920   31.5870   45.9970 H   0  0  0  0  0  0  0  0  0  0  0  0
   60.7810   29.9320   47.1140 C   0  0  0  0  0  0  0  0  0  0  0  0
   61.0890   29.0230   47.9350 O   0  0  0  0  0  0  0  0  0  0  0  0
   59.4750   29.8670   46.4140 C   0  0  0  0  0  0  0  0  0  0  0  0
   59.0900   30.9180   45.5690 C   0  0  0  0  0  0  0  0  0  0  0  0
   59.7483   31.7898   45.4401 H   0  0  0  0  0  0  0  0  0  0  0  0
   57.8680   30.8570   44.8900 C   0  0  0  0  0  0  0  0  0  0  0  0
   57.4340   31.9970   44.0010 C   0  0  0  0  0  0  0  0  0  0  0  0
   58.0242   31.9597   43.0735 H   0  0  0  0  0  0  0  0  0  0  0  0
   56.3572   31.8710   43.8148 H   0  0  0  0  0  0  0  0  0  0  0  0
   57.6250   33.3900   44.6480 C   0  0  2  0  0  0  0  0  0  0  0  0
   57.0878   34.1212   44.0261 H   0  0  0  0  0  0  0  0  0  0  0  0
   59.1190   33.8180   44.6650 C   0  0  0  0  0  0  0  0  0  0  0  0
   59.3767   34.2563   43.6895 H   0  0  0  0  0  0  0  0  0  0  0  0
   59.7316   32.9271   44.8673 H   0  0  0  0  0  0  0  0  0  0  0  0
   59.3820   34.8080   45.7180 N   0  0  0  0  0  0  0  0  0  0  0  0
   58.7100   35.6070   45.6020 H   0  0  0  0  0  0  0  0  0  0  0  0
   59.2100   34.2310   47.0650 C   0  0  0  0  0  0  0  0  0  0  0  0
   58.9859   35.0477   47.7670 H   0  0  0  0  0  0  0  0  0  0  0  0
   60.1460   33.7097   47.3144 H   0  0  0  0  0  0  0  0  0  0  0  0
   58.0720   33.1860   47.1510 C   0  0  0  0  0  0  0  0  0  0  0  0
   57.5985   33.2529   48.1416 H   0  0  0  0  0  0  0  0  0  0  0  0
   58.5055   32.1875   46.9929 H   0  0  0  0  0  0  0  0  0  0  0  0
   57.0090   33.4280   46.0720 C   0  0  0  0  0  0  0  0  0  0  0  0
   56.5504   34.4142   46.2369 H   0  0  0  0  0  0  0  0  0  0  0  0
   56.2562   32.6291   46.1438 H   0  0  0  0  0  0  0  0  0  0  0  0
   57.0420   29.7960   45.0930 N   0  0  0  0  0  0  0  0  0  0  0  0
   57.3670   28.7480   45.8980 C   0  0  0  0  0  0  0  0  0  0  0  0
   56.5110   27.7680   45.9980 N   0  0  0  0  0  0  0  0  0  0  0  0
   56.6890   26.4090   45.5750 C   0  0  0  0  0  0  0  0  0  0  0  0
   57.6090   26.0880   44.5660 C   0  0  0  0  0  0  0  0  0  0  0  0
   58.2079   26.8826   44.0969 H   0  0  0  0  0  0  0  0  0  0  0  0
   57.7670   24.7620   44.1550 C   0  0  0  0  0  0  0  0  0  0  0  0
   58.4757   24.5190   43.3496 H   0  0  0  0  0  0  0  0  0  0  0  0
   57.0270   23.7410   44.7640 C   0  0  0  0  0  0  0  0  0  0  0  0
   57.1830   22.0810   44.1980 S   0  0  0  0  0  0  0  0  0  0  0  0
   58.5890   21.8260   43.7360 O   0  0  0  0  0  0  0  0  0  0  0  0
   56.2470   21.8500   43.0470 O   0  0  0  0  0  0  0  0  0  0  0  0
   56.7800   20.9680   45.5230 C   0  0  0  0  0  0  0  0  0  0  0  0
   56.9601   21.4655   46.4874 H   0  0  0  0  0  0  0  0  0  0  0  0
   55.7207   20.6805   45.4510 H   0  0  0  0  0  0  0  0  0  0  0  0
   57.4097   20.0689   45.4510 H   0  0  0  0  0  0  0  0  0  0  0  0
   56.1260   24.0580   45.7920 C   0  0  0  0  0  0  0  0  0  0  0  0
   55.5387   23.2614   46.2720 H   0  0  0  0  0  0  0  0  0  0  0  0
   55.9730   25.3860   46.2080 C   0  0  0  0  0  0  0  0  0  0  0  0
   55.2882   25.6263   47.0346 H   0  0  0  0  0  0  0  0  0  0  0  0
   58.6230   28.7530   46.5530 C   0  0  0  0  0  0  0  0  0  0  0  0
   59.0670   27.6590   47.2230 F   0  0  0  0  0  0  0  0  0  0  0  0
   61.1410   32.3160   49.2860 C   0  0  0  0  0  0  0  0  0  0  0  0
   60.4000   31.5747   48.9523 H   0  0  0  0  0  0  0  0  0  0  0  0
  1  2  1  0
  2  3  2  0
  3  4  1  0
  4  5  1  0
  4  6  2  0
  6  7  1  0
  6  8  1  0
  8  9  1  0
  9 10  1  0
  9 11  1  0
  9 12  1  0
 12 13  1  0
 12 14  1  0
 14 15  2  0
 14 16  1  0
 16 17  1  0
 17 18  1  0
 17 19  2  0
 19 20  1  0
 20 21  1  0
 20 22  1  0
 20 23  1  0
 23 24  1  6
 23 25  1  0
 25 26  1  0
 25 27  1  0
 25 28  1  0
 28 29  1  0
 28 30  1  0
 30 31  1  0
 30 32  1  0
 30 33  1  0
 33 34  1  0
 33 35  1  0
 33 36  1  0
 36 37  1  0
 36 38  1  0
 19 39  1  0
 39 40  1  0
 40 41  2  0
 41 42  1  0
 42 43  2  0
 43 44  1  0
 43 45  1  0
 45 46  1  0
 45 47  2  0
 47 48  1  0
 48 49  2  0
 48 50  2  0
 48 51  1  0
 51 52  1  0
 51 53  1  0
 51 54  1  0
 47 55  1  0
 55 56  1  0
 55 57  2  0
 57 58  1  0
 40 59  1  0
 59 60  1  0
  8 61  2  0
 61 62  1  0
 61  2  1  0
 59 16  2  0
 36 23  1  0
 57 42  1  0
M  CHG  1  39  -1
M  END
>  <UniqueID>  (14) 
11

>  <SMILES>  (14) 
CS(=O)(=O)c1ccc(/N=c2/[n-]c(C[C@H]3CCCNC3)cc(C(=O)NCc3ccncc3)c2F)cc1

>  <Energy>  (14) 
80.51780981448475

>  <Genealogy>  (14) 
CS(=O)(=O)c1ccc(N=c2[n-]c(CC3CCCNC3)cc(C(=O)NCc3ccncc3)c2F)cc1 (protonated)
CS(=O)(=O)c1ccc(N=c2[n-]c(C[C@H]3CCCNC3)cc(C(=O)NCc3ccncc3)c2F)cc1 (chirality)
CS(=O)(=O)c1ccc(/N=c2/[n-]c(C[C@H]3CCCNC3)cc(C(=O)NCc3ccncc3)c2F)cc1 (cis-trans isomerization)
CS(=O)(=O)c1ccc(/N=c2/[n-]c(C[C@H]3CCCNC3)cc(C(=O)NCc3ccncc3)c2F)cc1 (3D coordinates assigned)
CS(=O)(=O)c1ccc(/N=c2/[n-]c(C[C@H]3CCCNC3)cc(C(=O)NCc3ccncc3)c2F)cc1 (nonaromatic ring conformer: 80.51780981448475 kcal/mol)

>  <smiles>  (14) 
CS(=O)(=O)c1ccc(N=c2[nH]c(CC3CCCNC3)cc(C(=O)NCc3ccncc3)c2F)cc1

>  <score_type>  (14) 
oracle

>  <origin>  (14) 
adg

>  <m_score__min__energy>  (14) 
-10.869999999999999

>  <m_primary>  (14) 
energy

$$$$
14:0
     RDKit          3D

 67 71  0  0  0  0  0  0  0  0999 V2000
   51.3120   26.1310   54.7820 C   0  0  0  0  0  0  0  0  0  0  0  0
   51.9570   26.9510   53.7570 N   0  0  0  0  0  0  0  0  0  0  0  0
   53.3910   26.8560   53.4970 C   0  0  0  0  0  0  0  0  0  0  0  0
   54.0140   28.2510   53.5470 C   0  0  0  0  0  0  0  0  0  0  0  0
   53.2920   29.2140   52.6890 N   0  0  0  0  0  0  0  0  0  0  0  0
   53.9280   30.4830   52.4100 C   0  0  0  0  0  0  0  0  0  0  0  0
   53.2620   31.4270   51.9000 O   0  0  0  0  0  0  0  0  0  0  0  0
   55.3620   30.6960   52.6480 C   0  0  0  0  0  0  0  0  0  0  0  0
   55.8670   30.7380   53.9540 C   0  0  0  0  0  0  0  0  0  0  0  0
   57.2360   30.9270   54.1680 C   0  0  0  0  0  0  0  0  0  0  0  0
   58.1070   31.0630   53.0820 C   0  0  0  0  0  0  0  0  0  0  0  0
   57.6150   31.0020   51.7670 C   0  0  0  0  0  0  0  0  0  0  0  0
   58.5300   31.0600   50.6040 C   0  0  0  0  0  0  0  0  0  0  0  0
   59.3840   30.1440   50.4510 O   0  0  0  0  0  0  0  0  0  0  0  0
   58.4490   32.1270   49.6450 N   0  0  0  0  0  0  0  0  0  0  0  0
   59.4730   32.3480   48.6580 C   0  0  0  0  0  0  0  0  0  0  0  0
   60.6570   32.0030   48.9140 O   0  0  0  0  0  0  0  0  0  0  0  0
   59.1720   32.9900   47.3510 C   0  0  0  0  0  0  0  0  0  0  0  0
   59.3500   34.3720   47.1540 C   0  0  0  0  0  0  0  0  0  0  0  0
   59.0350   34.9600   45.9250 C   0  0  0  0  0  0  0  0  0  0  0  0
   58.5290   34.1820   44.8830 C   0  0  0  0  0  0  0  0  0  0  0  0
   58.3350   32.8050   45.0580 C   0  0  0  0  0  0  0  0  0  0  0  0
   57.7550   31.9730   43.9440 C   0  0  0  0  0  0  0  0  0  0  0  0
   57.3060   30.6220   44.4420 C   0  0  0  0  0  0  0  0  0  0  0  0
   55.9710   30.3730   44.4780 N   0  0  0  0  0  0  0  0  0  0  0  0
   55.4790   29.2020   44.8740 N   0  0  0  0  0  0  0  0  0  0  0  0
   56.2870   28.1810   45.2470 C   0  0  0  0  0  0  0  0  0  0  0  0
   55.7720   27.0920   45.6170 O   0  0  0  0  0  0  0  0  0  0  0  0
   57.6790   28.3490   45.2190 C   0  0  0  0  0  0  0  0  0  0  0  0
   58.2130   29.6080   44.8440 C   0  0  0  0  0  0  0  0  0  0  0  0
   59.6480   29.8090   44.7380 N   0  0  0  0  0  0  0  0  0  0  0  0
   60.4280   28.8850   45.5730 C   0  0  0  0  0  0  0  0  0  0  0  0
   60.0310   27.4380   45.2910 C   0  0  0  0  0  0  0  0  0  0  0  0
   58.5740   27.2230   45.6870 C   0  0  0  0  0  0  0  0  0  0  0  0
   58.6590   32.2160   46.2920 C   0  0  0  0  0  0  0  0  0  0  0  0
   56.2340   30.8270   51.5610 C   0  0  0  0  0  0  0  0  0  0  0  0
   51.9280   28.9470   52.1870 C   0  0  0  0  0  0  0  0  0  0  0  0
   51.2090   27.9230   53.0200 C   0  0  0  0  0  0  0  0  0  0  0  0
   49.9490   27.9160   53.0510 O   0  0  0  0  0  0  0  0  0  0  0  0
   51.5997   26.4967   55.7788 H   0  0  0  0  0  0  0  0  0  0  0  0
   50.2197   26.1951   54.6691 H   0  0  0  0  0  0  0  0  0  0  0  0
   51.6315   25.0845   54.6691 H   0  0  0  0  0  0  0  0  0  0  0  0
   53.8601   26.2179   54.2604 H   0  0  0  0  0  0  0  0  0  0  0  0
   53.5538   26.4184   52.5010 H   0  0  0  0  0  0  0  0  0  0  0  0
   53.9894   28.6134   54.5853 H   0  0  0  0  0  0  0  0  0  0  0  0
   55.0464   28.1742   53.1752 H   0  0  0  0  0  0  0  0  0  0  0  0
   55.1870   30.6224   54.8108 H   0  0  0  0  0  0  0  0  0  0  0  0
   57.6294   30.9689   55.1944 H   0  0  0  0  0  0  0  0  0  0  0  0
   59.1817   31.2184   53.2580 H   0  0  0  0  0  0  0  0  0  0  0  0
   57.6080   32.7460   49.6550 H   0  0  0  0  0  0  0  0  0  0  0  0
   59.7398   34.9944   47.9729 H   0  0  0  0  0  0  0  0  0  0  0  0
   59.1866   36.0397   45.7791 H   0  0  0  0  0  0  0  0  0  0  0  0
   58.2812   34.6516   43.9197 H   0  0  0  0  0  0  0  0  0  0  0  0
   56.8909   32.5016   43.5152 H   0  0  0  0  0  0  0  0  0  0  0  0
   58.5355   31.8198   43.1841 H   0  0  0  0  0  0  0  0  0  0  0  0
   59.9030   30.7760   45.0400 H   0  0  0  0  0  0  0  0  0  0  0  0
   59.9260   29.6860   43.7380 H   0  0  0  0  0  0  0  0  0  0  0  0
   61.4980   29.0154   45.3535 H   0  0  0  0  0  0  0  0  0  0  0  0
   60.2260   29.1077   46.6311 H   0  0  0  0  0  0  0  0  0  0  0  0
   60.1543   27.2265   44.2186 H   0  0  0  0  0  0  0  0  0  0  0  0
   60.6728   26.7618   45.8748 H   0  0  0  0  0  0  0  0  0  0  0  0
   58.2213   26.2818   45.2400 H   0  0  0  0  0  0  0  0  0  0  0  0
   58.5256   27.1894   46.7854 H   0  0  0  0  0  0  0  0  0  0  0  0
   58.5099   31.1353   46.4329 H   0  0  0  0  0  0  0  0  0  0  0  0
   55.8360   30.7928   50.5361 H   0  0  0  0  0  0  0  0  0  0  0  0
   51.3537   29.8850   52.2045 H   0  0  0  0  0  0  0  0  0  0  0  0
   52.0150   28.5511   51.1644 H   0  0  0  0  0  0  0  0  0  0  0  0
  1  2  1  0
  2  3  1  0
  3  4  1  0
  4  5  1  0
  5  6  1  0
  6  7  2  0
  6  8  1  0
  8  9  2  0
  9 10  1  0
 10 11  2  0
 11 12  1  0
 12 13  1  0
 13 14  2  0
 13 15  1  0
 15 16  1  0
 16 17  2  0
 16 18  1  0
 18 19  2  0
 19 20  1  0
 20 21  2  0
 21 22  1  0
 22 23  1  0
 23 24  1  0
 24 25  2  0
 25 26  1  0
 26 27  1  0
 27 28  2  0
 27 29  1  0
 29 30  2  0
 30 31  1  0
 31 32  1  0
 32 33  1  0
 33 34  1  0
 22 35  2  0
 12 36  2  0
  5 37  1  0
 37 38  1  0
 38 39  2  0
 38  2  1  0
 36  8  1  0
 35 18  1  0
 30 24  1  0
 34 29  1  0
  1 40  1  0
  1 41  1  0
  1 42  1  0
  3 43  1  0
  3 44  1  0
  4 45  1  0
  4 46  1  0
  9 47  1  0
 10 48  1  0
 11 49  1  0
 15 50  1  0
 19 51  1  0
 20 52  1  0
 21 53  1  0
 23 54  1  0
 23 55  1  0
 31 56  1  0
 31 57  1  0
 32 58  1  0
 32 59  1  0
 33 60  1  0
 33 61  1  0
 34 62  1  0
 34 63  1  0
 35 64  1  0
 36 65  1  0
 37 66  1  0
 37 67  1  0
M  CHG  2  26  -1  31   1
M  END
>  <UniqueID>  (15) 
12

>  <SMILES>  (15) 
CN1CCN(C(=O)c2cccc(C(=O)NC(=O)c3cccc(Cc4n[n-]c(=O)c5c4[NH2+]CCC5)c3)c2)CC1=O

>  <Energy>  (15) 
88.69880041138626

>  <Genealogy>  (15) 
CN1CCN(C(=O)c2cccc(C(=O)NC(=O)c3cccc(Cc4n[n-]c(=O)c5c4[NH2+]CCC5)c3)c2)CC1=O (protonated)
CN1CCN(C(=O)c2cccc(C(=O)NC(=O)c3cccc(Cc4n[n-]c(=O)c5c4[NH2+]CCC5)c3)c2)CC1=O (3D coordinates assigned)
CN1CCN(C(=O)c2cccc(C(=O)NC(=O)c3cccc(Cc4n[n-]c(=O)c5c4[NH2+]CCC5)c3)c2)CC1=O (nonaromatic ring conformer: 88.69880041138626 kcal/mol)

>  <smiles>  (15) 
CN1CCN(C(=O)c2cccc(C(=O)NC(=O)c3cccc(Cc4n[nH]c(=O)c5c4NCCC5)c3)c2)CC1=O

>  <score_type>  (15) 
oracle

>  <origin>  (15) 
adg

>  <m_score__min__energy>  (15) 
-12.66

>  <m_primary>  (15) 
energy

$$$$
15:0
     RDKit          3D

 46 48  0  0  0  0  0  0  0  0999 V2000
   64.5330   32.0890   47.2970 H   0  0  0  0  0  0  0  0  0  0  0  0
   64.0820   32.4370   48.1730 N   0  0  0  0  0  0  0  0  0  0  0  0
   63.0210   33.7220   47.7180 S   0  0  0  0  0  0  0  0  0  0  0  0
   62.7610   34.6050   48.9070 O   0  0  0  0  0  0  0  0  0  0  0  0
   63.6680   34.5450   46.6400 O   0  0  0  0  0  0  0  0  0  0  0  0
   61.5030   33.0520   47.1310 C   0  0  0  0  0  0  0  0  0  0  0  0
   60.5610   33.8810   46.5060 C   0  0  0  0  0  0  0  0  0  0  0  0
   60.7658   34.9559   46.3936 H   0  0  0  0  0  0  0  0  0  0  0  0
   59.3620   33.3460   46.0250 C   0  0  0  0  0  0  0  0  0  0  0  0
   58.6285   34.0009   45.5320 H   0  0  0  0  0  0  0  0  0  0  0  0
   59.0910   31.9760   46.1690 C   0  0  0  0  0  0  0  0  0  0  0  0
   57.8150   31.3920   45.6180 C   0  0  0  0  0  0  0  0  0  0  0  0
   57.0779   31.3120   46.4306 H   0  0  0  0  0  0  0  0  0  0  0  0
   57.4469   32.0547   44.8209 H   0  0  0  0  0  0  0  0  0  0  0  0
   58.0500   29.9990   45.0180 C   0  0  0  0  0  0  0  0  0  0  0  0
   57.1720   29.7142   44.4197 H   0  0  0  0  0  0  0  0  0  0  0  0
   58.9529   30.0399   44.3911 H   0  0  0  0  0  0  0  0  0  0  0  0
   58.2600   28.9950   46.0640 N   0  0  0  0  0  0  0  0  0  0  0  0
   57.7740   27.7890   46.1820 C   0  0  0  0  0  0  0  0  0  0  0  0
   56.4520   27.6190   45.9090 N   0  0  0  0  0  0  0  0  0  0  0  0
   55.8290   26.4140   45.9730 C   0  0  0  0  0  0  0  0  0  0  0  0
   54.4730   26.3390   45.6780 O   0  0  0  0  0  0  0  0  0  0  0  0
   56.5530   25.2680   46.3380 C   0  0  0  0  0  0  0  0  0  0  0  0
   55.9120   23.9030   46.3850 C   0  0  0  0  0  0  0  0  0  0  0  0
   56.1559   23.4218   47.3436 H   0  0  0  0  0  0  0  0  0  0  0  0
   54.8228   24.0189   46.2838 H   0  0  0  0  0  0  0  0  0  0  0  0
   56.4170   23.0400   45.2540 C   0  0  0  0  0  0  0  0  0  0  0  0
   57.5660   22.2520   45.4400 C   0  0  0  0  0  0  0  0  0  0  0  0
   58.0737   22.2482   46.4158 H   0  0  0  0  0  0  0  0  0  0  0  0
   58.0680   21.4730   44.3930 C   0  0  0  0  0  0  0  0  0  0  0  0
   58.9648   20.8554   44.5489 H   0  0  0  0  0  0  0  0  0  0  0  0
   57.4330   21.4780   43.1510 C   0  0  0  0  0  0  0  0  0  0  0  0
   57.8301   20.8648   42.3286 H   0  0  0  0  0  0  0  0  0  0  0  0
   56.2930   22.2610   42.9500 C   0  0  0  0  0  0  0  0  0  0  0  0
   55.7946   22.2617   41.9694 H   0  0  0  0  0  0  0  0  0  0  0  0
   55.7820   23.0460   43.9940 C   0  0  0  0  0  0  0  0  0  0  0  0
   54.6460   23.8260   43.7810 O   0  0  0  0  0  0  0  0  0  0  0  0
   54.5360   24.7350   44.2130 H   0  0  0  0  0  0  0  0  0  0  0  0
   57.9140   25.4090   46.6390 C   0  0  0  0  0  0  0  0  0  0  0  0
   58.5006   24.5254   46.9307 H   0  0  0  0  0  0  0  0  0  0  0  0
   58.5350   26.6590   46.5730 C   0  0  0  0  0  0  0  0  0  0  0  0
   59.8810   26.7380   46.9100 O   0  0  0  0  0  0  0  0  0  0  0  0
   60.0440   31.1450   46.7800 C   0  0  0  0  0  0  0  0  0  0  0  0
   59.8466   30.0677   46.8826 H   0  0  0  0  0  0  0  0  0  0  0  0
   61.2420   31.6820   47.2580 C   0  0  0  0  0  0  0  0  0  0  0  0
   61.9837   31.0255   47.7364 H   0  0  0  0  0  0  0  0  0  0  0  0
  1  2  1  0
  2  3  1  0
  3  4  2  0
  3  5  2  0
  3  6  1  0
  6  7  2  0
  7  8  1  0
  7  9  1  0
  9 10  1  0
  9 11  2  0
 11 12  1  0
 12 13  1  0
 12 14  1  0
 12 15  1  0
 15 16  1  0
 15 17  1  0
 15 18  1  0
 18 19  2  0
 19 20  1  0
 20 21  1  0
 21 22  1  0
 21 23  2  0
 23 24  1  0
 24 25  1  0
 24 26  1  0
 24 27  1  0
 27 28  2  0
 28 29  1  0
 28 30  1  0
 30 31  1  0
 30 32  2  0
 32 33  1  0
 32 34  1  0
 34 35  1  0
 34 36  2  0
 36 37  1  0
 37 38  1  0
 23 39  1  0
 39 40  1  0
 39 41  2  0
 41 42  1  0
 11 43  1  0
 43 44  1  0
 43 45  2  0
 45 46  1  0
 45  6  1  0
 41 19  1  0
 36 27  1  0
M  CHG  4   2  -1  20  -1  22  -1  42  -1
M  END
>  <UniqueID>  (16) 
13

>  <SMILES>  (16) 
[NH-]S(=O)(=O)c1ccc(CC/N=c2/[n-]c([O-])c(Cc3ccccc3O)cc2[O-])cc1

>  <Energy>  (16) 
52.55874307473585

>  <Genealogy>  (16) 
[NH-]S(=O)(=O)c1ccc(CCN=c2[n-]c([O-])c(Cc3ccccc3O)cc2[O-])cc1 (protonated)
[NH-]S(=O)(=O)c1ccc(CC/N=c2/[n-]c([O-])c(Cc3ccccc3O)cc2[O-])cc1 (cis-trans isomerization)
[NH-]S(=O)(=O)c1ccc(CC/N=c2/[n-]c([O-])c(Cc3ccccc3O)cc2[O-])cc1 (3D coordinates assigned)
[NH-]S(=O)(=O)c1ccc(CC/N=c2/[n-]c([O-])c(Cc3ccccc3O)cc2[O-])cc1 (optimized conformer: 52.55874307473585 kcal/mol)

>  <smiles>  (16) 
NS(=O)(=O)c1ccc(CCN=c2[nH]c(O)c(Cc3ccccc3O)cc2O)cc1

>  <score_type>  (16) 
oracle

>  <origin>  (16) 
adg

>  <m_score__min__energy>  (16) 
-16.280000000000001

>  <m_primary>  (16) 
energy

$$$$
16:0
     RDKit          3D

 50 53  0  0  0  0  0  0  0  0999 V2000
   64.3190   33.1027   46.4651 H   0  0  0  0  0  0  0  0  0  0  0  0
   63.3820   33.2900   47.0100 C   0  0  0  0  0  0  0  0  0  0  0  0
   62.3760   34.0480   46.5000 N   0  0  0  0  0  0  0  0  0  0  0  0
   61.3410   34.1450   47.3660 C   0  0  0  0  0  0  0  0  0  0  0  0
   60.2410   34.7910   47.1170 N   0  0  0  0  0  0  0  0  0  0  0  0
   59.5080   34.7410   45.8830 C   0  0  0  0  0  0  0  0  0  0  0  0
   59.5480   35.7410   45.1160 O   0  0  0  0  0  0  0  0  0  0  0  0
   58.7570   33.5350   45.4610 C   0  0  0  0  0  0  0  0  0  0  0  0
   58.4740   32.5070   46.3770 C   0  0  0  0  0  0  0  0  0  0  0  0
   58.8072   32.5983   47.4213 H   0  0  0  0  0  0  0  0  0  0  0  0
   57.7720   31.3700   45.9690 C   0  0  0  0  0  0  0  0  0  0  0  0
   57.5547   30.5706   46.6927 H   0  0  0  0  0  0  0  0  0  0  0  0
   57.3440   31.2450   44.6410 C   0  0  0  0  0  0  0  0  0  0  0  0
   56.4670   29.8120   44.1060 S   0  0  0  0  0  0  0  0  0  0  0  0
   55.1490   29.7200   44.8250 O   0  0  0  0  0  0  0  0  0  0  0  0
   56.2080   29.9220   42.6280 O   0  0  0  0  0  0  0  0  0  0  0  0
   57.4300   28.3900   44.4290 N   0  0  0  0  0  0  0  0  0  0  0  0
   57.0700   27.5990   43.8410 H   0  0  0  0  0  0  0  0  0  0  0  0
   57.3780   28.0020   45.8410 C   0  0  0  0  0  0  0  0  0  0  0  0
   57.3144   28.8960   46.4787 H   0  0  0  0  0  0  0  0  0  0  0  0
   56.4943   27.3814   46.0509 H   0  0  0  0  0  0  0  0  0  0  0  0
   58.6670   27.2410   46.1280 C   0  0  0  0  0  0  0  0  0  0  0  0
   59.0597   27.5088   47.1200 H   0  0  0  0  0  0  0  0  0  0  0  0
   58.5083   26.1525   46.1316 H   0  0  0  0  0  0  0  0  0  0  0  0
   59.6380   27.6690   45.0370 C   0  0  0  0  0  0  0  0  0  0  0  0
   60.5021   28.1904   45.4746 H   0  0  0  0  0  0  0  0  0  0  0  0
   60.0320   26.8058   44.4805 H   0  0  0  0  0  0  0  0  0  0  0  0
   58.8480   28.6120   44.1330 C   0  0  0  0  0  0  0  0  0  0  0  0
   59.1204   29.6566   44.3445 H   0  0  0  0  0  0  0  0  0  0  0  0
   59.0658   28.4180   43.0724 H   0  0  0  0  0  0  0  0  0  0  0  0
   57.6350   32.2590   43.7210 C   0  0  0  0  0  0  0  0  0  0  0  0
   57.3020   32.1640   42.6769 H   0  0  0  0  0  0  0  0  0  0  0  0
   58.3480   33.3930   44.1250 C   0  0  0  0  0  0  0  0  0  0  0  0
   58.5894   34.1773   43.3925 H   0  0  0  0  0  0  0  0  0  0  0  0
   61.6150   33.2920   48.7860 S   0  0  0  0  0  0  0  0  0  0  0  0
   63.1330   32.7700   48.2750 C   0  0  0  0  0  0  0  0  0  0  0  0
   64.0880   31.9600   49.0910 C   0  0  0  0  0  0  0  0  0  0  0  0
   63.5260   31.2225   49.6828 H   0  0  0  0  0  0  0  0  0  0  0  0
   64.7889   31.4446   48.4179 H   0  0  0  0  0  0  0  0  0  0  0  0
   64.8640   32.8540   50.0180 C   0  0  0  0  0  0  0  0  0  0  0  0
   66.2680   32.7790   50.0720 C   0  0  0  0  0  0  0  0  0  0  0  0
   66.8046   32.0759   49.4180 H   0  0  0  0  0  0  0  0  0  0  0  0
   66.9840   33.5950   50.9540 C   0  0  0  0  0  0  0  0  0  0  0  0
   68.0819   33.5366   50.9877 H   0  0  0  0  0  0  0  0  0  0  0  0
   66.3060   34.4850   51.7930 C   0  0  0  0  0  0  0  0  0  0  0  0
   66.8699   35.1210   52.4912 H   0  0  0  0  0  0  0  0  0  0  0  0
   64.9110   34.5660   51.7440 C   0  0  0  0  0  0  0  0  0  0  0  0
   64.3787   35.2711   52.3994 H   0  0  0  0  0  0  0  0  0  0  0  0
   64.1910   33.7520   50.8630 C   0  0  0  0  0  0  0  0  0  0  0  0
   63.0933   33.8154   50.8318 H   0  0  0  0  0  0  0  0  0  0  0  0
  1  2  1  0
  2  3  1  0
  3  4  1  0
  4  5  2  0
  5  6  1  0
  6  7  2  0
  6  8  1  0
  8  9  2  0
  9 10  1  0
  9 11  1  0
 11 12  1  0
 11 13  2  0
 13 14  1  0
 14 15  2  0
 14 16  2  0
 14 17  1  0
 17 18  1  0
 17 19  1  0
 19 20  1  0
 19 21  1  0
 19 22  1  0
 22 23  1  0
 22 24  1  0
 22 25  1  0
 25 26  1  0
 25 27  1  0
 25 28  1  0
 28 29  1  0
 28 30  1  0
 13 31  1  0
 31 32  1  0
 31 33  2  0
 33 34  1  0
  4 35  1  0
 35 36  1  0
 36 37  1  0
 37 38  1  0
 37 39  1  0
 37 40  1  0
 40 41  2  0
 41 42  1  0
 41 43  1  0
 43 44  1  0
 43 45  2  0
 45 46  1  0
 45 47  1  0
 47 48  1  0
 47 49  2  0
 49 50  1  0
 36  2  2  0
 49 40  1  0
 33  8  1  0
 28 17  1  0
M  CHG  2   3  -1  17   1
M  END
>  <UniqueID>  (17) 
14

>  <SMILES>  (17) 
O=C(/N=c1\[n-]cc(Cc2ccccc2)s1)c1ccc(S(=O)(=O)[NH+]2CCCC2)cc1

>  <Energy>  (17) 
89.43667261260697

>  <Genealogy>  (17) 
O=C(N=c1[n-]cc(Cc2ccccc2)s1)c1ccc(S(=O)(=O)[NH+]2CCCC2)cc1 (protonated)
O=C(/N=c1\[n-]cc(Cc2ccccc2)s1)c1ccc(S(=O)(=O)[NH+]2CCCC2)cc1 (cis-trans isomerization)
O=C(/N=c1\[n-]cc(Cc2ccccc2)s1)c1ccc(S(=O)(=O)[NH+]2CCCC2)cc1 (3D coordinates assigned)
O=C(/N=c1\[n-]cc(Cc2ccccc2)s1)c1ccc(S(=O)(=O)[NH+]2CCCC2)cc1 (nonaromatic ring conformer: 89.43667261260697 kcal/mol)

>  <smiles>  (17) 
O=C(N=c1[nH]cc(Cc2ccccc2)s1)c1ccc(S(=O)(=O)N2CCCC2)cc1

>  <score_type>  (17) 
oracle

>  <origin>  (17) 
adg

>  <m_score__min__energy>  (17) 
-10.24

>  <m_primary>  (17) 
energy

$$$$
17:0
     RDKit          3D

 63 67  0  0  0  0  0  0  0  0999 V2000
   59.1505   30.8331   44.2839 H   0  0  0  0  0  0  0  0  0  0  0  0
   58.7610   29.8350   44.5330 C   0  0  0  0  0  0  0  0  0  0  0  0
   58.3806   29.1785   43.7365 H   0  0  0  0  0  0  0  0  0  0  0  0
   58.7500   29.4180   45.8090 C   0  0  0  0  0  0  0  0  0  0  0  0
   58.2890   28.1810   46.2850 C   0  0  0  0  0  0  0  0  0  0  0  0
   57.7570   27.1810   45.5500 C   0  0  0  0  0  0  0  0  0  0  0  0
   57.7956   27.2843   44.4555 H   0  0  0  0  0  0  0  0  0  0  0  0
   57.1260   25.9570   46.0940 C   0  0  0  0  0  0  0  0  0  0  0  0
   57.7650   24.8250   46.4380 N   0  0  0  0  0  0  0  0  0  0  0  0
   56.7680   24.0020   46.8250 C   0  0  0  0  0  0  0  0  0  0  0  0
   56.9760   22.8300   47.2300 O   0  0  0  0  0  0  0  0  0  0  0  0
   55.5310   24.5350   46.7400 N   0  0  0  0  0  0  0  0  0  0  0  0
   55.7760   25.7690   46.2720 C   0  0  0  0  0  0  0  0  0  0  0  0
   54.7820   26.7040   46.0120 O   0  0  0  0  0  0  0  0  0  0  0  0
   58.4580   28.2160   47.6680 C   0  0  0  0  0  0  0  0  0  0  0  0
   58.2028   27.4175   48.3802 H   0  0  0  0  0  0  0  0  0  0  0  0
   59.0070   29.4450   47.9720 C   0  0  0  0  0  0  0  0  0  0  0  0
   59.3400   29.9230   49.3530 C   0  0  0  0  0  0  0  0  0  0  0  0
   58.8753   29.2559   50.0939 H   0  0  0  0  0  0  0  0  0  0  0  0
   60.4315   29.9186   49.4893 H   0  0  0  0  0  0  0  0  0  0  0  0
   58.9576   30.9454   49.4893 H   0  0  0  0  0  0  0  0  0  0  0  0
   59.1860   30.1700   46.8490 N   0  0  0  0  0  0  0  0  0  0  0  0
   59.6730   31.5190   46.7990 C   0  0  0  0  0  0  0  0  0  0  0  0
   60.9820   31.8010   47.2080 C   0  0  0  0  0  0  0  0  0  0  0  0
   61.6158   30.9910   47.5982 H   0  0  0  0  0  0  0  0  0  0  0  0
   61.4960   33.1070   47.1260 C   0  0  0  0  0  0  0  0  0  0  0  0
   62.9080   33.3630   47.5280 C   0  0  0  0  0  0  0  0  0  0  0  0
   63.5720   34.2170   46.8730 O   0  0  0  0  0  0  0  0  0  0  0  0
   63.5160   32.6720   48.6550 N   0  0  1  0  0  0  0  0  0  0  0  0
   63.5840   31.6570   48.3990 H   0  0  0  0  0  0  0  0  0  0  0  0
   64.8910   33.1010   48.9510 C   0  0  0  0  0  0  0  0  0  0  0  0
   65.5963   32.6217   48.2562 H   0  0  0  0  0  0  0  0  0  0  0  0
   65.0008   34.1896   48.8373 H   0  0  0  0  0  0  0  0  0  0  0  0
   65.1820   32.6660   50.3770 C   0  0  0  0  0  0  0  0  0  0  0  0
   65.6823   31.6864   50.3866 H   0  0  0  0  0  0  0  0  0  0  0  0
   65.8518   33.3702   50.8922 H   0  0  0  0  0  0  0  0  0  0  0  0
   63.8230   32.5770   51.0540 C   0  0  0  0  0  0  0  0  0  0  0  0
   63.6954   31.5920   51.5268 H   0  0  0  0  0  0  0  0  0  0  0  0
   63.7164   33.3346   51.8444 H   0  0  0  0  0  0  0  0  0  0  0  0
   62.7820   32.7740   49.9420 C   0  0  1  0  0  0  0  0  0  0  0  0
   62.0047   31.9959   49.9620 H   0  0  0  0  0  0  0  0  0  0  0  0
   61.9500   34.0800   50.1390 C   0  0  0  0  0  0  0  0  0  0  0  0
   62.5417   34.7869   50.7392 H   0  0  0  0  0  0  0  0  0  0  0  0
   61.7238   34.4832   49.1409 H   0  0  0  0  0  0  0  0  0  0  0  0
   60.6610   33.8390   50.8260 N   0  0  0  0  0  0  0  0  0  0  0  0
   60.7120   32.7750   51.8400 C   0  0  0  0  0  0  0  0  0  0  0  0
   61.4724   32.0292   51.5652 H   0  0  0  0  0  0  0  0  0  0  0  0
   60.9790   33.1872   52.8243 H   0  0  0  0  0  0  0  0  0  0  0  0
   59.3320   32.1230   51.8830 C   0  0  0  0  0  0  0  0  0  0  0  0
   59.4189   31.0321   51.7714 H   0  0  0  0  0  0  0  0  0  0  0  0
   58.8234   32.3084   52.8406 H   0  0  0  0  0  0  0  0  0  0  0  0
   58.5650   32.7160   50.7150 C   0  0  0  0  0  0  0  0  0  0  0  0
   58.0756   31.9239   50.1293 H   0  0  0  0  0  0  0  0  0  0  0  0
   57.7665   33.3978   51.0429 H   0  0  0  0  0  0  0  0  0  0  0  0
   59.6170   33.4200   49.8870 C   0  0  0  0  0  0  0  0  0  0  0  0
   60.0332   32.7335   49.1350 H   0  0  0  0  0  0  0  0  0  0  0  0
   59.1939   34.2799   49.3470 H   0  0  0  0  0  0  0  0  0  0  0  0
   60.6630   34.1320   46.6400 C   0  0  0  0  0  0  0  0  0  0  0  0
   61.0464   35.1608   46.5727 H   0  0  0  0  0  0  0  0  0  0  0  0
   59.3520   33.8530   46.2420 C   0  0  0  0  0  0  0  0  0  0  0  0
   58.7089   34.6631   45.8676 H   0  0  0  0  0  0  0  0  0  0  0  0
   58.8560   32.5500   46.3180 C   0  0  0  0  0  0  0  0  0  0  0  0
   57.5860   32.2870   45.9190 F   0  0  0  0  0  0  0  0  0  0  0  0
  1  2  1  0
  2  3  1  0
  2  4  2  0
  4  5  1  0
  5  6  2  0
  6  7  1  0
  6  8  1  0
  8  9  1  0
  9 10  1  0
 10 11  2  0
 10 12  1  0
 12 13  1  0
 13 14  1  0
  5 15  1  0
 15 16  1  0
 15 17  2  0
 17 18  1  0
 18 19  1  0
 18 20  1  0
 18 21  1  0
 17 22  1  0
 22 23  1  0
 23 24  2  0
 24 25  1  0
 24 26  1  0
 26 27  1  0
 27 28  2  0
 27 29  1  0
 29 30  1  6
 29 31  1  0
 31 32  1  0
 31 33  1  0
 31 34  1  0
 34 35  1  0
 34 36  1  0
 34 37  1  0
 37 38  1  0
 37 39  1  0
 37 40  1  0
 40 41  1  6
 40 42  1  0
 42 43  1  0
 42 44  1  0
 42 45  1  0
 45 46  1  0
 46 47  1  0
 46 48  1  0
 46 49  1  0
 49 50  1  0
 49 51  1  0
 49 52  1  0
 52 53  1  0
 52 54  1  0
 52 55  1  0
 55 56  1  0
 55 57  1  0
 26 58  2  0
 58 59  1  0
 58 60  1  0
 60 61  1  0
 60 62  2  0
 62 63  1  0
 22  4  1  0
 62 23  1  0
 13  8  2  0
 40 29  1  0
 55 45  1  0
M  CHG  4   9  -1  12  -1  14  -1  29   1
M  END
>  <UniqueID>  (18) 
15

>  <SMILES>  (18) 
C=c1/c(=C/c2[n-]c(=O)[n-]c2[O-])cc(C)n1-c1cc(C(=O)[N@H+]2CCC[C@H]2CN2CCCC2)ccc1F

>  <Energy>  (18) 
150.93761203043118

>  <Genealogy>  (18) 
C=c1c(=Cc2[n-]c(=O)[n-]c2[O-])cc(C)n1-c1cc(C(=O)[NH+]2CCCC2CN2CCCC2)ccc1F (protonated)
C=c1c(=Cc2[n-]c(=O)[n-]c2[O-])cc(C)n1-c1cc(C(=O)[N@H+]2CCC[C@H]2CN2CCCC2)ccc1F (chirality)
C=c1/c(=C/c2[n-]c(=O)[n-]c2[O-])cc(C)n1-c1cc(C(=O)[N@H+]2CCC[C@H]2CN2CCCC2)ccc1F (cis-trans isomerization)
C=c1/c(=C/c2[n-]c(=O)[n-]c2[O-])cc(C)n1-c1cc(C(=O)[N@H+]2CCC[C@H]2CN2CCCC2)ccc1F (3D coordinates assigned)
C=c1/c(=C/c2[n-]c(=O)[n-]c2[O-])cc(C)n1-c1cc(C(=O)[N@H+]2CCC[C@H]2CN2CCCC2)ccc1F (nonaromatic ring conformer: 150.93761203043118 kcal/mol)

>  <smiles>  (18) 
C=c1c(=Cc2[nH]c(=O)[nH]c2O)cc(C)n1-c1cc(C(=O)N2CCCC2CN2CCCC2)ccc1F

>  <score_type>  (18) 
oracle

>  <origin>  (18) 
adg

>  <m_score__min__energy>  (18) 
-16.350000000000001

>  <m_primary>  (18) 
energy

$$$$
18:0
     RDKit          3D

 53 55  0  0  0  0  0  0  0  0999 V2000
   56.3160   25.8002   46.4562 H   0  0  0  0  0  0  0  0  0  0  0  0
   56.7820   26.7930   46.3710 C   0  0  0  0  0  0  0  0  0  0  0  0
   56.2400   27.7280   45.5490 N   0  0  0  0  0  0  0  0  0  0  0  0
   56.7810   28.9730   45.4170 C   0  0  0  0  0  0  0  0  0  0  0  0
   56.2420   29.8660   44.6380 N   0  0  0  0  0  0  0  0  0  0  0  0
   56.7880   30.3740   43.4100 C   0  0  0  0  0  0  0  0  0  0  0  0
   56.2040   30.1880   42.3080 O   0  0  0  0  0  0  0  0  0  0  0  0
   58.0830   31.1270   43.4410 C   0  0  0  0  0  0  0  0  0  0  0  0
   58.6088   30.8939   44.3786 H   0  0  0  0  0  0  0  0  0  0  0  0
   58.6793   30.8209   42.5688 H   0  0  0  0  0  0  0  0  0  0  0  0
   57.8590   32.6400   43.3600 C   0  0  0  0  0  0  0  0  0  0  0  0
   58.4949   33.0517   42.5624 H   0  0  0  0  0  0  0  0  0  0  0  0
   56.7941   32.8167   43.1482 H   0  0  0  0  0  0  0  0  0  0  0  0
   58.1980   33.3270   44.6570 C   0  0  0  0  0  0  0  0  0  0  0  0
   59.2440   34.2630   44.7140 C   0  0  0  0  0  0  0  0  0  0  0  0
   59.8115   34.5064   43.8036 H   0  0  0  0  0  0  0  0  0  0  0  0
   59.5670   34.8870   45.9240 C   0  0  0  0  0  0  0  0  0  0  0  0
   60.3856   35.6208   45.9625 H   0  0  0  0  0  0  0  0  0  0  0  0
   58.8510   34.5790   47.0830 C   0  0  0  0  0  0  0  0  0  0  0  0
   59.0996   35.0774   48.0316 H   0  0  0  0  0  0  0  0  0  0  0  0
   57.8190   33.6380   47.0380 C   0  0  0  0  0  0  0  0  0  0  0  0
   57.2607   33.3906   47.9529 H   0  0  0  0  0  0  0  0  0  0  0  0
   57.4950   33.0100   45.8300 C   0  0  0  0  0  0  0  0  0  0  0  0
   56.6862   32.2650   45.7996 H   0  0  0  0  0  0  0  0  0  0  0  0
   57.9280   29.3070   46.1460 C   0  0  0  0  0  0  0  0  0  0  0  0
   58.3640   30.3127   46.0541 H   0  0  0  0  0  0  0  0  0  0  0  0
   58.5230   28.3590   46.9950 C   0  0  0  0  0  0  0  0  0  0  0  0
   59.7710   28.7030   47.7280 C   0  0  0  0  0  0  0  0  0  0  0  0
   60.8130   28.0290   47.4890 O   0  0  0  0  0  0  0  0  0  0  0  0
   59.7940   29.7340   48.7500 N   0  0  0  0  0  0  0  0  0  0  0  0
   58.9880   29.5630   49.3980 H   0  0  0  0  0  0  0  0  0  0  0  0
   59.5570   31.0740   48.1600 C   0  0  0  0  0  0  0  0  0  0  0  0
   58.4925   31.1694   47.8996 H   0  0  0  0  0  0  0  0  0  0  0  0
   60.1838   31.1778   47.2620 H   0  0  0  0  0  0  0  0  0  0  0  0
   59.9330   32.1840   49.1500 C   0  0  0  0  0  0  0  0  0  0  0  0
   59.2974   32.0896   50.0428 H   0  0  0  0  0  0  0  0  0  0  0  0
   59.7803   33.1480   48.6427 H   0  0  0  0  0  0  0  0  0  0  0  0
   61.3550   32.1180   49.5700 N   0  0  0  0  0  0  0  0  0  0  0  0
   62.2890   33.4120   48.8550 S   0  0  0  0  0  0  0  0  0  0  0  0
   63.3370   33.8880   49.8210 O   0  0  0  0  0  0  0  0  0  0  0  0
   61.3840   34.5600   48.5080 O   0  0  0  0  0  0  0  0  0  0  0  0
   63.0730   32.8460   47.3590 C   0  0  0  0  0  0  0  0  0  0  0  0
   63.9406   32.2197   47.6140 H   0  0  0  0  0  0  0  0  0  0  0  0
   62.3556   32.2562   46.7696 H   0  0  0  0  0  0  0  0  0  0  0  0
   63.4070   33.7126   46.7696 H   0  0  0  0  0  0  0  0  0  0  0  0
   62.0040   30.8230   49.2810 C   0  0  0  0  0  0  0  0  0  0  0  0
   62.8926   30.7161   49.9205 H   0  0  0  0  0  0  0  0  0  0  0  0
   62.2873   30.8041   48.2183 H   0  0  0  0  0  0  0  0  0  0  0  0
   61.0490   29.6530   49.5510 C   0  0  0  0  0  0  0  0  0  0  0  0
   60.7849   29.6543   50.6188 H   0  0  0  0  0  0  0  0  0  0  0  0
   61.5683   28.7280   49.2598 H   0  0  0  0  0  0  0  0  0  0  0  0
   57.9310   27.0900   47.1090 C   0  0  0  0  0  0  0  0  0  0  0  0
   58.3699   26.3336   47.7762 H   0  0  0  0  0  0  0  0  0  0  0  0
  1  2  1  0
  2  3  1  0
  3  4  1  0
  4  5  2  0
  5  6  1  0
  6  7  2  0
  6  8  1  0
  8  9  1  0
  8 10  1  0
  8 11  1  0
 11 12  1  0
 11 13  1  0
 11 14  1  0
 14 15  2  0
 15 16  1  0
 15 17  1  0
 17 18  1  0
 17 19  2  0
 19 20  1  0
 19 21  1  0
 21 22  1  0
 21 23  2  0
 23 24  1  0
  4 25  1  0
 25 26  1  0
 25 27  2  0
 27 28  1  0
 28 29  2  0
 28 30  1  0
 30 31  1  0
 30 32  1  0
 32 33  1  0
 32 34  1  0
 32 35  1  0
 35 36  1  0
 35 37  1  0
 35 38  1  0
 38 39  1  0
 39 40  2  0
 39 41  2  0
 39 42  1  0
 42 43  1  0
 42 44  1  0
 42 45  1  0
 38 46  1  0
 46 47  1  0
 46 48  1  0
 46 49  1  0
 49 50  1  0
 49 51  1  0
 27 52  1  0
 52 53  1  0
 52  2  2  0
 23 14  1  0
 49 30  1  0
M  CHG  2   3  -1  30   1
M  END
>  <UniqueID>  (19) 
16

>  <SMILES>  (19) 
CS(=O)(=O)N1CC[NH+](C(=O)c2cc[n-]/c(=N\C(=O)CCc3ccccc3)c2)CC1

>  <Energy>  (19) 
65.34710839643837

>  <Genealogy>  (19) 
CS(=O)(=O)N1CC[NH+](C(=O)c2cc[n-]c(=NC(=O)CCc3ccccc3)c2)CC1 (protonated)
CS(=O)(=O)N1CC[NH+](C(=O)c2cc[n-]/c(=N\C(=O)CCc3ccccc3)c2)CC1 (cis-trans isomerization)
CS(=O)(=O)N1CC[NH+](C(=O)c2cc[n-]/c(=N\C(=O)CCc3ccccc3)c2)CC1 (3D coordinates assigned)
CS(=O)(=O)N1CC[NH+](C(=O)c2cc[n-]/c(=N\C(=O)CCc3ccccc3)c2)CC1 (nonaromatic ring conformer: 65.34710839643837 kcal/mol)

>  <smiles>  (19) 
CS(=O)(=O)N1CCN(C(=O)c2cc[nH]c(=NC(=O)CCc3ccccc3)c2)CC1

>  <score_type>  (19) 
oracle

>  <origin>  (19) 
adg

>  <m_score__min__energy>  (19) 
-9.0399999999999991

>  <m_primary>  (19) 
energy

$$$$
19:0
     RDKit          3D

 61 64  0  0  0  0  0  0  0  0999 V2000
   64.8580   33.1140   49.3520 C   0  0  0  0  0  0  0  0  0  0  0  0
   63.5880   33.4120   48.6080 C   0  0  0  0  0  0  0  0  0  0  0  0
   63.4950   33.1270   47.2410 C   0  0  0  0  0  0  0  0  0  0  0  0
   62.3120   33.3950   46.5470 C   0  0  0  0  0  0  0  0  0  0  0  0
   61.2170   33.9670   47.2300 C   0  0  0  0  0  0  0  0  0  0  0  0
   60.0790   34.2460   46.6560 N   0  0  0  0  0  0  0  0  0  0  0  0
   58.8190   33.5510   46.7080 C   0  0  0  0  0  0  0  0  0  0  0  0
   58.1560   33.4980   47.7800 O   0  0  0  0  0  0  0  0  0  0  0  0
   58.3380   32.8130   45.5140 C   0  0  0  0  0  0  0  0  0  0  0  0
   58.5160   33.3490   44.2240 C   0  0  0  0  0  0  0  0  0  0  0  0
   58.0790   32.6450   43.1000 C   0  0  0  0  0  0  0  0  0  0  0  0
   57.4550   31.4060   43.2440 C   0  0  0  0  0  0  0  0  0  0  0  0
   57.2390   30.8670   44.5210 C   0  0  0  0  0  0  0  0  0  0  0  0
   56.6050   29.5420   44.6810 C   0  0  0  0  0  0  0  0  0  0  0  0
   55.3620   29.4790   44.8750 O   0  0  0  0  0  0  0  0  0  0  0  0
   57.3540   28.3230   44.6150 N   0  0  0  0  0  0  0  0  0  0  0  0
   58.8060   28.2300   44.7250 C   0  0  0  0  0  0  0  0  0  0  0  0
   59.2430   28.8530   46.0200 C   0  0  0  0  0  0  0  0  0  0  0  0
   60.2980   29.7830   46.0410 C   0  0  0  0  0  0  0  0  0  0  0  0
   60.6780   30.3890   47.2410 C   0  0  0  0  0  0  0  0  0  0  0  0
   60.0040   30.0830   48.4310 C   0  0  0  0  0  0  0  0  0  0  0  0
   60.4800   30.8830   49.9280 S   0  0  0  0  0  0  0  0  0  0  0  0
   60.2130   29.9620   51.0900 O   0  0  0  0  0  0  0  0  0  0  0  0
   61.9600   31.1450   49.8640 O   0  0  0  0  0  0  0  0  0  0  0  0
   59.5620   32.3790   50.0820 N   0  0  0  0  0  0  0  0  0  0  0  0
   58.1060   32.1480   50.1930 C   0  0  0  0  0  0  0  0  0  0  0  0
   57.6920   31.6820   51.6010 C   0  0  0  0  0  0  0  0  0  0  0  0
   58.1540   32.6250   52.6240 N   0  0  0  0  0  0  0  0  0  0  0  0
   59.6120   32.7710   52.5620 C   0  0  0  0  0  0  0  0  0  0  0  0
   60.0670   33.2460   51.1680 C   0  0  0  0  0  0  0  0  0  0  0  0
   58.9400   29.1680   48.4120 C   0  0  0  0  0  0  0  0  0  0  0  0
   58.5620   28.5560   47.2120 C   0  0  0  0  0  0  0  0  0  0  0  0
   57.7010   31.5630   45.6510 C   0  0  0  0  0  0  0  0  0  0  0  0
   61.3340   34.2090   48.5650 N   0  0  0  0  0  0  0  0  0  0  0  0
   62.4720   33.9490   49.2620 C   0  0  0  0  0  0  0  0  0  0  0  0
   64.6679   33.1586   50.4345 H   0  0  0  0  0  0  0  0  0  0  0  0
   65.2130   32.1082   49.0832 H   0  0  0  0  0  0  0  0  0  0  0  0
   65.6234   33.8569   49.0832 H   0  0  0  0  0  0  0  0  0  0  0  0
   64.3550   32.6910   46.7116 H   0  0  0  0  0  0  0  0  0  0  0  0
   62.2346   33.1616   45.4748 H   0  0  0  0  0  0  0  0  0  0  0  0
   59.0022   34.3280   44.1010 H   0  0  0  0  0  0  0  0  0  0  0  0
   58.2276   33.0697   42.0962 H   0  0  0  0  0  0  0  0  0  0  0  0
   57.1309   30.8491   42.3525 H   0  0  0  0  0  0  0  0  0  0  0  0
   59.1098   27.1730   44.7040 H   0  0  0  0  0  0  0  0  0  0  0  0
   59.2756   28.7593   43.8827 H   0  0  0  0  0  0  0  0  0  0  0  0
   60.8258   30.0341   45.1091 H   0  0  0  0  0  0  0  0  0  0  0  0
   61.5095   31.1091   47.2519 H   0  0  0  0  0  0  0  0  0  0  0  0
   59.7130   32.9030   49.1870 H   0  0  0  0  0  0  0  0  0  0  0  0
   57.5807   33.0866   49.9627 H   0  0  0  0  0  0  0  0  0  0  0  0
   57.8374   31.3516   49.4833 H   0  0  0  0  0  0  0  0  0  0  0  0
   56.5954   31.6094   51.6478 H   0  0  0  0  0  0  0  0  0  0  0  0
   58.1520   30.7018   51.7949 H   0  0  0  0  0  0  0  0  0  0  0  0
   57.7110   33.5600   52.4500 H   0  0  0  0  0  0  0  0  0  0  0  0
   59.9309   33.5080   53.3137 H   0  0  0  0  0  0  0  0  0  0  0  0
   60.0686   31.7903   52.7615 H   0  0  0  0  0  0  0  0  0  0  0  0
   59.6954   34.2684   51.0049 H   0  0  0  0  0  0  0  0  0  0  0  0
   61.1660   33.2066   51.1436 H   0  0  0  0  0  0  0  0  0  0  0  0
   58.4024   28.9316   49.3421 H   0  0  0  0  0  0  0  0  0  0  0  0
   57.7278   27.8391   47.2020 H   0  0  0  0  0  0  0  0  0  0  0  0
   57.5642   31.1282   46.6521 H   0  0  0  0  0  0  0  0  0  0  0  0
   62.5163   34.1606   50.3406 H   0  0  0  0  0  0  0  0  0  0  0  0
  1  2  1  0
  2  3  1  0
  3  4  2  0
  4  5  1  0
  5  6  2  3
  6  7  1  0
  7  8  2  0
  7  9  1  0
  9 10  2  0
 10 11  1  0
 11 12  2  0
 12 13  1  0
 13 14  1  0
 14 15  2  0
 14 16  1  0
 16 17  1  0
 17 18  1  0
 18 19  2  0
 19 20  1  0
 20 21  2  0
 21 22  1  0
 22 23  2  0
 22 24  2  0
 22 25  1  0
 25 26  1  0
 26 27  1  0
 27 28  1  0
 28 29  1  0
 29 30  1  0
 21 31  1  0
 31 32  2  0
 13 33  2  0
  5 34  1  0
 34 35  1  0
 35  2  2  0
 33  9  1  0
 32 18  1  0
 30 25  1  0
  1 36  1  0
  1 37  1  0
  1 38  1  0
  3 39  1  0
  4 40  1  0
 10 41  1  0
 11 42  1  0
 12 43  1  0
 17 44  1  0
 17 45  1  0
 19 46  1  0
 20 47  1  0
 25 48  1  0
 26 49  1  0
 26 50  1  0
 27 51  1  0
 27 52  1  0
 28 53  1  0
 29 54  1  0
 29 55  1  0
 30 56  1  0
 30 57  1  0
 31 58  1  0
 32 59  1  0
 33 60  1  0
 35 61  1  0
M  CHG  3  16  -1  25   1  34  -1
M  END
>  <UniqueID>  (20) 
17

>  <SMILES>  (20) 
Cc1ccc(=NC(=O)c2cccc(C(=O)[N-]Cc3ccc(S(=O)(=O)[NH+]4CCNCC4)cc3)c2)[n-]c1

>  <Energy>  (20) 
80.7627363228358

>  <Genealogy>  (20) 
Cc1ccc(=NC(=O)c2cccc(C(=O)[N-]Cc3ccc(S(=O)(=O)[NH+]4CCNCC4)cc3)c2)[n-]c1 (protonated)
Cc1ccc(=NC(=O)c2cccc(C(=O)[N-]Cc3ccc(S(=O)(=O)[NH+]4CCNCC4)cc3)c2)[n-]c1 (3D coordinates assigned)
Cc1ccc(=NC(=O)c2cccc(C(=O)[N-]Cc3ccc(S(=O)(=O)[NH+]4CCNCC4)cc3)c2)[n-]c1 (nonaromatic ring conformer: 80.7627363228358 kcal/mol)

>  <smiles>  (20) 
Cc1ccc(=NC(=O)c2cccc(C(=O)NCc3ccc(S(=O)(=O)N4CCNCC4)cc3)c2)[nH]c1

>  <score_type>  (20) 
oracle

>  <origin>  (20) 
adg

>  <m_score__min__energy>  (20) 
-11.07

>  <m_primary>  (20) 
energy

$$$$
20:0
     RDKit          3D

 35 37  0  0  0  0  0  0  0  0999 V2000
   58.3623   28.3054   48.5842 H   0  0  0  0  0  0  0  0  0  0  0  0
   58.8190   28.2740   47.5840 C   0  0  0  0  0  0  0  0  0  0  0  0
   58.2620   28.8940   46.5080 N   0  0  0  0  0  0  0  0  0  0  0  0
   58.9970   28.7170   45.3910 C   0  0  0  0  0  0  0  0  0  0  0  0
   58.6460   29.2350   44.2490 N   0  0  0  0  0  0  0  0  0  0  0  0
   57.3190   29.3440   43.7080 C   0  0  0  0  0  0  0  0  0  0  0  0
   57.0150   28.7970   42.6130 O   0  0  0  0  0  0  0  0  0  0  0  0
   56.2930   30.0830   44.4640 C   0  0  0  0  0  0  0  0  0  0  0  0
   55.3670   29.4460   45.0310 O   0  0  0  0  0  0  0  0  0  0  0  0
   56.2720   31.5160   44.4990 N   0  0  0  0  0  0  0  0  0  0  0  0
   57.2120   32.2830   44.9680 C   0  0  0  0  0  0  0  0  0  0  0  0
   57.1210   33.9570   44.9700 S   0  0  0  0  0  0  0  0  0  0  0  0
   58.6140   34.1450   45.7260 C   0  0  0  0  0  0  0  0  0  0  0  0
   59.0915   35.1029   45.9798 H   0  0  0  0  0  0  0  0  0  0  0  0
   59.1430   32.8740   45.9760 C   0  0  0  0  0  0  0  0  0  0  0  0
   60.4460   32.6550   46.6530 C   0  0  0  0  0  0  0  0  0  0  0  0
   61.4120   33.6760   46.6920 C   0  0  0  0  0  0  0  0  0  0  0  0
   61.2014   34.6440   46.2139 H   0  0  0  0  0  0  0  0  0  0  0  0
   62.6380   33.4720   47.3330 C   0  0  0  0  0  0  0  0  0  0  0  0
   63.3851   34.2791   47.3560 H   0  0  0  0  0  0  0  0  0  0  0  0
   62.9200   32.2380   47.9490 C   0  0  0  0  0  0  0  0  0  0  0  0
   64.1330   31.9850   48.6050 O   0  0  0  0  0  0  0  0  0  0  0  0
   64.6930   32.8230   49.6120 C   0  0  0  0  0  0  0  0  0  0  0  0
   64.4298   32.4292   50.6048 H   0  0  0  0  0  0  0  0  0  0  0  0
   65.7875   32.8444   49.5043 H   0  0  0  0  0  0  0  0  0  0  0  0
   64.2940   33.8424   49.5043 H   0  0  0  0  0  0  0  0  0  0  0  0
   61.9610   31.2210   47.9100 C   0  0  0  0  0  0  0  0  0  0  0  0
   62.1723   30.2533   48.3885 H   0  0  0  0  0  0  0  0  0  0  0  0
   60.7360   31.4240   47.2680 C   0  0  0  0  0  0  0  0  0  0  0  0
   59.9924   30.6138   47.2436 H   0  0  0  0  0  0  0  0  0  0  0  0
   58.3510   31.8450   45.5560 N   0  0  0  0  0  0  0  0  0  0  0  0
   58.5980   30.8400   45.6840 H   0  0  0  0  0  0  0  0  0  0  0  0
   60.3710   27.7860   45.6960 S   0  0  0  0  0  0  0  0  0  0  0  0
   60.0070   27.5980   47.3280 C   0  0  0  0  0  0  0  0  0  0  0  0
   60.6040   27.0386   48.0633 H   0  0  0  0  0  0  0  0  0  0  0  0
  1  2  1  0
  2  3  1  0
  3  4  1  0
  4  5  2  0
  5  6  1  0
  6  7  2  0
  6  8  1  0
  8  9  2  0
  8 10  1  0
 10 11  2  3
 11 12  1  0
 12 13  1  0
 13 14  1  0
 13 15  2  0
 15 16  1  0
 16 17  2  0
 17 18  1  0
 17 19  1  0
 19 20  1  0
 19 21  2  0
 21 22  1  0
 22 23  1  0
 23 24  1  0
 23 25  1  0
 23 26  1  0
 21 27  1  0
 27 28  1  0
 27 29  2  0
 29 30  1  0
 15 31  1  0
 31 32  1  0
  4 33  1  0
 33 34  1  0
 34 35  1  0
 34  2  2  0
 31 11  1  0
 29 16  1  0
M  CHG  1   3  -1
M  END
>  <UniqueID>  (21) 
18

>  <SMILES>  (21) 
COc1ccc(-c2csc(=NC(=O)C(=O)/N=c3/[n-]ccs3)[nH]2)cc1

>  <Energy>  (21) 
109.79106509101811

>  <Genealogy>  (21) 
COc1ccc(-c2csc(=NC(=O)C(=O)N=c3[n-]ccs3)[nH]2)cc1 (protonated)
COc1ccc(-c2csc(=NC(=O)C(=O)/N=c3/[n-]ccs3)[nH]2)cc1 (cis-trans isomerization)
COc1ccc(-c2csc(=NC(=O)C(=O)/N=c3/[n-]ccs3)[nH]2)cc1 (3D coordinates assigned)
COc1ccc(-c2csc(=NC(=O)C(=O)/N=c3/[n-]ccs3)[nH]2)cc1 (optimized conformer: 109.79106509101811 kcal/mol)

>  <smiles>  (21) 
COc1ccc(-c2csc(=NC(=O)C(=O)N=c3[nH]ccs3)[nH]2)cc1

>  <score_type>  (21) 
oracle

>  <origin>  (21) 
adg

>  <m_score__min__energy>  (21) 
-9.7799999999999994

>  <m_primary>  (21) 
energy

$$$$
21:0
     RDKit          3D

 35 36  0  0  0  0  0  0  0  0999 V2000
   51.3870   32.7240   51.0730 N   0  0  0  0  0  0  0  0  0  0  0  0
   51.8750   31.4280   50.7360 C   0  0  0  0  0  0  0  0  0  0  0  0
   51.3440   30.7870   49.7910 O   0  0  0  0  0  0  0  0  0  0  0  0
   52.9910   30.8410   51.4880 C   0  0  0  0  0  0  0  0  0  0  0  0
   54.3440   31.0180   51.2190 C   0  0  0  0  0  0  0  0  0  0  0  0
   55.1740   30.3290   52.1130 C   0  0  0  0  0  0  0  0  0  0  0  0
   56.9270   30.3910   52.0170 S   0  0  0  0  0  0  0  0  0  0  0  0
   57.4690   28.9900   52.0690 O   0  0  0  0  0  0  0  0  0  0  0  0
   57.4760   31.1680   53.1820 O   0  0  0  0  0  0  0  0  0  0  0  0
   57.4110   31.1400   50.5240 N   0  0  0  0  0  0  0  0  0  0  0  0
   58.7200   30.6510   50.0850 C   0  0  0  0  0  0  0  0  0  0  0  0
   58.5460   29.5330   49.0570 C   0  0  0  0  0  0  0  0  0  0  0  0
   58.5070   30.0950   47.6720 C   0  0  0  0  0  0  0  0  0  0  0  0
   59.1180   31.1670   47.4190 O   0  0  0  0  0  0  0  0  0  0  0  0
   57.6920   29.4620   46.6770 N   0  0  0  0  0  0  0  0  0  0  0  0
   57.4050   29.9600   45.3620 C   0  0  0  0  0  0  0  0  0  0  0  0
   58.2140   30.9320   44.7430 C   0  0  0  0  0  0  0  0  0  0  0  0
   57.9160   31.3780   43.4520 C   0  0  0  0  0  0  0  0  0  0  0  0
   56.8220   30.8510   42.7630 C   0  0  0  0  0  0  0  0  0  0  0  0
   56.0270   29.8690   43.3610 C   0  0  0  0  0  0  0  0  0  0  0  0
   56.3210   29.4190   44.6520 C   0  0  0  0  0  0  0  0  0  0  0  0
   55.5270   28.4340   45.2310 O   0  0  0  0  0  0  0  0  0  0  0  0
   54.4880   29.6130   53.0860 C   0  0  0  0  0  0  0  0  0  0  0  0
   52.8400   29.8360   52.8300 S   0  0  0  0  0  0  0  0  0  0  0  0
   51.4180   33.5060   50.3810 H   0  0  0  0  0  0  0  0  0  0  0  0
   54.7229   31.6347   50.3907 H   0  0  0  0  0  0  0  0  0  0  0  0
   59.2837   31.4789   49.6301 H   0  0  0  0  0  0  0  0  0  0  0  0
   59.2675   30.2583   50.9545 H   0  0  0  0  0  0  0  0  0  0  0  0
   59.3893   28.8315   49.1392 H   0  0  0  0  0  0  0  0  0  0  0  0
   57.5978   29.0120   49.2558 H   0  0  0  0  0  0  0  0  0  0  0  0
   59.0838   31.3420   45.2772 H   0  0  0  0  0  0  0  0  0  0  0  0
   58.5449   32.1459   42.9779 H   0  0  0  0  0  0  0  0  0  0  0  0
   56.5857   31.2084   41.7499 H   0  0  0  0  0  0  0  0  0  0  0  0
   55.1689   29.4496   42.8153 H   0  0  0  0  0  0  0  0  0  0  0  0
   54.9423   29.0068   53.8836 H   0  0  0  0  0  0  0  0  0  0  0  0
  1  2  1  0
  2  3  2  0
  2  4  1  0
  4  5  2  0
  5  6  1  0
  6  7  1  0
  7  8  2  0
  7  9  2  0
  7 10  1  0
 10 11  1  0
 11 12  1  0
 12 13  1  0
 13 14  2  0
 13 15  1  0
 15 16  1  0
 16 17  2  0
 17 18  1  0
 18 19  2  0
 19 20  1  0
 20 21  2  0
 21 22  1  0
  6 23  2  0
 23 24  1  0
 24  4  1  0
 21 16  1  0
  1 25  1  0
  5 26  1  0
 11 27  1  0
 11 28  1  0
 12 29  1  0
 12 30  1  0
 17 31  1  0
 18 32  1  0
 19 33  1  0
 20 34  1  0
 23 35  1  0
M  CHG  4   1  -1  10  -1  15  -1  22  -1
M  END
>  <UniqueID>  (22) 
19

>  <SMILES>  (22) 
[NH-]C(=O)c1cc(S(=O)(=O)[N-]CCC(=O)[N-]c2ccccc2[O-])cs1

>  <Energy>  (22) 
59.683594317908636

>  <Genealogy>  (22) 
[NH-]C(=O)c1cc(S(=O)(=O)[N-]CCC(=O)[N-]c2ccccc2[O-])cs1 (protonated)
[NH-]C(=O)c1cc(S(=O)(=O)[N-]CCC(=O)[N-]c2ccccc2[O-])cs1 (3D coordinates assigned)
[NH-]C(=O)c1cc(S(=O)(=O)[N-]CCC(=O)[N-]c2ccccc2[O-])cs1 (optimized conformer: 59.683594317908636 kcal/mol)

>  <smiles>  (22) 
NC(=O)c1cc(S(=O)(=O)NCCC(=O)Nc2ccccc2O)cs1

>  <score_type>  (22) 
oracle

>  <origin>  (22) 
adg

>  <m_score__min__energy>  (22) 
-15.81

>  <m_primary>  (22) 
energy

$$$$
22:0
     RDKit          3D

 35 36  0  0  1  0  0  0  0  0999 V2000
   60.3950   27.0050   48.1370 C   0  0  0  0  0  0  0  0  0  0  0  0
   59.3390   27.2190   47.1120 C   0  0  0  0  0  0  0  0  0  0  0  0
   58.8550   28.4700   46.8000 C   0  0  0  0  0  0  0  0  0  0  0  0
   57.8900   28.7040   45.8690 C   0  0  0  0  0  0  0  0  0  0  0  0
   57.5110   29.8950   45.6530 N   0  0  0  0  0  0  0  0  0  0  0  0
   56.7840   30.4990   44.2250 S   0  0  0  0  0  0  0  0  0  0  0  0
   56.6530   29.3220   43.2100 O   0  0  0  0  0  0  0  0  0  0  0  0
   55.3500   30.8200   44.4940 O   0  0  0  0  0  0  0  0  0  0  0  0
   57.7170   31.7450   43.5080 C   0  0  0  0  0  0  0  0  0  0  0  0
   57.7940   32.9860   43.8610 C   0  0  0  0  0  0  0  0  0  0  0  0
   58.3730   33.5450   45.0490 C   0  0  0  0  0  0  0  0  0  0  0  0
   57.9560   32.9740   46.2590 C   0  0  0  0  0  0  0  0  0  0  0  0
   58.4010   33.4610   47.4620 C   0  0  0  0  0  0  0  0  0  0  0  0
   59.2620   34.5160   47.5630 C   0  0  0  0  0  0  0  0  0  0  0  0
   59.6420   34.9210   48.7970 F   0  0  0  0  0  0  0  0  0  0  0  0
   59.6850   35.0970   46.3970 C   0  0  0  0  0  0  0  0  0  0  0  0
   59.2300   34.5980   45.1680 C   0  0  0  0  0  0  0  0  0  0  0  0
   57.3800   27.6360   45.2160 N   0  0  0  0  0  0  0  0  0  0  0  0
   57.8300   26.3870   45.4960 C   0  0  0  0  0  0  0  0  0  0  0  0
   57.2930   25.1890   44.7970 C   0  0  0  0  0  0  0  0  0  0  0  0
   58.7900   26.1810   46.4240 N   0  0  0  0  0  0  0  0  0  0  0  0
   59.9548   27.0942   49.1411 H   0  0  0  0  0  0  0  0  0  0  0  0
   60.8273   26.0010   48.0140 H   0  0  0  0  0  0  0  0  0  0  0  0
   61.1840   27.7615   48.0140 H   0  0  0  0  0  0  0  0  0  0  0  0
   59.2744   29.3339   47.3365 H   0  0  0  0  0  0  0  0  0  0  0  0
   58.3257   31.4523   42.6398 H   0  0  0  0  0  0  0  0  0  0  0  0
   57.3576   33.7099   43.1571 H   0  0  0  0  0  0  0  0  0  0  0  0
   57.2608   32.1217   46.2440 H   0  0  0  0  0  0  0  0  0  0  0  0
   58.0485   32.9801   48.3864 H   0  0  0  0  0  0  0  0  0  0  0  0
   60.3781   35.9507   46.4245 H   0  0  0  0  0  0  0  0  0  0  0  0
   59.5851   35.0842   44.2474 H   0  0  0  0  0  0  0  0  0  0  0  0
   56.6370   27.7690   44.4930 H   0  0  0  0  0  0  0  0  0  0  0  0
   56.9613   24.4489   45.5401 H   0  0  0  0  0  0  0  0  0  0  0  0
   56.4407   25.4834   44.1670 H   0  0  0  0  0  0  0  0  0  0  0  0
   58.0799   24.7487   44.1670 H   0  0  0  0  0  0  0  0  0  0  0  0
  1  2  1  0
  2  3  2  0
  3  4  1  0
  4  5  2  0
  5  6  1  0
  6  7  2  0
  6  8  2  0
  6  9  1  0
  9 10  2  0
 10 11  1  0
 11 12  2  0
 12 13  1  0
 13 14  2  0
 14 15  1  0
 14 16  1  0
 16 17  2  0
  4 18  1  0
 18 19  1  0
 19 20  1  0
 19 21  2  0
 21  2  1  0
 17 11  1  0
  1 22  1  0
  1 23  1  0
  1 24  1  0
  3 25  1  0
  9 26  1  0
 10 27  1  0
 12 28  1  0
 13 29  1  0
 16 30  1  0
 17 31  1  0
 18 32  1  0
 20 33  1  0
 20 34  1  0
 20 35  1  0
M  END
>  <smiles>  (23) 
Cc1cc(=NS(=O)(=O)C=Cc2ccc(F)cc2)[nH]c(C)n1

>  <score_type>  (23) 
oracle

>  <origin>  (23) 
adg

>  <m_score__min__energy>  (23) 
-7.9800000000000004

>  <m_primary>  (23) 
energy

$$$$
23:0
     RDKit          3D

 51 54  0  0  0  0  0  0  0  0999 V2000
   59.9069   25.5660   45.4751 H   0  0  0  0  0  0  0  0  0  0  0  0
   58.8370   25.7960   45.5870 C   0  0  0  0  0  0  0  0  0  0  0  0
   58.4270   27.0870   45.7000 N   0  0  0  0  0  0  0  0  0  0  0  0
   57.1120   27.4240   45.8380 C   0  0  0  0  0  0  0  0  0  0  0  0
   56.7400   28.6700   45.9230 N   0  0  0  0  0  0  0  0  0  0  0  0
   56.2360   29.4780   44.8450 C   0  0  0  0  0  0  0  0  0  0  0  0
   55.1410   29.1930   44.2890 O   0  0  0  0  0  0  0  0  0  0  0  0
   57.0200   30.6390   44.3630 C   0  0  0  0  0  0  0  0  0  0  0  0
   57.0360   30.9410   42.9900 C   0  0  0  0  0  0  0  0  0  0  0  0
   56.5168   30.2817   42.2788 H   0  0  0  0  0  0  0  0  0  0  0  0
   57.7090   32.0760   42.5230 C   0  0  0  0  0  0  0  0  0  0  0  0
   57.7150   32.4440   40.8070 Cl  0  0  0  0  0  0  0  0  0  0  0  0
   58.3690   32.9190   43.4220 C   0  0  0  0  0  0  0  0  0  0  0  0
   58.8811   33.8202   43.0538 H   0  0  0  0  0  0  0  0  0  0  0  0
   58.3800   32.6200   44.7870 C   0  0  0  0  0  0  0  0  0  0  0  0
   58.9002   33.2867   45.4904 H   0  0  0  0  0  0  0  0  0  0  0  0
   57.7300   31.4730   45.2620 C   0  0  0  0  0  0  0  0  0  0  0  0
   57.8440   31.1310   46.6470 N   0  0  0  0  0  0  0  0  0  0  0  0
   57.2650   30.3430   47.0020 H   0  0  0  0  0  0  0  0  0  0  0  0
   58.8370   31.7650   47.4660 C   0  0  0  0  0  0  0  0  0  0  0  0
   59.0780   32.9900   47.2910 O   0  0  0  0  0  0  0  0  0  0  0  0
   59.6930   31.0010   48.4050 C   0  0  0  0  0  0  0  0  0  0  0  0
   59.0660   30.0060   49.1770 C   0  0  0  0  0  0  0  0  0  0  0  0
   57.9741   29.8842   49.1220 H   0  0  0  0  0  0  0  0  0  0  0  0
   59.8100   29.1720   50.0110 C   0  0  0  0  0  0  0  0  0  0  0  0
   59.3009   28.4200   50.6317 H   0  0  0  0  0  0  0  0  0  0  0  0
   61.1960   29.2900   50.0590 C   0  0  0  0  0  0  0  0  0  0  0  0
   61.7838   28.6183   50.7019 H   0  0  0  0  0  0  0  0  0  0  0  0
   61.8390   30.2610   49.2910 C   0  0  0  0  0  0  0  0  0  0  0  0
   62.9367   30.3298   49.3097 H   0  0  0  0  0  0  0  0  0  0  0  0
   61.1010   31.1520   48.4940 C   0  0  0  0  0  0  0  0  0  0  0  0
   61.9980   32.4100   47.5630 S   0  0  0  0  0  0  0  0  0  0  0  0
   63.0150   32.9350   48.9670 C   0  0  0  0  0  0  0  0  0  0  0  0
   64.3980   32.6910   48.9230 C   0  0  0  0  0  0  0  0  0  0  0  0
   64.8258   32.1401   48.0724 H   0  0  0  0  0  0  0  0  0  0  0  0
   65.2350   33.1390   49.9450 C   0  0  0  0  0  0  0  0  0  0  0  0
   66.3158   32.9396   49.8987 H   0  0  0  0  0  0  0  0  0  0  0  0
   64.7010   33.8390   51.0240 C   0  0  0  0  0  0  0  0  0  0  0  0
   65.3630   34.2015   51.8242 H   0  0  0  0  0  0  0  0  0  0  0  0
   63.3280   34.0820   51.0930 C   0  0  0  0  0  0  0  0  0  0  0  0
   62.9168   34.6374   51.9488 H   0  0  0  0  0  0  0  0  0  0  0  0
   62.4640   33.6250   50.0810 C   0  0  0  0  0  0  0  0  0  0  0  0
   61.0090   33.8790   50.2290 C   0  0  0  0  0  0  0  0  0  0  0  0
   60.3790   33.3980   51.2080 O   0  0  0  0  0  0  0  0  0  0  0  0
   60.3050   34.6130   49.2800 O   0  0  0  0  0  0  0  0  0  0  0  0
   56.1430   26.4070   45.8660 C   0  0  0  0  0  0  0  0  0  0  0  0
   54.7930   26.7130   46.0040 O   0  0  0  0  0  0  0  0  0  0  0  0
   56.5460   25.0730   45.7550 C   0  0  0  0  0  0  0  0  0  0  0  0
   55.7968   24.2680   45.7795 H   0  0  0  0  0  0  0  0  0  0  0  0
   57.9000   24.7630   45.6130 C   0  0  0  0  0  0  0  0  0  0  0  0
   58.2242   23.7158   45.5226 H   0  0  0  0  0  0  0  0  0  0  0  0
  1  2  1  0
  2  3  1  0
  3  4  1  0
  4  5  2  0
  5  6  1  0
  6  7  2  0
  6  8  1  0
  8  9  2  0
  9 10  1  0
  9 11  1  0
 11 12  1  0
 11 13  2  0
 13 14  1  0
 13 15  1  0
 15 16  1  0
 15 17  2  0
 17 18  1  0
 18 19  1  0
 18 20  1  0
 20 21  2  0
 20 22  1  0
 22 23  2  0
 23 24  1  0
 23 25  1  0
 25 26  1  0
 25 27  2  0
 27 28  1  0
 27 29  1  0
 29 30  1  0
 29 31  2  0
 31 32  1  0
 32 33  1  0
 33 34  2  0
 34 35  1  0
 34 36  1  0
 36 37  1  0
 36 38  2  0
 38 39  1  0
 38 40  1  0
 40 41  1  0
 40 42  2  0
 42 43  1  0
 43 44  2  0
 43 45  1  0
  4 46  1  0
 46 47  1  0
 46 48  2  0
 48 49  1  0
 48 50  1  0
 50 51  1  0
 50  2  2  0
 17  8  1  0
 31 22  1  0
 42 33  1  0
M  CHG  3   3  -1  45  -1  47  -1
M  END
>  <UniqueID>  (24) 
20

>  <SMILES>  (24) 
O=C(/N=c1\[n-]cccc1[O-])c1cc(Cl)ccc1NC(=O)c1ccccc1Sc1ccccc1C(=O)[O-]

>  <Energy>  (24) 
82.49694818889114

>  <Genealogy>  (24) 
O=C(N=c1[n-]cccc1[O-])c1cc(Cl)ccc1NC(=O)c1ccccc1Sc1ccccc1C(=O)[O-] (protonated)
O=C(/N=c1\[n-]cccc1[O-])c1cc(Cl)ccc1NC(=O)c1ccccc1Sc1ccccc1C(=O)[O-] (cis-trans isomerization)
O=C(/N=c1\[n-]cccc1[O-])c1cc(Cl)ccc1NC(=O)c1ccccc1Sc1ccccc1C(=O)[O-] (3D coordinates assigned)
O=C(/N=c1\[n-]cccc1[O-])c1cc(Cl)ccc1NC(=O)c1ccccc1Sc1ccccc1C(=O)[O-] (optimized conformer: 82.49694818889114 kcal/mol)

>  <smiles>  (24) 
O=C(N=c1[nH]cccc1O)c1cc(Cl)ccc1NC(=O)c1ccccc1Sc1ccccc1C(=O)O

>  <score_type>  (24) 
oracle

>  <origin>  (24) 
adg

>  <m_score__min__energy>  (24) 
-15.890000000000001

>  <m_primary>  (24) 
energy

$$$$
24:0
     RDKit          3D

 49 52  0  0  0  0  0  0  0  0999 V2000
   58.7120   29.6999   47.6027 H   0  0  0  0  0  0  0  0  0  0  0  0
   58.4470   28.8400   46.9700 C   0  0  0  0  0  0  0  0  0  0  0  0
   58.4754   27.8219   47.3855 H   0  0  0  0  0  0  0  0  0  0  0  0
   58.0890   29.0330   45.6910 C   0  0  0  0  0  0  0  0  0  0  0  0
   57.7230   28.0530   44.7520 C   0  0  0  0  0  0  0  0  0  0  0  0
   57.7890   26.7090   44.8020 C   0  0  0  0  0  0  0  0  0  0  0  0
   58.2600   26.1980   43.9493 H   0  0  0  0  0  0  0  0  0  0  0  0
   57.2870   25.8640   45.8960 C   0  0  0  0  0  0  0  0  0  0  0  0
   57.9720   24.8500   46.4580 N   0  0  0  0  0  0  0  0  0  0  0  0
   57.0690   24.2890   47.2920 C   0  0  0  0  0  0  0  0  0  0  0  0
   57.3430   23.3010   48.0210 O   0  0  0  0  0  0  0  0  0  0  0  0
   55.8470   24.8630   47.2740 N   0  0  0  0  0  0  0  0  0  0  0  0
   55.9990   25.8470   46.3740 C   0  0  0  0  0  0  0  0  0  0  0  0
   54.9800   26.7090   45.9920 O   0  0  0  0  0  0  0  0  0  0  0  0
   57.2590   28.7380   43.6390 C   0  0  0  0  0  0  0  0  0  0  0  0
   56.8469   28.2936   42.7210 H   0  0  0  0  0  0  0  0  0  0  0  0
   57.4130   30.0830   43.9030 C   0  0  0  0  0  0  0  0  0  0  0  0
   57.0360   31.1880   42.9650 C   0  0  0  0  0  0  0  0  0  0  0  0
   56.7340   32.0733   43.5438 H   0  0  0  0  0  0  0  0  0  0  0  0
   57.8986   31.4412   42.3311 H   0  0  0  0  0  0  0  0  0  0  0  0
   56.1985   30.8611   42.3311 H   0  0  0  0  0  0  0  0  0  0  0  0
   57.9170   30.2640   45.1420 N   0  0  0  0  0  0  0  0  0  0  0  0
   58.1420   31.5410   45.7640 C   0  0  0  0  0  0  0  0  0  0  0  0
   57.1500   32.2670   46.0490 O   0  0  0  0  0  0  0  0  0  0  0  0
   59.4740   31.9800   46.0930 N   0  0  0  0  0  0  0  0  0  0  0  0
   59.7690   33.3950   46.3420 C   0  0  0  0  0  0  0  0  0  0  0  0
   60.5852   33.7222   45.6811 H   0  0  0  0  0  0  0  0  0  0  0  0
   58.8726   33.9998   46.1404 H   0  0  0  0  0  0  0  0  0  0  0  0
   60.1900   33.5730   47.8000 C   0  0  0  0  0  0  0  0  0  0  0  0
   60.5788   34.5917   47.9455 H   0  0  0  0  0  0  0  0  0  0  0  0
   59.3181   33.4110   48.4508 H   0  0  0  0  0  0  0  0  0  0  0  0
   61.2370   32.5980   48.1420 N   0  0  0  0  0  0  0  0  0  0  0  0
   62.3070   32.9760   49.0280 C   0  0  0  0  0  0  0  0  0  0  0  0
   63.6410   32.7000   48.6810 C   0  0  0  0  0  0  0  0  0  0  0  0
   63.8656   32.1964   47.7292 H   0  0  0  0  0  0  0  0  0  0  0  0
   64.6840   33.0620   49.5390 C   0  0  0  0  0  0  0  0  0  0  0  0
   65.7257   32.8439   49.2610 H   0  0  0  0  0  0  0  0  0  0  0  0
   64.4030   33.7010   50.7500 C   0  0  0  0  0  0  0  0  0  0  0  0
   65.2240   33.9867   51.4240 H   0  0  0  0  0  0  0  0  0  0  0  0
   63.0810   33.9770   51.1050 C   0  0  0  0  0  0  0  0  0  0  0  0
   62.8616   34.4782   52.0593 H   0  0  0  0  0  0  0  0  0  0  0  0
   62.0360   33.6170   50.2490 C   0  0  0  0  0  0  0  0  0  0  0  0
   60.9961   33.8366   50.5326 H   0  0  0  0  0  0  0  0  0  0  0  0
   60.9890   31.1800   47.8430 C   0  0  0  0  0  0  0  0  0  0  0  0
   61.9139   30.6072   48.0055 H   0  0  0  0  0  0  0  0  0  0  0  0
   60.1948   30.8068   48.5063 H   0  0  0  0  0  0  0  0  0  0  0  0
   60.5420   31.0170   46.3870 C   0  0  0  0  0  0  0  0  0  0  0  0
   61.3959   31.2008   45.7184 H   0  0  0  0  0  0  0  0  0  0  0  0
   60.1675   29.9946   46.2304 H   0  0  0  0  0  0  0  0  0  0  0  0
  1  2  1  0
  2  3  1  0
  2  4  2  0
  4  5  1  0
  5  6  2  0
  6  7  1  0
  6  8  1  0
  8  9  1  0
  9 10  1  0
 10 11  2  0
 10 12  1  0
 12 13  1  0
 13 14  1  0
  5 15  1  0
 15 16  1  0
 15 17  2  0
 17 18  1  0
 18 19  1  0
 18 20  1  0
 18 21  1  0
 17 22  1  0
 22 23  1  0
 23 24  2  0
 23 25  1  0
 25 26  1  0
 26 27  1  0
 26 28  1  0
 26 29  1  0
 29 30  1  0
 29 31  1  0
 29 32  1  0
 32 33  1  0
 33 34  2  0
 34 35  1  0
 34 36  1  0
 36 37  1  0
 36 38  2  0
 38 39  1  0
 38 40  1  0
 40 41  1  0
 40 42  2  0
 42 43  1  0
 32 44  1  0
 44 45  1  0
 44 46  1  0
 44 47  1  0
 47 48  1  0
 47 49  1  0
 22  4  1  0
 47 25  1  0
 13  8  2  0
 42 33  1  0
M  CHG  3   9  -1  12  -1  14  -1
M  END
>  <UniqueID>  (25) 
21

>  <SMILES>  (25) 
C=c1/c(=C\c2[n-]c(=O)[n-]c2[O-])cc(C)n1C(=O)N1CCN(c2ccccc2)CC1

>  <Energy>  (25) 
130.34433689395956

>  <Genealogy>  (25) 
C=c1c(=Cc2[n-]c(=O)[n-]c2[O-])cc(C)n1C(=O)N1CCN(c2ccccc2)CC1 (protonated)
C=c1/c(=C\c2[n-]c(=O)[n-]c2[O-])cc(C)n1C(=O)N1CCN(c2ccccc2)CC1 (cis-trans isomerization)
C=c1/c(=C\c2[n-]c(=O)[n-]c2[O-])cc(C)n1C(=O)N1CCN(c2ccccc2)CC1 (3D coordinates assigned)
C=c1/c(=C\c2[n-]c(=O)[n-]c2[O-])cc(C)n1C(=O)N1CCN(c2ccccc2)CC1 (nonaromatic ring conformer: 130.34433689395956 kcal/mol)

>  <smiles>  (25) 
C=c1c(=Cc2[nH]c(=O)[nH]c2O)cc(C)n1C(=O)N1CCN(c2ccccc2)CC1

>  <score_type>  (25) 
oracle

>  <origin>  (25) 
adg

>  <m_score__min__energy>  (25) 
-16.780000000000001

>  <m_primary>  (25) 
energy

$$$$
25:0
     RDKit          3D

 64 67  0  0  0  0  0  0  0  0999 V2000
   58.5200   29.5190   48.8520 O   0  0  0  0  0  0  0  0  0  0  0  0
   59.2710   29.3450   47.8560 C   0  0  0  0  0  0  0  0  0  0  0  0
   60.2590   30.3300   47.5070 N   0  0  0  0  0  0  0  0  0  0  0  0
   60.6090   31.5180   48.3040 C   0  0  2  0  0  0  0  0  0  0  0  0
   61.8210   32.2690   47.7010 C   0  0  0  0  0  0  0  0  0  0  0  0
   62.7970   32.8250   48.7120 C   0  0  0  0  0  0  0  0  0  0  0  0
   64.0740   32.2570   48.8610 C   0  0  0  0  0  0  0  0  0  0  0  0
   64.9630   32.7600   49.8150 C   0  0  0  0  0  0  0  0  0  0  0  0
   64.5830   33.8250   50.6350 C   0  0  0  0  0  0  0  0  0  0  0  0
   65.4400   34.2900   51.5780 F   0  0  0  0  0  0  0  0  0  0  0  0
   63.3180   34.3980   50.4940 C   0  0  0  0  0  0  0  0  0  0  0  0
   62.4240   33.8980   49.5420 C   0  0  0  0  0  0  0  0  0  0  0  0
   60.7360   31.2360   49.7920 C   0  0  0  0  0  0  0  0  0  0  0  0
   61.6960   30.5310   50.1990 O   0  0  0  0  0  0  0  0  0  0  0  0
   59.8150   31.7510   50.7670 N   0  0  0  0  0  0  0  0  0  0  0  0
   58.7570   31.1680   51.2640 C   0  0  0  0  0  0  0  0  0  0  0  0
   58.7980   29.8990   51.8730 C   0  0  0  0  0  0  0  0  0  0  0  0
   57.6240   29.3480   52.3940 C   0  0  0  0  0  0  0  0  0  0  0  0
   56.4500   30.0240   52.2990 N   0  0  0  0  0  0  0  0  0  0  0  0
   56.3770   31.2390   51.6950 C   0  0  0  0  0  0  0  0  0  0  0  0
   57.5240   31.8240   51.1570 C   0  0  0  0  0  0  0  0  0  0  0  0
   59.1570   28.1030   47.0580 C   0  0  0  0  0  0  0  0  0  0  0  0
   60.1490   27.1230   47.2300 C   0  0  0  0  0  0  0  0  0  0  0  0
   60.1000   25.9250   46.5170 C   0  0  0  0  0  0  0  0  0  0  0  0
   59.0630   25.6900   45.6170 C   0  0  0  0  0  0  0  0  0  0  0  0
   58.0730   26.6530   45.4220 C   0  0  0  0  0  0  0  0  0  0  0  0
   57.0800   26.4000   44.5290 F   0  0  0  0  0  0  0  0  0  0  0  0
   58.1030   27.8710   46.1320 C   0  0  0  0  0  0  0  0  0  0  0  0
   57.0190   28.8860   45.8500 C   0  0  0  0  0  0  0  0  0  0  0  0
   57.1350   29.3480   44.4690 N   0  0  0  0  0  0  0  0  0  0  0  0
   58.0050   30.8510   44.3990 S   0  0  0  0  0  0  0  0  0  0  0  0
   59.3580   30.7110   45.0390 O   0  0  0  0  0  0  0  0  0  0  0  0
   58.1850   31.2470   42.9600 O   0  0  0  0  0  0  0  0  0  0  0  0
   57.0680   32.1130   45.2450 C   0  0  0  0  0  0  0  0  0  0  0  0
   57.9950   33.1210   45.8680 C   0  0  0  0  0  0  0  0  0  0  0  0
   58.0920   33.2290   47.2660 C   0  0  0  0  0  0  0  0  0  0  0  0
   58.9110   34.2030   47.8430 C   0  0  0  0  0  0  0  0  0  0  0  0
   59.6450   35.0720   47.0330 C   0  0  0  0  0  0  0  0  0  0  0  0
   59.5530   34.9750   45.6420 C   0  0  0  0  0  0  0  0  0  0  0  0
   58.7260   34.0070   45.0600 C   0  0  0  0  0  0  0  0  0  0  0  0
   60.7770   30.1980   46.6090 H   0  0  0  0  0  0  0  0  0  0  0  0
   59.7543   32.2073   48.2382 H   0  0  0  0  0  0  0  0  0  0  0  0
   62.3659   31.5696   47.0499 H   0  0  0  0  0  0  0  0  0  0  0  0
   61.4085   33.1358   47.1639 H   0  0  0  0  0  0  0  0  0  0  0  0
   64.3752   31.4125   48.2237 H   0  0  0  0  0  0  0  0  0  0  0  0
   65.9640   32.3162   49.9203 H   0  0  0  0  0  0  0  0  0  0  0  0
   63.0240   35.2440   51.1326 H   0  0  0  0  0  0  0  0  0  0  0  0
   61.4243   34.3458   49.4416 H   0  0  0  0  0  0  0  0  0  0  0  0
   59.7465   29.3458   51.9382 H   0  0  0  0  0  0  0  0  0  0  0  0
   57.6510   28.3630   52.8829 H   0  0  0  0  0  0  0  0  0  0  0  0
   55.4118   31.7625   51.6300 H   0  0  0  0  0  0  0  0  0  0  0  0
   57.4600   32.7981   50.6500 H   0  0  0  0  0  0  0  0  0  0  0  0
   60.9739   27.3025   47.9351 H   0  0  0  0  0  0  0  0  0  0  0  0
   60.8812   25.1650   46.6656 H   0  0  0  0  0  0  0  0  0  0  0  0
   59.0248   24.7429   45.0589 H   0  0  0  0  0  0  0  0  0  0  0  0
   56.0332   28.4216   46.0002 H   0  0  0  0  0  0  0  0  0  0  0  0
   57.1285   29.7405   46.5340 H   0  0  0  0  0  0  0  0  0  0  0  0
   56.4104   32.6213   44.5244 H   0  0  0  0  0  0  0  0  0  0  0  0
   56.4665   31.6423   46.0366 H   0  0  0  0  0  0  0  0  0  0  0  0
   57.5204   32.5435   47.9089 H   0  0  0  0  0  0  0  0  0  0  0  0
   58.9777   34.2854   48.9379 H   0  0  0  0  0  0  0  0  0  0  0  0
   60.2953   35.8326   47.4897 H   0  0  0  0  0  0  0  0  0  0  0  0
   60.1308   35.6598   45.0039 H   0  0  0  0  0  0  0  0  0  0  0  0
   58.6484   33.9400   43.9648 H   0  0  0  0  0  0  0  0  0  0  0  0
  1  2  2  0
  2  3  1  0
  3  4  1  0
  4  5  1  0
  5  6  1  0
  6  7  2  0
  7  8  1  0
  8  9  2  0
  9 10  1  0
  9 11  1  0
 11 12  2  0
  4 13  1  0
 13 14  2  0
 13 15  1  0
 15 16  2  3
 16 17  1  0
 17 18  2  0
 18 19  1  0
 19 20  1  0
 20 21  2  0
  2 22  1  0
 22 23  2  0
 23 24  1  0
 24 25  2  0
 25 26  1  0
 26 27  1  0
 26 28  2  0
 28 29  1  0
 29 30  1  0
 30 31  1  0
 31 32  2  0
 31 33  2  0
 31 34  1  0
 34 35  1  0
 35 36  2  0
 36 37  1  0
 37 38  2  0
 38 39  1  0
 39 40  2  0
 12  6  1  0
 21 16  1  0
 28 22  1  0
 40 35  1  0
  3 41  1  0
  4 42  1  1
  5 43  1  0
  5 44  1  0
  7 45  1  0
  8 46  1  0
 11 47  1  0
 12 48  1  0
 17 49  1  0
 18 50  1  0
 20 51  1  0
 21 52  1  0
 23 53  1  0
 24 54  1  0
 25 55  1  0
 29 56  1  0
 29 57  1  0
 34 58  1  0
 34 59  1  0
 36 60  1  0
 37 61  1  0
 38 62  1  0
 39 63  1  0
 40 64  1  0
M  CHG  2  19  -1  30  -1
M  END
>  <UniqueID>  (26) 
22

>  <SMILES>  (26) 
O=C(N[C@H](Cc1ccc(F)cc1)C(=O)N=c1cc[n-]cc1)c1cccc(F)c1C[N-]S(=O)(=O)Cc1ccccc1

>  <Energy>  (26) 
74.55009613996369

>  <Genealogy>  (26) 
O=C(NC(Cc1ccc(F)cc1)C(=O)N=c1cc[n-]cc1)c1cccc(F)c1C[N-]S(=O)(=O)Cc1ccccc1 (protonated)
O=C(N[C@H](Cc1ccc(F)cc1)C(=O)N=c1cc[n-]cc1)c1cccc(F)c1C[N-]S(=O)(=O)Cc1ccccc1 (chirality)
O=C(N[C@H](Cc1ccc(F)cc1)C(=O)N=c1cc[n-]cc1)c1cccc(F)c1C[N-]S(=O)(=O)Cc1ccccc1 (3D coordinates assigned)
O=C(N[C@H](Cc1ccc(F)cc1)C(=O)N=c1cc[n-]cc1)c1cccc(F)c1C[N-]S(=O)(=O)Cc1ccccc1 (optimized conformer: 74.55009613996369 kcal/mol)

>  <smiles>  (26) 
O=C(NC(Cc1ccc(F)cc1)C(=O)N=c1cc[nH]cc1)c1cccc(F)c1CNS(=O)(=O)Cc1ccccc1

>  <score_type>  (26) 
oracle

>  <origin>  (26) 
adg

>  <m_score__min__energy>  (26) 
-12.51

>  <m_primary>  (26) 
energy

$$$$
26:0
     RDKit          3D

 42 44  0  0  0  0  0  0  0  0999 V2000
   59.8500   23.0150   45.2530 C   0  0  0  0  0  0  0  0  0  0  0  0
   58.3560   23.1260   45.0520 C   0  0  0  0  0  0  0  0  0  0  0  0
   57.7710   22.3600   44.0380 C   0  0  0  0  0  0  0  0  0  0  0  0
   56.4020   22.4260   43.8080 C   0  0  0  0  0  0  0  0  0  0  0  0
   55.9090   21.7370   42.8750 O   0  0  0  0  0  0  0  0  0  0  0  0
   55.5940   23.2610   44.6000 C   0  0  0  0  0  0  0  0  0  0  0  0
   54.1240   23.3430   44.3620 C   0  0  0  0  0  0  0  0  0  0  0  0
   53.3060   23.0910   45.2850 O   0  0  0  0  0  0  0  0  0  0  0  0
   53.6260   23.7050   43.1160 O   0  0  0  0  0  0  0  0  0  0  0  0
   56.2120   24.0170   45.6220 C   0  0  0  0  0  0  0  0  0  0  0  0
   55.4250   24.8400   46.4270 O   0  0  0  0  0  0  0  0  0  0  0  0
   57.5710   23.9460   45.8370 N   0  0  0  0  0  0  0  0  0  0  0  0
   58.1780   24.7740   46.9050 C   0  0  0  0  0  0  0  0  0  0  0  0
   58.1580   26.2400   46.5460 C   0  0  0  0  0  0  0  0  0  0  0  0
   57.9890   26.6360   45.2080 C   0  0  0  0  0  0  0  0  0  0  0  0
   57.9870   27.9920   44.8660 C   0  0  0  0  0  0  0  0  0  0  0  0
   58.1750   28.9710   45.8530 C   0  0  0  0  0  0  0  0  0  0  0  0
   58.1490   30.4080   45.4970 C   0  0  0  0  0  0  0  0  0  0  0  0
   59.1830   31.2270   45.9850 C   0  0  0  0  0  0  0  0  0  0  0  0
   59.1700   32.6020   45.7540 C   0  0  0  0  0  0  0  0  0  0  0  0
   58.1260   33.1790   45.0350 C   0  0  0  0  0  0  0  0  0  0  0  0
   57.0980   32.3830   44.5300 C   0  0  0  0  0  0  0  0  0  0  0  0
   57.0980   30.9900   44.7360 C   0  0  0  0  0  0  0  0  0  0  0  0
   56.0200   30.1870   44.1060 C   0  0  0  0  0  0  0  0  0  0  0  0
   55.8640   30.1760   42.8560 O   0  0  0  0  0  0  0  0  0  0  0  0
   55.1330   29.4670   44.8980 O   0  0  0  0  0  0  0  0  0  0  0  0
   58.3480   28.5770   47.1880 C   0  0  0  0  0  0  0  0  0  0  0  0
   58.3500   27.2220   47.5310 C   0  0  0  0  0  0  0  0  0  0  0  0
   60.0749   22.9983   46.3296 H   0  0  0  0  0  0  0  0  0  0  0  0
   60.2146   22.0873   44.7878 H   0  0  0  0  0  0  0  0  0  0  0  0
   60.3477   23.8786   44.7878 H   0  0  0  0  0  0  0  0  0  0  0  0
   58.3983   21.7016   43.4191 H   0  0  0  0  0  0  0  0  0  0  0  0
   57.6125   24.6263   47.8369 H   0  0  0  0  0  0  0  0  0  0  0  0
   59.2258   24.4631   47.0297 H   0  0  0  0  0  0  0  0  0  0  0  0
   57.8575   25.8746   44.4251 H   0  0  0  0  0  0  0  0  0  0  0  0
   57.8373   28.2923   43.8184 H   0  0  0  0  0  0  0  0  0  0  0  0
   60.0102   30.7783   46.5546 H   0  0  0  0  0  0  0  0  0  0  0  0
   59.9851   33.2317   46.1400 H   0  0  0  0  0  0  0  0  0  0  0  0
   58.1122   34.2657   44.8649 H   0  0  0  0  0  0  0  0  0  0  0  0
   56.2777   32.8488   43.9642 H   0  0  0  0  0  0  0  0  0  0  0  0
   58.4829   29.3390   47.9698 H   0  0  0  0  0  0  0  0  0  0  0  0
   58.5029   26.9233   48.5786 H   0  0  0  0  0  0  0  0  0  0  0  0
  1  2  1  0
  2  3  2  0
  3  4  1  0
  4  5  2  0
  4  6  1  0
  6  7  1  0
  7  8  2  0
  7  9  1  0
  6 10  2  0
 10 11  1  0
 10 12  1  0
 12 13  1  0
 13 14  1  0
 14 15  2  0
 15 16  1  0
 16 17  2  0
 17 18  1  0
 18 19  2  0
 19 20  1  0
 20 21  2  0
 21 22  1  0
 22 23  2  0
 23 24  1  0
 24 25  2  0
 24 26  1  0
 17 27  1  0
 27 28  2  0
 12  2  1  0
 28 14  1  0
 23 18  1  0
  1 29  1  0
  1 30  1  0
  1 31  1  0
  3 32  1  0
 13 33  1  0
 13 34  1  0
 15 35  1  0
 16 36  1  0
 19 37  1  0
 20 38  1  0
 21 39  1  0
 22 40  1  0
 27 41  1  0
 28 42  1  0
M  CHG  3   9  -1  11  -1  26  -1
M  END
>  <UniqueID>  (27) 
23

>  <SMILES>  (27) 
Cc1cc(=O)c(C(=O)[O-])c([O-])n1Cc1ccc(-c2ccccc2C(=O)[O-])cc1

>  <Energy>  (27) 
65.39157120315494

>  <Genealogy>  (27) 
Cc1cc(=O)c(C(=O)[O-])c([O-])n1Cc1ccc(-c2ccccc2C(=O)[O-])cc1 (protonated)
Cc1cc(=O)c(C(=O)[O-])c([O-])n1Cc1ccc(-c2ccccc2C(=O)[O-])cc1 (3D coordinates assigned)
Cc1cc(=O)c(C(=O)[O-])c([O-])n1Cc1ccc(-c2ccccc2C(=O)[O-])cc1 (optimized conformer: 65.39157120315494 kcal/mol)

>  <smiles>  (27) 
Cc1cc(=O)c(C(=O)O)c(O)n1Cc1ccc(-c2ccccc2C(=O)O)cc1

>  <score_type>  (27) 
oracle

>  <origin>  (27) 
adg

>  <m_score__min__energy>  (27) 
-14.789999999999999

>  <m_primary>  (27) 
energy

$$$$
27:0
     RDKit          3D

 36 38  0  0  0  0  0  0  0  0999 V2000
   59.0660   36.2870   47.2650 H   0  0  0  0  0  0  0  0  0  0  0  0
   59.4940   35.7060   46.5080 N   0  0  0  0  0  0  0  0  0  0  0  0
   59.1900   34.4600   46.3320 C   0  0  0  0  0  0  0  0  0  0  0  0
   57.9240   34.1280   45.9600 N   0  0  0  0  0  0  0  0  0  0  0  0
   57.5490   32.8370   45.7610 C   0  0  0  0  0  0  0  0  0  0  0  0
   56.5160   32.6058   45.4618 H   0  0  0  0  0  0  0  0  0  0  0  0
   58.4750   31.7990   45.9360 C   0  0  0  0  0  0  0  0  0  0  0  0
   58.0840   30.4330   45.7150 N   0  0  0  0  0  0  0  0  0  0  0  0
   57.5320   29.9440   44.5830 C   0  0  0  0  0  0  0  0  0  0  0  0
   57.2540   30.7450   43.3470 C   0  0  0  0  0  0  0  0  0  0  0  0
   56.9056   31.7489   43.6313 H   0  0  0  0  0  0  0  0  0  0  0  0
   58.1747   30.8315   42.7513 H   0  0  0  0  0  0  0  0  0  0  0  0
   56.4777   30.2425   42.7513 H   0  0  0  0  0  0  0  0  0  0  0  0
   57.2720   28.5940   44.7180 C   0  0  0  0  0  0  0  0  0  0  0  0
   56.8339   27.9295   43.9587 H   0  0  0  0  0  0  0  0  0  0  0  0
   57.6720   28.2400   46.0000 C   0  0  0  0  0  0  0  0  0  0  0  0
   57.5630   27.0190   46.5580 C   0  0  0  0  0  0  0  0  0  0  0  0
   57.8848   26.8928   47.6023 H   0  0  0  0  0  0  0  0  0  0  0  0
   57.0330   25.8380   45.8400 C   0  0  0  0  0  0  0  0  0  0  0  0
   55.6540   25.7140   45.6110 C   0  0  0  0  0  0  0  0  0  0  0  0
   54.7810   26.7160   46.0250 O   0  0  0  0  0  0  0  0  0  0  0  0
   55.1640   24.6190   44.9730 N   0  0  0  0  0  0  0  0  0  0  0  0
   54.1360   24.5440   44.7980 H   0  0  0  0  0  0  0  0  0  0  0  0
   55.9920   23.6220   44.5610 C   0  0  0  0  0  0  0  0  0  0  0  0
   55.5240   22.6150   43.9660 O   0  0  0  0  0  0  0  0  0  0  0  0
   57.3260   23.7050   44.7950 N   0  0  0  0  0  0  0  0  0  0  0  0
   57.8630   24.7790   45.4300 C   0  0  0  0  0  0  0  0  0  0  0  0
   59.1010   24.8020   45.6610 O   0  0  0  0  0  0  0  0  0  0  0  0
   58.1670   29.4040   46.5950 C   0  0  0  0  0  0  0  0  0  0  0  0
   58.6810   29.5130   47.8290 C   0  0  0  0  0  0  0  0  0  0  0  0
   59.0412   30.4874   48.1907 H   0  0  0  0  0  0  0  0  0  0  0  0
   58.7423   28.6280   48.4794 H   0  0  0  0  0  0  0  0  0  0  0  0
   59.7840   32.1170   46.3200 C   0  0  0  0  0  0  0  0  0  0  0  0
   60.6990   31.1360   46.5190 F   0  0  0  0  0  0  0  0  0  0  0  0
   60.1460   33.4510   46.5190 C   0  0  0  0  0  0  0  0  0  0  0  0
   61.1723   33.7082   46.8199 H   0  0  0  0  0  0  0  0  0  0  0  0
  1  2  1  0
  2  3  2  3
  3  4  1  0
  4  5  1  0
  5  6  1  0
  5  7  2  0
  7  8  1  0
  8  9  1  0
  9 10  1  0
 10 11  1  0
 10 12  1  0
 10 13  1  0
  9 14  2  0
 14 15  1  0
 14 16  1  0
 16 17  2  0
 17 18  1  0
 17 19  1  0
 19 20  2  0
 20 21  1  0
 20 22  1  0
 22 23  1  0
 22 24  1  0
 24 25  2  0
 24 26  1  0
 26 27  1  0
 27 28  2  0
 16 29  1  0
 29 30  2  0
 30 31  1  0
 30 32  1  0
  7 33  1  0
 33 34  1  0
 33 35  2  0
 35 36  1  0
 35  3  1  0
 29  8  1  0
 27 19  1  0
M  CHG  3   4  -1  21  -1  26  -1
M  END
>  <UniqueID>  (28) 
24

>  <SMILES>  (28) 
C=c1/c(=C/c2c([O-])[nH]c(=O)[n-]c2=O)cc(C)n1-c1c[n-]c(=N)cc1F

>  <Energy>  (28) 
84.84179486868645

>  <Genealogy>  (28) 
C=c1c(=Cc2c([O-])[nH]c(=O)[n-]c2=O)cc(C)n1-c1c[n-]c(=N)cc1F (protonated)
C=c1/c(=C/c2c([O-])[nH]c(=O)[n-]c2=O)cc(C)n1-c1c[n-]c(=N)cc1F (cis-trans isomerization)
C=c1/c(=C/c2c([O-])[nH]c(=O)[n-]c2=O)cc(C)n1-c1c[n-]c(=N)cc1F (3D coordinates assigned)
C=c1/c(=C/c2c([O-])[nH]c(=O)[n-]c2=O)cc(C)n1-c1c[n-]c(=N)cc1F (optimized conformer: 84.84179486868645 kcal/mol)

>  <smiles>  (28) 
C=c1c(=Cc2c(O)[nH]c(=O)[nH]c2=O)cc(C)n1-c1c[nH]c(=N)cc1F

>  <score_type>  (28) 
oracle

>  <origin>  (28) 
adg

>  <m_score__min__energy>  (28) 
-13.84

>  <m_primary>  (28) 
energy

$$$$
28:0
     RDKit          3D

 62 65  0  0  0  0  0  0  0  0999 V2000
   69.2080   32.3440   52.6790 C   0  0  0  0  0  0  0  0  0  0  0  0
   68.3240   33.5400   52.4920 C   0  0  0  0  0  0  0  0  0  0  0  0
   68.6580   34.6260   53.0390 O   0  0  0  0  0  0  0  0  0  0  0  0
   67.1340   33.4760   51.6790 N   0  0  0  0  0  0  0  0  0  0  0  0
   66.1850   34.5960   51.6620 C   0  0  0  0  0  0  0  0  0  0  0  0
   64.7490   34.0670   51.5330 C   0  0  0  0  0  0  0  0  0  0  0  0
   64.5630   33.0830   50.4330 N   0  0  0  0  0  0  0  0  0  0  0  0
   63.4380   33.6840   49.2410 S   0  0  0  0  0  0  0  0  0  0  0  0
   64.1470   33.9170   47.9350 O   0  0  0  0  0  0  0  0  0  0  0  0
   62.8520   34.9830   49.7220 O   0  0  0  0  0  0  0  0  0  0  0  0
   62.1540   32.5070   48.9790 C   0  0  0  0  0  0  0  0  0  0  0  0
   62.4700   31.2280   48.5060 C   0  0  0  0  0  0  0  0  0  0  0  0
   61.4540   30.3000   48.2620 C   0  0  0  0  0  0  0  0  0  0  0  0
   60.1180   30.6480   48.4750 C   0  0  0  0  0  0  0  0  0  0  0  0
   59.7860   31.9350   48.9330 C   0  0  0  0  0  0  0  0  0  0  0  0
   58.3730   32.3210   49.1470 C   0  0  0  0  0  0  0  0  0  0  0  0
   57.7920   31.9680   50.2070 O   0  0  0  0  0  0  0  0  0  0  0  0
   57.6220   33.0420   48.1600 N   0  0  0  0  0  0  0  0  0  0  0  0
   58.0180   33.2900   46.8030 C   0  0  0  0  0  0  0  0  0  0  0  0
   58.8310   34.3840   46.4600 C   0  0  0  0  0  0  0  0  0  0  0  0
   59.1920   34.5960   45.1280 C   0  0  0  0  0  0  0  0  0  0  0  0
   58.7330   33.7370   44.1280 C   0  0  0  0  0  0  0  0  0  0  0  0
   57.8910   32.6560   44.4510 C   0  0  0  0  0  0  0  0  0  0  0  0
   57.3800   31.7600   43.4470 N   0  0  0  0  0  0  0  0  0  0  0  0
   56.7600   30.1750   43.7810 S   0  0  0  0  0  0  0  0  0  0  0  0
   56.5100   29.4570   42.4840 O   0  0  0  0  0  0  0  0  0  0  0  0
   55.4610   30.3030   44.5250 O   0  0  0  0  0  0  0  0  0  0  0  0
   57.9280   29.2540   44.7200 C   0  0  0  0  0  0  0  0  0  0  0  0
   57.4990   28.2530   45.6050 C   0  0  0  0  0  0  0  0  0  0  0  0
   58.4330   27.5260   46.3490 C   0  0  0  0  0  0  0  0  0  0  0  0
   59.7980   27.7920   46.2110 C   0  0  0  0  0  0  0  0  0  0  0  0
   60.2300   28.7870   45.3290 C   0  0  0  0  0  0  0  0  0  0  0  0
   59.2980   29.5170   44.5830 C   0  0  0  0  0  0  0  0  0  0  0  0
   57.5350   32.4490   45.7940 C   0  0  0  0  0  0  0  0  0  0  0  0
   60.8140   32.8570   49.1980 C   0  0  0  0  0  0  0  0  0  0  0  0
   65.8080   32.6620   49.7630 C   0  0  0  0  0  0  0  0  0  0  0  0
   66.9070   32.3390   50.7780 C   0  0  0  0  0  0  0  0  0  0  0  0
   69.3473   32.1555   53.7537 H   0  0  0  0  0  0  0  0  0  0  0  0
   68.7404   31.4656   52.2102 H   0  0  0  0  0  0  0  0  0  0  0  0
   70.1850   32.5333   52.2102 H   0  0  0  0  0  0  0  0  0  0  0  0
   66.2798   35.1678   52.5969 H   0  0  0  0  0  0  0  0  0  0  0  0
   66.4087   35.2453   50.8027 H   0  0  0  0  0  0  0  0  0  0  0  0
   64.4725   33.5824   52.4810 H   0  0  0  0  0  0  0  0  0  0  0  0
   64.1113   34.9318   51.2975 H   0  0  0  0  0  0  0  0  0  0  0  0
   63.5197   30.9529   48.3261 H   0  0  0  0  0  0  0  0  0  0  0  0
   61.7071   29.2922   47.9010 H   0  0  0  0  0  0  0  0  0  0  0  0
   59.3229   29.9124   48.2837 H   0  0  0  0  0  0  0  0  0  0  0  0
   59.1831   35.0736   47.2414 H   0  0  0  0  0  0  0  0  0  0  0  0
   59.8413   35.4442   44.8653 H   0  0  0  0  0  0  0  0  0  0  0  0
   59.0307   33.9056   43.0825 H   0  0  0  0  0  0  0  0  0  0  0  0
   57.3550   32.0740   42.4520 H   0  0  0  0  0  0  0  0  0  0  0  0
   56.4253   28.0399   45.7136 H   0  0  0  0  0  0  0  0  0  0  0  0
   58.0931   26.7438   47.0437 H   0  0  0  0  0  0  0  0  0  0  0  0
   60.5322   27.2187   46.7961 H   0  0  0  0  0  0  0  0  0  0  0  0
   61.3045   28.9964   45.2213 H   0  0  0  0  0  0  0  0  0  0  0  0
   59.6408   30.2980   43.8884 H   0  0  0  0  0  0  0  0  0  0  0  0
   56.8677   31.6147   46.0561 H   0  0  0  0  0  0  0  0  0  0  0  0
   60.5656   33.8585   49.5793 H   0  0  0  0  0  0  0  0  0  0  0  0
   65.6039   31.7655   49.1592 H   0  0  0  0  0  0  0  0  0  0  0  0
   66.1561   33.4898   49.1277 H   0  0  0  0  0  0  0  0  0  0  0  0
   66.6043   31.4635   51.3711 H   0  0  0  0  0  0  0  0  0  0  0  0
   67.8394   32.1284   50.2336 H   0  0  0  0  0  0  0  0  0  0  0  0
  1  2  1  0
  2  3  2  0
  2  4  1  0
  4  5  1  0
  5  6  1  0
  6  7  1  0
  7  8  1  0
  8  9  2  0
  8 10  2  0
  8 11  1  0
 11 12  2  0
 12 13  1  0
 13 14  2  0
 14 15  1  0
 15 16  1  0
 16 17  2  0
 16 18  1  0
 18 19  1  0
 19 20  2  0
 20 21  1  0
 21 22  2  0
 22 23  1  0
 23 24  1  0
 24 25  1  0
 25 26  2  0
 25 27  2  0
 25 28  1  0
 28 29  2  0
 29 30  1  0
 30 31  2  0
 31 32  1  0
 32 33  2  0
 23 34  2  0
 15 35  2  0
  7 36  1  0
 36 37  1  0
 37  4  1  0
 35 11  1  0
 34 19  1  0
 33 28  1  0
  1 38  1  0
  1 39  1  0
  1 40  1  0
  5 41  1  0
  5 42  1  0
  6 43  1  0
  6 44  1  0
 12 45  1  0
 13 46  1  0
 14 47  1  0
 20 48  1  0
 21 49  1  0
 22 50  1  0
 24 51  1  0
 29 52  1  0
 30 53  1  0
 31 54  1  0
 32 55  1  0
 33 56  1  0
 34 57  1  0
 35 58  1  0
 36 59  1  0
 36 60  1  0
 37 61  1  0
 37 62  1  0
M  CHG  1  18  -1
M  END
>  <UniqueID>  (29) 
25

>  <SMILES>  (29) 
CC(=O)N1CCN(S(=O)(=O)c2cccc(C(=O)[N-]c3cccc(NS(=O)(=O)c4ccccc4)c3)c2)CC1

>  <Energy>  (29) 
79.14851721930968

>  <Genealogy>  (29) 
CC(=O)N1CCN(S(=O)(=O)c2cccc(C(=O)[N-]c3cccc(NS(=O)(=O)c4ccccc4)c3)c2)CC1 (protonated)
CC(=O)N1CCN(S(=O)(=O)c2cccc(C(=O)[N-]c3cccc(NS(=O)(=O)c4ccccc4)c3)c2)CC1 (3D coordinates assigned)
CC(=O)N1CCN(S(=O)(=O)c2cccc(C(=O)[N-]c3cccc(NS(=O)(=O)c4ccccc4)c3)c2)CC1 (nonaromatic ring conformer: 79.14851721930968 kcal/mol)

>  <smiles>  (29) 
CC(=O)N1CCN(S(=O)(=O)c2cccc(C(=O)Nc3cccc(NS(=O)(=O)c4ccccc4)c3)c2)CC1

>  <score_type>  (29) 
oracle

>  <origin>  (29) 
adg

>  <m_score__min__energy>  (29) 
-13.9

>  <m_primary>  (29) 
energy

$$$$
29:0
     RDKit          3D

 34 36  0  0  0  0  0  0  0  0999 V2000
   52.6787   28.0369   53.6434 H   0  0  0  0  0  0  0  0  0  0  0  0
   53.7710   28.1670   53.6430 C   0  0  0  0  0  0  0  0  0  0  0  0
   54.4076   27.4746   54.2134 H   0  0  0  0  0  0  0  0  0  0  0  0
   54.3250   29.1670   52.9490 C   0  0  0  0  0  0  0  0  0  0  0  0
   53.6700   30.1290   52.1730 C   0  0  0  0  0  0  0  0  0  0  0  0
   52.3370   30.2440   51.9860 C   0  0  0  0  0  0  0  0  0  0  0  0
   51.8345   29.4307   51.4419 H   0  0  0  0  0  0  0  0  0  0  0  0
   51.4940   31.3680   52.4490 C   0  0  0  0  0  0  0  0  0  0  0  0
   51.1970   31.6590   53.7290 N   0  0  0  0  0  0  0  0  0  0  0  0
   50.4470   32.7780   53.6340 C   0  0  0  0  0  0  0  0  0  0  0  0
   49.9690   33.3610   54.6410 O   0  0  0  0  0  0  0  0  0  0  0  0
   50.2530   33.2240   52.3750 N   0  0  0  0  0  0  0  0  0  0  0  0
   50.9250   32.3230   51.6390 C   0  0  0  0  0  0  0  0  0  0  0  0
   51.0160   32.3740   50.2540 O   0  0  0  0  0  0  0  0  0  0  0  0
   54.6740   30.9450   51.6580 C   0  0  0  0  0  0  0  0  0  0  0  0
   54.5386   31.8167   51.0009 H   0  0  0  0  0  0  0  0  0  0  0  0
   55.8760   30.4470   52.1330 C   0  0  0  0  0  0  0  0  0  0  0  0
   57.2230   30.9910   51.8640 C   0  0  0  0  0  0  0  0  0  0  0  0
   58.1960   30.5790   52.5540 O   0  0  0  0  0  0  0  0  0  0  0  0
   57.4440   31.9690   50.8370 N   0  0  0  0  0  0  0  0  0  0  0  0
   56.6480   32.2800   50.2380 H   0  0  0  0  0  0  0  0  0  0  0  0
   58.7740   32.5310   50.6010 C   0  0  0  0  0  0  0  0  0  0  0  0
   58.9410   33.3675   51.2955 H   0  0  0  0  0  0  0  0  0  0  0  0
   59.5248   31.7438   50.7643 H   0  0  0  0  0  0  0  0  0  0  0  0
   58.8960   33.0280   49.1950 C   0  0  0  0  0  0  0  0  0  0  0  0
   59.8610   34.3140   48.7010 S   0  0  0  0  0  0  0  0  0  0  0  0
   59.3650   34.3030   47.0930 C   0  0  0  0  0  0  0  0  0  0  0  0
   59.7261   34.9782   46.3033 H   0  0  0  0  0  0  0  0  0  0  0  0
   58.4220   33.2960   46.9330 C   0  0  0  0  0  0  0  0  0  0  0  0
   57.9346   33.0756   45.9718 H   0  0  0  0  0  0  0  0  0  0  0  0
   58.1500   32.5880   48.1090 C   0  0  0  0  0  0  0  0  0  0  0  0
   57.4202   31.7671   48.1674 H   0  0  0  0  0  0  0  0  0  0  0  0
   55.6560   29.3720   52.9140 N   0  0  0  0  0  0  0  0  0  0  0  0
   56.3840   28.8030   53.4050 H   0  0  0  0  0  0  0  0  0  0  0  0
  1  2  1  0
  2  3  1  0
  2  4  2  0
  4  5  1  0
  5  6  2  0
  6  7  1  0
  6  8  1  0
  8  9  1  0
  9 10  1  0
 10 11  2  0
 10 12  1  0
 12 13  1  0
 13 14  1  0
  5 15  1  0
 15 16  1  0
 15 17  2  0
 17 18  1  0
 18 19  2  0
 18 20  1  0
 20 21  1  0
 20 22  1  0
 22 23  1  0
 22 24  1  0
 22 25  1  0
 25 26  1  0
 26 27  1  0
 27 28  1  0
 27 29  2  0
 29 30  1  0
 29 31  1  0
 31 32  1  0
 17 33  1  0
 33 34  1  0
 33  4  1  0
 13  8  2  0
 31 25  2  0
M  CHG  3   9  -1  12  -1  14  -1
M  END
>  <UniqueID>  (30) 
26

>  <SMILES>  (30) 
C=c1[nH]c(C(=O)NCc2cccs2)c/c1=C\c1[n-]c(=O)[n-]c1[O-]

>  <Energy>  (30) 
119.70452568637731

>  <Genealogy>  (30) 
C=c1[nH]c(C(=O)NCc2cccs2)cc1=Cc1[n-]c(=O)[n-]c1[O-] (protonated)
C=c1[nH]c(C(=O)NCc2cccs2)c/c1=C\c1[n-]c(=O)[n-]c1[O-] (cis-trans isomerization)
C=c1[nH]c(C(=O)NCc2cccs2)c/c1=C\c1[n-]c(=O)[n-]c1[O-] (3D coordinates assigned)
C=c1[nH]c(C(=O)NCc2cccs2)c/c1=C\c1[n-]c(=O)[n-]c1[O-] (optimized conformer: 119.70452568637731 kcal/mol)

>  <smiles>  (30) 
C=c1[nH]c(C(=O)NCc2cccs2)cc1=Cc1[nH]c(=O)[nH]c1O

>  <score_type>  (30) 
oracle

>  <origin>  (30) 
adg

>  <m_score__min__energy>  (30) 
-17.079999999999998

>  <m_primary>  (30) 
energy

$$$$
30:0
     RDKit          3D

 51 53  0  0  0  0  0  0  0  0999 V2000
   54.7736   29.6333   44.3551 H   0  0  0  0  0  0  0  0  0  0  0  0
   55.8670   29.7520   44.3740 C   0  0  0  0  0  0  0  0  0  0  0  0
   56.6350   28.8690   45.0670 N   0  0  0  0  0  0  0  0  0  0  0  0
   57.9910   28.9860   45.1250 C   0  0  0  0  0  0  0  0  0  0  0  0
   58.7910   27.9600   45.8720 C   0  0  0  0  0  0  0  0  0  0  0  0
   59.6603   27.6649   45.2660 H   0  0  0  0  0  0  0  0  0  0  0  0
   58.1566   27.0833   46.0693 H   0  0  0  0  0  0  0  0  0  0  0  0
   59.2670   28.5270   47.1810 C   0  0  0  0  0  0  0  0  0  0  0  0
   60.2280   27.8480   47.9410 C   0  0  0  0  0  0  0  0  0  0  0  0
   60.6151   26.8751   47.6040 H   0  0  0  0  0  0  0  0  0  0  0  0
   60.6900   28.4150   49.1280 C   0  0  0  0  0  0  0  0  0  0  0  0
   61.4484   27.8909   49.7280 H   0  0  0  0  0  0  0  0  0  0  0  0
   60.2050   29.6140   49.5450 N   0  0  0  0  0  0  0  0  0  0  0  0
   59.2660   30.3050   48.8430 C   0  0  0  0  0  0  0  0  0  0  0  0
   58.8590   31.4500   49.3190 N   0  0  0  0  0  0  0  0  0  0  0  0
   59.1370   32.7760   48.8390 C   0  0  0  0  0  0  0  0  0  0  0  0
   59.5810   33.6290   49.6530 O   0  0  0  0  0  0  0  0  0  0  0  0
   58.8740   33.1930   47.4390 C   0  0  0  0  0  0  0  0  0  0  0  0
   57.5450   33.4760   47.0790 C   0  0  0  0  0  0  0  0  0  0  0  0
   56.7363   33.3012   47.8039 H   0  0  0  0  0  0  0  0  0  0  0  0
   57.2400   33.9760   45.8130 C   0  0  0  0  0  0  0  0  0  0  0  0
   56.1950   34.1878   45.5424 H   0  0  0  0  0  0  0  0  0  0  0  0
   58.2580   34.2070   44.8920 C   0  0  0  0  0  0  0  0  0  0  0  0
   58.0193   34.6284   43.9044 H   0  0  0  0  0  0  0  0  0  0  0  0
   59.5810   33.9050   45.2190 C   0  0  0  0  0  0  0  0  0  0  0  0
   60.3802   34.1059   44.4904 H   0  0  0  0  0  0  0  0  0  0  0  0
   59.9050   33.3460   46.4710 C   0  0  0  0  0  0  0  0  0  0  0  0
   61.3460   32.9670   46.7530 C   0  0  0  0  0  0  0  0  0  0  0  0
   61.9543   33.2127   45.8701 H   0  0  0  0  0  0  0  0  0  0  0  0
   61.3702   31.8899   46.9749 H   0  0  0  0  0  0  0  0  0  0  0  0
   62.0340   33.8480   48.2030 S   0  0  0  0  0  0  0  0  0  0  0  0
   62.5330   32.3590   49.0860 C   0  0  0  0  0  0  0  0  0  0  0  0
   63.4350   31.6740   48.6240 O   0  0  0  0  0  0  0  0  0  0  0  0
   61.8370   31.9530   50.2870 N   0  0  0  0  0  0  0  0  0  0  0  0
   60.8540   31.6900   50.0390 H   0  0  0  0  0  0  0  0  0  0  0  0
   62.4910   30.7730   50.8700 C   0  0  0  0  0  0  0  0  0  0  0  0
   62.4547   30.8384   51.9675 H   0  0  0  0  0  0  0  0  0  0  0  0
   61.9683   29.8633   50.5394 H   0  0  0  0  0  0  0  0  0  0  0  0
   63.5394   30.7341   50.5394 H   0  0  0  0  0  0  0  0  0  0  0  0
   61.7870   33.0550   51.2620 C   0  0  0  0  0  0  0  0  0  0  0  0
   61.8057   32.6433   52.2819 H   0  0  0  0  0  0  0  0  0  0  0  0
   62.6562   33.7132   51.1163 H   0  0  0  0  0  0  0  0  0  0  0  0
   60.8618   33.6318   51.1163 H   0  0  0  0  0  0  0  0  0  0  0  0
   58.7990   29.7730   47.6220 C   0  0  0  0  0  0  0  0  0  0  0  0
   58.0703   30.3340   47.0184 H   0  0  0  0  0  0  0  0  0  0  0  0
   58.6270   30.0300   44.4370 C   0  0  0  0  0  0  0  0  0  0  0  0
   59.7225   30.1262   44.4627 H   0  0  0  0  0  0  0  0  0  0  0  0
   57.8550   30.9460   43.7190 C   0  0  0  0  0  0  0  0  0  0  0  0
   58.3405   31.7732   43.1805 H   0  0  0  0  0  0  0  0  0  0  0  0
   56.4670   30.8100   43.6860 C   0  0  0  0  0  0  0  0  0  0  0  0
   55.8514   31.5280   43.1243 H   0  0  0  0  0  0  0  0  0  0  0  0
  1  2  1  0
  2  3  2  0
  3  4  1  0
  4  5  1  0
  5  6  1  0
  5  7  1  0
  5  8  1  0
  8  9  1  0
  9 10  1  0
  9 11  2  0
 11 12  1  0
 11 13  1  0
 13 14  1  0
 14 15  2  0
 15 16  1  0
 16 17  2  0
 16 18  1  0
 18 19  2  0
 19 20  1  0
 19 21  1  0
 21 22  1  0
 21 23  2  0
 23 24  1  0
 23 25  1  0
 25 26  1  0
 25 27  2  0
 27 28  1  0
 28 29  1  0
 28 30  1  0
 28 31  1  0
 31 32  1  0
 32 33  2  0
 32 34  1  0
 34 35  1  0
 34 36  1  0
 36 37  1  0
 36 38  1  0
 36 39  1  0
 34 40  1  0
 40 41  1  0
 40 42  1  0
 40 43  1  0
 14 44  1  0
 44 45  1  0
  4 46  2  0
 46 47  1  0
 46 48  1  0
 48 49  1  0
 48 50  2  0
 50 51  1  0
 50  2  1  0
 44  8  2  0
 27 18  1  0
M  CHG  2  13  -1  34   1
M  END
>  <UniqueID>  (31) 
27

>  <SMILES>  (31) 
C[NH+](C)C(=O)SCc1ccccc1C(=O)/N=c1\cc(Cc2ccccn2)cc[n-]1

>  <Energy>  (31) 
62.2486068459128

>  <Genealogy>  (31) 
C[NH+](C)C(=O)SCc1ccccc1C(=O)N=c1cc(Cc2ccccn2)cc[n-]1 (protonated)
C[NH+](C)C(=O)SCc1ccccc1C(=O)/N=c1\cc(Cc2ccccn2)cc[n-]1 (cis-trans isomerization)
C[NH+](C)C(=O)SCc1ccccc1C(=O)/N=c1\cc(Cc2ccccn2)cc[n-]1 (3D coordinates assigned)
C[NH+](C)C(=O)SCc1ccccc1C(=O)/N=c1\cc(Cc2ccccn2)cc[n-]1 (optimized conformer: 62.2486068459128 kcal/mol)

>  <smiles>  (31) 
CN(C)C(=O)SCc1ccccc1C(=O)N=c1cc(Cc2ccccn2)cc[nH]1

>  <score_type>  (31) 
oracle

>  <origin>  (31) 
adg

>  <m_score__min__energy>  (31) 
-7.3200000000000003

>  <m_primary>  (31) 
energy

$$$$
31:0
     RDKit          3D

 49 51  0  0  0  0  0  0  0  0999 V2000
   61.9490   31.1820   48.2310 C   0  0  0  0  0  0  0  0  0  0  0  0
   60.6600   30.6270   47.8020 N   0  0  0  0  0  0  0  0  0  0  0  0
   60.4160   30.3820   46.3700 C   0  0  0  0  0  0  0  0  0  0  0  0
   59.7580   29.0470   46.1540 C   0  0  0  0  0  0  0  0  0  0  0  0
   60.5030   27.8600   46.1830 C   0  0  0  0  0  0  0  0  0  0  0  0
   59.8520   26.6410   45.9910 C   0  0  0  0  0  0  0  0  0  0  0  0
   58.4730   26.6110   45.7860 C   0  0  0  0  0  0  0  0  0  0  0  0
   57.7480   27.8140   45.7740 C   0  0  0  0  0  0  0  0  0  0  0  0
   56.2750   27.8000   45.6030 C   0  0  0  0  0  0  0  0  0  0  0  0
   55.6450   26.7350   45.8390 O   0  0  0  0  0  0  0  0  0  0  0  0
   55.5190   28.9570   45.2120 N   0  0  0  0  0  0  0  0  0  0  0  0
   55.4930   29.6040   43.9030 C   0  0  0  0  0  0  0  0  0  0  0  0
   56.5360   30.6740   43.8200 C   0  0  0  0  0  0  0  0  0  0  0  0
   57.1300   31.1540   42.6690 C   0  0  0  0  0  0  0  0  0  0  0  0
   58.0270   32.1130   43.0860 C   0  0  0  0  0  0  0  0  0  0  0  0
   57.9200   32.1660   44.4600 C   0  0  0  0  0  0  0  0  0  0  0  0
   57.0220   31.2990   44.8670 O   0  0  0  0  0  0  0  0  0  0  0  0
   58.4100   28.9860   45.9710 N   0  0  0  0  0  0  0  0  0  0  0  0
   59.6560   30.3570   48.8090 C   0  0  0  0  0  0  0  0  0  0  0  0
   58.7570   29.5030   48.5770 O   0  0  0  0  0  0  0  0  0  0  0  0
   59.5970   31.1030   50.1140 C   0  0  0  0  0  0  0  0  0  0  0  0
   58.5680   32.2330   50.0480 C   0  0  0  0  0  0  0  0  0  0  0  0
   58.8990   33.1600   48.9550 N   0  0  0  0  0  0  0  0  0  0  0  0
   58.1190   33.1750   47.8310 C   0  0  0  0  0  0  0  0  0  0  0  0
   58.4250   34.0220   46.7680 C   0  0  0  0  0  0  0  0  0  0  0  0
   59.5480   34.8390   46.8700 C   0  0  0  0  0  0  0  0  0  0  0  0
   59.8570   35.6130   45.9270 O   0  0  0  0  0  0  0  0  0  0  0  0
   60.3120   34.7960   47.9890 N   0  0  0  0  0  0  0  0  0  0  0  0
   60.0050   33.9700   49.0230 C   0  0  0  0  0  0  0  0  0  0  0  0
   60.7500   33.9590   50.0390 O   0  0  0  0  0  0  0  0  0  0  0  0
   61.9926   31.2008   49.3300 H   0  0  0  0  0  0  0  0  0  0  0  0
   62.7655   30.5557   47.8423 H   0  0  0  0  0  0  0  0  0  0  0  0
   62.0551   32.2055   47.8423 H   0  0  0  0  0  0  0  0  0  0  0  0
   59.7610   31.1733   45.9765 H   0  0  0  0  0  0  0  0  0  0  0  0
   61.3828   30.3842   45.8453 H   0  0  0  0  0  0  0  0  0  0  0  0
   61.5890   27.8893   46.3552 H   0  0  0  0  0  0  0  0  0  0  0  0
   60.4268   25.7032   46.0013 H   0  0  0  0  0  0  0  0  0  0  0  0
   57.9564   25.6517   45.6347 H   0  0  0  0  0  0  0  0  0  0  0  0
   55.6855   28.8512   43.1244 H   0  0  0  0  0  0  0  0  0  0  0  0
   54.5041   30.0624   43.7551 H   0  0  0  0  0  0  0  0  0  0  0  0
   56.9288   30.8367   41.6351 H   0  0  0  0  0  0  0  0  0  0  0  0
   58.6939   32.7149   42.4512 H   0  0  0  0  0  0  0  0  0  0  0  0
   58.4990   32.8333   45.1153 H   0  0  0  0  0  0  0  0  0  0  0  0
   59.3150   30.4049   50.9160 H   0  0  0  0  0  0  0  0  0  0  0  0
   60.5866   31.5388   50.3159 H   0  0  0  0  0  0  0  0  0  0  0  0
   57.5699   31.8054   49.8718 H   0  0  0  0  0  0  0  0  0  0  0  0
   58.5787   32.7834   51.0003 H   0  0  0  0  0  0  0  0  0  0  0  0
   57.2430   32.5128   47.7661 H   0  0  0  0  0  0  0  0  0  0  0  0
   57.7933   34.0449   45.8678 H   0  0  0  0  0  0  0  0  0  0  0  0
  1  2  1  0
  2  3  1  0
  3  4  1  0
  4  5  2  0
  5  6  1  0
  6  7  2  0
  7  8  1  0
  8  9  1  0
  9 10  2  0
  9 11  1  0
 11 12  1  0
 12 13  1  0
 13 14  2  0
 14 15  1  0
 15 16  2  0
 16 17  1  0
  8 18  2  0
  2 19  1  0
 19 20  2  0
 19 21  1  0
 21 22  1  0
 22 23  1  0
 23 24  1  0
 24 25  2  0
 25 26  1  0
 26 27  2  0
 26 28  1  0
 28 29  1  0
 29 30  2  0
 18  4  1  0
 29 23  1  0
 17 13  1  0
  1 31  1  0
  1 32  1  0
  1 33  1  0
  3 34  1  0
  3 35  1  0
  5 36  1  0
  6 37  1  0
  7 38  1  0
 12 39  1  0
 12 40  1  0
 14 41  1  0
 15 42  1  0
 16 43  1  0
 21 44  1  0
 21 45  1  0
 22 46  1  0
 22 47  1  0
 24 48  1  0
 25 49  1  0
M  CHG  2  11  -1  28  -1
M  END
>  <UniqueID>  (32) 
28

>  <SMILES>  (32) 
CN(Cc1cccc(C(=O)[N-]Cc2ccco2)n1)C(=O)CCn1ccc(=O)[n-]c1=O

>  <Energy>  (32) 
70.32491760332162

>  <Genealogy>  (32) 
CN(Cc1cccc(C(=O)[N-]Cc2ccco2)n1)C(=O)CCn1ccc(=O)[n-]c1=O (protonated)
CN(Cc1cccc(C(=O)[N-]Cc2ccco2)n1)C(=O)CCn1ccc(=O)[n-]c1=O (3D coordinates assigned)
CN(Cc1cccc(C(=O)[N-]Cc2ccco2)n1)C(=O)CCn1ccc(=O)[n-]c1=O (optimized conformer: 70.32491760332162 kcal/mol)

>  <smiles>  (32) 
CN(Cc1cccc(C(=O)NCc2ccco2)n1)C(=O)CCn1ccc(=O)[nH]c1=O

>  <score_type>  (32) 
oracle

>  <origin>  (32) 
adg

>  <m_score__min__energy>  (32) 
-11.68

>  <m_primary>  (32) 
energy

$$$$
32:0
     RDKit          3D

 44 46  0  0  0  0  0  0  0  0999 V2000
   58.8740   31.0280   44.4110 O   0  0  0  0  0  0  0  0  0  0  0  0
   59.0550   30.2020   45.3440 C   0  0  0  0  0  0  0  0  0  0  0  0
   60.1740   30.3740   46.2220 N   0  0  0  0  0  0  0  0  0  0  0  0
   60.0740   30.9360   47.5640 C   0  0  0  0  0  0  0  0  0  0  0  0
   61.2900   31.7740   47.8550 C   0  0  0  0  0  0  0  0  0  0  0  0
   62.1670   31.3380   48.8670 C   0  0  0  0  0  0  0  0  0  0  0  0
   63.3510   32.0240   49.1300 C   0  0  0  0  0  0  0  0  0  0  0  0
   63.6920   33.1400   48.3710 C   0  0  0  0  0  0  0  0  0  0  0  0
   62.8440   33.5830   47.3570 C   0  0  0  0  0  0  0  0  0  0  0  0
   61.6180   32.9370   47.1010 C   0  0  0  0  0  0  0  0  0  0  0  0
   60.7420   33.4750   45.9720 C   0  0  0  0  0  0  0  0  0  0  0  0
   59.6520   34.3980   46.3910 N   0  0  0  0  0  0  0  0  0  0  0  0
   58.8750   34.0200   47.5850 C   0  0  0  0  0  0  0  0  0  0  0  0
   57.6740   33.1120   47.2290 C   0  0  0  0  0  0  0  0  0  0  0  0
   57.5150   32.9410   45.8330 O   0  0  0  0  0  0  0  0  0  0  0  0
   57.4570   34.2020   45.2000 C   0  0  0  0  0  0  0  0  0  0  0  0
   58.8050   34.9400   45.3100 C   0  0  0  0  0  0  0  0  0  0  0  0
   58.0770   29.1190   45.5490 C   0  0  0  0  0  0  0  0  0  0  0  0
   58.5040   27.9100   46.1110 C   0  0  0  0  0  0  0  0  0  0  0  0
   57.6080   26.8510   46.2600 C   0  0  0  0  0  0  0  0  0  0  0  0
   56.2840   27.0160   45.8510 C   0  0  0  0  0  0  0  0  0  0  0  0
   55.4620   26.0690   45.9720 O   0  0  0  0  0  0  0  0  0  0  0  0
   55.8780   28.2000   45.3220 N   0  0  0  0  0  0  0  0  0  0  0  0
   56.7250   29.2510   45.1650 C   0  0  0  0  0  0  0  0  0  0  0  0
   56.2230   30.4430   44.6390 O   0  0  0  0  0  0  0  0  0  0  0  0
   59.1729   31.5633   47.6315 H   0  0  0  0  0  0  0  0  0  0  0  0
   60.0109   30.1186   48.2974 H   0  0  0  0  0  0  0  0  0  0  0  0
   61.9142   30.4448   49.4572 H   0  0  0  0  0  0  0  0  0  0  0  0
   64.0162   31.6837   49.9373 H   0  0  0  0  0  0  0  0  0  0  0  0
   64.6327   33.6736   48.5718 H   0  0  0  0  0  0  0  0  0  0  0  0
   63.1365   34.4505   46.7471 H   0  0  0  0  0  0  0  0  0  0  0  0
   61.3913   34.0151   45.2673 H   0  0  0  0  0  0  0  0  0  0  0  0
   60.2433   32.5984   45.5328 H   0  0  0  0  0  0  0  0  0  0  0  0
   59.5338   33.4812   48.2819 H   0  0  0  0  0  0  0  0  0  0  0  0
   58.4824   34.9406   48.0414 H   0  0  0  0  0  0  0  0  0  0  0  0
   57.8301   32.1251   47.6892 H   0  0  0  0  0  0  0  0  0  0  0  0
   56.7642   33.5987   47.6105 H   0  0  0  0  0  0  0  0  0  0  0  0
   57.2110   34.0596   44.1374 H   0  0  0  0  0  0  0  0  0  0  0  0
   56.6853   34.8077   45.6976 H   0  0  0  0  0  0  0  0  0  0  0  0
   59.3423   34.8401   44.3554 H   0  0  0  0  0  0  0  0  0  0  0  0
   58.5943   35.9942   45.5430 H   0  0  0  0  0  0  0  0  0  0  0  0
   59.5486   27.7947   46.4359 H   0  0  0  0  0  0  0  0  0  0  0  0
   57.9413   25.8971   46.6948 H   0  0  0  0  0  0  0  0  0  0  0  0
   56.7550   31.3040   44.6330 H   0  0  0  0  0  0  0  0  0  0  0  0
  1  2  2  0
  2  3  1  0
  3  4  1  0
  4  5  1  0
  5  6  2  0
  6  7  1  0
  7  8  2  0
  8  9  1  0
  9 10  2  0
 10 11  1  0
 11 12  1  0
 12 13  1  0
 13 14  1  0
 14 15  1  0
 15 16  1  0
 16 17  1  0
  2 18  1  0
 18 19  1  0
 19 20  2  0
 20 21  1  0
 21 22  2  0
 21 23  1  0
 23 24  1  0
 24 25  1  0
 10  5  1  0
 17 12  1  0
 24 18  2  0
  4 26  1  0
  4 27  1  0
  6 28  1  0
  7 29  1  0
  8 30  1  0
  9 31  1  0
 11 32  1  0
 11 33  1  0
 13 34  1  0
 13 35  1  0
 14 36  1  0
 14 37  1  0
 16 38  1  0
 16 39  1  0
 17 40  1  0
 17 41  1  0
 19 42  1  0
 20 43  1  0
 25 44  1  0
M  CHG  2   3  -1  23  -1
M  END
>  <UniqueID>  (33) 
29

>  <SMILES>  (33) 
O=C([N-]Cc1ccccc1CN1CCOCC1)c1ccc(=O)[n-]c1O

>  <Energy>  (33) 
71.03104548230368

>  <Genealogy>  (33) 
O=C([N-]Cc1ccccc1CN1CCOCC1)c1ccc(=O)[n-]c1O (protonated)
O=C([N-]Cc1ccccc1CN1CCOCC1)c1ccc(=O)[n-]c1O (3D coordinates assigned)
O=C([N-]Cc1ccccc1CN1CCOCC1)c1ccc(=O)[n-]c1O (nonaromatic ring conformer: 71.03104548230368 kcal/mol)

>  <smiles>  (33) 
O=C(NCc1ccccc1CN1CCOCC1)c1ccc(=O)[nH]c1O

>  <score_type>  (33) 
oracle

>  <origin>  (33) 
adg

>  <m_score__min__energy>  (33) 
-12.449999999999999

>  <m_primary>  (33) 
energy

$$$$
33:0
     RDKit          3D

 68 71  0  0  0  0  0  0  0  0999 V2000
   55.1740   30.8320   52.1630 C   0  0  0  0  0  0  0  0  0  0  0  0
   56.6510   31.0550   51.8530 C   0  0  0  0  0  0  0  0  0  0  0  0
   57.3270   31.9100   52.9370 C   0  0  0  0  0  0  0  0  0  0  0  0
   58.8390   31.7990   52.9310 C   0  0  0  0  0  0  0  0  0  0  0  0
   59.4070   31.0010   53.7380 O   0  0  0  0  0  0  0  0  0  0  0  0
   59.6570   32.6240   52.0690 N   0  0  0  0  0  0  0  0  0  0  0  0
   59.0780   33.4890   51.0240 C   0  0  0  0  0  0  0  0  0  0  0  0
   59.8510   33.3450   49.7020 C   0  0  0  0  0  0  0  0  0  0  0  0
   61.3840   33.2150   49.8790 C   0  0  0  0  0  0  0  0  0  0  0  0
   62.0880   34.0710   48.9220 N   0  0  0  0  0  0  0  0  0  0  0  0
   62.4240   33.2440   47.4240 S   0  0  0  0  0  0  0  0  0  0  0  0
   63.5200   32.2460   47.6920 O   0  0  0  0  0  0  0  0  0  0  0  0
   62.9460   34.1990   46.3870 O   0  0  0  0  0  0  0  0  0  0  0  0
   60.9910   32.3460   46.8610 C   0  0  0  0  0  0  0  0  0  0  0  0
   60.9070   30.9970   47.2560 C   0  0  0  0  0  0  0  0  0  0  0  0
   59.8140   30.2090   46.9090 C   0  0  0  0  0  0  0  0  0  0  0  0
   58.7590   30.7590   46.1920 C   0  0  0  0  0  0  0  0  0  0  0  0
   58.7670   32.1170   45.8250 C   0  0  0  0  0  0  0  0  0  0  0  0
   57.6430   32.6970   45.1820 C   0  0  0  0  0  0  0  0  0  0  0  0
   56.4030   31.9880   45.0300 N   0  0  0  0  0  0  0  0  0  0  0  0
   56.2880   30.6560   44.5160 C   0  0  0  0  0  0  0  0  0  0  0  0
   55.3400   29.9310   44.9170 O   0  0  0  0  0  0  0  0  0  0  0  0
   57.3130   30.0740   43.5740 C   0  0  0  0  0  0  0  0  0  0  0  0
   57.1970   28.5490   43.4660 C   0  0  0  0  0  0  0  0  0  0  0  0
   57.7980   27.8430   44.6600 C   0  0  0  0  0  0  0  0  0  0  0  0
   59.1970   27.7400   44.7800 C   0  0  0  0  0  0  0  0  0  0  0  0
   59.7690   27.0990   45.8830 C   0  0  0  0  0  0  0  0  0  0  0  0
   58.9520   26.5660   46.8860 C   0  0  0  0  0  0  0  0  0  0  0  0
   57.5620   26.6810   46.7900 C   0  0  0  0  0  0  0  0  0  0  0  0
   56.9800   27.3190   45.6840 C   0  0  0  0  0  0  0  0  0  0  0  0
   55.5920   27.4460   45.6040 O   0  0  0  0  0  0  0  0  0  0  0  0
   57.7170   34.0060   44.7010 C   0  0  0  0  0  0  0  0  0  0  0  0
   58.8560   34.7720   44.9220 C   0  0  0  0  0  0  0  0  0  0  0  0
   59.9380   34.2430   45.6270 C   0  0  0  0  0  0  0  0  0  0  0  0
   59.9180   32.9140   46.1070 C   0  0  0  0  0  0  0  0  0  0  0  0
   61.8250   33.5830   51.2990 C   0  0  0  0  0  0  0  0  0  0  0  0
   61.1050   32.6890   52.3210 C   0  0  0  0  0  0  0  0  0  0  0  0
   55.0274   30.8099   53.2530 H   0  0  0  0  0  0  0  0  0  0  0  0
   54.5807   31.6508   51.7298 H   0  0  0  0  0  0  0  0  0  0  0  0
   54.8489   29.8746   51.7298 H   0  0  0  0  0  0  0  0  0  0  0  0
   57.1569   30.0797   51.7988 H   0  0  0  0  0  0  0  0  0  0  0  0
   56.7276   31.5873   50.8934 H   0  0  0  0  0  0  0  0  0  0  0  0
   57.0534   32.9627   52.7726 H   0  0  0  0  0  0  0  0  0  0  0  0
   56.9766   31.5383   53.9112 H   0  0  0  0  0  0  0  0  0  0  0  0
   58.0285   33.2031   50.8605 H   0  0  0  0  0  0  0  0  0  0  0  0
   59.1437   34.5352   51.3574 H   0  0  0  0  0  0  0  0  0  0  0  0
   59.4853   32.4463   49.1837 H   0  0  0  0  0  0  0  0  0  0  0  0
   59.6742   34.2667   49.1282 H   0  0  0  0  0  0  0  0  0  0  0  0
   61.6405   32.1614   49.6944 H   0  0  0  0  0  0  0  0  0  0  0  0
   61.7215   30.5575   47.8506 H   0  0  0  0  0  0  0  0  0  0  0  0
   59.7853   29.1493   47.2028 H   0  0  0  0  0  0  0  0  0  0  0  0
   57.9065   30.1246   45.9076 H   0  0  0  0  0  0  0  0  0  0  0  0
   57.1667   30.5124   42.5758 H   0  0  0  0  0  0  0  0  0  0  0  0
   58.3111   30.3105   43.9714 H   0  0  0  0  0  0  0  0  0  0  0  0
   56.1330   28.2792   43.3939 H   0  0  0  0  0  0  0  0  0  0  0  0
   57.7530   28.2312   42.5716 H   0  0  0  0  0  0  0  0  0  0  0  0
   59.8448   28.1670   44.0002 H   0  0  0  0  0  0  0  0  0  0  0  0
   60.8628   27.0136   45.9624 H   0  0  0  0  0  0  0  0  0  0  0  0
   59.4033   26.0565   47.7501 H   0  0  0  0  0  0  0  0  0  0  0  0
   56.9221   26.2697   47.5846 H   0  0  0  0  0  0  0  0  0  0  0  0
   55.1440   28.0740   44.9410 H   0  0  0  0  0  0  0  0  0  0  0  0
   56.8698   34.4332   44.1444 H   0  0  0  0  0  0  0  0  0  0  0  0
   58.9047   35.8019   44.5386 H   0  0  0  0  0  0  0  0  0  0  0  0
   60.8217   34.8714   45.8123 H   0  0  0  0  0  0  0  0  0  0  0  0
   62.9117   33.4399   51.3916 H   0  0  0  0  0  0  0  0  0  0  0  0
   61.5692   34.6346   51.4955 H   0  0  0  0  0  0  0  0  0  0  0  0
   61.5224   31.6730   52.2611 H   0  0  0  0  0  0  0  0  0  0  0  0
   61.2580   33.1223   53.3204 H   0  0  0  0  0  0  0  0  0  0  0  0
  1  2  1  0
  2  3  1  0
  3  4  1  0
  4  5  2  0
  4  6  1  0
  6  7  1  0
  7  8  1  0
  8  9  1  0
  9 10  1  0
 10 11  1  0
 11 12  2  0
 11 13  2  0
 11 14  1  0
 14 15  2  0
 15 16  1  0
 16 17  2  0
 17 18  1  0
 18 19  2  0
 19 20  1  0
 20 21  1  0
 21 22  2  0
 21 23  1  0
 23 24  1  0
 24 25  1  0
 25 26  2  0
 26 27  1  0
 27 28  2  0
 28 29  1  0
 29 30  2  0
 30 31  1  0
 19 32  1  0
 32 33  2  0
 33 34  1  0
 34 35  2  0
  9 36  1  0
 36 37  1  0
 37  6  1  0
 35 14  1  0
 35 18  1  0
 30 25  1  0
  1 38  1  0
  1 39  1  0
  1 40  1  0
  2 41  1  0
  2 42  1  0
  3 43  1  0
  3 44  1  0
  7 45  1  0
  7 46  1  0
  8 47  1  0
  8 48  1  0
  9 49  1  0
 15 50  1  0
 16 51  1  0
 17 52  1  0
 23 53  1  0
 23 54  1  0
 24 55  1  0
 24 56  1  0
 26 57  1  0
 27 58  1  0
 28 59  1  0
 29 60  1  0
 31 61  1  0
 32 62  1  0
 33 63  1  0
 34 64  1  0
 36 65  1  0
 36 66  1  0
 37 67  1  0
 37 68  1  0
M  CHG  2  10  -1  20  -1
M  END
>  <UniqueID>  (34) 
30

>  <SMILES>  (34) 
CCCC(=O)N1CCC([N-]S(=O)(=O)c2cccc3c([N-]C(=O)CCc4ccccc4O)cccc23)CC1

>  <Energy>  (34) 
80.39839749165326

>  <Genealogy>  (34) 
CCCC(=O)N1CCC([N-]S(=O)(=O)c2cccc3c([N-]C(=O)CCc4ccccc4O)cccc23)CC1 (protonated)
CCCC(=O)N1CCC([N-]S(=O)(=O)c2cccc3c([N-]C(=O)CCc4ccccc4O)cccc23)CC1 (3D coordinates assigned)
CCCC(=O)N1CCC([N-]S(=O)(=O)c2cccc3c([N-]C(=O)CCc4ccccc4O)cccc23)CC1 (nonaromatic ring conformer: 80.39839749165326 kcal/mol)

>  <smiles>  (34) 
CCCC(=O)N1CCC(NS(=O)(=O)c2cccc3c(NC(=O)CCc4ccccc4O)cccc23)CC1

>  <score_type>  (34) 
oracle

>  <origin>  (34) 
adg

>  <m_score__min__energy>  (34) 
-13.710000000000001

>  <m_primary>  (34) 
energy

$$$$
34:0
     RDKit          3D

 46 48  0  0  0  0  0  0  0  0999 V2000
   59.9920   27.3510   45.6220 N   0  0  0  0  0  0  0  0  0  0  0  0
   58.7730   26.6680   45.9440 C   0  0  0  0  0  0  0  0  0  0  0  0
   58.8420   25.3690   46.4730 C   0  0  0  0  0  0  0  0  0  0  0  0
   57.6760   24.6520   46.7460 C   0  0  0  0  0  0  0  0  0  0  0  0
   57.7550   23.3940   47.2490 F   0  0  0  0  0  0  0  0  0  0  0  0
   56.4300   25.2250   46.4980 C   0  0  0  0  0  0  0  0  0  0  0  0
   56.3450   26.5210   45.9840 C   0  0  0  0  0  0  0  0  0  0  0  0
   57.5100   27.2590   45.7010 C   0  0  0  0  0  0  0  0  0  0  0  0
   57.4130   28.6140   45.2220 N   0  0  0  0  0  0  0  0  0  0  0  0
   57.0140   28.9620   43.8580 C   0  0  0  0  0  0  0  0  0  0  0  0
   56.8320   30.4410   43.7390 C   0  0  0  0  0  0  0  0  0  0  0  0
   56.6790   30.9610   42.6010 O   0  0  0  0  0  0  0  0  0  0  0  0
   56.8830   31.2540   44.9170 N   0  0  0  0  0  0  0  0  0  0  0  0
   57.7550   32.3740   45.1470 C   0  0  0  0  0  0  0  0  0  0  0  0
   57.4480   33.6520   44.6450 C   0  0  0  0  0  0  0  0  0  0  0  0
   58.3040   34.7300   44.8820 C   0  0  0  0  0  0  0  0  0  0  0  0
   59.4670   34.5490   45.6310 C   0  0  0  0  0  0  0  0  0  0  0  0
   59.7730   33.2910   46.1540 C   0  0  0  0  0  0  0  0  0  0  0  0
   58.9240   32.1970   45.9180 C   0  0  0  0  0  0  0  0  0  0  0  0
   59.2580   30.8780   46.4970 C   0  0  0  0  0  0  0  0  0  0  0  0
   59.7240   29.9820   45.7420 O   0  0  0  0  0  0  0  0  0  0  0  0
   59.0740   30.6040   47.8980 N   0  0  0  0  0  0  0  0  0  0  0  0
   59.2650   29.2830   48.4700 C   0  0  0  0  0  0  0  0  0  0  0  0
   59.0150   29.4420   49.9630 C   0  0  0  0  0  0  0  0  0  0  0  0
   59.1400   30.9370   50.2440 C   0  0  0  0  0  0  0  0  0  0  0  0
   58.8910   31.6310   48.9130 C   0  0  0  0  0  0  0  0  0  0  0  0
   60.9200   26.8770   45.6580 H   0  0  0  0  0  0  0  0  0  0  0  0
   59.9880   28.3760   45.4200 H   0  0  0  0  0  0  0  0  0  0  0  0
   59.8227   24.9130   46.6738 H   0  0  0  0  0  0  0  0  0  0  0  0
   55.5123   24.6559   46.7073 H   0  0  0  0  0  0  0  0  0  0  0  0
   55.3579   26.9695   45.7985 H   0  0  0  0  0  0  0  0  0  0  0  0
   57.6200   29.4030   45.8740 H   0  0  0  0  0  0  0  0  0  0  0  0
   57.7941   28.6335   43.1555 H   0  0  0  0  0  0  0  0  0  0  0  0
   56.0634   28.4615   43.6215 H   0  0  0  0  0  0  0  0  0  0  0  0
   56.5276   33.8033   44.0619 H   0  0  0  0  0  0  0  0  0  0  0  0
   58.0607   35.7235   44.4773 H   0  0  0  0  0  0  0  0  0  0  0  0
   60.1434   35.3979   45.8097 H   0  0  0  0  0  0  0  0  0  0  0  0
   60.6846   33.1558   46.7546 H   0  0  0  0  0  0  0  0  0  0  0  0
   58.5498   28.5694   48.0350 H   0  0  0  0  0  0  0  0  0  0  0  0
   60.2733   28.8935   48.2659 H   0  0  0  0  0  0  0  0  0  0  0  0
   58.0076   29.0854   50.2236 H   0  0  0  0  0  0  0  0  0  0  0  0
   59.7287   28.8550   50.5597 H   0  0  0  0  0  0  0  0  0  0  0  0
   58.3911   31.2513   50.9859 H   0  0  0  0  0  0  0  0  0  0  0  0
   60.1286   31.1907   50.6542 H   0  0  0  0  0  0  0  0  0  0  0  0
   57.8673   32.0317   48.8741 H   0  0  0  0  0  0  0  0  0  0  0  0
   59.5738   32.4801   48.7618 H   0  0  0  0  0  0  0  0  0  0  0  0
  1  2  1  0
  2  3  2  0
  3  4  1  0
  4  5  1  0
  4  6  2  0
  6  7  1  0
  7  8  2  0
  8  9  1  0
  9 10  1  0
 10 11  1  0
 11 12  2  0
 11 13  1  0
 13 14  1  0
 14 15  2  0
 15 16  1  0
 16 17  2  0
 17 18  1  0
 18 19  2  0
 19 20  1  0
 20 21  2  0
 20 22  1  0
 22 23  1  0
 23 24  1  0
 24 25  1  0
 25 26  1  0
  8  2  1  0
 19 14  1  0
 26 22  1  0
  1 27  1  0
  1 28  1  0
  3 29  1  0
  6 30  1  0
  7 31  1  0
  9 32  1  0
 10 33  1  0
 10 34  1  0
 15 35  1  0
 16 36  1  0
 17 37  1  0
 18 38  1  0
 23 39  1  0
 23 40  1  0
 24 41  1  0
 24 42  1  0
 25 43  1  0
 25 44  1  0
 26 45  1  0
 26 46  1  0
M  CHG  1  13  -1
M  END
>  <UniqueID>  (35) 
31

>  <SMILES>  (35) 
Nc1cc(F)ccc1NCC(=O)[N-]c1ccccc1C(=O)N1CCCC1

>  <Energy>  (35) 
57.81444300748782

>  <Genealogy>  (35) 
Nc1cc(F)ccc1NCC(=O)[N-]c1ccccc1C(=O)N1CCCC1 (protonated)
Nc1cc(F)ccc1NCC(=O)[N-]c1ccccc1C(=O)N1CCCC1 (3D coordinates assigned)
Nc1cc(F)ccc1NCC(=O)[N-]c1ccccc1C(=O)N1CCCC1 (nonaromatic ring conformer: 57.81444300748782 kcal/mol)

>  <smiles>  (35) 
Nc1cc(F)ccc1NCC(=O)Nc1ccccc1C(=O)N1CCCC1

>  <score_type>  (35) 
oracle

>  <origin>  (35) 
adg

>  <m_score__min__energy>  (35) 
-10.050000000000001

>  <m_primary>  (35) 
energy

$$$$
35:0
     RDKit          3D

 54 57  0  0  1  0  0  0  0  0999 V2000
   55.1400   29.7210   43.5990 C   0  0  0  0  0  0  0  0  0  0  0  0
   56.5060   29.8240   44.2170 C   0  0  0  0  0  0  0  0  0  0  0  0
   56.8880   31.0070   44.7110 N   0  0  0  0  0  0  0  0  0  0  0  0
   58.1090   31.2020   45.2910 C   0  0  0  0  0  0  0  0  0  0  0  0
   58.4970   32.5040   45.8190 C   0  0  0  0  0  0  0  0  0  0  0  0
   58.6220   33.6350   45.0490 C   0  0  0  0  0  0  0  0  0  0  0  0
   59.0040   34.8120   45.6980 C   0  0  0  0  0  0  0  0  0  0  0  0
   59.2420   34.8400   47.0290 N   0  0  0  0  0  0  0  0  0  0  0  0
   59.1120   33.7180   47.7550 C   0  0  0  0  0  0  0  0  0  0  0  0
   59.3520   33.8030   49.0210 N   0  0  0  0  0  0  0  0  0  0  0  0
   58.7490   32.6050   47.1310 N   0  0  0  0  0  0  0  0  0  0  0  0
   58.9260   30.0920   45.3360 C   0  0  0  0  0  0  0  0  0  0  0  0
   58.5410   28.8570   44.8280 C   0  0  0  0  0  0  0  0  0  0  0  0
   59.3170   27.8210   44.8760 N   0  0  0  0  0  0  0  0  0  0  0  0
   59.1380   26.7800   45.8280 C   0  0  0  0  0  0  0  0  0  0  0  0
   58.0790   26.1070   45.9310 O   0  0  0  0  0  0  0  0  0  0  0  0
   60.2820   26.4950   46.7390 C   0  0  0  0  0  0  0  0  0  0  0  0
   60.4360   27.5550   47.7650 C   0  0  0  0  0  0  0  0  0  0  0  0
   60.3830   27.1840   49.0970 C   0  0  0  0  0  0  0  0  0  0  0  0
   60.5150   28.0970   50.1240 C   0  0  0  0  0  0  0  0  0  0  0  0
   60.7100   29.4360   49.7740 C   0  0  0  0  0  0  0  0  0  0  0  0
   60.7630   29.8060   48.4260 C   0  0  0  0  0  0  0  0  0  0  0  0
   60.9640   31.1910   48.1730 N   0  0  0  0  0  0  0  0  0  0  0  0
   62.0830   31.6970   47.4520 C   0  0  0  0  0  0  0  0  0  0  0  0
   62.9890   30.9390   46.9830 O   0  0  0  0  0  0  0  0  0  0  0  0
   62.1410   33.1800   47.2740 C   0  0  0  0  0  0  0  0  0  0  0  0
   63.4510   33.6610   46.6860 C   0  0  0  0  0  0  0  0  0  0  0  0
   63.9670   33.8400   48.0930 C   0  0  0  0  0  0  0  0  0  0  0  0
   62.5320   33.8550   48.5730 C   0  0  0  0  0  0  0  0  0  0  0  0
   60.6290   28.8770   47.4120 C   0  0  0  0  0  0  0  0  0  0  0  0
   57.3300   28.7620   44.2790 N   0  0  0  0  0  0  0  0  0  0  0  0
   54.3814   29.6638   44.3936 H   0  0  0  0  0  0  0  0  0  0  0  0
   54.9518   30.6075   42.9755 H   0  0  0  0  0  0  0  0  0  0  0  0
   55.0869   28.8163   42.9755 H   0  0  0  0  0  0  0  0  0  0  0  0
   58.4293   33.6148   43.9662 H   0  0  0  0  0  0  0  0  0  0  0  0
   59.1137   35.7370   45.1129 H   0  0  0  0  0  0  0  0  0  0  0  0
   59.5250   35.7410   47.4760 H   0  0  0  0  0  0  0  0  0  0  0  0
   59.4880   34.7600   49.4370 H   0  0  0  0  0  0  0  0  0  0  0  0
   59.9223   30.1879   45.7922 H   0  0  0  0  0  0  0  0  0  0  0  0
   60.1071   25.5327   47.2425 H   0  0  0  0  0  0  0  0  0  0  0  0
   61.2023   26.4602   46.1374 H   0  0  0  0  0  0  0  0  0  0  0  0
   60.2302   26.1236   49.3465 H   0  0  0  0  0  0  0  0  0  0  0  0
   60.4685   27.7828   51.1771 H   0  0  0  0  0  0  0  0  0  0  0  0
   60.8218   30.1989   50.5585 H   0  0  0  0  0  0  0  0  0  0  0  0
   60.2340   31.8430   48.5470 H   0  0  0  0  0  0  0  0  0  0  0  0
   61.1903   33.3808   46.7584 H   0  0  0  0  0  0  0  0  0  0  0  0
   63.9901   32.9053   46.0959 H   0  0  0  0  0  0  0  0  0  0  0  0
   63.4818   34.4845   45.9573 H   0  0  0  0  0  0  0  0  0  0  0  0
   64.5641   32.9964   48.4696 H   0  0  0  0  0  0  0  0  0  0  0  0
   64.6619   34.6541   48.3465 H   0  0  0  0  0  0  0  0  0  0  0  0
   62.3462   33.2522   49.4742 H   0  0  0  0  0  0  0  0  0  0  0  0
   62.0482   34.7862   48.9027 H   0  0  0  0  0  0  0  0  0  0  0  0
   60.6746   29.1806   46.3557 H   0  0  0  0  0  0  0  0  0  0  0  0
   57.0020   27.8610   43.8880 H   0  0  0  0  0  0  0  0  0  0  0  0
  1  2  1  0
  2  3  2  0
  3  4  1  0
  4  5  1  0
  5  6  1  0
  6  7  2  0
  7  8  1  0
  8  9  1  0
  9 10  2  3
  9 11  1  0
  4 12  2  0
 12 13  1  0
 13 14  2  0
 14 15  1  0
 15 16  2  0
 15 17  1  0
 17 18  1  0
 18 19  2  0
 19 20  1  0
 20 21  2  0
 21 22  1  0
 22 23  1  0
 23 24  1  0
 24 25  2  0
 24 26  1  0
 26 27  1  0
 27 28  1  0
 28 29  1  0
 22 30  2  0
 13 31  1  0
 31  2  1  0
 11  5  2  0
 30 18  1  0
 29 26  1  0
  1 32  1  0
  1 33  1  0
  1 34  1  0
  6 35  1  0
  7 36  1  0
  8 37  1  0
 10 38  1  0
 12 39  1  0
 17 40  1  0
 17 41  1  0
 19 42  1  0
 20 43  1  0
 21 44  1  0
 23 45  1  0
 26 46  1  0
 27 47  1  0
 27 48  1  0
 28 49  1  0
 28 50  1  0
 29 51  1  0
 29 52  1  0
 30 53  1  0
 31 54  1  0
M  END
>  <smiles>  (36) 
Cc1nc(-c2cc[nH]c(=N)n2)cc(=NC(=O)Cc2cccc(NC(=O)C3CCC3)c2)[nH]1

>  <score_type>  (36) 
oracle

>  <origin>  (36) 
adg

>  <m_score__min__energy>  (36) 
-9.4800000000000004

>  <m_primary>  (36) 
energy

$$$$
36:0
     RDKit          3D

 45 47  0  0  0  0  0  0  0  0999 V2000
   56.2020   24.7010   45.9290 H   0  0  0  0  0  0  0  0  0  0  0  0
   55.6460   24.4360   46.7350 O   0  0  0  0  0  0  0  0  0  0  0  0
   54.5730   23.5520   46.6240 C   0  0  0  0  0  0  0  0  0  0  0  0
   54.0010   22.9810   47.7680 C   0  0  0  0  0  0  0  0  0  0  0  0
   54.4011   23.2236   48.7635 H   0  0  0  0  0  0  0  0  0  0  0  0
   52.9230   22.1040   47.6430 C   0  0  0  0  0  0  0  0  0  0  0  0
   52.4669   21.6535   48.5369 H   0  0  0  0  0  0  0  0  0  0  0  0
   52.4290   21.8040   46.3720 C   0  0  0  0  0  0  0  0  0  0  0  0
   51.5814   21.1117   46.2609 H   0  0  0  0  0  0  0  0  0  0  0  0
   52.9950   22.3670   45.2720 N   0  0  0  0  0  0  0  0  0  0  0  0
   54.0500   23.2280   45.3610 C   0  0  0  0  0  0  0  0  0  0  0  0
   54.5720   23.7690   44.2980 N   0  0  0  0  0  0  0  0  0  0  0  0
   55.7020   23.2950   43.5420 C   0  0  0  0  0  0  0  0  0  0  0  0
   55.5910   22.3340   42.7350 O   0  0  0  0  0  0  0  0  0  0  0  0
   57.0410   23.9480   43.7170 C   0  0  0  0  0  0  0  0  0  0  0  0
   57.7533   23.5026   43.0069 H   0  0  0  0  0  0  0  0  0  0  0  0
   56.9307   25.0263   43.5295 H   0  0  0  0  0  0  0  0  0  0  0  0
   57.5320   23.7670   45.0450 O   0  0  0  0  0  0  0  0  0  0  0  0
   58.7470   24.3010   45.4920 C   0  0  0  0  0  0  0  0  0  0  0  0
   59.7550   23.5530   45.6270 O   0  0  0  0  0  0  0  0  0  0  0  0
   58.8560   25.7490   45.7670 C   0  0  0  0  0  0  0  0  0  0  0  0
   60.0300   26.2750   46.3350 C   0  0  0  0  0  0  0  0  0  0  0  0
   60.8844   25.6123   46.5370 H   0  0  0  0  0  0  0  0  0  0  0  0
   60.1170   27.6340   46.6440 C   0  0  0  0  0  0  0  0  0  0  0  0
   61.0409   28.0379   47.0837 H   0  0  0  0  0  0  0  0  0  0  0  0
   59.0360   28.4820   46.3970 C   0  0  0  0  0  0  0  0  0  0  0  0
   59.1099   29.5513   46.6443 H   0  0  0  0  0  0  0  0  0  0  0  0
   57.8530   27.9730   45.8330 C   0  0  0  0  0  0  0  0  0  0  0  0
   56.7080   28.8020   45.5920 N   0  0  0  0  0  0  0  0  0  0  0  0
   56.5950   30.0030   44.3470 S   0  0  0  0  0  0  0  0  0  0  0  0
   55.1600   30.4220   44.1980 O   0  0  0  0  0  0  0  0  0  0  0  0
   57.0770   29.4160   43.0510 O   0  0  0  0  0  0  0  0  0  0  0  0
   57.5550   31.4120   44.7860 C   0  0  0  0  0  0  0  0  0  0  0  0
   57.8120   32.4120   43.8350 C   0  0  0  0  0  0  0  0  0  0  0  0
   57.4231   32.3081   42.8113 H   0  0  0  0  0  0  0  0  0  0  0  0
   58.5610   33.5400   44.1850 C   0  0  0  0  0  0  0  0  0  0  0  0
   58.7561   34.3237   43.4382 H   0  0  0  0  0  0  0  0  0  0  0  0
   59.0620   33.6720   45.4840 C   0  0  0  0  0  0  0  0  0  0  0  0
   59.7880   34.7640   45.8210 F   0  0  0  0  0  0  0  0  0  0  0  0
   58.8130   32.6750   46.4330 C   0  0  0  0  0  0  0  0  0  0  0  0
   59.2077   32.7786   47.4545 H   0  0  0  0  0  0  0  0  0  0  0  0
   58.0640   31.5480   46.0860 C   0  0  0  0  0  0  0  0  0  0  0  0
   57.8728   30.7649   46.8345 H   0  0  0  0  0  0  0  0  0  0  0  0
   57.7770   26.6130   45.5080 C   0  0  0  0  0  0  0  0  0  0  0  0
   56.8620   26.2156   45.0444 H   0  0  0  0  0  0  0  0  0  0  0  0
  1  2  1  0
  2  3  1  0
  3  4  2  0
  4  5  1  0
  4  6  1  0
  6  7  1  0
  6  8  2  0
  8  9  1  0
  8 10  1  0
 10 11  1  0
 11 12  2  0
 12 13  1  0
 13 14  2  0
 13 15  1  0
 15 16  1  0
 15 17  1  0
 15 18  1  0
 18 19  1  0
 19 20  2  0
 19 21  1  0
 21 22  2  0
 22 23  1  0
 22 24  1  0
 24 25  1  0
 24 26  2  0
 26 27  1  0
 26 28  1  0
 28 29  1  0
 29 30  1  0
 30 31  2  0
 30 32  2  0
 30 33  1  0
 33 34  2  0
 34 35  1  0
 34 36  1  0
 36 37  1  0
 36 38  2  0
 38 39  1  0
 38 40  1  0
 40 41  1  0
 40 42  2  0
 42 43  1  0
 28 44  2  0
 44 45  1  0
 11  3  1  0
 44 21  1  0
 42 33  1  0
M  CHG  2  10  -1  29  -1
M  END
>  <UniqueID>  (37) 
32

>  <SMILES>  (37) 
O=C(COC(=O)c1cccc([N-]S(=O)(=O)c2ccc(F)cc2)c1)/N=c1\[n-]cccc1O

>  <Energy>  (37) 
52.41344012154177

>  <Genealogy>  (37) 
O=C(COC(=O)c1cccc([N-]S(=O)(=O)c2ccc(F)cc2)c1)N=c1[n-]cccc1O (protonated)
O=C(COC(=O)c1cccc([N-]S(=O)(=O)c2ccc(F)cc2)c1)/N=c1\[n-]cccc1O (cis-trans isomerization)
O=C(COC(=O)c1cccc([N-]S(=O)(=O)c2ccc(F)cc2)c1)/N=c1\[n-]cccc1O (3D coordinates assigned)
O=C(COC(=O)c1cccc([N-]S(=O)(=O)c2ccc(F)cc2)c1)/N=c1\[n-]cccc1O (optimized conformer: 52.41344012154177 kcal/mol)

>  <smiles>  (37) 
O=C(COC(=O)c1cccc(NS(=O)(=O)c2ccc(F)cc2)c1)N=c1[nH]cccc1O

>  <score_type>  (37) 
oracle

>  <origin>  (37) 
adg

>  <m_score__min__energy>  (37) 
-11.85

>  <m_primary>  (37) 
energy

$$$$
37:0
     RDKit          3D

 69 72  0  0  0  0  0  0  0  0999 V2000
   59.5169   31.0912   45.1303 H   0  0  0  0  0  0  0  0  0  0  0  0
   59.1620   30.0650   45.3060 C   0  0  0  0  0  0  0  0  0  0  0  0
   58.9985   29.3865   44.4558 H   0  0  0  0  0  0  0  0  0  0  0  0
   58.9280   29.6400   46.5600 C   0  0  0  0  0  0  0  0  0  0  0  0
   58.4770   28.3680   46.9280 C   0  0  0  0  0  0  0  0  0  0  0  0
   58.1990   27.3290   46.1140 C   0  0  0  0  0  0  0  0  0  0  0  0
   58.5378   27.3864   45.0691 H   0  0  0  0  0  0  0  0  0  0  0  0
   57.4680   26.1200   46.5400 C   0  0  0  0  0  0  0  0  0  0  0  0
   58.0810   25.0020   46.9690 N   0  0  0  0  0  0  0  0  0  0  0  0
   57.0590   24.1430   47.1720 C   0  0  0  0  0  0  0  0  0  0  0  0
   57.2340   22.9700   47.5940 O   0  0  0  0  0  0  0  0  0  0  0  0
   55.8370   24.6350   46.8750 N   0  0  0  0  0  0  0  0  0  0  0  0
   56.1130   25.8820   46.4640 C   0  0  0  0  0  0  0  0  0  0  0  0
   55.1500   26.7620   45.9850 O   0  0  0  0  0  0  0  0  0  0  0  0
   58.4310   28.3570   48.3140 C   0  0  0  0  0  0  0  0  0  0  0  0
   58.1457   27.5098   48.9550 H   0  0  0  0  0  0  0  0  0  0  0  0
   58.8120   29.6130   48.7320 C   0  0  0  0  0  0  0  0  0  0  0  0
   58.9190   30.0090   50.1490 C   0  0  0  0  0  0  0  0  0  0  0  0
   57.8560   30.1830   50.8030 O   0  0  0  0  0  0  0  0  0  0  0  0
   60.1990   30.2270   50.7820 N   0  0  0  0  0  0  0  0  0  0  0  0
   60.2710   30.2330   52.2530 C   0  0  0  0  0  0  0  0  0  0  0  0
   59.5198   30.9354   52.6435 H   0  0  0  0  0  0  0  0  0  0  0  0
   60.0784   29.2102   52.6091 H   0  0  0  0  0  0  0  0  0  0  0  0
   61.6560   30.6590   52.7530 C   0  0  0  0  0  0  0  0  0  0  0  0
   61.7979   31.7316   52.5545 H   0  0  0  0  0  0  0  0  0  0  0  0
   61.7198   30.4602   53.8330 H   0  0  0  0  0  0  0  0  0  0  0  0
   62.7590   29.8620   52.0360 C   0  0  0  0  0  0  0  0  0  0  0  0
   62.6274   28.8077   52.3209 H   0  0  0  0  0  0  0  0  0  0  0  0
   64.0490   30.3360   52.4370 O   0  0  0  0  0  0  0  0  0  0  0  0
   64.8630   31.2430   51.7340 C   0  0  0  0  0  0  0  0  0  0  0  0
   64.4550   32.5630   51.4530 C   0  0  0  0  0  0  0  0  0  0  0  0
   63.4723   32.9175   51.7973 H   0  0  0  0  0  0  0  0  0  0  0  0
   65.2950   33.4240   50.7380 C   0  0  0  0  0  0  0  0  0  0  0  0
   64.9669   34.4499   50.5149 H   0  0  0  0  0  0  0  0  0  0  0  0
   66.5480   32.9850   50.3070 C   0  0  0  0  0  0  0  0  0  0  0  0
   67.2034   33.6640   49.7418 H   0  0  0  0  0  0  0  0  0  0  0  0
   66.9700   31.6870   50.5920 C   0  0  0  0  0  0  0  0  0  0  0  0
   67.9617   31.3484   50.2577 H   0  0  0  0  0  0  0  0  0  0  0  0
   66.1340   30.8080   51.3050 C   0  0  0  0  0  0  0  0  0  0  0  0
   66.5980   29.4120   51.6120 C   0  0  0  0  0  0  0  0  0  0  0  0
   66.6444   29.2724   52.7021 H   0  0  0  0  0  0  0  0  0  0  0  0
   65.8923   28.6876   51.1793 H   0  0  0  0  0  0  0  0  0  0  0  0
   67.5969   29.2541   51.1793 H   0  0  0  0  0  0  0  0  0  0  0  0
   62.6520   29.9730   50.4930 C   0  0  0  0  0  0  0  0  0  0  0  0
   63.5153   30.5487   50.1278 H   0  0  0  0  0  0  0  0  0  0  0  0
   62.6298   28.9448   50.1027 H   0  0  0  0  0  0  0  0  0  0  0  0
   61.3680   30.6620   49.9980 C   0  0  0  0  0  0  0  0  0  0  0  0
   61.4830   31.7514   50.0981 H   0  0  0  0  0  0  0  0  0  0  0  0
   61.2061   30.3864   48.9455 H   0  0  0  0  0  0  0  0  0  0  0  0
   59.1130   30.4020   47.6730 N   0  0  0  0  0  0  0  0  0  0  0  0
   59.7100   31.7450   47.7460 C   0  0  0  0  0  0  0  0  0  0  0  0
   59.0644   32.4590   47.2137 H   0  0  0  0  0  0  0  0  0  0  0  0
   59.8044   32.0388   48.8018 H   0  0  0  0  0  0  0  0  0  0  0  0
   61.1060   31.7420   47.0990 C   0  0  0  0  0  0  0  0  0  0  0  0
   61.5903   30.7839   47.3386 H   0  0  0  0  0  0  0  0  0  0  0  0
   60.9440   31.8945   46.0217 H   0  0  0  0  0  0  0  0  0  0  0  0
   62.0520   32.8890   47.5610 C   0  0  0  0  0  0  0  0  0  0  0  0
   61.4230   33.7000   48.7140 C   0  0  0  0  0  0  0  0  0  0  0  0
   61.7483   33.2805   49.6774 H   0  0  0  0  0  0  0  0  0  0  0  0
   61.7459   34.7491   48.6431 H   0  0  0  0  0  0  0  0  0  0  0  0
   60.3265   33.6483   48.6431 H   0  0  0  0  0  0  0  0  0  0  0  0
   62.2810   33.8340   46.3620 C   0  0  0  0  0  0  0  0  0  0  0  0
   62.5251   34.8413   46.7305 H   0  0  0  0  0  0  0  0  0  0  0  0
   63.1134   33.4555   45.7506 H   0  0  0  0  0  0  0  0  0  0  0  0
   61.3677   33.8786   45.7506 H   0  0  0  0  0  0  0  0  0  0  0  0
   63.4230   32.3310   48.0090 C   0  0  0  0  0  0  0  0  0  0  0  0
   63.4698   32.3120   49.1078 H   0  0  0  0  0  0  0  0  0  0  0  0
   63.5486   31.3102   47.6189 H   0  0  0  0  0  0  0  0  0  0  0  0
   64.2258   32.9740   47.6189 H   0  0  0  0  0  0  0  0  0  0  0  0
  1  2  1  0
  2  3  1  0
  2  4  2  0
  4  5  1  0
  5  6  2  0
  6  7  1  0
  6  8  1  0
  8  9  1  0
  9 10  1  0
 10 11  2  0
 10 12  1  0
 12 13  1  0
 13 14  1  0
  5 15  1  0
 15 16  1  0
 15 17  2  0
 17 18  1  0
 18 19  2  0
 18 20  1  0
 20 21  1  0
 21 22  1  0
 21 23  1  0
 21 24  1  0
 24 25  1  0
 24 26  1  0
 24 27  1  0
 27 28  1  0
 27 29  1  0
 29 30  1  0
 30 31  2  0
 31 32  1  0
 31 33  1  0
 33 34  1  0
 33 35  2  0
 35 36  1  0
 35 37  1  0
 37 38  1  0
 37 39  2  0
 39 40  1  0
 40 41  1  0
 40 42  1  0
 40 43  1  0
 27 44  1  0
 44 45  1  0
 44 46  1  0
 44 47  1  0
 47 48  1  0
 47 49  1  0
 17 50  1  0
 50 51  1  0
 51 52  1  0
 51 53  1  0
 51 54  1  0
 54 55  1  0
 54 56  1  0
 54 57  1  0
 57 58  1  0
 58 59  1  0
 58 60  1  0
 58 61  1  0
 57 62  1  0
 62 63  1  0
 62 64  1  0
 62 65  1  0
 57 66  1  0
 66 67  1  0
 66 68  1  0
 66 69  1  0
 50  4  1  0
 13  8  2  0
 47 20  1  0
 39 30  1  0
M  CHG  3   9  -1  12  -1  14  -1
M  END
>  <UniqueID>  (38) 
33

>  <SMILES>  (38) 
C=c1/c(=C/c2[n-]c(=O)[n-]c2[O-])cc(C(=O)N2CCC(Oc3ccccc3C)CC2)n1CCC(C)(C)C

>  <Energy>  (38) 
137.6748745139485

>  <Genealogy>  (38) 
C=c1c(=Cc2[n-]c(=O)[n-]c2[O-])cc(C(=O)N2CCC(Oc3ccccc3C)CC2)n1CCC(C)(C)C (protonated)
C=c1/c(=C/c2[n-]c(=O)[n-]c2[O-])cc(C(=O)N2CCC(Oc3ccccc3C)CC2)n1CCC(C)(C)C (cis-trans isomerization)
C=c1/c(=C/c2[n-]c(=O)[n-]c2[O-])cc(C(=O)N2CCC(Oc3ccccc3C)CC2)n1CCC(C)(C)C (3D coordinates assigned)
C=c1/c(=C/c2[n-]c(=O)[n-]c2[O-])cc(C(=O)N2CCC(Oc3ccccc3C)CC2)n1CCC(C)(C)C (nonaromatic ring conformer: 137.6748745139485 kcal/mol)

>  <smiles>  (38) 
C=c1c(=Cc2[nH]c(=O)[nH]c2O)cc(C(=O)N2CCC(Oc3ccccc3C)CC2)n1CCC(C)(C)C

>  <score_type>  (38) 
oracle

>  <origin>  (38) 
adg

>  <m_score__min__energy>  (38) 
-17.210000000000001

>  <m_primary>  (38) 
energy

$$$$
38:0
     RDKit          3D

 64 67  0  0  0  0  0  0  0  0999 V2000
   55.8600   27.1100   45.7610 O   0  0  0  0  0  0  0  0  0  0  0  0
   56.6220   27.9650   45.2380 C   0  0  0  0  0  0  0  0  0  0  0  0
   58.0200   27.5670   44.8360 C   0  0  0  0  0  0  0  0  0  0  0  0
   58.8150   27.1370   46.0080 N   0  0  0  0  0  0  0  0  0  0  0  0
   60.2540   27.4510   45.8960 C   0  0  0  0  0  0  0  0  0  0  0  0
   60.5610   28.9470   46.0790 C   0  0  0  0  0  0  0  0  0  0  0  0
   59.9090   29.5320   47.2650 N   0  0  0  0  0  0  0  0  0  0  0  0
   60.7450   29.6280   48.4800 C   0  0  0  0  0  0  0  0  0  0  0  0
   60.2380   30.6310   49.4710 C   0  0  0  0  0  0  0  0  0  0  0  0
   59.4800   30.2550   50.4050 O   0  0  0  0  0  0  0  0  0  0  0  0
   60.6860   31.9880   49.3880 N   0  0  0  0  0  0  0  0  0  0  0  0
   60.3860   32.9500   48.3630 C   0  0  0  0  0  0  0  0  0  0  0  0
   59.0720   33.4140   48.1550 C   0  0  0  0  0  0  0  0  0  0  0  0
   58.7890   34.2830   47.1000 C   0  0  0  0  0  0  0  0  0  0  0  0
   59.8020   34.6850   46.2310 C   0  0  0  0  0  0  0  0  0  0  0  0
   61.1070   34.2240   46.4200 C   0  0  0  0  0  0  0  0  0  0  0  0
   61.4090   33.3590   47.4820 C   0  0  0  0  0  0  0  0  0  0  0  0
   63.0640   32.7770   47.6990 S   0  0  0  0  0  0  0  0  0  0  0  0
   63.0090   31.3210   48.0710 O   0  0  0  0  0  0  0  0  0  0  0  0
   63.7880   32.9220   46.3890 O   0  0  0  0  0  0  0  0  0  0  0  0
   63.8490   33.7100   48.9650 N   0  0  0  0  0  0  0  0  0  0  0  0
   62.9380   34.0490   50.0740 C   0  0  0  0  0  0  0  0  0  0  0  0
   62.7720   32.8760   51.0600 C   0  0  0  0  0  0  0  0  0  0  0  0
   64.0250   32.4260   51.5290 O   0  0  0  0  0  0  0  0  0  0  0  0
   64.7910   31.9490   50.4440 C   0  0  0  0  0  0  0  0  0  0  0  0
   65.0900   33.0850   49.4540 C   0  0  0  0  0  0  0  0  0  0  0  0
   58.5020   29.1410   47.4710 C   0  0  0  0  0  0  0  0  0  0  0  0
   58.2670   27.6340   47.2810 C   0  0  0  0  0  0  0  0  0  0  0  0
   56.1930   29.3320   45.1970 N   0  0  0  0  0  0  0  0  0  0  0  0
   56.8560   30.3890   44.4960 C   0  0  0  0  0  0  0  0  0  0  0  0
   57.5940   31.3350   45.2200 C   0  0  0  0  0  0  0  0  0  0  0  0
   58.2420   32.3830   44.5580 C   0  0  0  0  0  0  0  0  0  0  0  0
   58.1330   32.5070   43.1710 C   0  0  0  0  0  0  0  0  0  0  0  0
   57.3680   31.5860   42.4460 C   0  0  0  0  0  0  0  0  0  0  0  0
   57.2490   31.7150   41.1030 F   0  0  0  0  0  0  0  0  0  0  0  0
   56.7240   30.5330   43.1080 C   0  0  0  0  0  0  0  0  0  0  0  0
   57.9633   26.7362   44.1172 H   0  0  0  0  0  0  0  0  0  0  0  0
   58.5129   28.4402   44.3837 H   0  0  0  0  0  0  0  0  0  0  0  0
   60.7969   26.8853   46.6675 H   0  0  0  0  0  0  0  0  0  0  0  0
   60.5725   27.1726   44.8806 H   0  0  0  0  0  0  0  0  0  0  0  0
   61.6492   29.0708   46.1813 H   0  0  0  0  0  0  0  0  0  0  0  0
   60.1671   29.4723   45.1965 H   0  0  0  0  0  0  0  0  0  0  0  0
   60.7711   28.6409   48.9647 H   0  0  0  0  0  0  0  0  0  0  0  0
   61.7442   29.9605   48.1623 H   0  0  0  0  0  0  0  0  0  0  0  0
   58.2645   33.0896   48.8279 H   0  0  0  0  0  0  0  0  0  0  0  0
   57.7630   34.6519   46.9539 H   0  0  0  0  0  0  0  0  0  0  0  0
   59.5739   35.3649   45.3969 H   0  0  0  0  0  0  0  0  0  0  0  0
   61.9035   34.5416   45.7310 H   0  0  0  0  0  0  0  0  0  0  0  0
   63.3451   34.9149   50.6167 H   0  0  0  0  0  0  0  0  0  0  0  0
   61.9506   34.2776   49.6465 H   0  0  0  0  0  0  0  0  0  0  0  0
   62.1664   33.2089   51.9158 H   0  0  0  0  0  0  0  0  0  0  0  0
   62.2762   32.0458   50.5355 H   0  0  0  0  0  0  0  0  0  0  0  0
   65.7394   31.5403   50.8228 H   0  0  0  0  0  0  0  0  0  0  0  0
   64.2205   31.1655   49.9238 H   0  0  0  0  0  0  0  0  0  0  0  0
   65.7008   33.8482   49.9584 H   0  0  0  0  0  0  0  0  0  0  0  0
   65.6281   32.6621   48.5929 H   0  0  0  0  0  0  0  0  0  0  0  0
   58.2073   29.4161   48.4945 H   0  0  0  0  0  0  0  0  0  0  0  0
   57.8989   29.6673   46.7165 H   0  0  0  0  0  0  0  0  0  0  0  0
   58.7502   27.0939   48.1085 H   0  0  0  0  0  0  0  0  0  0  0  0
   57.1805   27.4628   47.2682 H   0  0  0  0  0  0  0  0  0  0  0  0
   57.6641   31.2530   46.3147 H   0  0  0  0  0  0  0  0  0  0  0  0
   58.8376   33.1098   45.1299 H   0  0  0  0  0  0  0  0  0  0  0  0
   58.6476   33.3273   42.6492 H   0  0  0  0  0  0  0  0  0  0  0  0
   56.1134   29.8176   42.5375 H   0  0  0  0  0  0  0  0  0  0  0  0
  1  2  2  0
  2  3  1  0
  3  4  1  0
  4  5  1  0
  5  6  1  0
  6  7  1  0
  7  8  1  0
  8  9  1  0
  9 10  2  0
  9 11  1  0
 11 12  1  0
 12 13  2  0
 13 14  1  0
 14 15  2  0
 15 16  1  0
 16 17  2  0
 17 18  1  0
 18 19  2  0
 18 20  2  0
 18 21  1  0
 21 22  1  0
 22 23  1  0
 23 24  1  0
 24 25  1  0
 25 26  1  0
  7 27  1  0
 27 28  1  0
  2 29  1  0
 29 30  1  0
 30 31  2  0
 31 32  1  0
 32 33  2  0
 33 34  1  0
 34 35  1  0
 34 36  2  0
 28  4  1  0
 36 30  1  0
 17 12  1  0
 26 21  1  0
  3 37  1  0
  3 38  1  0
  5 39  1  0
  5 40  1  0
  6 41  1  0
  6 42  1  0
  8 43  1  0
  8 44  1  0
 13 45  1  0
 14 46  1  0
 15 47  1  0
 16 48  1  0
 22 49  1  0
 22 50  1  0
 23 51  1  0
 23 52  1  0
 25 53  1  0
 25 54  1  0
 26 55  1  0
 26 56  1  0
 27 57  1  0
 27 58  1  0
 28 59  1  0
 28 60  1  0
 31 61  1  0
 32 62  1  0
 33 63  1  0
 36 64  1  0
M  CHG  2  11  -1  29  -1
M  END
>  <UniqueID>  (39) 
34

>  <SMILES>  (39) 
O=C(CN1CCN(CC(=O)[N-]c2ccccc2S(=O)(=O)N2CCOCC2)CC1)[N-]c1cccc(F)c1

>  <Energy>  (39) 
93.40679112491247

>  <Genealogy>  (39) 
O=C(CN1CCN(CC(=O)[N-]c2ccccc2S(=O)(=O)N2CCOCC2)CC1)[N-]c1cccc(F)c1 (protonated)
O=C(CN1CCN(CC(=O)[N-]c2ccccc2S(=O)(=O)N2CCOCC2)CC1)[N-]c1cccc(F)c1 (3D coordinates assigned)
O=C(CN1CCN(CC(=O)[N-]c2ccccc2S(=O)(=O)N2CCOCC2)CC1)[N-]c1cccc(F)c1 (nonaromatic ring conformer: 93.40679112491247 kcal/mol)

>  <smiles>  (39) 
O=C(CN1CCN(CC(=O)Nc2ccccc2S(=O)(=O)N2CCOCC2)CC1)Nc1cccc(F)c1

>  <score_type>  (39) 
oracle

>  <origin>  (39) 
adg

>  <m_score__min__energy>  (39) 
-13.300000000000001

>  <m_primary>  (39) 
energy

$$$$
39:0
     RDKit          3D

 52 54  0  0  0  0  0  0  0  0999 V2000
   59.8890   29.3500   49.0980 C   0  0  0  0  0  0  0  0  0  0  0  0
   59.8300   30.2960   47.9820 N   0  0  0  0  0  0  0  0  0  0  0  0
   60.7500   30.1510   46.8490 C   0  0  0  0  0  0  0  0  0  0  0  0
   58.9450   31.4310   48.0680 C   0  0  0  0  0  0  0  0  0  0  0  0
   58.6050   31.8720   49.2000 O   0  0  0  0  0  0  0  0  0  0  0  0
   58.4270   32.1050   46.8590 C   0  0  0  0  0  0  0  0  0  0  0  0
   58.2180   33.4930   46.8640 C   0  0  0  0  0  0  0  0  0  0  0  0
   57.7340   34.1360   45.7210 C   0  0  0  0  0  0  0  0  0  0  0  0
   57.4290   33.3980   44.5750 C   0  0  0  0  0  0  0  0  0  0  0  0
   57.5870   31.9990   44.5730 C   0  0  0  0  0  0  0  0  0  0  0  0
   57.2860   31.1970   43.4220 N   0  0  0  0  0  0  0  0  0  0  0  0
   56.5630   29.9610   43.3970 C   0  0  0  0  0  0  0  0  0  0  0  0
   56.3180   29.3740   42.3080 O   0  0  0  0  0  0  0  0  0  0  0  0
   55.9980   29.4160   44.6700 C   0  0  0  0  0  0  0  0  0  0  0  0
   56.9210   28.3830   45.2370 C   0  0  0  0  0  0  0  0  0  0  0  0
   58.2690   28.4710   45.1810 N   0  0  0  0  0  0  0  0  0  0  0  0
   58.6890   27.3270   45.7630 C   0  0  0  0  0  0  0  0  0  0  0  0
   59.9080   27.0500   45.9220 O   0  0  0  0  0  0  0  0  0  0  0  0
   57.6820   26.5200   46.1630 N   0  0  0  0  0  0  0  0  0  0  0  0
   57.7820   25.2580   46.8930 C   0  0  0  0  0  0  0  0  0  0  0  0
   56.4420   24.6000   46.9510 C   0  0  0  0  0  0  0  0  0  0  0  0
   55.8730   24.4350   48.0640 O   0  0  0  0  0  0  0  0  0  0  0  0
   55.8180   24.1600   45.7380 N   0  0  0  0  0  0  0  0  0  0  0  0
   56.3570   23.1920   44.8260 C   0  0  0  0  0  0  0  0  0  0  0  0
   55.8430   23.1400   43.5230 C   0  0  0  0  0  0  0  0  0  0  0  0
   56.3310   22.2050   42.6060 C   0  0  0  0  0  0  0  0  0  0  0  0
   57.3240   21.3020   42.9920 C   0  0  0  0  0  0  0  0  0  0  0  0
   57.8190   21.3220   44.2990 C   0  0  0  0  0  0  0  0  0  0  0  0
   57.3340   22.2560   45.2210 C   0  0  0  0  0  0  0  0  0  0  0  0
   57.7750   22.2020   46.5020 F   0  0  0  0  0  0  0  0  0  0  0  0
   56.5650   27.1910   45.8390 C   0  0  0  0  0  0  0  0  0  0  0  0
   55.2740   26.7320   46.0930 O   0  0  0  0  0  0  0  0  0  0  0  0
   58.1030   31.3650   45.7110 C   0  0  0  0  0  0  0  0  0  0  0  0
   59.8546   29.9020   50.0488 H   0  0  0  0  0  0  0  0  0  0  0  0
   59.0320   28.6627   49.0418 H   0  0  0  0  0  0  0  0  0  0  0  0
   60.8248   28.7745   49.0418 H   0  0  0  0  0  0  0  0  0  0  0  0
   61.7714   29.9900   47.2243 H   0  0  0  0  0  0  0  0  0  0  0  0
   60.4445   29.2899   46.2365 H   0  0  0  0  0  0  0  0  0  0  0  0
   60.7241   31.0643   46.2365 H   0  0  0  0  0  0  0  0  0  0  0  0
   58.4358   34.0768   47.7705 H   0  0  0  0  0  0  0  0  0  0  0  0
   57.5929   35.2269   45.7241 H   0  0  0  0  0  0  0  0  0  0  0  0
   57.0647   33.9107   43.6725 H   0  0  0  0  0  0  0  0  0  0  0  0
   55.8772   30.2343   45.3951 H   0  0  0  0  0  0  0  0  0  0  0  0
   55.0212   28.9542   44.4638 H   0  0  0  0  0  0  0  0  0  0  0  0
   58.4930   24.5942   46.3793 H   0  0  0  0  0  0  0  0  0  0  0  0
   58.1338   25.4568   47.9161 H   0  0  0  0  0  0  0  0  0  0  0  0
   55.0502   23.8398   43.2201 H   0  0  0  0  0  0  0  0  0  0  0  0
   55.9332   22.1803   41.5808 H   0  0  0  0  0  0  0  0  0  0  0  0
   57.7170   20.5743   42.2667 H   0  0  0  0  0  0  0  0  0  0  0  0
   58.5922   20.6013   44.6036 H   0  0  0  0  0  0  0  0  0  0  0  0
   55.0980   25.9770   46.7460 H   0  0  0  0  0  0  0  0  0  0  0  0
   58.2558   30.2757   45.7047 H   0  0  0  0  0  0  0  0  0  0  0  0
  1  2  1  0
  2  3  1  0
  2  4  1  0
  4  5  2  0
  4  6  1  0
  6  7  2  0
  7  8  1  0
  8  9  2  0
  9 10  1  0
 10 11  1  0
 11 12  1  0
 12 13  2  0
 12 14  1  0
 14 15  1  0
 15 16  1  0
 16 17  1  0
 17 18  2  0
 17 19  1  0
 19 20  1  0
 20 21  1  0
 21 22  2  0
 21 23  1  0
 23 24  1  0
 24 25  2  0
 25 26  1  0
 26 27  2  0
 27 28  1  0
 28 29  2  0
 29 30  1  0
 19 31  1  0
 31 32  1  0
 10 33  2  0
 33  6  1  0
 31 15  2  0
 29 24  1  0
  1 34  1  0
  1 35  1  0
  1 36  1  0
  3 37  1  0
  3 38  1  0
  3 39  1  0
  7 40  1  0
  8 41  1  0
  9 42  1  0
 14 43  1  0
 14 44  1  0
 20 45  1  0
 20 46  1  0
 25 47  1  0
 26 48  1  0
 27 49  1  0
 28 50  1  0
 32 51  1  0
 33 52  1  0
M  CHG  3  11  -1  16  -1  23  -1
M  END
>  <UniqueID>  (40) 
35

>  <SMILES>  (40) 
CN(C)C(=O)c1cccc([N-]C(=O)Cc2[n-]c(=O)n(CC(=O)[N-]c3ccccc3F)c2O)c1

>  <Energy>  (40) 
92.630459977995

>  <Genealogy>  (40) 
CN(C)C(=O)c1cccc([N-]C(=O)Cc2[n-]c(=O)n(CC(=O)[N-]c3ccccc3F)c2O)c1 (protonated)
CN(C)C(=O)c1cccc([N-]C(=O)Cc2[n-]c(=O)n(CC(=O)[N-]c3ccccc3F)c2O)c1 (3D coordinates assigned)
CN(C)C(=O)c1cccc([N-]C(=O)Cc2[n-]c(=O)n(CC(=O)[N-]c3ccccc3F)c2O)c1 (optimized conformer: 92.630459977995 kcal/mol)

>  <smiles>  (40) 
CN(C)C(=O)c1cccc(NC(=O)Cc2[nH]c(=O)n(CC(=O)Nc3ccccc3F)c2O)c1

>  <score_type>  (40) 
oracle

>  <origin>  (40) 
adg

>  <m_score__min__energy>  (40) 
-14.369999999999999

>  <m_primary>  (40) 
energy

$$$$
40:0
     RDKit          3D

 52 56  0  0  0  0  0  0  0  0999 V2000
   57.4280   34.1880   45.6630 C   0  0  0  0  0  0  0  0  0  0  0  0
   58.1390   33.2310   46.2630 C   0  0  0  0  0  0  0  0  0  0  0  0
   58.2130   31.8710   45.6790 C   0  0  0  0  0  0  0  0  0  0  0  0
   59.3590   31.1400   45.6350 N   0  0  0  0  0  0  0  0  0  0  0  0
   58.9780   30.0240   45.0010 C   0  0  0  0  0  0  0  0  0  0  0  0
   59.7620   28.9240   44.6630 C   0  0  0  0  0  0  0  0  0  0  0  0
   59.1390   27.8660   43.9770 C   0  0  0  0  0  0  0  0  0  0  0  0
   57.7660   27.9360   43.6530 C   0  0  0  0  0  0  0  0  0  0  0  0
   57.0060   29.0670   44.0100 C   0  0  0  0  0  0  0  0  0  0  0  0
   57.6570   30.0940   44.6870 C   0  0  0  0  0  0  0  0  0  0  0  0
   57.1420   31.2580   45.1060 N   0  0  0  0  0  0  0  0  0  0  0  0
   59.0250   33.6510   47.7380 S   0  0  0  0  0  0  0  0  0  0  0  0
   58.4520   32.9710   48.9510 O   0  0  0  0  0  0  0  0  0  0  0  0
   58.8940   35.1340   47.9540 O   0  0  0  0  0  0  0  0  0  0  0  0
   60.7360   33.2110   47.5510 C   0  0  0  0  0  0  0  0  0  0  0  0
   61.4800   33.8820   46.5640 C   0  0  0  0  0  0  0  0  0  0  0  0
   62.8330   33.6010   46.3710 C   0  0  0  0  0  0  0  0  0  0  0  0
   63.4670   32.6450   47.1600 C   0  0  0  0  0  0  0  0  0  0  0  0
   62.7470   31.9590   48.1380 C   0  0  0  0  0  0  0  0  0  0  0  0
   61.3770   32.2130   48.3400 C   0  0  0  0  0  0  0  0  0  0  0  0
   60.6690   31.4130   49.4120 C   0  0  0  0  0  0  0  0  0  0  0  0
   60.0420   30.1610   48.8670 C   0  0  0  0  0  0  0  0  0  0  0  0
   60.8130   29.0870   47.8240 S   0  0  0  0  0  0  0  0  0  0  0  0
   59.5240   27.9950   47.8360 C   0  0  0  0  0  0  0  0  0  0  0  0
   59.4780   26.8530   47.2150 N   0  0  0  0  0  0  0  0  0  0  0  0
   58.3030   26.2140   46.6870 C   0  0  0  0  0  0  0  0  0  0  0  0
   57.0950   26.9250   46.6730 C   0  0  0  0  0  0  0  0  0  0  0  0
   55.9440   26.3500   46.1250 C   0  0  0  0  0  0  0  0  0  0  0  0
   56.0000   25.0700   45.5650 C   0  0  0  0  0  0  0  0  0  0  0  0
   57.2090   24.3690   45.5420 C   0  0  0  0  0  0  0  0  0  0  0  0
   58.3600   24.9410   46.0900 C   0  0  0  0  0  0  0  0  0  0  0  0
   58.5260   28.4090   48.6480 N   0  0  0  0  0  0  0  0  0  0  0  0
   58.8110   29.6090   49.2210 C   0  0  0  0  0  0  0  0  0  0  0  0
   57.9250   30.2290   50.0970 O   0  0  0  0  0  0  0  0  0  0  0  0
   57.3787   35.1947   46.1036 H   0  0  0  0  0  0  0  0  0  0  0  0
   56.8913   33.9701   44.7279 H   0  0  0  0  0  0  0  0  0  0  0  0
   60.8301   28.8839   44.9231 H   0  0  0  0  0  0  0  0  0  0  0  0
   59.7241   26.9794   43.6913 H   0  0  0  0  0  0  0  0  0  0  0  0
   57.2873   27.1022   43.1186 H   0  0  0  0  0  0  0  0  0  0  0  0
   55.9364   29.1360   43.7626 H   0  0  0  0  0  0  0  0  0  0  0  0
   60.9883   34.6390   45.9353 H   0  0  0  0  0  0  0  0  0  0  0  0
   63.3996   34.1356   45.5943 H   0  0  0  0  0  0  0  0  0  0  0  0
   64.5357   32.4307   47.0121 H   0  0  0  0  0  0  0  0  0  0  0  0
   63.2568   31.2088   48.7604 H   0  0  0  0  0  0  0  0  0  0  0  0
   61.3990   31.1351   50.1865 H   0  0  0  0  0  0  0  0  0  0  0  0
   59.8652   32.0402   49.8250 H   0  0  0  0  0  0  0  0  0  0  0  0
   57.0522   27.9399   47.0950 H   0  0  0  0  0  0  0  0  0  0  0  0
   54.9943   26.9049   46.1345 H   0  0  0  0  0  0  0  0  0  0  0  0
   55.0923   24.6146   45.1424 H   0  0  0  0  0  0  0  0  0  0  0  0
   57.2544   23.3662   45.0921 H   0  0  0  0  0  0  0  0  0  0  0  0
   59.3139   24.3944   46.0546 H   0  0  0  0  0  0  0  0  0  0  0  0
   57.8180   31.2360   50.1020 H   0  0  0  0  0  0  0  0  0  0  0  0
  1  2  2  0
  2  3  1  0
  3  4  2  0
  4  5  1  0
  5  6  2  0
  6  7  1  0
  7  8  2  0
  8  9  1  0
  9 10  2  0
 10 11  1  0
  2 12  1  0
 12 13  2  0
 12 14  2  0
 12 15  1  0
 15 16  2  0
 16 17  1  0
 17 18  2  0
 18 19  1  0
 19 20  2  0
 20 21  1  0
 21 22  1  0
 22 23  1  0
 23 24  1  0
 24 25  2  3
 25 26  1  0
 26 27  2  0
 27 28  1  0
 28 29  2  0
 29 30  1  0
 30 31  2  0
 24 32  1  0
 32 33  1  0
 33 34  1  0
 11  3  1  0
 20 15  1  0
 33 22  2  0
 10  5  1  0
 31 26  1  0
  1 35  1  0
  1 36  1  0
  6 37  1  0
  7 38  1  0
  8 39  1  0
  9 40  1  0
 16 41  1  0
 17 42  1  0
 18 43  1  0
 19 44  1  0
 21 45  1  0
 21 46  1  0
 27 47  1  0
 28 48  1  0
 29 49  1  0
 30 50  1  0
 31 51  1  0
 34 52  1  0
M  CHG  2  11  -1  32  -1
M  END
>  <UniqueID>  (41) 
36

>  <SMILES>  (41) 
C=C(c1nc2ccccc2[n-]1)S(=O)(=O)c1ccccc1Cc1sc(=Nc2ccccc2)[n-]c1O

>  <Energy>  (41) 
132.75664051206488

>  <Genealogy>  (41) 
C=C(c1nc2ccccc2[n-]1)S(=O)(=O)c1ccccc1Cc1sc(=Nc2ccccc2)[n-]c1O (protonated)
C=C(c1nc2ccccc2[n-]1)S(=O)(=O)c1ccccc1Cc1sc(=Nc2ccccc2)[n-]c1O (3D coordinates assigned)
C=C(c1nc2ccccc2[n-]1)S(=O)(=O)c1ccccc1Cc1sc(=Nc2ccccc2)[n-]c1O (optimized conformer: 132.75664051206488 kcal/mol)

>  <smiles>  (41) 
C=C(c1nc2ccccc2[nH]1)S(=O)(=O)c1ccccc1Cc1sc(=Nc2ccccc2)[nH]c1O

>  <score_type>  (41) 
oracle

>  <origin>  (41) 
adg

>  <m_score__min__energy>  (41) 
-13.33

>  <m_primary>  (41) 
energy

$$$$
41:0
     RDKit          3D

 74 78  0  0  1  0  0  0  0  0999 V2000
   56.9670   34.5840   44.8810 C   0  0  0  0  0  0  0  0  0  0  0  0
   57.5000   33.3400   45.4930 C   0  0  0  0  0  0  0  0  0  0  0  0
   57.1820   32.1190   45.0490 N   0  0  0  0  0  0  0  0  0  0  0  0
   57.7780   31.1720   45.7450 N   0  0  0  0  0  0  0  0  0  0  0  0
   57.5810   29.7300   45.5110 C   0  0  0  0  0  0  0  0  0  0  0  0
   58.6690   29.3440   44.5020 C   0  0  0  0  0  0  0  0  0  0  0  0
   59.4460   28.1270   44.9480 C   0  0  0  0  0  0  0  0  0  0  0  0
   60.1500   28.2700   46.1710 N   0  0  0  0  0  0  0  0  0  0  0  0
   59.7120   27.3890   47.2510 C   0  0  0  0  0  0  0  0  0  0  0  0
   59.7610   28.1660   48.5060 C   0  0  0  0  0  0  0  0  0  0  0  0
   59.7970   29.5970   48.3880 N   0  0  0  0  0  0  0  0  0  0  0  0
   61.1320   30.1110   48.3160 C   0  0  0  0  0  0  0  0  0  0  0  0
   61.7290   30.5680   49.5980 C   0  0  0  0  0  0  0  0  0  0  0  0
   60.7970   31.4940   50.2430 N   0  0  0  0  0  0  0  0  0  0  0  0
   59.6300   30.6870   50.5790 C   0  0  0  0  0  0  0  0  0  0  0  0
   58.9480   30.3030   49.2900 C   0  0  0  0  0  0  0  0  0  0  0  0
   58.5200   31.7780   46.6800 C   0  0  0  0  0  0  0  0  0  0  0  0
   58.3570   33.1480   46.5420 C   0  0  0  0  0  0  0  0  0  0  0  0
   58.9080   34.1860   47.3920 C   0  0  0  0  0  0  0  0  0  0  0  0
   60.0180   33.8320   48.1580 N   0  0  0  0  0  0  0  0  0  0  0  0
   61.2360   33.7110   47.9150 C   0  0  0  0  0  0  0  0  0  0  0  0
   61.6710   33.7770   46.6230 N   0  0  0  0  0  0  0  0  0  0  0  0
   62.9910   33.5960   46.3770 C   0  0  0  0  0  0  0  0  0  0  0  0
   63.8640   33.3480   47.4080 N   0  0  0  0  0  0  0  0  0  0  0  0
   63.4410   33.2810   48.6740 C   0  0  0  0  0  0  0  0  0  0  0  0
   64.2300   32.9780   49.8060 N   0  0  0  0  0  0  0  0  0  0  0  0
   63.6070   33.2170   51.1090 C   0  0  0  0  0  0  0  0  0  0  0  0
   63.5590   31.9090   51.8480 C   0  0  0  0  0  0  0  0  0  0  0  0
   64.9380   31.3610   51.9150 C   0  0  0  0  0  0  0  0  0  0  0  0
   65.2820   30.5640   53.0000 C   0  0  0  0  0  0  0  0  0  0  0  0
   66.5330   30.0210   53.1480 C   0  0  0  0  0  0  0  0  0  0  0  0
   67.4670   30.2810   52.1780 C   0  0  0  0  0  0  0  0  0  0  0  0
   67.1440   31.0700   51.0900 C   0  0  0  0  0  0  0  0  0  0  0  0
   65.8850   31.6130   50.9510 C   0  0  0  0  0  0  0  0  0  0  0  0
   65.5760   32.4520   49.7630 C   0  0  0  0  0  0  0  0  0  0  0  0
   62.1150   33.4700   48.8850 N   0  0  0  0  0  0  0  0  0  0  0  0
   56.6671   35.2839   45.6749 H   0  0  0  0  0  0  0  0  0  0  0  0
   57.7451   35.0484   44.2574 H   0  0  0  0  0  0  0  0  0  0  0  0
   56.0940   34.3410   44.2574 H   0  0  0  0  0  0  0  0  0  0  0  0
   57.7030   29.1654   46.4472 H   0  0  0  0  0  0  0  0  0  0  0  0
   56.5709   29.5043   45.1387 H   0  0  0  0  0  0  0  0  0  0  0  0
   58.1948   29.1277   43.5333 H   0  0  0  0  0  0  0  0  0  0  0  0
   59.3721   30.1860   44.4205 H   0  0  0  0  0  0  0  0  0  0  0  0
   58.7368   27.2937   45.0600 H   0  0  0  0  0  0  0  0  0  0  0  0
   60.2106   27.9556   44.1760 H   0  0  0  0  0  0  0  0  0  0  0  0
   60.1080   29.2430   46.5030 H   0  0  0  0  0  0  0  0  0  0  0  0
   58.6842   27.0456   47.0619 H   0  0  0  0  0  0  0  0  0  0  0  0
   60.3629   26.5047   47.3174 H   0  0  0  0  0  0  0  0  0  0  0  0
   58.8683   27.9042   49.0930 H   0  0  0  0  0  0  0  0  0  0  0  0
   60.7198   27.8944   48.9719 H   0  0  0  0  0  0  0  0  0  0  0  0
   61.7760   29.3169   47.9101 H   0  0  0  0  0  0  0  0  0  0  0  0
   61.0680   31.0092   47.6842 H   0  0  0  0  0  0  0  0  0  0  0  0
   61.9053   29.7028   50.2540 H   0  0  0  0  0  0  0  0  0  0  0  0
   62.6881   31.0719   49.4075 H   0  0  0  0  0  0  0  0  0  0  0  0
   60.4750   32.1580   49.4760 H   0  0  0  0  0  0  0  0  0  0  0  0
   59.9440   29.7822   51.1201 H   0  0  0  0  0  0  0  0  0  0  0  0
   58.9425   31.2553   51.2228 H   0  0  0  0  0  0  0  0  0  0  0  0
   58.0852   29.6639   49.5291 H   0  0  0  0  0  0  0  0  0  0  0  0
   58.6488   31.2364   48.7907 H   0  0  0  0  0  0  0  0  0  0  0  0
   59.1503   31.2757   47.4286 H   0  0  0  0  0  0  0  0  0  0  0  0
   59.2005   35.0275   46.7468 H   0  0  0  0  0  0  0  0  0  0  0  0
   58.1151   34.4238   48.1165 H   0  0  0  0  0  0  0  0  0  0  0  0
   63.3662   33.6480   45.3443 H   0  0  0  0  0  0  0  0  0  0  0  0
   64.8840   33.2020   47.2320 H   0  0  0  0  0  0  0  0  0  0  0  0
   64.2016   33.9461   51.6789 H   0  0  0  0  0  0  0  0  0  0  0  0
   62.5917   33.6198   50.9789 H   0  0  0  0  0  0  0  0  0  0  0  0
   63.1729   32.0704   52.8653 H   0  0  0  0  0  0  0  0  0  0  0  0
   62.8953   31.2032   51.3271 H   0  0  0  0  0  0  0  0  0  0  0  0
   64.5225   30.3608   53.7693 H   0  0  0  0  0  0  0  0  0  0  0  0
   66.7797   29.3957   54.0187 H   0  0  0  0  0  0  0  0  0  0  0  0
   68.4791   29.8592   52.2663 H   0  0  0  0  0  0  0  0  0  0  0  0
   67.9055   31.2680   50.3213 H   0  0  0  0  0  0  0  0  0  0  0  0
   66.2847   33.2926   49.7280 H   0  0  0  0  0  0  0  0  0  0  0  0
   65.6646   31.8188   48.8679 H   0  0  0  0  0  0  0  0  0  0  0  0
  1  2  1  0
  2  3  2  0
  3  4  1  0
  4  5  1  0
  5  6  1  0
  6  7  1  0
  7  8  1  0
  8  9  1  0
  9 10  1  0
 10 11  1  0
 11 12  1  0
 12 13  1  0
 13 14  1  0
 14 15  1  0
 15 16  1  0
  4 17  1  0
 17 18  2  0
 18 19  1  0
 19 20  1  0
 20 21  2  0
 21 22  1  0
 22 23  2  0
 23 24  1  0
 24 25  1  0
 25 26  1  0
 26 27  1  0
 27 28  1  0
 28 29  1  0
 29 30  2  0
 30 31  1  0
 31 32  2  0
 32 33  1  0
 33 34  2  0
 34 35  1  0
 25 36  2  0
 18  2  1  0
 36 21  1  0
 16 11  1  0
 35 26  1  0
 34 29  1  0
  1 37  1  0
  1 38  1  0
  1 39  1  0
  5 40  1  0
  5 41  1  0
  6 42  1  0
  6 43  1  0
  7 44  1  0
  7 45  1  0
  8 46  1  0
  9 47  1  0
  9 48  1  0
 10 49  1  0
 10 50  1  0
 12 51  1  0
 12 52  1  0
 13 53  1  0
 13 54  1  0
 14 55  1  0
 15 56  1  0
 15 57  1  0
 16 58  1  0
 16 59  1  0
 17 60  1  0
 19 61  1  0
 19 62  1  0
 23 63  1  0
 24 64  1  0
 27 65  1  0
 27 66  1  0
 28 67  1  0
 28 68  1  0
 30 69  1  0
 31 70  1  0
 32 71  1  0
 33 72  1  0
 35 73  1  0
 35 74  1  0
M  END
>  <smiles>  (42) 
Cc1nn(CCCNCCN2CCNCC2)cc1CN=c1nc[nH]c(N2CCc3ccccc3C2)n1

>  <score_type>  (42) 
oracle

>  <origin>  (42) 
adg

>  <m_score__min__energy>  (42) 
-9.2300000000000004

>  <m_primary>  (42) 
energy

$$$$
42:0
     RDKit          3D

 49 50  0  0  0  0  0  0  0  0999 V2000
   59.7340   29.1090   46.9480 C   0  0  0  0  0  0  0  0  0  0  0  0
   58.7660   29.9750   46.2050 C   0  0  0  0  0  0  0  0  0  0  0  0
   57.9010   29.4190   45.2580 C   0  0  0  0  0  0  0  0  0  0  0  0
   57.0010   30.2630   44.6020 C   0  0  0  0  0  0  0  0  0  0  0  0
   56.0700   29.7260   43.5610 C   0  0  0  0  0  0  0  0  0  0  0  0
   57.0020   31.5920   44.8810 N   0  0  0  0  0  0  0  0  0  0  0  0
   57.8300   32.1210   45.8220 C   0  0  0  0  0  0  0  0  0  0  0  0
   57.8310   33.3920   46.1000 N   0  0  0  0  0  0  0  0  0  0  0  0
   58.7700   34.4200   45.7260 C   0  0  0  0  0  0  0  0  0  0  0  0
   58.5100   35.1050   44.7030 O   0  0  0  0  0  0  0  0  0  0  0  0
   60.1190   34.6140   46.3900 C   0  0  0  0  0  0  0  0  0  0  0  0
   60.3590   33.6420   47.4840 N   0  0  2  0  0  0  0  0  0  0  0  0
   60.1900   34.2540   48.8260 C   0  0  0  0  0  0  0  0  0  0  0  0
   59.4750   33.3730   49.8350 C   0  0  0  0  0  0  0  0  0  0  0  0
   59.0310   32.0880   49.4720 C   0  0  0  0  0  0  0  0  0  0  0  0
   58.3640   31.2830   50.4000 C   0  0  0  0  0  0  0  0  0  0  0  0
   58.1500   31.7430   51.7020 C   0  0  0  0  0  0  0  0  0  0  0  0
   58.6110   33.0050   52.0800 C   0  0  0  0  0  0  0  0  0  0  0  0
   59.2800   33.8140   51.1560 C   0  0  0  0  0  0  0  0  0  0  0  0
   61.9150   32.8470   47.3230 S   0  0  0  0  0  0  0  0  0  0  0  0
   62.7760   33.6070   46.3530 O   0  0  0  0  0  0  0  0  0  0  0  0
   61.7180   31.4520   46.7940 O   0  0  0  0  0  0  0  0  0  0  0  0
   62.7180   32.7690   48.8740 N   0  0  0  0  0  0  0  0  0  0  0  0
   62.5790   31.4210   49.4390 C   0  0  0  0  0  0  0  0  0  0  0  0
   64.1390   33.0980   48.7050 C   0  0  0  0  0  0  0  0  0  0  0  0
   58.7060   31.3080   46.4700 N   0  0  0  0  0  0  0  0  0  0  0  0
   59.5874   29.2401   48.0303 H   0  0  0  0  0  0  0  0  0  0  0  0
   59.5643   28.0557   46.6800 H   0  0  0  0  0  0  0  0  0  0  0  0
   60.7619   29.3945   46.6800 H   0  0  0  0  0  0  0  0  0  0  0  0
   57.9282   28.3423   45.0344 H   0  0  0  0  0  0  0  0  0  0  0  0
   55.2168   29.2339   44.0508 H   0  0  0  0  0  0  0  0  0  0  0  0
   55.7056   30.5527   42.9334 H   0  0  0  0  0  0  0  0  0  0  0  0
   56.6031   28.9967   42.9334 H   0  0  0  0  0  0  0  0  0  0  0  0
   60.9062   34.4926   45.6314 H   0  0  0  0  0  0  0  0  0  0  0  0
   60.1329   35.6221   46.8299 H   0  0  0  0  0  0  0  0  0  0  0  0
   59.6310   32.8930   47.4140 H   0  0  0  0  0  0  0  0  0  0  0  0
   61.1879   34.4912   49.2234 H   0  0  0  0  0  0  0  0  0  0  0  0
   59.5594   35.1444   48.6863 H   0  0  0  0  0  0  0  0  0  0  0  0
   59.2097   31.7150   48.4527 H   0  0  0  0  0  0  0  0  0  0  0  0
   58.0069   30.2854   50.1047 H   0  0  0  0  0  0  0  0  0  0  0  0
   57.6185   31.1109   52.4286 H   0  0  0  0  0  0  0  0  0  0  0  0
   58.4478   33.3640   53.1069 H   0  0  0  0  0  0  0  0  0  0  0  0
   59.6558   34.8008   51.4643 H   0  0  0  0  0  0  0  0  0  0  0  0
   62.5852   31.4813   50.5373 H   0  0  0  0  0  0  0  0  0  0  0  0
   61.6304   30.9780   49.1015 H   0  0  0  0  0  0  0  0  0  0  0  0
   63.4172   30.7937   49.1015 H   0  0  0  0  0  0  0  0  0  0  0  0
   64.6101   33.2071   49.6930 H   0  0  0  0  0  0  0  0  0  0  0  0
   64.6383   32.2917   48.1477 H   0  0  0  0  0  0  0  0  0  0  0  0
   64.2331   34.0417   48.1477 H   0  0  0  0  0  0  0  0  0  0  0  0
  1  2  1  0
  2  3  1  0
  3  4  2  0
  4  5  1  0
  4  6  1  0
  6  7  1  0
  7  8  2  3
  8  9  1  0
  9 10  2  0
  9 11  1  0
 11 12  1  0
 12 13  1  0
 13 14  1  0
 14 15  2  0
 15 16  1  0
 16 17  2  0
 17 18  1  0
 18 19  2  0
 12 20  1  0
 20 21  2  0
 20 22  2  0
 20 23  1  0
 23 24  1  0
 23 25  1  0
  7 26  1  0
 26  2  2  0
 19 14  1  0
  1 27  1  0
  1 28  1  0
  1 29  1  0
  3 30  1  0
  5 31  1  0
  5 32  1  0
  5 33  1  0
 11 34  1  0
 11 35  1  0
 12 36  1  6
 13 37  1  0
 13 38  1  0
 15 39  1  0
 16 40  1  0
 17 41  1  0
 18 42  1  0
 19 43  1  0
 24 44  1  0
 24 45  1  0
 24 46  1  0
 25 47  1  0
 25 48  1  0
 25 49  1  0
M  CHG  2   6  -1  12   1
M  END
>  <UniqueID>  (43) 
37

>  <SMILES>  (43) 
Cc1cc(C)[n-]c(=NC(=O)C[N@H+](Cc2ccccc2)S(=O)(=O)N(C)C)n1

>  <Energy>  (43) 
50.805322132552334

>  <Genealogy>  (43) 
Cc1cc(C)[n-]c(=NC(=O)C[NH+](Cc2ccccc2)S(=O)(=O)N(C)C)n1 (protonated)
Cc1cc(C)[n-]c(=NC(=O)C[N@H+](Cc2ccccc2)S(=O)(=O)N(C)C)n1 (chirality)
Cc1cc(C)[n-]c(=NC(=O)C[N@H+](Cc2ccccc2)S(=O)(=O)N(C)C)n1 (3D coordinates assigned)
Cc1cc(C)[n-]c(=NC(=O)C[N@H+](Cc2ccccc2)S(=O)(=O)N(C)C)n1 (optimized conformer: 50.805322132552334 kcal/mol)

>  <smiles>  (43) 
Cc1cc(C)[nH]c(=NC(=O)CN(Cc2ccccc2)S(=O)(=O)N(C)C)n1

>  <score_type>  (43) 
oracle

>  <origin>  (43) 
adg

>  <m_score__min__energy>  (43) 
-8.6799999999999997

>  <m_primary>  (43) 
energy

$$$$
43:0
     RDKit          3D

 52 55  0  0  0  0  0  0  0  0999 V2000
   55.2460   26.7110   45.9770 N   0  0  0  0  0  0  0  0  0  0  0  0
   56.6080   27.1170   46.0900 C   0  0  0  0  0  0  0  0  0  0  0  0
   57.3760   26.5050   46.8810 O   0  0  0  0  0  0  0  0  0  0  0  0
   57.0940   28.2930   45.3370 C   0  0  0  0  0  0  0  0  0  0  0  0
   56.1790   28.9630   44.5080 C   0  0  0  0  0  0  0  0  0  0  0  0
   56.5520   30.1160   43.8170 C   0  0  0  0  0  0  0  0  0  0  0  0
   57.8450   30.6160   43.9390 C   0  0  0  0  0  0  0  0  0  0  0  0
   58.7790   29.9520   44.7360 C   0  0  0  0  0  0  0  0  0  0  0  0
   58.4290   28.7790   45.4360 C   0  0  0  0  0  0  0  0  0  0  0  0
   59.4730   28.0430   46.1200 N   0  0  0  0  0  0  0  0  0  0  0  0
   59.7590   28.6800   47.3830 C   0  0  0  0  0  0  0  0  0  0  0  0
   60.4600   27.9910   48.3860 C   0  0  0  0  0  0  0  0  0  0  0  0
   60.8030   28.6340   49.5760 C   0  0  0  0  0  0  0  0  0  0  0  0
   60.4580   29.9770   49.7840 C   0  0  0  0  0  0  0  0  0  0  0  0
   60.9540   30.8000   51.2630 S   0  0  0  0  0  0  0  0  0  0  0  0
   61.2380   29.7640   52.3150 O   0  0  0  0  0  0  0  0  0  0  0  0
   59.8600   31.7160   51.7370 O   0  0  0  0  0  0  0  0  0  0  0  0
   62.3840   31.7330   50.9410 N   0  0  0  0  0  0  0  0  0  0  0  0
   62.7210   32.2610   49.8000 C   0  0  0  0  0  0  0  0  0  0  0  0
   62.9880   33.6380   49.6490 C   0  0  0  0  0  0  0  0  0  0  0  0
   63.3460   34.1340   48.3930 C   0  0  0  0  0  0  0  0  0  0  0  0
   63.4370   33.2690   47.3040 C   0  0  0  0  0  0  0  0  0  0  0  0
   63.7830   33.7410   46.0810 F   0  0  0  0  0  0  0  0  0  0  0  0
   63.1670   31.9120   47.4850 C   0  0  0  0  0  0  0  0  0  0  0  0
   62.8200   31.4470   48.7140 N   0  0  0  0  0  0  0  0  0  0  0  0
   59.7610   30.6820   48.7850 C   0  0  0  0  0  0  0  0  0  0  0  0
   59.4070   32.0220   49.0070 O   0  0  0  0  0  0  0  0  0  0  0  0
   59.2120   32.9800   48.0010 C   0  0  0  0  0  0  0  0  0  0  0  0
   58.1110   32.9250   47.1260 C   0  0  0  0  0  0  0  0  0  0  0  0
   57.9560   33.8940   46.1300 C   0  0  0  0  0  0  0  0  0  0  0  0
   58.9020   34.9160   45.9950 C   0  0  0  0  0  0  0  0  0  0  0  0
   60.0080   34.9630   46.8490 C   0  0  0  0  0  0  0  0  0  0  0  0
   60.1660   33.9940   47.8440 C   0  0  0  0  0  0  0  0  0  0  0  0
   59.4010   30.0220   47.5970 C   0  0  0  0  0  0  0  0  0  0  0  0
   54.7690   26.7010   45.0480 H   0  0  0  0  0  0  0  0  0  0  0  0
   55.1557   28.5736   44.4024 H   0  0  0  0  0  0  0  0  0  0  0  0
   55.8227   30.6310   43.1744 H   0  0  0  0  0  0  0  0  0  0  0  0
   58.1312   31.5352   43.4069 H   0  0  0  0  0  0  0  0  0  0  0  0
   59.8015   30.3490   44.8191 H   0  0  0  0  0  0  0  0  0  0  0  0
   60.3490   27.9750   45.5610 H   0  0  0  0  0  0  0  0  0  0  0  0
   59.1550   27.0580   46.2750 H   0  0  0  0  0  0  0  0  0  0  0  0
   60.7403   26.9384   48.2327 H   0  0  0  0  0  0  0  0  0  0  0  0
   61.3481   28.0832   50.3567 H   0  0  0  0  0  0  0  0  0  0  0  0
   62.9149   34.3153   50.5127 H   0  0  0  0  0  0  0  0  0  0  0  0
   63.5558   35.2060   48.2637 H   0  0  0  0  0  0  0  0  0  0  0  0
   63.2350   31.2190   46.6334 H   0  0  0  0  0  0  0  0  0  0  0  0
   57.3706   32.1177   47.2259 H   0  0  0  0  0  0  0  0  0  0  0  0
   57.0903   33.8528   45.4526 H   0  0  0  0  0  0  0  0  0  0  0  0
   58.7755   35.6829   45.2166 H   0  0  0  0  0  0  0  0  0  0  0  0
   60.7545   35.7632   46.7378 H   0  0  0  0  0  0  0  0  0  0  0  0
   61.0433   34.0277   48.5067 H   0  0  0  0  0  0  0  0  0  0  0  0
   58.8324   30.5624   46.8259 H   0  0  0  0  0  0  0  0  0  0  0  0
  1  2  1  0
  2  3  2  0
  2  4  1  0
  4  5  2  0
  5  6  1  0
  6  7  2  0
  7  8  1  0
  8  9  2  0
  9 10  1  0
 10 11  1  0
 11 12  2  0
 12 13  1  0
 13 14  2  0
 14 15  1  0
 15 16  2  0
 15 17  2  0
 15 18  1  0
 18 19  2  3
 19 20  1  0
 20 21  2  0
 21 22  1  0
 22 23  1  0
 22 24  2  0
 24 25  1  0
 14 26  1  0
 26 27  1  0
 27 28  1  0
 28 29  2  0
 29 30  1  0
 30 31  2  0
 31 32  1  0
 32 33  2  0
 26 34  2  0
  9  4  1  0
 34 11  1  0
 25 19  1  0
 33 28  1  0
  1 35  1  0
  5 36  1  0
  6 37  1  0
  7 38  1  0
  8 39  1  0
 10 40  1  0
 10 41  1  0
 12 42  1  0
 13 43  1  0
 20 44  1  0
 21 45  1  0
 24 46  1  0
 29 47  1  0
 30 48  1  0
 31 49  1  0
 32 50  1  0
 33 51  1  0
 34 52  1  0
M  CHG  3   1  -1  10   1  25  -1
M  END
>  <UniqueID>  (44) 
38

>  <SMILES>  (44) 
[NH-]C(=O)c1ccccc1[NH2+]c1ccc(S(=O)(=O)N=c2ccc(F)c[n-]2)c(Oc2ccccc2)c1

>  <Energy>  (44) 
78.96997660836547

>  <Genealogy>  (44) 
[NH-]C(=O)c1ccccc1[NH2+]c1ccc(S(=O)(=O)N=c2ccc(F)c[n-]2)c(Oc2ccccc2)c1 (protonated)
[NH-]C(=O)c1ccccc1[NH2+]c1ccc(S(=O)(=O)N=c2ccc(F)c[n-]2)c(Oc2ccccc2)c1 (3D coordinates assigned)
[NH-]C(=O)c1ccccc1[NH2+]c1ccc(S(=O)(=O)N=c2ccc(F)c[n-]2)c(Oc2ccccc2)c1 (optimized conformer: 78.96997660836547 kcal/mol)

>  <smiles>  (44) 
NC(=O)c1ccccc1Nc1ccc(S(=O)(=O)N=c2ccc(F)c[nH]2)c(Oc2ccccc2)c1

>  <score_type>  (44) 
oracle

>  <origin>  (44) 
adg

>  <m_score__min__energy>  (44) 
-12.300000000000001

>  <m_primary>  (44) 
energy

$$$$
44:0
     RDKit          3D

 42 44  0  0  0  0  0  0  0  0999 V2000
   55.3860   28.8220   45.6640 H   0  0  0  0  0  0  0  0  0  0  0  0
   55.1720   29.3880   44.8140 N   0  0  0  0  0  0  0  0  0  0  0  0
   56.1980   30.1110   44.1350 C   0  0  0  0  0  0  0  0  0  0  0  0
   56.2580   30.0630   42.8790 O   0  0  0  0  0  0  0  0  0  0  0  0
   57.1670   30.8970   44.8490 N   0  0  0  0  0  0  0  0  0  0  0  0
   58.1100   30.4650   45.6350 C   0  0  0  0  0  0  0  0  0  0  0  0
   58.2550   31.0270   46.8620 N   0  0  0  0  0  0  0  0  0  0  0  0
   59.2280   30.6010   47.7040 C   0  0  0  0  0  0  0  0  0  0  0  0
   59.3590   31.1920   48.9660 O   0  0  0  0  0  0  0  0  0  0  0  0
   60.2560   32.2700   49.2300 C   0  0  0  0  0  0  0  0  0  0  0  0
   60.4822   32.2991   50.3061 H   0  0  0  0  0  0  0  0  0  0  0  0
   61.1813   32.1156   48.6555 H   0  0  0  0  0  0  0  0  0  0  0  0
   59.6340   33.5780   48.8170 C   0  0  0  0  0  0  0  0  0  0  0  0
   59.5580   34.4970   49.6760 O   0  0  0  0  0  0  0  0  0  0  0  0
   59.1560   33.8370   47.4360 C   0  0  0  0  0  0  0  0  0  0  0  0
   60.0890   34.0980   46.4140 C   0  0  0  0  0  0  0  0  0  0  0  0
   61.1634   34.1186   46.6490 H   0  0  0  0  0  0  0  0  0  0  0  0
   59.6620   34.3310   45.1040 C   0  0  0  0  0  0  0  0  0  0  0  0
   60.4001   34.5281   44.3126 H   0  0  0  0  0  0  0  0  0  0  0  0
   58.2990   34.3140   44.7980 C   0  0  0  0  0  0  0  0  0  0  0  0
   57.9645   34.4904   43.7650 H   0  0  0  0  0  0  0  0  0  0  0  0
   57.3620   34.0730   45.8040 C   0  0  0  0  0  0  0  0  0  0  0  0
   56.2888   34.0648   45.5630 H   0  0  0  0  0  0  0  0  0  0  0  0
   57.7830   33.8420   47.1170 C   0  0  0  0  0  0  0  0  0  0  0  0
   57.0380   33.6630   47.9062 H   0  0  0  0  0  0  0  0  0  0  0  0
   60.0650   29.6040   47.3140 N   0  0  0  0  0  0  0  0  0  0  0  0
   59.9280   29.0310   46.0900 C   0  0  0  0  0  0  0  0  0  0  0  0
   60.7160   28.0710   45.7110 N   0  0  0  0  0  0  0  0  0  0  0  0
   60.7710   26.7670   46.3660 C   0  0  0  0  0  0  0  0  0  0  0  0
   61.5739   26.1649   45.9157 H   0  0  0  0  0  0  0  0  0  0  0  0
   60.9715   26.9055   47.4387 H   0  0  0  0  0  0  0  0  0  0  0  0
   59.4670   26.0640   46.1930 C   0  0  0  0  0  0  0  0  0  0  0  0
   59.3330   24.8530   45.7040 O   0  0  0  0  0  0  0  0  0  0  0  0
   58.0800   24.4980   45.6740 N   0  0  0  0  0  0  0  0  0  0  0  0
   57.3700   25.5310   46.1690 C   0  0  0  0  0  0  0  0  0  0  0  0
   55.9090   25.5310   46.3070 C   0  0  0  0  0  0  0  0  0  0  0  0
   55.3140   24.4930   46.6980 O   0  0  0  0  0  0  0  0  0  0  0  0
   55.1590   26.7040   46.0020 N   0  0  0  0  0  0  0  0  0  0  0  0
   55.5210   27.4110   45.3240 H   0  0  0  0  0  0  0  0  0  0  0  0
   58.2220   26.5610   46.5150 C   0  0  0  0  0  0  0  0  0  0  0  0
   57.9685   27.5416   46.9441 H   0  0  0  0  0  0  0  0  0  0  0  0
   58.9520   29.4660   45.2540 N   0  0  0  0  0  0  0  0  0  0  0  0
  1  2  1  0
  2  3  1  0
  3  4  2  0
  3  5  1  0
  5  6  2  0
  6  7  1  0
  7  8  1  0
  8  9  1  0
  9 10  1  0
 10 11  1  0
 10 12  1  0
 10 13  1  0
 13 14  2  0
 13 15  1  0
 15 16  2  0
 16 17  1  0
 16 18  1  0
 18 19  1  0
 18 20  2  0
 20 21  1  0
 20 22  1  0
 22 23  1  0
 22 24  2  0
 24 25  1  0
  8 26  2  0
 26 27  1  0
 27 28  2  0
 28 29  1  0
 29 30  1  0
 29 31  1  0
 29 32  1  0
 32 33  1  0
 33 34  1  0
 34 35  2  0
 35 36  1  0
 36 37  2  0
 36 38  1  0
 38 39  1  0
 35 40  1  0
 40 41  1  0
 27 42  1  0
 42  6  1  0
 24 15  1  0
 40 32  2  0
M  CHG  4   2  -1   7  -1  38  -1  42  -1
M  END
>  <UniqueID>  (45) 
39

>  <SMILES>  (45) 
[NH-]C(=O)/N=c1/[n-]c(OCC(=O)c2ccccc2)n/c(=N\Cc2cc(C([NH-])=O)no2)[n-]1

>  <Energy>  (45) 
71.69688378652893

>  <Genealogy>  (45) 
[NH-]C(=O)N=c1[n-]c(OCC(=O)c2ccccc2)nc(=NCc2cc(C([NH-])=O)no2)[n-]1 (protonated)
[NH-]C(=O)/N=c1/[n-]c(OCC(=O)c2ccccc2)n/c(=N\Cc2cc(C([NH-])=O)no2)[n-]1 (cis-trans isomerization)
[NH-]C(=O)/N=c1/[n-]c(OCC(=O)c2ccccc2)n/c(=N\Cc2cc(C([NH-])=O)no2)[n-]1 (3D coordinates assigned)
[NH-]C(=O)/N=c1/[n-]c(OCC(=O)c2ccccc2)n/c(=N\Cc2cc(C([NH-])=O)no2)[n-]1 (optimized conformer: 71.69688378652893 kcal/mol)

>  <smiles>  (45) 
NC(=O)N=c1[nH]c(OCC(=O)c2ccccc2)nc(=NCc2cc(C(N)=O)no2)[nH]1

>  <score_type>  (45) 
oracle

>  <origin>  (45) 
adg

>  <m_score__min__energy>  (45) 
-14.890000000000001

>  <m_primary>  (45) 
energy

$$$$
45:0
     RDKit          3D

 63 66  0  0  0  0  0  0  0  0999 V2000
   62.1170   30.2710   52.8790 C   0  0  0  0  0  0  0  0  0  0  0  0
   61.5840   30.4570   51.5720 O   0  0  0  0  0  0  0  0  0  0  0  0
   61.1660   29.4190   50.7220 C   0  0  0  0  0  0  0  0  0  0  0  0
   61.1670   28.0730   51.1430 C   0  0  0  0  0  0  0  0  0  0  0  0
   60.7740   27.0550   50.2680 C   0  0  0  0  0  0  0  0  0  0  0  0
   60.3930   27.3620   48.9540 C   0  0  0  0  0  0  0  0  0  0  0  0
   60.0530   26.3400   48.0090 N   0  0  0  0  0  0  0  0  0  0  0  0
   60.3090   26.3780   46.6020 C   0  0  0  0  0  0  0  0  0  0  0  0
   60.6680   25.3360   45.9910 O   0  0  0  0  0  0  0  0  0  0  0  0
   60.0780   27.6430   45.8380 C   0  0  0  0  0  0  0  0  0  0  0  0
   58.5970   27.9210   45.6510 C   0  0  0  0  0  0  0  0  0  0  0  0
   57.7030   26.9320   46.0890 C   0  0  0  0  0  0  0  0  0  0  0  0
   56.3420   27.0990   45.8670 C   0  0  0  0  0  0  0  0  0  0  0  0
   55.5240   26.2200   46.2440 O   0  0  0  0  0  0  0  0  0  0  0  0
   55.8960   28.2080   45.2350 N   0  0  0  0  0  0  0  0  0  0  0  0
   56.7470   29.1820   44.8290 C   0  0  0  0  0  0  0  0  0  0  0  0
   56.2710   30.1960   44.2470 O   0  0  0  0  0  0  0  0  0  0  0  0
   58.1020   29.0720   45.0580 N   0  0  0  0  0  0  0  0  0  0  0  0
   58.9650   30.2190   44.6890 C   0  0  0  0  0  0  0  0  0  0  0  0
   58.3980   31.5420   45.1670 C   0  0  0  0  0  0  0  0  0  0  0  0
   58.2400   32.5890   44.2400 C   0  0  0  0  0  0  0  0  0  0  0  0
   57.7520   33.8330   44.6540 C   0  0  0  0  0  0  0  0  0  0  0  0
   57.4230   34.0450   45.9940 C   0  0  0  0  0  0  0  0  0  0  0  0
   57.5940   33.0190   46.9290 C   0  0  0  0  0  0  0  0  0  0  0  0
   58.0920   31.7770   46.5230 C   0  0  0  0  0  0  0  0  0  0  0  0
   60.4080   28.6910   48.5280 C   0  0  0  0  0  0  0  0  0  0  0  0
   60.7480   29.7240   49.4090 C   0  0  0  0  0  0  0  0  0  0  0  0
   60.6490   31.3870   48.8130 S   0  0  0  0  0  0  0  0  0  0  0  0
   59.3510   32.0200   49.2280 O   0  0  0  0  0  0  0  0  0  0  0  0
   60.6780   31.3410   47.3100 O   0  0  0  0  0  0  0  0  0  0  0  0
   62.0290   32.2940   49.4030 N   0  0  0  0  0  0  0  0  0  0  0  0
   61.9400   33.7410   49.0880 C   0  0  0  0  0  0  0  0  0  0  0  0
   62.2910   34.0730   47.6280 C   0  0  0  0  0  0  0  0  0  0  0  0
   63.6370   33.4670   47.2300 C   0  0  0  0  0  0  0  0  0  0  0  0
   63.6590   31.9670   47.5160 C   0  0  0  0  0  0  0  0  0  0  0  0
   63.3180   31.6950   48.9890 C   0  0  0  0  0  0  0  0  0  0  0  0
   61.3554   30.5368   53.6268 H   0  0  0  0  0  0  0  0  0  0  0  0
   62.4078   29.2183   53.0100 H   0  0  0  0  0  0  0  0  0  0  0  0
   62.9997   30.9142   53.0100 H   0  0  0  0  0  0  0  0  0  0  0  0
   61.4793   27.8218   52.1674 H   0  0  0  0  0  0  0  0  0  0  0  0
   60.7638   26.0102   50.6118 H   0  0  0  0  0  0  0  0  0  0  0  0
   60.5316   28.4803   46.3886 H   0  0  0  0  0  0  0  0  0  0  0  0
   60.5354   27.5326   44.8437 H   0  0  0  0  0  0  0  0  0  0  0  0
   58.0761   26.0338   46.6028 H   0  0  0  0  0  0  0  0  0  0  0  0
   59.9573   30.0752   45.1413 H   0  0  0  0  0  0  0  0  0  0  0  0
   59.0258   30.2554   43.5913 H   0  0  0  0  0  0  0  0  0  0  0  0
   58.5017   32.4283   43.1838 H   0  0  0  0  0  0  0  0  0  0  0  0
   57.6274   34.6452   43.9227 H   0  0  0  0  0  0  0  0  0  0  0  0
   57.0287   35.0204   46.3150 H   0  0  0  0  0  0  0  0  0  0  0  0
   57.3365   33.1892   47.9848 H   0  0  0  0  0  0  0  0  0  0  0  0
   58.2457   30.9797   47.2651 H   0  0  0  0  0  0  0  0  0  0  0  0
   60.1491   28.9298   47.4859 H   0  0  0  0  0  0  0  0  0  0  0  0
   61.9860   32.2130   50.4470 H   0  0  0  0  0  0  0  0  0  0  0  0
   60.9113   34.0775   49.2841 H   0  0  0  0  0  0  0  0  0  0  0  0
   62.6754   34.2565   49.7232 H   0  0  0  0  0  0  0  0  0  0  0  0
   61.5074   33.6691   46.9701 H   0  0  0  0  0  0  0  0  0  0  0  0
   62.3582   35.1662   47.5265 H   0  0  0  0  0  0  0  0  0  0  0  0
   63.8038   33.6322   46.1554 H   0  0  0  0  0  0  0  0  0  0  0  0
   64.4306   33.9510   47.8181 H   0  0  0  0  0  0  0  0  0  0  0  0
   62.9194   31.4653   46.8746 H   0  0  0  0  0  0  0  0  0  0  0  0
   64.6671   31.5797   47.3069 H   0  0  0  0  0  0  0  0  0  0  0  0
   63.2643   30.6069   49.1415 H   0  0  0  0  0  0  0  0  0  0  0  0
   64.1074   32.1561   49.6007 H   0  0  0  0  0  0  0  0  0  0  0  0
  1  2  1  0
  2  3  1  0
  3  4  2  0
  4  5  1  0
  5  6  2  0
  6  7  1  0
  7  8  1  0
  8  9  2  0
  8 10  1  0
 10 11  1  0
 11 12  2  0
 12 13  1  0
 13 14  2  0
 13 15  1  0
 15 16  1  0
 16 17  2  0
 16 18  1  0
 18 19  1  0
 19 20  1  0
 20 21  2  0
 21 22  1  0
 22 23  2  0
 23 24  1  0
 24 25  2  0
  6 26  1  0
 26 27  2  0
 27 28  1  0
 28 29  2  0
 28 30  2  0
 28 31  1  0
 31 32  1  0
 32 33  1  0
 33 34  1  0
 34 35  1  0
 35 36  1  0
 27  3  1  0
 36 31  1  0
 18 11  1  0
 25 20  1  0
  1 37  1  0
  1 38  1  0
  1 39  1  0
  4 40  1  0
  5 41  1  0
 10 42  1  0
 10 43  1  0
 12 44  1  0
 19 45  1  0
 19 46  1  0
 21 47  1  0
 22 48  1  0
 23 49  1  0
 24 50  1  0
 25 51  1  0
 26 52  1  0
 31 53  1  0
 32 54  1  0
 32 55  1  0
 33 56  1  0
 33 57  1  0
 34 58  1  0
 34 59  1  0
 35 60  1  0
 35 61  1  0
 36 62  1  0
 36 63  1  0
M  CHG  3   7  -1  15  -1  31   1
M  END
>  <UniqueID>  (46) 
40

>  <SMILES>  (46) 
COc1ccc([N-]C(=O)Cc2cc(=O)[n-]c(=O)n2Cc2ccccc2)cc1S(=O)(=O)[NH+]1CCCCC1

>  <Energy>  (46) 
73.01567184416143

>  <Genealogy>  (46) 
COc1ccc([N-]C(=O)Cc2cc(=O)[n-]c(=O)n2Cc2ccccc2)cc1S(=O)(=O)[NH+]1CCCCC1 (protonated)
COc1ccc([N-]C(=O)Cc2cc(=O)[n-]c(=O)n2Cc2ccccc2)cc1S(=O)(=O)[NH+]1CCCCC1 (3D coordinates assigned)
COc1ccc([N-]C(=O)Cc2cc(=O)[n-]c(=O)n2Cc2ccccc2)cc1S(=O)(=O)[NH+]1CCCCC1 (nonaromatic ring conformer: 73.01567184416143 kcal/mol)

>  <smiles>  (46) 
COc1ccc(NC(=O)Cc2cc(=O)[nH]c(=O)n2Cc2ccccc2)cc1S(=O)(=O)N1CCCCC1

>  <score_type>  (46) 
oracle

>  <origin>  (46) 
adg

>  <m_score__min__energy>  (46) 
-10.880000000000001

>  <m_primary>  (46) 
energy

$$$$
46:0
     RDKit          3D

 56 58  0  0  0  0  0  0  0  0999 V2000
   64.9210   33.1530   49.5820 C   0  0  0  0  0  0  0  0  0  0  0  0
   63.7340   33.0050   48.9780 C   0  0  0  0  0  0  0  0  0  0  0  0
   63.6600   32.3340   47.7490 C   0  0  0  0  0  0  0  0  0  0  0  0
   62.4370   32.1760   47.0980 C   0  0  0  0  0  0  0  0  0  0  0  0
   61.2470   32.6770   47.6580 C   0  0  0  0  0  0  0  0  0  0  0  0
   60.0750   32.5390   46.9880 C   0  0  0  0  0  0  0  0  0  0  0  0
   59.2460   33.5880   46.6020 C   0  0  0  0  0  0  0  0  0  0  0  0
   59.5440   35.0640   46.6780 C   0  0  0  0  0  0  0  0  0  0  0  0
   58.1650   33.0300   45.9370 C   0  0  0  0  0  0  0  0  0  0  0  0
   57.0400   33.8400   45.3500 C   0  0  0  0  0  0  0  0  0  0  0  0
   58.3850   31.6420   45.9030 C   0  0  0  0  0  0  0  0  0  0  0  0
   57.6150   30.6910   45.3120 C   0  0  0  0  0  0  0  0  0  0  0  0
   57.9830   29.7600   44.1840 C   0  0  0  0  0  0  0  0  0  0  0  0
   57.7540   28.2960   44.5040 C   0  0  0  0  0  0  0  0  0  0  0  0
   58.1490   27.2460   43.4940 C   0  0  0  0  0  0  0  0  0  0  0  0
   57.3310   27.9710   45.7450 C   0  0  0  0  0  0  0  0  0  0  0  0
   56.5420   26.7760   46.1110 C   0  0  0  0  0  0  0  0  0  0  0  0
   57.1320   25.7910   46.6280 O   0  0  0  0  0  0  0  0  0  0  0  0
   55.1650   26.7160   45.9360 O   0  0  0  0  0  0  0  0  0  0  0  0
   59.5500   31.3520   46.5620 N   0  0  0  0  0  0  0  0  0  0  0  0
   59.9360   30.0240   47.0960 C   0  0  0  0  0  0  0  0  0  0  0  0
   59.8320   30.0160   48.6010 C   0  0  0  0  0  0  0  0  0  0  0  0
   60.9950   30.0150   49.3900 C   0  0  0  0  0  0  0  0  0  0  0  0
   60.9010   30.0410   50.7840 C   0  0  0  0  0  0  0  0  0  0  0  0
   59.6480   30.0780   51.4020 C   0  0  0  0  0  0  0  0  0  0  0  0
   58.4850   30.0850   50.6250 C   0  0  0  0  0  0  0  0  0  0  0  0
   57.2380   30.1240   51.2400 O   0  0  0  0  0  0  0  0  0  0  0  0
   58.5750   30.0550   49.2290 C   0  0  0  0  0  0  0  0  0  0  0  0
   61.3140   33.3420   48.9060 C   0  0  0  0  0  0  0  0  0  0  0  0
   60.1390   33.7740   49.5310 O   0  0  0  0  0  0  0  0  0  0  0  0
   62.5520   33.5130   49.5550 C   0  0  0  0  0  0  0  0  0  0  0  0
   62.5970   34.1790   50.7770 O   0  0  0  0  0  0  0  0  0  0  0  0
   64.9857   33.6784   50.5462 H   0  0  0  0  0  0  0  0  0  0  0  0
   65.8306   32.7491   49.1136 H   0  0  0  0  0  0  0  0  0  0  0  0
   64.5756   31.9283   47.2940 H   0  0  0  0  0  0  0  0  0  0  0  0
   62.4018   31.6516   46.1317 H   0  0  0  0  0  0  0  0  0  0  0  0
   59.6061   35.3717   47.7323 H   0  0  0  0  0  0  0  0  0  0  0  0
   60.5020   35.2708   46.1786 H   0  0  0  0  0  0  0  0  0  0  0  0
   58.7413   35.6263   46.1786 H   0  0  0  0  0  0  0  0  0  0  0  0
   56.4378   34.2736   46.1620 H   0  0  0  0  0  0  0  0  0  0  0  0
   57.4549   34.6480   44.7295 H   0  0  0  0  0  0  0  0  0  0  0  0
   56.4053   33.1903   44.7295 H   0  0  0  0  0  0  0  0  0  0  0  0
   56.5934   30.5870   45.7065 H   0  0  0  0  0  0  0  0  0  0  0  0
   57.3762   30.0225   43.3048 H   0  0  0  0  0  0  0  0  0  0  0  0
   59.0606   29.8850   44.0021 H   0  0  0  0  0  0  0  0  0  0  0  0
   58.4893   26.3415   44.0194 H   0  0  0  0  0  0  0  0  0  0  0  0
   57.2822   26.9995   42.8633 H   0  0  0  0  0  0  0  0  0  0  0  0
   58.9634   27.6319   42.8633 H   0  0  0  0  0  0  0  0  0  0  0  0
   57.5988   28.6602   46.5594 H   0  0  0  0  0  0  0  0  0  0  0  0
   59.2652   29.2570   46.6816 H   0  0  0  0  0  0  0  0  0  0  0  0
   60.9757   29.8101   46.8074 H   0  0  0  0  0  0  0  0  0  0  0  0
   61.9836   29.9937   48.9081 H   0  0  0  0  0  0  0  0  0  0  0  0
   61.8149   30.0323   51.3961 H   0  0  0  0  0  0  0  0  0  0  0  0
   59.5765   30.1016   52.4994 H   0  0  0  0  0  0  0  0  0  0  0  0
   57.6586   30.0620   48.6206 H   0  0  0  0  0  0  0  0  0  0  0  0
   60.1350   34.1920   50.4520 H   0  0  0  0  0  0  0  0  0  0  0  0
  1  2  2  0
  2  3  1  0
  3  4  2  0
  4  5  1  0
  5  6  2  3
  6  7  1  0
  7  8  1  0
  7  9  2  0
  9 10  1  0
  9 11  1  0
 11 12  2  3
 12 13  1  0
 13 14  1  0
 14 15  1  0
 14 16  2  3
 16 17  1  0
 17 18  2  0
 17 19  1  0
 11 20  1  0
 20 21  1  0
 21 22  1  0
 22 23  2  0
 23 24  1  0
 24 25  2  0
 25 26  1  0
 26 27  1  0
 26 28  2  0
  5 29  1  0
 29 30  1  0
 29 31  2  0
 31 32  1  0
 31  2  1  0
 20  6  1  0
 28 22  1  0
  1 33  1  0
  1 34  1  0
  3 35  1  0
  4 36  1  0
  8 37  1  0
  8 38  1  0
  8 39  1  0
 10 40  1  0
 10 41  1  0
 10 42  1  0
 12 43  1  0
 13 44  1  0
 13 45  1  0
 15 46  1  0
 15 47  1  0
 15 48  1  0
 16 49  1  0
 21 50  1  0
 21 51  1  0
 23 52  1  0
 24 53  1  0
 25 54  1  0
 28 55  1  0
 30 56  1  0
M  CHG  3  19  -1  27  -1  32  -1
M  END
>  <UniqueID>  (47) 
41

>  <SMILES>  (47) 
C=c1ccc(=c2c(C)c(C)c(=CCC(C)=CC(=O)[O-])n2Cc2cccc([O-])c2)c(O)c1[O-]

>  <Energy>  (47) 
123.23241396809726

>  <Genealogy>  (47) 
C=c1ccc(=c2c(C)c(C)c(=CCC(C)=CC(=O)[O-])n2Cc2cccc([O-])c2)c(O)c1[O-] (protonated)
C=c1ccc(=c2c(C)c(C)c(=CCC(C)=CC(=O)[O-])n2Cc2cccc([O-])c2)c(O)c1[O-] (3D coordinates assigned)
C=c1ccc(=c2c(C)c(C)c(=CCC(C)=CC(=O)[O-])n2Cc2cccc([O-])c2)c(O)c1[O-] (optimized conformer: 123.23241396809726 kcal/mol)

>  <smiles>  (47) 
C=c1ccc(=c2c(C)c(C)c(=CCC(C)=CC(=O)O)n2Cc2cccc(O)c2)c(O)c1O

>  <score_type>  (47) 
oracle

>  <origin>  (47) 
adg

>  <m_score__min__energy>  (47) 
-16.02

>  <m_primary>  (47) 
energy

$$$$
47:0
     RDKit          3D

 59 61  0  0  0  0  0  0  0  0999 V2000
   52.4520   23.9620   44.8780 C   0  0  0  0  0  0  0  0  0  0  0  0
   52.5120   22.6000   45.2400 O   0  0  0  0  0  0  0  0  0  0  0  0
   53.6620   22.3490   46.0270 C   0  0  0  0  0  0  0  0  0  0  0  0
   54.3900   23.6520   46.3680 C   0  0  0  0  0  0  0  0  0  0  0  0
   55.7500   23.3520   46.8770 N   0  0  0  0  0  0  0  0  0  0  0  0
   55.8380   21.9790   47.4160 C   0  0  0  0  0  0  0  0  0  0  0  0
   56.8210   23.7130   45.9060 C   0  0  0  0  0  0  0  0  0  0  0  0
   56.2080   24.1370   44.5490 C   0  0  0  0  0  0  0  0  0  0  0  0
   57.1880   24.9740   43.7240 C   0  0  0  0  0  0  0  0  0  0  0  0
   57.5900   26.1750   44.4690 N   0  0  0  0  0  0  0  0  0  0  0  0
   58.1110   27.3070   43.7440 C   0  0  0  0  0  0  0  0  0  0  0  0
   58.7780   27.1120   42.6910 O   0  0  0  0  0  0  0  0  0  0  0  0
   57.8810   28.6940   44.2050 C   0  0  0  0  0  0  0  0  0  0  0  0
   58.9300   29.4650   44.7240 C   0  0  0  0  0  0  0  0  0  0  0  0
   58.6950   30.7680   45.1630 C   0  0  0  0  0  0  0  0  0  0  0  0
   57.3900   31.2960   45.1050 C   0  0  0  0  0  0  0  0  0  0  0  0
   57.1040   32.5090   45.4930 N   0  0  0  0  0  0  0  0  0  0  0  0
   57.9880   33.6410   45.5090 C   0  0  0  0  0  0  0  0  0  0  0  0
   57.7550   34.5990   44.7250 O   0  0  0  0  0  0  0  0  0  0  0  0
   59.1100   33.7420   46.4760 C   0  0  0  0  0  0  0  0  0  0  0  0
   58.8620   33.8440   47.8550 C   0  0  0  0  0  0  0  0  0  0  0  0
   59.9240   33.9330   48.7600 C   0  0  0  0  0  0  0  0  0  0  0  0
   61.2420   33.9260   48.2980 C   0  0  0  0  0  0  0  0  0  0  0  0
   61.5080   33.8280   46.9240 C   0  0  0  0  0  0  0  0  0  0  0  0
   62.9200   33.8250   46.4140 C   0  0  0  0  0  0  0  0  0  0  0  0
   60.4400   33.7430   46.0190 C   0  0  0  0  0  0  0  0  0  0  0  0
   56.3890   30.5260   44.6000 N   0  0  0  0  0  0  0  0  0  0  0  0
   56.5970   29.2550   44.1640 C   0  0  0  0  0  0  0  0  0  0  0  0
   57.6390   26.1560   45.9400 C   0  0  0  0  0  0  0  0  0  0  0  0
   57.8610   24.7320   46.4630 C   0  0  0  0  0  0  0  0  0  0  0  0
   52.4247   24.5819   45.7863 H   0  0  0  0  0  0  0  0  0  0  0  0
   53.3395   24.2226   44.2827 H   0  0  0  0  0  0  0  0  0  0  0  0
   51.5450   24.1436   44.2827 H   0  0  0  0  0  0  0  0  0  0  0  0
   53.3577   21.8524   46.9602 H   0  0  0  0  0  0  0  0  0  0  0  0
   54.3455   21.7062   45.4529 H   0  0  0  0  0  0  0  0  0  0  0  0
   54.4679   24.2737   45.4639 H   0  0  0  0  0  0  0  0  0  0  0  0
   53.8243   24.1910   47.1423 H   0  0  0  0  0  0  0  0  0  0  0  0
   55.8356   22.0158   48.5154 H   0  0  0  0  0  0  0  0  0  0  0  0
   54.9756   21.3921   47.0669 H   0  0  0  0  0  0  0  0  0  0  0  0
   56.7682   21.5070   47.0669 H   0  0  0  0  0  0  0  0  0  0  0  0
   57.4148   22.8039   45.7302 H   0  0  0  0  0  0  0  0  0  0  0  0
   55.9428   23.2340   43.9796 H   0  0  0  0  0  0  0  0  0  0  0  0
   55.3175   24.7504   44.7509 H   0  0  0  0  0  0  0  0  0  0  0  0
   58.0803   24.3710   43.5000 H   0  0  0  0  0  0  0  0  0  0  0  0
   56.6954   25.2820   42.7899 H   0  0  0  0  0  0  0  0  0  0  0  0
   59.9430   29.0408   44.7854 H   0  0  0  0  0  0  0  0  0  0  0  0
   59.5229   31.3791   45.5518 H   0  0  0  0  0  0  0  0  0  0  0  0
   57.8261   33.8539   48.2250 H   0  0  0  0  0  0  0  0  0  0  0  0
   59.7210   34.0087   49.8384 H   0  0  0  0  0  0  0  0  0  0  0  0
   62.0742   33.9976   49.0138 H   0  0  0  0  0  0  0  0  0  0  0  0
   63.6172   33.8235   47.2649 H   0  0  0  0  0  0  0  0  0  0  0  0
   63.0868   32.9265   45.8017 H   0  0  0  0  0  0  0  0  0  0  0  0
   63.0906   34.7228   45.8017 H   0  0  0  0  0  0  0  0  0  0  0  0
   60.6448   33.6764   44.9403 H   0  0  0  0  0  0  0  0  0  0  0  0
   55.7536   28.6641   43.7772 H   0  0  0  0  0  0  0  0  0  0  0  0
   58.4650   26.7975   46.2809 H   0  0  0  0  0  0  0  0  0  0  0  0
   56.6786   26.5265   46.3279 H   0  0  0  0  0  0  0  0  0  0  0  0
   58.8682   24.4026   46.1679 H   0  0  0  0  0  0  0  0  0  0  0  0
   57.7437   24.7595   47.5564 H   0  0  0  0  0  0  0  0  0  0  0  0
  1  2  1  0
  2  3  1  0
  3  4  1  0
  4  5  1  0
  5  6  1  0
  5  7  1  0
  7  8  1  0
  8  9  1  0
  9 10  1  0
 10 11  1  0
 11 12  2  0
 11 13  1  0
 13 14  1  0
 14 15  2  0
 15 16  1  0
 16 17  2  3
 17 18  1  0
 18 19  2  0
 18 20  1  0
 20 21  2  0
 21 22  1  0
 22 23  2  0
 23 24  1  0
 24 25  1  0
 24 26  2  0
 16 27  1  0
 27 28  1  0
 10 29  1  0
 29 30  1  0
 30  7  1  0
 28 13  2  0
 26 20  1  0
  1 31  1  0
  1 32  1  0
  1 33  1  0
  3 34  1  0
  3 35  1  0
  4 36  1  0
  4 37  1  0
  6 38  1  0
  6 39  1  0
  6 40  1  0
  7 41  1  0
  8 42  1  0
  8 43  1  0
  9 44  1  0
  9 45  1  0
 14 46  1  0
 15 47  1  0
 21 48  1  0
 22 49  1  0
 23 50  1  0
 25 51  1  0
 25 52  1  0
 25 53  1  0
 26 54  1  0
 28 55  1  0
 29 56  1  0
 29 57  1  0
 30 58  1  0
 30 59  1  0
M  CHG  1  27  -1
M  END
>  <UniqueID>  (48) 
42

>  <SMILES>  (48) 
COCCN(C)C1CCN(C(=O)c2ccc(=NC(=O)c3cccc(C)c3)[n-]c2)CC1

>  <Energy>  (48) 
85.0427469349235

>  <Genealogy>  (48) 
COCCN(C)C1CCN(C(=O)c2ccc(=NC(=O)c3cccc(C)c3)[n-]c2)CC1 (protonated)
COCCN(C)C1CCN(C(=O)c2ccc(=NC(=O)c3cccc(C)c3)[n-]c2)CC1 (3D coordinates assigned)
COCCN(C)C1CCN(C(=O)c2ccc(=NC(=O)c3cccc(C)c3)[n-]c2)CC1 (nonaromatic ring conformer: 85.0427469349235 kcal/mol)

>  <smiles>  (48) 
COCCN(C)C1CCN(C(=O)c2ccc(=NC(=O)c3cccc(C)c3)[nH]c2)CC1

>  <score_type>  (48) 
oracle

>  <origin>  (48) 
adg

>  <m_score__min__energy>  (48) 
-10.59

>  <m_primary>  (48) 
energy

$$$$
48:0
     RDKit          3D

 65 69  0  0  0  0  0  0  0  0999 V2000
   57.5570   29.7810   55.1630 C   0  0  0  0  0  0  0  0  0  0  0  0
   57.5730   30.3530   53.7790 C   0  0  0  0  0  0  0  0  0  0  0  0
   58.7230   30.9170   53.3200 N   0  0  0  0  0  0  0  0  0  0  0  0
   58.8220   31.4610   52.0780 C   0  0  0  0  0  0  0  0  0  0  0  0
   57.7180   31.4490   51.2170 C   0  0  0  0  0  0  0  0  0  0  0  0
   57.7790   32.0290   49.9040 N   0  0  0  0  0  0  0  0  0  0  0  0
   58.7470   31.6470   48.9100 C   0  0  0  0  0  0  0  0  0  0  0  0
   59.6190   30.7730   49.1690 O   0  0  0  0  0  0  0  0  0  0  0  0
   58.6590   32.1980   47.5420 C   0  0  0  0  0  0  0  0  0  0  0  0
   57.8500   31.5550   46.5940 C   0  0  0  0  0  0  0  0  0  0  0  0
   57.6100   32.1460   45.3490 C   0  0  0  0  0  0  0  0  0  0  0  0
   56.6060   31.6050   44.4940 N   0  0  0  0  0  0  0  0  0  0  0  0
   56.5240   29.8900   44.2720 S   0  0  0  0  0  0  0  0  0  0  0  0
   56.3460   29.5710   42.8150 O   0  0  0  0  0  0  0  0  0  0  0  0
   55.3420   29.3510   45.0300 O   0  0  0  0  0  0  0  0  0  0  0  0
   58.0370   29.1670   44.8580 C   0  0  0  0  0  0  0  0  0  0  0  0
   59.2470   29.7950   44.5170 C   0  0  0  0  0  0  0  0  0  0  0  0
   60.4710   29.2290   44.8740 C   0  0  0  0  0  0  0  0  0  0  0  0
   60.5120   28.0260   45.5760 C   0  0  0  0  0  0  0  0  0  0  0  0
   59.3240   27.3740   45.9320 C   0  0  0  0  0  0  0  0  0  0  0  0
   59.3770   26.1550   46.6290 C   0  0  0  0  0  0  0  0  0  0  0  0
   58.2000   25.4910   46.9770 C   0  0  0  0  0  0  0  0  0  0  0  0
   56.9640   26.0360   46.6370 C   0  0  0  0  0  0  0  0  0  0  0  0
   56.8940   27.2470   45.9430 C   0  0  0  0  0  0  0  0  0  0  0  0
   58.0690   27.9420   45.5790 C   0  0  0  0  0  0  0  0  0  0  0  0
   58.2420   33.3500   45.0150 C   0  0  0  0  0  0  0  0  0  0  0  0
   59.1060   33.9620   45.9270 C   0  0  0  0  0  0  0  0  0  0  0  0
   59.3070   33.3990   47.1920 C   0  0  0  0  0  0  0  0  0  0  0  0
   60.1490   34.0170   48.0620 F   0  0  0  0  0  0  0  0  0  0  0  0
   56.5190   30.8910   51.6690 C   0  0  0  0  0  0  0  0  0  0  0  0
   56.4350   30.3170   52.9450 C   0  0  0  0  0  0  0  0  0  0  0  0
   55.2020   29.7090   53.3700 N   0  0  0  0  0  0  0  0  0  0  0  0
   54.2650   30.4540   54.2130 C   0  0  0  0  0  0  0  0  0  0  0  0
   52.9480   30.7130   53.4550 C   0  0  0  0  0  0  0  0  0  0  0  0
   52.5780   29.6380   52.4960 N   0  0  0  0  0  0  0  0  0  0  0  0
   52.7950   30.0530   51.0980 C   0  0  0  0  0  0  0  0  0  0  0  0
   53.2250   28.3400   52.7880 C   0  0  0  0  0  0  0  0  0  0  0  0
   54.7610   28.4460   52.7660 C   0  0  0  0  0  0  0  0  0  0  0  0
   57.5799   30.5990   55.8981 H   0  0  0  0  0  0  0  0  0  0  0  0
   56.6419   29.1871   55.3037 H   0  0  0  0  0  0  0  0  0  0  0  0
   58.4375   29.1368   55.3037 H   0  0  0  0  0  0  0  0  0  0  0  0
   59.7704   31.9110   51.7492 H   0  0  0  0  0  0  0  0  0  0  0  0
   56.9550   32.5880   49.5890 H   0  0  0  0  0  0  0  0  0  0  0  0
   57.4010   30.5792   46.8310 H   0  0  0  0  0  0  0  0  0  0  0  0
   59.2288   30.7444   43.9618 H   0  0  0  0  0  0  0  0  0  0  0  0
   61.4085   29.7349   44.6000 H   0  0  0  0  0  0  0  0  0  0  0  0
   61.4817   27.5861   45.8520 H   0  0  0  0  0  0  0  0  0  0  0  0
   60.3508   25.7221   46.9016 H   0  0  0  0  0  0  0  0  0  0  0  0
   58.2483   24.5359   47.5206 H   0  0  0  0  0  0  0  0  0  0  0  0
   56.0387   25.5107   46.9161 H   0  0  0  0  0  0  0  0  0  0  0  0
   55.9117   27.6644   45.6768 H   0  0  0  0  0  0  0  0  0  0  0  0
   58.0584   33.8141   44.0347 H   0  0  0  0  0  0  0  0  0  0  0  0
   59.6295   34.8888   45.6496 H   0  0  0  0  0  0  0  0  0  0  0  0
   55.6329   30.9024   51.0173 H   0  0  0  0  0  0  0  0  0  0  0  0
   54.0518   29.8706   55.1208 H   0  0  0  0  0  0  0  0  0  0  0  0
   54.7176   31.4199   54.4815 H   0  0  0  0  0  0  0  0  0  0  0  0
   52.1382   30.8114   54.1930 H   0  0  0  0  0  0  0  0  0  0  0  0
   53.0971   31.6284   52.8635 H   0  0  0  0  0  0  0  0  0  0  0  0
   53.3046   31.0276   51.0797 H   0  0  0  0  0  0  0  0  0  0  0  0
   53.4170   29.3043   50.5856 H   0  0  0  0  0  0  0  0  0  0  0  0
   51.8252   30.1367   50.5856 H   0  0  0  0  0  0  0  0  0  0  0  0
   52.9063   28.0000   53.7844 H   0  0  0  0  0  0  0  0  0  0  0  0
   52.9215   27.6251   52.0090 H   0  0  0  0  0  0  0  0  0  0  0  0
   55.1892   27.6058   53.3324 H   0  0  0  0  0  0  0  0  0  0  0  0
   55.1030   28.4151   51.7210 H   0  0  0  0  0  0  0  0  0  0  0  0
  1  2  1  0
  2  3  2  0
  3  4  1  0
  4  5  2  0
  5  6  1  0
  6  7  1  0
  7  8  2  0
  7  9  1  0
  9 10  2  0
 10 11  1  0
 11 12  1  0
 12 13  1  0
 13 14  2  0
 13 15  2  0
 13 16  1  0
 16 17  2  0
 17 18  1  0
 18 19  2  0
 19 20  1  0
 20 21  2  0
 21 22  1  0
 22 23  2  0
 23 24  1  0
 24 25  2  0
 11 26  2  0
 26 27  1  0
 27 28  2  0
 28 29  1  0
  5 30  1  0
 30 31  2  0
 31 32  1  0
 32 33  1  0
 33 34  1  0
 34 35  1  0
 35 36  1  0
 35 37  1  0
 37 38  1  0
 31  2  1  0
 38 32  1  0
 28  9  1  0
 25 16  1  0
 25 20  1  0
  1 39  1  0
  1 40  1  0
  1 41  1  0
  4 42  1  0
  6 43  1  0
 10 44  1  0
 17 45  1  0
 18 46  1  0
 19 47  1  0
 21 48  1  0
 22 49  1  0
 23 50  1  0
 24 51  1  0
 26 52  1  0
 27 53  1  0
 30 54  1  0
 33 55  1  0
 33 56  1  0
 34 57  1  0
 34 58  1  0
 36 59  1  0
 36 60  1  0
 36 61  1  0
 37 62  1  0
 37 63  1  0
 38 64  1  0
 38 65  1  0
M  CHG  1  12  -1
M  END
>  <UniqueID>  (49) 
43

>  <SMILES>  (49) 
Cc1ncc(NC(=O)c2cc([N-]S(=O)(=O)c3cccc4ccccc34)ccc2F)cc1N1CCN(C)CC1

>  <Energy>  (49) 
103.40357023429841

>  <Genealogy>  (49) 
Cc1ncc(NC(=O)c2cc([N-]S(=O)(=O)c3cccc4ccccc34)ccc2F)cc1N1CCN(C)CC1 (protonated)
Cc1ncc(NC(=O)c2cc([N-]S(=O)(=O)c3cccc4ccccc34)ccc2F)cc1N1CCN(C)CC1 (3D coordinates assigned)
Cc1ncc(NC(=O)c2cc([N-]S(=O)(=O)c3cccc4ccccc34)ccc2F)cc1N1CCN(C)CC1 (nonaromatic ring conformer: 103.40357023429841 kcal/mol)

>  <smiles>  (49) 
Cc1ncc(NC(=O)c2cc(NS(=O)(=O)c3cccc4ccccc34)ccc2F)cc1N1CCN(C)CC1

>  <score_type>  (49) 
oracle

>  <origin>  (49) 
adg

>  <m_score__min__energy>  (49) 
-11.41

>  <m_primary>  (49) 
energy

$$$$
49:0
     RDKit          3D

 34 36  0  0  0  0  0  0  0  0999 V2000
   57.8610   32.7450   43.0570 O   0  0  0  0  0  0  0  0  0  0  0  0
   57.7300   32.3800   44.2580 C   0  0  0  0  0  0  0  0  0  0  0  0
   56.9910   31.1010   44.5660 C   0  0  0  0  0  0  0  0  0  0  0  0
   57.9240   29.9250   44.6700 C   0  0  0  0  0  0  0  0  0  0  0  0
   59.1240   30.0540   44.3070 O   0  0  0  0  0  0  0  0  0  0  0  0
   57.4520   28.6180   45.1830 C   0  0  0  0  0  0  0  0  0  0  0  0
   56.0700   28.3590   45.2350 C   0  0  0  0  0  0  0  0  0  0  0  0
   55.1520   29.3140   44.8110 O   0  0  0  0  0  0  0  0  0  0  0  0
   55.6120   27.1620   45.6830 N   0  0  0  0  0  0  0  0  0  0  0  0
   56.4420   26.1710   46.0900 C   0  0  0  0  0  0  0  0  0  0  0  0
   55.9460   25.0850   46.4940 O   0  0  0  0  0  0  0  0  0  0  0  0
   57.8360   26.3620   46.0580 C   0  0  0  0  0  0  0  0  0  0  0  0
   58.7190   25.3500   46.4780 C   0  0  0  0  0  0  0  0  0  0  0  0
   60.0980   25.5610   46.4540 C   0  0  0  0  0  0  0  0  0  0  0  0
   60.6110   26.7820   46.0180 C   0  0  0  0  0  0  0  0  0  0  0  0
   59.7510   27.7980   45.5970 C   0  0  0  0  0  0  0  0  0  0  0  0
   58.3520   27.6040   45.5990 C   0  0  0  0  0  0  0  0  0  0  0  0
   58.3670   33.1880   45.3320 C   0  0  0  0  0  0  0  0  0  0  0  0
   58.2550   32.7820   46.6760 C   0  0  0  0  0  0  0  0  0  0  0  0
   58.8460   33.5330   47.6960 C   0  0  0  0  0  0  0  0  0  0  0  0
   59.5490   34.7000   47.3910 C   0  0  0  0  0  0  0  0  0  0  0  0
   59.6590   35.1200   46.0640 C   0  0  0  0  0  0  0  0  0  0  0  0
   59.0720   34.3720   45.0390 C   0  0  0  0  0  0  0  0  0  0  0  0
   56.4594   31.2188   45.5218 H   0  0  0  0  0  0  0  0  0  0  0  0
   56.2880   30.9067   43.7425 H   0  0  0  0  0  0  0  0  0  0  0  0
   58.3195   24.3865   46.8274 H   0  0  0  0  0  0  0  0  0  0  0  0
   60.7815   24.7629   46.7795 H   0  0  0  0  0  0  0  0  0  0  0  0
   61.6987   26.9456   46.0057 H   0  0  0  0  0  0  0  0  0  0  0  0
   60.1671   28.7590   45.2604 H   0  0  0  0  0  0  0  0  0  0  0  0
   57.6980   31.8667   46.9249 H   0  0  0  0  0  0  0  0  0  0  0  0
   58.7570   33.2037   48.7418 H   0  0  0  0  0  0  0  0  0  0  0  0
   60.0157   35.2879   48.1952 H   0  0  0  0  0  0  0  0  0  0  0  0
   60.2090   36.0420   45.8243 H   0  0  0  0  0  0  0  0  0  0  0  0
   59.1613   34.7104   43.9962 H   0  0  0  0  0  0  0  0  0  0  0  0
  1  2  2  0
  2  3  1  0
  3  4  1  0
  4  5  2  0
  4  6  1  0
  6  7  2  0
  7  8  1  0
  7  9  1  0
  9 10  1  0
 10 11  2  0
 10 12  1  0
 12 13  2  0
 13 14  1  0
 14 15  2  0
 15 16  1  0
 16 17  2  0
  2 18  1  0
 18 19  2  0
 19 20  1  0
 20 21  2  0
 21 22  1  0
 22 23  2  0
 17  6  1  0
 23 18  1  0
 17 12  1  0
  3 24  1  0
  3 25  1  0
 13 26  1  0
 14 27  1  0
 15 28  1  0
 16 29  1  0
 19 30  1  0
 20 31  1  0
 21 32  1  0
 22 33  1  0
 23 34  1  0
M  CHG  2   8  -1   9  -1
M  END
>  <UniqueID>  (50) 
44

>  <SMILES>  (50) 
O=C(CC(=O)c1c([O-])[n-]c(=O)c2ccccc12)c1ccccc1

>  <Energy>  (50) 
52.60545040608864

>  <Genealogy>  (50) 
O=C(CC(=O)c1c([O-])[n-]c(=O)c2ccccc12)c1ccccc1 (protonated)
O=C(CC(=O)c1c([O-])[n-]c(=O)c2ccccc12)c1ccccc1 (3D coordinates assigned)
O=C(CC(=O)c1c([O-])[n-]c(=O)c2ccccc12)c1ccccc1 (optimized conformer: 52.60545040608864 kcal/mol)

>  <smiles>  (50) 
O=C(CC(=O)c1c(O)[nH]c(=O)c2ccccc12)c1ccccc1

>  <score_type>  (50) 
oracle

>  <origin>  (50) 
adg

>  <m_score__min__energy>  (50) 
-14.09

>  <m_primary>  (50) 
energy

$$$$
50:0
     RDKit          3D

 60 62  0  0  0  0  0  0  0  0999 V2000
   56.3640   30.0740   43.4180 C   0  0  0  0  0  0  0  0  0  0  0  0
   56.3250   30.8160   44.6310 O   0  0  0  0  0  0  0  0  0  0  0  0
   57.3950   31.5700   45.1340 C   0  0  0  0  0  0  0  0  0  0  0  0
   57.4350   32.9710   45.0460 C   0  0  0  0  0  0  0  0  0  0  0  0
   58.5280   33.6770   45.5500 C   0  0  0  0  0  0  0  0  0  0  0  0
   59.6020   32.9990   46.1540 C   0  0  0  0  0  0  0  0  0  0  0  0
   60.7200   33.6820   46.6550 O   0  0  0  0  0  0  0  0  0  0  0  0
   60.8160   34.2180   47.9700 C   0  0  0  0  0  0  0  0  0  0  0  0
   59.5610   31.5920   46.2580 C   0  0  0  0  0  0  0  0  0  0  0  0
   60.6640   30.8620   46.8460 N   0  0  0  0  0  0  0  0  0  0  0  0
   60.3710   30.4970   48.2490 C   0  0  2  0  0  0  0  0  0  0  0  0
   61.5000   30.9100   49.1720 C   0  0  0  0  0  0  0  0  0  0  0  0
   61.3850   30.7490   50.6620 C   0  0  0  0  0  0  0  0  0  0  0  0
   62.5260   31.3830   48.7070 O   0  0  0  0  0  0  0  0  0  0  0  0
   60.1390   29.0150   48.3880 C   0  0  0  0  0  0  0  0  0  0  0  0
   59.6610   28.5630   49.4630 O   0  0  0  0  0  0  0  0  0  0  0  0
   60.4570   28.1290   47.3070 N   0  0  0  0  0  0  0  0  0  0  0  0
   59.5550   27.7210   46.2690 C   0  0  0  0  0  0  0  0  0  0  0  0
   59.7550   28.0980   44.9290 C   0  0  0  0  0  0  0  0  0  0  0  0
   58.8530   27.6900   43.9460 C   0  0  0  0  0  0  0  0  0  0  0  0
   57.7470   26.9070   44.2870 C   0  0  0  0  0  0  0  0  0  0  0  0
   57.5300   26.5390   45.6220 C   0  0  0  0  0  0  0  0  0  0  0  0
   56.1470   25.5280   46.0490 S   0  0  0  0  0  0  0  0  0  0  0  0
   56.2820   25.0770   47.4770 O   0  0  0  0  0  0  0  0  0  0  0  0
   54.8890   26.3420   45.9360 O   0  0  0  0  0  0  0  0  0  0  0  0
   56.0250   24.1310   45.0100 N   0  0  0  0  0  0  0  0  0  0  0  0
   57.3000   23.8850   44.3240 C   0  0  0  0  0  0  0  0  0  0  0  0
   57.1630   22.6700   43.3830 C   0  0  0  0  0  0  0  0  0  0  0  0
   55.9420   21.9750   43.5690 O   0  0  0  0  0  0  0  0  0  0  0  0
   55.7720   21.6630   44.9370 C   0  0  0  0  0  0  0  0  0  0  0  0
   55.6240   22.9440   45.7830 C   0  0  0  0  0  0  0  0  0  0  0  0
   58.4260   26.9670   46.6110 C   0  0  0  0  0  0  0  0  0  0  0  0
   58.4570   30.8940   45.7400 C   0  0  0  0  0  0  0  0  0  0  0  0
   56.4205   28.9996   43.6471 H   0  0  0  0  0  0  0  0  0  0  0  0
   55.4539   30.2772   42.8345 H   0  0  0  0  0  0  0  0  0  0  0  0
   57.2477   30.3714   42.8345 H   0  0  0  0  0  0  0  0  0  0  0  0
   56.6010   33.5143   44.5777 H   0  0  0  0  0  0  0  0  0  0  0  0
   58.5498   34.7742   45.4742 H   0  0  0  0  0  0  0  0  0  0  0  0
   60.6718   33.4129   48.7055 H   0  0  0  0  0  0  0  0  0  0  0  0
   61.8093   34.6693   48.1104 H   0  0  0  0  0  0  0  0  0  0  0  0
   60.0411   34.9860   48.1104 H   0  0  0  0  0  0  0  0  0  0  0  0
   61.5410   31.4340   46.7920 H   0  0  0  0  0  0  0  0  0  0  0  0
   60.8350   29.9960   46.2820 H   0  0  0  0  0  0  0  0  0  0  0  0
   59.4559   31.0357   48.5359 H   0  0  0  0  0  0  0  0  0  0  0  0
   61.9545   31.5463   51.1620 H   0  0  0  0  0  0  0  0  0  0  0  0
   60.3273   30.8135   50.9572 H   0  0  0  0  0  0  0  0  0  0  0  0
   61.7890   29.7694   50.9572 H   0  0  0  0  0  0  0  0  0  0  0  0
   60.6235   28.7152   44.6557 H   0  0  0  0  0  0  0  0  0  0  0  0
   59.0130   27.9858   42.8987 H   0  0  0  0  0  0  0  0  0  0  0  0
   57.0452   26.5787   43.5062 H   0  0  0  0  0  0  0  0  0  0  0  0
   57.5752   24.7729   43.7358 H   0  0  0  0  0  0  0  0  0  0  0  0
   58.0800   23.6784   45.0716 H   0  0  0  0  0  0  0  0  0  0  0  0
   57.2134   23.0223   42.3422 H   0  0  0  0  0  0  0  0  0  0  0  0
   57.9827   21.9738   43.6142 H   0  0  0  0  0  0  0  0  0  0  0  0
   54.8682   21.0474   45.0557 H   0  0  0  0  0  0  0  0  0  0  0  0
   56.6605   21.1151   45.2840 H   0  0  0  0  0  0  0  0  0  0  0  0
   54.5739   23.0528   46.0918 H   0  0  0  0  0  0  0  0  0  0  0  0
   56.2762   22.8611   46.6649 H   0  0  0  0  0  0  0  0  0  0  0  0
   58.2408   26.7085   47.6640 H   0  0  0  0  0  0  0  0  0  0  0  0
   58.4284   29.7968   45.8128 H   0  0  0  0  0  0  0  0  0  0  0  0
  1  2  1  0
  2  3  1  0
  3  4  2  0
  4  5  1  0
  5  6  2  0
  6  7  1  0
  7  8  1  0
  6  9  1  0
  9 10  1  0
 10 11  1  0
 11 12  1  0
 12 13  1  0
 12 14  2  0
 11 15  1  0
 15 16  2  0
 15 17  1  0
 17 18  1  0
 18 19  2  0
 19 20  1  0
 20 21  2  0
 21 22  1  0
 22 23  1  0
 23 24  2  0
 23 25  2  0
 23 26  1  0
 26 27  1  0
 27 28  1  0
 28 29  1  0
 29 30  1  0
 30 31  1  0
 22 32  2  0
  9 33  2  0
 33  3  1  0
 32 18  1  0
 31 26  1  0
  1 34  1  0
  1 35  1  0
  1 36  1  0
  4 37  1  0
  5 38  1  0
  8 39  1  0
  8 40  1  0
  8 41  1  0
 10 42  1  0
 10 43  1  0
 11 44  1  1
 13 45  1  0
 13 46  1  0
 13 47  1  0
 19 48  1  0
 20 49  1  0
 21 50  1  0
 27 51  1  0
 27 52  1  0
 28 53  1  0
 28 54  1  0
 30 55  1  0
 30 56  1  0
 31 57  1  0
 31 58  1  0
 32 59  1  0
 33 60  1  0
M  CHG  2  10   1  17  -1
M  END
>  <UniqueID>  (51) 
45

>  <SMILES>  (51) 
COc1ccc(OC)c([NH2+][C@H](C(C)=O)C(=O)[N-]c2cccc(S(=O)(=O)N3CCOCC3)c2)c1

>  <Energy>  (51) 
68.87818224111453

>  <Genealogy>  (51) 
COc1ccc(OC)c([NH2+]C(C(C)=O)C(=O)[N-]c2cccc(S(=O)(=O)N3CCOCC3)c2)c1 (protonated)
COc1ccc(OC)c([NH2+][C@H](C(C)=O)C(=O)[N-]c2cccc(S(=O)(=O)N3CCOCC3)c2)c1 (chirality)
COc1ccc(OC)c([NH2+][C@H](C(C)=O)C(=O)[N-]c2cccc(S(=O)(=O)N3CCOCC3)c2)c1 (3D coordinates assigned)
COc1ccc(OC)c([NH2+][C@H](C(C)=O)C(=O)[N-]c2cccc(S(=O)(=O)N3CCOCC3)c2)c1 (nonaromatic ring conformer: 68.87818224111453 kcal/mol)

>  <smiles>  (51) 
COc1ccc(OC)c(NC(C(C)=O)C(=O)Nc2cccc(S(=O)(=O)N3CCOCC3)c2)c1

>  <score_type>  (51) 
oracle

>  <origin>  (51) 
adg

>  <m_score__min__energy>  (51) 
-8.7300000000000004

>  <m_primary>  (51) 
energy

$$$$
51:0
     RDKit          3D

 48 50  0  0  0  0  0  0  0  0999 V2000
   51.9590   31.0830   53.2910 C   0  0  0  0  0  0  0  0  0  0  0  0
   52.0780   31.1700   51.7680 C   0  0  2  0  0  0  0  0  0  0  0  0
   53.4490   31.3020   51.3830 O   0  0  0  0  0  0  0  0  0  0  0  0
   54.5460   30.6950   52.0210 C   0  0  0  0  0  0  0  0  0  0  0  0
   54.5440   29.3460   52.4300 C   0  0  0  0  0  0  0  0  0  0  0  0
   55.6700   28.8000   53.0540 C   0  0  0  0  0  0  0  0  0  0  0  0
   56.8050   29.5850   53.2710 C   0  0  0  0  0  0  0  0  0  0  0  0
   56.8240   30.9270   52.8610 C   0  0  0  0  0  0  0  0  0  0  0  0
   58.0370   31.7820   53.1230 C   0  0  0  0  0  0  0  0  0  0  0  0
   58.5750   32.3540   51.8470 C   0  0  0  0  0  0  0  0  0  0  0  0
   58.8710   33.6940   51.6020 C   0  0  0  0  0  0  0  0  0  0  0  0
   59.2930   33.9530   50.3370 N   0  0  0  0  0  0  0  0  0  0  0  0
   59.3200   32.8470   49.5600 C   0  0  0  0  0  0  0  0  0  0  0  0
   59.6740   32.8880   48.3080 N   0  0  0  0  0  0  0  0  0  0  0  0
   59.1010   33.6890   47.2570 C   0  0  0  0  0  0  0  0  0  0  0  0
   59.0190   34.9430   47.3730 O   0  0  0  0  0  0  0  0  0  0  0  0
   58.6100   33.0360   46.0210 C   0  0  0  0  0  0  0  0  0  0  0  0
   58.5550   33.7480   44.8100 C   0  0  0  0  0  0  0  0  0  0  0  0
   58.0920   33.1270   43.6460 C   0  0  0  0  0  0  0  0  0  0  0  0
   57.6770   31.7940   43.6760 C   0  0  0  0  0  0  0  0  0  0  0  0
   57.7240   31.0720   44.8750 C   0  0  0  0  0  0  0  0  0  0  0  0
   57.2020   29.3890   44.9300 S   0  0  0  0  0  0  0  0  0  0  0  0
   55.4760   29.3140   44.8760 N   0  0  0  0  0  0  0  0  0  0  0  0
   57.6990   28.7520   46.1970 O   0  0  0  0  0  0  0  0  0  0  0  0
   57.7530   28.6340   43.7530 O   0  0  0  0  0  0  0  0  0  0  0  0
   58.1960   31.6910   46.0410 C   0  0  0  0  0  0  0  0  0  0  0  0
   58.8220   31.4830   50.4250 S   0  0  0  0  0  0  0  0  0  0  0  0
   55.6870   31.4750   52.2450 C   0  0  0  0  0  0  0  0  0  0  0  0
   51.3180   32.3600   51.2680 C   0  0  0  0  0  0  0  0  0  0  0  0
   51.4080   32.7110   50.0610 O   0  0  0  0  0  0  0  0  0  0  0  0
   50.5280   33.0990   52.1390 O   0  0  0  0  0  0  0  0  0  0  0  0
   52.7638   31.6714   53.7559 H   0  0  0  0  0  0  0  0  0  0  0  0
   50.9838   31.4826   53.6060 H   0  0  0  0  0  0  0  0  0  0  0  0
   52.0439   30.0325   53.6060 H   0  0  0  0  0  0  0  0  0  0  0  0
   51.6634   30.2489   51.3325 H   0  0  0  0  0  0  0  0  0  0  0  0
   53.6549   28.7216   52.2579 H   0  0  0  0  0  0  0  0  0  0  0  0
   55.6620   27.7480   53.3753 H   0  0  0  0  0  0  0  0  0  0  0  0
   57.6865   29.1499   53.7647 H   0  0  0  0  0  0  0  0  0  0  0  0
   57.7583   32.6053   53.7972 H   0  0  0  0  0  0  0  0  0  0  0  0
   58.8156   31.1553   53.5824 H   0  0  0  0  0  0  0  0  0  0  0  0
   58.7712   34.4763   52.3689 H   0  0  0  0  0  0  0  0  0  0  0  0
   59.5560   34.9080   50.0030 H   0  0  0  0  0  0  0  0  0  0  0  0
   58.8779   34.7991   44.7781 H   0  0  0  0  0  0  0  0  0  0  0  0
   58.0545   33.6910   42.7023 H   0  0  0  0  0  0  0  0  0  0  0  0
   57.3130   31.3108   42.7573 H   0  0  0  0  0  0  0  0  0  0  0  0
   55.1730   28.6580   45.6300 H   0  0  0  0  0  0  0  0  0  0  0  0
   58.2432   31.1202   46.9801 H   0  0  0  0  0  0  0  0  0  0  0  0
   55.6930   32.5303   51.9346 H   0  0  0  0  0  0  0  0  0  0  0  0
  1  2  1  0
  2  3  1  0
  3  4  1  0
  4  5  2  0
  5  6  1  0
  6  7  2  0
  7  8  1  0
  8  9  1  0
  9 10  1  0
 10 11  2  0
 11 12  1  0
 12 13  1  0
 13 14  2  3
 14 15  1  0
 15 16  2  0
 15 17  1  0
 17 18  2  0
 18 19  1  0
 19 20  2  0
 20 21  1  0
 21 22  1  0
 22 23  1  0
 22 24  2  0
 22 25  2  0
 21 26  2  0
 13 27  1  0
  8 28  2  0
  2 29  1  0
 29 30  2  0
 29 31  1  0
 28  4  1  0
 27 10  1  0
 26 17  1  0
  1 32  1  0
  1 33  1  0
  1 34  1  0
  2 35  1  6
  5 36  1  0
  6 37  1  0
  7 38  1  0
  9 39  1  0
  9 40  1  0
 11 41  1  0
 12 42  1  0
 18 43  1  0
 19 44  1  0
 20 45  1  0
 23 46  1  0
 26 47  1  0
 28 48  1  0
M  CHG  2  23  -1  31  -1
M  END
>  <UniqueID>  (52) 
46

>  <SMILES>  (52) 
C[C@H](Oc1cccc(Cc2c[nH]c(=NC(=O)c3cccc(S([NH-])(=O)=O)c3)s2)c1)C(=O)[O-]

>  <Energy>  (52) 
81.2954771433635

>  <Genealogy>  (52) 
CC(Oc1cccc(Cc2c[nH]c(=NC(=O)c3cccc(S([NH-])(=O)=O)c3)s2)c1)C(=O)[O-] (protonated)
C[C@H](Oc1cccc(Cc2c[nH]c(=NC(=O)c3cccc(S([NH-])(=O)=O)c3)s2)c1)C(=O)[O-] (chirality)
C[C@H](Oc1cccc(Cc2c[nH]c(=NC(=O)c3cccc(S([NH-])(=O)=O)c3)s2)c1)C(=O)[O-] (3D coordinates assigned)
C[C@H](Oc1cccc(Cc2c[nH]c(=NC(=O)c3cccc(S([NH-])(=O)=O)c3)s2)c1)C(=O)[O-] (optimized conformer: 81.2954771433635 kcal/mol)

>  <smiles>  (52) 
CC(Oc1cccc(Cc2c[nH]c(=NC(=O)c3cccc(S(N)(=O)=O)c3)s2)c1)C(=O)O

>  <score_type>  (52) 
oracle

>  <origin>  (52) 
adg

>  <m_score__min__energy>  (52) 
-16.140000000000001

>  <m_primary>  (52) 
energy

$$$$
52:0
     RDKit          3D

 74 77  0  0  0  0  0  0  0  0999 V2000
   57.4290   30.7950   44.1850 C   0  0  0  0  0  0  0  0  0  0  0  0
   58.4910   30.3750   45.2130 C   0  0  0  0  0  0  0  0  0  0  0  0
   59.5960   29.5760   44.5260 C   0  0  0  0  0  0  0  0  0  0  0  0
   57.9150   29.5630   46.2420 O   0  0  0  0  0  0  0  0  0  0  0  0
   57.8200   28.1590   46.2300 C   0  0  0  0  0  0  0  0  0  0  0  0
   56.6820   27.4930   45.7320 C   0  0  0  0  0  0  0  0  0  0  0  0
   56.6320   26.1000   45.6990 C   0  0  0  0  0  0  0  0  0  0  0  0
   57.6970   25.3440   46.1950 C   0  0  0  0  0  0  0  0  0  0  0  0
   57.6510   23.5810   46.1100 S   0  0  0  0  0  0  0  0  0  0  0  0
   58.9810   23.0700   45.6260 O   0  0  0  0  0  0  0  0  0  0  0  0
   57.4130   23.0260   47.4870 O   0  0  0  0  0  0  0  0  0  0  0  0
   56.3880   23.0270   45.0310 N   0  0  0  0  0  0  0  0  0  0  0  0
   56.2350   21.5560   45.0790 C   0  0  0  0  0  0  0  0  0  0  0  0
   56.8760   20.8690   43.8580 C   0  0  0  0  0  0  0  0  0  0  0  0
   56.3350   21.3080   42.6180 O   0  0  0  0  0  0  0  0  0  0  0  0
   55.9000   22.6640   42.6270 C   0  0  0  0  0  0  0  0  0  0  0  0
   56.6160   23.5390   43.6650 C   0  0  0  0  0  0  0  0  0  0  0  0
   58.8080   25.9950   46.7400 C   0  0  0  0  0  0  0  0  0  0  0  0
   58.8960   27.4010   46.7400 C   0  0  0  0  0  0  0  0  0  0  0  0
   60.0230   28.0690   47.3430 N   0  0  0  0  0  0  0  0  0  0  0  0
   60.4440   27.8760   48.7030 C   0  0  0  0  0  0  0  0  0  0  0  0
   60.3170   26.7490   49.2530 O   0  0  0  0  0  0  0  0  0  0  0  0
   60.9790   29.0410   49.4930 C   0  0  0  0  0  0  0  0  0  0  0  0
   60.6750   30.4020   48.8490 C   0  0  0  0  0  0  0  0  0  0  0  0
   59.2760   30.8490   49.1300 C   0  0  0  0  0  0  0  0  0  0  0  0
   58.3850   29.9910   49.3870 O   0  0  0  0  0  0  0  0  0  0  0  0
   58.9400   32.2390   49.0480 N   0  0  0  0  0  0  0  0  0  0  0  0
   58.8970   32.9440   47.8060 C   0  0  0  0  0  0  0  0  0  0  0  0
   57.6760   33.1260   47.1450 C   0  0  0  0  0  0  0  0  0  0  0  0
   57.6340   33.7940   45.9170 C   0  0  0  0  0  0  0  0  0  0  0  0
   58.8130   34.2700   45.3390 C   0  0  0  0  0  0  0  0  0  0  0  0
   60.0350   34.0840   45.9880 C   0  0  0  0  0  0  0  0  0  0  0  0
   60.0850   33.4280   47.2270 C   0  0  0  0  0  0  0  0  0  0  0  0
   61.3490   33.1950   47.8550 N   0  0  0  0  0  0  0  0  0  0  0  0
   61.5930   33.5770   49.2460 C   0  0  0  0  0  0  0  0  0  0  0  0
   62.9410   34.3040   49.3310 C   0  0  0  0  0  0  0  0  0  0  0  0
   63.9700   33.5400   48.7220 O   0  0  0  0  0  0  0  0  0  0  0  0
   63.7090   33.3880   47.3360 C   0  0  0  0  0  0  0  0  0  0  0  0
   62.4420   32.5650   47.1180 C   0  0  0  0  0  0  0  0  0  0  0  0
   56.5304   31.1504   44.7105 H   0  0  0  0  0  0  0  0  0  0  0  0
   57.8285   31.6028   43.5543 H   0  0  0  0  0  0  0  0  0  0  0  0
   57.1679   29.9324   43.5543 H   0  0  0  0  0  0  0  0  0  0  0  0
   58.9051   31.2902   45.6613 H   0  0  0  0  0  0  0  0  0  0  0  0
   60.2395   29.1107   45.2872 H   0  0  0  0  0  0  0  0  0  0  0  0
   59.1460   28.7930   43.8979 H   0  0  0  0  0  0  0  0  0  0  0  0
   60.1986   30.2486   43.8979 H   0  0  0  0  0  0  0  0  0  0  0  0
   55.8252   28.0777   45.3659 H   0  0  0  0  0  0  0  0  0  0  0  0
   55.7497   25.5938   45.2804 H   0  0  0  0  0  0  0  0  0  0  0  0
   56.7172   21.1784   45.9927 H   0  0  0  0  0  0  0  0  0  0  0  0
   55.1594   21.3259   45.0726 H   0  0  0  0  0  0  0  0  0  0  0  0
   57.9550   21.0827   43.8635 H   0  0  0  0  0  0  0  0  0  0  0  0
   56.6666   19.7924   43.9423 H   0  0  0  0  0  0  0  0  0  0  0  0
   56.0796   23.0922   41.6298 H   0  0  0  0  0  0  0  0  0  0  0  0
   54.8336   22.6559   42.8967 H   0  0  0  0  0  0  0  0  0  0  0  0
   57.6957   23.5369   43.4549 H   0  0  0  0  0  0  0  0  0  0  0  0
   56.2147   24.5612   43.6006 H   0  0  0  0  0  0  0  0  0  0  0  0
   59.6251   25.4007   47.1750 H   0  0  0  0  0  0  0  0  0  0  0  0
   60.5020   28.8260   46.7990 H   0  0  0  0  0  0  0  0  0  0  0  0
   60.5268   29.0202   50.4955 H   0  0  0  0  0  0  0  0  0  0  0  0
   62.0733   28.9349   49.5299 H   0  0  0  0  0  0  0  0  0  0  0  0
   61.3751   31.1499   49.2497 H   0  0  0  0  0  0  0  0  0  0  0  0
   60.7885   30.2980   47.7598 H   0  0  0  0  0  0  0  0  0  0  0  0
   56.7474   32.7425   47.5928 H   0  0  0  0  0  0  0  0  0  0  0  0
   56.6716   33.9446   45.4060 H   0  0  0  0  0  0  0  0  0  0  0  0
   58.7787   34.7920   44.3714 H   0  0  0  0  0  0  0  0  0  0  0  0
   60.9624   34.4533   45.5259 H   0  0  0  0  0  0  0  0  0  0  0  0
   60.7905   34.2450   49.5919 H   0  0  0  0  0  0  0  0  0  0  0  0
   61.6122   32.6795   49.8817 H   0  0  0  0  0  0  0  0  0  0  0  0
   62.8601   35.2731   48.8168 H   0  0  0  0  0  0  0  0  0  0  0  0
   63.1940   34.4504   50.3915 H   0  0  0  0  0  0  0  0  0  0  0  0
   63.5784   34.3810   46.8811 H   0  0  0  0  0  0  0  0  0  0  0  0
   64.5573   32.8658   46.8693 H   0  0  0  0  0  0  0  0  0  0  0  0
   62.1983   32.5355   46.0457 H   0  0  0  0  0  0  0  0  0  0  0  0
   62.5943   31.5358   47.4753 H   0  0  0  0  0  0  0  0  0  0  0  0
  1  2  1  0
  2  3  1  0
  2  4  1  0
  4  5  1  0
  5  6  2  0
  6  7  1  0
  7  8  2  0
  8  9  1  0
  9 10  2  0
  9 11  2  0
  9 12  1  0
 12 13  1  0
 13 14  1  0
 14 15  1  0
 15 16  1  0
 16 17  1  0
  8 18  1  0
 18 19  2  0
 19 20  1  0
 20 21  1  0
 21 22  2  0
 21 23  1  0
 23 24  1  0
 24 25  1  0
 25 26  2  0
 25 27  1  0
 27 28  1  0
 28 29  2  0
 29 30  1  0
 30 31  2  0
 31 32  1  0
 32 33  2  0
 33 34  1  0
 34 35  1  0
 35 36  1  0
 36 37  1  0
 37 38  1  0
 38 39  1  0
 19  5  1  0
 33 28  1  0
 39 34  1  0
 17 12  1  0
  1 40  1  0
  1 41  1  0
  1 42  1  0
  2 43  1  0
  3 44  1  0
  3 45  1  0
  3 46  1  0
  6 47  1  0
  7 48  1  0
 13 49  1  0
 13 50  1  0
 14 51  1  0
 14 52  1  0
 16 53  1  0
 16 54  1  0
 17 55  1  0
 17 56  1  0
 18 57  1  0
 20 58  1  0
 23 59  1  0
 23 60  1  0
 24 61  1  0
 24 62  1  0
 29 63  1  0
 30 64  1  0
 31 65  1  0
 32 66  1  0
 35 67  1  0
 35 68  1  0
 36 69  1  0
 36 70  1  0
 38 71  1  0
 38 72  1  0
 39 73  1  0
 39 74  1  0
M  CHG  1  27  -1
M  END
>  <UniqueID>  (53) 
47

>  <SMILES>  (53) 
CC(C)Oc1ccc(S(=O)(=O)N2CCOCC2)cc1NC(=O)CCC(=O)[N-]c1ccccc1N1CCOCC1

>  <Energy>  (53) 
93.82398521639503

>  <Genealogy>  (53) 
CC(C)Oc1ccc(S(=O)(=O)N2CCOCC2)cc1NC(=O)CCC(=O)[N-]c1ccccc1N1CCOCC1 (protonated)
CC(C)Oc1ccc(S(=O)(=O)N2CCOCC2)cc1NC(=O)CCC(=O)[N-]c1ccccc1N1CCOCC1 (3D coordinates assigned)
CC(C)Oc1ccc(S(=O)(=O)N2CCOCC2)cc1NC(=O)CCC(=O)[N-]c1ccccc1N1CCOCC1 (nonaromatic ring conformer: 93.82398521639503 kcal/mol)

>  <smiles>  (53) 
CC(C)Oc1ccc(S(=O)(=O)N2CCOCC2)cc1NC(=O)CCC(=O)Nc1ccccc1N1CCOCC1

>  <score_type>  (53) 
oracle

>  <origin>  (53) 
adg

>  <m_score__min__energy>  (53) 
-11.23

>  <m_primary>  (53) 
energy

$$$$
53:0
     RDKit          3D

 54 57  0  0  0  0  0  0  0  0999 V2000
   58.8900   34.9560   46.5420 O   0  0  0  0  0  0  0  0  0  0  0  0
   58.1430   33.9850   46.2470 C   0  0  0  0  0  0  0  0  0  0  0  0
   57.1990   34.1090   45.0840 C   0  0  0  0  0  0  0  0  0  0  0  0
   57.5290   33.0920   43.9820 C   0  0  0  0  0  0  0  0  0  0  0  0
   57.4890   31.6840   44.4980 C   0  0  0  0  0  0  0  0  0  0  0  0
   56.3140   30.9980   44.5020 N   0  0  0  0  0  0  0  0  0  0  0  0
   56.2570   29.6930   44.8750 C   0  0  0  0  0  0  0  0  0  0  0  0
   55.1470   29.0980   44.8680 O   0  0  0  0  0  0  0  0  0  0  0  0
   57.4340   29.0240   45.2480 C   0  0  0  0  0  0  0  0  0  0  0  0
   57.4490   27.6660   45.6120 C   0  0  0  0  0  0  0  0  0  0  0  0
   58.6530   27.0500   45.9710 C   0  0  0  0  0  0  0  0  0  0  0  0
   59.8450   27.7820   45.9730 C   0  0  0  0  0  0  0  0  0  0  0  0
   59.8400   29.1310   45.6070 C   0  0  0  0  0  0  0  0  0  0  0  0
   58.6420   29.7540   45.2410 C   0  0  0  0  0  0  0  0  0  0  0  0
   58.6400   31.0590   44.8630 N   0  0  0  0  0  0  0  0  0  0  0  0
   58.2550   32.7320   46.9410 N   0  0  0  0  0  0  0  0  0  0  0  0
   59.3260   32.4140   47.8420 C   0  0  0  0  0  0  0  0  0  0  0  0
   59.0860   31.7670   49.0660 C   0  0  0  0  0  0  0  0  0  0  0  0
   60.1530   31.4490   49.9120 C   0  0  0  0  0  0  0  0  0  0  0  0
   61.4630   31.7690   49.5420 C   0  0  0  0  0  0  0  0  0  0  0  0
   61.7150   32.3980   48.3160 C   0  0  0  0  0  0  0  0  0  0  0  0
   63.3680   32.8000   47.8390 S   0  0  0  0  0  0  0  0  0  0  0  0
   63.3350   33.8560   46.7710 O   0  0  0  0  0  0  0  0  0  0  0  0
   64.0260   31.5770   47.2610 O   0  0  0  0  0  0  0  0  0  0  0  0
   64.3070   33.3810   49.1940 N   0  0  0  0  0  0  0  0  0  0  0  0
   63.4340   34.0940   50.1520 C   0  0  0  0  0  0  0  0  0  0  0  0
   64.1150   34.2530   51.5150 C   0  0  0  0  0  0  0  0  0  0  0  0
   64.4030   32.8820   52.1520 C   0  0  0  0  0  0  0  0  0  0  0  0
   64.5640   31.7630   51.1090 C   0  0  0  0  0  0  0  0  0  0  0  0
   65.1390   32.3070   49.7910 C   0  0  0  0  0  0  0  0  0  0  0  0
   60.6440   32.7110   47.4680 C   0  0  0  0  0  0  0  0  0  0  0  0
   56.1720   33.9335   45.4367 H   0  0  0  0  0  0  0  0  0  0  0  0
   57.3004   35.1201   44.6628 H   0  0  0  0  0  0  0  0  0  0  0  0
   56.7944   33.1952   43.1698 H   0  0  0  0  0  0  0  0  0  0  0  0
   58.5474   33.2963   43.6200 H   0  0  0  0  0  0  0  0  0  0  0  0
   56.5135   27.0874   45.6146 H   0  0  0  0  0  0  0  0  0  0  0  0
   58.6622   25.9867   46.2526 H   0  0  0  0  0  0  0  0  0  0  0  0
   60.7878   27.2952   46.2631 H   0  0  0  0  0  0  0  0  0  0  0  0
   60.7793   29.7035   45.6067 H   0  0  0  0  0  0  0  0  0  0  0  0
   57.6450   31.9450   46.6230 H   0  0  0  0  0  0  0  0  0  0  0  0
   58.0573   31.5103   49.3591 H   0  0  0  0  0  0  0  0  0  0  0  0
   59.9613   30.9458   50.8712 H   0  0  0  0  0  0  0  0  0  0  0  0
   62.2980   31.5261   50.2156 H   0  0  0  0  0  0  0  0  0  0  0  0
   63.2001   35.0908   49.7500 H   0  0  0  0  0  0  0  0  0  0  0  0
   62.5158   33.5042   50.2898 H   0  0  0  0  0  0  0  0  0  0  0  0
   65.0635   34.7941   51.3821 H   0  0  0  0  0  0  0  0  0  0  0  0
   63.4410   34.8132   52.1798 H   0  0  0  0  0  0  0  0  0  0  0  0
   65.3320   32.9541   52.7366 H   0  0  0  0  0  0  0  0  0  0  0  0
   63.5418   32.6233   52.7855 H   0  0  0  0  0  0  0  0  0  0  0  0
   65.2449   30.9966   51.5078 H   0  0  0  0  0  0  0  0  0  0  0  0
   63.5722   31.3336   50.9043 H   0  0  0  0  0  0  0  0  0  0  0  0
   66.1436   32.7100   49.9869 H   0  0  0  0  0  0  0  0  0  0  0  0
   65.1632   31.4731   49.0740 H   0  0  0  0  0  0  0  0  0  0  0  0
   60.8395   33.1944   46.4995 H   0  0  0  0  0  0  0  0  0  0  0  0
  1  2  2  0
  2  3  1  0
  3  4  1  0
  4  5  1  0
  5  6  2  0
  6  7  1  0
  7  8  2  0
  7  9  1  0
  9 10  2  0
 10 11  1  0
 11 12  2  0
 12 13  1  0
 13 14  2  0
 14 15  1  0
  2 16  1  0
 16 17  1  0
 17 18  2  0
 18 19  1  0
 19 20  2  0
 20 21  1  0
 21 22  1  0
 22 23  2  0
 22 24  2  0
 22 25  1  0
 25 26  1  0
 26 27  1  0
 27 28  1  0
 28 29  1  0
 29 30  1  0
 21 31  2  0
 15  5  1  0
 31 17  1  0
 14  9  1  0
 30 25  1  0
  3 32  1  0
  3 33  1  0
  4 34  1  0
  4 35  1  0
 10 36  1  0
 11 37  1  0
 12 38  1  0
 13 39  1  0
 16 40  1  0
 18 41  1  0
 19 42  1  0
 20 43  1  0
 26 44  1  0
 26 45  1  0
 27 46  1  0
 27 47  1  0
 28 48  1  0
 28 49  1  0
 29 50  1  0
 29 51  1  0
 30 52  1  0
 30 53  1  0
 31 54  1  0
M  CHG  1  15  -1
M  END
>  <UniqueID>  (54) 
48

>  <SMILES>  (54) 
O=C(CCc1nc(=O)c2ccccc2[n-]1)Nc1cccc(S(=O)(=O)N2CCCCC2)c1

>  <Energy>  (54) 
62.20201517497122

>  <Genealogy>  (54) 
O=C(CCc1nc(=O)c2ccccc2[n-]1)Nc1cccc(S(=O)(=O)N2CCCCC2)c1 (protonated)
O=C(CCc1nc(=O)c2ccccc2[n-]1)Nc1cccc(S(=O)(=O)N2CCCCC2)c1 (3D coordinates assigned)
O=C(CCc1nc(=O)c2ccccc2[n-]1)Nc1cccc(S(=O)(=O)N2CCCCC2)c1 (nonaromatic ring conformer: 62.20201517497122 kcal/mol)

>  <smiles>  (54) 
O=C(CCc1nc(=O)c2ccccc2[nH]1)Nc1cccc(S(=O)(=O)N2CCCCC2)c1

>  <score_type>  (54) 
oracle

>  <origin>  (54) 
adg

>  <m_score__min__energy>  (54) 
-11.91

>  <m_primary>  (54) 
energy

$$$$
54:0
     RDKit          3D

 49 52  0  0  0  0  0  0  0  0999 V2000
   58.6810   29.9610   44.2740 C   0  0  0  0  0  0  0  0  0  0  0  0
   58.6920   29.5090   45.5390 C   0  0  0  0  0  0  0  0  0  0  0  0
   58.2000   28.2820   46.0100 C   0  0  0  0  0  0  0  0  0  0  0  0
   57.8110   27.1750   45.3480 C   0  0  0  0  0  0  0  0  0  0  0  0
   57.2090   25.9800   45.9660 C   0  0  0  0  0  0  0  0  0  0  0  0
   57.9020   24.9310   46.4470 N   0  0  0  0  0  0  0  0  0  0  0  0
   56.9500   24.1620   47.0190 C   0  0  0  0  0  0  0  0  0  0  0  0
   57.2080   23.0580   47.5680 O   0  0  0  0  0  0  0  0  0  0  0  0
   55.6980   24.6630   46.9490 N   0  0  0  0  0  0  0  0  0  0  0  0
   55.8850   25.8220   46.2940 C   0  0  0  0  0  0  0  0  0  0  0  0
   54.8630   26.7140   45.9900 O   0  0  0  0  0  0  0  0  0  0  0  0
   58.1910   28.3730   47.3970 C   0  0  0  0  0  0  0  0  0  0  0  0
   58.7410   29.5970   47.7190 C   0  0  0  0  0  0  0  0  0  0  0  0
   58.9190   30.1210   49.1120 C   0  0  0  0  0  0  0  0  0  0  0  0
   59.0470   30.2820   46.5960 N   0  0  0  0  0  0  0  0  0  0  0  0
   59.5640   31.6190   46.5500 C   0  0  0  0  0  0  0  0  0  0  0  0
   58.7210   32.6830   46.2000 C   0  0  0  0  0  0  0  0  0  0  0  0
   59.2310   33.9810   46.1180 C   0  0  0  0  0  0  0  0  0  0  0  0
   60.5840   34.2200   46.3840 C   0  0  0  0  0  0  0  0  0  0  0  0
   61.4380   33.1610   46.7320 C   0  0  0  0  0  0  0  0  0  0  0  0
   63.1490   33.4790   47.0440 S   0  0  0  0  0  0  0  0  0  0  0  0
   63.6070   34.6100   46.1670 O   0  0  0  0  0  0  0  0  0  0  0  0
   63.9480   32.2630   46.6650 O   0  0  0  0  0  0  0  0  0  0  0  0
   63.4750   33.8750   48.7200 N   0  0  0  0  0  0  0  0  0  0  0  0
   64.2780   32.8410   49.4000 C   0  0  0  0  0  0  0  0  0  0  0  0
   63.4290   31.6610   49.9300 C   0  0  0  0  0  0  0  0  0  0  0  0
   62.0370   31.8790   49.8200 O   0  0  0  0  0  0  0  0  0  0  0  0
   61.7110   33.1400   50.3580 C   0  0  0  0  0  0  0  0  0  0  0  0
   62.2650   34.2690   49.4740 C   0  0  0  0  0  0  0  0  0  0  0  0
   60.9190   31.8570   46.8220 C   0  0  0  0  0  0  0  0  0  0  0  0
   61.7200   30.8160   47.1690 F   0  0  0  0  0  0  0  0  0  0  0  0
   59.1029   30.9494   44.0394 H   0  0  0  0  0  0  0  0  0  0  0  0
   58.2501   29.3427   43.4727 H   0  0  0  0  0  0  0  0  0  0  0  0
   57.9543   27.1619   44.2575 H   0  0  0  0  0  0  0  0  0  0  0  0
   57.8176   27.6156   48.1019 H   0  0  0  0  0  0  0  0  0  0  0  0
   58.6525   29.3366   49.8357 H   0  0  0  0  0  0  0  0  0  0  0  0
   59.9680   30.4166   49.2613 H   0  0  0  0  0  0  0  0  0  0  0  0
   58.2671   30.9944   49.2613 H   0  0  0  0  0  0  0  0  0  0  0  0
   57.6576   32.4958   45.9899 H   0  0  0  0  0  0  0  0  0  0  0  0
   58.5688   34.8156   45.8442 H   0  0  0  0  0  0  0  0  0  0  0  0
   60.9810   35.2439   46.3201 H   0  0  0  0  0  0  0  0  0  0  0  0
   65.0173   32.4473   48.6869 H   0  0  0  0  0  0  0  0  0  0  0  0
   64.7553   33.3168   50.2693 H   0  0  0  0  0  0  0  0  0  0  0  0
   63.6875   30.7593   49.3554 H   0  0  0  0  0  0  0  0  0  0  0  0
   63.6575   31.5507   51.0003 H   0  0  0  0  0  0  0  0  0  0  0  0
   60.6168   33.2340   50.4198 H   0  0  0  0  0  0  0  0  0  0  0  0
   62.1590   33.2233   51.3592 H   0  0  0  0  0  0  0  0  0  0  0  0
   61.4862   34.5656   48.7560 H   0  0  0  0  0  0  0  0  0  0  0  0
   62.5487   35.0975   50.1396 H   0  0  0  0  0  0  0  0  0  0  0  0
  1  2  2  0
  2  3  1  0
  3  4  2  3
  4  5  1  0
  5  6  1  0
  6  7  1  0
  7  8  2  0
  7  9  1  0
  9 10  1  0
 10 11  1  0
  3 12  1  0
 12 13  2  0
 13 14  1  0
 13 15  1  0
 15 16  1  0
 16 17  2  0
 17 18  1  0
 18 19  2  0
 19 20  1  0
 20 21  1  0
 21 22  2  0
 21 23  2  0
 21 24  1  0
 24 25  1  0
 25 26  1  0
 26 27  1  0
 27 28  1  0
 28 29  1  0
 20 30  2  0
 30 31  1  0
 15  2  1  0
 30 16  1  0
 10  5  2  0
 29 24  1  0
  1 32  1  0
  1 33  1  0
  4 34  1  0
 12 35  1  0
 14 36  1  0
 14 37  1  0
 14 38  1  0
 17 39  1  0
 18 40  1  0
 19 41  1  0
 25 42  1  0
 25 43  1  0
 26 44  1  0
 26 45  1  0
 28 46  1  0
 28 47  1  0
 29 48  1  0
 29 49  1  0
M  CHG  3   6  -1   9  -1  11  -1
M  END
>  <UniqueID>  (55) 
49

>  <SMILES>  (55) 
C=c1c(=Cc2[n-]c(=O)[n-]c2[O-])cc(C)n1-c1cccc(S(=O)(=O)N2CCOCC2)c1F

>  <Energy>  (55) 
137.9832480617249

>  <Genealogy>  (55) 
C=c1c(=Cc2[n-]c(=O)[n-]c2[O-])cc(C)n1-c1cccc(S(=O)(=O)N2CCOCC2)c1F (protonated)
C=c1c(=Cc2[n-]c(=O)[n-]c2[O-])cc(C)n1-c1cccc(S(=O)(=O)N2CCOCC2)c1F (3D coordinates assigned)
C=c1c(=Cc2[n-]c(=O)[n-]c2[O-])cc(C)n1-c1cccc(S(=O)(=O)N2CCOCC2)c1F (nonaromatic ring conformer: 137.9832480617249 kcal/mol)

>  <smiles>  (55) 
C=c1c(=Cc2[nH]c(=O)[nH]c2O)cc(C)n1-c1cccc(S(=O)(=O)N2CCOCC2)c1F

>  <score_type>  (55) 
oracle

>  <origin>  (55) 
adg

>  <m_score__min__energy>  (55) 
-16.52

>  <m_primary>  (55) 
energy

$$$$
55:0
     RDKit          3D

 46 48  0  0  0  0  0  0  0  0999 V2000
   60.8430   26.5500   48.6880 O   0  0  0  0  0  0  0  0  0  0  0  0
   59.9920   27.1030   47.9420 C   0  0  0  0  0  0  0  0  0  0  0  0
   58.7590   26.3300   47.5480 C   0  0  0  0  0  0  0  0  0  0  0  0
   58.5240   26.3440   46.0320 C   0  0  0  0  0  0  0  0  0  0  0  0
   57.6760   27.5250   45.5920 C   0  0  0  0  0  0  0  0  0  0  0  0
   56.2580   27.5090   45.6230 C   0  0  0  0  0  0  0  0  0  0  0  0
   55.5210   26.4100   46.0690 O   0  0  0  0  0  0  0  0  0  0  0  0
   55.5680   28.6010   45.2030 N   0  0  0  0  0  0  0  0  0  0  0  0
   56.1990   29.7100   44.7450 C   0  0  0  0  0  0  0  0  0  0  0  0
   55.5270   30.7050   44.3690 O   0  0  0  0  0  0  0  0  0  0  0  0
   57.5520   29.7470   44.6930 N   0  0  0  0  0  0  0  0  0  0  0  0
   58.3010   28.6900   45.0990 C   0  0  0  0  0  0  0  0  0  0  0  0
   59.5570   28.7680   45.0270 O   0  0  0  0  0  0  0  0  0  0  0  0
   60.1820   28.4790   47.5870 N   0  0  0  0  0  0  0  0  0  0  0  0
   59.7410   29.6130   48.3420 C   0  0  0  0  0  0  0  0  0  0  0  0
   58.9570   29.4590   49.4960 C   0  0  0  0  0  0  0  0  0  0  0  0
   58.5220   30.5820   50.2030 C   0  0  0  0  0  0  0  0  0  0  0  0
   58.8520   31.8640   49.7570 C   0  0  0  0  0  0  0  0  0  0  0  0
   59.6150   32.0290   48.5920 C   0  0  0  0  0  0  0  0  0  0  0  0
   60.0110   33.6450   48.0080 S   0  0  0  0  0  0  0  0  0  0  0  0
   60.2710   34.5370   49.1900 O   0  0  0  0  0  0  0  0  0  0  0  0
   61.2820   33.5710   47.2070 O   0  0  0  0  0  0  0  0  0  0  0  0
   58.7520   34.3510   47.0170 N   0  0  0  0  0  0  0  0  0  0  0  0
   57.5930   33.4600   46.8120 C   0  0  0  0  0  0  0  0  0  0  0  0
   57.7280   32.5930   45.5540 C   0  0  0  0  0  0  0  0  0  0  0  0
   58.0090   33.3890   44.4250 O   0  0  0  0  0  0  0  0  0  0  0  0
   59.2720   33.9940   44.5910 C   0  0  0  0  0  0  0  0  0  0  0  0
   59.2580   34.9700   45.7760 C   0  0  0  0  0  0  0  0  0  0  0  0
   60.0310   30.8990   47.8720 C   0  0  0  0  0  0  0  0  0  0  0  0
   58.8743   25.2872   47.8787 H   0  0  0  0  0  0  0  0  0  0  0  0
   57.8930   26.8096   48.0277 H   0  0  0  0  0  0  0  0  0  0  0  0
   59.4978   26.3985   45.5234 H   0  0  0  0  0  0  0  0  0  0  0  0
   57.9835   25.4235   45.7663 H   0  0  0  0  0  0  0  0  0  0  0  0
   55.1400   26.3200   46.9980 H   0  0  0  0  0  0  0  0  0  0  0  0
   58.6847   28.4517   49.8442 H   0  0  0  0  0  0  0  0  0  0  0  0
   57.9178   30.4567   51.1136 H   0  0  0  0  0  0  0  0  0  0  0  0
   58.5128   32.7456   50.3206 H   0  0  0  0  0  0  0  0  0  0  0  0
   57.4982   32.7992   47.6863 H   0  0  0  0  0  0  0  0  0  0  0  0
   56.7042   34.0953   46.6838 H   0  0  0  0  0  0  0  0  0  0  0  0
   58.5457   31.8717   45.6992 H   0  0  0  0  0  0  0  0  0  0  0  0
   56.7775   32.0656   45.3857 H   0  0  0  0  0  0  0  0  0  0  0  0
   60.0243   33.2131   44.7759 H   0  0  0  0  0  0  0  0  0  0  0  0
   59.5176   34.5537   43.6764 H   0  0  0  0  0  0  0  0  0  0  0  0
   60.2843   35.3243   45.9524 H   0  0  0  0  0  0  0  0  0  0  0  0
   58.5812   35.7976   45.5172 H   0  0  0  0  0  0  0  0  0  0  0  0
   60.5886   31.0246   46.9322 H   0  0  0  0  0  0  0  0  0  0  0  0
  1  2  2  0
  2  3  1  0
  3  4  1  0
  4  5  1  0
  5  6  2  0
  6  7  1  0
  6  8  1  0
  8  9  1  0
  9 10  2  0
  9 11  1  0
 11 12  1  0
 12 13  2  0
  2 14  1  0
 14 15  1  0
 15 16  2  0
 16 17  1  0
 17 18  2  0
 18 19  1  0
 19 20  1  0
 20 21  2  0
 20 22  2  0
 20 23  1  0
 23 24  1  0
 24 25  1  0
 25 26  1  0
 26 27  1  0
 27 28  1  0
 19 29  2  0
 12  5  1  0
 29 15  1  0
 28 23  1  0
  3 30  1  0
  3 31  1  0
  4 32  1  0
  4 33  1  0
  7 34  1  0
 16 35  1  0
 17 36  1  0
 18 37  1  0
 24 38  1  0
 24 39  1  0
 25 40  1  0
 25 41  1  0
 27 42  1  0
 27 43  1  0
 28 44  1  0
 28 45  1  0
 29 46  1  0
M  CHG  3   8  -1  11  -1  14  -1
M  END
>  <UniqueID>  (56) 
50

>  <SMILES>  (56) 
O=C(CCc1c(O)[n-]c(=O)[n-]c1=O)[N-]c1cccc(S(=O)(=O)N2CCOCC2)c1

>  <Energy>  (56) 
58.50021940019133

>  <Genealogy>  (56) 
O=C(CCc1c(O)[n-]c(=O)[n-]c1=O)[N-]c1cccc(S(=O)(=O)N2CCOCC2)c1 (protonated)
O=C(CCc1c(O)[n-]c(=O)[n-]c1=O)[N-]c1cccc(S(=O)(=O)N2CCOCC2)c1 (3D coordinates assigned)
O=C(CCc1c(O)[n-]c(=O)[n-]c1=O)[N-]c1cccc(S(=O)(=O)N2CCOCC2)c1 (nonaromatic ring conformer: 58.50021940019133 kcal/mol)

>  <smiles>  (56) 
O=C(CCc1c(O)[nH]c(=O)[nH]c1=O)Nc1cccc(S(=O)(=O)N2CCOCC2)c1

>  <score_type>  (56) 
oracle

>  <origin>  (56) 
adg

>  <m_score__min__energy>  (56) 
-15.119999999999999

>  <m_primary>  (56) 
energy

$$$$
56:0
     RDKit          3D

 32 32  0  0  0  0  0  0  0  0999 V2000
   57.6360   31.9800   42.1730 C   0  0  0  0  0  0  0  0  0  0  0  0
   57.4470   31.5940   43.4380 C   0  0  0  0  0  0  0  0  0  0  0  0
   56.9660   30.2100   43.7740 C   0  0  0  0  0  0  0  0  0  0  0  0
   57.0380   29.9760   45.2260 N   0  0  0  0  0  0  0  0  0  0  0  0
   57.7850   31.0250   45.9340 C   0  0  0  0  0  0  0  0  0  0  0  0
   59.2330   30.6510   46.1090 C   0  0  0  0  0  0  0  0  0  0  0  0
   60.0420   31.5190   46.5280 O   0  0  0  0  0  0  0  0  0  0  0  0
   59.7160   29.3280   45.8430 N   0  0  0  0  0  0  0  0  0  0  0  0
   59.5100   28.1620   46.7000 C   0  0  0  0  0  0  0  0  0  0  0  0
   58.5570   27.1760   46.0740 C   0  0  0  0  0  0  0  0  0  0  0  0
   58.3980   27.1610   44.8250 O   0  0  0  0  0  0  0  0  0  0  0  0
   57.9110   26.1680   46.8610 N   0  0  0  0  0  0  0  0  0  0  0  0
   56.6440   25.5770   46.5490 C   0  0  0  0  0  0  0  0  0  0  0  0
   55.6290   26.3430   45.9520 C   0  0  0  0  0  0  0  0  0  0  0  0
   55.8310   27.6800   45.6140 O   0  0  0  0  0  0  0  0  0  0  0  0
   54.4260   25.7710   45.6850 N   0  0  0  0  0  0  0  0  0  0  0  0
   54.1780   24.4730   45.9990 C   0  0  0  0  0  0  0  0  0  0  0  0
   53.0560   23.9660   45.7350 O   0  0  0  0  0  0  0  0  0  0  0  0
   55.1350   23.7250   46.6030 N   0  0  0  0  0  0  0  0  0  0  0  0
   56.3540   24.2480   46.8930 C   0  0  0  0  0  0  0  0  0  0  0  0
   57.2070   23.5390   47.4890 O   0  0  0  0  0  0  0  0  0  0  0  0
   57.9887   32.9990   41.9558 H   0  0  0  0  0  0  0  0  0  0  0  0
   57.4389   31.2788   41.3487 H   0  0  0  0  0  0  0  0  0  0  0  0
   57.6480   32.3054   44.2525 H   0  0  0  0  0  0  0  0  0  0  0  0
   55.9236   30.0985   43.4408 H   0  0  0  0  0  0  0  0  0  0  0  0
   57.6083   29.4771   43.2638 H   0  0  0  0  0  0  0  0  0  0  0  0
   57.5590   29.0790   45.3730 H   0  0  0  0  0  0  0  0  0  0  0  0
   57.7247   31.9587   45.3556 H   0  0  0  0  0  0  0  0  0  0  0  0
   57.3390   31.1519   46.9315 H   0  0  0  0  0  0  0  0  0  0  0  0
   60.4776   27.6664   46.8675 H   0  0  0  0  0  0  0  0  0  0  0  0
   59.0754   28.5054   47.6504 H   0  0  0  0  0  0  0  0  0  0  0  0
   56.3930   27.9570   44.8180 H   0  0  0  0  0  0  0  0  0  0  0  0
  1  2  2  0
  2  3  1  0
  3  4  1  0
  4  5  1  0
  5  6  1  0
  6  7  2  0
  6  8  1  0
  8  9  1  0
  9 10  1  0
 10 11  2  0
 10 12  1  0
 12 13  1  0
 13 14  2  0
 14 15  1  0
 14 16  1  0
 16 17  1  0
 17 18  2  0
 17 19  1  0
 19 20  1  0
 20 21  2  0
 20 13  1  0
  1 22  1  0
  1 23  1  0
  2 24  1  0
  3 25  1  0
  3 26  1  0
  4 27  1  0
  5 28  1  0
  5 29  1  0
  9 30  1  0
  9 31  1  0
 15 32  1  0
M  CHG  4   8  -1  12  -1  16  -1  19  -1
M  END
>  <UniqueID>  (57) 
51

>  <SMILES>  (57) 
C=CCNCC(=O)[N-]CC(=O)[N-]c1c(O)[n-]c(=O)[n-]c1=O

>  <Energy>  (57) 
32.84813921508876

>  <Genealogy>  (57) 
C=CCNCC(=O)[N-]CC(=O)[N-]c1c(O)[n-]c(=O)[n-]c1=O (protonated)
C=CCNCC(=O)[N-]CC(=O)[N-]c1c(O)[n-]c(=O)[n-]c1=O (3D coordinates assigned)
C=CCNCC(=O)[N-]CC(=O)[N-]c1c(O)[n-]c(=O)[n-]c1=O (optimized conformer: 32.84813921508876 kcal/mol)

>  <smiles>  (57) 
C=CCNCC(=O)NCC(=O)Nc1c(O)[nH]c(=O)[nH]c1=O

>  <score_type>  (57) 
oracle

>  <origin>  (57) 
adg

>  <m_score__min__energy>  (57) 
-13.51

>  <m_primary>  (57) 
energy

$$$$
57:0
     RDKit          3D

 52 54  0  0  0  0  0  0  0  0999 V2000
   53.2550   23.7030   45.8430 C   0  0  0  0  0  0  0  0  0  0  0  0
   54.2180   24.2020   44.9150 O   0  0  0  0  0  0  0  0  0  0  0  0
   55.5480   24.5100   45.2410 C   0  0  0  0  0  0  0  0  0  0  0  0
   56.6050   23.6060   45.0160 C   0  0  0  0  0  0  0  0  0  0  0  0
   57.9130   23.9530   45.3510 C   0  0  0  0  0  0  0  0  0  0  0  0
   58.1840   25.1970   45.9190 C   0  0  0  0  0  0  0  0  0  0  0  0
   57.1440   26.1080   46.1650 C   0  0  0  0  0  0  0  0  0  0  0  0
   57.4730   27.4530   46.7590 C   0  0  0  0  0  0  0  0  0  0  0  0
   58.9000   27.5330   47.0380 N   0  0  0  0  0  0  0  0  0  0  0  0
   59.6520   28.7530   47.0300 C   0  0  0  0  0  0  0  0  0  0  0  0
   60.4730   28.9830   46.1000 O   0  0  0  0  0  0  0  0  0  0  0  0
   59.4520   29.7470   48.1040 C   0  0  0  0  0  0  0  0  0  0  0  0
   59.4520   29.3590   49.4550 C   0  0  0  0  0  0  0  0  0  0  0  0
   59.2920   30.3170   50.4630 C   0  0  0  0  0  0  0  0  0  0  0  0
   59.1220   31.6650   50.1350 C   0  0  0  0  0  0  0  0  0  0  0  0
   59.0820   32.0620   48.7950 C   0  0  0  0  0  0  0  0  0  0  0  0
   58.9340   33.4490   48.4740 N   0  0  0  0  0  0  0  0  0  0  0  0
   59.8830   34.1710   47.6870 C   0  0  0  0  0  0  0  0  0  0  0  0
   61.0910   34.2240   48.0460 O   0  0  0  0  0  0  0  0  0  0  0  0
   59.4180   34.9830   46.5230 C   0  0  0  0  0  0  0  0  0  0  0  0
   58.6710   34.1180   45.6160 N   0  0  0  0  0  0  0  0  0  0  0  0
   57.5800   33.3980   45.9430 C   0  0  0  0  0  0  0  0  0  0  0  0
   57.2850   32.5890   44.8740 C   0  0  0  0  0  0  0  0  0  0  0  0
   56.2440   31.6110   44.8290 N   0  0  0  0  0  0  0  0  0  0  0  0
   56.4530   30.0290   44.1580 S   0  0  0  0  0  0  0  0  0  0  0  0
   58.1520   29.5240   44.3100 C   0  0  0  0  0  0  0  0  0  0  0  0
   55.5580   29.0520   44.8700 O   0  0  0  0  0  0  0  0  0  0  0  0
   56.0780   30.0620   42.7040 O   0  0  0  0  0  0  0  0  0  0  0  0
   58.2460   32.8530   43.9160 C   0  0  0  0  0  0  0  0  0  0  0  0
   59.0900   33.7870   44.4020 N   0  0  0  0  0  0  0  0  0  0  0  0
   59.2610   31.1010   47.7830 C   0  0  0  0  0  0  0  0  0  0  0  0
   55.8240   25.7610   45.8110 C   0  0  0  0  0  0  0  0  0  0  0  0
   54.7770   26.6550   46.0240 O   0  0  0  0  0  0  0  0  0  0  0  0
   53.6063   23.8850   46.8694 H   0  0  0  0  0  0  0  0  0  0  0  0
   52.2951   24.2172   45.6874 H   0  0  0  0  0  0  0  0  0  0  0  0
   53.1215   22.6223   45.6874 H   0  0  0  0  0  0  0  0  0  0  0  0
   56.3970   22.6207   44.5734 H   0  0  0  0  0  0  0  0  0  0  0  0
   58.7332   23.2436   45.1667 H   0  0  0  0  0  0  0  0  0  0  0  0
   59.2190   25.4666   46.1761 H   0  0  0  0  0  0  0  0  0  0  0  0
   57.1951   28.2444   46.0474 H   0  0  0  0  0  0  0  0  0  0  0  0
   56.9117   27.5835   47.6960 H   0  0  0  0  0  0  0  0  0  0  0  0
   59.5781   28.2991   49.7210 H   0  0  0  0  0  0  0  0  0  0  0  0
   59.3001   30.0074   51.5185 H   0  0  0  0  0  0  0  0  0  0  0  0
   59.0195   32.4152   50.9329 H   0  0  0  0  0  0  0  0  0  0  0  0
   58.7685   35.7976   46.8761 H   0  0  0  0  0  0  0  0  0  0  0  0
   60.2831   35.4161   45.9994 H   0  0  0  0  0  0  0  0  0  0  0  0
   57.0271   33.4491   46.8926 H   0  0  0  0  0  0  0  0  0  0  0  0
   58.4172   29.4452   45.3746 H   0  0  0  0  0  0  0  0  0  0  0  0
   58.2888   28.5464   43.8247 H   0  0  0  0  0  0  0  0  0  0  0  0
   58.8005   30.2682   43.8247 H   0  0  0  0  0  0  0  0  0  0  0  0
   58.3116   32.3812   42.9245 H   0  0  0  0  0  0  0  0  0  0  0  0
   59.2513   31.4136   46.7284 H   0  0  0  0  0  0  0  0  0  0  0  0
  1  2  1  0
  2  3  1  0
  3  4  2  0
  4  5  1  0
  5  6  2  0
  6  7  1  0
  7  8  1  0
  8  9  1  0
  9 10  1  0
 10 11  2  0
 10 12  1  0
 12 13  2  0
 13 14  1  0
 14 15  2  0
 15 16  1  0
 16 17  1  0
 17 18  1  0
 18 19  2  0
 18 20  1  0
 20 21  1  0
 21 22  1  0
 22 23  2  0
 23 24  1  0
 24 25  1  0
 25 26  1  0
 25 27  2  0
 25 28  2  0
 23 29  1  0
 29 30  2  0
 16 31  2  0
  7 32  2  0
 32 33  1  0
 32  3  1  0
 31 12  1  0
 30 21  1  0
  1 34  1  0
  1 35  1  0
  1 36  1  0
  4 37  1  0
  5 38  1  0
  6 39  1  0
  8 40  1  0
  8 41  1  0
 13 42  1  0
 14 43  1  0
 15 44  1  0
 20 45  1  0
 20 46  1  0
 22 47  1  0
 26 48  1  0
 26 49  1  0
 26 50  1  0
 29 51  1  0
 31 52  1  0
M  CHG  4   9  -1  17  -1  24  -1  33  -1
M  END
>  <UniqueID>  (58) 
52

>  <SMILES>  (58) 
COc1cccc(C[N-]C(=O)c2cccc([N-]C(=O)Cn3cc([N-]S(C)(=O)=O)cn3)c2)c1[O-]

>  <Energy>  (58) 
83.42869486285335

>  <Genealogy>  (58) 
COc1cccc(C[N-]C(=O)c2cccc([N-]C(=O)Cn3cc([N-]S(C)(=O)=O)cn3)c2)c1[O-] (protonated)
COc1cccc(C[N-]C(=O)c2cccc([N-]C(=O)Cn3cc([N-]S(C)(=O)=O)cn3)c2)c1[O-] (3D coordinates assigned)
COc1cccc(C[N-]C(=O)c2cccc([N-]C(=O)Cn3cc([N-]S(C)(=O)=O)cn3)c2)c1[O-] (optimized conformer: 83.42869486285335 kcal/mol)

>  <smiles>  (58) 
COc1cccc(CNC(=O)c2cccc(NC(=O)Cn3cc(NS(C)(=O)=O)cn3)c2)c1O

>  <score_type>  (58) 
oracle

>  <origin>  (58) 
adg

>  <m_score__min__energy>  (58) 
-17.489999999999998

>  <m_primary>  (58) 
energy

$$$$
58:0
     RDKit          3D

 37 40  0  0  0  0  0  0  0  0999 V2000
   55.4500   29.3590   45.2000 O   0  0  0  0  0  0  0  0  0  0  0  0
   56.4490   28.7170   45.6260 C   0  0  0  0  0  0  0  0  0  0  0  0
   56.3380   27.3360   45.8190 C   0  0  0  0  0  0  0  0  0  0  0  0
   55.1230   26.7020   45.5790 O   0  0  0  0  0  0  0  0  0  0  0  0
   57.4540   26.6180   46.2870 C   0  0  0  0  0  0  0  0  0  0  0  0
   57.4170   25.1530   46.5000 C   0  0  0  0  0  0  0  0  0  0  0  0
   57.4540   24.2530   45.4190 C   0  0  0  0  0  0  0  0  0  0  0  0
   57.4400   22.8740   45.6470 C   0  0  0  0  0  0  0  0  0  0  0  0
   57.4040   22.3780   46.9530 C   0  0  0  0  0  0  0  0  0  0  0  0
   57.3900   21.0050   47.1730 O   0  0  0  0  0  0  0  0  0  0  0  0
   57.3860   23.2650   48.0360 C   0  0  0  0  0  0  0  0  0  0  0  0
   57.3560   22.7770   49.3380 O   0  0  0  0  0  0  0  0  0  0  0  0
   57.4000   24.6450   47.8110 C   0  0  0  0  0  0  0  0  0  0  0  0
   58.5830   27.2650   46.5660 O   0  0  0  0  0  0  0  0  0  0  0  0
   58.7310   28.5760   46.4050 C   0  0  0  0  0  0  0  0  0  0  0  0
   59.9560   29.1640   46.7200 C   0  0  0  0  0  0  0  0  0  0  0  0
   60.1450   30.5370   46.5620 C   0  0  0  0  0  0  0  0  0  0  0  0
   61.3720   31.0940   46.9090 O   0  0  0  0  0  0  0  0  0  0  0  0
   59.1020   31.3460   46.0750 C   0  0  0  0  0  0  0  0  0  0  0  0
   59.3070   32.8050   45.9060 C   0  0  0  0  0  0  0  0  0  0  0  0
   58.9170   33.4440   44.7160 C   0  0  0  0  0  0  0  0  0  0  0  0
   59.1130   34.8190   44.5590 C   0  0  0  0  0  0  0  0  0  0  0  0
   59.7000   35.5660   45.5840 C   0  0  0  0  0  0  0  0  0  0  0  0
   60.0910   34.9380   46.7690 C   0  0  0  0  0  0  0  0  0  0  0  0
   59.8970   33.5630   46.9320 C   0  0  0  0  0  0  0  0  0  0  0  0
   57.8600   30.7590   45.7490 C   0  0  0  0  0  0  0  0  0  0  0  0
   56.8380   31.5600   45.2450 O   0  0  0  0  0  0  0  0  0  0  0  0
   57.6650   29.3670   45.9180 C   0  0  0  0  0  0  0  0  0  0  0  0
   57.4942   24.6367   44.3889 H   0  0  0  0  0  0  0  0  0  0  0  0
   57.4574   22.1772   44.7960 H   0  0  0  0  0  0  0  0  0  0  0  0
   57.3977   25.3379   48.6654 H   0  0  0  0  0  0  0  0  0  0  0  0
   60.7799   28.5398   47.0962 H   0  0  0  0  0  0  0  0  0  0  0  0
   58.4561   32.8599   43.9058 H   0  0  0  0  0  0  0  0  0  0  0  0
   58.8045   35.3143   43.6265 H   0  0  0  0  0  0  0  0  0  0  0  0
   59.8540   36.6478   45.4577 H   0  0  0  0  0  0  0  0  0  0  0  0
   60.5525   35.5266   47.5756 H   0  0  0  0  0  0  0  0  0  0  0  0
   60.2072   33.0727   47.8666 H   0  0  0  0  0  0  0  0  0  0  0  0
  1  2  2  0
  2  3  1  0
  3  4  1  0
  3  5  2  0
  5  6  1  0
  6  7  2  0
  7  8  1  0
  8  9  2  0
  9 10  1  0
  9 11  1  0
 11 12  1  0
 11 13  2  0
  5 14  1  0
 14 15  1  0
 15 16  2  0
 16 17  1  0
 17 18  1  0
 17 19  2  0
 19 20  1  0
 20 21  2  0
 21 22  1  0
 22 23  2  0
 23 24  1  0
 24 25  2  0
 19 26  1  0
 26 27  1  0
 26 28  2  0
 28  2  1  0
 13  6  1  0
 28 15  1  0
 25 20  1  0
  7 29  1  0
  8 30  1  0
 13 31  1  0
 16 32  1  0
 21 33  1  0
 22 34  1  0
 23 35  1  0
 24 36  1  0
 25 37  1  0
M  CHG  5   4  -1  10  -1  12  -1  18  -1  27  -1
M  END
>  <UniqueID>  (59) 
53

>  <SMILES>  (59) 
O=c1c([O-])c(-c2ccc([O-])c([O-])c2)oc2cc([O-])c(-c3ccccc3)c([O-])c12

>  <Energy>  (59) 
63.57308667526699

>  <Genealogy>  (59) 
O=c1c([O-])c(-c2ccc([O-])c([O-])c2)oc2cc([O-])c(-c3ccccc3)c([O-])c12 (protonated)
O=c1c([O-])c(-c2ccc([O-])c([O-])c2)oc2cc([O-])c(-c3ccccc3)c([O-])c12 (3D coordinates assigned)
O=c1c([O-])c(-c2ccc([O-])c([O-])c2)oc2cc([O-])c(-c3ccccc3)c([O-])c12 (optimized conformer: 63.57308667526699 kcal/mol)

>  <smiles>  (59) 
O=c1c(O)c(-c2ccc(O)c(O)c2)oc2cc(O)c(-c3ccccc3)c(O)c12

>  <score_type>  (59) 
oracle

>  <origin>  (59) 
adg

>  <m_score__min__energy>  (59) 
-15.789999999999999

>  <m_primary>  (59) 
energy

$$$$
59:0
     RDKit          3D

 52 55  0  0  0  0  0  0  0  0999 V2000
   59.5320   29.5720   44.7700 O   0  0  0  0  0  0  0  0  0  0  0  0
   58.4320   29.4360   45.3730 C   0  0  0  0  0  0  0  0  0  0  0  0
   57.6110   30.5850   45.6260 N   0  0  0  0  0  0  0  0  0  0  0  0
   58.1430   31.9010   45.8380 C   0  0  0  0  0  0  0  0  0  0  0  0
   57.8180   32.9330   44.9440 C   0  0  0  0  0  0  0  0  0  0  0  0
   58.2930   34.2290   45.1610 C   0  0  0  0  0  0  0  0  0  0  0  0
   59.0720   34.5130   46.2840 C   0  0  0  0  0  0  0  0  0  0  0  0
   59.3780   33.4990   47.2010 C   0  0  0  0  0  0  0  0  0  0  0  0
   60.2860   33.8650   48.6630 S   0  0  0  0  0  0  0  0  0  0  0  0
   59.6570   35.0250   49.3850 O   0  0  0  0  0  0  0  0  0  0  0  0
   61.6970   34.2270   48.2990 O   0  0  0  0  0  0  0  0  0  0  0  0
   60.3050   32.4840   49.7120 N   0  0  0  0  0  0  0  0  0  0  0  0
   59.2180   32.1030   50.5640 C   0  0  0  0  0  0  0  0  0  0  0  0
   58.8270   32.9920   51.5740 C   0  0  0  0  0  0  0  0  0  0  0  0
   57.7740   32.6720   52.4340 C   0  0  0  0  0  0  0  0  0  0  0  0
   57.1120   31.4510   52.3030 C   0  0  0  0  0  0  0  0  0  0  0  0
   57.5130   30.5410   51.3220 C   0  0  0  0  0  0  0  0  0  0  0  0
   58.5690   30.8510   50.4550 C   0  0  0  0  0  0  0  0  0  0  0  0
   59.1080   29.6030   49.3420 Cl  0  0  0  0  0  0  0  0  0  0  0  0
   58.9240   32.1930   46.9700 C   0  0  0  0  0  0  0  0  0  0  0  0
   57.9840   28.0910   45.7920 C   0  0  0  0  0  0  0  0  0  0  0  0
   58.8820   27.1950   46.3940 C   0  0  0  0  0  0  0  0  0  0  0  0
   58.4510   25.9250   46.7910 C   0  0  0  0  0  0  0  0  0  0  0  0
   57.1160   25.5510   46.6180 C   0  0  0  0  0  0  0  0  0  0  0  0
   56.1990   26.4480   46.0620 C   0  0  0  0  0  0  0  0  0  0  0  0
   54.8250   26.0560   45.9350 N   0  0  0  0  0  0  0  0  0  0  0  0
   54.3640   24.7420   45.5890 C   0  0  0  0  0  0  0  0  0  0  0  0
   53.1580   24.4490   45.8010 O   0  0  0  0  0  0  0  0  0  0  0  0
   55.2470   23.7380   44.9560 C   0  0  0  0  0  0  0  0  0  0  0  0
   55.8480   22.7120   45.7050 C   0  0  0  0  0  0  0  0  0  0  0  0
   56.6860   21.7950   45.0680 C   0  0  0  0  0  0  0  0  0  0  0  0
   56.9310   21.9130   43.7010 C   0  0  0  0  0  0  0  0  0  0  0  0
   56.3300   22.9500   42.9860 C   0  0  0  0  0  0  0  0  0  0  0  0
   55.5150   23.8320   43.6230 N   0  0  0  0  0  0  0  0  0  0  0  0
   56.6430   27.7070   45.6220 C   0  0  0  0  0  0  0  0  0  0  0  0
   56.5730   30.4640   45.6130 H   0  0  0  0  0  0  0  0  0  0  0  0
   57.1866   32.7206   44.0687 H   0  0  0  0  0  0  0  0  0  0  0  0
   58.0523   35.0282   44.4445 H   0  0  0  0  0  0  0  0  0  0  0  0
   59.4460   35.5342   46.4491 H   0  0  0  0  0  0  0  0  0  0  0  0
   59.3540   33.9505   51.6906 H   0  0  0  0  0  0  0  0  0  0  0  0
   57.4665   33.3830   53.2149 H   0  0  0  0  0  0  0  0  0  0  0  0
   56.2743   31.2049   52.9721 H   0  0  0  0  0  0  0  0  0  0  0  0
   56.9961   29.5744   51.2296 H   0  0  0  0  0  0  0  0  0  0  0  0
   59.1804   31.3918   47.6787 H   0  0  0  0  0  0  0  0  0  0  0  0
   59.9287   27.4931   46.5540 H   0  0  0  0  0  0  0  0  0  0  0  0
   59.1648   25.2190   47.2405 H   0  0  0  0  0  0  0  0  0  0  0  0
   56.7850   24.5465   46.9205 H   0  0  0  0  0  0  0  0  0  0  0  0
   55.6594   22.6320   46.7858 H   0  0  0  0  0  0  0  0  0  0  0  0
   57.1517   20.9814   45.6435 H   0  0  0  0  0  0  0  0  0  0  0  0
   57.5913   21.1962   43.1909 H   0  0  0  0  0  0  0  0  0  0  0  0
   56.5158   23.0537   41.9068 H   0  0  0  0  0  0  0  0  0  0  0  0
   55.9348   28.3974   45.1406 H   0  0  0  0  0  0  0  0  0  0  0  0
  1  2  2  0
  2  3  1  0
  3  4  1  0
  4  5  2  0
  5  6  1  0
  6  7  2  0
  7  8  1  0
  8  9  1  0
  9 10  2  0
  9 11  2  0
  9 12  1  0
 12 13  1  0
 13 14  2  0
 14 15  1  0
 15 16  2  0
 16 17  1  0
 17 18  2  0
 18 19  1  0
  8 20  2  0
  2 21  1  0
 21 22  2  0
 22 23  1  0
 23 24  2  0
 24 25  1  0
 25 26  1  0
 26 27  1  0
 27 28  2  0
 27 29  1  0
 29 30  2  0
 30 31  1  0
 31 32  2  0
 32 33  1  0
 33 34  2  0
 25 35  2  0
 20  4  1  0
 35 21  1  0
 18 13  1  0
 34 29  1  0
  3 36  1  0
  5 37  1  0
  6 38  1  0
  7 39  1  0
 14 40  1  0
 15 41  1  0
 16 42  1  0
 17 43  1  0
 20 44  1  0
 22 45  1  0
 23 46  1  0
 24 47  1  0
 30 48  1  0
 31 49  1  0
 32 50  1  0
 33 51  1  0
 35 52  1  0
M  CHG  2  12  -1  26  -1
M  END
>  <UniqueID>  (60) 
54

>  <SMILES>  (60) 
O=C(Nc1cccc(S(=O)(=O)[N-]c2ccccc2Cl)c1)c1cccc([N-]C(=O)c2ccccn2)c1

>  <Energy>  (60) 
76.01792416136398

>  <Genealogy>  (60) 
O=C(Nc1cccc(S(=O)(=O)[N-]c2ccccc2Cl)c1)c1cccc([N-]C(=O)c2ccccn2)c1 (protonated)
O=C(Nc1cccc(S(=O)(=O)[N-]c2ccccc2Cl)c1)c1cccc([N-]C(=O)c2ccccn2)c1 (3D coordinates assigned)
O=C(Nc1cccc(S(=O)(=O)[N-]c2ccccc2Cl)c1)c1cccc([N-]C(=O)c2ccccn2)c1 (optimized conformer: 76.01792416136398 kcal/mol)

>  <smiles>  (60) 
O=C(Nc1cccc(S(=O)(=O)Nc2ccccc2Cl)c1)c1cccc(NC(=O)c2ccccn2)c1

>  <score_type>  (60) 
oracle

>  <origin>  (60) 
adg

>  <m_score__min__energy>  (60) 
-12.92

>  <m_primary>  (60) 
energy

$$$$
60:0
     RDKit          3D

 55 57  0  0  0  0  0  0  0  0999 V2000
   55.2120   24.3890   45.5880 C   0  0  0  0  0  0  0  0  0  0  0  0
   55.8560   25.2670   46.5810 N   0  0  0  0  0  0  0  0  0  0  0  0
   57.0600   24.6050   47.1080 C   0  0  0  0  0  0  0  0  0  0  0  0
   56.2150   26.5710   45.9830 C   0  0  0  0  0  0  0  0  0  0  0  0
   57.6530   26.9820   46.3380 C   0  0  0  0  0  0  0  0  0  0  0  0
   58.0420   28.2360   45.6730 N   0  0  0  0  0  0  0  0  0  0  0  0
   57.4240   28.6150   44.4170 C   0  0  0  0  0  0  0  0  0  0  0  0
   57.7830   28.0470   43.3500 O   0  0  0  0  0  0  0  0  0  0  0  0
   56.3700   29.6890   44.3190 C   0  0  0  0  0  0  0  0  0  0  0  0
   56.7990   30.9170   44.9770 N   0  0  0  0  0  0  0  0  0  0  0  0
   57.5070   31.9740   44.3210 C   0  0  0  0  0  0  0  0  0  0  0  0
   57.5140   32.0270   43.0620 O   0  0  0  0  0  0  0  0  0  0  0  0
   58.2050   33.0070   45.1320 C   0  0  0  0  0  0  0  0  0  0  0  0
   58.7790   34.1220   44.4880 C   0  0  0  0  0  0  0  0  0  0  0  0
   59.4790   35.0860   45.2160 C   0  0  0  0  0  0  0  0  0  0  0  0
   59.6110   34.9590   46.5980 C   0  0  0  0  0  0  0  0  0  0  0  0
   59.0390   33.8700   47.2570 C   0  0  0  0  0  0  0  0  0  0  0  0
   58.3350   32.8920   46.5370 C   0  0  0  0  0  0  0  0  0  0  0  0
   57.7710   31.8150   47.2210 O   0  0  0  0  0  0  0  0  0  0  0  0
   59.0170   29.0740   46.3200 C   0  0  0  0  0  0  0  0  0  0  0  0
   58.9390   29.4140   47.6300 N   0  0  0  0  0  0  0  0  0  0  0  0
   59.9690   30.2230   47.9830 C   0  0  0  0  0  0  0  0  0  0  0  0
   60.1360   30.7740   49.2530 C   0  0  0  0  0  0  0  0  0  0  0  0
   61.2280   31.6280   49.4800 C   0  0  0  0  0  0  0  0  0  0  0  0
   62.1420   31.9170   48.4420 C   0  0  0  0  0  0  0  0  0  0  0  0
   63.4850   33.0160   48.7350 S   0  0  0  0  0  0  0  0  0  0  0  0
   64.6820   32.2150   49.7780 C   0  0  0  0  0  0  0  0  0  0  0  0
   62.9870   34.2630   49.4090 O   0  0  0  0  0  0  0  0  0  0  0  0
   64.1260   33.3950   47.4300 O   0  0  0  0  0  0  0  0  0  0  0  0
   61.9570   31.3560   47.1650 C   0  0  0  0  0  0  0  0  0  0  0  0
   60.8650   30.5160   46.9690 C   0  0  0  0  0  0  0  0  0  0  0  0
   60.3800   29.7420   45.5600 S   0  0  0  0  0  0  0  0  0  0  0  0
   54.6385   23.6070   46.1072 H   0  0  0  0  0  0  0  0  0  0  0  0
   54.5342   24.9835   44.9578 H   0  0  0  0  0  0  0  0  0  0  0  0
   55.9826   23.9211   44.9578 H   0  0  0  0  0  0  0  0  0  0  0  0
   57.0345   24.6190   48.2076 H   0  0  0  0  0  0  0  0  0  0  0  0
   57.0900   23.5636   46.7552 H   0  0  0  0  0  0  0  0  0  0  0  0
   57.9555   25.1376   46.7552 H   0  0  0  0  0  0  0  0  0  0  0  0
   56.1246   26.4986   44.8891 H   0  0  0  0  0  0  0  0  0  0  0  0
   55.5311   27.3329   46.3853 H   0  0  0  0  0  0  0  0  0  0  0  0
   57.7258   27.1188   47.4270 H   0  0  0  0  0  0  0  0  0  0  0  0
   58.3311   26.1873   45.9936 H   0  0  0  0  0  0  0  0  0  0  0  0
   56.1732   29.9015   43.2578 H   0  0  0  0  0  0  0  0  0  0  0  0
   55.4599   29.3276   44.8201 H   0  0  0  0  0  0  0  0  0  0  0  0
   58.6741   34.2339   43.3987 H   0  0  0  0  0  0  0  0  0  0  0  0
   59.9270   35.9470   44.6983 H   0  0  0  0  0  0  0  0  0  0  0  0
   60.1663   35.7175   47.1692 H   0  0  0  0  0  0  0  0  0  0  0  0
   59.1405   33.7773   48.3484 H   0  0  0  0  0  0  0  0  0  0  0  0
   57.6160   30.9190   46.7710 H   0  0  0  0  0  0  0  0  0  0  0  0
   59.4263   30.5444   50.0615 H   0  0  0  0  0  0  0  0  0  0  0  0
   61.3728   32.0756   50.4744 H   0  0  0  0  0  0  0  0  0  0  0  0
   64.4233   32.3881   50.8330 H   0  0  0  0  0  0  0  0  0  0  0  0
   64.6821   31.1343   49.5731 H   0  0  0  0  0  0  0  0  0  0  0  0
   65.6811   32.6271   49.5731 H   0  0  0  0  0  0  0  0  0  0  0  0
   62.6560   31.5753   46.3445 H   0  0  0  0  0  0  0  0  0  0  0  0
  1  2  1  0
  2  3  1  0
  2  4  1  0
  4  5  1  0
  5  6  1  0
  6  7  1  0
  7  8  2  0
  7  9  1  0
  9 10  1  0
 10 11  1  0
 11 12  2  0
 11 13  1  0
 13 14  2  0
 14 15  1  0
 15 16  2  0
 16 17  1  0
 17 18  2  0
 18 19  1  0
  6 20  1  0
 20 21  2  0
 21 22  1  0
 22 23  2  0
 23 24  1  0
 24 25  2  0
 25 26  1  0
 26 27  1  0
 26 28  2  0
 26 29  2  0
 25 30  1  0
 30 31  2  0
 31 32  1  0
 18 13  1  0
 32 20  1  0
 31 22  1  0
  1 33  1  0
  1 34  1  0
  1 35  1  0
  3 36  1  0
  3 37  1  0
  3 38  1  0
  4 39  1  0
  4 40  1  0
  5 41  1  0
  5 42  1  0
  9 43  1  0
  9 44  1  0
 14 45  1  0
 15 46  1  0
 16 47  1  0
 17 48  1  0
 19 49  1  0
 23 50  1  0
 24 51  1  0
 27 52  1  0
 27 53  1  0
 27 54  1  0
 30 55  1  0
M  CHG  1  10  -1
M  END
>  <UniqueID>  (61) 
55

>  <SMILES>  (61) 
CN(C)CCN(C(=O)C[N-]C(=O)c1ccccc1O)c1nc2ccc(S(C)(=O)=O)cc2s1

>  <Energy>  (61) 
86.85243067629175

>  <Genealogy>  (61) 
CN(C)CCN(C(=O)C[N-]C(=O)c1ccccc1O)c1nc2ccc(S(C)(=O)=O)cc2s1 (protonated)
CN(C)CCN(C(=O)C[N-]C(=O)c1ccccc1O)c1nc2ccc(S(C)(=O)=O)cc2s1 (3D coordinates assigned)
CN(C)CCN(C(=O)C[N-]C(=O)c1ccccc1O)c1nc2ccc(S(C)(=O)=O)cc2s1 (optimized conformer: 86.85243067629175 kcal/mol)

>  <smiles>  (61) 
CN(C)CCN(C(=O)CNC(=O)c1ccccc1O)c1nc2ccc(S(C)(=O)=O)cc2s1

>  <score_type>  (61) 
oracle

>  <origin>  (61) 
adg

>  <m_score__min__energy>  (61) 
-10.26

>  <m_primary>  (61) 
energy

$$$$
61:0
     RDKit          3D

 56 58  0  0  0  0  0  0  0  0999 V2000
   62.5740   33.5940   47.4230 C   0  0  0  0  0  0  0  0  0  0  0  0
   61.3320   34.2800   47.5430 O   0  0  0  0  0  0  0  0  0  0  0  0
   60.1350   33.8600   46.9450 C   0  0  0  0  0  0  0  0  0  0  0  0
   58.9820   34.6670   46.9190 C   0  0  0  0  0  0  0  0  0  0  0  0
   57.8120   34.2000   46.3140 C   0  0  0  0  0  0  0  0  0  0  0  0
   57.7800   32.9340   45.7280 C   0  0  0  0  0  0  0  0  0  0  0  0
   58.9260   32.1230   45.7350 C   0  0  0  0  0  0  0  0  0  0  0  0
   58.8880   30.7570   45.1000 C   0  0  0  0  0  0  0  0  0  0  0  0
   57.9260   30.7240   43.9850 N   0  0  0  0  0  0  0  0  0  0  0  0
   57.9760   31.7690   42.9540 C   0  0  0  0  0  0  0  0  0  0  0  0
   56.9380   29.6750   43.8520 C   0  0  0  0  0  0  0  0  0  0  0  0
   56.6690   29.2220   42.7040 O   0  0  0  0  0  0  0  0  0  0  0  0
   56.2630   29.0530   45.0530 C   0  0  0  0  0  0  0  0  0  0  0  0
   56.9890   27.8120   45.5130 C   0  0  0  0  0  0  0  0  0  0  0  0
   58.3920   27.7660   45.4760 C   0  0  0  0  0  0  0  0  0  0  0  0
   59.0690   26.6110   45.8730 C   0  0  0  0  0  0  0  0  0  0  0  0
   58.3540   25.4840   46.2800 C   0  0  0  0  0  0  0  0  0  0  0  0
   56.9550   25.4950   46.2730 C   0  0  0  0  0  0  0  0  0  0  0  0
   56.0450   24.0270   46.7930 S   0  0  0  0  0  0  0  0  0  0  0  0
   56.3200   22.9660   45.3100 C   0  0  0  0  0  0  0  0  0  0  0  0
   57.6600   22.1970   45.3760 C   0  0  0  0  0  0  0  0  0  0  0  0
   58.1730   21.7480   43.9920 C   0  0  0  0  0  0  0  0  0  0  0  0
   57.0230   21.4910   43.0120 C   0  0  0  0  0  0  0  0  0  0  0  0
   56.1740   22.7580   42.7770 C   0  0  0  0  0  0  0  0  0  0  0  0
   56.1640   23.7240   43.9790 C   0  0  0  0  0  0  0  0  0  0  0  0
   56.2710   26.6740   45.9290 C   0  0  0  0  0  0  0  0  0  0  0  0
   54.8800   26.7140   45.9940 O   0  0  0  0  0  0  0  0  0  0  0  0
   60.0960   32.5910   46.3560 C   0  0  0  0  0  0  0  0  0  0  0  0
   62.9703   33.3751   48.4255 H   0  0  0  0  0  0  0  0  0  0  0  0
   62.4213   32.6523   46.8754 H   0  0  0  0  0  0  0  0  0  0  0  0
   63.2898   34.2247   46.8754 H   0  0  0  0  0  0  0  0  0  0  0  0
   59.0019   35.6674   47.3759 H   0  0  0  0  0  0  0  0  0  0  0  0
   56.9125   34.8331   46.2997 H   0  0  0  0  0  0  0  0  0  0  0  0
   56.8538   32.5702   45.2590 H   0  0  0  0  0  0  0  0  0  0  0  0
   59.8897   30.5085   44.7193 H   0  0  0  0  0  0  0  0  0  0  0  0
   58.5735   30.0248   45.8583 H   0  0  0  0  0  0  0  0  0  0  0  0
   58.0233   32.7570   43.4353 H   0  0  0  0  0  0  0  0  0  0  0  0
   58.8682   31.6234   42.3273 H   0  0  0  0  0  0  0  0  0  0  0  0
   57.0740   31.7092   42.3273 H   0  0  0  0  0  0  0  0  0  0  0  0
   56.2494   29.7845   45.8744 H   0  0  0  0  0  0  0  0  0  0  0  0
   55.2400   28.7685   44.7658 H   0  0  0  0  0  0  0  0  0  0  0  0
   58.9600   28.6433   45.1329 H   0  0  0  0  0  0  0  0  0  0  0  0
   60.1688   26.5896   45.8649 H   0  0  0  0  0  0  0  0  0  0  0  0
   58.8928   24.5828   46.6079 H   0  0  0  0  0  0  0  0  0  0  0  0
   55.5130   22.2189   45.3331 H   0  0  0  0  0  0  0  0  0  0  0  0
   58.4164   22.8516   45.8335 H   0  0  0  0  0  0  0  0  0  0  0  0
   57.4857   21.2879   45.9703 H   0  0  0  0  0  0  0  0  0  0  0  0
   58.8216   22.5354   43.5805 H   0  0  0  0  0  0  0  0  0  0  0  0
   58.7264   20.8064   44.1226 H   0  0  0  0  0  0  0  0  0  0  0  0
   57.4423   21.1604   42.0503 H   0  0  0  0  0  0  0  0  0  0  0  0
   56.3708   20.7190   43.4463 H   0  0  0  0  0  0  0  0  0  0  0  0
   56.5794   23.2918   41.9048 H   0  0  0  0  0  0  0  0  0  0  0  0
   55.1368   22.4275   42.6191 H   0  0  0  0  0  0  0  0  0  0  0  0
   56.9958   24.4359   43.8729 H   0  0  0  0  0  0  0  0  0  0  0  0
   55.1985   24.2509   43.9917 H   0  0  0  0  0  0  0  0  0  0  0  0
   60.9916   31.9528   46.3796 H   0  0  0  0  0  0  0  0  0  0  0  0
  1  2  1  0
  2  3  1  0
  3  4  2  0
  4  5  1  0
  5  6  2  0
  6  7  1  0
  7  8  1  0
  8  9  1  0
  9 10  1  0
  9 11  1  0
 11 12  2  0
 11 13  1  0
 13 14  1  0
 14 15  2  0
 15 16  1  0
 16 17  2  0
 17 18  1  0
 18 19  1  0
 19 20  1  0
 20 21  1  0
 21 22  1  0
 22 23  1  0
 23 24  1  0
 24 25  1  0
 18 26  2  0
 26 27  1  0
  7 28  2  0
 28  3  1  0
 26 14  1  0
 25 20  1  0
  1 29  1  0
  1 30  1  0
  1 31  1  0
  4 32  1  0
  5 33  1  0
  6 34  1  0
  8 35  1  0
  8 36  1  0
 10 37  1  0
 10 38  1  0
 10 39  1  0
 13 40  1  0
 13 41  1  0
 15 42  1  0
 16 43  1  0
 17 44  1  0
 20 45  1  0
 21 46  1  0
 21 47  1  0
 22 48  1  0
 22 49  1  0
 23 50  1  0
 23 51  1  0
 24 52  1  0
 24 53  1  0
 25 54  1  0
 25 55  1  0
 28 56  1  0
M  CHG  1  27  -1
M  END
>  <UniqueID>  (62) 
56

>  <SMILES>  (62) 
COc1cccc(CN(C)C(=O)Cc2cccc(SC3CCCCC3)c2[O-])c1

>  <Energy>  (62) 
54.966413090455696

>  <Genealogy>  (62) 
COc1cccc(CN(C)C(=O)Cc2cccc(SC3CCCCC3)c2[O-])c1 (protonated)
COc1cccc(CN(C)C(=O)Cc2cccc(SC3CCCCC3)c2[O-])c1 (3D coordinates assigned)
COc1cccc(CN(C)C(=O)Cc2cccc(SC3CCCCC3)c2[O-])c1 (nonaromatic ring conformer: 54.966413090455696 kcal/mol)

>  <smiles>  (62) 
COc1cccc(CN(C)C(=O)Cc2cccc(SC3CCCCC3)c2O)c1

>  <score_type>  (62) 
oracle

>  <origin>  (62) 
adg

>  <m_score__min__energy>  (62) 
-12.56

>  <m_primary>  (62) 
energy

$$$$
62:0
     RDKit          3D

 44 47  0  0  0  0  0  0  0  0999 V2000
   55.7058   30.8499   50.9295 H   0  0  0  0  0  0  0  0  0  0  0  0
   54.6580   30.8030   51.2610 C   0  0  0  0  0  0  0  0  0  0  0  0
   53.8579   31.1875   50.6114 H   0  0  0  0  0  0  0  0  0  0  0  0
   54.3560   30.2770   52.4570 C   0  0  0  0  0  0  0  0  0  0  0  0
   53.0800   30.1410   53.0300 C   0  0  0  0  0  0  0  0  0  0  0  0
   51.8510   30.3100   52.5060 C   0  0  0  0  0  0  0  0  0  0  0  0
   50.9926   30.0719   53.1513 H   0  0  0  0  0  0  0  0  0  0  0  0
   51.5570   30.7860   51.1440 C   0  0  0  0  0  0  0  0  0  0  0  0
   51.4850   29.9970   50.0560 N   0  0  0  0  0  0  0  0  0  0  0  0
   51.0560   30.8370   49.0900 C   0  0  0  0  0  0  0  0  0  0  0  0
   50.8760   30.4670   47.9000 O   0  0  0  0  0  0  0  0  0  0  0  0
   50.8210   32.1010   49.5020 N   0  0  0  0  0  0  0  0  0  0  0  0
   51.1300   32.0460   50.8070 C   0  0  0  0  0  0  0  0  0  0  0  0
   51.0170   33.1250   51.6740 O   0  0  0  0  0  0  0  0  0  0  0  0
   53.2850   29.7450   54.3430 C   0  0  0  0  0  0  0  0  0  0  0  0
   52.5104   29.5811   55.1066 H   0  0  0  0  0  0  0  0  0  0  0  0
   54.6460   29.5960   54.5080 C   0  0  0  0  0  0  0  0  0  0  0  0
   55.3120   29.1470   55.7740 C   0  0  0  0  0  0  0  0  0  0  0  0
   54.7488   29.5267   56.6392 H   0  0  0  0  0  0  0  0  0  0  0  0
   55.3359   28.0477   55.8058 H   0  0  0  0  0  0  0  0  0  0  0  0
   56.3400   29.5371   55.8058 H   0  0  0  0  0  0  0  0  0  0  0  0
   55.2940   29.9020   53.3640 N   0  0  0  0  0  0  0  0  0  0  0  0
   56.7220   29.9150   53.1950 C   0  0  0  0  0  0  0  0  0  0  0  0
   57.4540   28.7270   53.3130 C   0  0  0  0  0  0  0  0  0  0  0  0
   56.9360   27.7854   53.5475 H   0  0  0  0  0  0  0  0  0  0  0  0
   58.8400   28.7330   53.1340 C   0  0  0  0  0  0  0  0  0  0  0  0
   59.4060   27.7939   53.2223 H   0  0  0  0  0  0  0  0  0  0  0  0
   59.5160   29.9300   52.8420 C   0  0  0  0  0  0  0  0  0  0  0  0
   60.9450   29.9290   52.6460 N   0  0  0  0  0  0  0  0  0  0  0  0
   61.6250   29.7370   51.4170 C   0  0  0  0  0  0  0  0  0  0  0  0
   61.0400   29.6580   50.3040 O   0  0  0  0  0  0  0  0  0  0  0  0
   63.0930   29.7250   51.5630 C   0  0  0  0  0  0  0  0  0  0  0  0
   63.5476   30.5827   51.0457 H   0  0  0  0  0  0  0  0  0  0  0  0
   63.5622   28.8320   51.1244 H   0  0  0  0  0  0  0  0  0  0  0  0
   63.2970   29.8270   53.0810 C   0  0  0  0  0  0  0  0  0  0  0  0
   64.0132   30.6291   53.3126 H   0  0  0  0  0  0  0  0  0  0  0  0
   63.6993   28.8869   53.4864 H   0  0  0  0  0  0  0  0  0  0  0  0
   61.9240   30.1490   53.7010 C   0  0  0  0  0  0  0  0  0  0  0  0
   61.8932   31.1954   54.0387 H   0  0  0  0  0  0  0  0  0  0  0  0
   61.7199   29.5169   54.5778 H   0  0  0  0  0  0  0  0  0  0  0  0
   58.7730   31.1170   52.7080 C   0  0  0  0  0  0  0  0  0  0  0  0
   59.2866   32.0580   52.4615 H   0  0  0  0  0  0  0  0  0  0  0  0
   57.3860   31.1090   52.8860 C   0  0  0  0  0  0  0  0  0  0  0  0
   56.6880   32.2660   52.7610 F   0  0  0  0  0  0  0  0  0  0  0  0
  1  2  1  0
  2  3  1  0
  2  4  2  0
  4  5  1  0
  5  6  2  0
  6  7  1  0
  6  8  1  0
  8  9  1  0
  9 10  1  0
 10 11  2  0
 10 12  1  0
 12 13  1  0
 13 14  1  0
  5 15  1  0
 15 16  1  0
 15 17  2  0
 17 18  1  0
 18 19  1  0
 18 20  1  0
 18 21  1  0
 17 22  1  0
 22 23  1  0
 23 24  2  0
 24 25  1  0
 24 26  1  0
 26 27  1  0
 26 28  2  0
 28 29  1  0
 29 30  1  0
 30 31  2  0
 30 32  1  0
 32 33  1  0
 32 34  1  0
 32 35  1  0
 35 36  1  0
 35 37  1  0
 35 38  1  0
 38 39  1  0
 38 40  1  0
 28 41  1  0
 41 42  1  0
 41 43  2  0
 43 44  1  0
 22  4  1  0
 43 23  1  0
 13  8  2  0
 38 29  1  0
M  CHG  3   9  -1  12  -1  14  -1
M  END
>  <UniqueID>  (63) 
57

>  <SMILES>  (63) 
C=c1/c(=C\c2[n-]c(=O)[n-]c2[O-])cc(C)n1-c1ccc(N2CCCC2=O)cc1F

>  <Energy>  (63) 
133.11212583202067

>  <Genealogy>  (63) 
C=c1c(=Cc2[n-]c(=O)[n-]c2[O-])cc(C)n1-c1ccc(N2CCCC2=O)cc1F (protonated)
C=c1/c(=C\c2[n-]c(=O)[n-]c2[O-])cc(C)n1-c1ccc(N2CCCC2=O)cc1F (cis-trans isomerization)
C=c1/c(=C\c2[n-]c(=O)[n-]c2[O-])cc(C)n1-c1ccc(N2CCCC2=O)cc1F (3D coordinates assigned)
C=c1/c(=C\c2[n-]c(=O)[n-]c2[O-])cc(C)n1-c1ccc(N2CCCC2=O)cc1F (nonaromatic ring conformer: 133.11212583202067 kcal/mol)

>  <smiles>  (63) 
C=c1c(=Cc2[nH]c(=O)[nH]c2O)cc(C)n1-c1ccc(N2CCCC2=O)cc1F

>  <score_type>  (63) 
oracle

>  <origin>  (63) 
adg

>  <m_score__min__energy>  (63) 
-15.470000000000001

>  <m_primary>  (63) 
energy

$$$$
63:0
     RDKit          3D

 44 47  0  0  0  0  0  0  0  0999 V2000
   60.2177   26.8678   45.6225 H   0  0  0  0  0  0  0  0  0  0  0  0
   59.5490   27.3110   46.3750 C   0  0  0  0  0  0  0  0  0  0  0  0
   60.1060   28.1090   47.3150 C   0  0  0  0  0  0  0  0  0  0  0  0
   60.2420   27.7170   48.7430 C   0  0  0  0  0  0  0  0  0  0  0  0
   59.6730   26.6910   49.2020 O   0  0  0  0  0  0  0  0  0  0  0  0
   60.9910   28.5370   49.6360 N   0  0  0  0  0  0  0  0  0  0  0  0
   61.5430   29.7850   49.2240 C   0  0  0  0  0  0  0  0  0  0  0  0
   62.1870   30.4750   50.0590 O   0  0  0  0  0  0  0  0  0  0  0  0
   61.3350   30.2640   47.8830 N   0  0  0  0  0  0  0  0  0  0  0  0
   61.8540   31.5480   47.4880 C   0  0  0  0  0  0  0  0  0  0  0  0
   60.9810   32.5750   47.0920 C   0  0  0  0  0  0  0  0  0  0  0  0
   59.8952   32.3990   47.0850 H   0  0  0  0  0  0  0  0  0  0  0  0
   61.4870   33.8190   46.7070 C   0  0  0  0  0  0  0  0  0  0  0  0
   60.7991   34.6197   46.3978 H   0  0  0  0  0  0  0  0  0  0  0  0
   62.8660   34.0480   46.7140 C   0  0  0  0  0  0  0  0  0  0  0  0
   63.2621   35.0285   46.4111 H   0  0  0  0  0  0  0  0  0  0  0  0
   63.7420   33.0310   47.1060 C   0  0  0  0  0  0  0  0  0  0  0  0
   64.8271   33.2114   47.1101 H   0  0  0  0  0  0  0  0  0  0  0  0
   63.2390   31.7840   47.4930 C   0  0  0  0  0  0  0  0  0  0  0  0
   63.9301   30.9860   47.8021 H   0  0  0  0  0  0  0  0  0  0  0  0
   60.6170   29.4510   46.9310 C   0  0  0  0  0  0  0  0  0  0  0  0
   60.4540   29.8710   45.7510 O   0  0  0  0  0  0  0  0  0  0  0  0
   58.1120   26.9910   46.2840 C   0  0  0  0  0  0  0  0  0  0  0  0
   57.1740   27.8750   45.7080 C   0  0  0  0  0  0  0  0  0  0  0  0
   57.5500   29.1750   45.2200 N   0  0  0  0  0  0  0  0  0  0  0  0
   57.7790   30.2800   46.1590 C   0  0  0  0  0  0  0  0  0  0  0  0
   57.0531   30.2128   46.9827 H   0  0  0  0  0  0  0  0  0  0  0  0
   58.8034   30.2086   46.5533 H   0  0  0  0  0  0  0  0  0  0  0  0
   57.6120   31.6220   45.4480 C   0  0  0  0  0  0  0  0  0  0  0  0
   57.4246   32.4112   46.1910 H   0  0  0  0  0  0  0  0  0  0  0  0
   58.5285   31.8601   44.8882 H   0  0  0  0  0  0  0  0  0  0  0  0
   56.5200   31.5430   44.5580 O   0  0  0  0  0  0  0  0  0  0  0  0
   56.8640   30.7620   43.4260 C   0  0  0  0  0  0  0  0  0  0  0  0
   55.9420   30.5271   42.8739 H   0  0  0  0  0  0  0  0  0  0  0  0
   57.5724   31.3567   42.8306 H   0  0  0  0  0  0  0  0  0  0  0  0
   57.5750   29.4330   43.7750 C   0  0  0  0  0  0  0  0  0  0  0  0
   57.0661   28.6078   43.2553 H   0  0  0  0  0  0  0  0  0  0  0  0
   58.6248   29.5078   43.4550 H   0  0  0  0  0  0  0  0  0  0  0  0
   55.8710   27.4890   45.6220 N   0  0  0  0  0  0  0  0  0  0  0  0
   55.4530   26.3130   46.0930 N   0  0  0  0  0  0  0  0  0  0  0  0
   56.3080   25.4440   46.6870 C   0  0  0  0  0  0  0  0  0  0  0  0
   55.8820   24.3460   47.1310 O   0  0  0  0  0  0  0  0  0  0  0  0
   57.6570   25.7740   46.8000 C   0  0  0  0  0  0  0  0  0  0  0  0
   58.3579   25.0829   47.2910 H   0  0  0  0  0  0  0  0  0  0  0  0
  1  2  1  0
  2  3  2  0
  3  4  1  0
  4  5  2  0
  4  6  1  0
  6  7  1  0
  7  8  2  0
  7  9  1  0
  9 10  1  0
 10 11  2  0
 11 12  1  0
 11 13  1  0
 13 14  1  0
 13 15  2  0
 15 16  1  0
 15 17  1  0
 17 18  1  0
 17 19  2  0
 19 20  1  0
  9 21  1  0
 21 22  2  0
  2 23  1  0
 23 24  1  0
 24 25  1  0
 25 26  1  0
 26 27  1  0
 26 28  1  0
 26 29  1  0
 29 30  1  0
 29 31  1  0
 29 32  1  0
 32 33  1  0
 33 34  1  0
 33 35  1  0
 33 36  1  0
 36 37  1  0
 36 38  1  0
 24 39  2  0
 39 40  1  0
 40 41  1  0
 41 42  2  0
 41 43  1  0
 43 44  1  0
 21  3  1  0
 43 23  2  0
 19 10  1  0
 36 25  1  0
M  CHG  2   6  -1  40  -1
M  END
>  <UniqueID>  (64) 
58

>  <SMILES>  (64) 
O=C1[N-]C(=O)N(c2ccccc2)C(=O)/C1=C/c1cc(=O)[n-]nc1N1CCOCC1

>  <Energy>  (64) 
76.57969926165795

>  <Genealogy>  (64) 
O=C1[N-]C(=O)N(c2ccccc2)C(=O)C1=Cc1cc(=O)[n-]nc1N1CCOCC1 (protonated)
O=C1[N-]C(=O)N(c2ccccc2)C(=O)/C1=C/c1cc(=O)[n-]nc1N1CCOCC1 (cis-trans isomerization)
O=C1[N-]C(=O)N(c2ccccc2)C(=O)/C1=C/c1cc(=O)[n-]nc1N1CCOCC1 (3D coordinates assigned)
O=C1[N-]C(=O)N(c2ccccc2)C(=O)/C1=C/c1cc(=O)[n-]nc1N1CCOCC1 (nonaromatic ring conformer: 76.57969926165795 kcal/mol)

>  <smiles>  (64) 
O=C1NC(=O)N(c2ccccc2)C(=O)C1=Cc1cc(=O)[nH]nc1N1CCOCC1

>  <score_type>  (64) 
oracle

>  <origin>  (64) 
adg

>  <m_score__min__energy>  (64) 
-11.6

>  <m_primary>  (64) 
energy

$$$$
64:0
     RDKit          3D

 48 50  0  0  0  0  0  0  0  0999 V2000
   61.2210   29.3630   45.3810 C   0  0  0  0  0  0  0  0  0  0  0  0
   60.1280   29.8180   46.0100 C   0  0  0  0  0  0  0  0  0  0  0  0
   58.8270   29.3270   45.8790 C   0  0  0  0  0  0  0  0  0  0  0  0
   58.4130   28.2990   45.1110 C   0  0  0  0  0  0  0  0  0  0  0  0
   57.5290   27.2190   45.6030 C   0  0  0  0  0  0  0  0  0  0  0  0
   56.1310   27.3680   45.6360 C   0  0  0  0  0  0  0  0  0  0  0  0
   55.5300   28.5460   45.2060 O   0  0  0  0  0  0  0  0  0  0  0  0
   55.3510   26.3450   46.0720 N   0  0  0  0  0  0  0  0  0  0  0  0
   55.8950   25.1650   46.4630 C   0  0  0  0  0  0  0  0  0  0  0  0
   55.1520   24.2340   46.8670 O   0  0  0  0  0  0  0  0  0  0  0  0
   57.2400   24.9870   46.4120 N   0  0  0  0  0  0  0  0  0  0  0  0
   58.0640   25.9790   45.9870 C   0  0  0  0  0  0  0  0  0  0  0  0
   59.3080   25.7760   45.9500 O   0  0  0  0  0  0  0  0  0  0  0  0
   58.0330   30.0800   46.7360 C   0  0  0  0  0  0  0  0  0  0  0  0
   58.8680   31.0040   47.3340 C   0  0  0  0  0  0  0  0  0  0  0  0
   58.4350   32.0150   48.3510 C   0  0  0  0  0  0  0  0  0  0  0  0
   60.1360   30.8460   46.8970 N   0  0  0  0  0  0  0  0  0  0  0  0
   61.2680   31.6360   47.3050 C   0  0  0  0  0  0  0  0  0  0  0  0
   62.3180   31.0200   48.0010 C   0  0  0  0  0  0  0  0  0  0  0  0
   63.4500   31.7510   48.3660 C   0  0  0  0  0  0  0  0  0  0  0  0
   63.5420   33.1040   48.0390 C   0  0  0  0  0  0  0  0  0  0  0  0
   62.5020   33.7320   47.3520 C   0  0  0  0  0  0  0  0  0  0  0  0
   61.3530   33.0110   46.9840 C   0  0  0  0  0  0  0  0  0  0  0  0
   60.2480   33.7030   46.2860 C   0  0  0  0  0  0  0  0  0  0  0  0
   59.9690   34.8950   46.5920 O   0  0  0  0  0  0  0  0  0  0  0  0
   59.4820   33.0230   45.2790 N   0  0  0  0  0  0  0  0  0  0  0  0
   58.2930   33.6260   44.6670 C   0  0  0  0  0  0  0  0  0  0  0  0
   57.7550   32.7240   43.5530 C   0  0  0  0  0  0  0  0  0  0  0  0
   57.2180   33.8600   45.7340 C   0  0  0  0  0  0  0  0  0  0  0  0
   62.1979   29.8335   45.5661 H   0  0  0  0  0  0  0  0  0  0  0  0
   61.1409   28.5192   44.6799 H   0  0  0  0  0  0  0  0  0  0  0  0
   58.7498   28.2612   44.0645 H   0  0  0  0  0  0  0  0  0  0  0  0
   56.9523   29.9632   46.9049 H   0  0  0  0  0  0  0  0  0  0  0  0
   58.6062   31.6152   49.3614 H   0  0  0  0  0  0  0  0  0  0  0  0
   59.0160   32.9397   48.2192 H   0  0  0  0  0  0  0  0  0  0  0  0
   57.3648   32.2325   48.2192 H   0  0  0  0  0  0  0  0  0  0  0  0
   62.2493   29.9534   48.2612 H   0  0  0  0  0  0  0  0  0  0  0  0
   64.2694   31.2601   48.9115 H   0  0  0  0  0  0  0  0  0  0  0  0
   64.4366   33.6775   48.3234 H   0  0  0  0  0  0  0  0  0  0  0  0
   62.5822   34.7990   47.0967 H   0  0  0  0  0  0  0  0  0  0  0  0
   59.7300   32.0360   45.0390 H   0  0  0  0  0  0  0  0  0  0  0  0
   58.5700   34.5949   44.2260 H   0  0  0  0  0  0  0  0  0  0  0  0
   57.2396   31.8599   43.9976 H   0  0  0  0  0  0  0  0  0  0  0  0
   57.0481   33.2921   42.9305 H   0  0  0  0  0  0  0  0  0  0  0  0
   58.5908   32.3719   42.9305 H   0  0  0  0  0  0  0  0  0  0  0  0
   57.6663   33.7624   46.7337 H   0  0  0  0  0  0  0  0  0  0  0  0
   56.7991   34.8704   45.6170 H   0  0  0  0  0  0  0  0  0  0  0  0
   56.4170   33.1152   45.6170 H   0  0  0  0  0  0  0  0  0  0  0  0
  1  2  2  0
  2  3  1  0
  3  4  2  3
  4  5  1  0
  5  6  2  0
  6  7  1  0
  6  8  1  0
  8  9  1  0
  9 10  2  0
  9 11  1  0
 11 12  1  0
 12 13  2  0
  3 14  1  0
 14 15  2  0
 15 16  1  0
 15 17  1  0
 17 18  1  0
 18 19  2  0
 19 20  1  0
 20 21  2  0
 21 22  1  0
 22 23  2  0
 23 24  1  0
 24 25  2  0
 24 26  1  0
 26 27  1  0
 27 28  1  0
 27 29  1  0
 17  2  1  0
 23 18  1  0
 12  5  1  0
  1 30  1  0
  1 31  1  0
  4 32  1  0
 14 33  1  0
 16 34  1  0
 16 35  1  0
 16 36  1  0
 19 37  1  0
 20 38  1  0
 21 39  1  0
 22 40  1  0
 26 41  1  0
 27 42  1  0
 28 43  1  0
 28 44  1  0
 28 45  1  0
 29 46  1  0
 29 47  1  0
 29 48  1  0
M  CHG  3   7  -1   8  -1  11  -1
M  END
>  <UniqueID>  (65) 
59

>  <SMILES>  (65) 
C=c1c(=Cc2c([O-])[n-]c(=O)[n-]c2=O)cc(C)n1-c1ccccc1C(=O)NC(C)C

>  <Energy>  (65) 
92.00906564931968

>  <Genealogy>  (65) 
C=c1c(=Cc2c([O-])[n-]c(=O)[n-]c2=O)cc(C)n1-c1ccccc1C(=O)NC(C)C (protonated)
C=c1c(=Cc2c([O-])[n-]c(=O)[n-]c2=O)cc(C)n1-c1ccccc1C(=O)NC(C)C (3D coordinates assigned)
C=c1c(=Cc2c([O-])[n-]c(=O)[n-]c2=O)cc(C)n1-c1ccccc1C(=O)NC(C)C (optimized conformer: 92.00906564931968 kcal/mol)

>  <smiles>  (65) 
C=c1c(=Cc2c(O)[nH]c(=O)[nH]c2=O)cc(C)n1-c1ccccc1C(=O)NC(C)C

>  <score_type>  (65) 
oracle

>  <origin>  (65) 
adg

>  <m_score__min__energy>  (65) 
-15.869999999999999

>  <m_primary>  (65) 
energy

$$$$
65:0
     RDKit          3D

 57 60  0  0  0  0  0  0  0  0999 V2000
   54.7820   29.3240   44.1820 O   0  0  0  0  0  0  0  0  0  0  0  0
   56.0090   29.4480   44.4470 C   0  0  0  0  0  0  0  0  0  0  0  0
   56.6740   28.4340   45.2100 N   0  0  0  0  0  0  0  0  0  0  0  0
   57.6270   28.6990   46.2890 C   0  0  0  0  0  0  0  0  0  0  0  0
   58.2980   27.4290   46.8310 C   0  0  0  0  0  0  0  0  0  0  0  0
   57.6170   25.9270   46.1360 S   0  0  0  0  0  0  0  0  0  0  0  0
   58.4060   24.7410   46.6200 O   0  0  0  0  0  0  0  0  0  0  0  0
   57.6680   25.9870   44.6340 O   0  0  0  0  0  0  0  0  0  0  0  0
   55.9630   25.8090   46.6700 N   0  0  0  0  0  0  0  0  0  0  0  0
   55.1070   25.2210   45.6350 C   0  0  0  0  0  0  0  0  0  0  0  0
   55.7070   23.9440   45.1010 C   0  0  0  0  0  0  0  0  0  0  0  0
   56.0780   22.9050   45.9730 C   0  0  0  0  0  0  0  0  0  0  0  0
   56.6490   21.7320   45.4700 C   0  0  0  0  0  0  0  0  0  0  0  0
   56.8410   21.5830   44.0920 C   0  0  0  0  0  0  0  0  0  0  0  0
   56.4660   22.6050   43.2180 C   0  0  0  0  0  0  0  0  0  0  0  0
   55.8960   23.7800   43.7170 C   0  0  0  0  0  0  0  0  0  0  0  0
   56.7510   30.6450   43.9890 C   0  0  0  0  0  0  0  0  0  0  0  0
   56.9910   30.8560   42.6180 C   0  0  0  0  0  0  0  0  0  0  0  0
   57.7380   31.9570   42.1900 C   0  0  0  0  0  0  0  0  0  0  0  0
   58.2610   32.8560   43.1250 C   0  0  0  0  0  0  0  0  0  0  0  0
   58.0370   32.6580   44.4950 C   0  0  0  0  0  0  0  0  0  0  0  0
   58.7450   33.7790   45.6550 S   0  0  0  0  0  0  0  0  0  0  0  0
   57.6440   34.5350   46.3420 O   0  0  0  0  0  0  0  0  0  0  0  0
   59.6390   34.7740   44.9660 O   0  0  0  0  0  0  0  0  0  0  0  0
   59.6600   32.8910   46.8290 N   0  0  0  0  0  0  0  0  0  0  0  0
   59.1430   31.7330   47.5530 C   0  0  0  0  0  0  0  0  0  0  0  0
   60.3630   31.1050   48.2710 C   0  0  0  0  0  0  0  0  0  0  0  0
   61.5060   31.9500   47.8190 C   0  0  0  0  0  0  0  0  0  0  0  0
   62.8640   31.7750   48.0820 C   0  0  0  0  0  0  0  0  0  0  0  0
   63.7790   32.6870   47.5250 C   0  0  0  0  0  0  0  0  0  0  0  0
   63.3240   33.7350   46.7040 C   0  0  0  0  0  0  0  0  0  0  0  0
   61.9510   33.8740   46.4310 C   0  0  0  0  0  0  0  0  0  0  0  0
   61.0640   32.9650   47.0170 C   0  0  0  0  0  0  0  0  0  0  0  0
   57.2680   31.5640   44.9250 C   0  0  0  0  0  0  0  0  0  0  0  0
   58.4092   29.3714   45.9069 H   0  0  0  0  0  0  0  0  0  0  0  0
   57.0629   29.1495   47.1190 H   0  0  0  0  0  0  0  0  0  0  0  0
   59.3710   27.4705   46.5925 H   0  0  0  0  0  0  0  0  0  0  0  0
   58.1192   27.4000   47.9160 H   0  0  0  0  0  0  0  0  0  0  0  0
   54.1192   25.0018   46.0664 H   0  0  0  0  0  0  0  0  0  0  0  0
   55.0140   25.9387   44.8066 H   0  0  0  0  0  0  0  0  0  0  0  0
   55.9183   23.0156   47.0557 H   0  0  0  0  0  0  0  0  0  0  0  0
   56.9472   20.9266   46.1573 H   0  0  0  0  0  0  0  0  0  0  0  0
   57.2882   20.6590   43.6967 H   0  0  0  0  0  0  0  0  0  0  0  0
   56.6192   22.4856   42.1353 H   0  0  0  0  0  0  0  0  0  0  0  0
   55.5941   24.5795   43.0244 H   0  0  0  0  0  0  0  0  0  0  0  0
   56.5876   30.1491   41.8781 H   0  0  0  0  0  0  0  0  0  0  0  0
   57.9148   32.1167   41.1161 H   0  0  0  0  0  0  0  0  0  0  0  0
   58.8497   33.7207   42.7848 H   0  0  0  0  0  0  0  0  0  0  0  0
   58.3863   32.0468   48.2871 H   0  0  0  0  0  0  0  0  0  0  0  0
   58.6585   31.0149   46.8750 H   0  0  0  0  0  0  0  0  0  0  0  0
   60.2449   31.1551   49.3635 H   0  0  0  0  0  0  0  0  0  0  0  0
   60.4979   30.0394   48.0338 H   0  0  0  0  0  0  0  0  0  0  0  0
   63.2122   30.9424   48.7110 H   0  0  0  0  0  0  0  0  0  0  0  0
   64.8540   32.5803   47.7321 H   0  0  0  0  0  0  0  0  0  0  0  0
   64.0437   34.4475   46.2745 H   0  0  0  0  0  0  0  0  0  0  0  0
   61.5846   34.6765   45.7739 H   0  0  0  0  0  0  0  0  0  0  0  0
   57.0681   31.4235   45.9975 H   0  0  0  0  0  0  0  0  0  0  0  0
  1  2  2  0
  2  3  1  0
  3  4  1  0
  4  5  1  0
  5  6  1  0
  6  7  2  0
  6  8  2  0
  6  9  1  0
  9 10  1  0
 10 11  1  0
 11 12  2  0
 12 13  1  0
 13 14  2  0
 14 15  1  0
 15 16  2  0
  2 17  1  0
 17 18  2  0
 18 19  1  0
 19 20  2  0
 20 21  1  0
 21 22  1  0
 22 23  2  0
 22 24  2  0
 22 25  1  0
 25 26  1  0
 26 27  1  0
 27 28  1  0
 28 29  2  0
 29 30  1  0
 30 31  2  0
 31 32  1  0
 32 33  2  0
 21 34  2  0
 16 11  1  0
 34 17  1  0
 33 25  1  0
 33 28  1  0
  4 35  1  0
  4 36  1  0
  5 37  1  0
  5 38  1  0
 10 39  1  0
 10 40  1  0
 12 41  1  0
 13 42  1  0
 14 43  1  0
 15 44  1  0
 16 45  1  0
 18 46  1  0
 19 47  1  0
 20 48  1  0
 26 49  1  0
 26 50  1  0
 27 51  1  0
 27 52  1  0
 29 53  1  0
 30 54  1  0
 31 55  1  0
 32 56  1  0
 34 57  1  0
M  CHG  2   3  -1   9  -1
M  END
>  <UniqueID>  (66) 
60

>  <SMILES>  (66) 
O=C([N-]CCS(=O)(=O)[N-]Cc1ccccc1)c1cccc(S(=O)(=O)N2CCc3ccccc32)c1

>  <Energy>  (66) 
75.82526172013792

>  <Genealogy>  (66) 
O=C([N-]CCS(=O)(=O)[N-]Cc1ccccc1)c1cccc(S(=O)(=O)N2CCc3ccccc32)c1 (protonated)
O=C([N-]CCS(=O)(=O)[N-]Cc1ccccc1)c1cccc(S(=O)(=O)N2CCc3ccccc32)c1 (3D coordinates assigned)
O=C([N-]CCS(=O)(=O)[N-]Cc1ccccc1)c1cccc(S(=O)(=O)N2CCc3ccccc32)c1 (nonaromatic ring conformer: 75.82526172013792 kcal/mol)

>  <smiles>  (66) 
O=C(NCCS(=O)(=O)NCc1ccccc1)c1cccc(S(=O)(=O)N2CCc3ccccc32)c1

>  <score_type>  (66) 
oracle

>  <origin>  (66) 
adg

>  <m_score__min__energy>  (66) 
-14.85

>  <m_primary>  (66) 
energy

$$$$
66:0
     RDKit          3D

 57 60  0  0  0  0  0  0  0  0999 V2000
   62.3520   30.7768   50.1082 H   0  0  0  0  0  0  0  0  0  0  0  0
   61.2710   30.7310   49.9100 C   0  0  0  0  0  0  0  0  0  0  0  0
   60.8170   30.2210   48.7330 N   0  0  0  0  0  0  0  0  0  0  0  0
   59.4940   30.1650   48.4300 C   0  0  0  0  0  0  0  0  0  0  0  0
   59.1380   29.6370   47.2920 N   0  0  0  0  0  0  0  0  0  0  0  0
   59.2450   30.2430   45.9940 C   0  0  0  0  0  0  0  0  0  0  0  0
   59.6990   29.5780   45.0230 O   0  0  0  0  0  0  0  0  0  0  0  0
   58.7750   31.6340   45.7800 C   0  0  0  0  0  0  0  0  0  0  0  0
   57.5000   31.8650   45.2130 C   0  0  0  0  0  0  0  0  0  0  0  0
   56.6940   30.7700   44.8550 O   0  0  0  0  0  0  0  0  0  0  0  0
   56.6890   30.1520   43.5730 C   0  0  0  0  0  0  0  0  0  0  0  0
   56.6802   29.0586   43.6931 H   0  0  0  0  0  0  0  0  0  0  0  0
   55.7934   30.4671   43.0175 H   0  0  0  0  0  0  0  0  0  0  0  0
   57.5896   30.4526   43.0175 H   0  0  0  0  0  0  0  0  0  0  0  0
   57.0510   33.1890   45.0440 C   0  0  0  0  0  0  0  0  0  0  0  0
   56.0623   33.3771   44.6001 H   0  0  0  0  0  0  0  0  0  0  0  0
   57.8480   34.2620   45.4340 C   0  0  0  0  0  0  0  0  0  0  0  0
   57.4865   35.2917   45.2964 H   0  0  0  0  0  0  0  0  0  0  0  0
   59.1020   34.0360   45.9980 C   0  0  0  0  0  0  0  0  0  0  0  0
   59.7219   34.8896   46.3098 H   0  0  0  0  0  0  0  0  0  0  0  0
   59.5820   32.7240   46.1720 C   0  0  0  0  0  0  0  0  0  0  0  0
   60.8590   32.4790   46.7100 O   0  0  0  0  0  0  0  0  0  0  0  0
   61.6830   33.4690   47.3190 C   0  0  0  0  0  0  0  0  0  0  0  0
   61.6115   33.3831   48.4133 H   0  0  0  0  0  0  0  0  0  0  0  0
   62.7272   33.3196   47.0069 H   0  0  0  0  0  0  0  0  0  0  0  0
   61.3465   34.4687   47.0069 H   0  0  0  0  0  0  0  0  0  0  0  0
   58.5540   30.6240   49.3730 C   0  0  0  0  0  0  0  0  0  0  0  0
   57.4782   30.5754   49.1487 H   0  0  0  0  0  0  0  0  0  0  0  0
   58.9960   31.1450   50.6030 C   0  0  0  0  0  0  0  0  0  0  0  0
   58.0990   31.5610   51.5970 O   0  0  0  0  0  0  0  0  0  0  0  0
   57.1510   30.7280   52.2060 C   0  0  0  0  0  0  0  0  0  0  0  0
   55.8360   31.1790   52.3440 C   0  0  0  0  0  0  0  0  0  0  0  0
   55.5514   32.1643   51.9463 H   0  0  0  0  0  0  0  0  0  0  0  0
   54.8790   30.3850   52.9850 C   0  0  0  0  0  0  0  0  0  0  0  0
   53.8489   30.7533   53.1004 H   0  0  0  0  0  0  0  0  0  0  0  0
   55.2300   29.1180   53.4820 C   0  0  0  0  0  0  0  0  0  0  0  0
   54.2640   28.2710   54.1180 N   0  0  0  0  0  0  0  0  0  0  0  0
   52.9710   27.9630   53.5870 C   0  0  0  0  0  0  0  0  0  0  0  0
   52.7200   26.7840   53.2320 O   0  0  0  0  0  0  0  0  0  0  0  0
   51.9860   28.9990   53.4600 N   0  0  0  0  0  0  0  0  0  0  0  0
   51.8230   29.9440   52.3910 C   0  0  0  0  0  0  0  0  0  0  0  0
   52.0760   29.6140   51.0440 C   0  0  0  0  0  0  0  0  0  0  0  0
   52.4325   28.6067   50.7828 H   0  0  0  0  0  0  0  0  0  0  0  0
   51.8740   30.5670   50.0380 C   0  0  0  0  0  0  0  0  0  0  0  0
   52.0879   30.3097   48.9901 H   0  0  0  0  0  0  0  0  0  0  0  0
   51.4030   31.8410   50.3570 C   0  0  0  0  0  0  0  0  0  0  0  0
   51.2569   32.5895   49.5642 H   0  0  0  0  0  0  0  0  0  0  0  0
   51.1170   32.1640   51.6880 C   0  0  0  0  0  0  0  0  0  0  0  0
   50.6280   33.4260   52.0070 O   0  0  0  0  0  0  0  0  0  0  0  0
   51.3190   31.2140   52.6950 C   0  0  0  0  0  0  0  0  0  0  0  0
   51.0789   31.4681   53.7380 H   0  0  0  0  0  0  0  0  0  0  0  0
   56.5340   28.6430   53.2930 C   0  0  0  0  0  0  0  0  0  0  0  0
   56.8048   27.6341   53.6377 H   0  0  0  0  0  0  0  0  0  0  0  0
   57.4930   29.4460   52.6680 C   0  0  0  0  0  0  0  0  0  0  0  0
   58.5194   29.0725   52.5375 H   0  0  0  0  0  0  0  0  0  0  0  0
   60.3670   31.1960   50.8660 C   0  0  0  0  0  0  0  0  0  0  0  0
   60.7320   31.6005   51.8216 H   0  0  0  0  0  0  0  0  0  0  0  0
  1  2  1  0
  2  3  1  0
  3  4  1  0
  4  5  2  0
  5  6  1  0
  6  7  2  0
  6  8  1  0
  8  9  2  0
  9 10  1  0
 10 11  1  0
 11 12  1  0
 11 13  1  0
 11 14  1  0
  9 15  1  0
 15 16  1  0
 15 17  2  0
 17 18  1  0
 17 19  1  0
 19 20  1  0
 19 21  2  0
 21 22  1  0
 22 23  1  0
 23 24  1  0
 23 25  1  0
 23 26  1  0
  4 27  1  0
 27 28  1  0
 27 29  2  0
 29 30  1  0
 30 31  1  0
 31 32  2  0
 32 33  1  0
 32 34  1  0
 34 35  1  0
 34 36  2  0
 36 37  1  0
 37 38  1  0
 38 39  2  0
 38 40  1  0
 40 41  1  0
 41 42  2  0
 42 43  1  0
 42 44  1  0
 44 45  1  0
 44 46  2  0
 46 47  1  0
 46 48  1  0
 48 49  1  0
 48 50  2  0
 50 51  1  0
 36 52  1  0
 52 53  1  0
 52 54  2  0
 54 55  1  0
 29 56  1  0
 56 57  1  0
 56  2  2  0
 21  8  1  0
 54 31  1  0
 50 41  1  0
M  CHG  4   3  -1  37  -1  40  -1  49  -1
M  END
>  <UniqueID>  (67) 
61

>  <SMILES>  (67) 
COc1cccc(OC)c1C(=O)/N=c1\cc(Oc2ccc([N-]C(=O)[N-]c3cccc([O-])c3)cc2)cc[n-]1

>  <Energy>  (67) 
88.60619037503196

>  <Genealogy>  (67) 
COc1cccc(OC)c1C(=O)N=c1cc(Oc2ccc([N-]C(=O)[N-]c3cccc([O-])c3)cc2)cc[n-]1 (protonated)
COc1cccc(OC)c1C(=O)/N=c1\cc(Oc2ccc([N-]C(=O)[N-]c3cccc([O-])c3)cc2)cc[n-]1 (cis-trans isomerization)
COc1cccc(OC)c1C(=O)/N=c1\cc(Oc2ccc([N-]C(=O)[N-]c3cccc([O-])c3)cc2)cc[n-]1 (3D coordinates assigned)
COc1cccc(OC)c1C(=O)/N=c1\cc(Oc2ccc([N-]C(=O)[N-]c3cccc([O-])c3)cc2)cc[n-]1 (optimized conformer: 88.60619037503196 kcal/mol)

>  <smiles>  (67) 
COc1cccc(OC)c1C(=O)N=c1cc(Oc2ccc(NC(=O)Nc3cccc(O)c3)cc2)cc[nH]1

>  <score_type>  (67) 
oracle

>  <origin>  (67) 
adg

>  <m_score__min__energy>  (67) 
-16.829999999999998

>  <m_primary>  (67) 
energy

$$$$
67:0
     RDKit          3D

 40 42  0  0  0  0  0  0  0  0999 V2000
   57.7680   28.1950   43.6980 C   0  0  0  0  0  0  0  0  0  0  0  0
   57.8210   27.8580   44.9960 C   0  0  0  0  0  0  0  0  0  0  0  0
   57.7180   26.5730   45.5560 C   0  0  0  0  0  0  0  0  0  0  0  0
   57.4120   25.3850   44.9970 C   0  0  0  0  0  0  0  0  0  0  0  0
   56.0870   24.7360   45.0320 C   0  0  0  0  0  0  0  0  0  0  0  0
   54.9640   25.4030   45.5490 C   0  0  0  0  0  0  0  0  0  0  0  0
   55.0630   26.7120   46.0080 O   0  0  0  0  0  0  0  0  0  0  0  0
   53.7660   24.7660   45.6080 N   0  0  0  0  0  0  0  0  0  0  0  0
   53.6350   23.4800   45.1900 C   0  0  0  0  0  0  0  0  0  0  0  0
   52.5150   22.9120   45.2510 O   0  0  0  0  0  0  0  0  0  0  0  0
   54.7130   22.8070   44.7130 N   0  0  0  0  0  0  0  0  0  0  0  0
   55.9320   23.4000   44.6330 C   0  0  0  0  0  0  0  0  0  0  0  0
   56.9130   22.7430   44.1920 O   0  0  0  0  0  0  0  0  0  0  0  0
   57.9890   26.7160   46.9080 C   0  0  0  0  0  0  0  0  0  0  0  0
   58.1960   28.0610   47.1350 C   0  0  0  0  0  0  0  0  0  0  0  0
   58.5350   28.6680   48.4610 C   0  0  0  0  0  0  0  0  0  0  0  0
   58.0820   28.7530   45.9820 N   0  0  0  0  0  0  0  0  0  0  0  0
   58.3260   30.1620   45.8330 C   0  0  0  0  0  0  0  0  0  0  0  0
   59.4620   30.7100   46.4380 C   0  0  0  0  0  0  0  0  0  0  0  0
   59.7220   32.0770   46.3590 C   0  0  0  0  0  0  0  0  0  0  0  0
   58.8440   32.9290   45.6750 C   0  0  0  0  0  0  0  0  0  0  0  0
   59.1200   34.3840   45.5950 C   0  0  0  0  0  0  0  0  0  0  0  0
   59.4690   35.1230   46.7640 N   0  0  0  0  0  0  0  0  0  0  0  0
   59.0510   34.9830   44.4880 O   0  0  0  0  0  0  0  0  0  0  0  0
   57.7010   32.3820   45.0640 C   0  0  0  0  0  0  0  0  0  0  0  0
   57.4290   31.0010   45.1280 C   0  0  0  0  0  0  0  0  0  0  0  0
   56.2170   30.4700   44.4480 C   0  0  0  0  0  0  0  0  0  0  0  0
   56.0260   30.6960   43.2230 O   0  0  0  0  0  0  0  0  0  0  0  0
   55.2840   29.7020   45.1320 O   0  0  0  0  0  0  0  0  0  0  0  0
   57.8637   29.2493   43.3991 H   0  0  0  0  0  0  0  0  0  0  0  0
   57.6289   27.4169   42.9330 H   0  0  0  0  0  0  0  0  0  0  0  0
   58.2185   24.8542   44.4700 H   0  0  0  0  0  0  0  0  0  0  0  0
   58.0310   25.9111   47.6566 H   0  0  0  0  0  0  0  0  0  0  0  0
   58.1702   28.0147   49.2673 H   0  0  0  0  0  0  0  0  0  0  0  0
   59.6261   28.7797   48.5449 H   0  0  0  0  0  0  0  0  0  0  0  0
   58.0578   29.6555   48.5449 H   0  0  0  0  0  0  0  0  0  0  0  0
   60.1579   30.0546   46.9822 H   0  0  0  0  0  0  0  0  0  0  0  0
   60.6226   32.4902   46.8368 H   0  0  0  0  0  0  0  0  0  0  0  0
   59.0670   36.0700   46.9410 H   0  0  0  0  0  0  0  0  0  0  0  0
   57.0068   33.0446   44.5264 H   0  0  0  0  0  0  0  0  0  0  0  0
  1  2  2  0
  2  3  1  0
  3  4  2  3
  4  5  1  0
  5  6  2  0
  6  7  1  0
  6  8  1  0
  8  9  1  0
  9 10  2  0
  9 11  1  0
 11 12  1  0
 12 13  2  0
  3 14  1  0
 14 15  2  0
 15 16  1  0
 15 17  1  0
 17 18  1  0
 18 19  2  0
 19 20  1  0
 20 21  2  0
 21 22  1  0
 22 23  1  0
 22 24  2  0
 21 25  1  0
 25 26  2  0
 26 27  1  0
 27 28  2  0
 27 29  1  0
 17  2  1  0
 26 18  1  0
 12  5  1  0
  1 30  1  0
  1 31  1  0
  4 32  1  0
 14 33  1  0
 16 34  1  0
 16 35  1  0
 16 36  1  0
 19 37  1  0
 20 38  1  0
 23 39  1  0
 25 40  1  0
M  CHG  5   7  -1   8  -1  11  -1  23  -1  29  -1
M  END
>  <UniqueID>  (68) 
62

>  <SMILES>  (68) 
C=c1c(=Cc2c([O-])[n-]c(=O)[n-]c2=O)cc(C)n1-c1ccc(C([NH-])=O)cc1C(=O)[O-]

>  <Energy>  (68) 
95.31023154998023

>  <Genealogy>  (68) 
C=c1c(=Cc2c([O-])[n-]c(=O)[n-]c2=O)cc(C)n1-c1ccc(C([NH-])=O)cc1C(=O)[O-] (protonated)
C=c1c(=Cc2c([O-])[n-]c(=O)[n-]c2=O)cc(C)n1-c1ccc(C([NH-])=O)cc1C(=O)[O-] (3D coordinates assigned)
C=c1c(=Cc2c([O-])[n-]c(=O)[n-]c2=O)cc(C)n1-c1ccc(C([NH-])=O)cc1C(=O)[O-] (optimized conformer: 95.31023154998023 kcal/mol)

>  <smiles>  (68) 
C=c1c(=Cc2c(O)[nH]c(=O)[nH]c2=O)cc(C)n1-c1ccc(C(N)=O)cc1C(=O)O

>  <score_type>  (68) 
oracle

>  <origin>  (68) 
adg

>  <m_score__min__energy>  (68) 
-18.780000000000001

>  <m_primary>  (68) 
energy

$$$$
68:0
     RDKit          3D

 57 60  0  0  0  0  0  0  0  0999 V2000
   64.8480   31.6210   51.2850 C   0  0  0  0  0  0  0  0  0  0  0  0
   64.9480   33.1080   50.3130 S   0  0  0  0  0  0  0  0  0  0  0  0
   66.2040   33.0890   49.4900 O   0  0  0  0  0  0  0  0  0  0  0  0
   64.9860   34.3020   51.2260 O   0  0  0  0  0  0  0  0  0  0  0  0
   63.5440   33.2080   49.2550 C   0  0  0  0  0  0  0  0  0  0  0  0
   62.2710   33.4190   49.7970 C   0  0  0  0  0  0  0  0  0  0  0  0
   61.1560   33.5180   48.9590 C   0  0  0  0  0  0  0  0  0  0  0  0
   61.2980   33.4100   47.5630 C   0  0  0  0  0  0  0  0  0  0  0  0
   60.1170   33.5240   46.6700 C   0  0  0  0  0  0  0  0  0  0  0  0
   60.0490   34.2050   45.4640 C   0  0  0  0  0  0  0  0  0  0  0  0
   58.8290   34.0550   44.9180 N   0  0  0  0  0  0  0  0  0  0  0  0
   58.1110   33.2940   45.7630 C   0  0  0  0  0  0  0  0  0  0  0  0
   56.7090   32.8250   45.4900 C   0  0  0  0  0  0  0  0  0  0  0  0
   56.6910   31.5860   44.6970 N   0  0  0  0  0  0  0  0  0  0  0  0
   58.0510   31.1220   44.3840 C   0  0  0  0  0  0  0  0  0  0  0  0
   58.4890   30.1040   45.4010 C   0  0  0  0  0  0  0  0  0  0  0  0
   59.7850   30.1460   45.9370 C   0  0  0  0  0  0  0  0  0  0  0  0
   60.1900   29.1850   46.8670 C   0  0  0  0  0  0  0  0  0  0  0  0
   59.3160   28.1630   47.2480 C   0  0  0  0  0  0  0  0  0  0  0  0
   58.0340   28.0820   46.6890 C   0  0  0  0  0  0  0  0  0  0  0  0
   57.1630   27.0200   47.1080 N   0  0  0  0  0  0  0  0  0  0  0  0
   56.3540   26.2030   46.2530 C   0  0  0  0  0  0  0  0  0  0  0  0
   55.1620   26.5250   45.9970 O   0  0  0  0  0  0  0  0  0  0  0  0
   56.9660   24.9840   45.6140 C   0  0  0  0  0  0  0  0  0  0  0  0
   57.3800   25.1950   44.1580 C   0  0  0  0  0  0  0  0  0  0  0  0
   56.3570   24.1530   43.7200 C   0  0  0  0  0  0  0  0  0  0  0  0
   55.9420   23.9410   45.1710 C   0  0  0  0  0  0  0  0  0  0  0  0
   57.6180   29.0690   45.7770 C   0  0  0  0  0  0  0  0  0  0  0  0
   58.8730   32.9420   46.8610 C   0  0  0  0  0  0  0  0  0  0  0  0
   62.5830   33.2040   47.0280 C   0  0  0  0  0  0  0  0  0  0  0  0
   63.6960   33.1070   47.8680 C   0  0  0  0  0  0  0  0  0  0  0  0
   64.8654   31.8798   52.3540 H   0  0  0  0  0  0  0  0  0  0  0  0
   63.9123   31.0922   51.0510 H   0  0  0  0  0  0  0  0  0  0  0  0
   65.7045   30.9717   51.0510 H   0  0  0  0  0  0  0  0  0  0  0  0
   62.1471   33.5073   50.8864 H   0  0  0  0  0  0  0  0  0  0  0  0
   60.1593   33.6817   49.3947 H   0  0  0  0  0  0  0  0  0  0  0  0
   60.8722   34.7832   45.0190 H   0  0  0  0  0  0  0  0  0  0  0  0
   58.5120   34.4390   43.9990 H   0  0  0  0  0  0  0  0  0  0  0  0
   56.2022   32.6412   46.4488 H   0  0  0  0  0  0  0  0  0  0  0  0
   56.1935   33.6071   44.9133 H   0  0  0  0  0  0  0  0  0  0  0  0
   56.1890   30.8420   45.2390 H   0  0  0  0  0  0  0  0  0  0  0  0
   58.0598   30.6655   43.3832 H   0  0  0  0  0  0  0  0  0  0  0  0
   58.7411   31.9783   44.4070 H   0  0  0  0  0  0  0  0  0  0  0  0
   60.4832   30.9366   45.6247 H   0  0  0  0  0  0  0  0  0  0  0  0
   61.1998   29.2329   47.3006 H   0  0  0  0  0  0  0  0  0  0  0  0
   59.6366   27.4180   47.9911 H   0  0  0  0  0  0  0  0  0  0  0  0
   57.7181   24.7372   46.3778 H   0  0  0  0  0  0  0  0  0  0  0  0
   57.1820   26.2075   43.7765 H   0  0  0  0  0  0  0  0  0  0  0  0
   58.4344   25.1020   43.8586 H   0  0  0  0  0  0  0  0  0  0  0  0
   55.5572   24.5521   43.0789 H   0  0  0  0  0  0  0  0  0  0  0  0
   56.6665   23.2979   43.1011 H   0  0  0  0  0  0  0  0  0  0  0  0
   54.8987   24.2164   45.3848 H   0  0  0  0  0  0  0  0  0  0  0  0
   55.9473   22.9327   45.6107 H   0  0  0  0  0  0  0  0  0  0  0  0
   56.6028   29.0296   45.3553 H   0  0  0  0  0  0  0  0  0  0  0  0
   58.5564   32.3245   47.7145 H   0  0  0  0  0  0  0  0  0  0  0  0
   62.7128   33.1185   45.9390 H   0  0  0  0  0  0  0  0  0  0  0  0
   64.6957   32.9506   47.4366 H   0  0  0  0  0  0  0  0  0  0  0  0
  1  2  1  0
  2  3  2  0
  2  4  2  0
  2  5  1  0
  5  6  2  0
  6  7  1  0
  7  8  2  0
  8  9  1  0
  9 10  2  0
 10 11  1  0
 11 12  1  0
 12 13  1  0
 13 14  1  0
 14 15  1  0
 15 16  1  0
 16 17  2  0
 17 18  1  0
 18 19  2  0
 19 20  1  0
 20 21  1  0
 21 22  1  0
 22 23  2  0
 22 24  1  0
 24 25  1  0
 25 26  1  0
 26 27  1  0
 20 28  2  0
 12 29  2  0
  8 30  1  0
 30 31  2  0
 31  5  1  0
 29  9  1  0
 28 16  1  0
 27 24  1  0
  1 32  1  0
  1 33  1  0
  1 34  1  0
  6 35  1  0
  7 36  1  0
 10 37  1  0
 11 38  1  0
 13 39  1  0
 13 40  1  0
 14 41  1  0
 15 42  1  0
 15 43  1  0
 17 44  1  0
 18 45  1  0
 19 46  1  0
 24 47  1  0
 25 48  1  0
 25 49  1  0
 26 50  1  0
 26 51  1  0
 27 52  1  0
 27 53  1  0
 28 54  1  0
 29 55  1  0
 30 56  1  0
 31 57  1  0
M  CHG  1  21  -1
M  END
>  <UniqueID>  (69) 
63

>  <SMILES>  (69) 
CS(=O)(=O)c1ccc(-c2c[nH]c(CNCc3cccc([N-]C(=O)C4CCC4)c3)c2)cc1

>  <Energy>  (69) 
145.87192600545143

>  <Genealogy>  (69) 
CS(=O)(=O)c1ccc(-c2c[nH]c(CNCc3cccc([N-]C(=O)C4CCC4)c3)c2)cc1 (protonated)
CS(=O)(=O)c1ccc(-c2c[nH]c(CNCc3cccc([N-]C(=O)C4CCC4)c3)c2)cc1 (3D coordinates assigned)
CS(=O)(=O)c1ccc(-c2c[nH]c(CNCc3cccc([N-]C(=O)C4CCC4)c3)c2)cc1 (nonaromatic ring conformer: 145.87192600545143 kcal/mol)

>  <smiles>  (69) 
CS(=O)(=O)c1ccc(-c2c[nH]c(CNCc3cccc(NC(=O)C4CCC4)c3)c2)cc1

>  <score_type>  (69) 
oracle

>  <origin>  (69) 
adg

>  <m_score__min__energy>  (69) 
-12.130000000000001

>  <m_primary>  (69) 
energy

$$$$
69:0
     RDKit          3D

 72 76  0  0  0  0  0  0  0  0999 V2000
   53.8640   23.3080   45.7200 C   0  0  0  0  0  0  0  0  0  0  0  0
   55.0060   23.2610   46.4090 C   0  0  0  0  0  0  0  0  0  0  0  0
   55.9230   24.4200   46.5350 C   0  0  0  0  0  0  0  0  0  0  0  0
   55.6050   25.6010   45.8430 C   0  0  0  0  0  0  0  0  0  0  0  0
   56.4180   26.7440   45.9570 C   0  0  0  0  0  0  0  0  0  0  0  0
   56.1220   27.9620   45.2470 N   0  0  0  0  0  0  0  0  0  0  0  0
   57.0860   28.9700   44.9010 C   0  0  0  0  0  0  0  0  0  0  0  0
   58.3070   28.6770   44.8050 O   0  0  0  0  0  0  0  0  0  0  0  0
   56.6650   30.2940   44.5530 N   0  0  0  0  0  0  0  0  0  0  0  0
   57.3860   31.5000   44.8370 C   0  0  0  0  0  0  0  0  0  0  0  0
   57.6020   32.4740   43.8490 C   0  0  0  0  0  0  0  0  0  0  0  0
   58.2850   33.6490   44.1620 C   0  0  0  0  0  0  0  0  0  0  0  0
   58.7470   33.8720   45.4600 C   0  0  0  0  0  0  0  0  0  0  0  0
   58.5310   32.9150   46.4670 C   0  0  0  0  0  0  0  0  0  0  0  0
   59.0370   33.1670   47.8390 C   0  0  0  0  0  0  0  0  0  0  0  0
   59.9540   34.1940   48.1150 C   0  0  0  0  0  0  0  0  0  0  0  0
   60.3530   34.4100   49.3950 N   0  0  0  0  0  0  0  0  0  0  0  0
   59.8830   33.6560   50.4280 C   0  0  0  0  0  0  0  0  0  0  0  0
   60.3120   33.8900   51.7390 O   0  0  0  0  0  0  0  0  0  0  0  0
   61.2610   33.0790   52.4270 C   0  0  0  0  0  0  0  0  0  0  0  0
   62.6360   33.0920   51.7260 C   0  0  0  0  0  0  0  0  0  0  0  0
   62.6150   32.7990   50.2740 N   0  0  0  0  0  0  0  0  0  0  0  0
   63.7060   33.4370   49.5100 C   0  0  0  0  0  0  0  0  0  0  0  0
   63.7320   32.9170   48.0590 C   0  0  0  0  0  0  0  0  0  0  0  0
   62.4650   32.4100   47.6890 O   0  0  0  0  0  0  0  0  0  0  0  0
   62.1720   31.2330   48.4280 C   0  0  0  0  0  0  0  0  0  0  0  0
   62.4730   31.3760   49.9350 C   0  0  0  0  0  0  0  0  0  0  0  0
   58.9670   32.6240   50.1590 C   0  0  0  0  0  0  0  0  0  0  0  0
   58.4770   31.7570   51.1950 N   0  0  0  0  0  0  0  0  0  0  0  0
   58.6900   30.3090   51.1390 C   0  0  0  0  0  0  0  0  0  0  0  0
   58.7580   29.7450   52.5610 C   0  0  0  0  0  0  0  0  0  0  0  0
   57.6210   30.1390   53.3060 O   0  0  0  0  0  0  0  0  0  0  0  0
   57.6350   31.5420   53.4930 C   0  0  0  0  0  0  0  0  0  0  0  0
   57.4990   32.2770   52.1530 C   0  0  0  0  0  0  0  0  0  0  0  0
   58.5780   32.4110   48.8740 N   0  0  0  0  0  0  0  0  0  0  0  0
   57.8280   31.7370   46.1460 C   0  0  0  0  0  0  0  0  0  0  0  0
   57.5840   26.6760   46.7310 C   0  0  0  0  0  0  0  0  0  0  0  0
   57.9290   25.4960   47.3920 C   0  0  0  0  0  0  0  0  0  0  0  0
   57.1140   24.3660   47.2920 C   0  0  0  0  0  0  0  0  0  0  0  0
   57.5180   23.1910   47.9180 O   0  0  0  0  0  0  0  0  0  0  0  0
   53.2211   22.4175   45.6595 H   0  0  0  0  0  0  0  0  0  0  0  0
   53.5656   24.2373   45.2126 H   0  0  0  0  0  0  0  0  0  0  0  0
   55.2799   22.3190   46.9066 H   0  0  0  0  0  0  0  0  0  0  0  0
   54.7098   25.6324   45.2045 H   0  0  0  0  0  0  0  0  0  0  0  0
   55.1480   28.0930   44.8930 H   0  0  0  0  0  0  0  0  0  0  0  0
   57.2318   32.3100   42.8262 H   0  0  0  0  0  0  0  0  0  0  0  0
   58.4605   34.4041   43.3816 H   0  0  0  0  0  0  0  0  0  0  0  0
   59.2836   34.8026   45.6966 H   0  0  0  0  0  0  0  0  0  0  0  0
   60.3466   34.8195   47.2997 H   0  0  0  0  0  0  0  0  0  0  0  0
   61.3796   33.4603   53.4520 H   0  0  0  0  0  0  0  0  0  0  0  0
   60.8882   32.0441   52.4327 H   0  0  0  0  0  0  0  0  0  0  0  0
   63.0771   34.0902   51.8638 H   0  0  0  0  0  0  0  0  0  0  0  0
   63.2184   32.2817   52.1889 H   0  0  0  0  0  0  0  0  0  0  0  0
   63.5512   34.5260   49.5005 H   0  0  0  0  0  0  0  0  0  0  0  0
   64.6646   33.1918   49.9907 H   0  0  0  0  0  0  0  0  0  0  0  0
   64.0022   33.7425   47.3840 H   0  0  0  0  0  0  0  0  0  0  0  0
   64.4730   32.1073   47.9858 H   0  0  0  0  0  0  0  0  0  0  0  0
   61.1044   30.9984   48.3046 H   0  0  0  0  0  0  0  0  0  0  0  0
   62.8166   30.4312   48.0386 H   0  0  0  0  0  0  0  0  0  0  0  0
   61.6468   30.9413   50.5167 H   0  0  0  0  0  0  0  0  0  0  0  0
   63.4077   30.8474   50.1737 H   0  0  0  0  0  0  0  0  0  0  0  0
   57.8570   29.8370   50.5973 H   0  0  0  0  0  0  0  0  0  0  0  0
   59.6349   30.0984   50.6167 H   0  0  0  0  0  0  0  0  0  0  0  0
   58.7966   28.6467   52.5132 H   0  0  0  0  0  0  0  0  0  0  0  0
   59.6598   30.1353   53.0555 H   0  0  0  0  0  0  0  0  0  0  0  0
   56.7965   31.8262   54.1458 H   0  0  0  0  0  0  0  0  0  0  0  0
   58.5939   31.8247   53.9519 H   0  0  0  0  0  0  0  0  0  0  0  0
   56.4843   32.1259   51.7560 H   0  0  0  0  0  0  0  0  0  0  0  0
   57.6824   33.3502   52.3096 H   0  0  0  0  0  0  0  0  0  0  0  0
   57.6236   30.9947   46.9316 H   0  0  0  0  0  0  0  0  0  0  0  0
   58.2329   27.5599   46.8185 H   0  0  0  0  0  0  0  0  0  0  0  0
   58.8480   25.4557   47.9951 H   0  0  0  0  0  0  0  0  0  0  0  0
  1  2  2  0
  2  3  1  0
  3  4  2  0
  4  5  1  0
  5  6  1  0
  6  7  1  0
  7  8  2  0
  7  9  1  0
  9 10  1  0
 10 11  2  0
 11 12  1  0
 12 13  2  0
 13 14  1  0
 14 15  1  0
 15 16  2  0
 16 17  1  0
 17 18  2  0
 18 19  1  0
 19 20  1  0
 20 21  1  0
 21 22  1  0
 22 23  1  0
 23 24  1  0
 24 25  1  0
 25 26  1  0
 26 27  1  0
 18 28  1  0
 28 29  1  0
 29 30  1  0
 30 31  1  0
 31 32  1  0
 32 33  1  0
 33 34  1  0
 28 35  2  0
 14 36  2  0
  5 37  2  0
 37 38  1  0
 38 39  2  0
 39 40  1  0
 39  3  1  0
 36 10  1  0
 35 15  1  0
 27 22  1  0
 34 29  1  0
  1 41  1  0
  1 42  1  0
  2 43  1  0
  4 44  1  0
  6 45  1  0
 11 46  1  0
 12 47  1  0
 13 48  1  0
 16 49  1  0
 20 50  1  0
 20 51  1  0
 21 52  1  0
 21 53  1  0
 23 54  1  0
 23 55  1  0
 24 56  1  0
 24 57  1  0
 26 58  1  0
 26 59  1  0
 27 60  1  0
 27 61  1  0
 30 62  1  0
 30 63  1  0
 31 64  1  0
 31 65  1  0
 33 66  1  0
 33 67  1  0
 34 68  1  0
 34 69  1  0
 36 70  1  0
 37 71  1  0
 38 72  1  0
M  CHG  2   9  -1  40  -1
M  END
>  <UniqueID>  (70) 
64

>  <SMILES>  (70) 
C=Cc1cc(NC(=O)[N-]c2cccc(-c3cnc(OCCN4CCOCC4)c(N4CCOCC4)n3)c2)ccc1[O-]

>  <Energy>  (70) 
108.23885036558563

>  <Genealogy>  (70) 
C=Cc1cc(NC(=O)[N-]c2cccc(-c3cnc(OCCN4CCOCC4)c(N4CCOCC4)n3)c2)ccc1[O-] (protonated)
C=Cc1cc(NC(=O)[N-]c2cccc(-c3cnc(OCCN4CCOCC4)c(N4CCOCC4)n3)c2)ccc1[O-] (3D coordinates assigned)
C=Cc1cc(NC(=O)[N-]c2cccc(-c3cnc(OCCN4CCOCC4)c(N4CCOCC4)n3)c2)ccc1[O-] (nonaromatic ring conformer: 108.23885036558563 kcal/mol)

>  <smiles>  (70) 
C=Cc1cc(NC(=O)Nc2cccc(-c3cnc(OCCN4CCOCC4)c(N4CCOCC4)n3)c2)ccc1O

>  <score_type>  (70) 
oracle

>  <origin>  (70) 
adg

>  <m_score__min__energy>  (70) 
-13.57

>  <m_primary>  (70) 
energy

$$$$
70:0
     RDKit          3D

 50 53  0  0  0  0  0  0  0  0999 V2000
   55.5420   29.7180   45.9360 H   0  0  0  0  0  0  0  0  0  0  0  0
   55.6870   28.9700   45.2690 O   0  0  0  0  0  0  0  0  0  0  0  0
   56.2900   27.7580   45.6100 C   0  0  0  0  0  0  0  0  0  0  0  0
   55.4940   26.7100   45.9490 N   0  0  0  0  0  0  0  0  0  0  0  0
   56.0180   25.5040   46.2840 C   0  0  0  0  0  0  0  0  0  0  0  0
   55.2560   24.5510   46.5890 O   0  0  0  0  0  0  0  0  0  0  0  0
   57.3620   25.3270   46.2950 N   0  0  0  0  0  0  0  0  0  0  0  0
   58.2060   26.3380   45.9680 C   0  0  0  0  0  0  0  0  0  0  0  0
   59.4500   26.1430   46.0160 O   0  0  0  0  0  0  0  0  0  0  0  0
   57.6880   27.5930   45.5960 C   0  0  0  0  0  0  0  0  0  0  0  0
   58.5830   28.7260   45.2660 C   0  0  0  0  0  0  0  0  0  0  0  0
   59.2771   28.6155   44.4198 H   0  0  0  0  0  0  0  0  0  0  0  0
   58.5880   29.8850   45.9520 C   0  0  0  0  0  0  0  0  0  0  0  0
   58.1250   31.1110   45.4910 C   0  0  0  0  0  0  0  0  0  0  0  0
   57.7103   31.3249   44.4949 H   0  0  0  0  0  0  0  0  0  0  0  0
   58.2870   32.0080   46.5270 C   0  0  0  0  0  0  0  0  0  0  0  0
   57.9630   33.4690   46.4490 C   0  0  0  0  0  0  0  0  0  0  0  0
   57.8720   33.8792   47.4656 H   0  0  0  0  0  0  0  0  0  0  0  0
   58.7664   33.9946   45.9121 H   0  0  0  0  0  0  0  0  0  0  0  0
   57.0127   33.6057   45.9121 H   0  0  0  0  0  0  0  0  0  0  0  0
   58.8250   31.3920   47.6030 N   0  0  0  0  0  0  0  0  0  0  0  0
   59.1310   32.0170   48.8620 C   0  0  0  0  0  0  0  0  0  0  0  0
   58.1720   31.9900   49.8860 C   0  0  0  0  0  0  0  0  0  0  0  0
   57.2144   31.4733   49.7248 H   0  0  0  0  0  0  0  0  0  0  0  0
   58.4260   32.6150   51.1080 C   0  0  0  0  0  0  0  0  0  0  0  0
   57.6676   32.5934   51.9044 H   0  0  0  0  0  0  0  0  0  0  0  0
   59.6410   33.2670   51.3200 C   0  0  0  0  0  0  0  0  0  0  0  0
   59.8392   33.7591   52.2836 H   0  0  0  0  0  0  0  0  0  0  0  0
   60.6070   33.2960   50.3100 C   0  0  0  0  0  0  0  0  0  0  0  0
   61.5623   33.8129   50.4837 H   0  0  0  0  0  0  0  0  0  0  0  0
   60.3680   32.6710   49.0760 C   0  0  0  0  0  0  0  0  0  0  0  0
   61.3950   32.6830   48.0650 N   0  0  0  0  0  0  0  0  0  0  0  0
   62.0530   31.4350   47.6560 C   0  0  0  0  0  0  0  0  0  0  0  0
   61.8985   30.6769   48.4379 H   0  0  0  0  0  0  0  0  0  0  0  0
   61.6125   31.1099   46.7019 H   0  0  0  0  0  0  0  0  0  0  0  0
   63.5700   31.6360   47.4450 C   0  0  0  0  0  0  0  0  0  0  0  0
   64.0884   31.3505   48.3723 H   0  0  0  0  0  0  0  0  0  0  0  0
   63.8563   31.0094   46.5874 H   0  0  0  0  0  0  0  0  0  0  0  0
   63.9540   33.0200   47.1070 N   0  0  0  0  0  0  0  0  0  0  0  0
   64.7890   32.9880   46.4760 H   0  0  0  0  0  0  0  0  0  0  0  0
   62.8860   33.7450   46.4140 C   0  0  0  0  0  0  0  0  0  0  0  0
   63.2597   34.7250   46.0825 H   0  0  0  0  0  0  0  0  0  0  0  0
   62.5544   33.1710   45.5362 H   0  0  0  0  0  0  0  0  0  0  0  0
   61.7160   33.9410   47.3770 C   0  0  0  0  0  0  0  0  0  0  0  0
   61.9861   34.7024   48.1235 H   0  0  0  0  0  0  0  0  0  0  0  0
   60.8355   34.2656   46.8032 H   0  0  0  0  0  0  0  0  0  0  0  0
   59.0250   30.0950   47.2620 C   0  0  0  0  0  0  0  0  0  0  0  0
   59.5990   29.1890   48.0670 C   0  0  0  0  0  0  0  0  0  0  0  0
   59.9032   29.4725   49.0854 H   0  0  0  0  0  0  0  0  0  0  0  0
   59.7656   28.1623   47.7090 H   0  0  0  0  0  0  0  0  0  0  0  0
  1  2  1  0
  2  3  1  0
  3  4  1  0
  4  5  1  0
  5  6  2  0
  5  7  1  0
  7  8  1  0
  8  9  2  0
  8 10  1  0
 10 11  1  0
 11 12  1  0
 11 13  2  0
 13 14  1  0
 14 15  1  0
 14 16  2  0
 16 17  1  0
 17 18  1  0
 17 19  1  0
 17 20  1  0
 16 21  1  0
 21 22  1  0
 22 23  2  0
 23 24  1  0
 23 25  1  0
 25 26  1  0
 25 27  2  0
 27 28  1  0
 27 29  1  0
 29 30  1  0
 29 31  2  0
 31 32  1  0
 32 33  1  0
 33 34  1  0
 33 35  1  0
 33 36  1  0
 36 37  1  0
 36 38  1  0
 36 39  1  0
 39 40  1  0
 39 41  1  0
 41 42  1  0
 41 43  1  0
 41 44  1  0
 44 45  1  0
 44 46  1  0
 21 47  1  0
 47 48  2  0
 48 49  1  0
 48 50  1  0
 10  3  2  0
 47 13  1  0
 31 22  1  0
 44 32  1  0
M  CHG  2   4  -1   7  -1
M  END
>  <UniqueID>  (71) 
65

>  <SMILES>  (71) 
C=c1/c(=C/c2c(O)[n-]c(=O)[n-]c2=O)cc(C)n1-c1ccccc1N1CCNCC1

>  <Energy>  (71) 
105.34598540403539

>  <Genealogy>  (71) 
C=c1c(=Cc2c(O)[n-]c(=O)[n-]c2=O)cc(C)n1-c1ccccc1N1CCNCC1 (protonated)
C=c1/c(=C/c2c(O)[n-]c(=O)[n-]c2=O)cc(C)n1-c1ccccc1N1CCNCC1 (cis-trans isomerization)
C=c1/c(=C/c2c(O)[n-]c(=O)[n-]c2=O)cc(C)n1-c1ccccc1N1CCNCC1 (3D coordinates assigned)
C=c1/c(=C/c2c(O)[n-]c(=O)[n-]c2=O)cc(C)n1-c1ccccc1N1CCNCC1 (nonaromatic ring conformer: 105.34598540403539 kcal/mol)

>  <smiles>  (71) 
C=c1c(=Cc2c(O)[nH]c(=O)[nH]c2=O)cc(C)n1-c1ccccc1N1CCNCC1

>  <score_type>  (71) 
oracle

>  <origin>  (71) 
adg

>  <m_score__min__energy>  (71) 
-13.74

>  <m_primary>  (71) 
energy

$$$$
71:0
     RDKit          3D

 52 55  0  0  0  0  0  0  0  0999 V2000
   52.5234   28.2927   53.0691 H   0  0  0  0  0  0  0  0  0  0  0  0
   53.6130   28.1480   53.1130 C   0  0  0  0  0  0  0  0  0  0  0  0
   54.0275   27.1496   53.3166 H   0  0  0  0  0  0  0  0  0  0  0  0
   54.4330   29.1850   52.9190 C   0  0  0  0  0  0  0  0  0  0  0  0
   54.0770   30.5090   52.6520 C   0  0  0  0  0  0  0  0  0  0  0  0
   52.8330   31.0180   52.5720 C   0  0  0  0  0  0  0  0  0  0  0  0
   52.3554   31.3624   53.5011 H   0  0  0  0  0  0  0  0  0  0  0  0
   52.0720   31.1420   51.3160 C   0  0  0  0  0  0  0  0  0  0  0  0
   52.1470   30.2470   50.3160 N   0  0  0  0  0  0  0  0  0  0  0  0
   51.3720   30.7870   49.3510 C   0  0  0  0  0  0  0  0  0  0  0  0
   51.1800   30.2220   48.2420 O   0  0  0  0  0  0  0  0  0  0  0  0
   50.8290   31.9820   49.6620 N   0  0  0  0  0  0  0  0  0  0  0  0
   51.2900   32.2000   50.9050 C   0  0  0  0  0  0  0  0  0  0  0  0
   51.0400   33.3630   51.6230 O   0  0  0  0  0  0  0  0  0  0  0  0
   55.2710   31.2130   52.5450 C   0  0  0  0  0  0  0  0  0  0  0  0
   55.3851   32.2899   52.3520 H   0  0  0  0  0  0  0  0  0  0  0  0
   56.2870   30.2930   52.7290 C   0  0  0  0  0  0  0  0  0  0  0  0
   57.7280   30.6120   52.7380 C   0  0  0  0  0  0  0  0  0  0  0  0
   58.3570   30.5750   53.8290 O   0  0  0  0  0  0  0  0  0  0  0  0
   58.4250   30.9580   51.5270 N   0  0  0  0  0  0  0  0  0  0  0  0
   57.8540   31.9010   50.5620 C   0  0  0  0  0  0  0  0  0  0  0  0
   57.6867   31.3863   49.6044 H   0  0  0  0  0  0  0  0  0  0  0  0
   56.8986   32.2829   50.9509 H   0  0  0  0  0  0  0  0  0  0  0  0
   58.8200   33.0790   50.3460 C   0  0  0  0  0  0  0  0  0  0  0  0
   58.4720   33.6634   49.4815 H   0  0  0  0  0  0  0  0  0  0  0  0
   58.8234   33.6748   51.2707 H   0  0  0  0  0  0  0  0  0  0  0  0
   60.2140   32.6470   50.0930 N   0  0  0  0  0  0  0  0  0  0  0  0
   60.4290   32.1250   48.7220 C   0  0  0  0  0  0  0  0  0  0  0  0
   61.2538   31.3974   48.7382 H   0  0  0  0  0  0  0  0  0  0  0  0
   59.5015   31.6441   48.3779 H   0  0  0  0  0  0  0  0  0  0  0  0
   60.7810   33.2630   47.7560 C   0  0  0  0  0  0  0  0  0  0  0  0
   61.0236   34.1646   48.3376 H   0  0  0  0  0  0  0  0  0  0  0  0
   61.6423   32.9487   47.1482 H   0  0  0  0  0  0  0  0  0  0  0  0
   59.6330   33.5700   46.8310 C   0  0  0  0  0  0  0  0  0  0  0  0
   58.3440   33.0830   47.1110 C   0  0  0  0  0  0  0  0  0  0  0  0
   58.1777   32.4487   47.9942 H   0  0  0  0  0  0  0  0  0  0  0  0
   57.2730   33.4020   46.2710 C   0  0  0  0  0  0  0  0  0  0  0  0
   56.2678   33.0130   46.4906 H   0  0  0  0  0  0  0  0  0  0  0  0
   57.4780   34.2150   45.1520 C   0  0  0  0  0  0  0  0  0  0  0  0
   56.6346   34.4641   44.4913 H   0  0  0  0  0  0  0  0  0  0  0  0
   58.7540   34.7110   44.8730 C   0  0  0  0  0  0  0  0  0  0  0  0
   58.9137   35.3509   43.9926 H   0  0  0  0  0  0  0  0  0  0  0  0
   59.8280   34.3960   45.7100 C   0  0  0  0  0  0  0  0  0  0  0  0
   60.8292   34.7956   45.4910 H   0  0  0  0  0  0  0  0  0  0  0  0
   60.7060   31.7310   51.1440 C   0  0  0  0  0  0  0  0  0  0  0  0
   61.7175   31.3919   50.8759 H   0  0  0  0  0  0  0  0  0  0  0  0
   60.7124   32.2776   52.0985 H   0  0  0  0  0  0  0  0  0  0  0  0
   59.7990   30.5080   51.3020 C   0  0  0  0  0  0  0  0  0  0  0  0
   59.8417   29.8970   50.3883 H   0  0  0  0  0  0  0  0  0  0  0  0
   60.1363   29.9039   52.1572 H   0  0  0  0  0  0  0  0  0  0  0  0
   55.7760   29.0680   52.9610 N   0  0  0  0  0  0  0  0  0  0  0  0
   56.3140   28.1980   53.1720 H   0  0  0  0  0  0  0  0  0  0  0  0
  1  2  1  0
  2  3  1  0
  2  4  2  0
  4  5  1  0
  5  6  2  0
  6  7  1  0
  6  8  1  0
  8  9  1  0
  9 10  1  0
 10 11  2  0
 10 12  1  0
 12 13  1  0
 13 14  1  0
  5 15  1  0
 15 16  1  0
 15 17  2  0
 17 18  1  0
 18 19  2  0
 18 20  1  0
 20 21  1  0
 21 22  1  0
 21 23  1  0
 21 24  1  0
 24 25  1  0
 24 26  1  0
 24 27  1  0
 27 28  1  0
 28 29  1  0
 28 30  1  0
 28 31  1  0
 31 32  1  0
 31 33  1  0
 31 34  1  0
 34 35  2  0
 35 36  1  0
 35 37  1  0
 37 38  1  0
 37 39  2  0
 39 40  1  0
 39 41  1  0
 41 42  1  0
 41 43  2  0
 43 44  1  0
 27 45  1  0
 45 46  1  0
 45 47  1  0
 45 48  1  0
 48 49  1  0
 48 50  1  0
 17 51  1  0
 51 52  1  0
 51  4  1  0
 13  8  2  0
 48 20  1  0
 43 34  1  0
M  CHG  3   9  -1  12  -1  14  -1
M  END
>  <UniqueID>  (72) 
66

>  <SMILES>  (72) 
C=c1[nH]c(C(=O)N2CCN(CCc3ccccc3)CC2)c/c1=C\c1[n-]c(=O)[n-]c1[O-]

>  <Energy>  (72) 
123.24203070886031

>  <Genealogy>  (72) 
C=c1[nH]c(C(=O)N2CCN(CCc3ccccc3)CC2)cc1=Cc1[n-]c(=O)[n-]c1[O-] (protonated)
C=c1[nH]c(C(=O)N2CCN(CCc3ccccc3)CC2)c/c1=C\c1[n-]c(=O)[n-]c1[O-] (cis-trans isomerization)
C=c1[nH]c(C(=O)N2CCN(CCc3ccccc3)CC2)c/c1=C\c1[n-]c(=O)[n-]c1[O-] (3D coordinates assigned)
C=c1[nH]c(C(=O)N2CCN(CCc3ccccc3)CC2)c/c1=C\c1[n-]c(=O)[n-]c1[O-] (nonaromatic ring conformer: 123.24203070886031 kcal/mol)

>  <smiles>  (72) 
C=c1[nH]c(C(=O)N2CCN(CCc3ccccc3)CC2)cc1=Cc1[nH]c(=O)[nH]c1O

>  <score_type>  (72) 
oracle

>  <origin>  (72) 
adg

>  <m_score__min__energy>  (72) 
-18.84

>  <m_primary>  (72) 
energy

$$$$
72:0
     RDKit          3D

 41 43  0  0  0  0  0  0  0  0999 V2000
   55.5900   30.0700   43.5690 C   0  0  0  0  0  0  0  0  0  0  0  0
   56.5070   29.6490   44.3920 C   0  0  0  0  0  0  0  0  0  0  0  0
   57.4290   29.2280   45.2130 C   0  0  0  0  0  0  0  0  0  0  0  0
   57.2680   27.9600   45.9470 C   0  0  0  0  0  0  0  0  0  0  0  0
   56.3890   27.0040   45.5890 N   0  0  0  0  0  0  0  0  0  0  0  0
   56.5230   26.0730   46.5540 C   0  0  0  0  0  0  0  0  0  0  0  0
   55.8540   25.0070   46.5690 O   0  0  0  0  0  0  0  0  0  0  0  0
   57.4290   26.3770   47.5050 N   0  0  0  0  0  0  0  0  0  0  0  0
   57.9070   27.5740   47.1180 C   0  0  0  0  0  0  0  0  0  0  0  0
   58.9560   28.3000   47.8630 C   0  0  0  0  0  0  0  0  0  0  0  0
   60.1410   28.3120   47.4370 O   0  0  0  0  0  0  0  0  0  0  0  0
   58.6270   28.9940   49.0770 N   0  0  0  0  0  0  0  0  0  0  0  0
   59.5390   29.9570   49.6990 C   0  0  0  0  0  0  0  0  0  0  0  0
   58.8020   30.8220   50.6850 C   0  0  0  0  0  0  0  0  0  0  0  0
   59.3960   31.9770   51.2130 C   0  0  0  0  0  0  0  0  0  0  0  0
   58.6700   32.7750   52.1000 C   0  0  0  0  0  0  0  0  0  0  0  0
   57.3610   32.4270   52.4430 C   0  0  0  0  0  0  0  0  0  0  0  0
   56.7870   31.2770   51.8830 C   0  0  0  0  0  0  0  0  0  0  0  0
   55.4080   30.8670   52.2000 C   0  0  0  0  0  0  0  0  0  0  0  0
   54.3910   30.9960   51.3200 N   0  0  0  0  0  0  0  0  0  0  0  0
   53.3310   30.5150   51.9900 C   0  0  0  0  0  0  0  0  0  0  0  0
   51.9350   30.5100   51.4510 C   0  0  0  0  0  0  0  0  0  0  0  0
   51.4620   31.9150   51.2490 C   0  0  0  0  0  0  0  0  0  0  0  0
   51.0330   32.3440   49.9590 N   0  0  0  0  0  0  0  0  0  0  0  0
   51.4030   32.7070   52.2260 O   0  0  0  0  0  0  0  0  0  0  0  0
   53.7160   30.1250   53.2520 C   0  0  0  0  0  0  0  0  0  0  0  0
   55.0360   30.3430   53.3900 N   0  0  0  0  0  0  0  0  0  0  0  0
   57.5180   30.5190   51.0230 N   0  0  0  0  0  0  0  0  0  0  0  0
   54.6555   30.4991   43.9596 H   0  0  0  0  0  0  0  0  0  0  0  0
   55.7499   29.9966   42.4832 H   0  0  0  0  0  0  0  0  0  0  0  0
   58.3394   29.8277   45.3596 H   0  0  0  0  0  0  0  0  0  0  0  0
   57.6620   28.9120   49.4680 H   0  0  0  0  0  0  0  0  0  0  0  0
   60.3383   29.4121   50.2226 H   0  0  0  0  0  0  0  0  0  0  0  0
   59.9672   30.5983   48.9146 H   0  0  0  0  0  0  0  0  0  0  0  0
   60.4233   32.2519   50.9316 H   0  0  0  0  0  0  0  0  0  0  0  0
   59.1290   33.6780   52.5288 H   0  0  0  0  0  0  0  0  0  0  0  0
   56.7866   33.0490   53.1453 H   0  0  0  0  0  0  0  0  0  0  0  0
   51.9175   29.9774   50.4887 H   0  0  0  0  0  0  0  0  0  0  0  0
   51.2718   30.0042   52.1681 H   0  0  0  0  0  0  0  0  0  0  0  0
   50.0250   32.3140   49.6910 H   0  0  0  0  0  0  0  0  0  0  0  0
   53.0529   29.7039   54.0220 H   0  0  0  0  0  0  0  0  0  0  0  0
  1  2  2  0
  2  3  2  0
  3  4  1  0
  4  5  1  0
  5  6  1  0
  6  7  2  0
  6  8  1  0
  8  9  1  0
  9 10  1  0
 10 11  2  0
 10 12  1  0
 12 13  1  0
 13 14  1  0
 14 15  2  0
 15 16  1  0
 16 17  2  0
 17 18  1  0
 18 19  1  0
 19 20  2  0
 20 21  1  0
 21 22  1  0
 22 23  1  0
 23 24  1  0
 23 25  2  0
 21 26  2  0
 26 27  1  0
 18 28  2  0
  9  4  2  0
 28 14  1  0
 27 19  1  0
  1 29  1  0
  1 30  1  0
  3 31  1  0
 12 32  1  0
 13 33  1  0
 13 34  1  0
 15 35  1  0
 16 36  1  0
 17 37  1  0
 22 38  1  0
 22 39  1  0
 24 40  1  0
 26 41  1  0
M  CHG  4   5  -1   8  -1  24  -1  27  -1
M  END
>  <UniqueID>  (73) 
67

>  <SMILES>  (73) 
C=C=Cc1[n-]c(=O)[n-]c1C(=O)NCc1cccc(-c2nc(CC([NH-])=O)c[n-]2)n1

>  <Energy>  (73) 
89.95267274783893

>  <Genealogy>  (73) 
C=C=Cc1[n-]c(=O)[n-]c1C(=O)NCc1cccc(-c2nc(CC([NH-])=O)c[n-]2)n1 (protonated)
C=C=Cc1[n-]c(=O)[n-]c1C(=O)NCc1cccc(-c2nc(CC([NH-])=O)c[n-]2)n1 (3D coordinates assigned)
C=C=Cc1[n-]c(=O)[n-]c1C(=O)NCc1cccc(-c2nc(CC([NH-])=O)c[n-]2)n1 (optimized conformer: 89.95267274783893 kcal/mol)

>  <smiles>  (73) 
C=C=Cc1[nH]c(=O)[nH]c1C(=O)NCc1cccc(-c2nc(CC(N)=O)c[nH]2)n1

>  <score_type>  (73) 
oracle

>  <origin>  (73) 
adg

>  <m_score__min__energy>  (73) 
-16.5

>  <m_primary>  (73) 
energy

$$$$
73:0
     RDKit          3D

 50 52  0  0  0  0  0  0  0  0999 V2000
   56.4496   32.4531   43.9920 H   0  0  0  0  0  0  0  0  0  0  0  0
   56.7990   31.6070   44.6020 C   0  0  0  0  0  0  0  0  0  0  0  0
   56.1630   30.4120   44.5270 N   0  0  0  0  0  0  0  0  0  0  0  0
   56.5810   29.3410   45.2530 C   0  0  0  0  0  0  0  0  0  0  0  0
   55.9220   28.2200   45.2330 N   0  0  0  0  0  0  0  0  0  0  0  0
   56.2750   27.0230   46.0030 C   0  0  0  0  0  0  0  0  0  0  0  0
   55.4253   26.3245   45.9914 H   0  0  0  0  0  0  0  0  0  0  0  0
   56.5108   27.3267   47.0336 H   0  0  0  0  0  0  0  0  0  0  0  0
   57.5060   26.3260   45.4050 C   0  0  0  0  0  0  0  0  0  0  0  0
   58.1033   27.0687   44.8558 H   0  0  0  0  0  0  0  0  0  0  0  0
   57.1537   25.5270   44.7361 H   0  0  0  0  0  0  0  0  0  0  0  0
   58.3640   25.7010   46.4630 C   0  0  0  0  0  0  0  0  0  0  0  0
   59.3520   26.3370   46.9200 O   0  0  0  0  0  0  0  0  0  0  0  0
   58.0230   24.4120   46.9860 N   0  0  0  0  0  0  0  0  0  0  0  0
   56.7640   23.7240   46.7190 C   0  0  0  0  0  0  0  0  0  0  0  0
   56.6247   22.9310   47.4685 H   0  0  0  0  0  0  0  0  0  0  0  0
   55.9504   24.4624   46.7724 H   0  0  0  0  0  0  0  0  0  0  0  0
   56.7500   23.1070   45.3470 C   0  0  0  0  0  0  0  0  0  0  0  0
   55.8600   23.5800   44.3680 C   0  0  0  0  0  0  0  0  0  0  0  0
   55.1684   24.4012   44.6073 H   0  0  0  0  0  0  0  0  0  0  0  0
   55.8500   23.0110   43.0910 C   0  0  0  0  0  0  0  0  0  0  0  0
   55.1531   23.3867   42.3273 H   0  0  0  0  0  0  0  0  0  0  0  0
   56.7250   21.9650   42.7840 C   0  0  0  0  0  0  0  0  0  0  0  0
   56.7134   21.5166   41.7796 H   0  0  0  0  0  0  0  0  0  0  0  0
   57.6140   21.4880   43.7500 C   0  0  0  0  0  0  0  0  0  0  0  0
   58.3037   20.6668   43.5052 H   0  0  0  0  0  0  0  0  0  0  0  0
   57.6270   22.0550   45.0290 C   0  0  0  0  0  0  0  0  0  0  0  0
   58.3263   21.6762   45.7890 H   0  0  0  0  0  0  0  0  0  0  0  0
   57.6800   29.4540   46.0400 N   0  0  0  0  0  0  0  0  0  0  0  0
   58.3470   30.6320   46.1590 C   0  0  0  0  0  0  0  0  0  0  0  0
   59.3470   30.6950   46.9230 O   0  0  0  0  0  0  0  0  0  0  0  0
   57.9000   31.7680   45.4540 C   0  0  0  0  0  0  0  0  0  0  0  0
   58.5380   33.0990   45.6240 C   0  0  0  0  0  0  0  0  0  0  0  0
   58.4360   33.9620   44.7090 O   0  0  0  0  0  0  0  0  0  0  0  0
   59.2980   33.4050   46.8060 N   0  0  0  0  0  0  0  0  0  0  0  0
   59.4340   32.6690   47.5340 H   0  0  0  0  0  0  0  0  0  0  0  0
   60.1600   34.5790   46.8960 C   0  0  0  0  0  0  0  0  0  0  0  0
   60.3197   34.9940   45.8899 H   0  0  0  0  0  0  0  0  0  0  0  0
   59.6811   35.3358   47.5346 H   0  0  0  0  0  0  0  0  0  0  0  0
   61.4840   34.1880   47.4920 C   0  0  0  0  0  0  0  0  0  0  0  0
   61.6570   34.1930   48.8850 C   0  0  0  0  0  0  0  0  0  0  0  0
   60.8338   34.5183   49.5381 H   0  0  0  0  0  0  0  0  0  0  0  0
   62.8720   33.7860   49.4460 C   0  0  0  0  0  0  0  0  0  0  0  0
   63.0052   33.7996   50.5378 H   0  0  0  0  0  0  0  0  0  0  0  0
   63.9170   33.3620   48.6200 C   0  0  0  0  0  0  0  0  0  0  0  0
   64.8734   33.0450   49.0614 H   0  0  0  0  0  0  0  0  0  0  0  0
   63.7460   33.3410   47.2320 C   0  0  0  0  0  0  0  0  0  0  0  0
   64.5677   33.0040   46.5829 H   0  0  0  0  0  0  0  0  0  0  0  0
   62.5340   33.7470   46.6680 C   0  0  0  0  0  0  0  0  0  0  0  0
   62.4011   33.7215   45.5764 H   0  0  0  0  0  0  0  0  0  0  0  0
  1  2  1  0
  2  3  1  0
  3  4  1  0
  4  5  2  0
  5  6  1  0
  6  7  1  0
  6  8  1  0
  6  9  1  0
  9 10  1  0
  9 11  1  0
  9 12  1  0
 12 13  2  0
 12 14  1  0
 14 15  1  0
 15 16  1  0
 15 17  1  0
 15 18  1  0
 18 19  2  0
 19 20  1  0
 19 21  1  0
 21 22  1  0
 21 23  2  0
 23 24  1  0
 23 25  1  0
 25 26  1  0
 25 27  2  0
 27 28  1  0
  4 29  1  0
 29 30  1  0
 30 31  2  0
 30 32  1  0
 32 33  1  0
 33 34  2  0
 33 35  1  0
 35 36  1  0
 35 37  1  0
 37 38  1  0
 37 39  1  0
 37 40  1  0
 40 41  2  0
 41 42  1  0
 41 43  1  0
 43 44  1  0
 43 45  2  0
 45 46  1  0
 45 47  1  0
 47 48  1  0
 47 49  2  0
 49 50  1  0
 32  2  2  0
 49 40  1  0
 27 18  1  0
M  CHG  3   3  -1  14  -1  29  -1
M  END
>  <UniqueID>  (74) 
68

>  <SMILES>  (74) 
O=C(CC/N=c1\[n-]cc(C(=O)NCc2ccccc2)c(=O)[n-]1)[N-]Cc1ccccc1

>  <Energy>  (74) 
49.399509344212376

>  <Genealogy>  (74) 
O=C(CCN=c1[n-]cc(C(=O)NCc2ccccc2)c(=O)[n-]1)[N-]Cc1ccccc1 (protonated)
O=C(CC/N=c1\[n-]cc(C(=O)NCc2ccccc2)c(=O)[n-]1)[N-]Cc1ccccc1 (cis-trans isomerization)
O=C(CC/N=c1\[n-]cc(C(=O)NCc2ccccc2)c(=O)[n-]1)[N-]Cc1ccccc1 (3D coordinates assigned)
O=C(CC/N=c1\[n-]cc(C(=O)NCc2ccccc2)c(=O)[n-]1)[N-]Cc1ccccc1 (optimized conformer: 49.399509344212376 kcal/mol)

>  <smiles>  (74) 
O=C(CCN=c1[nH]cc(C(=O)NCc2ccccc2)c(=O)[nH]1)NCc1ccccc1

>  <score_type>  (74) 
oracle

>  <origin>  (74) 
adg

>  <m_score__min__energy>  (74) 
-12.09

>  <m_primary>  (74) 
energy

$$$$
74:0
     RDKit          3D

 61 64  0  0  0  0  0  0  0  0999 V2000
   59.6920   27.4920   48.4340 C   0  0  0  0  0  0  0  0  0  0  0  0
   59.6440   28.5550   47.6190 C   0  0  0  0  0  0  0  0  0  0  0  0
   58.9900   28.6230   46.3790 C   0  0  0  0  0  0  0  0  0  0  0  0
   58.4410   27.6600   45.6110 C   0  0  0  0  0  0  0  0  0  0  0  0
   57.2320   26.8840   45.9380 C   0  0  0  0  0  0  0  0  0  0  0  0
   57.2330   25.6080   46.3680 N   0  0  0  0  0  0  0  0  0  0  0  0
   55.9220   25.2820   46.3790 C   0  0  0  0  0  0  0  0  0  0  0  0
   55.5090   24.1490   46.7420 O   0  0  0  0  0  0  0  0  0  0  0  0
   55.0910   26.2600   45.9590 N   0  0  0  0  0  0  0  0  0  0  0  0
   55.9380   27.2620   45.6690 C   0  0  0  0  0  0  0  0  0  0  0  0
   55.5420   28.4950   45.1640 O   0  0  0  0  0  0  0  0  0  0  0  0
   59.0410   29.9450   45.9840 C   0  0  0  0  0  0  0  0  0  0  0  0
   59.7870   30.6140   46.9290 C   0  0  0  0  0  0  0  0  0  0  0  0
   60.1940   32.0230   46.7830 C   0  0  0  0  0  0  0  0  0  0  0  0
   59.4140   32.8200   46.1970 O   0  0  0  0  0  0  0  0  0  0  0  0
   61.4770   32.4890   47.2450 N   0  0  0  0  0  0  0  0  0  0  0  0
   62.6720   31.6430   47.1180 C   0  0  0  0  0  0  0  0  0  0  0  0
   63.5020   31.6700   48.4110 C   0  0  0  0  0  0  0  0  0  0  0  0
   63.5100   33.0460   49.1360 C   0  0  0  0  0  0  0  0  0  0  0  0
   62.7600   32.9710   50.4610 C   0  0  0  0  0  0  0  0  0  0  0  0
   61.8260   33.7870   50.6970 O   0  0  0  0  0  0  0  0  0  0  0  0
   63.0680   31.9550   51.4440 N   0  0  0  0  0  0  0  0  0  0  0  0
   64.3560   31.2560   51.4310 C   0  0  0  0  0  0  0  0  0  0  0  0
   62.0850   31.6650   52.4960 C   0  0  0  0  0  0  0  0  0  0  0  0
   63.0160   34.1910   48.2200 C   0  0  0  0  0  0  0  0  0  0  0  0
   61.6370   33.9050   47.5990 C   0  0  0  0  0  0  0  0  0  0  0  0
   60.1460   29.7820   47.9390 N   0  0  0  0  0  0  0  0  0  0  0  0
   60.7520   30.1950   49.2210 C   0  0  0  0  0  0  0  0  0  0  0  0
   59.7140   30.7800   50.1530 C   0  0  0  0  0  0  0  0  0  0  0  0
   59.3550   32.1390   50.0280 C   0  0  0  0  0  0  0  0  0  0  0  0
   58.3880   32.6960   50.8680 C   0  0  0  0  0  0  0  0  0  0  0  0
   57.7720   31.9100   51.8440 C   0  0  0  0  0  0  0  0  0  0  0  0
   58.1310   30.5670   51.9930 C   0  0  0  0  0  0  0  0  0  0  0  0
   59.1010   30.0000   51.1580 C   0  0  0  0  0  0  0  0  0  0  0  0
   59.4600   28.7070   51.3640 F   0  0  0  0  0  0  0  0  0  0  0  0
   60.2375   27.5539   49.3872 H   0  0  0  0  0  0  0  0  0  0  0  0
   59.1858   26.5577   48.1497 H   0  0  0  0  0  0  0  0  0  0  0  0
   58.9395   27.4341   44.6568 H   0  0  0  0  0  0  0  0  0  0  0  0
   54.7720   28.5610   44.5110 H   0  0  0  0  0  0  0  0  0  0  0  0
   58.5755   30.3801   45.0873 H   0  0  0  0  0  0  0  0  0  0  0  0
   62.3607   30.6084   46.9113 H   0  0  0  0  0  0  0  0  0  0  0  0
   63.2907   32.0295   46.2947 H   0  0  0  0  0  0  0  0  0  0  0  0
   63.0898   30.9191   49.1011 H   0  0  0  0  0  0  0  0  0  0  0  0
   64.5424   31.4590   48.1227 H   0  0  0  0  0  0  0  0  0  0  0  0
   64.5541   33.2940   49.3776 H   0  0  0  0  0  0  0  0  0  0  0  0
   64.6863   31.0767   52.4648 H   0  0  0  0  0  0  0  0  0  0  0  0
   64.2458   30.2939   50.9092 H   0  0  0  0  0  0  0  0  0  0  0  0
   65.1026   31.8727   50.9092 H   0  0  0  0  0  0  0  0  0  0  0  0
   62.5521   31.8028   53.4823 H   0  0  0  0  0  0  0  0  0  0  0  0
   61.2292   32.3489   52.3968 H   0  0  0  0  0  0  0  0  0  0  0  0
   61.7375   30.6261   52.3968 H   0  0  0  0  0  0  0  0  0  0  0  0
   62.9488   35.1134   48.8155 H   0  0  0  0  0  0  0  0  0  0  0  0
   63.7368   34.2896   47.3950 H   0  0  0  0  0  0  0  0  0  0  0  0
   60.8569   34.1803   48.3240 H   0  0  0  0  0  0  0  0  0  0  0  0
   61.5497   34.4981   46.6767 H   0  0  0  0  0  0  0  0  0  0  0  0
   61.2108   29.3176   49.7002 H   0  0  0  0  0  0  0  0  0  0  0  0
   61.5099   30.9654   49.0160 H   0  0  0  0  0  0  0  0  0  0  0  0
   59.8401   32.7640   49.2637 H   0  0  0  0  0  0  0  0  0  0  0  0
   58.1114   33.7552   50.7605 H   0  0  0  0  0  0  0  0  0  0  0  0
   57.0028   32.3483   52.4969 H   0  0  0  0  0  0  0  0  0  0  0  0
   57.6496   29.9538   52.7690 H   0  0  0  0  0  0  0  0  0  0  0  0
  1  2  2  0
  2  3  1  0
  3  4  2  3
  4  5  1  0
  5  6  1  0
  6  7  1  0
  7  8  2  0
  7  9  1  0
  9 10  1  0
 10 11  1  0
  3 12  1  0
 12 13  2  0
 13 14  1  0
 14 15  2  0
 14 16  1  0
 16 17  1  0
 17 18  1  0
 18 19  1  0
 19 20  1  0
 20 21  2  0
 20 22  1  0
 22 23  1  0
 22 24  1  0
 19 25  1  0
 25 26  1  0
 13 27  1  0
 27 28  1  0
 28 29  1  0
 29 30  2  0
 30 31  1  0
 31 32  2  0
 32 33  1  0
 33 34  2  0
 34 35  1  0
 27  2  1  0
 34 29  1  0
 10  5  2  0
 26 16  1  0
  1 36  1  0
  1 37  1  0
  4 38  1  0
 11 39  1  0
 12 40  1  0
 17 41  1  0
 17 42  1  0
 18 43  1  0
 18 44  1  0
 19 45  1  0
 23 46  1  0
 23 47  1  0
 23 48  1  0
 24 49  1  0
 24 50  1  0
 24 51  1  0
 25 52  1  0
 25 53  1  0
 26 54  1  0
 26 55  1  0
 28 56  1  0
 28 57  1  0
 30 58  1  0
 31 59  1  0
 32 60  1  0
 33 61  1  0
M  CHG  2   6  -1   9  -1
M  END
>  <UniqueID>  (75) 
69

>  <SMILES>  (75) 
C=c1c(=Cc2[n-]c(=O)[n-]c2O)cc(C(=O)N2CCC(C(=O)N(C)C)CC2)n1Cc1ccccc1F

>  <Energy>  (75) 
139.8563791577208

>  <Genealogy>  (75) 
C=c1c(=Cc2[n-]c(=O)[n-]c2O)cc(C(=O)N2CCC(C(=O)N(C)C)CC2)n1Cc1ccccc1F (protonated)
C=c1c(=Cc2[n-]c(=O)[n-]c2O)cc(C(=O)N2CCC(C(=O)N(C)C)CC2)n1Cc1ccccc1F (3D coordinates assigned)
C=c1c(=Cc2[n-]c(=O)[n-]c2O)cc(C(=O)N2CCC(C(=O)N(C)C)CC2)n1Cc1ccccc1F (nonaromatic ring conformer: 139.8563791577208 kcal/mol)

>  <smiles>  (75) 
C=c1c(=Cc2[nH]c(=O)[nH]c2O)cc(C(=O)N2CCC(C(=O)N(C)C)CC2)n1Cc1ccccc1F

>  <score_type>  (75) 
oracle

>  <origin>  (75) 
adg

>  <m_score__min__energy>  (75) 
-13.16

>  <m_primary>  (75) 
energy

$$$$
75:0
     RDKit          3D

 42 44  0  0  0  0  0  0  0  0999 V2000
   55.7187   30.6477   42.9670 H   0  0  0  0  0  0  0  0  0  0  0  0
   56.5380   30.5000   43.6860 C   0  0  0  0  0  0  0  0  0  0  0  0
   57.4060   31.5020   43.8930 C   0  0  0  0  0  0  0  0  0  0  0  0
   57.7813   32.0532   43.0182 H   0  0  0  0  0  0  0  0  0  0  0  0
   57.8880   31.9080   45.2370 C   0  0  0  0  0  0  0  0  0  0  0  0
   57.4200   33.1120   45.7810 C   0  0  0  0  0  0  0  0  0  0  0  0
   56.7195   33.7336   45.2040 H   0  0  0  0  0  0  0  0  0  0  0  0
   57.8330   33.5310   47.0470 C   0  0  0  0  0  0  0  0  0  0  0  0
   57.4634   34.4834   47.4548 H   0  0  0  0  0  0  0  0  0  0  0  0
   58.7190   32.7430   47.8050 C   0  0  0  0  0  0  0  0  0  0  0  0
   59.1490   33.1290   49.0880 O   0  0  0  0  0  0  0  0  0  0  0  0
   60.1530   34.1050   49.3670 C   0  0  0  0  0  0  0  0  0  0  0  0
   59.8298   35.0785   48.9697 H   0  0  0  0  0  0  0  0  0  0  0  0
   60.2945   34.1638   50.4563 H   0  0  0  0  0  0  0  0  0  0  0  0
   61.4630   33.7220   48.7300 C   0  0  0  0  0  0  0  0  0  0  0  0
   62.5410   33.2850   49.5190 C   0  0  0  0  0  0  0  0  0  0  0  0
   62.4275   33.2144   50.6109 H   0  0  0  0  0  0  0  0  0  0  0  0
   63.7560   32.9400   48.9220 C   0  0  0  0  0  0  0  0  0  0  0  0
   64.5939   32.5921   49.5439 H   0  0  0  0  0  0  0  0  0  0  0  0
   63.9090   33.0360   47.5360 C   0  0  0  0  0  0  0  0  0  0  0  0
   64.8659   32.7624   47.0675 H   0  0  0  0  0  0  0  0  0  0  0  0
   62.8450   33.4800   46.7460 C   0  0  0  0  0  0  0  0  0  0  0  0
   62.9659   33.5567   45.6554 H   0  0  0  0  0  0  0  0  0  0  0  0
   61.6270   33.8270   47.3390 C   0  0  0  0  0  0  0  0  0  0  0  0
   60.7948   34.1833   46.7141 H   0  0  0  0  0  0  0  0  0  0  0  0
   59.1900   31.5300   47.2700 C   0  0  0  0  0  0  0  0  0  0  0  0
   60.1130   30.6600   48.0780 C   0  0  0  0  0  0  0  0  0  0  0  0
   59.9326   30.8301   49.1497 H   0  0  0  0  0  0  0  0  0  0  0  0
   59.9247   29.6032   47.8377 H   0  0  0  0  0  0  0  0  0  0  0  0
   61.1568   30.9104   47.8377 H   0  0  0  0  0  0  0  0  0  0  0  0
   58.7640   31.1120   45.9980 C   0  0  0  0  0  0  0  0  0  0  0  0
   59.1189   30.1528   45.5930 H   0  0  0  0  0  0  0  0  0  0  0  0
   56.6440   29.2050   44.3900 C   0  0  0  0  0  0  0  0  0  0  0  0
   55.5550   28.6340   44.9750 N   0  0  0  0  0  0  0  0  0  0  0  0
   55.6290   27.4660   45.6160 N   0  0  0  0  0  0  0  0  0  0  0  0
   54.7640   27.0700   46.0470 H   0  0  0  0  0  0  0  0  0  0  0  0
   56.8060   26.7890   45.7160 C   0  0  0  0  0  0  0  0  0  0  0  0
   56.8500   25.6870   46.3280 O   0  0  0  0  0  0  0  0  0  0  0  0
   57.9590   27.3260   45.1360 C   0  0  0  0  0  0  0  0  0  0  0  0
   59.0620   26.7200   45.2140 O   0  0  0  0  0  0  0  0  0  0  0  0
   57.8760   28.5470   44.4670 C   0  0  0  0  0  0  0  0  0  0  0  0
   58.7710   28.9884   44.0042 H   0  0  0  0  0  0  0  0  0  0  0  0
  1  2  1  0
  2  3  2  0
  3  4  1  0
  3  5  1  0
  5  6  2  0
  6  7  1  0
  6  8  1  0
  8  9  1  0
  8 10  2  0
 10 11  1  0
 11 12  1  0
 12 13  1  0
 12 14  1  0
 12 15  1  0
 15 16  2  0
 16 17  1  0
 16 18  1  0
 18 19  1  0
 18 20  2  0
 20 21  1  0
 20 22  1  0
 22 23  1  0
 22 24  2  0
 24 25  1  0
 10 26  1  0
 26 27  1  0
 27 28  1  0
 27 29  1  0
 27 30  1  0
 26 31  2  0
 31 32  1  0
  2 33  1  0
 33 34  1  0
 34 35  1  0
 35 36  1  0
 35 37  1  0
 37 38  2  0
 37 39  1  0
 39 40  2  0
 39 41  1  0
 41 42  1  0
 31  5  1  0
 41 33  2  0
 24 15  1  0
M  CHG  1  34  -1
M  END
>  <UniqueID>  (76) 
70

>  <SMILES>  (76) 
Cc1cc(/C=C/c2cc(=O)c(=O)[nH][n-]2)ccc1OCc1ccccc1

>  <Energy>  (76) 
47.777427981275935

>  <Genealogy>  (76) 
Cc1cc(C=Cc2cc(=O)c(=O)[nH][n-]2)ccc1OCc1ccccc1 (protonated)
Cc1cc(/C=C/c2cc(=O)c(=O)[nH][n-]2)ccc1OCc1ccccc1 (cis-trans isomerization)
Cc1cc(/C=C/c2cc(=O)c(=O)[nH][n-]2)ccc1OCc1ccccc1 (3D coordinates assigned)
Cc1cc(/C=C/c2cc(=O)c(=O)[nH][n-]2)ccc1OCc1ccccc1 (optimized conformer: 47.777427981275935 kcal/mol)

>  <smiles>  (76) 
Cc1cc(C=Cc2cc(=O)c(=O)[nH][nH]2)ccc1OCc1ccccc1

>  <score_type>  (76) 
oracle

>  <origin>  (76) 
adg

>  <m_score__min__energy>  (76) 
-11.24

>  <m_primary>  (76) 
energy

$$$$
76:0
     RDKit          3D

 63 66  0  0  0  0  0  0  0  0999 V2000
   61.6320   30.0250   50.8440 O   0  0  0  0  0  0  0  0  0  0  0  0
   60.9920   29.6380   49.8300 C   0  0  0  0  0  0  0  0  0  0  0  0
   59.7850   28.7540   50.0140 C   0  0  0  0  0  0  0  0  0  0  0  0
   59.0260   28.5870   48.7310 C   0  0  0  0  0  0  0  0  0  0  0  0
   58.1770   29.4540   48.3820 O   0  0  0  0  0  0  0  0  0  0  0  0
   59.3680   27.5110   47.8470 N   0  0  0  0  0  0  0  0  0  0  0  0
   59.1760   27.5050   46.4240 C   0  0  0  0  0  0  0  0  0  0  0  0
   60.0690   28.1790   45.5690 C   0  0  0  0  0  0  0  0  0  0  0  0
   59.8420   28.2090   44.1910 C   0  0  0  0  0  0  0  0  0  0  0  0
   58.7160   27.5810   43.6530 C   0  0  0  0  0  0  0  0  0  0  0  0
   57.8140   26.9250   44.4920 C   0  0  0  0  0  0  0  0  0  0  0  0
   58.0400   26.8730   45.8760 C   0  0  0  0  0  0  0  0  0  0  0  0
   57.1020   26.1120   46.7220 C   0  0  0  0  0  0  0  0  0  0  0  0
   57.5250   25.5830   47.7850 O   0  0  0  0  0  0  0  0  0  0  0  0
   55.7040   26.0240   46.4110 N   0  0  0  0  0  0  0  0  0  0  0  0
   55.0130   24.8350   45.9080 C   0  0  0  0  0  0  0  0  0  0  0  0
   55.9670   23.9170   45.1910 C   0  0  0  0  0  0  0  0  0  0  0  0
   55.8710   23.7340   43.8000 C   0  0  0  0  0  0  0  0  0  0  0  0
   56.7340   22.8510   43.1440 C   0  0  0  0  0  0  0  0  0  0  0  0
   57.7050   22.1540   43.8690 C   0  0  0  0  0  0  0  0  0  0  0  0
   57.8170   22.3390   45.2500 C   0  0  0  0  0  0  0  0  0  0  0  0
   56.9520   23.2180   45.9100 C   0  0  0  0  0  0  0  0  0  0  0  0
   61.4790   30.0020   48.5310 N   0  0  0  0  0  0  0  0  0  0  0  0
   61.5580   31.3250   47.9840 C   0  0  0  0  0  0  0  0  0  0  0  0
   62.7690   32.0390   47.9480 C   0  0  0  0  0  0  0  0  0  0  0  0
   62.8180   33.3100   47.3670 C   0  0  0  0  0  0  0  0  0  0  0  0
   61.6680   33.8660   46.8000 C   0  0  0  0  0  0  0  0  0  0  0  0
   60.4640   33.1480   46.7990 C   0  0  0  0  0  0  0  0  0  0  0  0
   59.0200   33.8320   46.0440 S   0  0  0  0  0  0  0  0  0  0  0  0
   59.4360   34.7510   44.9270 O   0  0  0  0  0  0  0  0  0  0  0  0
   58.2710   34.6480   47.0610 O   0  0  0  0  0  0  0  0  0  0  0  0
   57.9670   32.5910   45.4110 N   0  0  0  0  0  0  0  0  0  0  0  0
   58.1830   31.3200   46.1220 C   0  0  0  0  0  0  0  0  0  0  0  0
   57.3820   30.1800   45.4510 C   0  0  0  0  0  0  0  0  0  0  0  0
   56.5120   30.6810   44.4520 O   0  0  0  0  0  0  0  0  0  0  0  0
   57.2670   31.2980   43.4250 C   0  0  0  0  0  0  0  0  0  0  0  0
   58.1890   32.4100   43.9690 C   0  0  0  0  0  0  0  0  0  0  0  0
   60.4150   31.8770   47.3900 C   0  0  0  0  0  0  0  0  0  0  0  0
   60.1160   27.7654   50.3649 H   0  0  0  0  0  0  0  0  0  0  0  0
   59.1189   29.2277   50.7502 H   0  0  0  0  0  0  0  0  0  0  0  0
   60.9509   28.6851   45.9888 H   0  0  0  0  0  0  0  0  0  0  0  0
   60.5507   28.7277   43.5287 H   0  0  0  0  0  0  0  0  0  0  0  0
   58.5402   27.6036   42.5674 H   0  0  0  0  0  0  0  0  0  0  0  0
   56.9204   26.4457   44.0657 H   0  0  0  0  0  0  0  0  0  0  0  0
   54.5632   24.2957   46.7546 H   0  0  0  0  0  0  0  0  0  0  0  0
   54.2366   25.1560   45.1980 H   0  0  0  0  0  0  0  0  0  0  0  0
   55.1138   24.2879   43.2257 H   0  0  0  0  0  0  0  0  0  0  0  0
   56.6489   22.7047   42.0571 H   0  0  0  0  0  0  0  0  0  0  0  0
   58.3823   21.4586   43.3517 H   0  0  0  0  0  0  0  0  0  0  0  0
   58.5852   21.7934   45.8176 H   0  0  0  0  0  0  0  0  0  0  0  0
   57.0430   23.3629   46.9966 H   0  0  0  0  0  0  0  0  0  0  0  0
   63.6798   31.5967   48.3779 H   0  0  0  0  0  0  0  0  0  0  0  0
   63.7630   33.8729   47.3562 H   0  0  0  0  0  0  0  0  0  0  0  0
   61.7077   34.8703   46.3530 H   0  0  0  0  0  0  0  0  0  0  0  0
   59.2542   31.0709   46.1004 H   0  0  0  0  0  0  0  0  0  0  0  0
   57.8399   31.4314   47.1612 H   0  0  0  0  0  0  0  0  0  0  0  0
   58.0855   29.4707   44.9906 H   0  0  0  0  0  0  0  0  0  0  0  0
   56.7754   29.6818   46.2216 H   0  0  0  0  0  0  0  0  0  0  0  0
   57.8859   30.5338   42.9321 H   0  0  0  0  0  0  0  0  0  0  0  0
   56.5623   31.7589   42.7173 H   0  0  0  0  0  0  0  0  0  0  0  0
   59.2384   32.1299   43.7949 H   0  0  0  0  0  0  0  0  0  0  0  0
   57.9615   33.3523   43.4490 H   0  0  0  0  0  0  0  0  0  0  0  0
   59.4727   31.3094   47.3873 H   0  0  0  0  0  0  0  0  0  0  0  0
  1  2  2  0
  2  3  1  0
  3  4  1  0
  4  5  2  0
  4  6  1  0
  6  7  1  0
  7  8  2  0
  8  9  1  0
  9 10  2  0
 10 11  1  0
 11 12  2  0
 12 13  1  0
 13 14  2  0
 13 15  1  0
 15 16  1  0
 16 17  1  0
 17 18  2  0
 18 19  1  0
 19 20  2  0
 20 21  1  0
 21 22  2  0
  2 23  1  0
 23 24  1  0
 24 25  2  0
 25 26  1  0
 26 27  2  0
 27 28  1  0
 28 29  1  0
 29 30  2  0
 29 31  2  0
 29 32  1  0
 32 33  1  0
 33 34  1  0
 34 35  1  0
 35 36  1  0
 36 37  1  0
 28 38  2  0
 12  7  1  0
 22 17  1  0
 38 24  1  0
 37 32  1  0
  3 39  1  0
  3 40  1  0
  8 41  1  0
  9 42  1  0
 10 43  1  0
 11 44  1  0
 16 45  1  0
 16 46  1  0
 18 47  1  0
 19 48  1  0
 20 49  1  0
 21 50  1  0
 22 51  1  0
 25 52  1  0
 26 53  1  0
 27 54  1  0
 33 55  1  0
 33 56  1  0
 34 57  1  0
 34 58  1  0
 36 59  1  0
 36 60  1  0
 37 61  1  0
 37 62  1  0
 38 63  1  0
M  CHG  3   6  -1  15  -1  23  -1
M  END
>  <UniqueID>  (77) 
71

>  <SMILES>  (77) 
O=C(CC(=O)[N-]c1ccccc1C(=O)[N-]Cc1ccccc1)[N-]c1cccc(S(=O)(=O)N2CCOCC2)c1

>  <Energy>  (77) 
83.91310385001508

>  <Genealogy>  (77) 
O=C(CC(=O)[N-]c1ccccc1C(=O)[N-]Cc1ccccc1)[N-]c1cccc(S(=O)(=O)N2CCOCC2)c1 (protonated)
O=C(CC(=O)[N-]c1ccccc1C(=O)[N-]Cc1ccccc1)[N-]c1cccc(S(=O)(=O)N2CCOCC2)c1 (3D coordinates assigned)
O=C(CC(=O)[N-]c1ccccc1C(=O)[N-]Cc1ccccc1)[N-]c1cccc(S(=O)(=O)N2CCOCC2)c1 (nonaromatic ring conformer: 83.91310385001508 kcal/mol)

>  <smiles>  (77) 
O=C(CC(=O)Nc1ccccc1C(=O)NCc1ccccc1)Nc1cccc(S(=O)(=O)N2CCOCC2)c1

>  <score_type>  (77) 
oracle

>  <origin>  (77) 
adg

>  <m_score__min__energy>  (77) 
-15.33

>  <m_primary>  (77) 
energy

$$$$
77:0
     RDKit          3D

 68 72  0  0  0  0  0  0  0  0999 V2000
   59.5490   33.6180   49.3560 C   0  0  0  0  0  0  0  0  0  0  0  0
   59.3590   32.5420   48.5720 C   0  0  0  0  0  0  0  0  0  0  0  0
   59.5580   32.4400   47.1790 C   0  0  0  0  0  0  0  0  0  0  0  0
   59.7850   33.4880   46.3340 C   0  0  0  0  0  0  0  0  0  0  0  0
   61.1440   33.8250   46.0110 N   0  0  0  0  0  0  0  0  0  0  0  0
   62.5560   33.6180   47.0020 S   0  0  0  0  0  0  0  0  0  0  0  0
   63.7610   34.2470   46.3630 O   0  0  0  0  0  0  0  0  0  0  0  0
   62.3130   34.2940   48.3230 O   0  0  0  0  0  0  0  0  0  0  0  0
   62.8620   31.8800   47.2830 C   0  0  0  0  0  0  0  0  0  0  0  0
   63.0450   31.6120   48.7510 C   0  0  0  0  0  0  0  0  0  0  0  0
   62.0940   30.8620   49.4640 C   0  0  0  0  0  0  0  0  0  0  0  0
   62.2450   30.6560   50.8380 C   0  0  0  0  0  0  0  0  0  0  0  0
   63.3410   31.2010   51.5120 C   0  0  0  0  0  0  0  0  0  0  0  0
   64.2920   31.9490   50.8110 C   0  0  0  0  0  0  0  0  0  0  0  0
   64.1460   32.1540   49.4360 C   0  0  0  0  0  0  0  0  0  0  0  0
   58.6740   34.3280   45.7530 C   0  0  0  0  0  0  0  0  0  0  0  0
   57.9370   33.6640   44.5920 C   0  0  0  0  0  0  0  0  0  0  0  0
   57.2610   33.7860   45.9380 C   0  0  0  0  0  0  0  0  0  0  0  0
   59.3780   31.1230   46.8270 N   0  0  0  0  0  0  0  0  0  0  0  0
   59.1530   30.5220   45.4920 C   0  0  0  0  0  0  0  0  0  0  0  0
   57.7630   29.8600   45.3370 C   0  0  2  0  0  0  0  0  0  0  0  0
   57.7010   28.8330   44.2010 C   0  0  0  0  0  0  0  0  0  0  0  0
   56.6460   29.3680   43.2780 C   0  0  0  0  0  0  0  0  0  0  0  0
   55.9100   30.3680   44.1380 C   0  0  0  0  0  0  0  0  0  0  0  0
   56.8040   30.8670   45.0990 O   0  0  0  0  0  0  0  0  0  0  0  0
   59.0200   30.5090   47.9820 C   0  0  0  0  0  0  0  0  0  0  0  0
   58.6520   29.3050   48.0490 O   0  0  0  0  0  0  0  0  0  0  0  0
   59.0300   31.3220   49.0530 N   0  0  0  0  0  0  0  0  0  0  0  0
   58.6630   30.9430   50.4230 C   0  0  0  0  0  0  0  0  0  0  0  0
   57.6500   31.9350   50.9970 C   0  0  0  0  0  0  0  0  0  0  0  0
   58.1770   32.5530   52.2670 C   0  0  0  0  0  0  0  0  0  0  0  0
   58.3740   33.9420   52.3390 C   0  0  0  0  0  0  0  0  0  0  0  0
   58.9040   34.5190   53.4970 C   0  0  0  0  0  0  0  0  0  0  0  0
   59.2470   33.7140   54.5870 C   0  0  0  0  0  0  0  0  0  0  0  0
   59.0630   32.3300   54.5200 C   0  0  0  0  0  0  0  0  0  0  0  0
   58.5370   31.7460   53.3640 C   0  0  0  0  0  0  0  0  0  0  0  0
   58.3810   30.3980   53.3130 F   0  0  0  0  0  0  0  0  0  0  0  0
   59.3520   33.5531   50.4363 H   0  0  0  0  0  0  0  0  0  0  0  0
   59.9014   34.5630   48.9170 H   0  0  0  0  0  0  0  0  0  0  0  0
   62.0067   31.2965   46.9117 H   0  0  0  0  0  0  0  0  0  0  0  0
   63.7784   31.5876   46.7494 H   0  0  0  0  0  0  0  0  0  0  0  0
   61.2271   30.4353   48.9383 H   0  0  0  0  0  0  0  0  0  0  0  0
   61.5000   30.0639   51.3897 H   0  0  0  0  0  0  0  0  0  0  0  0
   63.4557   31.0416   52.5943 H   0  0  0  0  0  0  0  0  0  0  0  0
   65.1555   32.3763   51.3419 H   0  0  0  0  0  0  0  0  0  0  0  0
   64.8964   32.7423   48.8875 H   0  0  0  0  0  0  0  0  0  0  0  0
   59.1589   35.2982   45.9359 H   0  0  0  0  0  0  0  0  0  0  0  0
   57.5869   34.2714   43.7444 H   0  0  0  0  0  0  0  0  0  0  0  0
   58.1574   32.8325   43.9064 H   0  0  0  0  0  0  0  0  0  0  0  0
   56.4189   34.4817   46.0683 H   0  0  0  0  0  0  0  0  0  0  0  0
   56.7867   33.0789   46.6345 H   0  0  0  0  0  0  0  0  0  0  0  0
   59.2478   31.3134   44.7339 H   0  0  0  0  0  0  0  0  0  0  0  0
   59.9042   29.7286   45.3647 H   0  0  0  0  0  0  0  0  0  0  0  0
   57.5576   29.3162   46.2709 H   0  0  0  0  0  0  0  0  0  0  0  0
   58.6704   28.7620   43.6860 H   0  0  0  0  0  0  0  0  0  0  0  0
   57.4708   27.8196   44.5615 H   0  0  0  0  0  0  0  0  0  0  0  0
   57.0987   29.8577   42.4032 H   0  0  0  0  0  0  0  0  0  0  0  0
   55.9906   28.5838   42.8713 H   0  0  0  0  0  0  0  0  0  0  0  0
   55.5376   31.1930   43.5129 H   0  0  0  0  0  0  0  0  0  0  0  0
   55.0541   29.8849   44.6320 H   0  0  0  0  0  0  0  0  0  0  0  0
   58.2196   29.9363   50.4142 H   0  0  0  0  0  0  0  0  0  0  0  0
   59.5666   30.9524   51.0502 H   0  0  0  0  0  0  0  0  0  0  0  0
   57.4626   32.7288   50.2589 H   0  0  0  0  0  0  0  0  0  0  0  0
   56.7164   31.3991   51.2231 H   0  0  0  0  0  0  0  0  0  0  0  0
   58.1103   34.5781   51.4812 H   0  0  0  0  0  0  0  0  0  0  0  0
   59.0512   35.6078   53.5503 H   0  0  0  0  0  0  0  0  0  0  0  0
   59.6620   34.1699   55.4980 H   0  0  0  0  0  0  0  0  0  0  0  0
   59.3329   31.6986   55.3794 H   0  0  0  0  0  0  0  0  0  0  0  0
  1  2  2  0
  2  3  1  0
  3  4  2  3
  4  5  1  0
  5  6  1  0
  6  7  2  0
  6  8  2  0
  6  9  1  0
  9 10  1  0
 10 11  2  0
 11 12  1  0
 12 13  2  0
 13 14  1  0
 14 15  2  0
  4 16  1  0
 16 17  1  0
 17 18  1  0
  3 19  1  0
 19 20  1  0
 20 21  1  0
 21 22  1  0
 22 23  1  0
 23 24  1  0
 24 25  1  0
 19 26  1  0
 26 27  2  0
 26 28  1  0
 28 29  1  0
 29 30  1  0
 30 31  1  0
 31 32  2  0
 32 33  1  0
 33 34  2  0
 34 35  1  0
 35 36  2  0
 36 37  1  0
 28  2  1  0
 36 31  1  0
 15 10  1  0
 18 16  1  0
 25 21  1  0
  1 38  1  0
  1 39  1  0
  9 40  1  0
  9 41  1  0
 11 42  1  0
 12 43  1  0
 13 44  1  0
 14 45  1  0
 15 46  1  0
 16 47  1  0
 17 48  1  0
 17 49  1  0
 18 50  1  0
 18 51  1  0
 20 52  1  0
 20 53  1  0
 21 54  1  1
 22 55  1  0
 22 56  1  0
 23 57  1  0
 23 58  1  0
 24 59  1  0
 24 60  1  0
 29 61  1  0
 29 62  1  0
 30 63  1  0
 30 64  1  0
 32 65  1  0
 33 66  1  0
 34 67  1  0
 35 68  1  0
M  CHG  1   5  -1
M  END
>  <UniqueID>  (78) 
72

>  <SMILES>  (78) 
C=c1c(=C([N-]S(=O)(=O)Cc2ccccc2)C2CC2)n(C[C@@H]2CCCO2)c(=O)n1CCc1ccccc1F

>  <Energy>  (78) 
383.64997326877943

>  <Genealogy>  (78) 
C=c1c(=C([N-]S(=O)(=O)Cc2ccccc2)C2CC2)n(CC2CCCO2)c(=O)n1CCc1ccccc1F (protonated)
C=c1c(=C([N-]S(=O)(=O)Cc2ccccc2)C2CC2)n(C[C@@H]2CCCO2)c(=O)n1CCc1ccccc1F (chirality)
C=c1c(=C([N-]S(=O)(=O)Cc2ccccc2)C2CC2)n(C[C@@H]2CCCO2)c(=O)n1CCc1ccccc1F (3D coordinates assigned)
C=c1c(=C([N-]S(=O)(=O)Cc2ccccc2)C2CC2)n(C[C@@H]2CCCO2)c(=O)n1CCc1ccccc1F (nonaromatic ring conformer: 383.64997326877943 kcal/mol)

>  <smiles>  (78) 
C=c1c(=C(NS(=O)(=O)Cc2ccccc2)C2CC2)n(CC2CCCO2)c(=O)n1CCc1ccccc1F

>  <score_type>  (78) 
oracle

>  <origin>  (78) 
adg

>  <m_score__min__energy>  (78) 
-11.9

>  <m_primary>  (78) 
energy

$$$$
78:0
     RDKit          3D

 38 40  0  0  0  0  0  0  0  0999 V2000
   55.5810   30.4740   44.5160 O   0  0  0  0  0  0  0  0  0  0  0  0
   56.7470   30.0600   44.7320 C   0  0  0  0  0  0  0  0  0  0  0  0
   56.8630   28.6420   45.1970 C   0  0  0  0  0  0  0  0  0  0  0  0
   57.7720   27.9240   44.2460 C   0  0  0  0  0  0  0  0  0  0  0  0
   59.2410   27.3620   45.1550 S   0  0  0  0  0  0  0  0  0  0  0  0
   59.7920   28.7010   46.1960 C   0  0  0  0  0  0  0  0  0  0  0  0
   60.5910   29.7240   45.8490 N   0  0  0  0  0  0  0  0  0  0  0  0
   60.7660   30.5270   46.9370 C   0  0  0  0  0  0  0  0  0  0  0  0
   61.4700   31.6910   47.1640 C   0  0  0  0  0  0  0  0  0  0  0  0
   61.4060   32.2290   48.4340 C   0  0  0  0  0  0  0  0  0  0  0  0
   62.3530   33.8390   48.8260 Br  0  0  0  0  0  0  0  0  0  0  0  0
   60.6770   31.6420   49.4500 C   0  0  0  0  0  0  0  0  0  0  0  0
   59.9970   30.5010   49.2030 N   0  0  0  0  0  0  0  0  0  0  0  0
   60.0440   29.9610   47.9710 C   0  0  0  0  0  0  0  0  0  0  0  0
   59.4480   28.8400   47.5090 N   0  0  0  0  0  0  0  0  0  0  0  0
   57.9070   30.8600   44.5540 N   0  0  0  0  0  0  0  0  0  0  0  0
   57.8710   32.2380   44.1060 C   0  0  0  0  0  0  0  0  0  0  0  0
   58.3830   33.1910   45.1170 C   0  0  0  0  0  0  0  0  0  0  0  0
   58.0530   32.9930   46.4490 C   0  0  0  0  0  0  0  0  0  0  0  0
   58.4810   33.8280   47.4590 C   0  0  0  0  0  0  0  0  0  0  0  0
   59.2730   34.9120   47.1440 C   0  0  0  0  0  0  0  0  0  0  0  0
   59.6190   35.1350   45.8280 C   0  0  0  0  0  0  0  0  0  0  0  0
   59.1730   34.2730   44.8310 C   0  0  0  0  0  0  0  0  0  0  0  0
   57.2853   28.6140   46.2123 H   0  0  0  0  0  0  0  0  0  0  0  0
   55.8735   28.1621   45.2210 H   0  0  0  0  0  0  0  0  0  0  0  0
   57.2483   27.0571   43.8169 H   0  0  0  0  0  0  0  0  0  0  0  0
   58.0715   28.6002   43.4317 H   0  0  0  0  0  0  0  0  0  0  0  0
   62.0575   32.1704   46.3671 H   0  0  0  0  0  0  0  0  0  0  0  0
   60.6504   32.0990   50.4502 H   0  0  0  0  0  0  0  0  0  0  0  0
   58.8290   28.1710   48.0250 H   0  0  0  0  0  0  0  0  0  0  0  0
   58.8240   30.3800   44.7740 H   0  0  0  0  0  0  0  0  0  0  0  0
   58.4855   32.3271   43.1980 H   0  0  0  0  0  0  0  0  0  0  0  0
   56.8180   32.4942   43.9174 H   0  0  0  0  0  0  0  0  0  0  0  0
   57.4216   32.1314   46.7115 H   0  0  0  0  0  0  0  0  0  0  0  0
   58.1944   33.6321   48.5028 H   0  0  0  0  0  0  0  0  0  0  0  0
   59.6250   35.5916   47.9341 H   0  0  0  0  0  0  0  0  0  0  0  0
   60.2497   35.9972   45.5655 H   0  0  0  0  0  0  0  0  0  0  0  0
   59.4620   34.4651   43.7872 H   0  0  0  0  0  0  0  0  0  0  0  0
  1  2  2  0
  2  3  1  0
  3  4  1  0
  4  5  1  0
  5  6  1  0
  6  7  2  0
  7  8  1  0
  8  9  2  0
  9 10  1  0
 10 11  1  0
 10 12  2  0
 12 13  1  0
 13 14  2  0
 14 15  1  0
  2 16  1  0
 16 17  1  0
 17 18  1  0
 18 19  2  0
 19 20  1  0
 20 21  2  0
 21 22  1  0
 22 23  2  0
 15  6  1  0
 23 18  1  0
 14  8  1  0
  3 24  1  0
  3 25  1  0
  4 26  1  0
  4 27  1  0
  9 28  1  0
 12 29  1  0
 15 30  1  0
 16 31  1  0
 17 32  1  0
 17 33  1  0
 19 34  1  0
 20 35  1  0
 21 36  1  0
 22 37  1  0
 23 38  1  0
M  END
>  <smiles>  (79) 
O=C(CCSc1nc2cc(Br)cnc2[nH]1)NCc1ccccc1

>  <score_type>  (79) 
oracle

>  <origin>  (79) 
adg

>  <m_score__min__energy>  (79) 
-7.8499999999999996

>  <m_primary>  (79) 
energy

$$$$
79:0
     RDKit          3D

 49 52  0  0  0  0  0  0  0  0999 V2000
   60.8670   27.1060   49.1280 O   0  0  0  0  0  0  0  0  0  0  0  0
   59.9760   27.8410   48.6200 C   0  0  0  0  0  0  0  0  0  0  0  0
   58.9310   27.2610   47.8290 N   0  0  0  0  0  0  0  0  0  0  0  0
   58.5850   27.6140   46.4810 C   0  0  0  0  0  0  0  0  0  0  0  0
   58.6350   26.6810   45.4300 C   0  0  0  0  0  0  0  0  0  0  0  0
   58.2700   27.0600   44.1360 C   0  0  0  0  0  0  0  0  0  0  0  0
   57.8370   28.3640   43.8820 C   0  0  0  0  0  0  0  0  0  0  0  0
   57.7580   29.2940   44.9270 C   0  0  0  0  0  0  0  0  0  0  0  0
   57.2270   30.9460   44.6220 S   0  0  0  0  0  0  0  0  0  0  0  0
   57.8040   31.4360   43.3220 O   0  0  0  0  0  0  0  0  0  0  0  0
   55.7270   30.9560   44.5170 O   0  0  0  0  0  0  0  0  0  0  0  0
   57.7480   31.9680   45.9440 N   0  0  0  0  0  0  0  0  0  0  0  0
   57.0040   33.2420   45.9800 C   0  0  0  0  0  0  0  0  0  0  0  0
   57.4470   34.2260   44.8800 C   0  0  0  0  0  0  0  0  0  0  0  0
   58.9660   34.2220   44.6400 C   0  0  0  0  0  0  0  0  0  0  0  0
   59.7240   33.5520   45.7850 C   0  0  0  0  0  0  0  0  0  0  0  0
   59.2250   32.1120   45.9900 C   0  0  0  0  0  0  0  0  0  0  0  0
   58.1280   28.9140   46.2230 C   0  0  0  0  0  0  0  0  0  0  0  0
   60.0430   29.3120   48.7930 C   0  0  0  0  0  0  0  0  0  0  0  0
   58.9990   29.9950   49.4390 C   0  0  0  0  0  0  0  0  0  0  0  0
   59.0660   31.3800   49.5930 C   0  0  0  0  0  0  0  0  0  0  0  0
   60.1680   32.0840   49.1020 C   0  0  0  0  0  0  0  0  0  0  0  0
   60.2580   33.4780   49.2390 C   0  0  0  0  0  0  0  0  0  0  0  0
   61.3670   34.1620   48.7340 C   0  0  0  0  0  0  0  0  0  0  0  0
   62.3930   33.4600   48.0940 C   0  0  0  0  0  0  0  0  0  0  0  0
   62.3160   32.0710   47.9560 C   0  0  0  0  0  0  0  0  0  0  0  0
   61.2050   31.3720   48.4560 C   0  0  0  0  0  0  0  0  0  0  0  0
   61.1170   30.0160   48.3190 N   0  0  0  0  0  0  0  0  0  0  0  0
   58.9625   25.6496   45.6275 H   0  0  0  0  0  0  0  0  0  0  0  0
   58.3236   26.3300   43.3149 H   0  0  0  0  0  0  0  0  0  0  0  0
   57.5578   28.6608   42.8603 H   0  0  0  0  0  0  0  0  0  0  0  0
   55.9333   33.0271   45.8483 H   0  0  0  0  0  0  0  0  0  0  0  0
   57.2096   33.7172   46.9505 H   0  0  0  0  0  0  0  0  0  0  0  0
   56.9439   33.9507   43.9413 H   0  0  0  0  0  0  0  0  0  0  0  0
   57.1715   35.2368   45.2152 H   0  0  0  0  0  0  0  0  0  0  0  0
   59.1769   33.6776   43.7077 H   0  0  0  0  0  0  0  0  0  0  0  0
   59.3027   35.2672   44.5749 H   0  0  0  0  0  0  0  0  0  0  0  0
   60.7976   33.5327   45.5463 H   0  0  0  0  0  0  0  0  0  0  0  0
   59.5517   34.1236   46.7089 H   0  0  0  0  0  0  0  0  0  0  0  0
   59.6580   31.4810   45.1999 H   0  0  0  0  0  0  0  0  0  0  0  0
   59.5412   31.8082   46.9988 H   0  0  0  0  0  0  0  0  0  0  0  0
   58.0595   29.6414   47.0453 H   0  0  0  0  0  0  0  0  0  0  0  0
   58.1308   29.4391   49.8225 H   0  0  0  0  0  0  0  0  0  0  0  0
   58.2515   31.9173   50.1008 H   0  0  0  0  0  0  0  0  0  0  0  0
   59.4542   34.0330   49.7448 H   0  0  0  0  0  0  0  0  0  0  0  0
   61.4329   35.2549   48.8402 H   0  0  0  0  0  0  0  0  0  0  0  0
   63.2639   34.0026   47.6977 H   0  0  0  0  0  0  0  0  0  0  0  0
   63.1278   31.5239   47.4544 H   0  0  0  0  0  0  0  0  0  0  0  0
   61.8930   29.5100   47.8350 H   0  0  0  0  0  0  0  0  0  0  0  0
  1  2  2  0
  2  3  1  0
  3  4  1  0
  4  5  2  0
  5  6  1  0
  6  7  2  0
  7  8  1  0
  8  9  1  0
  9 10  2  0
  9 11  2  0
  9 12  1  0
 12 13  1  0
 13 14  1  0
 14 15  1  0
 15 16  1  0
 16 17  1  0
  8 18  2  0
  2 19  1  0
 19 20  2  0
 20 21  1  0
 21 22  2  0
 22 23  1  0
 23 24  2  0
 24 25  1  0
 25 26  2  0
 26 27  1  0
 27 28  2  0
 18  4  1  0
 28 19  1  0
 17 12  1  0
 27 22  1  0
  5 29  1  0
  6 30  1  0
  7 31  1  0
 13 32  1  0
 13 33  1  0
 14 34  1  0
 14 35  1  0
 15 36  1  0
 15 37  1  0
 16 38  1  0
 16 39  1  0
 17 40  1  0
 17 41  1  0
 18 42  1  0
 20 43  1  0
 21 44  1  0
 23 45  1  0
 24 46  1  0
 25 47  1  0
 26 48  1  0
 28 49  1  0
M  CHG  2   3  -1  28   1
M  END
>  <UniqueID>  (80) 
73

>  <SMILES>  (80) 
O=C([N-]c1cccc(S(=O)(=O)N2CCCCC2)c1)c1ccc2ccccc2[nH+]1

>  <Energy>  (80) 
66.94907293053407

>  <Genealogy>  (80) 
O=C([N-]c1cccc(S(=O)(=O)N2CCCCC2)c1)c1ccc2ccccc2[nH+]1 (protonated)
O=C([N-]c1cccc(S(=O)(=O)N2CCCCC2)c1)c1ccc2ccccc2[nH+]1 (3D coordinates assigned)
O=C([N-]c1cccc(S(=O)(=O)N2CCCCC2)c1)c1ccc2ccccc2[nH+]1 (nonaromatic ring conformer: 66.94907293053407 kcal/mol)

>  <smiles>  (80) 
O=C(Nc1cccc(S(=O)(=O)N2CCCCC2)c1)c1ccc2ccccc2n1

>  <score_type>  (80) 
oracle

>  <origin>  (80) 
adg

>  <m_score__min__energy>  (80) 
-10.369999999999999

>  <m_primary>  (80) 
energy

$$$$
80:0
     RDKit          3D

 51 54  0  0  0  0  0  0  0  0999 V2000
   54.1970   29.1120   54.2310 C   0  0  0  0  0  0  0  0  0  0  0  0
   54.9050   29.8680   53.3760 C   0  0  0  0  0  0  0  0  0  0  0  0
   54.3970   30.8130   52.4700 C   0  0  0  0  0  0  0  0  0  0  0  0
   53.1750   31.3670   52.3620 C   0  0  0  0  0  0  0  0  0  0  0  0
   52.3530   31.3980   51.1410 C   0  0  0  0  0  0  0  0  0  0  0  0
   52.3380   30.4350   50.2010 N   0  0  0  0  0  0  0  0  0  0  0  0
   51.3510   30.8290   49.3670 C   0  0  0  0  0  0  0  0  0  0  0  0
   51.0370   30.1820   48.3350 O   0  0  0  0  0  0  0  0  0  0  0  0
   50.7190   31.9650   49.7330 N   0  0  0  0  0  0  0  0  0  0  0  0
   51.3570   32.3020   50.8650 C   0  0  0  0  0  0  0  0  0  0  0  0
   51.0310   33.4130   51.6340 O   0  0  0  0  0  0  0  0  0  0  0  0
   55.4410   31.1270   51.6170 C   0  0  0  0  0  0  0  0  0  0  0  0
   56.5490   30.4370   52.0630 C   0  0  0  0  0  0  0  0  0  0  0  0
   57.8600   30.4460   51.3840 C   0  0  0  0  0  0  0  0  0  0  0  0
   58.4610   29.3550   51.1920 O   0  0  0  0  0  0  0  0  0  0  0  0
   58.4440   31.6730   50.9070 N   0  0  0  0  0  0  0  0  0  0  0  0
   58.3440   32.9360   51.6200 C   0  0  0  0  0  0  0  0  0  0  0  0
   59.4660   33.8080   51.0710 C   0  0  0  0  0  0  0  0  0  0  0  0
   59.8630   33.1820   49.7380 C   0  0  0  0  0  0  0  0  0  0  0  0
   59.4180   31.7200   49.8250 C   0  0  2  0  0  0  0  0  0  0  0  0
   58.8170   31.2370   48.5210 C   0  0  0  0  0  0  0  0  0  0  0  0
   58.3230   32.1500   47.5720 C   0  0  0  0  0  0  0  0  0  0  0  0
   57.7840   31.6950   46.3660 C   0  0  0  0  0  0  0  0  0  0  0  0
   57.7350   30.3230   46.0890 C   0  0  0  0  0  0  0  0  0  0  0  0
   57.0690   29.7540   44.5620 S   0  0  0  0  0  0  0  0  0  0  0  0
   55.5530   28.9760   44.8470 N   0  0  0  0  0  0  0  0  0  0  0  0
   58.0210   28.7820   43.9220 O   0  0  0  0  0  0  0  0  0  0  0  0
   56.8660   30.9150   43.6300 O   0  0  0  0  0  0  0  0  0  0  0  0
   58.2450   29.4100   47.0210 C   0  0  0  0  0  0  0  0  0  0  0  0
   58.7850   29.8640   48.2290 C   0  0  0  0  0  0  0  0  0  0  0  0
   56.2320   29.6890   53.1460 N   0  0  0  0  0  0  0  0  0  0  0  0
   57.1380   28.7880   53.8680 C   0  0  0  0  0  0  0  0  0  0  0  0
   54.7129   28.4029   54.8951 H   0  0  0  0  0  0  0  0  0  0  0  0
   53.1013   29.2019   54.2671 H   0  0  0  0  0  0  0  0  0  0  0  0
   52.7545   31.8369   53.2633 H   0  0  0  0  0  0  0  0  0  0  0  0
   55.3956   31.7996   50.7478 H   0  0  0  0  0  0  0  0  0  0  0  0
   57.3669   33.4056   51.4336 H   0  0  0  0  0  0  0  0  0  0  0  0
   58.4325   32.7969   52.7076 H   0  0  0  0  0  0  0  0  0  0  0  0
   59.1117   34.8384   50.9201 H   0  0  0  0  0  0  0  0  0  0  0  0
   60.3178   33.8572   51.7653 H   0  0  0  0  0  0  0  0  0  0  0  0
   59.3523   33.6906   48.9070 H   0  0  0  0  0  0  0  0  0  0  0  0
   60.9435   33.2696   49.5514 H   0  0  0  0  0  0  0  0  0  0  0  0
   60.2721   31.0541   50.0177 H   0  0  0  0  0  0  0  0  0  0  0  0
   58.3613   33.2293   47.7807 H   0  0  0  0  0  0  0  0  0  0  0  0
   57.3969   32.4167   45.6317 H   0  0  0  0  0  0  0  0  0  0  0  0
   54.9710   29.6380   45.4080 H   0  0  0  0  0  0  0  0  0  0  0  0
   58.2208   28.3323   46.8022 H   0  0  0  0  0  0  0  0  0  0  0  0
   59.1869   29.1412   48.9543 H   0  0  0  0  0  0  0  0  0  0  0  0
   57.0026   28.9227   54.9513 H   0  0  0  0  0  0  0  0  0  0  0  0
   56.9119   27.7462   53.5969 H   0  0  0  0  0  0  0  0  0  0  0  0
   58.1786   29.0199   53.5969 H   0  0  0  0  0  0  0  0  0  0  0  0
  1  2  2  0
  2  3  1  0
  3  4  2  3
  4  5  1  0
  5  6  1  0
  6  7  1  0
  7  8  2  0
  7  9  1  0
  9 10  1  0
 10 11  1  0
  3 12  1  0
 12 13  2  0
 13 14  1  0
 14 15  2  0
 14 16  1  0
 16 17  1  0
 17 18  1  0
 18 19  1  0
 19 20  1  0
 20 21  1  0
 21 22  2  0
 22 23  1  0
 23 24  2  0
 24 25  1  0
 25 26  1  0
 25 27  2  0
 25 28  2  0
 24 29  1  0
 29 30  2  0
 13 31  1  0
 31 32  1  0
 31  2  1  0
 10  5  2  0
 20 16  1  0
 30 21  1  0
  1 33  1  0
  1 34  1  0
  4 35  1  0
 12 36  1  0
 17 37  1  0
 17 38  1  0
 18 39  1  0
 18 40  1  0
 19 41  1  0
 19 42  1  0
 20 43  1  1
 22 44  1  0
 23 45  1  0
 26 46  1  0
 29 47  1  0
 30 48  1  0
 32 49  1  0
 32 50  1  0
 32 51  1  0
M  CHG  4   6  -1   9  -1  11  -1  26  -1
M  END
>  <UniqueID>  (81) 
74

>  <SMILES>  (81) 
C=c1c(=Cc2[n-]c(=O)[n-]c2[O-])cc(C(=O)N2CCC[C@@H]2c2ccc(S([NH-])(=O)=O)cc2)n1C

>  <Energy>  (81) 
127.5802228478628

>  <Genealogy>  (81) 
C=c1c(=Cc2[n-]c(=O)[n-]c2[O-])cc(C(=O)N2CCCC2c2ccc(S([NH-])(=O)=O)cc2)n1C (protonated)
C=c1c(=Cc2[n-]c(=O)[n-]c2[O-])cc(C(=O)N2CCC[C@@H]2c2ccc(S([NH-])(=O)=O)cc2)n1C (chirality)
C=c1c(=Cc2[n-]c(=O)[n-]c2[O-])cc(C(=O)N2CCC[C@@H]2c2ccc(S([NH-])(=O)=O)cc2)n1C (3D coordinates assigned)
C=c1c(=Cc2[n-]c(=O)[n-]c2[O-])cc(C(=O)N2CCC[C@@H]2c2ccc(S([NH-])(=O)=O)cc2)n1C (nonaromatic ring conformer: 127.5802228478628 kcal/mol)

>  <smiles>  (81) 
C=c1c(=Cc2[nH]c(=O)[nH]c2O)cc(C(=O)N2CCCC2c2ccc(S(N)(=O)=O)cc2)n1C

>  <score_type>  (81) 
oracle

>  <origin>  (81) 
adg

>  <m_score__min__energy>  (81) 
-21.27

>  <m_primary>  (81) 
energy

$$$$
81:0
     RDKit          3D

 58 61  0  0  0  0  0  0  0  0999 V2000
   59.7900   27.0310   48.5480 C   0  0  0  0  0  0  0  0  0  0  0  0
   59.9110   28.0250   47.6530 C   0  0  0  0  0  0  0  0  0  0  0  0
   59.3070   28.0880   46.3860 C   0  0  0  0  0  0  0  0  0  0  0  0
   58.6780   27.1450   45.6570 C   0  0  0  0  0  0  0  0  0  0  0  0
   57.3650   26.5560   45.9720 C   0  0  0  0  0  0  0  0  0  0  0  0
   57.1810   25.2960   46.4080 N   0  0  0  0  0  0  0  0  0  0  0  0
   55.8380   25.1620   46.4200 C   0  0  0  0  0  0  0  0  0  0  0  0
   55.2660   24.1050   46.7920 O   0  0  0  0  0  0  0  0  0  0  0  0
   55.1560   26.2470   45.9960 N   0  0  0  0  0  0  0  0  0  0  0  0
   56.1370   27.1170   45.7020 C   0  0  0  0  0  0  0  0  0  0  0  0
   55.9030   28.3950   45.2000 O   0  0  0  0  0  0  0  0  0  0  0  0
   59.4770   29.3860   45.9420 C   0  0  0  0  0  0  0  0  0  0  0  0
   60.2410   30.0370   46.8860 C   0  0  0  0  0  0  0  0  0  0  0  0
   60.6280   31.4570   46.7890 C   0  0  0  0  0  0  0  0  0  0  0  0
   61.8330   31.7610   46.9970 O   0  0  0  0  0  0  0  0  0  0  0  0
   59.6680   32.4950   46.4910 N   0  0  0  0  0  0  0  0  0  0  0  0
   58.2590   32.3590   46.9050 C   0  0  0  0  0  0  0  0  0  0  0  0
   57.3140   32.9410   45.8450 C   0  0  0  0  0  0  0  0  0  0  0  0
   57.7960   34.2750   45.3540 C   0  0  0  0  0  0  0  0  0  0  0  0
   57.1290   34.9020   44.5450 O   0  0  0  0  0  0  0  0  0  0  0  0
   59.0760   34.8540   45.8840 C   0  0  0  0  0  0  0  0  0  0  0  0
   60.1650   33.7750   45.9510 C   0  0  0  0  0  0  0  0  0  0  0  0
   60.5150   29.2130   47.9260 N   0  0  0  0  0  0  0  0  0  0  0  0
   61.1450   29.6190   49.1920 C   0  0  0  0  0  0  0  0  0  0  0  0
   60.0740   30.0790   50.2010 C   0  0  0  0  0  0  0  0  0  0  0  0
   60.1950   31.4990   50.5990 N   0  0  0  0  0  0  0  0  0  0  0  0
   61.5920   31.9890   50.7160 C   0  0  0  0  0  0  0  0  0  0  0  0
   61.9650   32.9640   49.5890 C   0  0  0  0  0  0  0  0  0  0  0  0
   61.0270   34.1840   49.5700 C   0  0  0  0  0  0  0  0  0  0  0  0
   59.6150   33.8660   50.0960 C   0  0  0  0  0  0  0  0  0  0  0  0
   59.2610   32.3930   49.8740 C   0  0  0  0  0  0  0  0  0  0  0  0
   60.3138   27.0933   49.5133 H   0  0  0  0  0  0  0  0  0  0  0  0
   59.1671   26.1546   48.3158 H   0  0  0  0  0  0  0  0  0  0  0  0
   59.1876   26.7851   44.7511 H   0  0  0  0  0  0  0  0  0  0  0  0
   56.0260   28.6070   44.2170 H   0  0  0  0  0  0  0  0  0  0  0  0
   59.0782   29.8172   45.0119 H   0  0  0  0  0  0  0  0  0  0  0  0
   58.0273   31.2931   47.0467 H   0  0  0  0  0  0  0  0  0  0  0  0
   58.1153   32.9136   47.8440 H   0  0  0  0  0  0  0  0  0  0  0  0
   57.2585   32.2455   44.9946 H   0  0  0  0  0  0  0  0  0  0  0  0
   56.3232   33.0782   46.3028 H   0  0  0  0  0  0  0  0  0  0  0  0
   59.4095   35.6645   45.2193 H   0  0  0  0  0  0  0  0  0  0  0  0
   58.8981   35.2442   46.8970 H   0  0  0  0  0  0  0  0  0  0  0  0
   60.5515   33.6020   44.9358 H   0  0  0  0  0  0  0  0  0  0  0  0
   60.9506   34.1385   46.6297 H   0  0  0  0  0  0  0  0  0  0  0  0
   61.6966   28.7653   49.6127 H   0  0  0  0  0  0  0  0  0  0  0  0
   61.8337   30.4542   48.9965 H   0  0  0  0  0  0  0  0  0  0  0  0
   59.0834   29.9300   49.7465 H   0  0  0  0  0  0  0  0  0  0  0  0
   60.2155   29.4791   51.1121 H   0  0  0  0  0  0  0  0  0  0  0  0
   61.7064   32.5039   51.6813 H   0  0  0  0  0  0  0  0  0  0  0  0
   62.2608   31.1187   50.6427 H   0  0  0  0  0  0  0  0  0  0  0  0
   62.9983   33.3091   49.7414 H   0  0  0  0  0  0  0  0  0  0  0  0
   61.8677   32.4370   48.6284 H   0  0  0  0  0  0  0  0  0  0  0  0
   61.4656   34.9731   50.1984 H   0  0  0  0  0  0  0  0  0  0  0  0
   60.9236   34.5031   48.5224 H   0  0  0  0  0  0  0  0  0  0  0  0
   59.5751   34.0864   51.1730 H   0  0  0  0  0  0  0  0  0  0  0  0
   58.8906   34.4853   49.5467 H   0  0  0  0  0  0  0  0  0  0  0  0
   58.2382   32.2119   50.2359 H   0  0  0  0  0  0  0  0  0  0  0  0
   59.3376   32.1760   48.7983 H   0  0  0  0  0  0  0  0  0  0  0  0
  1  2  2  0
  2  3  1  0
  3  4  2  3
  4  5  1  0
  5  6  1  0
  6  7  1  0
  7  8  2  0
  7  9  1  0
  9 10  1  0
 10 11  1  0
  3 12  1  0
 12 13  2  0
 13 14  1  0
 14 15  2  0
 14 16  1  0
 16 17  1  0
 17 18  1  0
 18 19  1  0
 19 20  2  0
 19 21  1  0
 21 22  1  0
 13 23  1  0
 23 24  1  0
 24 25  1  0
 25 26  1  0
 26 27  1  0
 27 28  1  0
 28 29  1  0
 29 30  1  0
 30 31  1  0
 23  2  1  0
 31 26  1  0
 10  5  2  0
 22 16  1  0
  1 32  1  0
  1 33  1  0
  4 34  1  0
 11 35  1  0
 12 36  1  0
 17 37  1  0
 17 38  1  0
 18 39  1  0
 18 40  1  0
 21 41  1  0
 21 42  1  0
 22 43  1  0
 22 44  1  0
 24 45  1  0
 24 46  1  0
 25 47  1  0
 25 48  1  0
 27 49  1  0
 27 50  1  0
 28 51  1  0
 28 52  1  0
 29 53  1  0
 29 54  1  0
 30 55  1  0
 30 56  1  0
 31 57  1  0
 31 58  1  0
M  CHG  2   6  -1   9  -1
M  END
>  <UniqueID>  (82) 
75

>  <SMILES>  (82) 
C=c1c(=Cc2[n-]c(=O)[n-]c2O)cc(C(=O)N2CCC(=O)CC2)n1CCN1CCCCC1

>  <Energy>  (82) 
139.0433912826437

>  <Genealogy>  (82) 
C=c1c(=Cc2[n-]c(=O)[n-]c2O)cc(C(=O)N2CCC(=O)CC2)n1CCN1CCCCC1 (protonated)
C=c1c(=Cc2[n-]c(=O)[n-]c2O)cc(C(=O)N2CCC(=O)CC2)n1CCN1CCCCC1 (3D coordinates assigned)
C=c1c(=Cc2[n-]c(=O)[n-]c2O)cc(C(=O)N2CCC(=O)CC2)n1CCN1CCCCC1 (nonaromatic ring conformer: 139.0433912826437 kcal/mol)

>  <smiles>  (82) 
C=c1c(=Cc2[nH]c(=O)[nH]c2O)cc(C(=O)N2CCC(=O)CC2)n1CCN1CCCCC1

>  <score_type>  (82) 
oracle

>  <origin>  (82) 
adg

>  <m_score__min__energy>  (82) 
-13.300000000000001

>  <m_primary>  (82) 
energy

$$$$
82:0
     RDKit          3D

 86 91  0  0  0  0  0  0  0  0999 V2000
   58.2730   27.4290   43.3890 C   0  0  0  0  0  0  0  0  0  0  0  0
   57.3780   28.2220   44.3430 C   0  0  0  0  0  0  0  0  0  0  0  0
   57.9480   29.5430   44.6640 N   0  0  0  0  0  0  0  0  0  0  0  0
   59.3840   29.7810   44.4610 C   0  0  0  0  0  0  0  0  0  0  0  0
   60.1790   29.1910   45.5840 C   0  0  0  0  0  0  0  0  0  0  0  0
   61.1940   28.4980   45.3270 O   0  0  0  0  0  0  0  0  0  0  0  0
   59.7350   29.4080   46.9320 N   0  0  0  0  0  0  0  0  0  0  0  0
   60.1800   28.8150   48.1660 C   0  0  0  0  0  0  0  0  0  0  0  0
   60.7850   29.5610   49.1960 C   0  0  0  0  0  0  0  0  0  0  0  0
   61.1790   28.9420   50.3900 C   0  0  0  0  0  0  0  0  0  0  0  0
   61.9290   29.8950   51.6720 S   0  0  0  0  0  0  0  0  0  0  0  0
   62.6260   31.0700   51.0430 O   0  0  0  0  0  0  0  0  0  0  0  0
   62.9740   29.0580   52.3590 O   0  0  0  0  0  0  0  0  0  0  0  0
   60.7890   30.4810   52.8660 N   0  0  0  0  0  0  0  0  0  0  0  0
   60.8640   31.9390   53.0820 C   0  0  0  0  0  0  0  0  0  0  0  0
   59.8980   32.7310   52.1820 C   0  0  0  0  0  0  0  0  0  0  0  0
   58.5870   32.2110   52.2550 O   0  0  0  0  0  0  0  0  0  0  0  0
   58.5870   30.8890   51.7600 C   0  0  0  0  0  0  0  0  0  0  0  0
   59.4160   29.9790   52.6720 C   0  0  0  0  0  0  0  0  0  0  0  0
   61.0050   27.5620   50.5470 C   0  0  0  0  0  0  0  0  0  0  0  0
   60.4150   26.8110   49.5320 C   0  0  0  0  0  0  0  0  0  0  0  0
   59.9940   27.4280   48.3460 C   0  0  0  0  0  0  0  0  0  0  0  0
   59.3740   26.6310   47.3250 N   0  0  0  0  0  0  0  0  0  0  0  0
   60.2260   25.8260   46.4380 C   0  0  0  0  0  0  0  0  0  0  0  0
   59.4960   24.5820   45.8760 C   0  0  0  0  0  0  0  0  0  0  0  0
   58.2160   24.3850   46.4450 O   0  0  0  0  0  0  0  0  0  0  0  0
   57.4390   25.5440   46.2520 C   0  0  0  0  0  0  0  0  0  0  0  0
   57.9110   26.6370   47.2060 C   0  0  0  0  0  0  0  0  0  0  0  0
   57.0710   30.6770   44.8470 C   0  0  0  0  0  0  0  0  0  0  0  0
   55.8280   30.5510   44.6520 O   0  0  0  0  0  0  0  0  0  0  0  0
   57.5960   31.9930   45.2590 C   0  0  0  0  0  0  0  0  0  0  0  0
   57.4220   33.1200   44.4410 C   0  0  0  0  0  0  0  0  0  0  0  0
   57.9110   34.3660   44.8460 C   0  0  0  0  0  0  0  0  0  0  0  0
   58.5750   34.4990   46.0690 C   0  0  0  0  0  0  0  0  0  0  0  0
   58.7590   33.3790   46.8930 C   0  0  0  0  0  0  0  0  0  0  0  0
   59.6170   33.5340   48.4220 S   0  0  0  0  0  0  0  0  0  0  0  0
   58.9010   32.7410   49.4810 O   0  0  0  0  0  0  0  0  0  0  0  0
   59.6450   34.9720   48.8590 O   0  0  0  0  0  0  0  0  0  0  0  0
   61.2300   32.9290   48.2500 N   0  0  0  0  0  0  0  0  0  0  0  0
   61.6730   32.0930   47.1380 C   0  0  0  0  0  0  0  0  0  0  0  0
   63.1840   31.8410   47.3740 C   0  0  0  0  0  0  0  0  0  0  0  0
   63.4710   32.6050   48.6220 C   0  0  0  0  0  0  0  0  0  0  0  0
   64.6920   32.7400   49.2870 C   0  0  0  0  0  0  0  0  0  0  0  0
   64.7380   33.5240   50.4520 C   0  0  0  0  0  0  0  0  0  0  0  0
   63.5730   34.1590   50.9230 C   0  0  0  0  0  0  0  0  0  0  0  0
   62.3570   34.0100   50.2350 C   0  0  0  0  0  0  0  0  0  0  0  0
   62.3380   33.2150   49.0850 C   0  0  0  0  0  0  0  0  0  0  0  0
   58.2560   32.1320   46.4910 C   0  0  0  0  0  0  0  0  0  0  0  0
   58.9716   26.8100   43.9710 H   0  0  0  0  0  0  0  0  0  0  0  0
   57.6499   26.7811   42.7550 H   0  0  0  0  0  0  0  0  0  0  0  0
   58.8411   28.1256   42.7550 H   0  0  0  0  0  0  0  0  0  0  0  0
   56.3945   28.3645   43.8715 H   0  0  0  0  0  0  0  0  0  0  0  0
   57.2908   27.6524   45.2800 H   0  0  0  0  0  0  0  0  0  0  0  0
   59.6970   29.3176   43.5138 H   0  0  0  0  0  0  0  0  0  0  0  0
   59.5632   30.8659   44.4309 H   0  0  0  0  0  0  0  0  0  0  0  0
   60.9499   30.6403   49.0620 H   0  0  0  0  0  0  0  0  0  0  0  0
   60.6173   32.1508   54.1328 H   0  0  0  0  0  0  0  0  0  0  0  0
   61.8859   32.2571   52.8279 H   0  0  0  0  0  0  0  0  0  0  0  0
   59.8854   33.7818   52.5070 H   0  0  0  0  0  0  0  0  0  0  0  0
   60.2466   32.6499   51.1419 H   0  0  0  0  0  0  0  0  0  0  0  0
   57.5527   30.5168   51.7195 H   0  0  0  0  0  0  0  0  0  0  0  0
   59.0292   30.8844   50.7528 H   0  0  0  0  0  0  0  0  0  0  0  0
   58.9210   29.9151   53.6523 H   0  0  0  0  0  0  0  0  0  0  0  0
   59.4836   28.9922   52.1907 H   0  0  0  0  0  0  0  0  0  0  0  0
   61.3347   27.0692   51.4735 H   0  0  0  0  0  0  0  0  0  0  0  0
   60.2789   25.7273   49.6625 H   0  0  0  0  0  0  0  0  0  0  0  0
   60.5498   26.4546   45.5954 H   0  0  0  0  0  0  0  0  0  0  0  0
   61.0808   25.4697   47.0317 H   0  0  0  0  0  0  0  0  0  0  0  0
   59.3806   24.7053   44.7890 H   0  0  0  0  0  0  0  0  0  0  0  0
   60.1059   23.7021   46.1286 H   0  0  0  0  0  0  0  0  0  0  0  0
   57.5491   25.8907   45.2139 H   0  0  0  0  0  0  0  0  0  0  0  0
   56.3819   25.3143   46.4515 H   0  0  0  0  0  0  0  0  0  0  0  0
   57.5846   27.6152   46.8230 H   0  0  0  0  0  0  0  0  0  0  0  0
   57.4764   26.4493   48.1989 H   0  0  0  0  0  0  0  0  0  0  0  0
   56.8992   33.0229   43.4780 H   0  0  0  0  0  0  0  0  0  0  0  0
   57.7726   35.2451   44.1995 H   0  0  0  0  0  0  0  0  0  0  0  0
   58.9533   35.4823   46.3852 H   0  0  0  0  0  0  0  0  0  0  0  0
   61.1224   31.1408   47.1318 H   0  0  0  0  0  0  0  0  0  0  0  0
   61.4906   32.5795   46.1684 H   0  0  0  0  0  0  0  0  0  0  0  0
   63.3872   30.7689   47.5133 H   0  0  0  0  0  0  0  0  0  0  0  0
   63.8094   32.1546   46.5251 H   0  0  0  0  0  0  0  0  0  0  0  0
   65.5972   32.2436   48.9071 H   0  0  0  0  0  0  0  0  0  0  0  0
   65.6861   33.6419   50.9972 H   0  0  0  0  0  0  0  0  0  0  0  0
   63.6150   34.7745   51.8337 H   0  0  0  0  0  0  0  0  0  0  0  0
   61.4427   34.5064   50.5922 H   0  0  0  0  0  0  0  0  0  0  0  0
   58.3796   31.2568   47.1458 H   0  0  0  0  0  0  0  0  0  0  0  0
  1  2  1  0
  2  3  1  0
  3  4  1  0
  4  5  1  0
  5  6  2  0
  5  7  1  0
  7  8  1  0
  8  9  2  0
  9 10  1  0
 10 11  1  0
 11 12  2  0
 11 13  2  0
 11 14  1  0
 14 15  1  0
 15 16  1  0
 16 17  1  0
 17 18  1  0
 18 19  1  0
 10 20  2  0
 20 21  1  0
 21 22  2  0
 22 23  1  0
 23 24  1  0
 24 25  1  0
 25 26  1  0
 26 27  1  0
 27 28  1  0
  3 29  1  0
 29 30  2  0
 29 31  1  0
 31 32  2  0
 32 33  1  0
 33 34  2  0
 34 35  1  0
 35 36  1  0
 36 37  2  0
 36 38  2  0
 36 39  1  0
 39 40  1  0
 40 41  1  0
 41 42  1  0
 42 43  2  0
 43 44  1  0
 44 45  2  0
 45 46  1  0
 46 47  2  0
 35 48  2  0
 22  8  1  0
 28 23  1  0
 48 31  1  0
 19 14  1  0
 47 39  1  0
 47 42  1  0
  1 49  1  0
  1 50  1  0
  1 51  1  0
  2 52  1  0
  2 53  1  0
  4 54  1  0
  4 55  1  0
  9 56  1  0
 15 57  1  0
 15 58  1  0
 16 59  1  0
 16 60  1  0
 18 61  1  0
 18 62  1  0
 19 63  1  0
 19 64  1  0
 20 65  1  0
 21 66  1  0
 24 67  1  0
 24 68  1  0
 25 69  1  0
 25 70  1  0
 27 71  1  0
 27 72  1  0
 28 73  1  0
 28 74  1  0
 32 75  1  0
 33 76  1  0
 34 77  1  0
 40 78  1  0
 40 79  1  0
 41 80  1  0
 41 81  1  0
 43 82  1  0
 44 83  1  0
 45 84  1  0
 46 85  1  0
 48 86  1  0
M  CHG  1   7  -1
M  END
>  <UniqueID>  (83) 
76

>  <SMILES>  (83) 
CCN(CC(=O)[N-]c1cc(S(=O)(=O)N2CCOCC2)ccc1N1CCOCC1)C(=O)c1cccc(S(=O)(=O)N2CCc3ccccc32)c1

>  <Energy>  (83) 
129.50317532042638

>  <Genealogy>  (83) 
CCN(CC(=O)[N-]c1cc(S(=O)(=O)N2CCOCC2)ccc1N1CCOCC1)C(=O)c1cccc(S(=O)(=O)N2CCc3ccccc32)c1 (protonated)
CCN(CC(=O)[N-]c1cc(S(=O)(=O)N2CCOCC2)ccc1N1CCOCC1)C(=O)c1cccc(S(=O)(=O)N2CCc3ccccc32)c1 (3D coordinates assigned)
CCN(CC(=O)[N-]c1cc(S(=O)(=O)N2CCOCC2)ccc1N1CCOCC1)C(=O)c1cccc(S(=O)(=O)N2CCc3ccccc32)c1 (nonaromatic ring conformer: 129.50317532042638 kcal/mol)

>  <smiles>  (83) 
CCN(CC(=O)Nc1cc(S(=O)(=O)N2CCOCC2)ccc1N1CCOCC1)C(=O)c1cccc(S(=O)(=O)N2CCc3ccccc32)c1

>  <score_type>  (83) 
oracle

>  <origin>  (83) 
adg

>  <m_score__min__energy>  (83) 
-14.08

>  <m_primary>  (83) 
energy

$$$$
83:0
     RDKit          3D

 28 29  0  0  0  0  0  0  0  0999 V2000
   60.4140   28.0400   45.8680 C   0  0  0  0  0  0  0  0  0  0  0  0
   59.4680   29.1530   45.6730 N   0  0  0  0  0  0  0  0  0  0  0  0
   59.9140   30.3470   45.9810 C   0  0  0  0  0  0  0  0  0  0  0  0
   59.1020   31.5640   45.8460 C   0  0  0  0  0  0  0  0  0  0  0  0
   59.6420   32.8130   46.1940 C   0  0  0  0  0  0  0  0  0  0  0  0
   58.8710   33.9720   46.0670 C   0  0  0  0  0  0  0  0  0  0  0  0
   57.5600   33.8890   45.5920 C   0  0  0  0  0  0  0  0  0  0  0  0
   57.0200   32.6470   45.2460 C   0  0  0  0  0  0  0  0  0  0  0  0
   57.7920   31.4780   45.3720 C   0  0  0  0  0  0  0  0  0  0  0  0
   57.2510   30.1590   45.0150 C   0  0  0  0  0  0  0  0  0  0  0  0
   56.0660   30.0740   44.5840 O   0  0  0  0  0  0  0  0  0  0  0  0
   58.0900   28.8920   45.1530 C   0  0  0  0  0  0  0  0  0  0  0  0
   57.3450   27.9480   46.1210 C   0  0  0  0  0  0  0  0  0  0  0  0
   58.1830   28.2460   43.7520 C   0  0  0  0  0  0  0  0  0  0  0  0
   60.5605   27.8676   46.9445 H   0  0  0  0  0  0  0  0  0  0  0  0
   60.0095   27.1291   45.4025 H   0  0  0  0  0  0  0  0  0  0  0  0
   61.3782   28.2925   45.4025 H   0  0  0  0  0  0  0  0  0  0  0  0
   60.9431   30.4418   46.3577 H   0  0  0  0  0  0  0  0  0  0  0  0
   60.6745   32.8793   46.5675 H   0  0  0  0  0  0  0  0  0  0  0  0
   59.2963   34.9488   46.3409 H   0  0  0  0  0  0  0  0  0  0  0  0
   56.9528   34.8006   45.4903 H   0  0  0  0  0  0  0  0  0  0  0  0
   55.9869   32.5836   44.8736 H   0  0  0  0  0  0  0  0  0  0  0  0
   57.5709   28.2343   47.1588 H   0  0  0  0  0  0  0  0  0  0  0  0
   56.2616   28.0250   45.9470 H   0  0  0  0  0  0  0  0  0  0  0  0
   57.6717   26.9121   45.9470 H   0  0  0  0  0  0  0  0  0  0  0  0
   58.3390   27.1623   43.8576 H   0  0  0  0  0  0  0  0  0  0  0  0
   57.2491   28.4300   43.2007 H   0  0  0  0  0  0  0  0  0  0  0  0
   59.0271   28.6860   43.2007 H   0  0  0  0  0  0  0  0  0  0  0  0
  1  2  1  0
  2  3  2  0
  3  4  1  0
  4  5  2  0
  5  6  1  0
  6  7  2  0
  7  8  1  0
  8  9  2  0
  9 10  1  0
 10 11  2  0
 10 12  1  0
 12 13  1  0
 12 14  1  0
 12  2  1  0
  9  4  1  0
  1 15  1  0
  1 16  1  0
  1 17  1  0
  3 18  1  0
  5 19  1  0
  6 20  1  0
  7 21  1  0
  8 22  1  0
 13 23  1  0
 13 24  1  0
 13 25  1  0
 14 26  1  0
 14 27  1  0
 14 28  1  0
M  CHG  1   2   1
M  END
>  <UniqueID>  (84) 
77

>  <SMILES>  (84) 
C[N+]1=Cc2ccccc2C(=O)C1(C)C

>  <Energy>  (84) 
31.895015815176965

>  <Genealogy>  (84) 
C[N+]1=Cc2ccccc2C(=O)C1(C)C (3D coordinates assigned)
C[N+]1=Cc2ccccc2C(=O)C1(C)C (nonaromatic ring conformer: 31.895015815176965 kcal/mol)

>  <smiles>  (84) 
C[N+]1=Cc2ccccc2C(=O)C1(C)C

>  <score_type>  (84) 
oracle

>  <origin>  (84) 
adg

>  <m_score__min__energy>  (84) 
-4.5499999999999998

>  <m_primary>  (84) 
energy

$$$$
84:0
     RDKit          3D

 42 44  0  0  0  0  0  0  0  0999 V2000
   55.9080   21.8330   42.9490 O   0  0  0  0  0  0  0  0  0  0  0  0
   56.2930   22.5460   43.8640 C   0  0  0  0  0  0  0  0  0  0  0  0
   57.7660   22.7070   44.1160 C   0  0  0  0  0  0  0  0  0  0  0  0
   58.0220   23.4980   45.4030 C   0  0  0  0  0  0  0  0  0  0  0  0
   57.1990   24.7190   45.4340 N   0  0  0  0  0  0  0  0  0  0  0  0
   57.7440   25.9720   45.8990 C   0  0  0  0  0  0  0  0  0  0  0  0
   57.0310   27.0420   45.9930 N   0  0  0  0  0  0  0  0  0  0  0  0
   57.7990   28.0710   46.4680 O   0  0  0  0  0  0  0  0  0  0  0  0
   59.1460   27.6880   46.6990 C   0  0  2  0  0  0  0  0  0  0  0  0
   60.1140   28.5340   45.8500 C   0  0  0  0  0  0  0  0  0  0  0  0
   59.4180   29.6550   45.0610 C   0  0  0  0  0  0  0  0  0  0  0  0
   58.3650   29.0930   44.2140 N   0  0  0  0  0  0  0  0  0  0  0  0
   57.0620   30.2350   44.0640 S   0  0  0  0  0  0  0  0  0  0  0  0
   55.8840   29.7740   44.8780 O   0  0  0  0  0  0  0  0  0  0  0  0
   56.6460   30.3290   42.6240 O   0  0  0  0  0  0  0  0  0  0  0  0
   57.5720   31.8200   44.6160 C   0  0  0  0  0  0  0  0  0  0  0  0
   57.9280   32.8820   43.8000 C   0  0  0  0  0  0  0  0  0  0  0  0
   58.3330   34.0110   44.5220 C   0  0  0  0  0  0  0  0  0  0  0  0
   58.2990   33.8340   45.8990 C   0  0  0  0  0  0  0  0  0  0  0  0
   57.7680   32.2690   46.2230 S   0  0  0  0  0  0  0  0  0  0  0  0
   59.1570   26.1880   46.3470 C   0  0  0  0  0  0  0  0  0  0  0  0
   55.7690   24.6600   45.0720 C   0  0  0  0  0  0  0  0  0  0  0  0
   55.2990   23.2330   44.7530 C   0  0  0  0  0  0  0  0  0  0  0  0
   58.2256   21.7119   44.2084 H   0  0  0  0  0  0  0  0  0  0  0  0
   58.2065   23.2594   43.2729 H   0  0  0  0  0  0  0  0  0  0  0  0
   57.7692   22.8696   46.2697 H   0  0  0  0  0  0  0  0  0  0  0  0
   59.0833   23.7850   45.4374 H   0  0  0  0  0  0  0  0  0  0  0  0
   59.4892   27.8572   47.7303 H   0  0  0  0  0  0  0  0  0  0  0  0
   60.8576   28.9899   46.5202 H   0  0  0  0  0  0  0  0  0  0  0  0
   60.5744   27.8582   45.1143 H   0  0  0  0  0  0  0  0  0  0  0  0
   58.9739   30.3741   45.7650 H   0  0  0  0  0  0  0  0  0  0  0  0
   60.1590   30.1627   44.4261 H   0  0  0  0  0  0  0  0  0  0  0  0
   57.9690   28.2530   44.6970 H   0  0  0  0  0  0  0  0  0  0  0  0
   57.8958   32.8421   42.7012 H   0  0  0  0  0  0  0  0  0  0  0  0
   58.6485   34.9499   44.0436 H   0  0  0  0  0  0  0  0  0  0  0  0
   58.5727   34.5886   46.6511 H   0  0  0  0  0  0  0  0  0  0  0  0
   59.8716   25.9707   45.5394 H   0  0  0  0  0  0  0  0  0  0  0  0
   59.4673   25.5363   47.1771 H   0  0  0  0  0  0  0  0  0  0  0  0
   55.1761   25.0462   45.9142 H   0  0  0  0  0  0  0  0  0  0  0  0
   55.6294   25.2673   44.1655 H   0  0  0  0  0  0  0  0  0  0  0  0
   55.1972   22.6661   45.6902 H   0  0  0  0  0  0  0  0  0  0  0  0
   54.3293   23.2820   44.2360 H   0  0  0  0  0  0  0  0  0  0  0  0
  1  2  2  0
  2  3  1  0
  3  4  1  0
  4  5  1  0
  5  6  1  0
  6  7  2  0
  7  8  1  0
  8  9  1  0
  9 10  1  0
 10 11  1  0
 11 12  1  0
 12 13  1  0
 13 14  2  0
 13 15  2  0
 13 16  1  0
 16 17  2  0
 17 18  1  0
 18 19  2  0
 19 20  1  0
  9 21  1  0
  5 22  1  0
 22 23  1  0
 23  2  1  0
 21  6  1  0
 20 16  1  0
  3 24  1  0
  3 25  1  0
  4 26  1  0
  4 27  1  0
  9 28  1  1
 10 29  1  0
 10 30  1  0
 11 31  1  0
 11 32  1  0
 12 33  1  0
 17 34  1  0
 18 35  1  0
 19 36  1  0
 21 37  1  0
 21 38  1  0
 22 39  1  0
 22 40  1  0
 23 41  1  0
 23 42  1  0
M  END
>  <UniqueID>  (85) 
78

>  <SMILES>  (85) 
O=C1CCN(C2=NO[C@H](CCNS(=O)(=O)c3cccs3)C2)CC1

>  <Energy>  (85) 
74.80117188045404

>  <Genealogy>  (85) 
O=C1CCN(C2=NO[C@H](CCNS(=O)(=O)c3cccs3)C2)CC1 (chirality)
O=C1CCN(C2=NO[C@H](CCNS(=O)(=O)c3cccs3)C2)CC1 (3D coordinates assigned)
O=C1CCN(C2=NO[C@H](CCNS(=O)(=O)c3cccs3)C2)CC1 (nonaromatic ring conformer: 74.80117188045404 kcal/mol)

>  <smiles>  (85) 
O=C1CCN(C2=NOC(CCNS(=O)(=O)c3cccs3)C2)CC1

>  <score_type>  (85) 
oracle

>  <origin>  (85) 
adg

>  <m_score__min__energy>  (85) 
-9.4000000000000004

>  <m_primary>  (85) 
energy

$$$$
85:0
     RDKit          3D

 64 67  0  0  0  0  0  0  0  0999 V2000
   62.6990   33.7100   49.7660 C   0  0  0  0  0  0  0  0  0  0  0  0
   61.4040   33.5550   48.9550 C   0  0  2  0  0  0  0  0  0  0  0  0
   60.4410   32.4990   49.5390 C   0  0  0  0  0  0  0  0  0  0  0  0
   60.8400   31.1370   49.1660 N   0  0  1  0  0  0  0  0  0  0  0  0
   59.6720   29.9880   49.7800 S   0  0  0  0  0  0  0  0  0  0  0  0
   58.3010   30.6060   49.8240 O   0  0  0  0  0  0  0  0  0  0  0  0
   60.0460   29.5600   51.1730 O   0  0  0  0  0  0  0  0  0  0  0  0
   59.6480   28.5640   48.7460 C   0  0  0  0  0  0  0  0  0  0  0  0
   60.7950   27.7750   48.5830 C   0  0  0  0  0  0  0  0  0  0  0  0
   60.7660   26.6650   47.7330 C   0  0  0  0  0  0  0  0  0  0  0  0
   59.5930   26.3310   47.0550 C   0  0  0  0  0  0  0  0  0  0  0  0
   58.4270   27.0990   47.2250 C   0  0  0  0  0  0  0  0  0  0  0  0
   57.1660   26.7260   46.5370 C   0  0  0  0  0  0  0  0  0  0  0  0
   56.3410   25.9590   47.1070 O   0  0  0  0  0  0  0  0  0  0  0  0
   56.8400   27.3300   45.2800 N   0  0  0  0  0  0  0  0  0  0  0  0
   57.0490   28.6880   44.8630 C   0  0  0  0  0  0  0  0  0  0  0  0
   55.9930   29.5350   44.4810 C   0  0  0  0  0  0  0  0  0  0  0  0
   56.2500   30.8580   44.1000 C   0  0  0  0  0  0  0  0  0  0  0  0
   57.5650   31.3410   44.0610 C   0  0  0  0  0  0  0  0  0  0  0  0
   57.8380   32.7670   43.6550 C   0  0  0  0  0  0  0  0  0  0  0  0
   58.0670   33.6190   44.8360 N   0  0  0  0  0  0  0  0  0  0  0  0
   57.6330   32.9170   46.0680 C   0  0  0  0  0  0  0  0  0  0  0  0
   58.3100   33.5050   47.3250 C   0  0  0  0  0  0  0  0  0  0  0  0
   58.6320   34.8640   47.1120 O   0  0  0  0  0  0  0  0  0  0  0  0
   59.6540   34.9870   46.1350 C   0  0  0  0  0  0  0  0  0  0  0  0
   59.4830   34.0140   44.9450 C   0  0  0  0  0  0  0  0  0  0  0  0
   58.6210   30.4840   44.4070 C   0  0  0  0  0  0  0  0  0  0  0  0
   58.3630   29.1680   44.8020 C   0  0  0  0  0  0  0  0  0  0  0  0
   58.4680   28.2180   48.0780 C   0  0  0  0  0  0  0  0  0  0  0  0
   60.9290   31.0360   47.7060 C   0  0  0  0  0  0  0  0  0  0  0  0
   61.9060   32.0780   47.1260 C   0  0  2  0  0  0  0  0  0  0  0  0
   63.3840   31.6850   47.2890 C   0  0  0  0  0  0  0  0  0  0  0  0
   61.6510   33.4080   47.5620 O   0  0  0  0  0  0  0  0  0  0  0  0
   62.4644   33.6819   50.8403 H   0  0  0  0  0  0  0  0  0  0  0  0
   63.3868   32.8878   49.5193 H   0  0  0  0  0  0  0  0  0  0  0  0
   63.1733   34.6713   49.5193 H   0  0  0  0  0  0  0  0  0  0  0  0
   60.8597   34.5055   49.0562 H   0  0  0  0  0  0  0  0  0  0  0  0
   60.4419   32.5832   50.6358 H   0  0  0  0  0  0  0  0  0  0  0  0
   59.4370   32.6867   49.1307 H   0  0  0  0  0  0  0  0  0  0  0  0
   61.7600   30.9060   49.6000 H   0  0  0  0  0  0  0  0  0  0  0  0
   61.7184   28.0291   49.1240 H   0  0  0  0  0  0  0  0  0  0  0  0
   61.6704   26.0534   47.5985 H   0  0  0  0  0  0  0  0  0  0  0  0
   59.5801   25.4606   46.3826 H   0  0  0  0  0  0  0  0  0  0  0  0
   54.9602   29.1564   44.4815 H   0  0  0  0  0  0  0  0  0  0  0  0
   55.4152   31.5215   43.8299 H   0  0  0  0  0  0  0  0  0  0  0  0
   58.7314   32.7935   43.0139 H   0  0  0  0  0  0  0  0  0  0  0  0
   56.9616   33.1501   43.1117 H   0  0  0  0  0  0  0  0  0  0  0  0
   56.5423   33.0165   46.1703 H   0  0  0  0  0  0  0  0  0  0  0  0
   57.9245   31.8598   45.9827 H   0  0  0  0  0  0  0  0  0  0  0  0
   57.6229   33.4236   48.1801 H   0  0  0  0  0  0  0  0  0  0  0  0
   59.2334   32.9443   47.5323 H   0  0  0  0  0  0  0  0  0  0  0  0
   59.6451   36.0167   45.7481 H   0  0  0  0  0  0  0  0  0  0  0  0
   60.6060   34.7370   46.6261 H   0  0  0  0  0  0  0  0  0  0  0  0
   59.7979   34.5115   44.0158 H   0  0  0  0  0  0  0  0  0  0  0  0
   60.1026   33.1200   45.1090 H   0  0  0  0  0  0  0  0  0  0  0  0
   59.6576   30.8498   44.3672 H   0  0  0  0  0  0  0  0  0  0  0  0
   59.1991   28.5042   45.0670 H   0  0  0  0  0  0  0  0  0  0  0  0
   57.5631   28.8268   48.2210 H   0  0  0  0  0  0  0  0  0  0  0  0
   61.2804   30.0286   47.4382 H   0  0  0  0  0  0  0  0  0  0  0  0
   59.9308   31.2273   47.2854 H   0  0  0  0  0  0  0  0  0  0  0  0
   61.7031   32.0733   46.0449 H   0  0  0  0  0  0  0  0  0  0  0  0
   63.6301   31.6196   48.3591 H   0  0  0  0  0  0  0  0  0  0  0  0
   63.5587   30.7092   46.8122 H   0  0  0  0  0  0  0  0  0  0  0  0
   64.0203   32.4452   46.8122 H   0  0  0  0  0  0  0  0  0  0  0  0
  1  2  1  0
  2  3  1  0
  3  4  1  0
  4  5  1  0
  5  6  2  0
  5  7  2  0
  5  8  1  0
  8  9  2  0
  9 10  1  0
 10 11  2  0
 11 12  1  0
 12 13  1  0
 13 14  2  0
 13 15  1  0
 15 16  1  0
 16 17  2  0
 17 18  1  0
 18 19  2  0
 19 20  1  0
 20 21  1  0
 21 22  1  0
 22 23  1  0
 23 24  1  0
 24 25  1  0
 25 26  1  0
 19 27  1  0
 27 28  2  0
 12 29  2  0
  4 30  1  0
 30 31  1  0
 31 32  1  0
 31 33  1  0
 33  2  1  0
 29  8  1  0
 28 16  1  0
 26 21  1  0
  1 34  1  0
  1 35  1  0
  1 36  1  0
  2 37  1  6
  3 38  1  0
  3 39  1  0
  4 40  1  1
  9 41  1  0
 10 42  1  0
 11 43  1  0
 17 44  1  0
 18 45  1  0
 20 46  1  0
 20 47  1  0
 22 48  1  0
 22 49  1  0
 23 50  1  0
 23 51  1  0
 25 52  1  0
 25 53  1  0
 26 54  1  0
 26 55  1  0
 27 56  1  0
 28 57  1  0
 29 58  1  0
 30 59  1  0
 30 60  1  0
 31 61  1  6
 32 62  1  0
 32 63  1  0
 32 64  1  0
M  CHG  2   4   1  15  -1
M  END
>  <UniqueID>  (86) 
79

>  <SMILES>  (86) 
C[C@@H]1C[NH+](S(=O)(=O)c2cccc(C(=O)[N-]c3ccc(CN4CCOCC4)cc3)c2)C[C@H](C)O1

>  <Energy>  (86) 
86.29024149148897

>  <Genealogy>  (86) 
CC1C[NH+](S(=O)(=O)c2cccc(C(=O)[N-]c3ccc(CN4CCOCC4)cc3)c2)CC(C)O1 (protonated)
C[C@@H]1C[NH+](S(=O)(=O)c2cccc(C(=O)[N-]c3ccc(CN4CCOCC4)cc3)c2)C[C@H](C)O1 (chirality)
C[C@@H]1C[NH+](S(=O)(=O)c2cccc(C(=O)[N-]c3ccc(CN4CCOCC4)cc3)c2)C[C@H](C)O1 (3D coordinates assigned)
C[C@@H]1C[NH+](S(=O)(=O)c2cccc(C(=O)[N-]c3ccc(CN4CCOCC4)cc3)c2)C[C@H](C)O1 (nonaromatic ring conformer: 86.29024149148897 kcal/mol)

>  <smiles>  (86) 
CC1CN(S(=O)(=O)c2cccc(C(=O)Nc3ccc(CN4CCOCC4)cc3)c2)CC(C)O1

>  <score_type>  (86) 
oracle

>  <origin>  (86) 
adg

>  <m_score__min__energy>  (86) 
-10.960000000000001

>  <m_primary>  (86) 
energy

$$$$
86:0
     RDKit          3D

 50 54  0  0  0  0  0  0  0  0999 V2000
   56.2950   29.2330   45.2980 O   0  0  0  0  0  0  0  0  0  0  0  0
   57.4900   29.6260   45.3780 C   0  0  0  0  0  0  0  0  0  0  0  0
   58.5140   28.7370   45.8600 N   0  0  0  0  0  0  0  0  0  0  0  0
   58.3160   27.3320   46.0880 C   0  0  0  0  0  0  0  0  0  0  0  0
   59.4030   26.4140   46.0390 C   0  0  0  0  0  0  0  0  0  0  0  0
   59.1980   25.0440   46.2920 C   0  0  0  0  0  0  0  0  0  0  0  0
   57.9070   24.6290   46.6050 C   0  0  0  0  0  0  0  0  0  0  0  0
   57.4850   23.3830   46.8860 N   0  0  0  0  0  0  0  0  0  0  0  0
   56.1630   23.5930   47.1160 C   0  0  0  0  0  0  0  0  0  0  0  0
   55.3690   22.6660   47.4200 O   0  0  0  0  0  0  0  0  0  0  0  0
   55.7850   24.8530   46.9930 O   0  0  0  0  0  0  0  0  0  0  0  0
   56.8670   25.5070   46.6750 C   0  0  0  0  0  0  0  0  0  0  0  0
   57.0270   26.8680   46.4320 C   0  0  0  0  0  0  0  0  0  0  0  0
   57.8220   31.0220   45.0120 C   0  0  0  0  0  0  0  0  0  0  0  0
   58.5070   31.8340   45.9330 C   0  0  0  0  0  0  0  0  0  0  0  0
   58.8370   33.1570   45.6120 C   0  0  0  0  0  0  0  0  0  0  0  0
   59.7330   34.1520   46.7610 S   0  0  0  0  0  0  0  0  0  0  0  0
   60.0190   35.4800   46.1170 O   0  0  0  0  0  0  0  0  0  0  0  0
   58.8860   34.3740   47.9840 O   0  0  0  0  0  0  0  0  0  0  0  0
   61.2310   33.3830   47.2200 N   0  0  0  0  0  0  0  0  0  0  0  0
   62.4750   33.9650   46.6910 C   0  0  0  0  0  0  0  0  0  0  0  0
   63.6800   33.0520   46.9180 C   0  0  0  0  0  0  0  0  0  0  0  0
   63.7750   32.6560   48.3890 C   0  0  0  0  0  0  0  0  0  0  0  0
   62.5030   31.9890   48.8310 C   0  0  0  0  0  0  0  0  0  0  0  0
   62.5410   31.0240   49.8490 C   0  0  0  0  0  0  0  0  0  0  0  0
   61.3690   30.4000   50.2730 C   0  0  0  0  0  0  0  0  0  0  0  0
   60.1490   30.7360   49.6890 C   0  0  0  0  0  0  0  0  0  0  0  0
   60.0930   31.7090   48.6870 C   0  0  0  0  0  0  0  0  0  0  0  0
   61.2660   32.3660   48.2570 C   0  0  0  0  0  0  0  0  0  0  0  0
   58.4860   33.6740   44.3600 C   0  0  0  0  0  0  0  0  0  0  0  0
   57.7990   32.8800   43.4410 C   0  0  0  0  0  0  0  0  0  0  0  0
   57.4600   31.5590   43.7570 C   0  0  0  0  0  0  0  0  0  0  0  0
   56.6480   30.5950   42.5270 Cl  0  0  0  0  0  0  0  0  0  0  0  0
   59.4470   29.1370   46.1040 H   0  0  0  0  0  0  0  0  0  0  0  0
   60.4132   26.7785   45.8011 H   0  0  0  0  0  0  0  0  0  0  0  0
   60.0301   24.3261   46.2439 H   0  0  0  0  0  0  0  0  0  0  0  0
   56.1759   27.5610   46.5056 H   0  0  0  0  0  0  0  0  0  0  0  0
   58.7866   31.4262   46.9156 H   0  0  0  0  0  0  0  0  0  0  0  0
   62.3562   34.1333   45.6105 H   0  0  0  0  0  0  0  0  0  0  0  0
   62.6605   34.9090   47.2243 H   0  0  0  0  0  0  0  0  0  0  0  0
   63.5692   32.1456   46.3046 H   0  0  0  0  0  0  0  0  0  0  0  0
   64.5957   33.5905   46.6326 H   0  0  0  0  0  0  0  0  0  0  0  0
   64.6160   31.9600   48.5242 H   0  0  0  0  0  0  0  0  0  0  0  0
   63.9346   33.5606   48.9942 H   0  0  0  0  0  0  0  0  0  0  0  0
   63.5013   30.7584   50.3151 H   0  0  0  0  0  0  0  0  0  0  0  0
   61.4070   29.6418   51.0691 H   0  0  0  0  0  0  0  0  0  0  0  0
   59.2271   30.2339   50.0177 H   0  0  0  0  0  0  0  0  0  0  0  0
   59.1260   31.9650   48.2294 H   0  0  0  0  0  0  0  0  0  0  0  0
   58.7523   34.7090   44.0996 H   0  0  0  0  0  0  0  0  0  0  0  0
   57.5217   33.2952   42.4608 H   0  0  0  0  0  0  0  0  0  0  0  0
  1  2  2  0
  2  3  1  0
  3  4  1  0
  4  5  2  0
  5  6  1  0
  6  7  2  0
  7  8  1  0
  8  9  1  0
  9 10  2  0
  9 11  1  0
 11 12  1  0
 12 13  2  0
  2 14  1  0
 14 15  2  0
 15 16  1  0
 16 17  1  0
 17 18  2  0
 17 19  2  0
 17 20  1  0
 20 21  1  0
 21 22  1  0
 22 23  1  0
 23 24  1  0
 24 25  2  0
 25 26  1  0
 26 27  2  0
 27 28  1  0
 28 29  2  0
 16 30  2  0
 30 31  1  0
 31 32  2  0
 32 33  1  0
 13  4  1  0
 32 14  1  0
 12  7  1  0
 29 20  1  0
 29 24  1  0
  3 34  1  0
  5 35  1  0
  6 36  1  0
 13 37  1  0
 15 38  1  0
 21 39  1  0
 21 40  1  0
 22 41  1  0
 22 42  1  0
 23 43  1  0
 23 44  1  0
 25 45  1  0
 26 46  1  0
 27 47  1  0
 28 48  1  0
 30 49  1  0
 31 50  1  0
M  CHG  1   8  -1
M  END
>  <UniqueID>  (87) 
80

>  <SMILES>  (87) 
O=C(Nc1ccc2[n-]c(=O)oc2c1)c1cc(S(=O)(=O)N2CCCc3ccccc32)ccc1Cl

>  <Energy>  (87) 
107.35891950976574

>  <Genealogy>  (87) 
O=C(Nc1ccc2[n-]c(=O)oc2c1)c1cc(S(=O)(=O)N2CCCc3ccccc32)ccc1Cl (protonated)
O=C(Nc1ccc2[n-]c(=O)oc2c1)c1cc(S(=O)(=O)N2CCCc3ccccc32)ccc1Cl (3D coordinates assigned)
O=C(Nc1ccc2[n-]c(=O)oc2c1)c1cc(S(=O)(=O)N2CCCc3ccccc32)ccc1Cl (nonaromatic ring conformer: 107.35891950976574 kcal/mol)

>  <smiles>  (87) 
O=C(Nc1ccc2[nH]c(=O)oc2c1)c1cc(S(=O)(=O)N2CCCc3ccccc32)ccc1Cl

>  <score_type>  (87) 
oracle

>  <origin>  (87) 
adg

>  <m_score__min__energy>  (87) 
-12.19

>  <m_primary>  (87) 
energy

$$$$
87:0
     RDKit          3D

 46 47  0  0  0  0  0  0  0  0999 V2000
   61.3349   30.8684   45.8007 H   0  0  0  0  0  0  0  0  0  0  0  0
   61.1670   31.1670   46.8460 C   0  0  0  0  0  0  0  0  0  0  0  0
   60.3830   30.5160   47.6850 C   0  0  0  0  0  0  0  0  0  0  0  0
   59.5340   29.3750   47.2380 C   0  0  0  0  0  0  0  0  0  0  0  0
   59.4520   28.3510   47.9710 O   0  0  0  0  0  0  0  0  0  0  0  0
   58.8190   29.3940   45.9950 N   0  0  0  0  0  0  0  0  0  0  0  0
   58.6490   30.2970   45.5100 H   0  0  0  0  0  0  0  0  0  0  0  0
   58.3010   28.1600   45.4000 C   0  0  0  0  0  0  0  0  0  0  0  0
   59.1474   27.5404   45.0688 H   0  0  0  0  0  0  0  0  0  0  0  0
   57.7044   27.6347   46.1603 H   0  0  0  0  0  0  0  0  0  0  0  0
   57.3960   28.4520   44.1960 C   0  0  0  0  0  0  0  0  0  0  0  0
   58.0128   28.5007   43.2865 H   0  0  0  0  0  0  0  0  0  0  0  0
   56.6511   27.6466   44.1156 H   0  0  0  0  0  0  0  0  0  0  0  0
   56.6730   29.7530   44.3670 C   0  0  0  0  0  0  0  0  0  0  0  0
   55.5160   29.7610   44.8690 O   0  0  0  0  0  0  0  0  0  0  0  0
   57.3030   30.9700   43.9310 N   0  0  0  0  0  0  0  0  0  0  0  0
   57.6090   31.9960   44.6720 C   0  0  0  0  0  0  0  0  0  0  0  0
   57.3990   31.9850   46.0200 N   0  0  0  0  0  0  0  0  0  0  0  0
   57.6880   33.0600   46.8020 C   0  0  0  0  0  0  0  0  0  0  0  0
   57.5087   33.0157   47.8864 H   0  0  0  0  0  0  0  0  0  0  0  0
   58.2120   34.2190   46.2280 C   0  0  0  0  0  0  0  0  0  0  0  0
   58.4454   35.0925   46.8545 H   0  0  0  0  0  0  0  0  0  0  0  0
   58.4370   34.2590   44.8510 C   0  0  0  0  0  0  0  0  0  0  0  0
   58.8516   35.1655   44.3859 H   0  0  0  0  0  0  0  0  0  0  0  0
   58.1340   33.1440   44.0650 C   0  0  0  0  0  0  0  0  0  0  0  0
   58.3063   33.1677   42.9788 H   0  0  0  0  0  0  0  0  0  0  0  0
   60.4090   31.1930   49.0370 C   0  0  0  0  0  0  0  0  0  0  0  0
   61.0210   30.2900   50.1250 C   0  0  0  0  0  0  0  0  0  0  0  0
   60.7558   30.6814   51.1182 H   0  0  0  0  0  0  0  0  0  0  0  0
   60.6286   29.2681   50.0168 H   0  0  0  0  0  0  0  0  0  0  0  0
   62.1156   30.2759   50.0168 H   0  0  0  0  0  0  0  0  0  0  0  0
   58.9930   31.6600   49.4440 C   0  0  0  0  0  0  0  0  0  0  0  0
   58.9164   31.6853   50.5410 H   0  0  0  0  0  0  0  0  0  0  0  0
   58.8087   32.6665   49.0403 H   0  0  0  0  0  0  0  0  0  0  0  0
   58.2461   30.9606   49.0403 H   0  0  0  0  0  0  0  0  0  0  0  0
   61.3120   32.3550   48.8770 N   0  0  0  0  0  0  0  0  0  0  0  0
   60.8440   33.2600   49.1270 H   0  0  0  0  0  0  0  0  0  0  0  0
   61.7940   32.3500   47.4840 C   0  0  0  0  0  0  0  0  0  0  0  0
   63.3210   32.2000   47.4770 C   0  0  0  0  0  0  0  0  0  0  0  0
   63.6906   32.1637   48.5124 H   0  0  0  0  0  0  0  0  0  0  0  0
   63.5958   31.2705   46.9568 H   0  0  0  0  0  0  0  0  0  0  0  0
   63.7714   33.0582   46.9568 H   0  0  0  0  0  0  0  0  0  0  0  0
   61.3730   33.6280   46.7310 C   0  0  0  0  0  0  0  0  0  0  0  0
   61.1144   34.4129   47.4570 H   0  0  0  0  0  0  0  0  0  0  0  0
   62.2052   33.9724   46.0994 H   0  0  0  0  0  0  0  0  0  0  0  0
   60.4991   33.4104   46.0994 H   0  0  0  0  0  0  0  0  0  0  0  0
  1  2  1  0
  2  3  2  0
  3  4  1  0
  4  5  2  0
  4  6  1  0
  6  7  1  0
  6  8  1  0
  8  9  1  0
  8 10  1  0
  8 11  1  0
 11 12  1  0
 11 13  1  0
 11 14  1  0
 14 15  2  0
 14 16  1  0
 16 17  2  0
 17 18  1  0
 18 19  1  0
 19 20  1  0
 19 21  2  0
 21 22  1  0
 21 23  1  0
 23 24  1  0
 23 25  2  0
 25 26  1  0
  3 27  1  0
 27 28  1  0
 28 29  1  0
 28 30  1  0
 28 31  1  0
 27 32  1  0
 32 33  1  0
 32 34  1  0
 32 35  1  0
 27 36  1  0
 36 37  1  0
 36 38  1  0
 38 39  1  0
 39 40  1  0
 39 41  1  0
 39 42  1  0
 38 43  1  0
 43 44  1  0
 43 45  1  0
 43 46  1  0
 38  2  1  0
 25 17  1  0
M  CHG  1  18  -1
M  END
>  <UniqueID>  (88) 
81

>  <SMILES>  (88) 
CC1(C)C=C(C(=O)NCCC(=O)/N=c2/cccc[n-]2)C(C)(C)N1

>  <Energy>  (88) 
44.920601018670695

>  <Genealogy>  (88) 
CC1(C)C=C(C(=O)NCCC(=O)N=c2cccc[n-]2)C(C)(C)N1 (protonated)
CC1(C)C=C(C(=O)NCCC(=O)/N=c2/cccc[n-]2)C(C)(C)N1 (cis-trans isomerization)
CC1(C)C=C(C(=O)NCCC(=O)/N=c2/cccc[n-]2)C(C)(C)N1 (3D coordinates assigned)
CC1(C)C=C(C(=O)NCCC(=O)/N=c2/cccc[n-]2)C(C)(C)N1 (nonaromatic ring conformer: 44.920601018670695 kcal/mol)

>  <smiles>  (88) 
CC1(C)C=C(C(=O)NCCC(=O)N=c2cccc[nH]2)C(C)(C)N1

>  <score_type>  (88) 
oracle

>  <origin>  (88) 
adg

>  <m_score__min__energy>  (88) 
-9.0800000000000001

>  <m_primary>  (88) 
energy

$$$$
88:0
     RDKit          3D

 56 59  0  0  0  0  0  0  0  0999 V2000
   59.8520   33.0840   51.7970 O   0  0  0  0  0  0  0  0  0  0  0  0
   59.0180   32.9900   50.8560 C   0  0  0  0  0  0  0  0  0  0  0  0
   57.6640   32.6010   51.1430 N   0  0  0  0  0  0  0  0  0  0  0  0
   57.1970   32.3520   52.5040 C   0  0  0  0  0  0  0  0  0  0  0  0
   56.3020   31.1440   52.5290 C   0  0  0  0  0  0  0  0  0  0  0  0
   55.0060   31.2040   51.9870 C   0  0  0  0  0  0  0  0  0  0  0  0
   54.1700   30.0840   52.0400 C   0  0  0  0  0  0  0  0  0  0  0  0
   54.6180   28.9020   52.6360 C   0  0  0  0  0  0  0  0  0  0  0  0
   55.9020   28.8380   53.1860 C   0  0  0  0  0  0  0  0  0  0  0  0
   56.3330   27.6920   53.7690 F   0  0  0  0  0  0  0  0  0  0  0  0
   56.7410   29.9560   53.1360 C   0  0  0  0  0  0  0  0  0  0  0  0
   59.4580   33.2630   49.4660 C   0  0  0  0  0  0  0  0  0  0  0  0
   60.7580   33.7420   49.2230 C   0  0  0  0  0  0  0  0  0  0  0  0
   61.1890   33.9900   47.9180 C   0  0  0  0  0  0  0  0  0  0  0  0
   60.3300   33.7680   46.8410 C   0  0  0  0  0  0  0  0  0  0  0  0
   59.0270   33.3040   47.0650 C   0  0  0  0  0  0  0  0  0  0  0  0
   57.9460   33.0110   45.6990 S   0  0  0  0  0  0  0  0  0  0  0  0
   56.5910   33.5910   46.0010 O   0  0  0  0  0  0  0  0  0  0  0  0
   58.4890   33.7060   44.4820 O   0  0  0  0  0  0  0  0  0  0  0  0
   57.7900   31.3030   45.3660 N   0  0  0  0  0  0  0  0  0  0  0  0
   59.0570   30.6010   45.6660 C   0  0  0  0  0  0  0  0  0  0  0  0
   59.1660   29.2310   44.9640 C   0  0  0  0  0  0  0  0  0  0  0  0
   57.8420   28.7380   44.5620 N   0  0  0  0  0  0  0  0  0  0  0  0
   57.4470   27.3800   44.8330 C   0  0  0  0  0  0  0  0  0  0  0  0
   57.7680   26.3490   43.9320 C   0  0  0  0  0  0  0  0  0  0  0  0
   57.3730   25.0330   44.1950 C   0  0  0  0  0  0  0  0  0  0  0  0
   56.6500   24.7360   45.3510 C   0  0  0  0  0  0  0  0  0  0  0  0
   56.3180   25.7550   46.2480 C   0  0  0  0  0  0  0  0  0  0  0  0
   56.7120   27.0710   45.9910 C   0  0  0  0  0  0  0  0  0  0  0  0
   56.9520   29.6260   43.8000 C   0  0  0  0  0  0  0  0  0  0  0  0
   57.3670   31.0900   43.9740 C   0  0  0  0  0  0  0  0  0  0  0  0
   58.5920   33.0630   48.3760 C   0  0  0  0  0  0  0  0  0  0  0  0
   57.0170   32.3580   50.3610 H   0  0  0  0  0  0  0  0  0  0  0  0
   58.0628   32.1773   53.1597 H   0  0  0  0  0  0  0  0  0  0  0  0
   56.6315   33.2270   52.8569 H   0  0  0  0  0  0  0  0  0  0  0  0
   54.6488   32.1338   51.5203 H   0  0  0  0  0  0  0  0  0  0  0  0
   53.1580   30.1336   51.6118 H   0  0  0  0  0  0  0  0  0  0  0  0
   53.9600   28.0213   52.6725 H   0  0  0  0  0  0  0  0  0  0  0  0
   57.7488   29.9046   53.5739 H   0  0  0  0  0  0  0  0  0  0  0  0
   61.4401   33.9225   50.0669 H   0  0  0  0  0  0  0  0  0  0  0  0
   62.2087   34.3615   47.7386 H   0  0  0  0  0  0  0  0  0  0  0  0
   60.6764   33.9576   45.8143 H   0  0  0  0  0  0  0  0  0  0  0  0
   59.8948   31.2324   45.3352 H   0  0  0  0  0  0  0  0  0  0  0  0
   59.0845   30.4190   46.7505 H   0  0  0  0  0  0  0  0  0  0  0  0
   59.7980   29.3345   44.0696 H   0  0  0  0  0  0  0  0  0  0  0  0
   59.6088   28.5111   45.6680 H   0  0  0  0  0  0  0  0  0  0  0  0
   58.3324   26.5785   43.0161 H   0  0  0  0  0  0  0  0  0  0  0  0
   57.6329   24.2305   43.4890 H   0  0  0  0  0  0  0  0  0  0  0  0
   56.3415   23.7003   45.5562 H   0  0  0  0  0  0  0  0  0  0  0  0
   55.7457   25.5209   47.1577 H   0  0  0  0  0  0  0  0  0  0  0  0
   56.4455   27.8697   46.6989 H   0  0  0  0  0  0  0  0  0  0  0  0
   57.0040   29.3605   42.7338 H   0  0  0  0  0  0  0  0  0  0  0  0
   55.9252   29.5032   44.1750 H   0  0  0  0  0  0  0  0  0  0  0  0
   58.2013   31.3205   43.2952 H   0  0  0  0  0  0  0  0  0  0  0  0
   56.5183   31.7486   43.7375 H   0  0  0  0  0  0  0  0  0  0  0  0
   57.5640   32.7143   48.5536 H   0  0  0  0  0  0  0  0  0  0  0  0
  1  2  2  0
  2  3  1  0
  3  4  1  0
  4  5  1  0
  5  6  2  0
  6  7  1  0
  7  8  2  0
  8  9  1  0
  9 10  1  0
  9 11  2  0
  2 12  1  0
 12 13  2  0
 13 14  1  0
 14 15  2  0
 15 16  1  0
 16 17  1  0
 17 18  2  0
 17 19  2  0
 17 20  1  0
 20 21  1  0
 21 22  1  0
 22 23  1  0
 23 24  1  0
 24 25  2  0
 25 26  1  0
 26 27  2  0
 27 28  1  0
 28 29  2  0
 23 30  1  0
 30 31  1  0
 16 32  2  0
 11  5  1  0
 32 12  1  0
 31 20  1  0
 29 24  1  0
  3 33  1  0
  4 34  1  0
  4 35  1  0
  6 36  1  0
  7 37  1  0
  8 38  1  0
 11 39  1  0
 13 40  1  0
 14 41  1  0
 15 42  1  0
 21 43  1  0
 21 44  1  0
 22 45  1  0
 22 46  1  0
 25 47  1  0
 26 48  1  0
 27 49  1  0
 28 50  1  0
 29 51  1  0
 30 52  1  0
 30 53  1  0
 31 54  1  0
 31 55  1  0
 32 56  1  0
M  END
>  <UniqueID>  (89) 
82

>  <SMILES>  (89) 
O=C(NCc1cccc(F)c1)c1cccc(S(=O)(=O)N2CCN(c3ccccc3)CC2)c1

>  <Energy>  (89) 
67.27777418926321

>  <Genealogy>  (89) 
O=C(NCc1cccc(F)c1)c1cccc(S(=O)(=O)N2CCN(c3ccccc3)CC2)c1 (3D coordinates assigned)
O=C(NCc1cccc(F)c1)c1cccc(S(=O)(=O)N2CCN(c3ccccc3)CC2)c1 (nonaromatic ring conformer: 67.27777418926321 kcal/mol)

>  <smiles>  (89) 
O=C(NCc1cccc(F)c1)c1cccc(S(=O)(=O)N2CCN(c3ccccc3)CC2)c1

>  <score_type>  (89) 
oracle

>  <origin>  (89) 
adg

>  <m_score__min__energy>  (89) 
-9.8499999999999996

>  <m_primary>  (89) 
energy

$$$$
89:0
     RDKit          3D

 35 37  0  0  0  0  0  0  0  0999 V2000
   62.1690   33.8370   46.3740 C   0  0  0  0  0  0  0  0  0  0  0  0
   62.5060   33.1780   47.6860 C   0  0  0  0  0  0  0  0  0  0  0  0
   63.7860   33.3790   48.2330 C   0  0  0  0  0  0  0  0  0  0  0  0
   64.1520   32.7680   49.4340 C   0  0  0  0  0  0  0  0  0  0  0  0
   65.8950   33.0530   50.1600 Br  0  0  0  0  0  0  0  0  0  0  0  0
   63.2450   31.9470   50.1020 C   0  0  0  0  0  0  0  0  0  0  0  0
   61.9760   31.7230   49.5670 C   0  0  0  0  0  0  0  0  0  0  0  0
   61.5960   32.3190   48.3520 C   0  0  0  0  0  0  0  0  0  0  0  0
   60.0010   31.9360   47.6800 S   0  0  0  0  0  0  0  0  0  0  0  0
   59.0470   31.5280   48.7690 O   0  0  0  0  0  0  0  0  0  0  0  0
   59.4540   33.1560   46.9950 O   0  0  0  0  0  0  0  0  0  0  0  0
   60.1190   30.6390   46.5330 N   0  0  0  0  0  0  0  0  0  0  0  0
   59.0050   29.9410   45.9590 C   0  0  0  0  0  0  0  0  0  0  0  0
   58.6260   28.6590   46.3960 C   0  0  0  0  0  0  0  0  0  0  0  0
   57.5620   27.9750   45.7860 C   0  0  0  0  0  0  0  0  0  0  0  0
   57.2190   26.6030   46.2260 C   0  0  0  0  0  0  0  0  0  0  0  0
   58.3410   25.4450   46.7320 S   0  0  0  0  0  0  0  0  0  0  0  0
   57.1600   24.2860   47.0120 C   0  0  0  0  0  0  0  0  0  0  0  0
   57.3910   23.1210   47.4290 O   0  0  0  0  0  0  0  0  0  0  0  0
   55.9190   24.7380   46.7430 N   0  0  0  0  0  0  0  0  0  0  0  0
   55.9460   26.0260   46.3090 C   0  0  0  0  0  0  0  0  0  0  0  0
   54.7760   26.7090   46.0080 O   0  0  0  0  0  0  0  0  0  0  0  0
   56.8640   28.5970   44.7360 C   0  0  0  0  0  0  0  0  0  0  0  0
   57.2210   29.8800   44.3150 C   0  0  0  0  0  0  0  0  0  0  0  0
   58.2860   30.5500   44.9200 C   0  0  0  0  0  0  0  0  0  0  0  0
   58.6370   31.8210   44.4780 O   0  0  0  0  0  0  0  0  0  0  0  0
   61.6757   34.8016   46.5642 H   0  0  0  0  0  0  0  0  0  0  0  0
   63.0923   34.0042   45.7999 H   0  0  0  0  0  0  0  0  0  0  0  0
   61.4929   33.1864   45.7999 H   0  0  0  0  0  0  0  0  0  0  0  0
   64.5064   34.0244   47.7091 H   0  0  0  0  0  0  0  0  0  0  0  0
   63.5304   31.4745   51.0534 H   0  0  0  0  0  0  0  0  0  0  0  0
   61.2663   31.0740   50.1010 H   0  0  0  0  0  0  0  0  0  0  0  0
   59.1702   28.1858   47.2266 H   0  0  0  0  0  0  0  0  0  0  0  0
   56.0329   28.0708   44.2438 H   0  0  0  0  0  0  0  0  0  0  0  0
   56.6601   30.3651   43.5025 H   0  0  0  0  0  0  0  0  0  0  0  0
  1  2  1  0
  2  3  2  0
  3  4  1  0
  4  5  1  0
  4  6  2  0
  6  7  1  0
  7  8  2  0
  8  9  1  0
  9 10  2  0
  9 11  2  0
  9 12  1  0
 12 13  1  0
 13 14  2  0
 14 15  1  0
 15 16  1  0
 16 17  1  0
 17 18  1  0
 18 19  2  0
 18 20  1  0
 20 21  1  0
 21 22  1  0
 15 23  2  0
 23 24  1  0
 24 25  2  0
 25 26  1  0
  8  2  1  0
 25 13  1  0
 21 16  2  0
  1 27  1  0
  1 28  1  0
  1 29  1  0
  3 30  1  0
  6 31  1  0
  7 32  1  0
 14 33  1  0
 23 34  1  0
 24 35  1  0
M  CHG  4  12  -1  20  -1  22  -1  26  -1
M  END
>  <UniqueID>  (90) 
83

>  <SMILES>  (90) 
Cc1cc(Br)ccc1S(=O)(=O)[N-]c1cc(-c2sc(=O)[n-]c2[O-])ccc1[O-]

>  <Energy>  (90) 
75.96919437790316

>  <Genealogy>  (90) 
Cc1cc(Br)ccc1S(=O)(=O)[N-]c1cc(-c2sc(=O)[n-]c2[O-])ccc1[O-] (protonated)
Cc1cc(Br)ccc1S(=O)(=O)[N-]c1cc(-c2sc(=O)[n-]c2[O-])ccc1[O-] (3D coordinates assigned)
Cc1cc(Br)ccc1S(=O)(=O)[N-]c1cc(-c2sc(=O)[n-]c2[O-])ccc1[O-] (optimized conformer: 75.96919437790316 kcal/mol)

>  <smiles>  (90) 
Cc1cc(Br)ccc1S(=O)(=O)Nc1cc(-c2sc(=O)[nH]c2O)ccc1O

>  <score_type>  (90) 
oracle

>  <origin>  (90) 
adg

>  <m_score__min__energy>  (90) 
-16.690000000000001

>  <m_primary>  (90) 
energy

$$$$
90:0
     RDKit          3D

 52 55  0  0  0  0  0  0  0  0999 V2000
   56.0180   26.2810   46.3810 O   0  0  0  0  0  0  0  0  0  0  0  0
   57.2120   26.6380   46.1890 C   0  0  0  0  0  0  0  0  0  0  0  0
   57.6130   27.1900   44.8600 C   0  0  0  0  0  0  0  0  0  0  0  0
   57.5760   28.6860   44.9020 C   0  0  0  0  0  0  0  0  0  0  0  0
   58.9240   29.6850   45.0550 S   0  0  0  0  0  0  0  0  0  0  0  0
   57.9910   31.0880   45.1240 C   0  0  0  0  0  0  0  0  0  0  0  0
   58.5150   32.4150   45.2720 N   0  0  0  0  0  0  0  0  0  0  0  0
   58.5240   33.4000   44.2060 C   0  0  0  0  0  0  0  0  0  0  0  0
   59.0240   34.6890   44.8450 C   0  0  0  0  0  0  0  0  0  0  0  0
   59.6520   34.2850   46.1770 C   0  0  0  0  0  0  0  0  0  0  0  0
   59.0880   32.9090   46.5090 C   0  0  0  0  0  0  0  0  0  0  0  0
   56.6670   30.8190   45.0520 N   0  0  0  0  0  0  0  0  0  0  0  0
   56.4360   29.4860   44.9370 C   0  0  0  0  0  0  0  0  0  0  0  0
   55.1480   28.9720   44.8670 O   0  0  0  0  0  0  0  0  0  0  0  0
   58.1890   26.5240   47.2320 N   0  0  0  0  0  0  0  0  0  0  0  0
   58.9320   27.6050   47.8120 C   0  0  0  0  0  0  0  0  0  0  0  0
   60.2100   27.3470   48.3240 C   0  0  0  0  0  0  0  0  0  0  0  0
   60.9570   28.3700   48.9140 C   0  0  0  0  0  0  0  0  0  0  0  0
   60.4270   29.6650   49.0140 C   0  0  0  0  0  0  0  0  0  0  0  0
   61.2440   30.7700   49.6340 C   0  0  0  0  0  0  0  0  0  0  0  0
   61.2610   31.9700   48.7650 N   0  0  0  0  0  0  0  0  0  0  0  0
   61.8720   33.1460   49.4230 C   0  0  0  0  0  0  0  0  0  0  0  0
   63.4050   32.9990   49.5710 C   0  0  0  0  0  0  0  0  0  0  0  0
   63.9470   31.9720   48.7590 O   0  0  0  0  0  0  0  0  0  0  0  0
   63.4120   32.0540   47.4560 C   0  0  0  0  0  0  0  0  0  0  0  0
   61.9090   31.7040   47.4580 C   0  0  0  0  0  0  0  0  0  0  0  0
   59.1380   29.9200   48.5240 C   0  0  0  0  0  0  0  0  0  0  0  0
   58.3910   28.8960   47.9340 C   0  0  0  0  0  0  0  0  0  0  0  0
   58.6329   26.8563   44.6183 H   0  0  0  0  0  0  0  0  0  0  0  0
   56.9140   26.8302   44.0906 H   0  0  0  0  0  0  0  0  0  0  0  0
   59.1998   33.0848   43.3974 H   0  0  0  0  0  0  0  0  0  0  0  0
   57.5265   33.5267   43.7599 H   0  0  0  0  0  0  0  0  0  0  0  0
   59.7740   35.1693   44.1994 H   0  0  0  0  0  0  0  0  0  0  0  0
   58.2059   35.4102   44.9886 H   0  0  0  0  0  0  0  0  0  0  0  0
   60.7470   34.2366   46.0839 H   0  0  0  0  0  0  0  0  0  0  0  0
   59.4231   35.0149   46.9674 H   0  0  0  0  0  0  0  0  0  0  0  0
   59.8885   32.2392   46.8560 H   0  0  0  0  0  0  0  0  0  0  0  0
   58.3396   32.9586   47.3136 H   0  0  0  0  0  0  0  0  0  0  0  0
   60.6286   26.3317   48.2612 H   0  0  0  0  0  0  0  0  0  0  0  0
   61.9646   28.1590   49.3016 H   0  0  0  0  0  0  0  0  0  0  0  0
   60.8074   31.0372   50.6076 H   0  0  0  0  0  0  0  0  0  0  0  0
   62.2771   30.4137   49.7594 H   0  0  0  0  0  0  0  0  0  0  0  0
   61.6581   34.0408   48.8200 H   0  0  0  0  0  0  0  0  0  0  0  0
   61.4410   33.2318   50.4314 H   0  0  0  0  0  0  0  0  0  0  0  0
   63.8766   33.9524   49.2905 H   0  0  0  0  0  0  0  0  0  0  0  0
   63.6086   32.7304   50.6181 H   0  0  0  0  0  0  0  0  0  0  0  0
   63.5434   33.0779   47.0759 H   0  0  0  0  0  0  0  0  0  0  0  0
   63.9405   31.3358   46.8119 H   0  0  0  0  0  0  0  0  0  0  0  0
   61.4064   32.3064   46.6870 H   0  0  0  0  0  0  0  0  0  0  0  0
   61.8186   30.6266   47.2556 H   0  0  0  0  0  0  0  0  0  0  0  0
   58.7124   30.9311   48.6043 H   0  0  0  0  0  0  0  0  0  0  0  0
   57.3758   29.1018   47.5639 H   0  0  0  0  0  0  0  0  0  0  0  0
  1  2  2  0
  2  3  1  0
  3  4  1  0
  4  5  1  0
  5  6  1  0
  6  7  1  0
  7  8  1  0
  8  9  1  0
  9 10  1  0
 10 11  1  0
  6 12  2  0
 12 13  1  0
 13 14  1  0
  2 15  1  0
 15 16  1  0
 16 17  2  0
 17 18  1  0
 18 19  2  0
 19 20  1  0
 20 21  1  0
 21 22  1  0
 22 23  1  0
 23 24  1  0
 24 25  1  0
 25 26  1  0
 19 27  1  0
 27 28  2  0
 13  4  2  0
 28 16  1  0
 11  7  1  0
 26 21  1  0
  3 29  1  0
  3 30  1  0
  8 31  1  0
  8 32  1  0
  9 33  1  0
  9 34  1  0
 10 35  1  0
 10 36  1  0
 11 37  1  0
 11 38  1  0
 17 39  1  0
 18 40  1  0
 20 41  1  0
 20 42  1  0
 22 43  1  0
 22 44  1  0
 23 45  1  0
 23 46  1  0
 25 47  1  0
 25 48  1  0
 26 49  1  0
 26 50  1  0
 27 51  1  0
 28 52  1  0
M  CHG  2  14  -1  15  -1
M  END
>  <UniqueID>  (91) 
84

>  <SMILES>  (91) 
O=C(Cc1sc(N2CCCC2)nc1[O-])[N-]c1ccc(CN2CCOCC2)cc1

>  <Energy>  (91) 
95.77323456764617

>  <Genealogy>  (91) 
O=C(Cc1sc(N2CCCC2)nc1[O-])[N-]c1ccc(CN2CCOCC2)cc1 (protonated)
O=C(Cc1sc(N2CCCC2)nc1[O-])[N-]c1ccc(CN2CCOCC2)cc1 (3D coordinates assigned)
O=C(Cc1sc(N2CCCC2)nc1[O-])[N-]c1ccc(CN2CCOCC2)cc1 (nonaromatic ring conformer: 95.77323456764617 kcal/mol)

>  <smiles>  (91) 
O=C(Cc1sc(N2CCCC2)nc1O)Nc1ccc(CN2CCOCC2)cc1

>  <score_type>  (91) 
oracle

>  <origin>  (91) 
adg

>  <m_score__min__energy>  (91) 
-13.43

>  <m_primary>  (91) 
energy

$$$$
