0:0
     RDKit          3D

 77 81  0  0  0  0  0  0  0  0999 V2000
   56.1350   26.6450   45.0260 H   0  0  0  0  0  0  0  0  0  0  0  0
   56.1290   27.4670   45.6190 O   0  0  0  0  0  0  0  0  0  0  0  0
   56.5820   28.7040   45.1580 C   0  0  0  0  0  0  0  0  0  0  0  0
   55.6860   29.5930   44.5530 C   0  0  0  0  0  0  0  0  0  0  0  0
   54.6297   29.3094   44.4360 H   0  0  0  0  0  0  0  0  0  0  0  0
   56.1250   30.8380   44.0970 C   0  0  0  0  0  0  0  0  0  0  0  0
   55.4104   31.5285   43.6253 H   0  0  0  0  0  0  0  0  0  0  0  0
   57.4690   31.2160   44.2350 C   0  0  0  0  0  0  0  0  0  0  0  0
   57.9150   32.5450   43.7460 C   0  0  0  0  0  0  0  0  0  0  0  0
   58.1320   32.7040   42.5140 O   0  0  0  0  0  0  0  0  0  0  0  0
   58.1370   33.6760   44.6770 C   0  0  0  0  0  0  0  0  0  0  0  0
   57.2731   34.1066   45.2045 H   0  0  0  0  0  0  0  0  0  0  0  0
   59.3540   34.1930   44.8990 C   0  0  0  0  0  0  0  0  0  0  0  0
   59.8953   34.6374   44.0507 H   0  0  0  0  0  0  0  0  0  0  0  0
   60.0070   34.1960   46.2300 C   0  0  0  0  0  0  0  0  0  0  0  0
   59.2260   34.4720   47.3630 C   0  0  0  0  0  0  0  0  0  0  0  0
   58.1505   34.6725   47.2489 H   0  0  0  0  0  0  0  0  0  0  0  0
   59.8040   34.4940   48.6340 C   0  0  0  0  0  0  0  0  0  0  0  0
   59.1839   34.7237   49.5131 H   0  0  0  0  0  0  0  0  0  0  0  0
   61.1650   34.2260   48.7950 C   0  0  0  0  0  0  0  0  0  0  0  0
   61.7230   34.2700   50.0690 O   0  0  0  0  0  0  0  0  0  0  0  0
   61.9580   33.9120   47.6760 C   0  0  0  0  0  0  0  0  0  0  0  0
   63.4340   33.6330   47.8350 C   0  0  0  0  0  0  0  0  0  0  0  0
   63.9190   33.6869   46.8491 H   0  0  0  0  0  0  0  0  0  0  0  0
   63.8623   34.3837   48.5154 H   0  0  0  0  0  0  0  0  0  0  0  0
   63.6580   32.2900   48.4120 N   0  0  0  0  0  0  0  0  0  0  0  0
   64.6520   32.3340   49.5200 C   0  0  0  0  0  0  0  0  0  0  0  0
   65.2895   31.4398   49.4568 H   0  0  0  0  0  0  0  0  0  0  0  0
   65.2366   33.2588   49.4059 H   0  0  0  0  0  0  0  0  0  0  0  0
   63.9920   32.3700   50.9060 C   0  0  0  0  0  0  0  0  0  0  0  0
   64.7760   32.4113   51.6765 H   0  0  0  0  0  0  0  0  0  0  0  0
   63.3471   33.2593   50.9633 H   0  0  0  0  0  0  0  0  0  0  0  0
   63.1240   31.1200   51.1380 C   0  0  0  0  0  0  0  0  0  0  0  0
   63.7376   30.3515   51.6308 H   0  0  0  0  0  0  0  0  0  0  0  0
   62.2695   31.4190   51.7628 H   0  0  0  0  0  0  0  0  0  0  0  0
   62.5630   30.5380   49.8290 C   0  0  0  0  0  0  0  0  0  0  0  0
   63.2646   29.7858   49.4393 H   0  0  0  0  0  0  0  0  0  0  0  0
   61.5856   30.0790   50.0385 H   0  0  0  0  0  0  0  0  0  0  0  0
   62.3730   31.6380   48.7800 C   0  0  0  0  0  0  0  0  0  0  0  0
   61.9296   31.1936   47.8767 H   0  0  0  0  0  0  0  0  0  0  0  0
   61.7152   32.4068   49.2116 H   0  0  0  0  0  0  0  0  0  0  0  0
   61.3740   33.9010   46.3980 C   0  0  0  0  0  0  0  0  0  0  0  0
   61.9907   33.6595   45.5197 H   0  0  0  0  0  0  0  0  0  0  0  0
   58.3650   30.3280   44.8590 C   0  0  0  0  0  0  0  0  0  0  0  0
   59.4152   30.6243   44.9976 H   0  0  0  0  0  0  0  0  0  0  0  0
   57.9350   29.0680   45.3070 C   0  0  0  0  0  0  0  0  0  0  0  0
   58.9240   28.1510   45.9870 C   0  0  0  0  0  0  0  0  0  0  0  0
   58.5828   27.1105   45.8827 H   0  0  0  0  0  0  0  0  0  0  0  0
   59.9086   28.2784   45.5134 H   0  0  0  0  0  0  0  0  0  0  0  0
   59.0400   28.4820   47.4220 N   0  0  0  0  0  0  0  0  0  0  0  0
   60.0270   27.6050   48.0930 C   0  0  0  0  0  0  0  0  0  0  0  0
   59.6148   26.5870   48.1549 H   0  0  0  0  0  0  0  0  0  0  0  0
   60.9551   27.6203   47.5028 H   0  0  0  0  0  0  0  0  0  0  0  0
   60.3560   28.0980   49.5170 C   0  0  0  0  0  0  0  0  0  0  0  0
   60.3516   27.2415   50.2073 H   0  0  0  0  0  0  0  0  0  0  0  0
   61.3484   28.5725   49.5103 H   0  0  0  0  0  0  0  0  0  0  0  0
   59.3560   29.0860   49.9620 N   0  0  0  0  0  0  0  0  0  0  0  0
   59.5710   29.4700   51.3720 C   0  0  0  0  0  0  0  0  0  0  0  0
   59.0399   28.7623   52.0255 H   0  0  0  0  0  0  0  0  0  0  0  0
   60.6494   29.4471   51.5878 H   0  0  0  0  0  0  0  0  0  0  0  0
   59.0510   30.8640   51.6220 C   0  0  0  0  0  0  0  0  0  0  0  0
   59.9510   31.9420   51.6560 C   0  0  0  0  0  0  0  0  0  0  0  0
   61.0275   31.7604   51.5213 H   0  0  0  0  0  0  0  0  0  0  0  0
   59.4860   33.2440   51.8600 C   0  0  0  0  0  0  0  0  0  0  0  0
   60.1966   34.0833   51.8859 H   0  0  0  0  0  0  0  0  0  0  0  0
   58.1210   33.4810   52.0310 C   0  0  0  0  0  0  0  0  0  0  0  0
   57.7574   34.5066   52.1919 H   0  0  0  0  0  0  0  0  0  0  0  0
   57.2160   32.4170   51.9980 C   0  0  0  0  0  0  0  0  0  0  0  0
   56.1410   32.6060   52.1349 H   0  0  0  0  0  0  0  0  0  0  0  0
   57.6750   31.1110   51.7910 C   0  0  0  0  0  0  0  0  0  0  0  0
   56.7760   30.0960   51.7470 F   0  0  0  0  0  0  0  0  0  0  0  0
   59.4060   30.2800   49.0910 C   0  0  0  0  0  0  0  0  0  0  0  0
   58.5227   30.9044   49.2909 H   0  0  0  0  0  0  0  0  0  0  0  0
   60.3340   30.8275   49.3125 H   0  0  0  0  0  0  0  0  0  0  0  0
   59.4190   29.8960   47.5970 C   0  0  0  0  0  0  0  0  0  0  0  0
   58.7043   30.5318   47.0540 H   0  0  0  0  0  0  0  0  0  0  0  0
   60.4350   30.0427   47.2017 H   0  0  0  0  0  0  0  0  0  0  0  0
  1  2  1  0
  2  3  1  0
  3  4  2  0
  4  5  1  0
  4  6  1  0
  6  7  1  0
  6  8  2  0
  8  9  1  0
  9 10  2  0
  9 11  1  0
 11 12  1  0
 11 13  2  0
 13 14  1  0
 13 15  1  0
 15 16  2  0
 16 17  1  0
 16 18  1  0
 18 19  1  0
 18 20  2  0
 20 21  1  0
 20 22  1  0
 22 23  1  0
 23 24  1  0
 23 25  1  0
 23 26  1  0
 26 27  1  0
 27 28  1  0
 27 29  1  0
 27 30  1  0
 30 31  1  0
 30 32  1  0
 30 33  1  0
 33 34  1  0
 33 35  1  0
 33 36  1  0
 36 37  1  0
 36 38  1  0
 36 39  1  0
 39 40  1  0
 39 41  1  0
 22 42  2  0
 42 43  1  0
  8 44  1  0
 44 45  1  0
 44 46  2  0
 46 47  1  0
 47 48  1  0
 47 49  1  0
 47 50  1  0
 50 51  1  0
 51 52  1  0
 51 53  1  0
 51 54  1  0
 54 55  1  0
 54 56  1  0
 54 57  1  0
 57 58  1  0
 58 59  1  0
 58 60  1  0
 58 61  1  0
 61 62  2  0
 62 63  1  0
 62 64  1  0
 64 65  1  0
 64 66  2  0
 66 67  1  0
 66 68  1  0
 68 69  1  0
 68 70  2  0
 70 71  1  0
 57 72  1  0
 72 73  1  0
 72 74  1  0
 72 75  1  0
 75 76  1  0
 75 77  1  0
 46  3  1  0
 75 50  1  0
 42 15  1  0
 70 61  1  0
 39 26  1  0
M  CHG  1  21  -1
M  END
>  <UniqueID>  (1) 
1

>  <SMILES>  (1) 
O=C(/C=C/c1ccc([O-])c(CN2CCCCC2)c1)c1ccc(O)c(CN2CCN(Cc3ccccc3F)CC2)c1

>  <Energy>  (1) 
101.95759100253203

>  <Genealogy>  (1) 
O=C(C=Cc1ccc([O-])c(CN2CCCCC2)c1)c1ccc(O)c(CN2CCN(Cc3ccccc3F)CC2)c1 (protonated)
O=C(/C=C/c1ccc([O-])c(CN2CCCCC2)c1)c1ccc(O)c(CN2CCN(Cc3ccccc3F)CC2)c1 (cis-trans isomerization)
O=C(/C=C/c1ccc([O-])c(CN2CCCCC2)c1)c1ccc(O)c(CN2CCN(Cc3ccccc3F)CC2)c1 (3D coordinates assigned)
O=C(/C=C/c1ccc([O-])c(CN2CCCCC2)c1)c1ccc(O)c(CN2CCN(Cc3ccccc3F)CC2)c1 (nonaromatic ring conformer: 101.95759100253203 kcal/mol)

>  <smiles>  (1) 
O=C(C=Cc1ccc(O)c(CN2CCCCC2)c1)c1ccc(O)c(CN2CCN(Cc3ccccc3F)CC2)c1

>  <score_type>  (1) 
oracle

>  <origin>  (1) 
adg

>  <m_score__min__energy>  (1) 
-13.43

>  <m_primary>  (1) 
energy

$$$$
1:0
     RDKit          3D

 58 62  0  0  0  0  0  0  0  0999 V2000
   58.9300   30.8900   45.5350 C   0  0  0  0  0  0  0  0  0  0  0  0
   58.7870   30.2400   46.7020 C   0  0  0  0  0  0  0  0  0  0  0  0
   58.6270   28.8570   46.8840 C   0  0  0  0  0  0  0  0  0  0  0  0
   58.3930   27.8670   46.0000 C   0  0  0  0  0  0  0  0  0  0  0  0
   57.2030   27.0000   45.9710 C   0  0  0  0  0  0  0  0  0  0  0  0
   57.1830   25.7520   46.4740 N   0  0  0  0  0  0  0  0  0  0  0  0
   55.8850   25.3920   46.3670 C   0  0  0  0  0  0  0  0  0  0  0  0
   55.4630   24.2600   46.7260 O   0  0  0  0  0  0  0  0  0  0  0  0
   55.0730   26.3430   45.8600 N   0  0  0  0  0  0  0  0  0  0  0  0
   55.9190   27.3610   45.6310 C   0  0  0  0  0  0  0  0  0  0  0  0
   55.5210   28.6010   45.1490 O   0  0  0  0  0  0  0  0  0  0  0  0
   58.7370   28.6310   48.2460 C   0  0  0  0  0  0  0  0  0  0  0  0
   58.8810   29.8630   48.8450 C   0  0  0  0  0  0  0  0  0  0  0  0
   58.9910   30.0860   50.2970 C   0  0  0  0  0  0  0  0  0  0  0  0
   57.9620   30.4440   50.9310 O   0  0  0  0  0  0  0  0  0  0  0  0
   60.2180   29.8200   51.0090 N   0  0  0  0  0  0  0  0  0  0  0  0
   61.4910   29.7390   50.2840 C   0  0  0  0  0  0  0  0  0  0  0  0
   62.6630   29.9400   51.2480 C   0  0  0  0  0  0  0  0  0  0  0  0
   62.5590   29.0600   52.3470 O   0  0  0  0  0  0  0  0  0  0  0  0
   61.4310   29.4100   53.1240 C   0  0  0  0  0  0  0  0  0  0  0  0
   60.1330   29.1960   52.3360 C   0  0  0  0  0  0  0  0  0  0  0  0
   58.9170   30.8430   47.9120 N   0  0  0  0  0  0  0  0  0  0  0  0
   59.1260   32.2760   48.1800 C   0  0  0  0  0  0  0  0  0  0  0  0
   60.5210   32.5500   48.6900 C   0  0  0  0  0  0  0  0  0  0  0  0
   61.6500   32.3440   47.8830 C   0  0  0  0  0  0  0  0  0  0  0  0
   62.9250   32.6040   48.3830 C   0  0  0  0  0  0  0  0  0  0  0  0
   63.0760   33.0510   49.7060 C   0  0  0  0  0  0  0  0  0  0  0  0
   64.4260   33.3360   50.2520 C   0  0  0  0  0  0  0  0  0  0  0  0
   64.5890   34.2140   51.3410 C   0  0  0  0  0  0  0  0  0  0  0  0
   65.8630   34.4710   51.8570 C   0  0  0  0  0  0  0  0  0  0  0  0
   66.9860   33.8620   51.2910 C   0  0  0  0  0  0  0  0  0  0  0  0
   66.8350   32.9930   50.2070 C   0  0  0  0  0  0  0  0  0  0  0  0
   65.5630   32.7270   49.6890 C   0  0  0  0  0  0  0  0  0  0  0  0
   61.9660   33.2130   50.4890 N   0  0  0  0  0  0  0  0  0  0  0  0
   60.7140   32.9710   50.0130 C   0  0  0  0  0  0  0  0  0  0  0  0
   59.0481   31.9836   45.5254 H   0  0  0  0  0  0  0  0  0  0  0  0
   58.9290   30.3286   44.5890 H   0  0  0  0  0  0  0  0  0  0  0  0
   59.1597   27.6908   45.2312 H   0  0  0  0  0  0  0  0  0  0  0  0
   58.7138   27.6547   48.7523 H   0  0  0  0  0  0  0  0  0  0  0  0
   61.5765   28.7503   49.8095 H   0  0  0  0  0  0  0  0  0  0  0  0
   61.5179   30.5275   49.5175 H   0  0  0  0  0  0  0  0  0  0  0  0
   63.6060   29.7446   50.7164 H   0  0  0  0  0  0  0  0  0  0  0  0
   62.6431   30.9752   51.6195 H   0  0  0  0  0  0  0  0  0  0  0  0
   61.4096   28.7850   54.0290 H   0  0  0  0  0  0  0  0  0  0  0  0
   61.5067   30.4741   53.3922 H   0  0  0  0  0  0  0  0  0  0  0  0
   59.9579   28.1167   52.2162 H   0  0  0  0  0  0  0  0  0  0  0  0
   59.3040   29.6598   52.8906 H   0  0  0  0  0  0  0  0  0  0  0  0
   58.9697   32.8396   47.2484 H   0  0  0  0  0  0  0  0  0  0  0  0
   58.4097   32.5887   48.9541 H   0  0  0  0  0  0  0  0  0  0  0  0
   61.5288   31.9765   46.8533 H   0  0  0  0  0  0  0  0  0  0  0  0
   63.8089   32.4597   47.7443 H   0  0  0  0  0  0  0  0  0  0  0  0
   63.7094   34.7002   51.7881 H   0  0  0  0  0  0  0  0  0  0  0  0
   65.9814   35.1544   52.7108 H   0  0  0  0  0  0  0  0  0  0  0  0
   67.9873   34.0662   51.6980 H   0  0  0  0  0  0  0  0  0  0  0  0
   67.7196   32.5164   49.7594 H   0  0  0  0  0  0  0  0  0  0  0  0
   65.4511   32.0390   48.8381 H   0  0  0  0  0  0  0  0  0  0  0  0
   62.0610   33.5550   51.4720 H   0  0  0  0  0  0  0  0  0  0  0  0
   59.8448   33.1072   50.6733 H   0  0  0  0  0  0  0  0  0  0  0  0
  1  2  2  0
  2  3  1  0
  3  4  2  3
  4  5  1  0
  5  6  1  0
  6  7  1  0
  7  8  2  0
  7  9  1  0
  9 10  1  0
 10 11  1  0
  3 12  1  0
 12 13  2  0
 13 14  1  0
 14 15  2  0
 14 16  1  0
 16 17  1  0
 17 18  1  0
 18 19  1  0
 19 20  1  0
 20 21  1  0
 13 22  1  0
 22 23  1  0
 23 24  1  0
 24 25  2  0
 25 26  1  0
 26 27  2  0
 27 28  1  0
 28 29  2  0
 29 30  1  0
 30 31  2  0
 31 32  1  0
 32 33  2  0
 27 34  1  0
 34 35  2  0
 22  2  1  0
 35 24  1  0
 10  5  2  0
 21 16  1  0
 33 28  1  0
  1 36  1  0
  1 37  1  0
  4 38  1  0
 12 39  1  0
 17 40  1  0
 17 41  1  0
 18 42  1  0
 18 43  1  0
 20 44  1  0
 20 45  1  0
 21 46  1  0
 21 47  1  0
 23 48  1  0
 23 49  1  0
 25 50  1  0
 26 51  1  0
 29 52  1  0
 30 53  1  0
 31 54  1  0
 32 55  1  0
 33 56  1  0
 34 57  1  0
 35 58  1  0
M  CHG  4   6  -1   9  -1  11  -1  34   1
M  END
>  <UniqueID>  (2) 
2

>  <SMILES>  (2) 
C=c1c(=Cc2[n-]c(=O)[n-]c2[O-])cc(C(=O)N2CCOCC2)n1Cc1ccc(-c2ccccc2)[nH+]c1

>  <Energy>  (2) 
148.57637830369947

>  <Genealogy>  (2) 
C=c1c(=Cc2[n-]c(=O)[n-]c2[O-])cc(C(=O)N2CCOCC2)n1Cc1ccc(-c2ccccc2)[nH+]c1 (protonated)
C=c1c(=Cc2[n-]c(=O)[n-]c2[O-])cc(C(=O)N2CCOCC2)n1Cc1ccc(-c2ccccc2)[nH+]c1 (3D coordinates assigned)
C=c1c(=Cc2[n-]c(=O)[n-]c2[O-])cc(C(=O)N2CCOCC2)n1Cc1ccc(-c2ccccc2)[nH+]c1 (nonaromatic ring conformer: 148.57637830369947 kcal/mol)

>  <smiles>  (2) 
C=c1c(=Cc2[nH]c(=O)[nH]c2O)cc(C(=O)N2CCOCC2)n1Cc1ccc(-c2ccccc2)nc1

>  <score_type>  (2) 
oracle

>  <origin>  (2) 
adg

>  <m_score__min__energy>  (2) 
-16.59

>  <m_primary>  (2) 
energy

$$$$
2:0
     RDKit          3D

 52 55  0  0  0  0  0  0  0  0999 V2000
   53.2544   28.1157   54.5785 H   0  0  0  0  0  0  0  0  0  0  0  0
   53.8680   28.6620   53.8470 C   0  0  0  0  0  0  0  0  0  0  0  0
   55.3000   28.8550   54.1750 C   0  0  0  0  0  0  0  0  0  0  0  0
   55.7560   28.3030   55.2120 O   0  0  0  0  0  0  0  0  0  0  0  0
   56.2160   29.6530   53.3290 C   0  0  0  0  0  0  0  0  0  0  0  0
   55.8760   30.9760   53.0080 C   0  0  0  0  0  0  0  0  0  0  0  0
   55.0134   31.4531   53.4962 H   0  0  0  0  0  0  0  0  0  0  0  0
   56.6270   31.6900   52.0720 C   0  0  0  0  0  0  0  0  0  0  0  0
   56.3399   32.7196   51.8123 H   0  0  0  0  0  0  0  0  0  0  0  0
   57.7460   31.1030   51.4600 C   0  0  0  0  0  0  0  0  0  0  0  0
   58.4750   31.8150   50.3830 C   0  0  0  0  0  0  0  0  0  0  0  0
   58.9590   33.1200   50.5850 C   0  0  0  0  0  0  0  0  0  0  0  0
   58.7729   33.6311   51.5411 H   0  0  0  0  0  0  0  0  0  0  0  0
   59.6750   33.7700   49.5770 C   0  0  0  0  0  0  0  0  0  0  0  0
   60.0411   34.7946   49.7389 H   0  0  0  0  0  0  0  0  0  0  0  0
   59.9280   33.1250   48.3650 C   0  0  0  0  0  0  0  0  0  0  0  0
   60.4847   33.6457   47.5719 H   0  0  0  0  0  0  0  0  0  0  0  0
   59.4730   31.8120   48.1560 C   0  0  0  0  0  0  0  0  0  0  0  0
   59.7230   31.1050   46.8810 C   0  0  0  0  0  0  0  0  0  0  0  0
   60.3044   30.1721   46.9222 H   0  0  0  0  0  0  0  0  0  0  0  0
   59.2940   31.5160   45.6780 C   0  0  0  0  0  0  0  0  0  0  0  0
   59.8306   32.3524   45.2063 H   0  0  0  0  0  0  0  0  0  0  0  0
   58.1550   30.9310   44.9370 C   0  0  0  0  0  0  0  0  0  0  0  0
   57.7490   31.4430   43.6890 C   0  0  0  0  0  0  0  0  0  0  0  0
   58.2704   32.3096   43.2565 H   0  0  0  0  0  0  0  0  0  0  0  0
   56.6860   30.8540   42.9980 C   0  0  0  0  0  0  0  0  0  0  0  0
   56.3624   31.2673   42.0313 H   0  0  0  0  0  0  0  0  0  0  0  0
   56.0340   29.7400   43.5350 C   0  0  0  0  0  0  0  0  0  0  0  0
   55.1921   29.2826   42.9946 H   0  0  0  0  0  0  0  0  0  0  0  0
   56.4510   29.2070   44.7580 C   0  0  0  0  0  0  0  0  0  0  0  0
   55.8240   28.1200   45.2710 F   0  0  0  0  0  0  0  0  0  0  0  0
   57.5140   29.7940   45.4520 C   0  0  0  0  0  0  0  0  0  0  0  0
   57.8493   29.3621   46.4065 H   0  0  0  0  0  0  0  0  0  0  0  0
   58.7270   31.1740   49.1560 C   0  0  0  0  0  0  0  0  0  0  0  0
   58.3344   30.1617   48.9800 H   0  0  0  0  0  0  0  0  0  0  0  0
   58.1350   29.8100   51.8460 C   0  0  0  0  0  0  0  0  0  0  0  0
   59.0414   29.3615   51.4132 H   0  0  0  0  0  0  0  0  0  0  0  0
   57.3810   29.0880   52.7750 C   0  0  0  0  0  0  0  0  0  0  0  0
   57.7880   27.8060   53.1300 O   0  0  0  0  0  0  0  0  0  0  0  0
   53.2530   29.0970   52.7320 C   0  0  0  0  0  0  0  0  0  0  0  0
   53.3901   28.5082   51.8130 H   0  0  0  0  0  0  0  0  0  0  0  0
   52.4080   30.3050   52.6490 C   0  0  0  0  0  0  0  0  0  0  0  0
   51.9240   30.9330   53.8090 C   0  0  0  0  0  0  0  0  0  0  0  0
   52.1369   30.4989   54.7971 H   0  0  0  0  0  0  0  0  0  0  0  0
   51.1720   32.1090   53.7110 C   0  0  0  0  0  0  0  0  0  0  0  0
   50.8083   32.6057   54.6226 H   0  0  0  0  0  0  0  0  0  0  0  0
   50.8820   32.6540   52.4560 C   0  0  0  0  0  0  0  0  0  0  0  0
   50.1520   33.8330   52.3660 O   0  0  0  0  0  0  0  0  0  0  0  0
   51.3270   32.0100   51.2950 C   0  0  0  0  0  0  0  0  0  0  0  0
   51.0340   32.5430   50.0450 O   0  0  0  0  0  0  0  0  0  0  0  0
   52.0750   30.8310   51.3910 C   0  0  0  0  0  0  0  0  0  0  0  0
   52.4032   30.3145   50.4769 H   0  0  0  0  0  0  0  0  0  0  0  0
  1  2  1  0
  2  3  1  0
  3  4  2  0
  3  5  1  0
  5  6  2  0
  6  7  1  0
  6  8  1  0
  8  9  1  0
  8 10  2  0
 10 11  1  0
 11 12  2  0
 12 13  1  0
 12 14  1  0
 14 15  1  0
 14 16  2  0
 16 17  1  0
 16 18  1  0
 18 19  1  0
 19 20  1  0
 19 21  2  0
 21 22  1  0
 21 23  1  0
 23 24  2  0
 24 25  1  0
 24 26  1  0
 26 27  1  0
 26 28  2  0
 28 29  1  0
 28 30  1  0
 30 31  1  0
 30 32  2  0
 32 33  1  0
 18 34  2  0
 34 35  1  0
 10 36  1  0
 36 37  1  0
 36 38  2  0
 38 39  1  0
  2 40  2  0
 40 41  1  0
 40 42  1  0
 42 43  2  0
 43 44  1  0
 43 45  1  0
 45 46  1  0
 45 47  2  0
 47 48  1  0
 47 49  1  0
 49 50  1  0
 49 51  2  0
 51 52  1  0
 38  5  1  0
 51 42  1  0
 34 11  1  0
 32 23  1  0
M  CHG  3  39  -1  48  -1  50  -1
M  END
>  <UniqueID>  (3) 
3

>  <SMILES>  (3) 
O=C(/C=C\c1ccc([O-])c([O-])c1)c1ccc(-c2cccc(/C=C\c3cccc(F)c3)c2)cc1[O-]

>  <Energy>  (3) 
82.89726590799025

>  <Genealogy>  (3) 
O=C(C=Cc1ccc([O-])c([O-])c1)c1ccc(-c2cccc(C=Cc3cccc(F)c3)c2)cc1[O-] (protonated)
O=C(/C=C\c1ccc([O-])c([O-])c1)c1ccc(-c2cccc(/C=C\c3cccc(F)c3)c2)cc1[O-] (cis-trans isomerization)
O=C(/C=C\c1ccc([O-])c([O-])c1)c1ccc(-c2cccc(/C=C\c3cccc(F)c3)c2)cc1[O-] (3D coordinates assigned)
O=C(/C=C\c1ccc([O-])c([O-])c1)c1ccc(-c2cccc(/C=C\c3cccc(F)c3)c2)cc1[O-] (optimized conformer: 82.89726590799025 kcal/mol)

>  <smiles>  (3) 
O=C(C=Cc1ccc(O)c(O)c1)c1ccc(-c2cccc(C=Cc3cccc(F)c3)c2)cc1O

>  <score_type>  (3) 
oracle

>  <origin>  (3) 
adg

>  <m_score__min__energy>  (3) 
-19.920000000000002

>  <m_primary>  (3) 
energy

$$$$
3:0
     RDKit          3D

 72 75  0  0  0  0  0  0  0  0999 V2000
   58.5000   34.5870   52.7670 C   0  0  0  0  0  0  0  0  0  0  0  0
   59.5590   34.0020   52.0090 O   0  0  0  0  0  0  0  0  0  0  0  0
   59.4250   33.4910   50.7040 C   0  0  0  0  0  0  0  0  0  0  0  0
   59.8560   34.2140   49.5750 C   0  0  0  0  0  0  0  0  0  0  0  0
   59.7590   33.6710   48.2810 C   0  0  0  0  0  0  0  0  0  0  0  0
   60.2690   34.4870   47.1220 C   0  0  0  0  0  0  0  0  0  0  0  0
   59.2470   32.3580   48.1150 C   0  0  0  0  0  0  0  0  0  0  0  0
   59.2980   31.6080   46.7970 C   0  0  0  0  0  0  0  0  0  0  0  0
   60.4780   30.7420   46.7700 N   0  0  0  0  0  0  0  0  0  0  0  0
   60.6020   29.6810   45.7560 C   0  0  0  0  0  0  0  0  0  0  0  0
   59.4260   28.7410   45.8270 C   0  0  0  0  0  0  0  0  0  0  0  0
   59.0470   28.1840   47.0590 C   0  0  0  0  0  0  0  0  0  0  0  0
   58.0330   27.2250   47.1200 C   0  0  0  0  0  0  0  0  0  0  0  0
   57.3940   26.8000   45.9500 C   0  0  0  0  0  0  0  0  0  0  0  0
   56.1070   25.6000   46.0480 S   0  0  0  0  0  0  0  0  0  0  0  0
   56.2570   24.4640   44.6840 C   0  0  0  0  0  0  0  0  0  0  0  0
   54.7720   26.2880   45.9960 O   0  0  0  0  0  0  0  0  0  0  0  0
   56.2040   24.8370   47.3390 O   0  0  0  0  0  0  0  0  0  0  0  0
   57.7660   27.3570   44.7180 C   0  0  0  0  0  0  0  0  0  0  0  0
   58.7820   28.3170   44.6540 C   0  0  0  0  0  0  0  0  0  0  0  0
   61.5990   31.0440   47.6140 C   0  0  0  0  0  0  0  0  0  0  0  0
   62.5540   31.9110   47.1790 N   0  0  0  0  0  0  0  0  0  0  0  0
   63.5670   32.3040   47.9980 C   0  0  0  0  0  0  0  0  0  0  0  0
   63.6250   31.8310   49.3110 C   0  0  0  0  0  0  0  0  0  0  0  0
   64.6490   32.2770   50.2130 N   0  0  0  0  0  0  0  0  0  0  0  0
   64.8280   33.7100   50.4790 C   0  0  0  0  0  0  0  0  0  0  0  0
   65.8470   33.9280   51.6080 C   0  0  0  0  0  0  0  0  0  0  0  0
   67.1190   33.1920   51.3780 N   0  0  0  0  0  0  0  0  0  0  0  0
   68.0570   33.9880   50.5600 C   0  0  0  0  0  0  0  0  0  0  0  0
   66.9620   31.8180   50.8300 C   0  0  0  0  0  0  0  0  0  0  0  0
   65.5170   31.3060   50.8840 C   0  0  0  0  0  0  0  0  0  0  0  0
   62.6560   30.9090   49.7240 C   0  0  0  0  0  0  0  0  0  0  0  0
   61.6560   30.5490   48.8810 N   0  0  0  0  0  0  0  0  0  0  0  0
   58.7700   31.6660   49.2400 C   0  0  0  0  0  0  0  0  0  0  0  0
   58.8520   32.2200   50.5260 C   0  0  0  0  0  0  0  0  0  0  0  0
   58.4120   31.4190   51.7220 C   0  0  0  0  0  0  0  0  0  0  0  0
   58.7100   34.4710   53.8405 H   0  0  0  0  0  0  0  0  0  0  0  0
   58.4213   35.6565   52.5223 H   0  0  0  0  0  0  0  0  0  0  0  0
   57.5527   34.0842   52.5223 H   0  0  0  0  0  0  0  0  0  0  0  0
   60.2762   35.2219   49.7075 H   0  0  0  0  0  0  0  0  0  0  0  0
   60.8160   35.3623   47.5024 H   0  0  0  0  0  0  0  0  0  0  0  0
   60.9433   33.8713   46.5087 H   0  0  0  0  0  0  0  0  0  0  0  0
   59.4201   34.8233   46.5087 H   0  0  0  0  0  0  0  0  0  0  0  0
   58.3912   30.9946   46.6895 H   0  0  0  0  0  0  0  0  0  0  0  0
   59.3551   32.3292   45.9683 H   0  0  0  0  0  0  0  0  0  0  0  0
   60.6395   30.1386   44.7564 H   0  0  0  0  0  0  0  0  0  0  0  0
   61.5236   29.1120   45.9482 H   0  0  0  0  0  0  0  0  0  0  0  0
   59.5518   28.5049   47.9821 H   0  0  0  0  0  0  0  0  0  0  0  0
   57.7359   26.8025   48.0912 H   0  0  0  0  0  0  0  0  0  0  0  0
   56.3918   23.4429   45.0703 H   0  0  0  0  0  0  0  0  0  0  0  0
   55.3455   24.5062   44.0697 H   0  0  0  0  0  0  0  0  0  0  0  0
   57.1263   24.7414   44.0697 H   0  0  0  0  0  0  0  0  0  0  0  0
   57.2564   27.0375   43.7970 H   0  0  0  0  0  0  0  0  0  0  0  0
   59.0767   28.7403   43.6824 H   0  0  0  0  0  0  0  0  0  0  0  0
   64.3394   32.9935   47.6265 H   0  0  0  0  0  0  0  0  0  0  0  0
   65.1895   34.2047   49.5654 H   0  0  0  0  0  0  0  0  0  0  0  0
   63.8619   34.1367   50.7864 H   0  0  0  0  0  0  0  0  0  0  0  0
   66.0695   35.0029   51.6795 H   0  0  0  0  0  0  0  0  0  0  0  0
   65.4024   33.5439   52.5380 H   0  0  0  0  0  0  0  0  0  0  0  0
   68.7276   34.5571   51.2206 H   0  0  0  0  0  0  0  0  0  0  0  0
   68.6520   33.3150   49.9252 H   0  0  0  0  0  0  0  0  0  0  0  0
   67.4898   34.6846   49.9252 H   0  0  0  0  0  0  0  0  0  0  0  0
   67.2928   31.8204   49.7809 H   0  0  0  0  0  0  0  0  0  0  0  0
   67.5697   31.1463   51.4541 H   0  0  0  0  0  0  0  0  0  0  0  0
   65.4494   30.3341   50.3732 H   0  0  0  0  0  0  0  0  0  0  0  0
   65.2021   31.1825   51.9307 H   0  0  0  0  0  0  0  0  0  0  0  0
   62.7055   30.4757   50.7338 H   0  0  0  0  0  0  0  0  0  0  0  0
   60.9150   29.8990   49.2270 H   0  0  0  0  0  0  0  0  0  0  0  0
   58.3230   30.6693   49.1101 H   0  0  0  0  0  0  0  0  0  0  0  0
   58.7016   31.9461   52.6430 H   0  0  0  0  0  0  0  0  0  0  0  0
   57.3192   31.2952   51.6985 H   0  0  0  0  0  0  0  0  0  0  0  0
   58.8936   30.4303   51.6985 H   0  0  0  0  0  0  0  0  0  0  0  0
  1  2  1  0
  2  3  1  0
  3  4  2  0
  4  5  1  0
  5  6  1  0
  5  7  2  0
  7  8  1  0
  8  9  1  0
  9 10  1  0
 10 11  1  0
 11 12  2  0
 12 13  1  0
 13 14  2  0
 14 15  1  0
 15 16  1  0
 15 17  2  0
 15 18  2  0
 14 19  1  0
 19 20  2  0
  9 21  1  0
 21 22  2  0
 22 23  1  0
 23 24  2  0
 24 25  1  0
 25 26  1  0
 26 27  1  0
 27 28  1  0
 28 29  1  0
 28 30  1  0
 30 31  1  0
 24 32  1  0
 32 33  2  0
  7 34  1  0
 34 35  2  0
 35 36  1  0
 35  3  1  0
 20 11  1  0
 33 21  1  0
 31 25  1  0
  1 37  1  0
  1 38  1  0
  1 39  1  0
  4 40  1  0
  6 41  1  0
  6 42  1  0
  6 43  1  0
  8 44  1  0
  8 45  1  0
 10 46  1  0
 10 47  1  0
 12 48  1  0
 13 49  1  0
 16 50  1  0
 16 51  1  0
 16 52  1  0
 19 53  1  0
 20 54  1  0
 23 55  1  0
 26 56  1  0
 26 57  1  0
 27 58  1  0
 27 59  1  0
 29 60  1  0
 29 61  1  0
 29 62  1  0
 30 63  1  0
 30 64  1  0
 31 65  1  0
 31 66  1  0
 32 67  1  0
 33 68  1  0
 34 69  1  0
 36 70  1  0
 36 71  1  0
 36 72  1  0
M  CHG  1  33   1
M  END
>  <UniqueID>  (4) 
4

>  <SMILES>  (4) 
COc1cc(C)c(CN(Cc2ccc(S(C)(=O)=O)cc2)c2ncc(N3CCN(C)CC3)c[nH+]2)cc1C

>  <Energy>  (4) 
86.63180264425768

>  <Genealogy>  (4) 
COc1cc(C)c(CN(Cc2ccc(S(C)(=O)=O)cc2)c2ncc(N3CCN(C)CC3)c[nH+]2)cc1C (protonated)
COc1cc(C)c(CN(Cc2ccc(S(C)(=O)=O)cc2)c2ncc(N3CCN(C)CC3)c[nH+]2)cc1C (3D coordinates assigned)
COc1cc(C)c(CN(Cc2ccc(S(C)(=O)=O)cc2)c2ncc(N3CCN(C)CC3)c[nH+]2)cc1C (nonaromatic ring conformer: 86.63180264425768 kcal/mol)

>  <smiles>  (4) 
COc1cc(C)c(CN(Cc2ccc(S(C)(=O)=O)cc2)c2ncc(N3CCN(C)CC3)cn2)cc1C

>  <score_type>  (4) 
oracle

>  <origin>  (4) 
adg

>  <m_score__min__energy>  (4) 
-8.1699999999999999

>  <m_primary>  (4) 
energy

$$$$
4:0
     RDKit          3D

 45 47  0  0  0  0  0  0  0  0999 V2000
   55.1440   27.6570   45.2550 H   0  0  0  0  0  0  0  0  0  0  0  0
   55.4770   26.9310   45.8790 O   0  0  0  0  0  0  0  0  0  0  0  0
   56.8330   26.6390   46.0090 C   0  0  0  0  0  0  0  0  0  0  0  0
   57.2320   25.6580   46.9290 C   0  0  0  0  0  0  0  0  0  0  0  0
   56.4873   25.1959   47.5937 H   0  0  0  0  0  0  0  0  0  0  0  0
   58.5670   25.2660   47.0050 C   0  0  0  0  0  0  0  0  0  0  0  0
   58.8816   24.5011   47.7303 H   0  0  0  0  0  0  0  0  0  0  0  0
   59.4980   25.8530   46.1530 C   0  0  0  0  0  0  0  0  0  0  0  0
   60.5507   25.5356   46.1864 H   0  0  0  0  0  0  0  0  0  0  0  0
   59.1070   26.8180   45.2800 N   0  0  0  0  0  0  0  0  0  0  0  0
   57.8200   27.2570   45.1940 C   0  0  0  0  0  0  0  0  0  0  0  0
   57.5640   28.1990   44.3280 N   0  0  0  0  0  0  0  0  0  0  0  0
   56.7410   29.3690   44.4560 C   0  0  0  0  0  0  0  0  0  0  0  0
   55.5310   29.3340   44.0990 O   0  0  0  0  0  0  0  0  0  0  0  0
   57.2710   30.5750   45.1350 C   0  0  0  0  0  0  0  0  0  0  0  0
   58.1460   30.4520   46.2310 C   0  0  0  0  0  0  0  0  0  0  0  0
   58.4234   29.4532   46.5991 H   0  0  0  0  0  0  0  0  0  0  0  0
   58.6650   31.5910   46.8550 C   0  0  0  0  0  0  0  0  0  0  0  0
   59.3577   31.4806   47.7024 H   0  0  0  0  0  0  0  0  0  0  0  0
   58.3110   32.8690   46.4110 C   0  0  0  0  0  0  0  0  0  0  0  0
   58.8860   34.0140   47.0560 N   0  0  0  0  0  0  0  0  0  0  0  0
   60.1930   34.5480   46.8140 C   0  0  0  0  0  0  0  0  0  0  0  0
   60.3170   35.4830   45.9790 O   0  0  0  0  0  0  0  0  0  0  0  0
   61.4000   33.9990   47.4760 C   0  0  0  0  0  0  0  0  0  0  0  0
   61.3820   33.6650   48.8400 C   0  0  0  0  0  0  0  0  0  0  0  0
   60.4647   33.8184   49.4274 H   0  0  0  0  0  0  0  0  0  0  0  0
   62.5210   33.1390   49.4570 C   0  0  0  0  0  0  0  0  0  0  0  0
   62.4963   32.8863   50.5273 H   0  0  0  0  0  0  0  0  0  0  0  0
   63.7000   32.9310   48.7150 C   0  0  0  0  0  0  0  0  0  0  0  0
   64.8730   32.4020   49.2810 O   0  0  0  0  0  0  0  0  0  0  0  0
   65.5770   32.9490   50.3950 C   0  0  0  0  0  0  0  0  0  0  0  0
   65.3026   32.3928   51.3035 H   0  0  0  0  0  0  0  0  0  0  0  0
   65.3041   34.0096   50.4985 H   0  0  0  0  0  0  0  0  0  0  0  0
   67.0850   32.8500   50.1840 C   0  0  0  0  0  0  0  0  0  0  0  0
   67.5905   32.8168   51.1604 H   0  0  0  0  0  0  0  0  0  0  0  0
   67.3170   31.9347   49.6197 H   0  0  0  0  0  0  0  0  0  0  0  0
   67.4347   33.7271   49.6197 H   0  0  0  0  0  0  0  0  0  0  0  0
   63.7110   33.2520   47.3540 C   0  0  0  0  0  0  0  0  0  0  0  0
   64.6254   33.0909   46.7641 H   0  0  0  0  0  0  0  0  0  0  0  0
   62.5730   33.7750   46.7360 C   0  0  0  0  0  0  0  0  0  0  0  0
   62.5953   34.0132   45.6623 H   0  0  0  0  0  0  0  0  0  0  0  0
   57.4480   32.9980   45.3090 C   0  0  0  0  0  0  0  0  0  0  0  0
   57.1812   33.9983   44.9372 H   0  0  0  0  0  0  0  0  0  0  0  0
   56.9270   31.8620   44.6830 C   0  0  0  0  0  0  0  0  0  0  0  0
   56.2422   31.9753   43.8297 H   0  0  0  0  0  0  0  0  0  0  0  0
  1  2  1  0
  2  3  1  0
  3  4  2  0
  4  5  1  0
  4  6  1  0
  6  7  1  0
  6  8  2  0
  8  9  1  0
  8 10  1  0
 10 11  1  0
 11 12  2  0
 12 13  1  0
 13 14  2  0
 13 15  1  0
 15 16  2  0
 16 17  1  0
 16 18  1  0
 18 19  1  0
 18 20  2  0
 20 21  1  0
 21 22  1  0
 22 23  2  0
 22 24  1  0
 24 25  2  0
 25 26  1  0
 25 27  1  0
 27 28  1  0
 27 29  2  0
 29 30  1  0
 30 31  1  0
 31 32  1  0
 31 33  1  0
 31 34  1  0
 34 35  1  0
 34 36  1  0
 34 37  1  0
 29 38  1  0
 38 39  1  0
 38 40  2  0
 40 41  1  0
 20 42  1  0
 42 43  1  0
 42 44  2  0
 44 45  1  0
 11  3  1  0
 44 15  1  0
 40 24  1  0
M  CHG  2  10  -1  21  -1
M  END
>  <UniqueID>  (5) 
5

>  <SMILES>  (5) 
CCOc1ccc(C(=O)[N-]c2ccc(C(=O)/N=c3\[n-]cccc3O)cc2)cc1

>  <Energy>  (5) 
65.76737620494978

>  <Genealogy>  (5) 
CCOc1ccc(C(=O)[N-]c2ccc(C(=O)N=c3[n-]cccc3O)cc2)cc1 (protonated)
CCOc1ccc(C(=O)[N-]c2ccc(C(=O)/N=c3\[n-]cccc3O)cc2)cc1 (cis-trans isomerization)
CCOc1ccc(C(=O)[N-]c2ccc(C(=O)/N=c3\[n-]cccc3O)cc2)cc1 (3D coordinates assigned)
CCOc1ccc(C(=O)[N-]c2ccc(C(=O)/N=c3\[n-]cccc3O)cc2)cc1 (optimized conformer: 65.76737620494978 kcal/mol)

>  <smiles>  (5) 
CCOc1ccc(C(=O)Nc2ccc(C(=O)N=c3[nH]cccc3O)cc2)cc1

>  <score_type>  (5) 
oracle

>  <origin>  (5) 
adg

>  <m_score__min__energy>  (5) 
-11.76

>  <m_primary>  (5) 
energy

$$$$
5:0
     RDKit          3D

 33 35  0  0  0  0  0  0  0  0999 V2000
   60.9700   29.0160   45.3550 O   0  0  0  0  0  0  0  0  0  0  0  0
   59.7190   29.1330   45.4500 C   0  0  0  0  0  0  0  0  0  0  0  0
   59.1300   30.3120   45.1230 N   0  0  0  0  0  0  0  0  0  0  0  0
   57.7850   30.4730   45.2160 C   0  0  0  0  0  0  0  0  0  0  0  0
   57.1540   31.7770   44.8320 C   0  0  0  0  0  0  0  0  0  0  0  0
   57.9490   32.9040   45.3470 N   0  0  0  0  0  0  0  0  0  0  0  0
   58.4600   33.8060   44.4530 C   0  0  0  0  0  0  0  0  0  0  0  0
   59.2480   34.8720   44.8860 C   0  0  0  0  0  0  0  0  0  0  0  0
   59.5230   35.0130   46.2440 C   0  0  0  0  0  0  0  0  0  0  0  0
   59.0130   34.0860   47.1560 C   0  0  0  0  0  0  0  0  0  0  0  0
   59.2850   34.2110   48.5180 O   0  0  0  0  0  0  0  0  0  0  0  0
   58.2250   33.0240   46.6880 C   0  0  0  0  0  0  0  0  0  0  0  0
   57.7780   32.1820   47.5150 O   0  0  0  0  0  0  0  0  0  0  0  0
   57.0100   29.4370   45.6330 N   0  0  0  0  0  0  0  0  0  0  0  0
   57.5490   28.2370   45.9790 C   0  0  0  0  0  0  0  0  0  0  0  0
   56.7200   27.1510   46.4290 N   0  0  0  0  0  0  0  0  0  0  0  0
   56.3490   26.1040   45.7520 C   0  0  0  0  0  0  0  0  0  0  0  0
   57.1520   25.5480   44.8030 N   0  0  0  0  0  0  0  0  0  0  0  0
   56.7570   24.4570   44.0970 C   0  0  0  0  0  0  0  0  0  0  0  0
   55.5080   23.8900   44.3390 C   0  0  0  0  0  0  0  0  0  0  0  0
   54.6950   24.4670   45.3120 C   0  0  0  0  0  0  0  0  0  0  0  0
   55.1280   25.5580   45.9970 N   0  0  0  0  0  0  0  0  0  0  0  0
   58.9360   28.0600   45.8900 C   0  0  0  0  0  0  0  0  0  0  0  0
   59.7490   26.3850   46.3620 Br  0  0  0  0  0  0  0  0  0  0  0  0
   57.0988   31.8438   43.7354 H   0  0  0  0  0  0  0  0  0  0  0  0
   56.1441   31.8257   45.2653 H   0  0  0  0  0  0  0  0  0  0  0  0
   58.2465   33.6886   43.3803 H   0  0  0  0  0  0  0  0  0  0  0  0
   59.6491   35.5955   44.1610 H   0  0  0  0  0  0  0  0  0  0  0  0
   60.1402   35.8521   46.5974 H   0  0  0  0  0  0  0  0  0  0  0  0
   58.9640   33.5220   49.1880 H   0  0  0  0  0  0  0  0  0  0  0  0
   57.4218   24.0223   43.3360 H   0  0  0  0  0  0  0  0  0  0  0  0
   55.1715   23.0075   43.7751 H   0  0  0  0  0  0  0  0  0  0  0  0
   53.7039   24.0402   45.5256 H   0  0  0  0  0  0  0  0  0  0  0  0
  1  2  2  0
  2  3  1  0
  3  4  1  0
  4  5  1  0
  5  6  1  0
  6  7  1  0
  7  8  2  0
  8  9  1  0
  9 10  2  0
 10 11  1  0
 10 12  1  0
 12 13  2  0
  4 14  2  0
 14 15  1  0
 15 16  1  0
 16 17  2  3
 17 18  1  0
 18 19  2  0
 19 20  1  0
 20 21  2  0
 21 22  1  0
 15 23  2  0
 23 24  1  0
 23  2  1  0
 12  6  1  0
 22 17  1  0
  5 25  1  0
  5 26  1  0
  7 27  1  0
  8 28  1  0
  9 29  1  0
 11 30  1  0
 19 31  1  0
 20 32  1  0
 21 33  1  0
M  CHG  2   3  -1  22  -1
M  END
>  <UniqueID>  (6) 
6

>  <SMILES>  (6) 
O=c1[n-]c(Cn2cccc(O)c2=O)nc(N=c2nccc[n-]2)c1Br

>  <Energy>  (6) 
41.9661153161891

>  <Genealogy>  (6) 
O=c1[n-]c(Cn2cccc(O)c2=O)nc(N=c2nccc[n-]2)c1Br (protonated)
O=c1[n-]c(Cn2cccc(O)c2=O)nc(N=c2nccc[n-]2)c1Br (3D coordinates assigned)
O=c1[n-]c(Cn2cccc(O)c2=O)nc(N=c2nccc[n-]2)c1Br (optimized conformer: 41.9661153161891 kcal/mol)

>  <smiles>  (6) 
O=c1[nH]c(Cn2cccc(O)c2=O)nc(N=c2nccc[nH]2)c1Br

>  <score_type>  (6) 
oracle

>  <origin>  (6) 
adg

>  <m_score__min__energy>  (6) 
-10.720000000000001

>  <m_primary>  (6) 
energy

$$$$
6:0
     RDKit          3D

 58 62  0  0  0  0  0  0  0  0999 V2000
   55.1280   29.4650   43.5520 N   0  0  0  0  0  0  0  0  0  0  0  0
   56.0400   29.9030   44.3570 C   0  0  0  0  0  0  0  0  0  0  0  0
   56.3920   31.2160   44.3460 N   0  0  0  0  0  0  0  0  0  0  0  0
   57.3460   31.6930   45.1880 C   0  0  0  0  0  0  0  0  0  0  0  0
   57.9860   30.8290   46.0870 C   0  0  0  0  0  0  0  0  0  0  0  0
   59.0390   31.3190   47.0110 C   0  0  0  0  0  0  0  0  0  0  0  0
   60.2550   30.6280   47.1150 C   0  0  0  0  0  0  0  0  0  0  0  0
   61.2560   31.0790   47.9760 C   0  0  0  0  0  0  0  0  0  0  0  0
   61.0650   32.2210   48.7830 C   0  0  0  0  0  0  0  0  0  0  0  0
   62.2240   32.7010   49.6830 C   0  0  0  0  0  0  0  0  0  0  0  0
   61.6650   32.9370   51.0800 C   0  0  0  0  0  0  0  0  0  0  0  0
   60.5360   32.4050   51.5880 N   0  0  0  0  0  0  0  0  0  0  0  0
   60.5020   32.9140   52.8320 C   0  0  0  0  0  0  0  0  0  0  0  0
   59.3900   32.6710   53.8120 C   0  0  0  0  0  0  0  0  0  0  0  0
   58.2990   31.7110   53.2850 C   0  0  0  0  0  0  0  0  0  0  0  0
   58.8440   30.3180   52.9260 C   0  0  0  0  0  0  0  0  0  0  0  0
   57.6980   29.3910   52.4530 C   0  0  0  0  0  0  0  0  0  0  0  0
   56.4900   30.0840   52.1760 O   0  0  0  0  0  0  0  0  0  0  0  0
   56.7430   31.1940   51.3370 C   0  0  0  0  0  0  0  0  0  0  0  0
   57.5080   32.2970   52.0950 C   0  0  0  0  0  0  0  0  0  0  0  0
   61.5630   33.7050   53.0780 N   0  0  0  0  0  0  0  0  0  0  0  0
   62.2580   33.6900   51.9780 O   0  0  0  0  0  0  0  0  0  0  0  0
   62.8630   34.0520   49.2330 C   0  0  0  0  0  0  0  0  0  0  0  0
   64.0580   33.8200   48.2900 C   0  0  0  0  0  0  0  0  0  0  0  0
   65.1290   33.0970   48.8880 O   0  0  0  0  0  0  0  0  0  0  0  0
   64.7220   32.1750   49.8930 C   0  0  0  0  0  0  0  0  0  0  0  0
   63.3160   31.5880   49.6690 C   0  0  0  0  0  0  0  0  0  0  0  0
   59.8480   32.9250   48.6510 C   0  0  0  0  0  0  0  0  0  0  0  0
   58.8440   32.4740   47.7870 C   0  0  0  0  0  0  0  0  0  0  0  0
   57.6720   33.1560   47.7340 F   0  0  0  0  0  0  0  0  0  0  0  0
   57.6120   29.4770   46.0720 C   0  0  0  0  0  0  0  0  0  0  0  0
   56.6500   29.0460   45.2150 N   0  0  0  0  0  0  0  0  0  0  0  0
   55.3050   29.3700   42.5260 H   0  0  0  0  0  0  0  0  0  0  0  0
   57.6164   32.7590   45.1640 H   0  0  0  0  0  0  0  0  0  0  0  0
   60.4210   29.7227   46.5126 H   0  0  0  0  0  0  0  0  0  0  0  0
   62.2107   30.5350   48.0267 H   0  0  0  0  0  0  0  0  0  0  0  0
   59.8410   31.7660   51.1440 H   0  0  0  0  0  0  0  0  0  0  0  0
   59.8212   32.2386   54.7269 H   0  0  0  0  0  0  0  0  0  0  0  0
   58.9046   33.6408   53.9959 H   0  0  0  0  0  0  0  0  0  0  0  0
   57.6025   31.5903   54.1278 H   0  0  0  0  0  0  0  0  0  0  0  0
   59.5857   30.4166   52.1196 H   0  0  0  0  0  0  0  0  0  0  0  0
   59.3106   29.8781   53.8198 H   0  0  0  0  0  0  0  0  0  0  0  0
   58.0221   28.8754   51.5370 H   0  0  0  0  0  0  0  0  0  0  0  0
   57.4887   28.6888   53.2734 H   0  0  0  0  0  0  0  0  0  0  0  0
   57.3448   30.8650   50.4770 H   0  0  0  0  0  0  0  0  0  0  0  0
   55.7800   31.6045   50.9993 H   0  0  0  0  0  0  0  0  0  0  0  0
   58.2099   32.7866   51.4039 H   0  0  0  0  0  0  0  0  0  0  0  0
   56.7784   33.0220   52.4849 H   0  0  0  0  0  0  0  0  0  0  0  0
   62.1035   34.6502   48.7083 H   0  0  0  0  0  0  0  0  0  0  0  0
   63.2247   34.5797   50.1278 H   0  0  0  0  0  0  0  0  0  0  0  0
   63.7046   33.2556   47.4144 H   0  0  0  0  0  0  0  0  0  0  0  0
   64.4512   34.8114   48.0206 H   0  0  0  0  0  0  0  0  0  0  0  0
   65.4441   31.3455   49.9149 H   0  0  0  0  0  0  0  0  0  0  0  0
   64.6884   32.7310   50.8416 H   0  0  0  0  0  0  0  0  0  0  0  0
   63.2930   31.0767   48.6953 H   0  0  0  0  0  0  0  0  0  0  0  0
   63.1016   30.8834   50.4861 H   0  0  0  0  0  0  0  0  0  0  0  0
   59.6868   33.8422   49.2365 H   0  0  0  0  0  0  0  0  0  0  0  0
   58.0983   28.7649   46.7550 H   0  0  0  0  0  0  0  0  0  0  0  0
  1  2  2  3
  2  3  1  0
  3  4  2  0
  4  5  1  0
  5  6  1  0
  6  7  2  0
  7  8  1  0
  8  9  2  0
  9 10  1  0
 10 11  1  0
 11 12  2  0
 12 13  1  0
 13 14  1  0
 14 15  1  0
 15 16  1  0
 16 17  1  0
 17 18  1  0
 18 19  1  0
 19 20  1  0
 13 21  2  0
 21 22  1  0
 10 23  1  0
 23 24  1  0
 24 25  1  0
 25 26  1  0
 26 27  1  0
  9 28  1  0
 28 29  2  0
 29 30  1  0
  5 31  2  0
 31 32  1  0
 32  2  1  0
 29  6  1  0
 27 10  1  0
 22 11  1  0
 20 15  1  0
  1 33  1  0
  4 34  1  0
  7 35  1  0
  8 36  1  0
 12 37  1  0
 14 38  1  0
 14 39  1  0
 15 40  1  0
 16 41  1  0
 16 42  1  0
 17 43  1  0
 17 44  1  0
 19 45  1  0
 19 46  1  0
 20 47  1  0
 20 48  1  0
 23 49  1  0
 23 50  1  0
 24 51  1  0
 24 52  1  0
 26 53  1  0
 26 54  1  0
 27 55  1  0
 27 56  1  0
 28 57  1  0
 31 58  1  0
M  CHG  2  12   1  32  -1
M  END
>  <UniqueID>  (7) 
7

>  <SMILES>  (7) 
N=c1ncc(-c2ccc(C3(c4[nH+]c(CC5CCOCC5)no4)CCOCC3)cc2F)c[n-]1

>  <Energy>  (7) 
127.50820999645694

>  <Genealogy>  (7) 
N=c1ncc(-c2ccc(C3(c4[nH+]c(CC5CCOCC5)no4)CCOCC3)cc2F)c[n-]1 (protonated)
N=c1ncc(-c2ccc(C3(c4[nH+]c(CC5CCOCC5)no4)CCOCC3)cc2F)c[n-]1 (3D coordinates assigned)
N=c1ncc(-c2ccc(C3(c4[nH+]c(CC5CCOCC5)no4)CCOCC3)cc2F)c[n-]1 (nonaromatic ring conformer: 127.50820999645694 kcal/mol)

>  <smiles>  (7) 
N=c1ncc(-c2ccc(C3(c4nc(CC5CCOCC5)no4)CCOCC3)cc2F)c[nH]1

>  <score_type>  (7) 
oracle

>  <origin>  (7) 
adg

>  <m_score__min__energy>  (7) 
-8.4499999999999993

>  <m_primary>  (7) 
energy

$$$$
7:0
     RDKit          3D

 40 42  0  0  0  0  0  0  0  0999 V2000
   56.2820   30.3300   43.3780 C   0  0  0  0  0  0  0  0  0  0  0  0
   57.0260   30.7290   44.4200 C   0  0  0  0  0  0  0  0  0  0  0  0
   56.7880   31.9810   44.8820 N   0  0  0  0  0  0  0  0  0  0  0  0
   57.5820   32.5880   45.7940 C   0  0  0  0  0  0  0  0  0  0  0  0
   57.2840   33.7510   46.1770 O   0  0  0  0  0  0  0  0  0  0  0  0
   58.6990   31.9550   46.2650 N   0  0  0  0  0  0  0  0  0  0  0  0
   59.6160   32.6550   47.1890 C   0  0  0  0  0  0  0  0  0  0  0  0
   59.3240   32.2620   48.6060 C   0  0  0  0  0  0  0  0  0  0  0  0
   59.2080   33.1600   49.4840 O   0  0  0  0  0  0  0  0  0  0  0  0
   59.0960   30.8840   48.9390 N   0  0  0  0  0  0  0  0  0  0  0  0
   58.8970   30.4190   50.2840 C   0  0  0  0  0  0  0  0  0  0  0  0
   59.7670   29.4510   50.8100 C   0  0  0  0  0  0  0  0  0  0  0  0
   59.6030   28.9910   52.1190 C   0  0  0  0  0  0  0  0  0  0  0  0
   58.5790   29.5050   52.9200 C   0  0  0  0  0  0  0  0  0  0  0  0
   58.4250   29.0580   54.1910 F   0  0  0  0  0  0  0  0  0  0  0  0
   57.7230   30.4900   52.4140 C   0  0  0  0  0  0  0  0  0  0  0  0
   56.7460   31.0050   53.2010 F   0  0  0  0  0  0  0  0  0  0  0  0
   57.8830   30.9530   51.1030 C   0  0  0  0  0  0  0  0  0  0  0  0
   57.0820   31.9520   50.6520 F   0  0  0  0  0  0  0  0  0  0  0  0
   58.9820   30.6760   45.8550 C   0  0  0  0  0  0  0  0  0  0  0  0
   60.0200   30.1000   46.2930 O   0  0  0  0  0  0  0  0  0  0  0  0
   58.1070   29.9790   44.9750 C   0  0  0  0  0  0  0  0  0  0  0  0
   58.3340   28.6530   44.7460 C   0  0  0  0  0  0  0  0  0  0  0  0
   57.7360   27.5160   45.4830 C   0  0  0  0  0  0  0  0  0  0  0  0
   56.3470   27.4590   45.6770 C   0  0  0  0  0  0  0  0  0  0  0  0
   55.5250   28.4850   45.2250 O   0  0  0  0  0  0  0  0  0  0  0  0
   55.7950   26.3980   46.3220 N   0  0  0  0  0  0  0  0  0  0  0  0
   56.5640   25.3750   46.7730 C   0  0  0  0  0  0  0  0  0  0  0  0
   55.8720   24.1160   47.5470 S   0  0  0  0  0  0  0  0  0  0  0  0
   57.9050   25.3900   46.5700 N   0  0  0  0  0  0  0  0  0  0  0  0
   58.5070   26.4270   45.9290 C   0  0  0  0  0  0  0  0  0  0  0  0
   59.7500   26.3910   45.7310 O   0  0  0  0  0  0  0  0  0  0  0  0
   56.4239   29.3251   42.9536 H   0  0  0  0  0  0  0  0  0  0  0  0
   55.5298   31.0076   42.9477 H   0  0  0  0  0  0  0  0  0  0  0  0
   60.6540   32.3857   46.9439 H   0  0  0  0  0  0  0  0  0  0  0  0
   59.4738   33.7404   47.0814 H   0  0  0  0  0  0  0  0  0  0  0  0
   58.9290   30.2100   48.1590 H   0  0  0  0  0  0  0  0  0  0  0  0
   60.5822   29.0525   50.1882 H   0  0  0  0  0  0  0  0  0  0  0  0
   60.2808   28.2230   52.5201 H   0  0  0  0  0  0  0  0  0  0  0  0
   59.0310   28.4036   43.9324 H   0  0  0  0  0  0  0  0  0  0  0  0
  1  2  2  0
  2  3  1  0
  3  4  1  0
  4  5  2  0
  4  6  1  0
  6  7  1  0
  7  8  1  0
  8  9  2  0
  8 10  1  0
 10 11  1  0
 11 12  2  0
 12 13  1  0
 13 14  2  0
 14 15  1  0
 14 16  1  0
 16 17  1  0
 16 18  2  0
 18 19  1  0
  6 20  1  0
 20 21  2  0
 20 22  1  0
 22 23  2  3
 23 24  1  0
 24 25  2  0
 25 26  1  0
 25 27  1  0
 27 28  1  0
 28 29  2  0
 28 30  1  0
 30 31  1  0
 31 32  2  0
 22  2  1  0
 31 24  1  0
 18 11  1  0
  1 33  1  0
  1 34  1  0
  7 35  1  0
  7 36  1  0
 10 37  1  0
 12 38  1  0
 13 39  1  0
 23 40  1  0
M  CHG  4   3  -1  26  -1  27  -1  30  -1
M  END
>  <UniqueID>  (8) 
8

>  <SMILES>  (8) 
C=c1[n-]c(=O)n(CC(=O)Nc2ccc(F)c(F)c2F)c(=O)c1=Cc1c([O-])[n-]c(=S)[n-]c1=O

>  <Energy>  (8) 
76.48027035271816

>  <Genealogy>  (8) 
C=c1[n-]c(=O)n(CC(=O)Nc2ccc(F)c(F)c2F)c(=O)c1=Cc1c([O-])[n-]c(=S)[n-]c1=O (protonated)
C=c1[n-]c(=O)n(CC(=O)Nc2ccc(F)c(F)c2F)c(=O)c1=Cc1c([O-])[n-]c(=S)[n-]c1=O (3D coordinates assigned)
C=c1[n-]c(=O)n(CC(=O)Nc2ccc(F)c(F)c2F)c(=O)c1=Cc1c([O-])[n-]c(=S)[n-]c1=O (optimized conformer: 76.48027035271816 kcal/mol)

>  <smiles>  (8) 
C=c1[nH]c(=O)n(CC(=O)Nc2ccc(F)c(F)c2F)c(=O)c1=Cc1c(O)[nH]c(=S)[nH]c1=O

>  <score_type>  (8) 
oracle

>  <origin>  (8) 
adg

>  <m_score__min__energy>  (8) 
-16.02

>  <m_primary>  (8) 
energy

$$$$
8:0
     RDKit          3D

 57 60  0  0  0  0  0  0  0  0999 V2000
   56.7180   30.7170   42.2670 C   0  0  0  0  0  0  0  0  0  0  0  0
   57.4050   31.1490   43.5350 C   0  0  0  0  0  0  0  0  0  0  0  0
   57.9460   32.4430   43.5840 C   0  0  0  0  0  0  0  0  0  0  0  0
   58.5500   32.9260   44.7530 C   0  0  0  0  0  0  0  0  0  0  0  0
   59.2250   34.1880   44.7700 N   0  0  0  0  0  0  0  0  0  0  0  0
   59.6250   34.9800   46.2580 S   0  0  0  0  0  0  0  0  0  0  0  0
   60.0100   36.4070   45.9940 O   0  0  0  0  0  0  0  0  0  0  0  0
   58.4370   34.9550   47.1770 O   0  0  0  0  0  0  0  0  0  0  0  0
   60.9510   34.0990   47.0100 C   0  0  0  0  0  0  0  0  0  0  0  0
   62.1520   33.8800   46.3140 C   0  0  0  0  0  0  0  0  0  0  0  0
   63.1540   33.0850   46.8780 C   0  0  0  0  0  0  0  0  0  0  0  0
   62.9660   32.5070   48.1380 C   0  0  0  0  0  0  0  0  0  0  0  0
   63.9350   31.7300   48.6810 F   0  0  0  0  0  0  0  0  0  0  0  0
   61.7750   32.7280   48.8350 C   0  0  0  0  0  0  0  0  0  0  0  0
   60.7690   33.5170   48.2720 C   0  0  0  0  0  0  0  0  0  0  0  0
   58.5560   32.1350   45.9030 C   0  0  0  0  0  0  0  0  0  0  0  0
   58.0610   30.8310   45.8590 C   0  0  0  0  0  0  0  0  0  0  0  0
   57.5320   30.3040   44.6670 C   0  0  0  0  0  0  0  0  0  0  0  0
   57.1980   28.8630   44.6360 C   0  0  0  0  0  0  0  0  0  0  0  0
   56.1580   28.4560   45.2230 O   0  0  0  0  0  0  0  0  0  0  0  0
   58.0960   27.9150   44.0390 N   0  0  0  0  0  0  0  0  0  0  0  0
   58.1190   26.5410   44.4390 C   0  0  0  0  0  0  0  0  0  0  0  0
   57.4130   25.5990   43.6800 C   0  0  0  0  0  0  0  0  0  0  0  0
   57.3960   24.2560   44.0630 C   0  0  0  0  0  0  0  0  0  0  0  0
   58.0970   23.8420   45.1960 C   0  0  0  0  0  0  0  0  0  0  0  0
   58.8260   24.7690   45.9450 C   0  0  0  0  0  0  0  0  0  0  0  0
   58.8540   26.1220   45.5720 C   0  0  0  0  0  0  0  0  0  0  0  0
   59.6530   27.0480   46.3310 N   0  0  0  0  0  0  0  0  0  0  0  0
   60.7240   27.8020   45.6650 C   0  0  0  0  0  0  0  0  0  0  0  0
   60.7480   29.2810   46.1100 C   0  0  0  0  0  0  0  0  0  0  0  0
   60.1210   29.5250   47.4230 N   0  0  0  0  0  0  0  0  0  0  0  0
   60.2410   28.3760   48.3220 C   0  0  0  0  0  0  0  0  0  0  0  0
   59.4070   27.2240   47.7690 C   0  0  0  0  0  0  0  0  0  0  0  0
   55.8112   30.1468   42.5172 H   0  0  0  0  0  0  0  0  0  0  0  0
   56.4423   31.6046   41.6786 H   0  0  0  0  0  0  0  0  0  0  0  0
   57.3985   30.0840   41.6786 H   0  0  0  0  0  0  0  0  0  0  0  0
   57.8954   33.0866   42.6934 H   0  0  0  0  0  0  0  0  0  0  0  0
   62.3039   34.3348   45.3240 H   0  0  0  0  0  0  0  0  0  0  0  0
   64.0922   32.9136   46.3299 H   0  0  0  0  0  0  0  0  0  0  0  0
   61.6294   32.2798   49.8289 H   0  0  0  0  0  0  0  0  0  0  0  0
   59.8304   33.6822   48.8213 H   0  0  0  0  0  0  0  0  0  0  0  0
   58.9517   32.5403   46.8459 H   0  0  0  0  0  0  0  0  0  0  0  0
   58.0848   30.2088   46.7658 H   0  0  0  0  0  0  0  0  0  0  0  0
   58.8570   28.2330   43.4030 H   0  0  0  0  0  0  0  0  0  0  0  0
   56.8696   25.9183   42.7785 H   0  0  0  0  0  0  0  0  0  0  0  0
   56.8288   23.5233   43.4702 H   0  0  0  0  0  0  0  0  0  0  0  0
   58.0757   22.7850   45.4998 H   0  0  0  0  0  0  0  0  0  0  0  0
   59.3822   24.4362   46.8337 H   0  0  0  0  0  0  0  0  0  0  0  0
   61.6912   27.3402   45.9124 H   0  0  0  0  0  0  0  0  0  0  0  0
   60.5379   27.7745   44.5812 H   0  0  0  0  0  0  0  0  0  0  0  0
   61.7966   29.6093   46.1615 H   0  0  0  0  0  0  0  0  0  0  0  0
   60.1623   29.8448   45.3690 H   0  0  0  0  0  0  0  0  0  0  0  0
   60.5980   30.3420   47.8700 H   0  0  0  0  0  0  0  0  0  0  0  0
   61.2951   28.0690   48.3896 H   0  0  0  0  0  0  0  0  0  0  0  0
   59.8797   28.6489   49.3245 H   0  0  0  0  0  0  0  0  0  0  0  0
   59.6759   26.2974   48.2974 H   0  0  0  0  0  0  0  0  0  0  0  0
   58.3420   27.4542   47.9200 H   0  0  0  0  0  0  0  0  0  0  0  0
  1  2  1  0
  2  3  2  0
  3  4  1  0
  4  5  1  0
  5  6  1  0
  6  7  2  0
  6  8  2  0
  6  9  1  0
  9 10  2  0
 10 11  1  0
 11 12  2  0
 12 13  1  0
 12 14  1  0
 14 15  2  0
  4 16  2  0
 16 17  1  0
 17 18  2  0
 18 19  1  0
 19 20  2  0
 19 21  1  0
 21 22  1  0
 22 23  2  0
 23 24  1  0
 24 25  2  0
 25 26  1  0
 26 27  2  0
 27 28  1  0
 28 29  1  0
 29 30  1  0
 30 31  1  0
 31 32  1  0
 32 33  1  0
 18  2  1  0
 27 22  1  0
 33 28  1  0
 15  9  1  0
  1 34  1  0
  1 35  1  0
  1 36  1  0
  3 37  1  0
 10 38  1  0
 11 39  1  0
 14 40  1  0
 15 41  1  0
 16 42  1  0
 17 43  1  0
 21 44  1  0
 23 45  1  0
 24 46  1  0
 25 47  1  0
 26 48  1  0
 29 49  1  0
 29 50  1  0
 30 51  1  0
 30 52  1  0
 31 53  1  0
 32 54  1  0
 32 55  1  0
 33 56  1  0
 33 57  1  0
M  CHG  1   5  -1
M  END
>  <UniqueID>  (9) 
9

>  <SMILES>  (9) 
Cc1cc([N-]S(=O)(=O)c2ccc(F)cc2)ccc1C(=O)Nc1ccccc1N1CCNCC1

>  <Energy>  (9) 
84.95971005683609

>  <Genealogy>  (9) 
Cc1cc([N-]S(=O)(=O)c2ccc(F)cc2)ccc1C(=O)Nc1ccccc1N1CCNCC1 (protonated)
Cc1cc([N-]S(=O)(=O)c2ccc(F)cc2)ccc1C(=O)Nc1ccccc1N1CCNCC1 (3D coordinates assigned)
Cc1cc([N-]S(=O)(=O)c2ccc(F)cc2)ccc1C(=O)Nc1ccccc1N1CCNCC1 (nonaromatic ring conformer: 84.95971005683609 kcal/mol)

>  <smiles>  (9) 
Cc1cc(NS(=O)(=O)c2ccc(F)cc2)ccc1C(=O)Nc1ccccc1N1CCNCC1

>  <score_type>  (9) 
oracle

>  <origin>  (9) 
adg

>  <m_score__min__energy>  (9) 
-11.16

>  <m_primary>  (9) 
energy

$$$$
9:0
     RDKit          3D

 47 49  0  0  0  0  0  0  0  0999 V2000
   55.1930   26.5810   45.9970 N   0  0  0  0  0  0  0  0  0  0  0  0
   56.4720   27.1080   45.6550 C   0  0  0  0  0  0  0  0  0  0  0  0
   57.4750   26.3480   45.6230 O   0  0  0  0  0  0  0  0  0  0  0  0
   56.6130   28.5340   45.3420 C   0  0  0  0  0  0  0  0  0  0  0  0
   57.6790   29.3470   45.6690 C   0  0  0  0  0  0  0  0  0  0  0  0
   57.3170   30.5740   45.1490 C   0  0  0  0  0  0  0  0  0  0  0  0
   58.1080   31.8130   45.2230 C   0  0  0  0  0  0  0  0  0  0  0  0
   57.8290   32.7730   44.4540 O   0  0  0  0  0  0  0  0  0  0  0  0
   59.1900   31.9300   46.1600 N   0  0  0  0  0  0  0  0  0  0  0  0
   60.0260   33.1320   46.2350 C   0  0  1  0  0  0  0  0  0  0  0  0
   59.3960   34.1610   47.1950 C   0  0  0  0  0  0  0  0  0  0  0  0
   59.2630   33.6140   48.5950 C   0  0  0  0  0  0  0  0  0  0  0  0
   59.8780   34.2700   49.6760 C   0  0  0  0  0  0  0  0  0  0  0  0
   59.7260   33.7800   50.9770 C   0  0  0  0  0  0  0  0  0  0  0  0
   58.9550   32.6380   51.2080 C   0  0  0  0  0  0  0  0  0  0  0  0
   58.3330   31.9850   50.1400 C   0  0  0  0  0  0  0  0  0  0  0  0
   58.4830   32.4720   48.8380 C   0  0  0  0  0  0  0  0  0  0  0  0
   61.4090   32.7520   46.6900 C   0  0  0  0  0  0  0  0  0  0  0  0
   61.6220   31.5980   47.1520 O   0  0  0  0  0  0  0  0  0  0  0  0
   62.4780   33.6950   46.5800 N   0  0  0  0  0  0  0  0  0  0  0  0
   63.7980   33.4600   47.1460 C   0  0  0  0  0  0  0  0  0  0  0  0
   63.6650   33.2030   48.6180 C   0  0  0  0  0  0  0  0  0  0  0  0
   63.1650   34.2040   49.4660 C   0  0  0  0  0  0  0  0  0  0  0  0
   63.0040   33.9540   50.8320 C   0  0  0  0  0  0  0  0  0  0  0  0
   63.3300   32.7000   51.3590 C   0  0  0  0  0  0  0  0  0  0  0  0
   63.1720   32.4600   52.6840 F   0  0  0  0  0  0  0  0  0  0  0  0
   63.8140   31.6940   50.5170 C   0  0  0  0  0  0  0  0  0  0  0  0
   63.9750   31.9400   49.1510 C   0  0  0  0  0  0  0  0  0  0  0  0
   56.1100   30.4770   44.5550 N   0  0  0  0  0  0  0  0  0  0  0  0
   55.7210   29.2430   44.6890 O   0  0  0  0  0  0  0  0  0  0  0  0
   54.5690   27.0830   46.6670 H   0  0  0  0  0  0  0  0  0  0  0  0
   58.5971   29.0813   46.2134 H   0  0  0  0  0  0  0  0  0  0  0  0
   59.3910   31.1260   46.7970 H   0  0  0  0  0  0  0  0  0  0  0  0
   60.0941   33.5937   45.2389 H   0  0  0  0  0  0  0  0  0  0  0  0
   60.0319   35.0582   47.2223 H   0  0  0  0  0  0  0  0  0  0  0  0
   58.3884   34.4013   46.8249 H   0  0  0  0  0  0  0  0  0  0  0  0
   60.4812   35.1724   49.4976 H   0  0  0  0  0  0  0  0  0  0  0  0
   60.2136   34.2938   51.8186 H   0  0  0  0  0  0  0  0  0  0  0  0
   58.8373   32.2523   52.2314 H   0  0  0  0  0  0  0  0  0  0  0  0
   57.7249   31.0871   50.3241 H   0  0  0  0  0  0  0  0  0  0  0  0
   57.9880   31.9584   48.0006 H   0  0  0  0  0  0  0  0  0  0  0  0
   64.2565   32.5862   46.6599 H   0  0  0  0  0  0  0  0  0  0  0  0
   64.4333   34.3427   46.9809 H   0  0  0  0  0  0  0  0  0  0  0  0
   62.8989   35.1886   49.0541 H   0  0  0  0  0  0  0  0  0  0  0  0
   62.6203   34.7447   51.4935 H   0  0  0  0  0  0  0  0  0  0  0  0
   64.0685   30.7071   50.9308 H   0  0  0  0  0  0  0  0  0  0  0  0
   64.3457   31.1423   48.4904 H   0  0  0  0  0  0  0  0  0  0  0  0
  1  2  1  0
  2  3  2  0
  2  4  1  0
  4  5  2  0
  5  6  1  0
  6  7  1  0
  7  8  2  0
  7  9  1  0
  9 10  1  0
 10 11  1  0
 11 12  1  0
 12 13  2  0
 13 14  1  0
 14 15  2  0
 15 16  1  0
 16 17  2  0
 10 18  1  0
 18 19  2  0
 18 20  1  0
 20 21  1  0
 21 22  1  0
 22 23  2  0
 23 24  1  0
 24 25  2  0
 25 26  1  0
 25 27  1  0
 27 28  2  0
  6 29  2  0
 29 30  1  0
 30  4  1  0
 17 12  1  0
 28 22  1  0
  1 31  1  0
  5 32  1  0
  9 33  1  0
 10 34  1  6
 11 35  1  0
 11 36  1  0
 13 37  1  0
 14 38  1  0
 15 39  1  0
 16 40  1  0
 17 41  1  0
 21 42  1  0
 21 43  1  0
 23 44  1  0
 24 45  1  0
 27 46  1  0
 28 47  1  0
M  CHG  2   1  -1  20  -1
M  END
>  <UniqueID>  (10) 
10

>  <SMILES>  (10) 
[NH-]C(=O)c1cc(C(=O)N[C@@H](Cc2ccccc2)C(=O)[N-]Cc2ccc(F)cc2)no1

>  <Energy>  (10) 
69.28413535641444

>  <Genealogy>  (10) 
[NH-]C(=O)c1cc(C(=O)NC(Cc2ccccc2)C(=O)[N-]Cc2ccc(F)cc2)no1 (protonated)
[NH-]C(=O)c1cc(C(=O)N[C@@H](Cc2ccccc2)C(=O)[N-]Cc2ccc(F)cc2)no1 (chirality)
[NH-]C(=O)c1cc(C(=O)N[C@@H](Cc2ccccc2)C(=O)[N-]Cc2ccc(F)cc2)no1 (3D coordinates assigned)
[NH-]C(=O)c1cc(C(=O)N[C@@H](Cc2ccccc2)C(=O)[N-]Cc2ccc(F)cc2)no1 (optimized conformer: 69.28413535641444 kcal/mol)

>  <smiles>  (10) 
NC(=O)c1cc(C(=O)NC(Cc2ccccc2)C(=O)NCc2ccc(F)cc2)no1

>  <score_type>  (10) 
oracle

>  <origin>  (10) 
adg

>  <m_score__min__energy>  (10) 
-11.789999999999999

>  <m_primary>  (10) 
energy

$$$$
10:0
     RDKit          3D

 48 51  0  0  0  0  0  0  0  0999 V2000
   57.7600   20.2360   47.6780 O   0  0  0  0  0  0  0  0  0  0  0  0
   56.9900   20.9470   48.3770 C   0  0  0  0  0  0  0  0  0  0  0  0
   56.1070   20.2950   49.3950 C   0  0  0  0  0  0  0  0  0  0  0  0
   54.7880   20.8350   49.3320 O   0  0  0  0  0  0  0  0  0  0  0  0
   54.1860   21.6290   50.3220 C   0  0  0  0  0  0  0  0  0  0  0  0
   54.5730   21.5790   51.6770 C   0  0  0  0  0  0  0  0  0  0  0  0
   53.9440   22.3970   52.6210 C   0  0  0  0  0  0  0  0  0  0  0  0
   52.9240   23.2660   52.2270 C   0  0  0  0  0  0  0  0  0  0  0  0
   52.5290   23.3170   50.8880 C   0  0  0  0  0  0  0  0  0  0  0  0
   53.1550   22.5010   49.9400 C   0  0  0  0  0  0  0  0  0  0  0  0
   52.7610   22.5570   48.6430 F   0  0  0  0  0  0  0  0  0  0  0  0
   56.9060   22.3630   48.1720 N   0  0  0  0  0  0  0  0  0  0  0  0
   56.2000   23.0350   47.1190 C   0  0  0  0  0  0  0  0  0  0  0  0
   55.5010   22.3320   46.1210 C   0  0  0  0  0  0  0  0  0  0  0  0
   54.8580   23.0260   45.0940 C   0  0  0  0  0  0  0  0  0  0  0  0
   54.9080   24.4210   45.0480 C   0  0  0  0  0  0  0  0  0  0  0  0
   55.6010   25.1380   46.0340 C   0  0  0  0  0  0  0  0  0  0  0  0
   55.6660   26.5730   45.9460 N   0  0  0  0  0  0  0  0  0  0  0  0
   56.8930   27.3220   45.9320 C   0  0  0  0  0  0  0  0  0  0  0  0
   57.9810   26.7710   46.2530 O   0  0  0  0  0  0  0  0  0  0  0  0
   56.8840   28.7510   45.5810 C   0  0  0  0  0  0  0  0  0  0  0  0
   57.8590   29.6720   45.9030 C   0  0  0  0  0  0  0  0  0  0  0  0
   57.3980   30.8550   45.3510 C   0  0  0  0  0  0  0  0  0  0  0  0
   58.0610   32.1810   45.3960 C   0  0  0  0  0  0  0  0  0  0  0  0
   57.5070   33.2990   44.7470 C   0  0  0  0  0  0  0  0  0  0  0  0
   58.1610   34.5320   44.8140 C   0  0  0  0  0  0  0  0  0  0  0  0
   59.3250   34.6520   45.5040 N   0  0  0  0  0  0  0  0  0  0  0  0
   59.8860   33.5920   46.1420 C   0  0  0  0  0  0  0  0  0  0  0  0
   59.2670   32.3400   46.0990 C   0  0  0  0  0  0  0  0  0  0  0  0
   56.2170   30.6300   44.7400 N   0  0  0  0  0  0  0  0  0  0  0  0
   55.9040   29.3500   44.8800 N   0  0  0  0  0  0  0  0  0  0  0  0
   56.2690   24.4330   47.0520 C   0  0  0  0  0  0  0  0  0  0  0  0
   56.0651   19.2135   49.1983 H   0  0  0  0  0  0  0  0  0  0  0  0
   56.5206   20.4826   50.3969 H   0  0  0  0  0  0  0  0  0  0  0  0
   55.3732   20.8936   51.9930 H   0  0  0  0  0  0  0  0  0  0  0  0
   54.2532   22.3559   53.6759 H   0  0  0  0  0  0  0  0  0  0  0  0
   52.4319   23.9100   52.9707 H   0  0  0  0  0  0  0  0  0  0  0  0
   51.7242   24.0001   50.5786 H   0  0  0  0  0  0  0  0  0  0  0  0
   55.4608   21.2331   46.1497 H   0  0  0  0  0  0  0  0  0  0  0  0
   54.3098   22.4717   44.3180 H   0  0  0  0  0  0  0  0  0  0  0  0
   54.4011   24.9601   44.2341 H   0  0  0  0  0  0  0  0  0  0  0  0
   54.7680   27.1040   45.9820 H   0  0  0  0  0  0  0  0  0  0  0  0
   58.7881   29.5051   46.4678 H   0  0  0  0  0  0  0  0  0  0  0  0
   56.5636   33.2032   44.1895 H   0  0  0  0  0  0  0  0  0  0  0  0
   57.7319   35.4084   44.3063 H   0  0  0  0  0  0  0  0  0  0  0  0
   60.8292   33.7195   46.6934 H   0  0  0  0  0  0  0  0  0  0  0  0
   59.7226   31.4814   46.6140 H   0  0  0  0  0  0  0  0  0  0  0  0
   56.8519   24.9854   47.8037 H   0  0  0  0  0  0  0  0  0  0  0  0
  1  2  2  0
  2  3  1  0
  3  4  1  0
  4  5  1  0
  5  6  2  0
  6  7  1  0
  7  8  2  0
  8  9  1  0
  9 10  2  0
 10 11  1  0
  2 12  1  0
 12 13  1  0
 13 14  2  0
 14 15  1  0
 15 16  2  0
 16 17  1  0
 17 18  1  0
 18 19  1  0
 19 20  2  0
 19 21  1  0
 21 22  1  0
 22 23  2  0
 23 24  1  0
 24 25  2  0
 25 26  1  0
 26 27  2  0
 27 28  1  0
 28 29  2  0
 23 30  1  0
 30 31  1  0
 17 32  2  0
 10  5  1  0
 32 13  1  0
 31 21  2  0
 29 24  1  0
  3 33  1  0
  3 34  1  0
  6 35  1  0
  7 36  1  0
  8 37  1  0
  9 38  1  0
 14 39  1  0
 15 40  1  0
 16 41  1  0
 18 42  1  0
 22 43  1  0
 25 44  1  0
 26 45  1  0
 28 46  1  0
 29 47  1  0
 32 48  1  0
M  CHG  2  12  -1  30  -1
M  END
>  <UniqueID>  (11) 
11

>  <SMILES>  (11) 
O=C(COc1ccccc1F)[N-]c1cccc(NC(=O)c2cc(-c3ccncc3)[n-]n2)c1

>  <Energy>  (11) 
89.93175231795607

>  <Genealogy>  (11) 
O=C(COc1ccccc1F)[N-]c1cccc(NC(=O)c2cc(-c3ccncc3)[n-]n2)c1 (protonated)
O=C(COc1ccccc1F)[N-]c1cccc(NC(=O)c2cc(-c3ccncc3)[n-]n2)c1 (3D coordinates assigned)
O=C(COc1ccccc1F)[N-]c1cccc(NC(=O)c2cc(-c3ccncc3)[n-]n2)c1 (optimized conformer: 89.93175231795607 kcal/mol)

>  <smiles>  (11) 
O=C(COc1ccccc1F)Nc1cccc(NC(=O)c2cc(-c3ccncc3)[nH]n2)c1

>  <score_type>  (11) 
oracle

>  <origin>  (11) 
adg

>  <m_score__min__energy>  (11) 
-11.970000000000001

>  <m_primary>  (11) 
energy

$$$$
11:0
     RDKit          3D

 65 69  0  0  0  0  0  0  0  0999 V2000
   59.1290   30.7740   48.9250 C   0  0  0  0  0  0  0  0  0  0  0  0
   59.6980   29.5730   49.1260 C   0  0  0  0  0  0  0  0  0  0  0  0
   59.9140   28.5670   48.1610 C   0  0  0  0  0  0  0  0  0  0  0  0
   59.6310   28.5100   46.8440 C   0  0  0  0  0  0  0  0  0  0  0  0
   58.6010   29.2900   46.1550 C   0  0  0  0  0  0  0  0  0  0  0  0
   57.4460   28.7750   45.7020 N   0  0  0  0  0  0  0  0  0  0  0  0
   56.8260   29.8370   45.1440 C   0  0  0  0  0  0  0  0  0  0  0  0
   55.6670   29.7560   44.6570 O   0  0  0  0  0  0  0  0  0  0  0  0
   57.5410   30.9930   45.1910 N   0  0  0  0  0  0  0  0  0  0  0  0
   57.0560   32.3170   44.7270 C   0  0  0  0  0  0  0  0  0  0  0  0
   58.0790   33.0010   43.7940 C   0  0  0  0  0  0  0  0  0  0  0  0
   59.2330   33.6190   44.5830 C   0  0  0  0  0  0  0  0  0  0  0  0
   58.7100   34.6320   45.5230 N   0  0  0  0  0  0  0  0  0  0  0  0
   59.8200   35.3420   46.1940 C   0  0  0  0  0  0  0  0  0  0  0  0
   60.6150   34.3920   47.0510 C   0  0  0  0  0  0  0  0  0  0  0  0
   61.7070   33.6880   46.5150 C   0  0  0  0  0  0  0  0  0  0  0  0
   62.4480   32.8190   47.3220 C   0  0  0  0  0  0  0  0  0  0  0  0
   62.1060   32.6480   48.6670 C   0  0  0  0  0  0  0  0  0  0  0  0
   61.0250   33.3490   49.2080 C   0  0  0  0  0  0  0  0  0  0  0  0
   60.2820   34.2190   48.4040 C   0  0  0  0  0  0  0  0  0  0  0  0
   57.8500   33.9770   46.5260 C   0  0  0  0  0  0  0  0  0  0  0  0
   56.6440   33.2930   45.8530 C   0  0  0  0  0  0  0  0  0  0  0  0
   58.6590   30.6300   45.8650 C   0  0  0  0  0  0  0  0  0  0  0  0
   59.6870   31.4750   46.2630 O   0  0  0  0  0  0  0  0  0  0  0  0
   60.5280   27.5210   48.8240 C   0  0  0  0  0  0  0  0  0  0  0  0
   60.6750   27.9040   50.1380 C   0  0  0  0  0  0  0  0  0  0  0  0
   61.2700   27.0330   51.2040 C   0  0  0  0  0  0  0  0  0  0  0  0
   60.1670   29.1440   50.3350 N   0  0  0  0  0  0  0  0  0  0  0  0
   60.1540   29.8490   51.6300 C   0  0  0  0  0  0  0  0  0  0  0  0
   58.8050   30.4760   51.8930 C   0  0  0  0  0  0  0  0  0  0  0  0
   57.6800   29.6600   52.1060 C   0  0  0  0  0  0  0  0  0  0  0  0
   56.4280   30.2310   52.3510 C   0  0  0  0  0  0  0  0  0  0  0  0
   56.2870   31.6190   52.3910 C   0  0  0  0  0  0  0  0  0  0  0  0
   57.4000   32.4400   52.1890 C   0  0  0  0  0  0  0  0  0  0  0  0
   58.6560   31.8760   51.9440 C   0  0  0  0  0  0  0  0  0  0  0  0
   59.7200   32.6950   51.7640 F   0  0  0  0  0  0  0  0  0  0  0  0
   59.0161   31.4765   49.7639 H   0  0  0  0  0  0  0  0  0  0  0  0
   58.7762   31.0544   47.9216 H   0  0  0  0  0  0  0  0  0  0  0  0
   60.2267   27.8160   46.2329 H   0  0  0  0  0  0  0  0  0  0  0  0
   56.1358   32.0849   44.1709 H   0  0  0  0  0  0  0  0  0  0  0  0
   58.4834   32.2521   43.0972 H   0  0  0  0  0  0  0  0  0  0  0  0
   57.5640   33.8060   43.2492 H   0  0  0  0  0  0  0  0  0  0  0  0
   59.7530   32.8309   45.1474 H   0  0  0  0  0  0  0  0  0  0  0  0
   59.9347   34.0989   43.8849 H   0  0  0  0  0  0  0  0  0  0  0  0
   60.4810   35.7815   45.4325 H   0  0  0  0  0  0  0  0  0  0  0  0
   59.4004   36.1316   46.8347 H   0  0  0  0  0  0  0  0  0  0  0  0
   61.9796   33.8210   45.4576 H   0  0  0  0  0  0  0  0  0  0  0  0
   63.3012   32.2691   46.8981 H   0  0  0  0  0  0  0  0  0  0  0  0
   62.6881   31.9615   49.2994 H   0  0  0  0  0  0  0  0  0  0  0  0
   60.7584   33.2164   50.2669 H   0  0  0  0  0  0  0  0  0  0  0  0
   59.4326   34.7704   48.8335 H   0  0  0  0  0  0  0  0  0  0  0  0
   58.4382   33.2204   47.0659 H   0  0  0  0  0  0  0  0  0  0  0  0
   57.4767   34.7421   47.2227 H   0  0  0  0  0  0  0  0  0  0  0  0
   56.0874   32.7315   46.6178 H   0  0  0  0  0  0  0  0  0  0  0  0
   56.0295   34.0828   45.3963 H   0  0  0  0  0  0  0  0  0  0  0  0
   60.8405   26.5624   48.3841 H   0  0  0  0  0  0  0  0  0  0  0  0
   60.9996   27.4288   52.1941 H   0  0  0  0  0  0  0  0  0  0  0  0
   60.8818   26.0091   51.0999 H   0  0  0  0  0  0  0  0  0  0  0  0
   62.3650   27.0223   51.0999 H   0  0  0  0  0  0  0  0  0  0  0  0
   60.3793   29.1311   52.4324 H   0  0  0  0  0  0  0  0  0  0  0  0
   60.9110   30.6466   51.6018 H   0  0  0  0  0  0  0  0  0  0  0  0
   57.7858   28.5654   52.0797 H   0  0  0  0  0  0  0  0  0  0  0  0
   55.5522   29.5853   52.5126 H   0  0  0  0  0  0  0  0  0  0  0  0
   55.3004   32.0666   52.5814 H   0  0  0  0  0  0  0  0  0  0  0  0
   57.2876   33.5337   52.2229 H   0  0  0  0  0  0  0  0  0  0  0  0
  1  2  2  0
  2  3  1  0
  3  4  2  3
  4  5  1  0
  5  6  1  0
  6  7  1  0
  7  8  2  0
  7  9  1  0
  9 10  1  0
 10 11  1  0
 11 12  1  0
 12 13  1  0
 13 14  1  0
 14 15  1  0
 15 16  2  0
 16 17  1  0
 17 18  2  0
 18 19  1  0
 19 20  2  0
 13 21  1  0
 21 22  1  0
  9 23  1  0
 23 24  1  0
  3 25  1  0
 25 26  2  0
 26 27  1  0
 26 28  1  0
 28 29  1  0
 29 30  1  0
 30 31  2  0
 31 32  1  0
 32 33  2  0
 33 34  1  0
 34 35  2  0
 35 36  1  0
 28  2  1  0
 35 30  1  0
 23  5  2  0
 22 10  1  0
 20 15  1  0
  1 37  1  0
  1 38  1  0
  4 39  1  0
 10 40  1  0
 11 41  1  0
 11 42  1  0
 12 43  1  0
 12 44  1  0
 14 45  1  0
 14 46  1  0
 16 47  1  0
 17 48  1  0
 18 49  1  0
 19 50  1  0
 20 51  1  0
 21 52  1  0
 21 53  1  0
 22 54  1  0
 22 55  1  0
 25 56  1  0
 27 57  1  0
 27 58  1  0
 27 59  1  0
 29 60  1  0
 29 61  1  0
 31 62  1  0
 32 63  1  0
 33 64  1  0
 34 65  1  0
M  CHG  2   6  -1  24  -1
M  END
>  <UniqueID>  (12) 
12

>  <SMILES>  (12) 
C=c1c(=Cc2[n-]c(=O)n(C3CCN(Cc4ccccc4)CC3)c2[O-])cc(C)n1Cc1ccccc1F

>  <Energy>  (12) 
150.23000652348958

>  <Genealogy>  (12) 
C=c1c(=Cc2[n-]c(=O)n(C3CCN(Cc4ccccc4)CC3)c2[O-])cc(C)n1Cc1ccccc1F (protonated)
C=c1c(=Cc2[n-]c(=O)n(C3CCN(Cc4ccccc4)CC3)c2[O-])cc(C)n1Cc1ccccc1F (3D coordinates assigned)
C=c1c(=Cc2[n-]c(=O)n(C3CCN(Cc4ccccc4)CC3)c2[O-])cc(C)n1Cc1ccccc1F (nonaromatic ring conformer: 150.23000652348958 kcal/mol)

>  <smiles>  (12) 
C=c1c(=Cc2[nH]c(=O)n(C3CCN(Cc4ccccc4)CC3)c2O)cc(C)n1Cc1ccccc1F

>  <score_type>  (12) 
oracle

>  <origin>  (12) 
adg

>  <m_score__min__energy>  (12) 
-13.34

>  <m_primary>  (12) 
energy

$$$$
12:0
     RDKit          3D

 61 63  0  0  0  0  0  0  0  0999 V2000
   64.2330   32.9860   48.7900 C   0  0  0  0  0  0  0  0  0  0  0  0
   63.3160   32.5250   47.6450 C   0  0  0  0  0  0  0  0  0  0  0  0
   62.9740   33.7120   46.7370 C   0  0  0  0  0  0  0  0  0  0  0  0
   62.0180   31.8500   48.1990 C   0  0  0  0  0  0  0  0  0  0  0  0
   61.0660   31.3650   47.1700 N   0  0  1  0  0  0  0  0  0  0  0  0
   60.6090   29.9740   47.4290 C   0  0  0  0  0  0  0  0  0  0  0  0
   60.1520   29.8000   48.8520 C   0  0  0  0  0  0  0  0  0  0  0  0
   60.8300   29.0040   49.7840 C   0  0  0  0  0  0  0  0  0  0  0  0
   59.9610   29.0350   51.2200 S   0  0  0  0  0  0  0  0  0  0  0  0
   58.7140   30.0370   50.6740 C   0  0  0  0  0  0  0  0  0  0  0  0
   57.5210   30.4390   51.4370 C   0  0  0  0  0  0  0  0  0  0  0  0
   56.8260   29.5540   52.0080 O   0  0  0  0  0  0  0  0  0  0  0  0
   57.0460   31.8630   51.4630 C   0  0  0  0  0  0  0  0  0  0  0  0
   57.7970   32.7190   52.4990 C   0  0  0  0  0  0  0  0  0  0  0  0
   59.2280   32.9280   52.0830 C   0  0  0  0  0  0  0  0  0  0  0  0
   60.2790   32.4230   52.8680 C   0  0  0  0  0  0  0  0  0  0  0  0
   61.6070   32.6000   52.4670 C   0  0  0  0  0  0  0  0  0  0  0  0
   61.8970   33.2710   51.2760 C   0  0  0  0  0  0  0  0  0  0  0  0
   60.8570   33.7730   50.4890 C   0  0  0  0  0  0  0  0  0  0  0  0
   59.5270   33.6040   50.8900 C   0  0  0  0  0  0  0  0  0  0  0  0
   58.9640   30.3670   49.3480 C   0  0  0  0  0  0  0  0  0  0  0  0
   59.9520   32.2830   46.9960 C   0  0  0  0  0  0  0  0  0  0  0  0
   59.7420   33.2000   47.8430 O   0  0  0  0  0  0  0  0  0  0  0  0
   59.0390   32.1860   45.8320 C   0  0  0  0  0  0  0  0  0  0  0  0
   58.8070   33.2870   44.9850 C   0  0  0  0  0  0  0  0  0  0  0  0
   57.9780   33.1550   43.8710 C   0  0  0  0  0  0  0  0  0  0  0  0
   57.3540   31.9320   43.6000 C   0  0  0  0  0  0  0  0  0  0  0  0
   57.5610   30.8320   44.4420 C   0  0  0  0  0  0  0  0  0  0  0  0
   56.7370   29.3020   44.1510 S   0  0  0  0  0  0  0  0  0  0  0  0
   55.1560   29.3470   44.8550 N   0  0  0  0  0  0  0  0  0  0  0  0
   56.6290   29.0750   42.6670 O   0  0  0  0  0  0  0  0  0  0  0  0
   57.5180   28.1750   44.7650 O   0  0  0  0  0  0  0  0  0  0  0  0
   58.4070   30.9610   45.5500 C   0  0  0  0  0  0  0  0  0  0  0  0
   63.7617   32.7491   49.7553 H   0  0  0  0  0  0  0  0  0  0  0  0
   65.2001   32.4669   48.7169 H   0  0  0  0  0  0  0  0  0  0  0  0
   64.3932   34.0718   48.7169 H   0  0  0  0  0  0  0  0  0  0  0  0
   63.8519   31.7706   47.0503 H   0  0  0  0  0  0  0  0  0  0  0  0
   62.7221   34.5861   47.3555 H   0  0  0  0  0  0  0  0  0  0  0  0
   63.8403   33.9494   46.1020 H   0  0  0  0  0  0  0  0  0  0  0  0
   62.1142   33.4521   46.1020 H   0  0  0  0  0  0  0  0  0  0  0  0
   62.3189   30.9901   48.8155 H   0  0  0  0  0  0  0  0  0  0  0  0
   61.4856   32.6313   48.7613 H   0  0  0  0  0  0  0  0  0  0  0  0
   61.6300   31.3520   46.2870 H   0  0  0  0  0  0  0  0  0  0  0  0
   59.7724   29.7410   46.7538 H   0  0  0  0  0  0  0  0  0  0  0  0
   61.4555   29.2940   47.2526 H   0  0  0  0  0  0  0  0  0  0  0  0
   61.7667   28.4553   49.6063 H   0  0  0  0  0  0  0  0  0  0  0  0
   57.1973   32.3031   50.4663 H   0  0  0  0  0  0  0  0  0  0  0  0
   55.9830   31.8544   51.7457 H   0  0  0  0  0  0  0  0  0  0  0  0
   57.3006   33.6966   52.5870 H   0  0  0  0  0  0  0  0  0  0  0  0
   57.7839   32.1945   53.4658 H   0  0  0  0  0  0  0  0  0  0  0  0
   60.0559   31.8862   53.8019 H   0  0  0  0  0  0  0  0  0  0  0  0
   62.4251   32.2102   53.0905 H   0  0  0  0  0  0  0  0  0  0  0  0
   62.9418   33.4038   50.9586 H   0  0  0  0  0  0  0  0  0  0  0  0
   61.0844   34.3023   49.5519 H   0  0  0  0  0  0  0  0  0  0  0  0
   58.7124   34.0027   50.2675 H   0  0  0  0  0  0  0  0  0  0  0  0
   58.3007   31.0065   48.7471 H   0  0  0  0  0  0  0  0  0  0  0  0
   59.2816   34.2552   45.2029 H   0  0  0  0  0  0  0  0  0  0  0  0
   57.8143   34.0142   43.2039 H   0  0  0  0  0  0  0  0  0  0  0  0
   56.6983   31.8342   42.7222 H   0  0  0  0  0  0  0  0  0  0  0  0
   55.1430   28.6440   45.6300 H   0  0  0  0  0  0  0  0  0  0  0  0
   58.5794   30.0957   46.2069 H   0  0  0  0  0  0  0  0  0  0  0  0
  1  2  1  0
  2  3  1  0
  2  4  1  0
  4  5  1  0
  5  6  1  0
  6  7  1  0
  7  8  2  0
  8  9  1  0
  9 10  1  0
 10 11  1  0
 11 12  2  0
 11 13  1  0
 13 14  1  0
 14 15  1  0
 15 16  2  0
 16 17  1  0
 17 18  2  0
 18 19  1  0
 19 20  2  0
 10 21  2  0
  5 22  1  0
 22 23  2  0
 22 24  1  0
 24 25  2  0
 25 26  1  0
 26 27  2  0
 27 28  1  0
 28 29  1  0
 29 30  1  0
 29 31  2  0
 29 32  2  0
 28 33  2  0
 21  7  1  0
 33 24  1  0
 20 15  1  0
  1 34  1  0
  1 35  1  0
  1 36  1  0
  2 37  1  0
  3 38  1  0
  3 39  1  0
  3 40  1  0
  4 41  1  0
  4 42  1  0
  5 43  1  6
  6 44  1  0
  6 45  1  0
  8 46  1  0
 13 47  1  0
 13 48  1  0
 14 49  1  0
 14 50  1  0
 16 51  1  0
 17 52  1  0
 18 53  1  0
 19 54  1  0
 20 55  1  0
 21 56  1  0
 25 57  1  0
 26 58  1  0
 27 59  1  0
 30 60  1  0
 33 61  1  0
M  CHG  2   5   1  30  -1
M  END
>  <UniqueID>  (13) 
13

>  <SMILES>  (13) 
CC(C)C[N@@H+](Cc1csc(C(=O)CCc2ccccc2)c1)C(=O)c1cccc(S([NH-])(=O)=O)c1

>  <Energy>  (13) 
96.76358422073699

>  <Genealogy>  (13) 
CC(C)C[NH+](Cc1csc(C(=O)CCc2ccccc2)c1)C(=O)c1cccc(S([NH-])(=O)=O)c1 (protonated)
CC(C)C[N@@H+](Cc1csc(C(=O)CCc2ccccc2)c1)C(=O)c1cccc(S([NH-])(=O)=O)c1 (chirality)
CC(C)C[N@@H+](Cc1csc(C(=O)CCc2ccccc2)c1)C(=O)c1cccc(S([NH-])(=O)=O)c1 (3D coordinates assigned)
CC(C)C[N@@H+](Cc1csc(C(=O)CCc2ccccc2)c1)C(=O)c1cccc(S([NH-])(=O)=O)c1 (optimized conformer: 96.76358422073699 kcal/mol)

>  <smiles>  (13) 
CC(C)CN(Cc1csc(C(=O)CCc2ccccc2)c1)C(=O)c1cccc(S(N)(=O)=O)c1

>  <score_type>  (13) 
oracle

>  <origin>  (13) 
adg

>  <m_score__min__energy>  (13) 
-11.92

>  <m_primary>  (13) 
energy

$$$$
13:0
     RDKit          3D

 61 64  0  0  0  0  0  0  0  0999 V2000
   58.3910   33.8990   52.3610 C   0  0  0  0  0  0  0  0  0  0  0  0
   59.1190   32.7000   52.8160 N   0  0  0  0  0  0  0  0  0  0  0  0
   59.5150   31.8210   51.6880 C   0  0  0  0  0  0  0  0  0  0  0  0
   60.9560   32.0660   51.1980 C   0  0  0  0  0  0  0  0  0  0  0  0
   61.3500   33.4530   51.4780 N   0  0  0  0  0  0  0  0  0  0  0  0
   62.5600   33.8900   50.7440 C   0  0  0  0  0  0  0  0  0  0  0  0
   62.4140   33.8480   49.2360 C   0  0  0  0  0  0  0  0  0  0  0  0
   63.5300   33.6030   48.4190 C   0  0  0  0  0  0  0  0  0  0  0  0
   63.3870   33.5410   47.0310 C   0  0  0  0  0  0  0  0  0  0  0  0
   62.1340   33.7290   46.4440 C   0  0  0  0  0  0  0  0  0  0  0  0
   61.0130   33.9960   47.2430 C   0  0  0  0  0  0  0  0  0  0  0  0
   59.6600   34.1710   46.6050 C   0  0  0  0  0  0  0  0  0  0  0  0
   59.1670   32.8850   46.1100 N   0  0  0  0  0  0  0  0  0  0  0  0
   58.8300   31.7700   46.9580 C   0  0  0  0  0  0  0  0  0  0  0  0
   58.7260   31.9520   48.5910 S   0  0  0  0  0  0  0  0  0  0  0  0
   58.5230   30.4520   46.3570 C   0  0  0  0  0  0  0  0  0  0  0  0
   57.6800   30.3610   45.2370 C   0  0  0  0  0  0  0  0  0  0  0  0
   57.3960   29.1200   44.6600 C   0  0  0  0  0  0  0  0  0  0  0  0
   57.9480   27.9460   45.1940 C   0  0  0  0  0  0  0  0  0  0  0  0
   57.6770   26.6130   44.5470 C   0  0  0  0  0  0  0  0  0  0  0  0
   57.2390   25.6000   45.5810 C   0  0  0  0  0  0  0  0  0  0  0  0
   55.9930   25.7140   46.2250 C   0  0  0  0  0  0  0  0  0  0  0  0
   55.1490   26.7880   45.9510 O   0  0  0  0  0  0  0  0  0  0  0  0
   55.6050   24.7720   47.1240 N   0  0  0  0  0  0  0  0  0  0  0  0
   56.3970   23.7110   47.4160 C   0  0  0  0  0  0  0  0  0  0  0  0
   56.0150   22.8520   48.2520 O   0  0  0  0  0  0  0  0  0  0  0  0
   57.6020   23.5730   46.8060 N   0  0  0  0  0  0  0  0  0  0  0  0
   58.0380   24.4850   45.9000 C   0  0  0  0  0  0  0  0  0  0  0  0
   59.1610   24.3190   45.3530 O   0  0  0  0  0  0  0  0  0  0  0  0
   58.7920   28.0320   46.3120 C   0  0  0  0  0  0  0  0  0  0  0  0
   59.0740   29.2730   46.8920 C   0  0  0  0  0  0  0  0  0  0  0  0
   61.1600   34.0640   48.6380 C   0  0  0  0  0  0  0  0  0  0  0  0
   61.4200   33.7160   52.9300 C   0  0  0  0  0  0  0  0  0  0  0  0
   60.2560   33.0430   53.6930 C   0  0  0  0  0  0  0  0  0  0  0  0
   58.0439   34.4706   53.2344 H   0  0  0  0  0  0  0  0  0  0  0  0
   59.0607   34.5265   51.7546 H   0  0  0  0  0  0  0  0  0  0  0  0
   57.5253   33.5942   51.7546 H   0  0  0  0  0  0  0  0  0  0  0  0
   59.4313   30.7742   52.0155 H   0  0  0  0  0  0  0  0  0  0  0  0
   58.8429   32.0485   50.8474 H   0  0  0  0  0  0  0  0  0  0  0  0
   61.6401   31.3802   51.7192 H   0  0  0  0  0  0  0  0  0  0  0  0
   61.0052   31.8873   50.1137 H   0  0  0  0  0  0  0  0  0  0  0  0
   62.7902   34.9239   51.0407 H   0  0  0  0  0  0  0  0  0  0  0  0
   63.3633   33.1857   51.0061 H   0  0  0  0  0  0  0  0  0  0  0  0
   64.5210   33.4593   48.8743 H   0  0  0  0  0  0  0  0  0  0  0  0
   64.2646   33.3434   46.3980 H   0  0  0  0  0  0  0  0  0  0  0  0
   62.0260   33.6674   45.3511 H   0  0  0  0  0  0  0  0  0  0  0  0
   58.9551   34.5684   47.3501 H   0  0  0  0  0  0  0  0  0  0  0  0
   59.7477   34.8716   45.7615 H   0  0  0  0  0  0  0  0  0  0  0  0
   59.1880   32.7420   45.0750 H   0  0  0  0  0  0  0  0  0  0  0  0
   57.2396   31.2743   44.8104 H   0  0  0  0  0  0  0  0  0  0  0  0
   56.7358   29.0635   43.7820 H   0  0  0  0  0  0  0  0  0  0  0  0
   56.8818   26.7304   43.7961 H   0  0  0  0  0  0  0  0  0  0  0  0
   58.6011   26.2558   44.0691 H   0  0  0  0  0  0  0  0  0  0  0  0
   54.4130   26.7090   45.2590 H   0  0  0  0  0  0  0  0  0  0  0  0
   59.2344   27.1178   46.7346 H   0  0  0  0  0  0  0  0  0  0  0  0
   59.7311   29.3277   47.7725 H   0  0  0  0  0  0  0  0  0  0  0  0
   60.2867   34.2881   49.2681 H   0  0  0  0  0  0  0  0  0  0  0  0
   62.3725   33.3249   53.3170 H   0  0  0  0  0  0  0  0  0  0  0  0
   61.3464   34.8026   53.0842 H   0  0  0  0  0  0  0  0  0  0  0  0
   60.6296   32.1203   54.1610 H   0  0  0  0  0  0  0  0  0  0  0  0
   59.8915   33.7619   54.4416 H   0  0  0  0  0  0  0  0  0  0  0  0
  1  2  1  0
  2  3  1  0
  3  4  1  0
  4  5  1  0
  5  6  1  0
  6  7  1  0
  7  8  2  0
  8  9  1  0
  9 10  2  0
 10 11  1  0
 11 12  1  0
 12 13  1  0
 13 14  1  0
 14 15  2  0
 14 16  1  0
 16 17  2  0
 17 18  1  0
 18 19  2  0
 19 20  1  0
 20 21  1  0
 21 22  2  0
 22 23  1  0
 22 24  1  0
 24 25  1  0
 25 26  2  0
 25 27  1  0
 27 28  1  0
 28 29  2  0
 19 30  1  0
 30 31  2  0
 11 32  2  0
  5 33  1  0
 33 34  1  0
 34  2  1  0
 32  7  1  0
 31 16  1  0
 28 21  1  0
  1 35  1  0
  1 36  1  0
  1 37  1  0
  3 38  1  0
  3 39  1  0
  4 40  1  0
  4 41  1  0
  6 42  1  0
  6 43  1  0
  8 44  1  0
  9 45  1  0
 10 46  1  0
 12 47  1  0
 12 48  1  0
 13 49  1  0
 17 50  1  0
 18 51  1  0
 20 52  1  0
 20 53  1  0
 23 54  1  0
 30 55  1  0
 31 56  1  0
 32 57  1  0
 33 58  1  0
 33 59  1  0
 34 60  1  0
 34 61  1  0
M  CHG  2  24  -1  27  -1
M  END
>  <UniqueID>  (14) 
14

>  <SMILES>  (14) 
CN1CCN(Cc2cccc(CNC(=S)c3ccc(Cc4c(O)[n-]c(=O)[n-]c4=O)cc3)c2)CC1

>  <Energy>  (14) 
79.90462163125511

>  <Genealogy>  (14) 
CN1CCN(Cc2cccc(CNC(=S)c3ccc(Cc4c(O)[n-]c(=O)[n-]c4=O)cc3)c2)CC1 (protonated)
CN1CCN(Cc2cccc(CNC(=S)c3ccc(Cc4c(O)[n-]c(=O)[n-]c4=O)cc3)c2)CC1 (3D coordinates assigned)
CN1CCN(Cc2cccc(CNC(=S)c3ccc(Cc4c(O)[n-]c(=O)[n-]c4=O)cc3)c2)CC1 (nonaromatic ring conformer: 79.90462163125511 kcal/mol)

>  <smiles>  (14) 
CN1CCN(Cc2cccc(CNC(=S)c3ccc(Cc4c(O)[nH]c(=O)[nH]c4=O)cc3)c2)CC1

>  <score_type>  (14) 
oracle

>  <origin>  (14) 
adg

>  <m_score__min__energy>  (14) 
-13.609999999999999

>  <m_primary>  (14) 
energy

$$$$
14:0
     RDKit          3D

 40 42  0  0  0  0  0  0  0  0999 V2000
   57.6410   32.1560   45.5110 C   0  0  0  0  0  0  0  0  0  0  0  0
   57.7080   30.8160   45.3450 C   0  0  0  0  0  0  0  0  0  0  0  0
   56.5750   30.1500   44.8240 C   0  0  0  0  0  0  0  0  0  0  0  0
   55.5310   30.7790   44.4990 O   0  0  0  0  0  0  0  0  0  0  0  0
   56.5970   28.8100   44.6580 N   0  0  0  0  0  0  0  0  0  0  0  0
   57.6670   28.0520   44.9900 C   0  0  0  0  0  0  0  0  0  0  0  0
   57.5730   26.7230   44.7670 C   0  0  0  0  0  0  0  0  0  0  0  0
   57.2110   25.7000   45.7730 C   0  0  0  0  0  0  0  0  0  0  0  0
   55.9150   25.6470   46.3220 C   0  0  0  0  0  0  0  0  0  0  0  0
   54.9340   26.5780   45.9790 O   0  0  0  0  0  0  0  0  0  0  0  0
   55.6050   24.6720   47.2160 N   0  0  0  0  0  0  0  0  0  0  0  0
   56.5170   23.7380   47.5870 C   0  0  0  0  0  0  0  0  0  0  0  0
   56.1090   22.5850   48.6670 S   0  0  0  0  0  0  0  0  0  0  0  0
   57.7660   23.7580   47.0570 N   0  0  0  0  0  0  0  0  0  0  0  0
   58.1310   24.7070   46.1570 C   0  0  0  0  0  0  0  0  0  0  0  0
   59.2930   24.6820   45.6710 O   0  0  0  0  0  0  0  0  0  0  0  0
   58.7940   28.6930   45.5590 C   0  0  0  0  0  0  0  0  0  0  0  0
   59.7560   28.0000   45.9920 O   0  0  0  0  0  0  0  0  0  0  0  0
   58.8340   30.0700   45.6770 N   0  0  0  0  0  0  0  0  0  0  0  0
   60.0870   30.6900   46.2010 C   0  0  0  0  0  0  0  0  0  0  0  0
   59.8410   31.7950   47.1590 N   0  0  0  0  0  0  0  0  0  0  0  0
   60.8990   32.8210   47.1840 C   0  0  0  0  0  0  0  0  0  0  0  0
   60.5930   33.8900   48.2530 C   0  0  0  0  0  0  0  0  0  0  0  0
   59.2630   33.7790   48.7190 O   0  0  0  0  0  0  0  0  0  0  0  0
   59.0920   32.5420   49.3910 C   0  0  0  0  0  0  0  0  0  0  0  0
   59.5210   31.3400   48.5220 C   0  0  0  0  0  0  0  0  0  0  0  0
   58.5053   32.7042   45.9142 H   0  0  0  0  0  0  0  0  0  0  0  0
   56.7222   32.6982   45.2429 H   0  0  0  0  0  0  0  0  0  0  0  0
   57.7844   26.3699   43.7469 H   0  0  0  0  0  0  0  0  0  0  0  0
   55.1510   27.4690   45.5490 H   0  0  0  0  0  0  0  0  0  0  0  0
   60.6749   29.9118   46.7097 H   0  0  0  0  0  0  0  0  0  0  0  0
   60.6216   31.1189   45.3407 H   0  0  0  0  0  0  0  0  0  0  0  0
   61.8616   32.3422   47.4167 H   0  0  0  0  0  0  0  0  0  0  0  0
   60.9446   33.3076   46.1985 H   0  0  0  0  0  0  0  0  0  0  0  0
   61.2824   33.7584   49.1000 H   0  0  0  0  0  0  0  0  0  0  0  0
   60.7221   34.8838   47.7996 H   0  0  0  0  0  0  0  0  0  0  0  0
   59.6994   32.5505   50.3080 H   0  0  0  0  0  0  0  0  0  0  0  0
   58.0221   32.4278   49.6195 H   0  0  0  0  0  0  0  0  0  0  0  0
   60.4092   30.8673   48.9665 H   0  0  0  0  0  0  0  0  0  0  0  0
   58.6962   30.6136   48.4767 H   0  0  0  0  0  0  0  0  0  0  0  0
  1  2  2  0
  2  3  1  0
  3  4  2  0
  3  5  1  0
  5  6  1  0
  6  7  2  3
  7  8  1  0
  8  9  2  0
  9 10  1  0
  9 11  1  0
 11 12  1  0
 12 13  2  0
 12 14  1  0
 14 15  1  0
 15 16  2  0
  6 17  1  0
 17 18  2  0
 17 19  1  0
 19 20  1  0
 20 21  1  0
 21 22  1  0
 22 23  1  0
 23 24  1  0
 24 25  1  0
 25 26  1  0
 19  2  1  0
 26 21  1  0
 15  8  1  0
  1 27  1  0
  1 28  1  0
  7 29  1  0
 10 30  1  0
 20 31  1  0
 20 32  1  0
 22 33  1  0
 22 34  1  0
 23 35  1  0
 23 36  1  0
 25 37  1  0
 25 38  1  0
 26 39  1  0
 26 40  1  0
M  CHG  3   5  -1  11  -1  14  -1
M  END
>  <UniqueID>  (15) 
15

>  <SMILES>  (15) 
C=c1c(=O)[n-]c(=Cc2c(O)[n-]c(=S)[n-]c2=O)c(=O)n1CN1CCOCC1

>  <Energy>  (15) 
82.73526136161061

>  <Genealogy>  (15) 
C=c1c(=O)[n-]c(=Cc2c(O)[n-]c(=S)[n-]c2=O)c(=O)n1CN1CCOCC1 (protonated)
C=c1c(=O)[n-]c(=Cc2c(O)[n-]c(=S)[n-]c2=O)c(=O)n1CN1CCOCC1 (3D coordinates assigned)
C=c1c(=O)[n-]c(=Cc2c(O)[n-]c(=S)[n-]c2=O)c(=O)n1CN1CCOCC1 (nonaromatic ring conformer: 82.73526136161061 kcal/mol)

>  <smiles>  (15) 
C=c1c(=O)[nH]c(=Cc2c(O)[nH]c(=S)[nH]c2=O)c(=O)n1CN1CCOCC1

>  <score_type>  (15) 
oracle

>  <origin>  (15) 
adg

>  <m_score__min__energy>  (15) 
-13.029999999999999

>  <m_primary>  (15) 
energy

$$$$
15:0
     RDKit          3D

 61 66  0  0  0  0  0  0  0  0999 V2000
   68.9710   34.7650   50.4110 C   0  0  0  0  0  0  0  0  0  0  0  0
   68.1580   33.5980   50.0940 N   0  0  0  0  0  0  0  0  0  0  0  0
   66.8760   33.3230   50.6730 C   0  0  0  0  0  0  0  0  0  0  0  0
   66.0810   34.2760   50.8780 O   0  0  0  0  0  0  0  0  0  0  0  0
   66.4430   31.9540   50.9940 C   0  0  0  0  0  0  0  0  0  0  0  0
   67.4090   30.8350   51.7950 S   0  0  0  0  0  0  0  0  0  0  0  0
   66.2610   29.6130   51.8790 C   0  0  0  0  0  0  0  0  0  0  0  0
   65.0990   30.0630   51.2660 C   0  0  0  0  0  0  0  0  0  0  0  0
   65.1950   31.3670   50.7550 C   0  0  0  0  0  0  0  0  0  0  0  0
   64.0870   31.9950   50.0110 C   0  0  0  0  0  0  0  0  0  0  0  0
   63.3680   31.3340   49.0570 N   0  0  0  0  0  0  0  0  0  0  0  0
   62.4770   32.2280   48.6770 N   0  0  0  0  0  0  0  0  0  0  0  0
   61.3830   32.1730   47.8870 C   0  0  0  0  0  0  0  0  0  0  0  0
   60.9730   30.9300   47.1560 C   0  0  0  0  0  0  0  0  0  0  0  0
   60.6740   33.3970   47.9350 C   0  0  0  0  0  0  0  0  0  0  0  0
   59.4310   33.6850   47.2710 N   0  0  0  0  0  0  0  0  0  0  0  0
   59.2230   34.9330   46.5350 C   0  0  0  0  0  0  0  0  0  0  0  0
   58.5980   34.6440   45.1530 C   0  0  0  0  0  0  0  0  0  0  0  0
   57.7780   33.4010   45.1090 N   0  0  0  0  0  0  0  0  0  0  0  0
   58.5170   32.2510   44.5420 C   0  0  0  0  0  0  0  0  0  0  0  0
   57.7910   30.9690   44.8040 C   0  0  0  0  0  0  0  0  0  0  0  0
   58.3760   29.7610   45.1170 C   0  0  0  0  0  0  0  0  0  0  0  0
   57.3020   28.9070   45.2930 C   0  0  0  0  0  0  0  0  0  0  0  0
   57.3570   27.4710   45.6580 C   0  0  0  0  0  0  0  0  0  0  0  0
   56.1770   26.7900   46.0120 C   0  0  0  0  0  0  0  0  0  0  0  0
   56.2160   25.4360   46.3600 C   0  0  0  0  0  0  0  0  0  0  0  0
   57.4310   24.7480   46.3650 C   0  0  0  0  0  0  0  0  0  0  0  0
   58.6090   25.4120   46.0170 C   0  0  0  0  0  0  0  0  0  0  0  0
   58.5760   26.7650   45.6650 C   0  0  0  0  0  0  0  0  0  0  0  0
   56.1530   29.5870   45.0930 N   0  0  0  0  0  0  0  0  0  0  0  0
   56.4500   30.8430   44.7970 N   0  0  0  0  0  0  0  0  0  0  0  0
   57.1900   33.0720   46.4250 C   0  0  0  0  0  0  0  0  0  0  0  0
   58.2800   32.8020   47.4790 C   0  0  0  0  0  0  0  0  0  0  0  0
   61.4300   34.4670   49.0550 S   0  0  0  0  0  0  0  0  0  0  0  0
   62.6330   33.3400   49.3490 C   0  0  0  0  0  0  0  0  0  0  0  0
   63.6400   33.2690   50.2260 N   0  0  0  0  0  0  0  0  0  0  0  0
   69.0466   34.8735   51.5030 H   0  0  0  0  0  0  0  0  0  0  0  0
   69.9770   34.6378   49.9846 H   0  0  0  0  0  0  0  0  0  0  0  0
   68.5031   35.6646   49.9846 H   0  0  0  0  0  0  0  0  0  0  0  0
   66.4046   28.6249   52.3406 H   0  0  0  0  0  0  0  0  0  0  0  0
   64.1867   29.4534   51.1880 H   0  0  0  0  0  0  0  0  0  0  0  0
   60.7143   30.1458   47.8827 H   0  0  0  0  0  0  0  0  0  0  0  0
   60.0990   31.1474   46.5245 H   0  0  0  0  0  0  0  0  0  0  0  0
   61.8049   30.5848   46.5245 H   0  0  0  0  0  0  0  0  0  0  0  0
   58.5478   35.5844   47.1093 H   0  0  0  0  0  0  0  0  0  0  0  0
   60.1942   35.4290   46.3911 H   0  0  0  0  0  0  0  0  0  0  0  0
   57.9545   35.4932   44.8795 H   0  0  0  0  0  0  0  0  0  0  0  0
   59.4314   34.5016   44.4493 H   0  0  0  0  0  0  0  0  0  0  0  0
   58.6218   32.3902   43.4559 H   0  0  0  0  0  0  0  0  0  0  0  0
   59.5065   32.1988   45.0196 H   0  0  0  0  0  0  0  0  0  0  0  0
   59.4477   29.5297   45.2061 H   0  0  0  0  0  0  0  0  0  0  0  0
   55.2169   27.3269   46.0149 H   0  0  0  0  0  0  0  0  0  0  0  0
   55.2874   24.9119   46.6304 H   0  0  0  0  0  0  0  0  0  0  0  0
   57.4601   23.6841   46.6428 H   0  0  0  0  0  0  0  0  0  0  0  0
   59.5658   24.8692   46.0197 H   0  0  0  0  0  0  0  0  0  0  0  0
   59.5080   27.2814   45.3918 H   0  0  0  0  0  0  0  0  0  0  0  0
   56.5698   33.9163   46.7605 H   0  0  0  0  0  0  0  0  0  0  0  0
   56.5841   32.1606   46.3140 H   0  0  0  0  0  0  0  0  0  0  0  0
   57.8647   32.9801   48.4819 H   0  0  0  0  0  0  0  0  0  0  0  0
   58.6132   31.7580   47.3841 H   0  0  0  0  0  0  0  0  0  0  0  0
   63.9690   33.9920   50.9030 H   0  0  0  0  0  0  0  0  0  0  0  0
  1  2  1  0
  2  3  1  0
  3  4  2  0
  3  5  1  0
  5  6  1  0
  6  7  1  0
  7  8  2  0
  8  9  1  0
  9 10  1  0
 10 11  2  0
 11 12  1  0
 12 13  1  0
 13 14  1  0
 13 15  2  0
 15 16  1  0
 16 17  1  0
 17 18  1  0
 18 19  1  0
 19 20  1  0
 20 21  1  0
 21 22  1  0
 22 23  2  0
 23 24  1  0
 24 25  2  0
 25 26  1  0
 26 27  2  0
 27 28  1  0
 28 29  2  0
 23 30  1  0
 30 31  1  0
 19 32  1  0
 32 33  1  0
 15 34  1  0
 34 35  1  0
 35 36  2  0
  9  5  2  0
 36 10  1  0
 35 12  1  0
 33 16  1  0
 31 21  2  0
 29 24  1  0
  1 37  1  0
  1 38  1  0
  1 39  1  0
  7 40  1  0
  8 41  1  0
 14 42  1  0
 14 43  1  0
 14 44  1  0
 17 45  1  0
 17 46  1  0
 18 47  1  0
 18 48  1  0
 20 49  1  0
 20 50  1  0
 22 51  1  0
 25 52  1  0
 26 53  1  0
 27 54  1  0
 28 55  1  0
 29 56  1  0
 32 57  1  0
 32 58  1  0
 33 59  1  0
 33 60  1  0
 36 61  1  0
M  CHG  3   2  -1  30  -1  36   1
M  END
>  <UniqueID>  (16) 
16

>  <SMILES>  (16) 
C[N-]C(=O)c1sccc1-c1nn2c(C)c(N3CCN(Cc4cc(-c5ccccc5)[n-]n4)CC3)sc2[nH+]1

>  <Energy>  (16) 
226.09109150612167

>  <Genealogy>  (16) 
C[N-]C(=O)c1sccc1-c1nn2c(C)c(N3CCN(Cc4cc(-c5ccccc5)[n-]n4)CC3)sc2[nH+]1 (protonated)
C[N-]C(=O)c1sccc1-c1nn2c(C)c(N3CCN(Cc4cc(-c5ccccc5)[n-]n4)CC3)sc2[nH+]1 (3D coordinates assigned)
C[N-]C(=O)c1sccc1-c1nn2c(C)c(N3CCN(Cc4cc(-c5ccccc5)[n-]n4)CC3)sc2[nH+]1 (nonaromatic ring conformer: 226.09109150612167 kcal/mol)

>  <smiles>  (16) 
CNC(=O)c1sccc1-c1nc2sc(N3CCN(Cc4cc(-c5ccccc5)[nH]n4)CC3)c(C)n2n1

>  <score_type>  (16) 
oracle

>  <origin>  (16) 
adg

>  <m_score__min__energy>  (16) 
-12.039999999999999

>  <m_primary>  (16) 
energy

$$$$
16:0
     RDKit          3D

 37 39  0  0  0  0  0  0  0  0999 V2000
   59.1330   28.2700   47.3290 C   0  0  0  0  0  0  0  0  0  0  0  0
   58.2890   28.9420   46.5300 C   0  0  0  0  0  0  0  0  0  0  0  0
   57.5770   28.4540   45.4260 C   0  0  0  0  0  0  0  0  0  0  0  0
   57.4080   27.1990   44.9600 C   0  0  0  0  0  0  0  0  0  0  0  0
   57.1080   26.0140   45.7860 C   0  0  0  0  0  0  0  0  0  0  0  0
   55.8180   25.8190   46.3000 C   0  0  0  0  0  0  0  0  0  0  0  0
   54.7950   26.7100   45.9990 O   0  0  0  0  0  0  0  0  0  0  0  0
   55.5590   24.7470   47.0920 N   0  0  0  0  0  0  0  0  0  0  0  0
   56.5340   23.8600   47.4130 C   0  0  0  0  0  0  0  0  0  0  0  0
   56.1910   22.5800   48.3660 S   0  0  0  0  0  0  0  0  0  0  0  0
   57.7980   24.0420   46.9520 N   0  0  0  0  0  0  0  0  0  0  0  0
   58.1090   25.0980   46.1570 C   0  0  0  0  0  0  0  0  0  0  0  0
   59.2980   25.2480   45.7640 O   0  0  0  0  0  0  0  0  0  0  0  0
   57.0250   29.5940   44.8520 C   0  0  0  0  0  0  0  0  0  0  0  0
   56.1640   29.6600   43.6290 C   0  0  0  0  0  0  0  0  0  0  0  0
   57.3420   30.6770   45.5840 N   0  0  0  0  0  0  0  0  0  0  0  0
   58.0830   30.2810   46.6080 N   0  0  0  0  0  0  0  0  0  0  0  0
   58.6710   31.2130   47.5820 C   0  0  0  0  0  0  0  0  0  0  0  0
   59.0070   32.5400   46.9430 C   0  0  0  0  0  0  0  0  0  0  0  0
   57.9740   33.3550   46.4490 C   0  0  0  0  0  0  0  0  0  0  0  0
   58.2620   34.5970   45.8790 C   0  0  0  0  0  0  0  0  0  0  0  0
   59.5830   35.0420   45.8020 C   0  0  0  0  0  0  0  0  0  0  0  0
   60.6190   34.2480   46.3000 C   0  0  0  0  0  0  0  0  0  0  0  0
   60.3400   33.0020   46.8740 C   0  0  0  0  0  0  0  0  0  0  0  0
   61.6810   32.0530   47.5100 Cl  0  0  0  0  0  0  0  0  0  0  0  0
   59.6261   28.7859   48.1661 H   0  0  0  0  0  0  0  0  0  0  0  0
   59.3314   27.2035   47.1466 H   0  0  0  0  0  0  0  0  0  0  0  0
   57.5016   27.0469   43.8746 H   0  0  0  0  0  0  0  0  0  0  0  0
   55.1084   29.7409   43.9277 H   0  0  0  0  0  0  0  0  0  0  0  0
   56.4441   30.5393   43.0304 H   0  0  0  0  0  0  0  0  0  0  0  0
   56.3068   28.7483   43.0304 H   0  0  0  0  0  0  0  0  0  0  0  0
   57.9511   31.3803   48.3967 H   0  0  0  0  0  0  0  0  0  0  0  0
   59.6009   30.7694   47.9673 H   0  0  0  0  0  0  0  0  0  0  0  0
   56.9307   33.0120   46.5118 H   0  0  0  0  0  0  0  0  0  0  0  0
   57.4471   35.2253   45.4903 H   0  0  0  0  0  0  0  0  0  0  0  0
   59.8083   36.0187   45.3488 H   0  0  0  0  0  0  0  0  0  0  0  0
   61.6583   34.6034   46.2408 H   0  0  0  0  0  0  0  0  0  0  0  0
  1  2  2  0
  2  3  1  0
  3  4  2  3
  4  5  1  0
  5  6  2  0
  6  7  1  0
  6  8  1  0
  8  9  1  0
  9 10  2  0
  9 11  1  0
 11 12  1  0
 12 13  2  0
  3 14  1  0
 14 15  1  0
 14 16  2  0
 16 17  1  0
 17 18  1  0
 18 19  1  0
 19 20  2  0
 20 21  1  0
 21 22  2  0
 22 23  1  0
 23 24  2  0
 24 25  1  0
 17  2  1  0
 24 19  1  0
 12  5  1  0
  1 26  1  0
  1 27  1  0
  4 28  1  0
 15 29  1  0
 15 30  1  0
 15 31  1  0
 18 32  1  0
 18 33  1  0
 20 34  1  0
 21 35  1  0
 22 36  1  0
 23 37  1  0
M  CHG  3   7  -1   8  -1  11  -1
M  END
>  <UniqueID>  (17) 
17

>  <SMILES>  (17) 
C=c1c(=Cc2c([O-])[n-]c(=S)[n-]c2=O)c(C)nn1Cc1ccccc1Cl

>  <Energy>  (17) 
86.79803703627647

>  <Genealogy>  (17) 
C=c1c(=Cc2c([O-])[n-]c(=S)[n-]c2=O)c(C)nn1Cc1ccccc1Cl (protonated)
C=c1c(=Cc2c([O-])[n-]c(=S)[n-]c2=O)c(C)nn1Cc1ccccc1Cl (3D coordinates assigned)
C=c1c(=Cc2c([O-])[n-]c(=S)[n-]c2=O)c(C)nn1Cc1ccccc1Cl (optimized conformer: 86.79803703627647 kcal/mol)

>  <smiles>  (17) 
C=c1c(=Cc2c(O)[nH]c(=S)[nH]c2=O)c(C)nn1Cc1ccccc1Cl

>  <score_type>  (17) 
oracle

>  <origin>  (17) 
adg

>  <m_score__min__energy>  (17) 
-16.050000000000001

>  <m_primary>  (17) 
energy

$$$$
17:0
     RDKit          3D

 55 58  0  0  0  0  0  0  0  0999 V2000
   54.4790   29.2730   54.6170 H   0  0  0  0  0  0  0  0  0  0  0  0
   54.9080   29.4070   52.0820 N   0  0  0  0  0  0  0  0  0  0  0  0
   55.8940   30.1070   52.5770 C   0  0  0  0  0  0  0  0  0  0  0  0
   56.7970   30.6250   51.7020 N   0  0  0  0  0  0  0  0  0  0  0  0
   58.0390   31.6190   53.4630 C   0  0  0  0  0  0  0  0  0  0  0  0
   58.8887   32.2233   53.8135 H   0  0  0  0  0  0  0  0  0  0  0  0
   57.8680   31.3670   52.0940 C   0  0  0  0  0  0  0  0  0  0  0  0
   58.8040   31.8990   51.0700 C   0  0  0  0  0  0  0  0  0  0  0  0
   59.2510   31.1030   49.9980 C   0  0  0  0  0  0  0  0  0  0  0  0
   58.9093   30.0608   49.9136 H   0  0  0  0  0  0  0  0  0  0  0  0
   60.1250   31.6250   49.0400 C   0  0  0  0  0  0  0  0  0  0  0  0
   60.4687   30.9910   48.2094 H   0  0  0  0  0  0  0  0  0  0  0  0
   60.5670   32.9570   49.1330 C   0  0  0  0  0  0  0  0  0  0  0  0
   61.4430   33.5270   48.1990 O   0  0  0  0  0  0  0  0  0  0  0  0
   61.0310   34.2130   47.0190 C   0  0  0  0  0  0  0  0  0  0  0  0
   60.3167   35.0045   47.2900 H   0  0  0  0  0  0  0  0  0  0  0  0
   61.9146   34.6532   46.5338 H   0  0  0  0  0  0  0  0  0  0  0  0
   60.3600   33.2380   46.0440 C   0  0  0  0  0  0  0  0  0  0  0  0
   60.4760   33.6227   45.0200 H   0  0  0  0  0  0  0  0  0  0  0  0
   60.8440   32.2566   46.1559 H   0  0  0  0  0  0  0  0  0  0  0  0
   58.9180   33.0740   46.3330 N   0  0  0  0  0  0  0  0  0  0  0  0
   58.5380   31.6410   46.4120 C   0  0  0  0  0  0  0  0  0  0  0  0
   59.4449   31.0411   46.5783 H   0  0  0  0  0  0  0  0  0  0  0  0
   57.8265   31.5219   47.2424 H   0  0  0  0  0  0  0  0  0  0  0  0
   57.8510   31.1580   45.1210 C   0  0  0  0  0  0  0  0  0  0  0  0
   58.5588   31.2729   44.2868 H   0  0  0  0  0  0  0  0  0  0  0  0
   57.5613   30.1093   45.2833 H   0  0  0  0  0  0  0  0  0  0  0  0
   56.6650   31.8730   44.8050 O   0  0  0  0  0  0  0  0  0  0  0  0
   56.6660   33.2160   45.2710 C   0  0  0  0  0  0  0  0  0  0  0  0
   56.0719   33.8264   44.5750 H   0  0  0  0  0  0  0  0  0  0  0  0
   56.2407   33.2067   46.2854 H   0  0  0  0  0  0  0  0  0  0  0  0
   58.0730   33.8280   45.3760 C   0  0  0  0  0  0  0  0  0  0  0  0
   58.5482   33.8064   44.3842 H   0  0  0  0  0  0  0  0  0  0  0  0
   57.9759   34.8621   45.7383 H   0  0  0  0  0  0  0  0  0  0  0  0
   60.1170   33.7510   50.1910 C   0  0  0  0  0  0  0  0  0  0  0  0
   60.4552   34.7947   50.2704 H   0  0  0  0  0  0  0  0  0  0  0  0
   59.2420   33.2330   51.1490 C   0  0  0  0  0  0  0  0  0  0  0  0
   58.8927   33.8739   51.9719 H   0  0  0  0  0  0  0  0  0  0  0  0
   57.1490   31.1120   54.3510 N   0  0  0  0  0  0  0  0  0  0  0  0
   56.0850   30.3610   53.9610 C   0  0  0  0  0  0  0  0  0  0  0  0
   55.2760   29.9030   54.8630 N   0  0  0  0  0  0  0  0  0  0  0  0
   53.8140   29.8440   51.2190 C   0  0  0  0  0  0  0  0  0  0  0  0
   54.1769   30.6197   50.5286 H   0  0  0  0  0  0  0  0  0  0  0  0
   53.4365   28.9896   50.6381 H   0  0  0  0  0  0  0  0  0  0  0  0
   52.7110   30.4040   52.0690 C   0  0  0  0  0  0  0  0  0  0  0  0
   52.4480   29.8600   53.3370 C   0  0  0  0  0  0  0  0  0  0  0  0
   53.0346   29.0021   53.6976 H   0  0  0  0  0  0  0  0  0  0  0  0
   51.4430   30.4050   54.1430 C   0  0  0  0  0  0  0  0  0  0  0  0
   51.2342   29.9686   55.1309 H   0  0  0  0  0  0  0  0  0  0  0  0
   50.7040   31.5030   53.6950 C   0  0  0  0  0  0  0  0  0  0  0  0
   49.9116   31.9277   54.3288 H   0  0  0  0  0  0  0  0  0  0  0  0
   50.9710   32.0620   52.4420 C   0  0  0  0  0  0  0  0  0  0  0  0
   50.2420   33.1590   52.0000 O   0  0  0  0  0  0  0  0  0  0  0  0
   51.9740   31.5180   51.6320 C   0  0  0  0  0  0  0  0  0  0  0  0
   52.1865   31.9641   50.6492 H   0  0  0  0  0  0  0  0  0  0  0  0
  1  2  1  0
  2  3  2  0
  3  4  1  0
  4  5  1  0
  5  6  1  0
  5  7  2  0
  7  8  1  0
  8  9  2  0
  9 10  1  0
  9 11  1  0
 11 12  1  0
 11 13  2  0
 13 14  1  0
 14 15  1  0
 15 16  1  0
 15 17  1  0
 15 18  1  0
 18 19  1  0
 18 20  1  0
 18 21  1  0
 21 22  1  0
 22 23  1  0
 22 24  1  0
 22 25  1  0
 25 26  1  0
 25 27  1  0
 25 28  1  0
 28 29  1  0
 29 30  1  0
 29 31  1  0
 29 32  1  0
 32 33  1  0
 32 34  1  0
 13 35  1  0
 35 36  1  0
 35 37  2  0
 37 38  1  0
  7 39  1  0
 39 40  1  0
 40 41  2  0
 41 42  1  0
 42 43  1  0
 42 44  1  0
 42 45  1  0
 45 46  2  0
 46 47  1  0
 46 48  1  0
 48 49  1  0
 48 50  2  0
 50 51  1  0
 50 52  1  0
 52 53  1  0
 52 54  2  0
 54 55  1  0
 40  3  1  0
 54 45  1  0
 37  8  1  0
 32 21  1  0
M  CHG  3   4  -1  39  -1  53  -1
M  END
>  <UniqueID>  (18) 
18

>  <SMILES>  (18) 
[H]/N=c1\[n-]cc(-c2ccc(OCCN3CCOCC3)cc2)[n-]\c1=N\Cc1cccc([O-])c1

>  <Energy>  (18) 
82.19467360590399

>  <Genealogy>  (18) 
N=c1[n-]cc(-c2ccc(OCCN3CCOCC3)cc2)[n-]c1=NCc1cccc([O-])c1 (protonated)
[H]/N=c1\[n-]cc(-c2ccc(OCCN3CCOCC3)cc2)[n-]\c1=N\Cc1cccc([O-])c1 (cis-trans isomerization)
[H]/N=c1\[n-]cc(-c2ccc(OCCN3CCOCC3)cc2)[n-]\c1=N\Cc1cccc([O-])c1 (3D coordinates assigned)
[H]/N=c1\[n-]cc(-c2ccc(OCCN3CCOCC3)cc2)[n-]\c1=N\Cc1cccc([O-])c1 (nonaromatic ring conformer: 82.19467360590399 kcal/mol)

>  <smiles>  (18) 
N=c1[nH]cc(-c2ccc(OCCN3CCOCC3)cc2)[nH]c1=NCc1cccc(O)c1

>  <score_type>  (18) 
oracle

>  <origin>  (18) 
adg

>  <m_score__min__energy>  (18) 
-13.52

>  <m_primary>  (18) 
energy

$$$$
18:0
     RDKit          3D

 50 53  0  0  0  0  0  0  0  0999 V2000
   55.5570   29.2970   44.9990 O   0  0  0  0  0  0  0  0  0  0  0  0
   56.5040   30.0880   44.7430 C   0  0  0  0  0  0  0  0  0  0  0  0
   56.2610   31.4940   44.6080 N   0  0  0  0  0  0  0  0  0  0  0  0
   57.0170   32.5740   45.2470 C   0  0  2  0  0  0  0  0  0  0  0  0
   57.8230   33.3780   44.2140 C   0  0  0  0  0  0  0  0  0  0  0  0
   58.7880   34.3150   44.9500 C   0  0  0  0  0  0  0  0  0  0  0  0
   59.8060   33.5830   45.7580 N   0  0  1  0  0  0  0  0  0  0  0  0
   60.1830   34.3910   46.9460 C   0  0  0  0  0  0  0  0  0  0  0  0
   61.4620   33.9040   47.5930 C   0  0  0  0  0  0  0  0  0  0  0  0
   62.5460   33.4960   46.7980 C   0  0  0  0  0  0  0  0  0  0  0  0
   63.7270   33.0410   47.3950 C   0  0  0  0  0  0  0  0  0  0  0  0
   63.8330   32.9900   48.7880 C   0  0  0  0  0  0  0  0  0  0  0  0
   62.7590   33.3950   49.5850 C   0  0  0  0  0  0  0  0  0  0  0  0
   61.5780   33.8540   48.9930 C   0  0  0  0  0  0  0  0  0  0  0  0
   59.3980   32.1970   46.1340 C   0  0  0  0  0  0  0  0  0  0  0  0
   57.8900   32.0610   46.4170 C   0  0  0  0  0  0  0  0  0  0  0  0
   57.8650   29.5680   44.5380 C   0  0  0  0  0  0  0  0  0  0  0  0
   58.6380   30.1700   43.7470 O   0  0  0  0  0  0  0  0  0  0  0  0
   58.3380   28.3390   45.2010 C   0  0  0  0  0  0  0  0  0  0  0  0
   58.2440   27.0500   44.6840 C   0  0  0  0  0  0  0  0  0  0  0  0
   58.7940   26.1560   45.5350 N   0  0  0  0  0  0  0  0  0  0  0  0
   59.2530   26.8670   46.5780 C   0  0  0  0  0  0  0  0  0  0  0  0
   59.9430   26.3820   47.6880 C   0  0  0  0  0  0  0  0  0  0  0  0
   60.3940   27.3110   48.6430 C   0  0  0  0  0  0  0  0  0  0  0  0
   60.1600   28.6930   48.4620 C   0  0  0  0  0  0  0  0  0  0  0  0
   60.7600   29.8410   49.6440 Cl  0  0  0  0  0  0  0  0  0  0  0  0
   59.4630   29.1550   47.3290 C   0  0  0  0  0  0  0  0  0  0  0  0
   59.0030   28.2080   46.4110 C   0  0  0  0  0  0  0  0  0  0  0  0
   56.2896   33.2674   45.6943 H   0  0  0  0  0  0  0  0  0  0  0  0
   58.3944   32.6886   43.5750 H   0  0  0  0  0  0  0  0  0  0  0  0
   57.1382   33.9686   43.5877 H   0  0  0  0  0  0  0  0  0  0  0  0
   59.3100   34.9354   44.2066 H   0  0  0  0  0  0  0  0  0  0  0  0
   58.1909   34.9237   45.6450 H   0  0  0  0  0  0  0  0  0  0  0  0
   60.6550   33.4920   45.1500 H   0  0  0  0  0  0  0  0  0  0  0  0
   60.3214   35.4363   46.6328 H   0  0  0  0  0  0  0  0  0  0  0  0
   59.3752   34.2956   47.6865 H   0  0  0  0  0  0  0  0  0  0  0  0
   62.4661   33.5344   45.7016 H   0  0  0  0  0  0  0  0  0  0  0  0
   64.5728   32.7232   46.7676 H   0  0  0  0  0  0  0  0  0  0  0  0
   64.7614   32.6313   49.2565 H   0  0  0  0  0  0  0  0  0  0  0  0
   62.8427   33.3527   50.6810 H   0  0  0  0  0  0  0  0  0  0  0  0
   60.7374   34.1768   49.6248 H   0  0  0  0  0  0  0  0  0  0  0  0
   59.6606   31.5196   45.3081 H   0  0  0  0  0  0  0  0  0  0  0  0
   59.9280   31.9424   47.0636 H   0  0  0  0  0  0  0  0  0  0  0  0
   57.6583   30.9998   46.5906 H   0  0  0  0  0  0  0  0  0  0  0  0
   57.6596   32.6759   47.2995 H   0  0  0  0  0  0  0  0  0  0  0  0
   57.7857   26.7947   43.7172 H   0  0  0  0  0  0  0  0  0  0  0  0
   58.8610   25.1230   45.3970 H   0  0  0  0  0  0  0  0  0  0  0  0
   60.1292   25.3051   47.8132 H   0  0  0  0  0  0  0  0  0  0  0  0
   60.9320   26.9598   49.5359 H   0  0  0  0  0  0  0  0  0  0  0  0
   59.2861   30.2292   47.1716 H   0  0  0  0  0  0  0  0  0  0  0  0
  1  2  2  0
  2  3  1  0
  3  4  1  0
  4  5  1  0
  5  6  1  0
  6  7  1  0
  7  8  1  0
  8  9  1  0
  9 10  2  0
 10 11  1  0
 11 12  2  0
 12 13  1  0
 13 14  2  0
  7 15  1  0
 15 16  1  0
  2 17  1  0
 17 18  2  0
 17 19  1  0
 19 20  2  0
 20 21  1  0
 21 22  1  0
 22 23  2  0
 23 24  1  0
 24 25  2  0
 25 26  1  0
 25 27  1  0
 27 28  2  0
 16  4  1  0
 28 19  1  0
 14  9  1  0
 28 22  1  0
  4 29  1  1
  5 30  1  0
  5 31  1  0
  6 32  1  0
  6 33  1  0
  7 34  1  6
  8 35  1  0
  8 36  1  0
 10 37  1  0
 11 38  1  0
 12 39  1  0
 13 40  1  0
 14 41  1  0
 15 42  1  0
 15 43  1  0
 16 44  1  0
 16 45  1  0
 20 46  1  0
 21 47  1  0
 23 48  1  0
 24 49  1  0
 27 50  1  0
M  CHG  2   3  -1   7   1
M  END
>  <UniqueID>  (19) 
19

>  <SMILES>  (19) 
O=C([N-]C1CC[NH+](Cc2ccccc2)CC1)C(=O)c1c[nH]c2ccc(Cl)cc12

>  <Energy>  (19) 
99.6198017735235

>  <Genealogy>  (19) 
O=C([N-]C1CC[NH+](Cc2ccccc2)CC1)C(=O)c1c[nH]c2ccc(Cl)cc12 (protonated)
O=C([N-]C1CC[NH+](Cc2ccccc2)CC1)C(=O)c1c[nH]c2ccc(Cl)cc12 (3D coordinates assigned)
O=C([N-]C1CC[NH+](Cc2ccccc2)CC1)C(=O)c1c[nH]c2ccc(Cl)cc12 (nonaromatic ring conformer: 99.6198017735235 kcal/mol)

>  <smiles>  (19) 
O=C(NC1CCN(Cc2ccccc2)CC1)C(=O)c1c[nH]c2ccc(Cl)cc12

>  <score_type>  (19) 
oracle

>  <origin>  (19) 
adg

>  <m_score__min__energy>  (19) 
-9.2400000000000002

>  <m_primary>  (19) 
energy

$$$$
19:0
     RDKit          3D

 52 54  0  0  0  0  0  0  0  0999 V2000
   55.5680   29.3770   44.8740 O   0  0  0  0  0  0  0  0  0  0  0  0
   56.7250   28.9980   44.5450 C   0  0  0  0  0  0  0  0  0  0  0  0
   57.2580   27.7100   45.0950 C   0  0  0  0  0  0  0  0  0  0  0  0
   58.7050   27.6130   44.9030 N   0  0  0  0  0  0  0  0  0  0  0  0
   59.6620   28.5730   45.3720 C   0  0  0  0  0  0  0  0  0  0  0  0
   60.3530   29.2120   44.5330 O   0  0  0  0  0  0  0  0  0  0  0  0
   59.8390   28.8550   46.8040 C   0  0  0  0  0  0  0  0  0  0  0  0
   60.2300   27.8340   47.6820 C   0  0  0  0  0  0  0  0  0  0  0  0
   60.4080   28.1090   49.0390 C   0  0  0  0  0  0  0  0  0  0  0  0
   60.2140   29.4060   49.5260 C   0  0  0  0  0  0  0  0  0  0  0  0
   59.8450   30.4370   48.6500 C   0  0  0  0  0  0  0  0  0  0  0  0
   59.6130   32.0770   49.2470 S   0  0  0  0  0  0  0  0  0  0  0  0
   59.2440   32.0440   50.7050 O   0  0  0  0  0  0  0  0  0  0  0  0
   58.4970   32.7190   48.4690 O   0  0  0  0  0  0  0  0  0  0  0  0
   61.0880   32.9950   49.0420 N   0  0  0  0  0  0  0  0  0  0  0  0
   60.8940   34.1160   48.0870 C   0  0  0  0  0  0  0  0  0  0  0  0
   61.4670   33.8210   46.6940 C   0  0  0  0  0  0  0  0  0  0  0  0
   62.9730   33.5010   46.7600 C   0  0  0  0  0  0  0  0  0  0  0  0
   63.3810   32.8420   48.0880 C   0  0  0  0  0  0  0  0  0  0  0  0
   62.2040   32.0820   48.7080 C   0  0  0  0  0  0  0  0  0  0  0  0
   59.6580   30.1570   47.2890 C   0  0  0  0  0  0  0  0  0  0  0  0
   57.5340   29.8150   43.6870 N   0  0  0  0  0  0  0  0  0  0  0  0
   57.0660   31.0910   43.1540 C   0  0  0  0  0  0  0  0  0  0  0  0
   57.4450   32.2060   44.0840 C   0  0  0  0  0  0  0  0  0  0  0  0
   58.4960   33.0840   43.7750 C   0  0  0  0  0  0  0  0  0  0  0  0
   58.8030   34.1230   44.6580 C   0  0  0  0  0  0  0  0  0  0  0  0
   58.0640   34.2800   45.8330 C   0  0  0  0  0  0  0  0  0  0  0  0
   57.0190   33.3910   46.1050 C   0  0  0  0  0  0  0  0  0  0  0  0
   56.7350   32.3860   45.2330 N   0  0  0  0  0  0  0  0  0  0  0  0
   57.0343   27.6591   46.1708 H   0  0  0  0  0  0  0  0  0  0  0  0
   56.7784   26.8771   44.5600 H   0  0  0  0  0  0  0  0  0  0  0  0
   60.3966   26.8156   47.3012 H   0  0  0  0  0  0  0  0  0  0  0  0
   60.7018   27.3031   49.7277 H   0  0  0  0  0  0  0  0  0  0  0  0
   60.3510   29.6173   50.5968 H   0  0  0  0  0  0  0  0  0  0  0  0
   59.8158   34.3106   47.9888 H   0  0  0  0  0  0  0  0  0  0  0  0
   61.4329   34.9873   48.4875 H   0  0  0  0  0  0  0  0  0  0  0  0
   60.9366   32.9583   46.2645 H   0  0  0  0  0  0  0  0  0  0  0  0
   61.3309   34.7151   46.0679 H   0  0  0  0  0  0  0  0  0  0  0  0
   63.2241   32.8171   45.9358 H   0  0  0  0  0  0  0  0  0  0  0  0
   63.5191   34.4524   46.6792 H   0  0  0  0  0  0  0  0  0  0  0  0
   64.2057   32.1382   47.9019 H   0  0  0  0  0  0  0  0  0  0  0  0
   63.6972   33.6298   48.7876 H   0  0  0  0  0  0  0  0  0  0  0  0
   61.8472   31.3279   47.9910 H   0  0  0  0  0  0  0  0  0  0  0  0
   62.5505   31.6044   49.6364 H   0  0  0  0  0  0  0  0  0  0  0  0
   59.3679   30.9630   46.5989 H   0  0  0  0  0  0  0  0  0  0  0  0
   58.4970   29.4960   43.4370 H   0  0  0  0  0  0  0  0  0  0  0  0
   57.5257   31.2653   42.1700 H   0  0  0  0  0  0  0  0  0  0  0  0
   55.9710   31.0607   43.0542 H   0  0  0  0  0  0  0  0  0  0  0  0
   59.0723   32.9555   42.8469 H   0  0  0  0  0  0  0  0  0  0  0  0
   59.6255   34.8162   44.4280 H   0  0  0  0  0  0  0  0  0  0  0  0
   58.3009   35.0926   46.5355 H   0  0  0  0  0  0  0  0  0  0  0  0
   56.4263   33.5045   47.0247 H   0  0  0  0  0  0  0  0  0  0  0  0
  1  2  2  0
  2  3  1  0
  3  4  1  0
  4  5  1  0
  5  6  2  0
  5  7  1  0
  7  8  2  0
  8  9  1  0
  9 10  2  0
 10 11  1  0
 11 12  1  0
 12 13  2  0
 12 14  2  0
 12 15  1  0
 15 16  1  0
 16 17  1  0
 17 18  1  0
 18 19  1  0
 19 20  1  0
 11 21  2  0
  2 22  1  0
 22 23  1  0
 23 24  1  0
 24 25  2  0
 25 26  1  0
 26 27  2  0
 27 28  1  0
 28 29  2  0
 21  7  1  0
 29 24  1  0
 20 15  1  0
  3 30  1  0
  3 31  1  0
  8 32  1  0
  9 33  1  0
 10 34  1  0
 16 35  1  0
 16 36  1  0
 17 37  1  0
 17 38  1  0
 18 39  1  0
 18 40  1  0
 19 41  1  0
 19 42  1  0
 20 43  1  0
 20 44  1  0
 21 45  1  0
 22 46  1  0
 23 47  1  0
 23 48  1  0
 25 49  1  0
 26 50  1  0
 27 51  1  0
 28 52  1  0
M  CHG  1   4  -1
M  END
>  <UniqueID>  (20) 
20

>  <SMILES>  (20) 
O=C(C[N-]C(=O)c1cccc(S(=O)(=O)N2CCCCC2)c1)NCc1ccccn1

>  <Energy>  (20) 
59.79684537879595

>  <Genealogy>  (20) 
O=C(C[N-]C(=O)c1cccc(S(=O)(=O)N2CCCCC2)c1)NCc1ccccn1 (protonated)
O=C(C[N-]C(=O)c1cccc(S(=O)(=O)N2CCCCC2)c1)NCc1ccccn1 (3D coordinates assigned)
O=C(C[N-]C(=O)c1cccc(S(=O)(=O)N2CCCCC2)c1)NCc1ccccn1 (nonaromatic ring conformer: 59.79684537879595 kcal/mol)

>  <smiles>  (20) 
O=C(CNC(=O)c1cccc(S(=O)(=O)N2CCCCC2)c1)NCc1ccccn1

>  <score_type>  (20) 
oracle

>  <origin>  (20) 
adg

>  <m_score__min__energy>  (20) 
-12.18

>  <m_primary>  (20) 
energy

$$$$
20:0
     RDKit          3D

 43 46  0  0  0  0  0  0  0  0999 V2000
   60.6590   27.7260   45.6990 H   0  0  0  0  0  0  0  0  0  0  0  0
   59.9760   27.1820   46.2110 O   0  0  0  0  0  0  0  0  0  0  0  0
   58.6020   27.3050   46.0020 C   0  0  0  0  0  0  0  0  0  0  0  0
   57.7930   26.2790   46.3740 N   0  0  0  0  0  0  0  0  0  0  0  0
   56.4480   26.3390   46.1960 C   0  0  0  0  0  0  0  0  0  0  0  0
   55.7230   25.3750   46.5540 O   0  0  0  0  0  0  0  0  0  0  0  0
   55.8850   27.4340   45.6280 N   0  0  0  0  0  0  0  0  0  0  0  0
   56.6450   28.4890   45.2350 C   0  0  0  0  0  0  0  0  0  0  0  0
   56.0890   29.4820   44.6920 O   0  0  0  0  0  0  0  0  0  0  0  0
   58.0390   28.4630   45.4310 C   0  0  0  0  0  0  0  0  0  0  0  0
   58.8930   29.5760   44.9700 C   0  0  0  0  0  0  0  0  0  0  0  0
   59.6808   29.3366   44.2406 H   0  0  0  0  0  0  0  0  0  0  0  0
   58.7900   30.8590   45.3660 C   0  0  0  0  0  0  0  0  0  0  0  0
   57.8750   31.7360   44.8120 C   0  0  0  0  0  0  0  0  0  0  0  0
   57.1950   31.5284   43.9727 H   0  0  0  0  0  0  0  0  0  0  0  0
   57.9770   32.9190   45.5110 C   0  0  0  0  0  0  0  0  0  0  0  0
   57.1000   34.1120   45.2800 C   0  0  0  0  0  0  0  0  0  0  0  0
   56.7907   34.5327   46.2482 H   0  0  0  0  0  0  0  0  0  0  0  0
   57.6564   34.8715   44.7111 H   0  0  0  0  0  0  0  0  0  0  0  0
   56.2091   33.8075   44.7111 H   0  0  0  0  0  0  0  0  0  0  0  0
   58.9380   32.8300   46.4610 N   0  0  0  0  0  0  0  0  0  0  0  0
   59.2590   33.8850   47.4370 C   0  0  0  0  0  0  0  0  0  0  0  0
   60.1794   34.3998   47.1241 H   0  0  0  0  0  0  0  0  0  0  0  0
   58.4219   34.5974   47.4793 H   0  0  0  0  0  0  0  0  0  0  0  0
   59.4640   33.2910   48.8080 C   0  0  0  0  0  0  0  0  0  0  0  0
   60.6160   33.5960   49.5490 C   0  0  0  0  0  0  0  0  0  0  0  0
   61.3818   34.2606   49.1225 H   0  0  0  0  0  0  0  0  0  0  0  0
   60.7940   33.0590   50.8260 C   0  0  0  0  0  0  0  0  0  0  0  0
   61.6999   33.3015   51.4009 H   0  0  0  0  0  0  0  0  0  0  0  0
   59.8260   32.2150   51.3760 C   0  0  0  0  0  0  0  0  0  0  0  0
   59.9713   31.7983   52.3836 H   0  0  0  0  0  0  0  0  0  0  0  0
   58.6670   31.8960   50.6470 C   0  0  0  0  0  0  0  0  0  0  0  0
   57.6390   31.0090   51.2290 C   0  0  0  0  0  0  0  0  0  0  0  0
   57.8270   29.7080   51.5180 N   0  0  0  0  0  0  0  0  0  0  0  0
   56.6710   29.3010   52.0160 N   0  0  0  0  0  0  0  0  0  0  0  0
   55.8120   30.3080   52.0320 N   0  0  0  0  0  0  0  0  0  0  0  0
   56.3880   31.3950   51.5440 N   0  0  0  0  0  0  0  0  0  0  0  0
   58.4960   32.4350   49.3610 C   0  0  0  0  0  0  0  0  0  0  0  0
   57.5955   32.1846   48.7810 H   0  0  0  0  0  0  0  0  0  0  0  0
   59.4660   31.5770   46.3700 C   0  0  0  0  0  0  0  0  0  0  0  0
   60.5290   31.1570   47.0770 C   0  0  0  0  0  0  0  0  0  0  0  0
   60.9748   31.8111   47.8408 H   0  0  0  0  0  0  0  0  0  0  0  0
   60.9532   30.1591   46.8919 H   0  0  0  0  0  0  0  0  0  0  0  0
  1  2  1  0
  2  3  1  0
  3  4  1  0
  4  5  1  0
  5  6  2  0
  5  7  1  0
  7  8  1  0
  8  9  2  0
  8 10  1  0
 10 11  1  0
 11 12  1  0
 11 13  2  0
 13 14  1  0
 14 15  1  0
 14 16  2  0
 16 17  1  0
 17 18  1  0
 17 19  1  0
 17 20  1  0
 16 21  1  0
 21 22  1  0
 22 23  1  0
 22 24  1  0
 22 25  1  0
 25 26  2  0
 26 27  1  0
 26 28  1  0
 28 29  1  0
 28 30  2  0
 30 31  1  0
 30 32  1  0
 32 33  1  0
 33 34  1  0
 34 35  2  0
 35 36  1  0
 36 37  1  0
 32 38  2  0
 38 39  1  0
 21 40  1  0
 40 41  2  0
 41 42  1  0
 41 43  1  0
 10  3  2  0
 40 13  1  0
 38 25  1  0
 37 33  2  0
M  CHG  3   4  -1   7  -1  36  -1
M  END
>  <UniqueID>  (21) 
21

>  <SMILES>  (21) 
C=c1/c(=C\c2c(O)[n-]c(=O)[n-]c2=O)cc(C)n1Cc1cccc(-c2nn[n-]n2)c1

>  <Energy>  (21) 
128.77901378989893

>  <Genealogy>  (21) 
C=c1c(=Cc2c(O)[n-]c(=O)[n-]c2=O)cc(C)n1Cc1cccc(-c2nn[n-]n2)c1 (protonated)
C=c1/c(=C\c2c(O)[n-]c(=O)[n-]c2=O)cc(C)n1Cc1cccc(-c2nn[n-]n2)c1 (cis-trans isomerization)
C=c1/c(=C\c2c(O)[n-]c(=O)[n-]c2=O)cc(C)n1Cc1cccc(-c2nn[n-]n2)c1 (3D coordinates assigned)
C=c1/c(=C\c2c(O)[n-]c(=O)[n-]c2=O)cc(C)n1Cc1cccc(-c2nn[n-]n2)c1 (optimized conformer: 128.77901378989893 kcal/mol)

>  <smiles>  (21) 
C=c1c(=Cc2c(O)[nH]c(=O)[nH]c2=O)cc(C)n1Cc1cccc(-c2nn[nH]n2)c1

>  <score_type>  (21) 
oracle

>  <origin>  (21) 
adg

>  <m_score__min__energy>  (21) 
-14.59

>  <m_primary>  (21) 
energy

$$$$
21:0
     RDKit          3D

 24 25  0  0  0  0  0  0  0  0999 V2000
   60.1530   28.1140   48.2520 C   0  0  0  0  0  0  0  0  0  0  0  0
   58.8640   28.2460   47.9420 C   0  0  0  0  0  0  0  0  0  0  0  0
   58.4030   28.6070   46.5820 C   0  0  0  0  0  0  0  0  0  0  0  0
   58.6800   29.9070   46.1300 C   0  0  0  0  0  0  0  0  0  0  0  0
   58.3420   30.2990   44.8340 C   0  0  0  0  0  0  0  0  0  0  0  0
   57.7140   29.4000   43.9740 C   0  0  0  0  0  0  0  0  0  0  0  0
   57.4010   28.1130   44.4140 C   0  0  0  0  0  0  0  0  0  0  0  0
   57.7220   27.7020   45.7210 C   0  0  0  0  0  0  0  0  0  0  0  0
   57.2590   26.3700   46.1740 C   0  0  0  0  0  0  0  0  0  0  0  0
   58.0520   25.3110   46.5670 C   0  0  0  0  0  0  0  0  0  0  0  0
   57.1750   24.3130   46.9460 C   0  0  0  0  0  0  0  0  0  0  0  0
   57.5500   23.0580   47.4130 O   0  0  0  0  0  0  0  0  0  0  0  0
   55.8870   24.6930   46.8180 N   0  0  0  0  0  0  0  0  0  0  0  0
   55.9520   25.9530   46.3500 C   0  0  0  0  0  0  0  0  0  0  0  0
   54.8240   26.7160   46.0700 O   0  0  0  0  0  0  0  0  0  0  0  0
   60.4473   27.8442   49.2770 H   0  0  0  0  0  0  0  0  0  0  0  0
   60.9229   28.2749   47.4830 H   0  0  0  0  0  0  0  0  0  0  0  0
   58.1122   28.0802   48.7277 H   0  0  0  0  0  0  0  0  0  0  0  0
   59.1690   30.6247   46.8051 H   0  0  0  0  0  0  0  0  0  0  0  0
   58.5715   31.3186   44.4909 H   0  0  0  0  0  0  0  0  0  0  0  0
   57.4647   29.7052   42.9470 H   0  0  0  0  0  0  0  0  0  0  0  0
   56.8978   27.4122   43.7316 H   0  0  0  0  0  0  0  0  0  0  0  0
   59.1512   25.2701   46.5765 H   0  0  0  0  0  0  0  0  0  0  0  0
   58.1440   22.9640   48.2280 H   0  0  0  0  0  0  0  0  0  0  0  0
  1  2  2  0
  2  3  1  0
  3  4  2  0
  4  5  1  0
  5  6  2  0
  6  7  1  0
  7  8  2  0
  8  9  1  0
  9 10  1  0
 10 11  2  0
 11 12  1  0
 11 13  1  0
 13 14  1  0
 14 15  1  0
  8  3  1  0
 14  9  2  0
  1 16  1  0
  1 17  1  0
  2 18  1  0
  4 19  1  0
  5 20  1  0
  6 21  1  0
  7 22  1  0
 10 23  1  0
 12 24  1  0
M  CHG  2  13  -1  15  -1
M  END
>  <UniqueID>  (22) 
22

>  <SMILES>  (22) 
C=Cc1ccccc1-c1cc(O)[n-]c1[O-]

>  <Energy>  (22) 
60.5247941235431

>  <Genealogy>  (22) 
C=Cc1ccccc1-c1cc(O)[n-]c1[O-] (protonated)
C=Cc1ccccc1-c1cc(O)[n-]c1[O-] (3D coordinates assigned)
C=Cc1ccccc1-c1cc(O)[n-]c1[O-] (optimized conformer: 60.5247941235431 kcal/mol)

>  <smiles>  (22) 
C=Cc1ccccc1-c1cc(O)[nH]c1O

>  <score_type>  (22) 
oracle

>  <origin>  (22) 
adg

>  <m_score__min__energy>  (22) 
-12.550000000000001

>  <m_primary>  (22) 
energy

$$$$
22:0
     RDKit          3D

 46 48  0  0  0  0  0  0  0  0999 V2000
   55.3614   30.6283   43.8400 H   0  0  0  0  0  0  0  0  0  0  0  0
   56.2510   30.5570   44.4830 C   0  0  0  0  0  0  0  0  0  0  0  0
   57.1790   31.6030   44.5100 C   0  0  0  0  0  0  0  0  0  0  0  0
   57.0150   32.4964   43.8896 H   0  0  0  0  0  0  0  0  0  0  0  0
   58.3200   31.5180   45.3260 C   0  0  0  0  0  0  0  0  0  0  0  0
   59.3020   32.6600   45.3820 C   0  0  0  0  0  0  0  0  0  0  0  0
   58.8476   33.5511   44.9243 H   0  0  0  0  0  0  0  0  0  0  0  0
   60.2118   32.3744   44.8336 H   0  0  0  0  0  0  0  0  0  0  0  0
   59.6630   32.9630   46.7820 N   0  0  0  0  0  0  0  0  0  0  0  0
   58.9950   33.9340   47.4770 C   0  0  0  0  0  0  0  0  0  0  0  0
   58.0760   34.6020   46.9270 O   0  0  0  0  0  0  0  0  0  0  0  0
   59.3190   34.1980   48.7660 N   0  0  0  0  0  0  0  0  0  0  0  0
   58.7930   34.9570   49.2550 H   0  0  0  0  0  0  0  0  0  0  0  0
   60.3000   33.4950   49.3990 C   0  0  0  0  0  0  0  0  0  0  0  0
   60.6290   33.7660   50.6350 N   0  0  0  0  0  0  0  0  0  0  0  0
   59.7160   33.9140   51.7650 C   0  0  0  0  0  0  0  0  0  0  0  0
   59.0564   34.7777   51.5949 H   0  0  0  0  0  0  0  0  0  0  0  0
   60.2921   34.0743   52.6883 H   0  0  0  0  0  0  0  0  0  0  0  0
   58.8890   32.6680   51.8950 C   0  0  0  0  0  0  0  0  0  0  0  0
   57.4950   32.7550   52.0260 C   0  0  0  0  0  0  0  0  0  0  0  0
   57.0037   33.7389   52.0027 H   0  0  0  0  0  0  0  0  0  0  0  0
   56.7270   31.5980   52.1860 C   0  0  0  0  0  0  0  0  0  0  0  0
   55.6337   31.6755   52.2788 H   0  0  0  0  0  0  0  0  0  0  0  0
   57.3460   30.3330   52.2290 C   0  0  0  0  0  0  0  0  0  0  0  0
   56.6090   29.1480   52.3880 O   0  0  0  0  0  0  0  0  0  0  0  0
   55.4510   29.0220   53.2070 C   0  0  0  0  0  0  0  0  0  0  0  0
   55.7458   29.0541   54.2663 H   0  0  0  0  0  0  0  0  0  0  0  0
   54.7592   29.8502   52.9937 H   0  0  0  0  0  0  0  0  0  0  0  0
   54.9535   28.0644   52.9937 H   0  0  0  0  0  0  0  0  0  0  0  0
   58.7420   30.2510   52.1140 C   0  0  0  0  0  0  0  0  0  0  0  0
   59.5510   28.6910   52.1750 Cl  0  0  0  0  0  0  0  0  0  0  0  0
   59.5080   31.4120   51.9530 C   0  0  0  0  0  0  0  0  0  0  0  0
   60.6025   31.3378   51.8715 H   0  0  0  0  0  0  0  0  0  0  0  0
   60.9530   32.4930   48.7290 N   0  0  0  0  0  0  0  0  0  0  0  0
   62.0290   31.7340   49.3930 C   0  0  0  0  0  0  0  0  0  0  0  0
   61.9149   31.8144   50.4841 H   0  0  0  0  0  0  0  0  0  0  0  0
   61.9696   30.6768   49.0951 H   0  0  0  0  0  0  0  0  0  0  0  0
   63.0050   32.1446   49.0951 H   0  0  0  0  0  0  0  0  0  0  0  0
   60.6490   32.2510   47.4140 C   0  0  0  0  0  0  0  0  0  0  0  0
   61.2850   31.3630   46.7770 O   0  0  0  0  0  0  0  0  0  0  0  0
   58.5120   30.3740   46.1210 C   0  0  0  0  0  0  0  0  0  0  0  0
   59.3973   30.2997   46.7696 H   0  0  0  0  0  0  0  0  0  0  0  0
   57.5820   29.3310   46.0900 C   0  0  0  0  0  0  0  0  0  0  0  0
   57.7400   28.4371   46.7113 H   0  0  0  0  0  0  0  0  0  0  0  0
   56.4530   29.4200   45.2730 C   0  0  0  0  0  0  0  0  0  0  0  0
   55.5290   28.3830   45.2460 O   0  0  0  0  0  0  0  0  0  0  0  0
  1  2  1  0
  2  3  2  0
  3  4  1  0
  3  5  1  0
  5  6  1  0
  6  7  1  0
  6  8  1  0
  6  9  1  0
  9 10  1  0
 10 11  2  0
 10 12  1  0
 12 13  1  0
 12 14  1  0
 14 15  2  0
 15 16  1  0
 16 17  1  0
 16 18  1  0
 16 19  1  0
 19 20  2  0
 20 21  1  0
 20 22  1  0
 22 23  1  0
 22 24  2  0
 24 25  1  0
 25 26  1  0
 26 27  1  0
 26 28  1  0
 26 29  1  0
 24 30  1  0
 30 31  1  0
 30 32  2  0
 32 33  1  0
 14 34  1  0
 34 35  1  0
 35 36  1  0
 35 37  1  0
 35 38  1  0
 34 39  1  0
 39 40  2  0
  5 41  2  0
 41 42  1  0
 41 43  1  0
 43 44  1  0
 43 45  2  0
 45 46  1  0
 45  2  1  0
 39  9  1  0
 32 19  1  0
M  CHG  1  46  -1
M  END
>  <UniqueID>  (23) 
23

>  <SMILES>  (23) 
COc1ccc(C/N=c2\[nH]c(=O)n(Cc3ccc([O-])cc3)c(=O)n2C)cc1Cl

>  <Energy>  (23) 
55.47852356267845

>  <Genealogy>  (23) 
COc1ccc(CN=c2[nH]c(=O)n(Cc3ccc([O-])cc3)c(=O)n2C)cc1Cl (protonated)
COc1ccc(C/N=c2\[nH]c(=O)n(Cc3ccc([O-])cc3)c(=O)n2C)cc1Cl (cis-trans isomerization)
COc1ccc(C/N=c2\[nH]c(=O)n(Cc3ccc([O-])cc3)c(=O)n2C)cc1Cl (3D coordinates assigned)
COc1ccc(C/N=c2\[nH]c(=O)n(Cc3ccc([O-])cc3)c(=O)n2C)cc1Cl (optimized conformer: 55.47852356267845 kcal/mol)

>  <smiles>  (23) 
COc1ccc(CN=c2[nH]c(=O)n(Cc3ccc(O)cc3)c(=O)n2C)cc1Cl

>  <score_type>  (23) 
oracle

>  <origin>  (23) 
adg

>  <m_score__min__energy>  (23) 
-10.630000000000001

>  <m_primary>  (23) 
energy

$$$$
23:0
     RDKit          3D

 68 71  0  0  0  0  0  0  0  0999 V2000
   57.8370   32.1270   42.5700 C   0  0  0  0  0  0  0  0  0  0  0  0
   57.7540   31.4920   43.8980 N   0  0  0  0  0  0  0  0  0  0  0  0
   57.1090   30.1610   43.8040 C   0  0  0  0  0  0  0  0  0  0  0  0
   56.0190   30.0320   44.8670 C   0  0  0  0  0  0  0  0  0  0  0  0
   55.5560   28.6520   44.9330 N   0  0  0  0  0  0  0  0  0  0  0  0
   56.2910   27.5860   45.5430 C   0  0  0  0  0  0  0  0  0  0  0  0
   55.6600   26.7220   46.2100 O   0  0  0  0  0  0  0  0  0  0  0  0
   57.7880   27.4890   45.3860 C   0  0  0  0  0  0  0  0  0  0  0  0
   58.5330   28.1780   46.5020 C   0  0  0  0  0  0  0  0  0  0  0  0
   58.8850   29.5330   46.3900 C   0  0  0  0  0  0  0  0  0  0  0  0
   59.5600   30.1740   47.4330 C   0  0  0  0  0  0  0  0  0  0  0  0
   59.8960   29.4660   48.6010 C   0  0  0  0  0  0  0  0  0  0  0  0
   60.5610   30.0990   49.7070 N   0  0  0  0  0  0  0  0  0  0  0  0
   60.0970   31.0680   50.4470 C   0  0  0  0  0  0  0  0  0  0  0  0
   58.7610   31.1940   50.6420 N   0  0  0  0  0  0  0  0  0  0  0  0
   58.2510   32.1980   51.3880 C   0  0  0  0  0  0  0  0  0  0  0  0
   57.0010   32.2790   51.5290 O   0  0  0  0  0  0  0  0  0  0  0  0
   59.0840   33.1080   51.9730 N   0  0  0  0  0  0  0  0  0  0  0  0
   58.5350   34.2180   52.7690 C   0  0  0  0  0  0  0  0  0  0  0  0
   60.4340   33.0190   51.7480 C   0  0  0  0  0  0  0  0  0  0  0  0
   61.2060   33.8900   52.2400 O   0  0  0  0  0  0  0  0  0  0  0  0
   60.9520   31.9970   50.9880 N   0  0  0  0  0  0  0  0  0  0  0  0
   62.4150   31.8770   50.8070 C   0  0  0  0  0  0  0  0  0  0  0  0
   62.8190   32.3740   49.4430 C   0  0  0  0  0  0  0  0  0  0  0  0
   63.0180   33.7480   49.2170 C   0  0  0  0  0  0  0  0  0  0  0  0
   63.3550   34.2120   47.9410 C   0  0  0  0  0  0  0  0  0  0  0  0
   63.4960   33.3110   46.8820 C   0  0  0  0  0  0  0  0  0  0  0  0
   63.3000   31.9430   47.0980 C   0  0  0  0  0  0  0  0  0  0  0  0
   62.9610   31.4760   48.3710 C   0  0  0  0  0  0  0  0  0  0  0  0
   59.4970   28.1310   48.7300 C   0  0  0  0  0  0  0  0  0  0  0  0
   58.8280   27.4860   47.6860 C   0  0  0  0  0  0  0  0  0  0  0  0
   57.0450   32.3790   44.8430 C   0  0  0  0  0  0  0  0  0  0  0  0
   58.0330   33.0860   45.7340 C   0  0  0  0  0  0  0  0  0  0  0  0
   58.9910   33.9490   45.1740 C   0  0  0  0  0  0  0  0  0  0  0  0
   59.9250   34.5910   45.9940 C   0  0  0  0  0  0  0  0  0  0  0  0
   59.9060   34.3800   47.3760 C   0  0  0  0  0  0  0  0  0  0  0  0
   58.9570   33.5260   47.9400 C   0  0  0  0  0  0  0  0  0  0  0  0
   58.0220   32.8790   47.1250 C   0  0  0  0  0  0  0  0  0  0  0  0
   57.9787   33.2112   42.6902 H   0  0  0  0  0  0  0  0  0  0  0  0
   58.6877   31.7054   42.0145 H   0  0  0  0  0  0  0  0  0  0  0  0
   56.9065   31.9382   42.0145 H   0  0  0  0  0  0  0  0  0  0  0  0
   56.6607   30.0431   42.8064 H   0  0  0  0  0  0  0  0  0  0  0  0
   57.8666   29.3804   43.9673 H   0  0  0  0  0  0  0  0  0  0  0  0
   56.4258   30.3281   45.8452 H   0  0  0  0  0  0  0  0  0  0  0  0
   55.1750   30.6865   44.6036 H   0  0  0  0  0  0  0  0  0  0  0  0
   58.0732   26.4267   45.3750 H   0  0  0  0  0  0  0  0  0  0  0  0
   58.0580   27.9907   44.4450 H   0  0  0  0  0  0  0  0  0  0  0  0
   58.6286   30.0921   45.4780 H   0  0  0  0  0  0  0  0  0  0  0  0
   59.8295   31.2364   47.3399 H   0  0  0  0  0  0  0  0  0  0  0  0
   58.6469   33.9918   53.8397 H   0  0  0  0  0  0  0  0  0  0  0  0
   59.0790   35.1440   52.5311 H   0  0  0  0  0  0  0  0  0  0  0  0
   57.4689   34.3476   52.5311 H   0  0  0  0  0  0  0  0  0  0  0  0
   62.9255   32.4750   51.5763 H   0  0  0  0  0  0  0  0  0  0  0  0
   62.7000   30.8186   50.8995 H   0  0  0  0  0  0  0  0  0  0  0  0
   62.9081   34.4610   50.0474 H   0  0  0  0  0  0  0  0  0  0  0  0
   63.5093   35.2878   47.7709 H   0  0  0  0  0  0  0  0  0  0  0  0
   63.7609   33.6774   45.8792 H   0  0  0  0  0  0  0  0  0  0  0  0
   63.4128   31.2337   46.2648 H   0  0  0  0  0  0  0  0  0  0  0  0
   62.8044   30.3996   48.5349 H   0  0  0  0  0  0  0  0  0  0  0  0
   59.7116   27.5849   49.6604 H   0  0  0  0  0  0  0  0  0  0  0  0
   58.5318   26.4321   47.7932 H   0  0  0  0  0  0  0  0  0  0  0  0
   56.4672   33.1249   44.2774 H   0  0  0  0  0  0  0  0  0  0  0  0
   56.3695   31.7738   45.4654 H   0  0  0  0  0  0  0  0  0  0  0  0
   59.0063   34.1200   44.0875 H   0  0  0  0  0  0  0  0  0  0  0  0
   60.6752   35.2626   45.5510 H   0  0  0  0  0  0  0  0  0  0  0  0
   60.6397   34.8876   48.0194 H   0  0  0  0  0  0  0  0  0  0  0  0
   58.9442   33.3613   49.0275 H   0  0  0  0  0  0  0  0  0  0  0  0
   57.2760   32.2064   47.5735 H   0  0  0  0  0  0  0  0  0  0  0  0
  1  2  1  0
  2  3  1  0
  3  4  1  0
  4  5  1  0
  5  6  1  0
  6  7  2  0
  6  8  1  0
  8  9  1  0
  9 10  2  0
 10 11  1  0
 11 12  2  0
 12 13  1  0
 13 14  2  3
 14 15  1  0
 15 16  1  0
 16 17  2  0
 16 18  1  0
 18 19  1  0
 18 20  1  0
 20 21  2  0
 20 22  1  0
 22 23  1  0
 23 24  1  0
 24 25  2  0
 25 26  1  0
 26 27  2  0
 27 28  1  0
 28 29  2  0
 12 30  1  0
 30 31  2  0
  2 32  1  0
 32 33  1  0
 33 34  2  0
 34 35  1  0
 35 36  2  0
 36 37  1  0
 37 38  2  0
 31  9  1  0
 38 33  1  0
 22 14  1  0
 29 24  1  0
  1 39  1  0
  1 40  1  0
  1 41  1  0
  3 42  1  0
  3 43  1  0
  4 44  1  0
  4 45  1  0
  8 46  1  0
  8 47  1  0
 10 48  1  0
 11 49  1  0
 19 50  1  0
 19 51  1  0
 19 52  1  0
 23 53  1  0
 23 54  1  0
 25 55  1  0
 26 56  1  0
 27 57  1  0
 28 58  1  0
 29 59  1  0
 30 60  1  0
 31 61  1  0
 32 62  1  0
 32 63  1  0
 34 64  1  0
 35 65  1  0
 36 66  1  0
 37 67  1  0
 38 68  1  0
M  CHG  2   5  -1  15  -1
M  END
>  <UniqueID>  (24) 
24

>  <SMILES>  (24) 
CN(CC[N-]C(=O)Cc1ccc(N=c2[n-]c(=O)n(C)c(=O)n2Cc2ccccc2)cc1)Cc1ccccc1

>  <Energy>  (24) 
81.88969541766713

>  <Genealogy>  (24) 
CN(CC[N-]C(=O)Cc1ccc(N=c2[n-]c(=O)n(C)c(=O)n2Cc2ccccc2)cc1)Cc1ccccc1 (protonated)
CN(CC[N-]C(=O)Cc1ccc(N=c2[n-]c(=O)n(C)c(=O)n2Cc2ccccc2)cc1)Cc1ccccc1 (3D coordinates assigned)
CN(CC[N-]C(=O)Cc1ccc(N=c2[n-]c(=O)n(C)c(=O)n2Cc2ccccc2)cc1)Cc1ccccc1 (optimized conformer: 81.88969541766713 kcal/mol)

>  <smiles>  (24) 
CN(CCNC(=O)Cc1ccc(N=c2[nH]c(=O)n(C)c(=O)n2Cc2ccccc2)cc1)Cc1ccccc1

>  <score_type>  (24) 
oracle

>  <origin>  (24) 
adg

>  <m_score__min__energy>  (24) 
-13.16

>  <m_primary>  (24) 
energy

$$$$
24:0
     RDKit          3D

 53 56  0  0  0  0  0  0  0  0999 V2000
   61.7650   33.9740   51.1330 O   0  0  0  0  0  0  0  0  0  0  0  0
   61.0680   33.7810   50.0980 C   0  0  0  0  0  0  0  0  0  0  0  0
   59.6330   33.7440   50.1780 N   0  0  0  0  0  0  0  0  0  0  0  0
   58.9060   32.9080   50.8610 C   0  0  0  0  0  0  0  0  0  0  0  0
   58.4910   33.2590   52.1510 C   0  0  0  0  0  0  0  0  0  0  0  0
   57.6980   32.3730   52.8840 C   0  0  0  0  0  0  0  0  0  0  0  0
   57.3240   31.1500   52.3250 C   0  0  0  0  0  0  0  0  0  0  0  0
   56.3250   30.0270   53.2300 Cl  0  0  0  0  0  0  0  0  0  0  0  0
   57.7510   30.8310   51.0330 C   0  0  0  0  0  0  0  0  0  0  0  0
   58.5240   31.7070   50.3370 N   0  0  0  0  0  0  0  0  0  0  0  0
   61.7420   33.6510   48.7870 C   0  0  0  0  0  0  0  0  0  0  0  0
   63.0130   33.0480   48.7450 C   0  0  0  0  0  0  0  0  0  0  0  0
   63.7270   32.9730   47.5500 C   0  0  0  0  0  0  0  0  0  0  0  0
   63.1770   33.4820   46.3740 C   0  0  0  0  0  0  0  0  0  0  0  0
   61.8990   34.0390   46.3850 C   0  0  0  0  0  0  0  0  0  0  0  0
   61.1680   34.1260   47.5790 C   0  0  0  0  0  0  0  0  0  0  0  0
   59.5440   34.9040   47.5080 S   0  0  0  0  0  0  0  0  0  0  0  0
   58.8260   33.7190   46.3540 C   0  0  0  0  0  0  0  0  0  0  0  0
   58.2880   34.2120   45.1560 C   0  0  0  0  0  0  0  0  0  0  0  0
   57.8210   33.3410   44.1740 C   0  0  0  0  0  0  0  0  0  0  0  0
   57.9210   31.9650   44.3610 C   0  0  0  0  0  0  0  0  0  0  0  0
   57.5070   31.1180   43.3850 F   0  0  0  0  0  0  0  0  0  0  0  0
   58.4680   31.4560   45.5410 C   0  0  0  0  0  0  0  0  0  0  0  0
   58.8940   32.3200   46.5690 C   0  0  0  0  0  0  0  0  0  0  0  0
   59.4290   31.7930   47.8000 N   0  0  0  0  0  0  0  0  0  0  0  0
   60.5510   30.4690   47.9040 S   0  0  0  0  0  0  0  0  0  0  0  0
   61.3100   30.5890   49.1960 O   0  0  0  0  0  0  0  0  0  0  0  0
   61.5250   30.5560   46.7640 O   0  0  0  0  0  0  0  0  0  0  0  0
   59.7470   28.8670   47.8780 C   0  0  0  0  0  0  0  0  0  0  0  0
   59.1420   28.5600   46.5370 C   0  0  0  0  0  0  0  0  0  0  0  0
   59.9450   28.5330   45.3840 C   0  0  0  0  0  0  0  0  0  0  0  0
   59.3970   28.1590   44.1540 C   0  0  0  0  0  0  0  0  0  0  0  0
   58.0470   27.8080   44.0660 C   0  0  0  0  0  0  0  0  0  0  0  0
   57.2360   27.8600   45.2020 C   0  0  0  0  0  0  0  0  0  0  0  0
   57.7790   28.2410   46.4340 C   0  0  0  0  0  0  0  0  0  0  0  0
   58.7873   34.2257   52.5844 H   0  0  0  0  0  0  0  0  0  0  0  0
   57.3690   32.6385   53.8995 H   0  0  0  0  0  0  0  0  0  0  0  0
   57.4619   29.8716   50.5792 H   0  0  0  0  0  0  0  0  0  0  0  0
   63.4479   32.6312   49.6654 H   0  0  0  0  0  0  0  0  0  0  0  0
   64.7255   32.5117   47.5347 H   0  0  0  0  0  0  0  0  0  0  0  0
   63.7519   33.4440   45.4370 H   0  0  0  0  0  0  0  0  0  0  0  0
   61.4598   34.4137   45.4487 H   0  0  0  0  0  0  0  0  0  0  0  0
   58.2342   35.2981   44.9901 H   0  0  0  0  0  0  0  0  0  0  0  0
   57.3737   33.7401   43.2517 H   0  0  0  0  0  0  0  0  0  0  0  0
   58.5673   30.3680   45.6692 H   0  0  0  0  0  0  0  0  0  0  0  0
   59.1630   32.2310   48.7070 H   0  0  0  0  0  0  0  0  0  0  0  0
   60.4909   28.0928   48.1171 H   0  0  0  0  0  0  0  0  0  0  0  0
   58.9353   28.8832   48.6202 H   0  0  0  0  0  0  0  0  0  0  0  0
   61.0083   28.8071   45.4499 H   0  0  0  0  0  0  0  0  0  0  0  0
   60.0290   28.1408   43.2539 H   0  0  0  0  0  0  0  0  0  0  0  0
   57.6231   27.4907   43.1018 H   0  0  0  0  0  0  0  0  0  0  0  0
   56.1694   27.6012   45.1280 H   0  0  0  0  0  0  0  0  0  0  0  0
   57.1356   28.2907   47.3248 H   0  0  0  0  0  0  0  0  0  0  0  0
  1  2  2  0
  2  3  1  0
  3  4  2  3
  4  5  1  0
  5  6  2  0
  6  7  1  0
  7  8  1  0
  7  9  2  0
  9 10  1  0
  2 11  1  0
 11 12  2  0
 12 13  1  0
 13 14  2  0
 14 15  1  0
 15 16  2  0
 16 17  1  0
 17 18  1  0
 18 19  2  0
 19 20  1  0
 20 21  2  0
 21 22  1  0
 21 23  1  0
 23 24  2  0
 24 25  1  0
 25 26  1  0
 26 27  2  0
 26 28  2  0
 26 29  1  0
 29 30  1  0
 30 31  2  0
 31 32  1  0
 32 33  2  0
 33 34  1  0
 34 35  2  0
 10  4  1  0
 16 11  1  0
 24 18  1  0
 35 30  1  0
  5 36  1  0
  6 37  1  0
  9 38  1  0
 12 39  1  0
 13 40  1  0
 14 41  1  0
 15 42  1  0
 19 43  1  0
 20 44  1  0
 23 45  1  0
 25 46  1  0
 29 47  1  0
 29 48  1  0
 31 49  1  0
 32 50  1  0
 33 51  1  0
 34 52  1  0
 35 53  1  0
M  CHG  1  10  -1
M  END
>  <UniqueID>  (25) 
25

>  <SMILES>  (25) 
O=C(N=c1ccc(Cl)c[n-]1)c1ccccc1Sc1ccc(F)cc1NS(=O)(=O)Cc1ccccc1

>  <Energy>  (25) 
57.93548924209207

>  <Genealogy>  (25) 
O=C(N=c1ccc(Cl)c[n-]1)c1ccccc1Sc1ccc(F)cc1NS(=O)(=O)Cc1ccccc1 (protonated)
O=C(N=c1ccc(Cl)c[n-]1)c1ccccc1Sc1ccc(F)cc1NS(=O)(=O)Cc1ccccc1 (3D coordinates assigned)
O=C(N=c1ccc(Cl)c[n-]1)c1ccccc1Sc1ccc(F)cc1NS(=O)(=O)Cc1ccccc1 (optimized conformer: 57.93548924209207 kcal/mol)

>  <smiles>  (25) 
O=C(N=c1ccc(Cl)c[nH]1)c1ccccc1Sc1ccc(F)cc1NS(=O)(=O)Cc1ccccc1

>  <score_type>  (25) 
oracle

>  <origin>  (25) 
adg

>  <m_score__min__energy>  (25) 
-11.619999999999999

>  <m_primary>  (25) 
energy

$$$$
25:0
     RDKit          3D

 49 51  0  0  0  0  0  0  0  0999 V2000
   55.4560   25.2470   45.5820 C   0  0  0  0  0  0  0  0  0  0  0  0
   55.4840   26.6130   45.9820 O   0  0  0  0  0  0  0  0  0  0  0  0
   56.5750   27.4750   45.7900 C   0  0  0  0  0  0  0  0  0  0  0  0
   57.8570   27.1910   46.3000 C   0  0  0  0  0  0  0  0  0  0  0  0
   58.9170   28.0890   46.1030 C   0  0  0  0  0  0  0  0  0  0  0  0
   60.2540   27.7640   46.6450 C   0  0  0  0  0  0  0  0  0  0  0  0
   60.7820   28.2950   47.7600 C   0  0  0  0  0  0  0  0  0  0  0  0
   60.4430   27.8720   49.1300 C   0  0  0  0  0  0  0  0  0  0  0  0
   61.0490   26.8920   49.6370 O   0  0  0  0  0  0  0  0  0  0  0  0
   59.3720   28.5040   49.8410 N   0  0  0  0  0  0  0  0  0  0  0  0
   59.1550   29.9180   49.9490 C   0  0  0  0  0  0  0  0  0  0  0  0
   59.8550   30.8320   49.1400 C   0  0  0  0  0  0  0  0  0  0  0  0
   59.5570   32.2000   49.1920 C   0  0  0  0  0  0  0  0  0  0  0  0
   60.4020   33.3310   48.1330 S   0  0  0  0  0  0  0  0  0  0  0  0
   61.7860   32.8120   47.8600 O   0  0  0  0  0  0  0  0  0  0  0  0
   60.5300   34.6570   48.8280 O   0  0  0  0  0  0  0  0  0  0  0  0
   59.5550   33.5580   46.6210 N   0  0  0  0  0  0  0  0  0  0  0  0
   58.2380   34.1650   46.8550 C   0  0  0  0  0  0  0  0  0  0  0  0
   57.5030   34.3650   45.5120 C   0  0  0  0  0  0  0  0  0  0  0  0
   58.2180   33.8060   44.4230 O   0  0  0  0  0  0  0  0  0  0  0  0
   58.4920   32.4420   44.6790 C   0  0  0  0  0  0  0  0  0  0  0  0
   59.4030   32.2750   45.9140 C   0  0  0  0  0  0  0  0  0  0  0  0
   58.5630   32.6590   50.0660 C   0  0  0  0  0  0  0  0  0  0  0  0
   57.8600   31.7560   50.8670 C   0  0  0  0  0  0  0  0  0  0  0  0
   58.1460   30.3890   50.8010 C   0  0  0  0  0  0  0  0  0  0  0  0
   57.4200   29.4980   51.5850 O   0  0  0  0  0  0  0  0  0  0  0  0
   58.7040   29.2510   45.3410 C   0  0  0  0  0  0  0  0  0  0  0  0
   57.4330   29.5390   44.8390 C   0  0  0  0  0  0  0  0  0  0  0  0
   56.3720   28.6580   45.0640 C   0  0  0  0  0  0  0  0  0  0  0  0
   55.1130   28.9590   44.5600 O   0  0  0  0  0  0  0  0  0  0  0  0
   55.4428   24.6039   46.4743 H   0  0  0  0  0  0  0  0  0  0  0  0
   54.5538   25.0592   44.9813 H   0  0  0  0  0  0  0  0  0  0  0  0
   56.3497   25.0224   44.9813 H   0  0  0  0  0  0  0  0  0  0  0  0
   58.0284   26.2581   46.8570 H   0  0  0  0  0  0  0  0  0  0  0  0
   60.8621   27.0320   46.0932 H   0  0  0  0  0  0  0  0  0  0  0  0
   61.5195   29.1026   47.6420 H   0  0  0  0  0  0  0  0  0  0  0  0
   60.6418   30.4699   48.4619 H   0  0  0  0  0  0  0  0  0  0  0  0
   57.6420   33.5042   47.5016 H   0  0  0  0  0  0  0  0  0  0  0  0
   58.3720   35.1420   47.3425 H   0  0  0  0  0  0  0  0  0  0  0  0
   56.5161   33.8830   45.5728 H   0  0  0  0  0  0  0  0  0  0  0  0
   57.4094   35.4467   45.3355 H   0  0  0  0  0  0  0  0  0  0  0  0
   57.5441   31.9138   44.8589 H   0  0  0  0  0  0  0  0  0  0  0  0
   59.0116   32.0223   43.8050 H   0  0  0  0  0  0  0  0  0  0  0  0
   58.9562   31.5367   46.5961 H   0  0  0  0  0  0  0  0  0  0  0  0
   60.3941   31.9331   45.5810 H   0  0  0  0  0  0  0  0  0  0  0  0
   58.3354   33.7338   50.1217 H   0  0  0  0  0  0  0  0  0  0  0  0
   57.0798   32.1211   51.5511 H   0  0  0  0  0  0  0  0  0  0  0  0
   59.5411   29.9356   45.1395 H   0  0  0  0  0  0  0  0  0  0  0  0
   57.2666   30.4623   44.2647 H   0  0  0  0  0  0  0  0  0  0  0  0
  1  2  1  0
  2  3  1  0
  3  4  2  0
  4  5  1  0
  5  6  1  0
  6  7  2  3
  7  8  1  0
  8  9  2  0
  8 10  1  0
 10 11  1  0
 11 12  2  0
 12 13  1  0
 13 14  1  0
 14 15  2  0
 14 16  2  0
 14 17  1  0
 17 18  1  0
 18 19  1  0
 19 20  1  0
 20 21  1  0
 21 22  1  0
 13 23  2  0
 23 24  1  0
 24 25  2  0
 25 26  1  0
  5 27  2  0
 27 28  1  0
 28 29  2  0
 29 30  1  0
 29  3  1  0
 25 11  1  0
 22 17  1  0
  1 31  1  0
  1 32  1  0
  1 33  1  0
  4 34  1  0
  6 35  1  0
  7 36  1  0
 12 37  1  0
 18 38  1  0
 18 39  1  0
 19 40  1  0
 19 41  1  0
 21 42  1  0
 21 43  1  0
 22 44  1  0
 22 45  1  0
 23 46  1  0
 24 47  1  0
 27 48  1  0
 28 49  1  0
M  CHG  3  10  -1  26  -1  30  -1
M  END
>  <UniqueID>  (26) 
26

>  <SMILES>  (26) 
COc1cc(C=CC(=O)[N-]c2cc(S(=O)(=O)N3CCOCC3)ccc2[O-])ccc1[O-]

>  <Energy>  (26) 
65.75102318287759

>  <Genealogy>  (26) 
COc1cc(C=CC(=O)[N-]c2cc(S(=O)(=O)N3CCOCC3)ccc2[O-])ccc1[O-] (protonated)
COc1cc(C=CC(=O)[N-]c2cc(S(=O)(=O)N3CCOCC3)ccc2[O-])ccc1[O-] (3D coordinates assigned)
COc1cc(C=CC(=O)[N-]c2cc(S(=O)(=O)N3CCOCC3)ccc2[O-])ccc1[O-] (nonaromatic ring conformer: 65.75102318287759 kcal/mol)

>  <smiles>  (26) 
COc1cc(C=CC(=O)Nc2cc(S(=O)(=O)N3CCOCC3)ccc2O)ccc1O

>  <score_type>  (26) 
oracle

>  <origin>  (26) 
adg

>  <m_score__min__energy>  (26) 
-15.359999999999999

>  <m_primary>  (26) 
energy

$$$$
26:0
     RDKit          3D

 48 51  0  0  0  0  0  0  0  0999 V2000
   54.7389   24.8197   46.1685 H   0  0  0  0  0  0  0  0  0  0  0  0
   55.6270   25.4260   45.9370 C   0  0  0  0  0  0  0  0  0  0  0  0
   55.6190   26.7830   45.9960 N   0  0  0  0  0  0  0  0  0  0  0  0
   56.8280   27.2970   45.6770 C   0  0  0  0  0  0  0  0  0  0  0  0
   57.0930   28.5690   45.6310 N   0  0  0  0  0  0  0  0  0  0  0  0
   56.3640   29.5470   44.8760 C   0  0  0  0  0  0  0  0  0  0  0  0
   55.1580   29.3120   44.5980 O   0  0  0  0  0  0  0  0  0  0  0  0
   56.9970   30.7850   44.3590 C   0  0  0  0  0  0  0  0  0  0  0  0
   57.3190   30.8960   42.9950 C   0  0  0  0  0  0  0  0  0  0  0  0
   57.0734   30.0740   42.3065 H   0  0  0  0  0  0  0  0  0  0  0  0
   57.9490   32.0440   42.5090 C   0  0  0  0  0  0  0  0  0  0  0  0
   58.1862   32.1269   41.4381 H   0  0  0  0  0  0  0  0  0  0  0  0
   58.2790   33.0870   43.3770 C   0  0  0  0  0  0  0  0  0  0  0  0
   58.7790   33.9866   42.9888 H   0  0  0  0  0  0  0  0  0  0  0  0
   57.9740   32.9900   44.7440 C   0  0  0  0  0  0  0  0  0  0  0  0
   58.3530   34.0950   45.6940 C   0  0  0  0  0  0  0  0  0  0  0  0
   58.7874   34.9305   45.1254 H   0  0  0  0  0  0  0  0  0  0  0  0
   57.4536   34.4337   46.2291 H   0  0  0  0  0  0  0  0  0  0  0  0
   59.3320   33.6100   46.6640 N   0  0  0  0  0  0  0  0  0  0  0  0
   59.0860   33.1940   47.9230 C   0  0  0  0  0  0  0  0  0  0  0  0
   58.0788   33.1285   48.3604 H   0  0  0  0  0  0  0  0  0  0  0  0
   60.2160   32.8670   48.5860 N   0  0  0  0  0  0  0  0  0  0  0  0
   61.2020   33.1000   47.6930 C   0  0  0  0  0  0  0  0  0  0  0  0
   62.6320   32.8870   47.9640 C   0  0  0  0  0  0  0  0  0  0  0  0
   63.4820   33.1850   47.0810 O   0  0  0  0  0  0  0  0  0  0  0  0
   63.0600   32.3460   49.2240 N   0  0  0  0  0  0  0  0  0  0  0  0
   62.3450   32.1920   49.9730 H   0  0  0  0  0  0  0  0  0  0  0  0
   64.4700   32.0470   49.4980 C   0  0  0  0  0  0  0  0  0  0  0  0
   64.8225   31.5089   48.6057 H   0  0  0  0  0  0  0  0  0  0  0  0
   65.2850   33.3080   49.7510 C   0  0  0  0  0  0  0  0  0  0  0  0
   65.6464   33.7311   48.8021 H   0  0  0  0  0  0  0  0  0  0  0  0
   64.6892   34.0926   50.2403 H   0  0  0  0  0  0  0  0  0  0  0  0
   66.4530   32.8580   50.6140 C   0  0  0  0  0  0  0  0  0  0  0  0
   67.3225   32.6203   49.9835 H   0  0  0  0  0  0  0  0  0  0  0  0
   66.7590   33.6488   51.3147 H   0  0  0  0  0  0  0  0  0  0  0  0
   65.9830   31.6090   51.3590 C   0  0  0  0  0  0  0  0  0  0  0  0
   66.7044   30.7907   51.2176 H   0  0  0  0  0  0  0  0  0  0  0  0
   65.9008   31.8032   52.4386 H   0  0  0  0  0  0  0  0  0  0  0  0
   64.6290   31.2220   50.7700 C   0  0  0  0  0  0  0  0  0  0  0  0
   64.6085   30.1479   50.5335 H   0  0  0  0  0  0  0  0  0  0  0  0
   63.8115   31.4164   51.4799 H   0  0  0  0  0  0  0  0  0  0  0  0
   60.6640   33.5600   46.5090 C   0  0  0  0  0  0  0  0  0  0  0  0
   61.2244   33.8355   45.6034 H   0  0  0  0  0  0  0  0  0  0  0  0
   57.3410   31.8350   45.2300 C   0  0  0  0  0  0  0  0  0  0  0  0
   57.1117   31.7501   46.3025 H   0  0  0  0  0  0  0  0  0  0  0  0
   57.9430   26.1040   45.2950 S   0  0  0  0  0  0  0  0  0  0  0  0
   56.8420   24.8590   45.5620 C   0  0  0  0  0  0  0  0  0  0  0  0
   57.0471   23.7833   45.4581 H   0  0  0  0  0  0  0  0  0  0  0  0
  1  2  1  0
  2  3  1  0
  3  4  1  0
  4  5  2  0
  5  6  1  0
  6  7  2  0
  6  8  1  0
  8  9  2  0
  9 10  1  0
  9 11  1  0
 11 12  1  0
 11 13  2  0
 13 14  1  0
 13 15  1  0
 15 16  1  0
 16 17  1  0
 16 18  1  0
 16 19  1  0
 19 20  1  0
 20 21  1  0
 20 22  2  0
 22 23  1  0
 23 24  1  0
 24 25  2  0
 24 26  1  0
 26 27  1  0
 26 28  1  0
 28 29  1  0
 28 30  1  0
 30 31  1  0
 30 32  1  0
 30 33  1  0
 33 34  1  0
 33 35  1  0
 33 36  1  0
 36 37  1  0
 36 38  1  0
 36 39  1  0
 39 40  1  0
 39 41  1  0
 23 42  2  0
 42 43  1  0
 15 44  2  0
 44 45  1  0
  4 46  1  0
 46 47  1  0
 47 48  1  0
 47  2  2  0
 44  8  1  0
 42 19  1  0
 39 28  1  0
M  CHG  1   3  -1
M  END
>  <UniqueID>  (27) 
27

>  <SMILES>  (27) 
O=C(/N=c1\[n-]ccs1)c1cccc(Cn2cnc(C(=O)NC3CCCC3)c2)c1

>  <Energy>  (27) 
113.67767765212893

>  <Genealogy>  (27) 
O=C(N=c1[n-]ccs1)c1cccc(Cn2cnc(C(=O)NC3CCCC3)c2)c1 (protonated)
O=C(/N=c1\[n-]ccs1)c1cccc(Cn2cnc(C(=O)NC3CCCC3)c2)c1 (cis-trans isomerization)
O=C(/N=c1\[n-]ccs1)c1cccc(Cn2cnc(C(=O)NC3CCCC3)c2)c1 (3D coordinates assigned)
O=C(/N=c1\[n-]ccs1)c1cccc(Cn2cnc(C(=O)NC3CCCC3)c2)c1 (nonaromatic ring conformer: 113.67767765212893 kcal/mol)

>  <smiles>  (27) 
O=C(N=c1[nH]ccs1)c1cccc(Cn2cnc(C(=O)NC3CCCC3)c2)c1

>  <score_type>  (27) 
oracle

>  <origin>  (27) 
adg

>  <m_score__min__energy>  (27) 
-10.76

>  <m_primary>  (27) 
energy

$$$$
27:0
     RDKit          3D

 46 48  0  0  0  0  0  0  0  0999 V2000
   54.0889   24.7151   45.4583 H   0  0  0  0  0  0  0  0  0  0  0  0
   55.1810   24.8430   45.4260 C   0  0  0  0  0  0  0  0  0  0  0  0
   55.8080   25.5860   46.3790 N   0  0  0  0  0  0  0  0  0  0  0  0
   57.1580   25.7860   46.3640 C   0  0  0  0  0  0  0  0  0  0  0  0
   57.8110   26.5080   47.4180 N   0  0  0  0  0  0  0  0  0  0  0  0
   58.6040   27.5400   47.3310 C   0  0  0  0  0  0  0  0  0  0  0  0
   58.5350   28.4830   48.3090 N   0  0  0  0  0  0  0  0  0  0  0  0
   59.3370   29.5810   48.3250 C   0  0  0  0  0  0  0  0  0  0  0  0
   59.2363   30.3224   49.1313 H   0  0  0  0  0  0  0  0  0  0  0  0
   60.2910   29.7700   47.3170 C   0  0  0  0  0  0  0  0  0  0  0  0
   61.1780   30.9830   47.3080 C   0  0  0  0  0  0  0  0  0  0  0  0
   61.6436   31.0856   46.3167 H   0  0  0  0  0  0  0  0  0  0  0  0
   61.9556   30.8654   48.0771 H   0  0  0  0  0  0  0  0  0  0  0  0
   60.3900   32.1890   47.6020 N   0  0  0  0  0  0  0  0  0  0  0  0
   59.4800   32.7240   46.6130 C   0  0  0  0  0  0  0  0  0  0  0  0
   59.6800   34.0120   46.0890 C   0  0  0  0  0  0  0  0  0  0  0  0
   60.5427   34.6092   46.4192 H   0  0  0  0  0  0  0  0  0  0  0  0
   58.7890   34.5380   45.1510 C   0  0  0  0  0  0  0  0  0  0  0  0
   58.9618   35.5416   44.7351 H   0  0  0  0  0  0  0  0  0  0  0  0
   57.6790   33.7960   44.7380 C   0  0  0  0  0  0  0  0  0  0  0  0
   56.9760   34.2212   44.0066 H   0  0  0  0  0  0  0  0  0  0  0  0
   57.4590   32.5080   45.2550 C   0  0  0  0  0  0  0  0  0  0  0  0
   56.3300   31.7130   44.8690 N   0  0  0  0  0  0  0  0  0  0  0  0
   56.3940   30.0350   44.4330 S   0  0  0  0  0  0  0  0  0  0  0  0
   55.1460   29.3350   44.9000 O   0  0  0  0  0  0  0  0  0  0  0  0
   57.6100   29.3940   45.0470 O   0  0  0  0  0  0  0  0  0  0  0  0
   56.5090   29.9030   42.6600 C   0  0  0  0  0  0  0  0  0  0  0  0
   57.2106   29.0977   42.3970 H   0  0  0  0  0  0  0  0  0  0  0  0
   55.5165   29.6750   42.2442 H   0  0  0  0  0  0  0  0  0  0  0  0
   56.8709   30.8549   42.2442 H   0  0  0  0  0  0  0  0  0  0  0  0
   58.3660   31.9790   46.1790 C   0  0  0  0  0  0  0  0  0  0  0  0
   58.2068   30.9645   46.5733 H   0  0  0  0  0  0  0  0  0  0  0  0
   60.3400   32.6770   48.9870 C   0  0  0  0  0  0  0  0  0  0  0  0
   60.4272   31.8263   49.6789 H   0  0  0  0  0  0  0  0  0  0  0  0
   61.1712   33.3766   49.1595 H   0  0  0  0  0  0  0  0  0  0  0  0
   59.3842   33.1935   49.1595 H   0  0  0  0  0  0  0  0  0  0  0  0
   60.3910   28.8120   46.2980 C   0  0  0  0  0  0  0  0  0  0  0  0
   61.1285   28.9436   45.4926 H   0  0  0  0  0  0  0  0  0  0  0  0
   59.5580   27.6920   46.3020 C   0  0  0  0  0  0  0  0  0  0  0  0
   59.6444   26.9340   45.5096 H   0  0  0  0  0  0  0  0  0  0  0  0
   57.9350   25.1740   45.3730 C   0  0  0  0  0  0  0  0  0  0  0  0
   59.0284   25.2942   45.3735 H   0  0  0  0  0  0  0  0  0  0  0  0
   57.3120   24.4100   44.3840 C   0  0  0  0  0  0  0  0  0  0  0  0
   57.9112   23.9412   43.5895 H   0  0  0  0  0  0  0  0  0  0  0  0
   55.9250   24.2430   44.4070 C   0  0  0  0  0  0  0  0  0  0  0  0
   55.4241   23.6455   43.6311 H   0  0  0  0  0  0  0  0  0  0  0  0
  1  2  1  0
  2  3  2  0
  3  4  1  0
  4  5  1  0
  5  6  2  0
  6  7  1  0
  7  8  1  0
  8  9  1  0
  8 10  2  0
 10 11  1  0
 11 12  1  0
 11 13  1  0
 11 14  1  0
 14 15  1  0
 15 16  2  0
 16 17  1  0
 16 18  1  0
 18 19  1  0
 18 20  2  0
 20 21  1  0
 20 22  1  0
 22 23  1  0
 23 24  1  0
 24 25  2  0
 24 26  2  0
 24 27  1  0
 27 28  1  0
 27 29  1  0
 27 30  1  0
 22 31  2  0
 31 32  1  0
 14 33  1  0
 33 34  1  0
 33 35  1  0
 33 36  1  0
 10 37  1  0
 37 38  1  0
 37 39  2  0
 39 40  1  0
  4 41  2  0
 41 42  1  0
 41 43  1  0
 43 44  1  0
 43 45  2  0
 45 46  1  0
 45  2  1  0
 39  6  1  0
 31 15  1  0
M  CHG  2   7  -1  23  -1
M  END
>  <UniqueID>  (28) 
28

>  <SMILES>  (28) 
CN(Cc1cc/c(=N\c2ccccn2)[n-]c1)c1cccc([N-]S(C)(=O)=O)c1

>  <Energy>  (28) 
58.9745031730988

>  <Genealogy>  (28) 
CN(Cc1ccc(=Nc2ccccn2)[n-]c1)c1cccc([N-]S(C)(=O)=O)c1 (protonated)
CN(Cc1cc/c(=N\c2ccccn2)[n-]c1)c1cccc([N-]S(C)(=O)=O)c1 (cis-trans isomerization)
CN(Cc1cc/c(=N\c2ccccn2)[n-]c1)c1cccc([N-]S(C)(=O)=O)c1 (3D coordinates assigned)
CN(Cc1cc/c(=N\c2ccccn2)[n-]c1)c1cccc([N-]S(C)(=O)=O)c1 (optimized conformer: 58.9745031730988 kcal/mol)

>  <smiles>  (28) 
CN(Cc1ccc(=Nc2ccccn2)[nH]c1)c1cccc(NS(C)(=O)=O)c1

>  <score_type>  (28) 
oracle

>  <origin>  (28) 
adg

>  <m_score__min__energy>  (28) 
-11.91

>  <m_primary>  (28) 
energy

$$$$
28:0
     RDKit          3D

 28 28  0  0  0  0  0  0  0  0999 V2000
   56.6130   22.1500   47.5920 H   0  0  0  0  0  0  0  0  0  0  0  0
   57.3840   22.7560   47.3430 O   0  0  0  0  0  0  0  0  0  0  0  0
   57.1500   24.0520   46.8980 C   0  0  0  0  0  0  0  0  0  0  0  0
   58.3390   25.1860   46.5380 S   0  0  0  0  0  0  0  0  0  0  0  0
   57.2670   26.4110   46.0810 C   0  0  0  0  0  0  0  0  0  0  0  0
   57.6100   27.8060   45.7290 C   0  0  0  0  0  0  0  0  0  0  0  0
   57.2654   28.5968   46.4116 H   0  0  0  0  0  0  0  0  0  0  0  0
   58.3050   28.1880   44.6490 C   0  0  0  0  0  0  0  0  0  0  0  0
   58.4304   27.4607   43.8334 H   0  0  0  0  0  0  0  0  0  0  0  0
   58.9140   29.5250   44.4840 C   0  0  0  0  0  0  0  0  0  0  0  0
   59.9797   29.6392   44.7316 H   0  0  0  0  0  0  0  0  0  0  0  0
   58.2510   30.6070   44.0520 C   0  0  0  0  0  0  0  0  0  0  0  0
   58.6710   31.1477   43.1910 H   0  0  0  0  0  0  0  0  0  0  0  0
   56.9970   31.1330   44.6420 C   0  0  0  0  0  0  0  0  0  0  0  0
   55.9290   30.4710   44.5550 O   0  0  0  0  0  0  0  0  0  0  0  0
   56.9760   32.3680   45.3700 N   0  0  0  0  0  0  0  0  0  0  0  0
   57.4240   33.6580   44.8580 C   0  0  0  0  0  0  0  0  0  0  0  0
   56.5712   34.3521   44.8254 H   0  0  0  0  0  0  0  0  0  0  0  0
   57.8346   33.5200   43.8469 H   0  0  0  0  0  0  0  0  0  0  0  0
   58.4940   34.2270   45.7490 C   0  0  0  0  0  0  0  0  0  0  0  0
   59.2421   34.9081   45.3173 H   0  0  0  0  0  0  0  0  0  0  0  0
   58.5620   33.9290   47.0500 C   0  0  0  0  0  0  0  0  0  0  0  0
   59.3581   34.3631   47.6728 H   0  0  0  0  0  0  0  0  0  0  0  0
   57.8219   33.2496   47.4980 H   0  0  0  0  0  0  0  0  0  0  0  0
   55.9690   25.9330   46.2500 C   0  0  0  0  0  0  0  0  0  0  0  0
   54.8370   26.7000   46.0040 O   0  0  0  0  0  0  0  0  0  0  0  0
   55.8980   24.6070   46.6930 C   0  0  0  0  0  0  0  0  0  0  0  0
   54.9543   24.0669   46.8595 H   0  0  0  0  0  0  0  0  0  0  0  0
  1  2  1  0
  2  3  1  0
  3  4  1  0
  4  5  1  0
  5  6  1  0
  6  7  1  0
  6  8  2  0
  8  9  1  0
  8 10  1  0
 10 11  1  0
 10 12  2  3
 12 13  1  0
 12 14  1  0
 14 15  2  0
 14 16  1  0
 16 17  1  0
 17 18  1  0
 17 19  1  0
 17 20  1  0
 20 21  1  0
 20 22  2  0
 22 23  1  0
 22 24  1  0
  5 25  2  0
 25 26  1  0
 25 27  1  0
 27 28  1  0
 27  3  2  0
M  CHG  2  16  -1  26  -1
M  END
>  <UniqueID>  (29) 
29

>  <SMILES>  (29) 
C=CC[N-]C(=O)C=C/C=C\c1sc(O)cc1[O-]

>  <Energy>  (29) 
56.901320705847894

>  <Genealogy>  (29) 
C=CC[N-]C(=O)C=CC=Cc1sc(O)cc1[O-] (protonated)
C=CC[N-]C(=O)C=C/C=C\c1sc(O)cc1[O-] (cis-trans isomerization)
C=CC[N-]C(=O)C=C/C=C\c1sc(O)cc1[O-] (3D coordinates assigned)
C=CC[N-]C(=O)C=C/C=C\c1sc(O)cc1[O-] (optimized conformer: 56.901320705847894 kcal/mol)

>  <smiles>  (29) 
C=CCNC(=O)C=CC=Cc1sc(O)cc1O

>  <score_type>  (29) 
oracle

>  <origin>  (29) 
adg

>  <m_score__min__energy>  (29) 
-12.029999999999999

>  <m_primary>  (29) 
energy

$$$$
29:0
     RDKit          3D

 48 50  0  0  0  0  0  0  0  0999 V2000
   56.3940   29.8880   42.8220 N   0  0  0  0  0  0  0  0  0  0  0  0
   56.3530   29.5920   44.2190 C   0  0  0  0  0  0  0  0  0  0  0  0
   55.2470   29.3280   44.7580 O   0  0  0  0  0  0  0  0  0  0  0  0
   57.5900   29.6340   45.0320 C   0  0  0  0  0  0  0  0  0  0  0  0
   58.0190   28.4450   45.6490 C   0  0  0  0  0  0  0  0  0  0  0  0
   59.1790   28.4210   46.4260 C   0  0  0  0  0  0  0  0  0  0  0  0
   59.7010   26.9240   47.1780 Cl  0  0  0  0  0  0  0  0  0  0  0  0
   59.9210   29.5870   46.6050 C   0  0  0  0  0  0  0  0  0  0  0  0
   59.5080   30.7770   46.0100 C   0  0  0  0  0  0  0  0  0  0  0  0
   58.3510   30.8210   45.2120 C   0  0  0  0  0  0  0  0  0  0  0  0
   57.8520   32.3820   44.5290 S   0  0  0  0  0  0  0  0  0  0  0  0
   57.4530   32.1570   43.0980 O   0  0  0  0  0  0  0  0  0  0  0  0
   56.6440   32.8980   45.2580 O   0  0  0  0  0  0  0  0  0  0  0  0
   59.1650   33.5380   44.5590 N   0  0  0  0  0  0  0  0  0  0  0  0
   59.5820   34.0590   45.8740 C   0  0  0  0  0  0  0  0  0  0  0  0
   58.6340   33.6290   47.0110 C   0  0  0  0  0  0  0  0  0  0  0  0
   59.2510   34.0140   48.3590 C   0  0  0  0  0  0  0  0  0  0  0  0
   60.5360   33.3130   48.5990 N   0  0  0  0  0  0  0  0  0  0  0  0
   61.3550   33.9050   49.6830 C   0  0  0  0  0  0  0  0  0  0  0  0
   62.6920   33.2150   49.8950 C   0  0  0  0  0  0  0  0  0  0  0  0
   63.8450   33.7050   49.2570 C   0  0  0  0  0  0  0  0  0  0  0  0
   65.0780   33.0710   49.4330 C   0  0  0  0  0  0  0  0  0  0  0  0
   65.1800   31.9570   50.2680 C   0  0  0  0  0  0  0  0  0  0  0  0
   64.0520   31.4860   50.9410 C   0  0  0  0  0  0  0  0  0  0  0  0
   62.8140   32.1150   50.7710 C   0  0  0  0  0  0  0  0  0  0  0  0
   61.7530   31.6720   51.4900 F   0  0  0  0  0  0  0  0  0  0  0  0
   61.2930   32.9020   47.3920 C   0  0  0  0  0  0  0  0  0  0  0  0
   61.0820   33.8550   46.2050 C   0  0  0  0  0  0  0  0  0  0  0  0
   57.3000   30.0590   42.3340 H   0  0  0  0  0  0  0  0  0  0  0  0
   55.5130   29.8950   42.2610 H   0  0  0  0  0  0  0  0  0  0  0  0
   57.4337   27.5229   45.5179 H   0  0  0  0  0  0  0  0  0  0  0  0
   60.8346   29.5677   47.2173 H   0  0  0  0  0  0  0  0  0  0  0  0
   60.0947   31.6943   46.1665 H   0  0  0  0  0  0  0  0  0  0  0  0
   59.4816   35.1511   45.7890 H   0  0  0  0  0  0  0  0  0  0  0  0
   57.6649   34.1358   46.8926 H   0  0  0  0  0  0  0  0  0  0  0  0
   58.4837   32.5400   46.9727 H   0  0  0  0  0  0  0  0  0  0  0  0
   59.4301   35.0992   48.3712 H   0  0  0  0  0  0  0  0  0  0  0  0
   58.5483   33.7193   49.1524 H   0  0  0  0  0  0  0  0  0  0  0  0
   61.5455   34.9598   49.4358 H   0  0  0  0  0  0  0  0  0  0  0  0
   60.7836   33.7848   50.6152 H   0  0  0  0  0  0  0  0  0  0  0  0
   63.7761   34.5948   48.6139 H   0  0  0  0  0  0  0  0  0  0  0  0
   65.9697   33.4505   48.9126 H   0  0  0  0  0  0  0  0  0  0  0  0
   66.1484   31.4511   50.3953 H   0  0  0  0  0  0  0  0  0  0  0  0
   64.1366   30.6158   51.6085 H   0  0  0  0  0  0  0  0  0  0  0  0
   62.3646   32.8803   47.6394 H   0  0  0  0  0  0  0  0  0  0  0  0
   60.9242   31.9104   47.0909 H   0  0  0  0  0  0  0  0  0  0  0  0
   61.5257   34.8309   46.4516 H   0  0  0  0  0  0  0  0  0  0  0  0
   61.5631   33.4062   45.3235 H   0  0  0  0  0  0  0  0  0  0  0  0
  1  2  1  0
  2  3  2  0
  2  4  1  0
  4  5  2  0
  5  6  1  0
  6  7  1  0
  6  8  2  0
  8  9  1  0
  9 10  2  0
 10 11  1  0
 11 12  2  0
 11 13  2  0
 11 14  1  0
 14 15  1  0
 15 16  1  0
 16 17  1  0
 17 18  1  0
 18 19  1  0
 19 20  1  0
 20 21  2  0
 21 22  1  0
 22 23  2  0
 23 24  1  0
 24 25  2  0
 25 26  1  0
 18 27  1  0
 27 28  1  0
 10  4  1  0
 28 15  1  0
 25 20  1  0
  1 29  1  0
  1 30  1  0
  5 31  1  0
  8 32  1  0
  9 33  1  0
 15 34  1  0
 16 35  1  0
 16 36  1  0
 17 37  1  0
 17 38  1  0
 19 39  1  0
 19 40  1  0
 21 41  1  0
 22 42  1  0
 23 43  1  0
 24 44  1  0
 27 45  1  0
 27 46  1  0
 28 47  1  0
 28 48  1  0
M  CHG  1  14  -1
M  END
>  <UniqueID>  (30) 
30

>  <SMILES>  (30) 
NC(=O)c1cc(Cl)ccc1S(=O)(=O)[N-]C1CCN(Cc2ccccc2F)CC1

>  <Energy>  (30) 
74.03333494776165

>  <Genealogy>  (30) 
NC(=O)c1cc(Cl)ccc1S(=O)(=O)[N-]C1CCN(Cc2ccccc2F)CC1 (protonated)
NC(=O)c1cc(Cl)ccc1S(=O)(=O)[N-]C1CCN(Cc2ccccc2F)CC1 (3D coordinates assigned)
NC(=O)c1cc(Cl)ccc1S(=O)(=O)[N-]C1CCN(Cc2ccccc2F)CC1 (nonaromatic ring conformer: 74.03333494776165 kcal/mol)

>  <smiles>  (30) 
NC(=O)c1cc(Cl)ccc1S(=O)(=O)NC1CCN(Cc2ccccc2F)CC1

>  <score_type>  (30) 
oracle

>  <origin>  (30) 
adg

>  <m_score__min__energy>  (30) 
-11.35

>  <m_primary>  (30) 
energy

$$$$
30:0
     RDKit          3D

 53 55  0  0  0  0  0  0  0  0999 V2000
   56.3070   29.4350   42.6360 C   0  0  0  0  0  0  0  0  0  0  0  0
   56.8000   29.9100   44.0080 C   0  0  1  0  0  0  0  0  0  0  0  0
   58.0920   29.1680   44.4230 C   0  0  0  0  0  0  0  0  0  0  0  0
   58.9940   30.0130   45.3400 C   0  0  0  0  0  0  0  0  0  0  0  0
   58.1690   30.9890   46.1920 C   0  0  0  0  0  0  0  0  0  0  0  0
   57.3500   31.9190   45.3760 N   0  0  0  0  0  0  0  0  0  0  0  0
   58.0690   33.5110   45.2970 S   0  0  0  0  0  0  0  0  0  0  0  0
   57.0180   34.5460   45.5840 O   0  0  0  0  0  0  0  0  0  0  0  0
   58.5950   33.7560   43.9090 O   0  0  0  0  0  0  0  0  0  0  0  0
   59.3880   33.6820   46.4570 C   0  0  0  0  0  0  0  0  0  0  0  0
   59.1150   33.7760   47.8280 C   0  0  0  0  0  0  0  0  0  0  0  0
   60.1600   33.8860   48.7510 C   0  0  0  0  0  0  0  0  0  0  0  0
   61.4950   33.8940   48.3120 C   0  0  0  0  0  0  0  0  0  0  0  0
   62.5880   34.0250   49.2350 N   0  0  0  0  0  0  0  0  0  0  0  0
   63.6290   33.0450   49.3950 C   0  0  0  0  0  0  0  0  0  0  0  0
   63.6280   31.9900   48.7050 O   0  0  0  0  0  0  0  0  0  0  0  0
   64.7120   33.2600   50.3790 C   0  0  0  0  0  0  0  0  0  0  0  0
   66.0250   33.0990   49.9410 C   0  0  0  0  0  0  0  0  0  0  0  0
   67.0670   33.2340   50.8480 C   0  0  0  0  0  0  0  0  0  0  0  0
   68.2510   33.0590   50.4450 O   0  0  0  0  0  0  0  0  0  0  0  0
   66.8070   33.5400   52.1550 N   0  0  0  0  0  0  0  0  0  0  0  0
   67.9140   33.6330   53.1240 C   0  0  0  0  0  0  0  0  0  0  0  0
   65.5100   33.6880   52.5790 C   0  0  0  0  0  0  0  0  0  0  0  0
   65.2730   33.9090   53.8010 O   0  0  0  0  0  0  0  0  0  0  0  0
   64.4650   33.5960   51.6900 N   0  0  0  0  0  0  0  0  0  0  0  0
   63.0920   33.8450   52.1690 C   0  0  0  0  0  0  0  0  0  0  0  0
   61.7630   33.8360   46.9370 C   0  0  0  0  0  0  0  0  0  0  0  0
   60.7180   33.7240   46.0150 C   0  0  0  0  0  0  0  0  0  0  0  0
   57.0250   31.4320   44.0160 C   0  0  0  0  0  0  0  0  0  0  0  0
   55.5208   28.6775   42.7710 H   0  0  0  0  0  0  0  0  0  0  0  0
   55.9001   30.2901   42.0764 H   0  0  0  0  0  0  0  0  0  0  0  0
   57.1464   28.9966   42.0764 H   0  0  0  0  0  0  0  0  0  0  0  0
   56.0177   29.6733   44.7443 H   0  0  0  0  0  0  0  0  0  0  0  0
   57.8131   28.2468   44.9556 H   0  0  0  0  0  0  0  0  0  0  0  0
   58.6600   28.9518   43.5061 H   0  0  0  0  0  0  0  0  0  0  0  0
   59.5554   29.3421   46.0069 H   0  0  0  0  0  0  0  0  0  0  0  0
   59.6788   30.5980   44.7086 H   0  0  0  0  0  0  0  0  0  0  0  0
   57.4976   30.4073   46.8407 H   0  0  0  0  0  0  0  0  0  0  0  0
   58.8765   31.5972   46.7747 H   0  0  0  0  0  0  0  0  0  0  0  0
   58.0730   33.7632   48.1804 H   0  0  0  0  0  0  0  0  0  0  0  0
   59.9360   33.9666   49.8249 H   0  0  0  0  0  0  0  0  0  0  0  0
   62.6700   34.9220   49.7640 H   0  0  0  0  0  0  0  0  0  0  0  0
   66.2338   32.8671   48.8862 H   0  0  0  0  0  0  0  0  0  0  0  0
   67.5100   33.5991   54.1466 H   0  0  0  0  0  0  0  0  0  0  0  0
   68.6042   32.7897   52.9743 H   0  0  0  0  0  0  0  0  0  0  0  0
   68.4538   34.5797   52.9743 H   0  0  0  0  0  0  0  0  0  0  0  0
   63.0821   33.8468   53.2690 H   0  0  0  0  0  0  0  0  0  0  0  0
   62.7454   34.8207   51.7976 H   0  0  0  0  0  0  0  0  0  0  0  0
   62.4248   33.0532   51.7976 H   0  0  0  0  0  0  0  0  0  0  0  0
   62.8029   33.8789   46.5811 H   0  0  0  0  0  0  0  0  0  0  0  0
   60.9400   33.6686   44.9391 H   0  0  0  0  0  0  0  0  0  0  0  0
   56.1099   31.9317   43.6653 H   0  0  0  0  0  0  0  0  0  0  0  0
   57.8717   31.6620   43.3525 H   0  0  0  0  0  0  0  0  0  0  0  0
  1  2  1  0
  2  3  1  0
  3  4  1  0
  4  5  1  0
  5  6  1  0
  6  7  1  0
  7  8  2  0
  7  9  2  0
  7 10  1  0
 10 11  2  0
 11 12  1  0
 12 13  2  0
 13 14  1  0
 14 15  1  0
 15 16  2  0
 15 17  1  0
 17 18  2  0
 18 19  1  0
 19 20  2  0
 19 21  1  0
 21 22  1  0
 21 23  1  0
 23 24  2  0
 23 25  1  0
 25 26  1  0
 13 27  1  0
 27 28  2  0
  6 29  1  0
 29  2  1  0
 28 10  1  0
 25 17  1  0
  1 30  1  0
  1 31  1  0
  1 32  1  0
  2 33  1  1
  3 34  1  0
  3 35  1  0
  4 36  1  0
  4 37  1  0
  5 38  1  0
  5 39  1  0
 11 40  1  0
 12 41  1  0
 14 42  1  0
 18 43  1  0
 22 44  1  0
 22 45  1  0
 22 46  1  0
 26 47  1  0
 26 48  1  0
 26 49  1  0
 27 50  1  0
 28 51  1  0
 29 52  1  0
 29 53  1  0
M  END
>  <UniqueID>  (31) 
31

>  <SMILES>  (31) 
C[C@H]1CCCN(S(=O)(=O)c2ccc(NC(=O)c3cc(=O)n(C)c(=O)n3C)cc2)C1

>  <Energy>  (31) 
74.68410009559929

>  <Genealogy>  (31) 
C[C@H]1CCCN(S(=O)(=O)c2ccc(NC(=O)c3cc(=O)n(C)c(=O)n3C)cc2)C1 (chirality)
C[C@H]1CCCN(S(=O)(=O)c2ccc(NC(=O)c3cc(=O)n(C)c(=O)n3C)cc2)C1 (3D coordinates assigned)
C[C@H]1CCCN(S(=O)(=O)c2ccc(NC(=O)c3cc(=O)n(C)c(=O)n3C)cc2)C1 (nonaromatic ring conformer: 74.68410009559929 kcal/mol)

>  <smiles>  (31) 
CC1CCCN(S(=O)(=O)c2ccc(NC(=O)c3cc(=O)n(C)c(=O)n3C)cc2)C1

>  <score_type>  (31) 
oracle

>  <origin>  (31) 
adg

>  <m_score__min__energy>  (31) 
-9.3800000000000008

>  <m_primary>  (31) 
energy

$$$$
31:0
     RDKit          3D

 49 51  0  0  0  0  0  0  0  0999 V2000
   57.7370   21.9310   45.6380 C   0  0  0  0  0  0  0  0  0  0  0  0
   57.7040   22.9570   46.6260 O   0  0  0  0  0  0  0  0  0  0  0  0
   57.5620   24.3240   46.3400 C   0  0  0  0  0  0  0  0  0  0  0  0
   58.6570   25.1470   46.0290 C   0  0  0  0  0  0  0  0  0  0  0  0
   58.4630   26.5050   45.7670 C   0  0  0  0  0  0  0  0  0  0  0  0
   57.1860   27.0880   45.8720 C   0  0  0  0  0  0  0  0  0  0  0  0
   57.0200   28.5770   45.5830 C   0  0  0  0  0  0  0  0  0  0  0  0
   57.7570   29.1230   44.4070 N   0  0  0  0  0  0  0  0  0  0  0  0
   57.0160   29.0220   43.1420 C   0  0  0  0  0  0  0  0  0  0  0  0
   56.4660   30.4120   42.8140 C   0  0  0  0  0  0  0  0  0  0  0  0
   57.1660   31.3690   43.7680 C   0  0  0  0  0  0  0  0  0  0  0  0
   58.2450   30.5170   44.4300 C   0  0  1  0  0  0  0  0  0  0  0  0
   58.7300   31.0520   45.7900 C   0  0  0  0  0  0  0  0  0  0  0  0
   58.0080   32.2730   46.1340 N   0  0  0  0  0  0  0  0  0  0  0  0
   58.6300   33.5460   46.3470 C   0  0  0  0  0  0  0  0  0  0  0  0
   58.1450   34.5590   45.7770 O   0  0  0  0  0  0  0  0  0  0  0  0
   59.8470   33.7000   47.1670 C   0  0  0  0  0  0  0  0  0  0  0  0
   59.8960   34.3370   48.3950 C   0  0  0  0  0  0  0  0  0  0  0  0
   61.1990   34.2230   48.8410 C   0  0  0  0  0  0  0  0  0  0  0  0
   61.8750   33.4980   47.8780 C   0  0  0  0  0  0  0  0  0  0  0  0
   63.3260   33.1340   47.9240 C   0  0  0  0  0  0  0  0  0  0  0  0
   63.6680   32.3780   46.7950 O   0  0  0  0  0  0  0  0  0  0  0  0
   61.0520   33.1820   46.8610 N   0  0  0  0  0  0  0  0  0  0  0  0
   56.0800   26.2350   46.0860 C   0  0  0  0  0  0  0  0  0  0  0  0
   54.7770   26.7090   45.9990 O   0  0  0  0  0  0  0  0  0  0  0  0
   56.2790   24.8750   46.3510 C   0  0  0  0  0  0  0  0  0  0  0  0
   57.7686   20.9482   46.1310 H   0  0  0  0  0  0  0  0  0  0  0  0
   56.8363   21.9975   45.0101 H   0  0  0  0  0  0  0  0  0  0  0  0
   58.6316   22.0552   45.0101 H   0  0  0  0  0  0  0  0  0  0  0  0
   59.6703   24.7206   45.9917 H   0  0  0  0  0  0  0  0  0  0  0  0
   59.3208   27.1283   45.4742 H   0  0  0  0  0  0  0  0  0  0  0  0
   55.9486   28.7665   45.4208 H   0  0  0  0  0  0  0  0  0  0  0  0
   57.4535   29.0882   46.4553 H   0  0  0  0  0  0  0  0  0  0  0  0
   57.6889   28.6861   42.3392 H   0  0  0  0  0  0  0  0  0  0  0  0
   56.1961   28.2942   43.2323 H   0  0  0  0  0  0  0  0  0  0  0  0
   56.6920   30.6772   41.7707 H   0  0  0  0  0  0  0  0  0  0  0  0
   55.3727   30.4528   42.9285 H   0  0  0  0  0  0  0  0  0  0  0  0
   57.6153   32.2089   43.2178 H   0  0  0  0  0  0  0  0  0  0  0  0
   56.4752   31.8154   44.4984 H   0  0  0  0  0  0  0  0  0  0  0  0
   59.1871   30.5664   43.8643 H   0  0  0  0  0  0  0  0  0  0  0  0
   58.5504   30.2923   46.5650 H   0  0  0  0  0  0  0  0  0  0  0  0
   59.8054   31.2748   45.7270 H   0  0  0  0  0  0  0  0  0  0  0  0
   59.0631   34.8350   48.9130 H   0  0  0  0  0  0  0  0  0  0  0  0
   61.6148   34.6281   49.7753 H   0  0  0  0  0  0  0  0  0  0  0  0
   63.9312   34.0523   47.9441 H   0  0  0  0  0  0  0  0  0  0  0  0
   63.5197   32.5387   48.8285 H   0  0  0  0  0  0  0  0  0  0  0  0
   64.6600   32.3230   46.7780 H   0  0  0  0  0  0  0  0  0  0  0  0
   61.3000   32.5970   46.0330 H   0  0  0  0  0  0  0  0  0  0  0  0
   55.4138   24.2322   46.5707 H   0  0  0  0  0  0  0  0  0  0  0  0
  1  2  1  0
  2  3  1  0
  3  4  2  0
  4  5  1  0
  5  6  2  0
  6  7  1  0
  7  8  1  0
  8  9  1  0
  9 10  1  0
 10 11  1  0
 11 12  1  0
 12 13  1  0
 13 14  1  0
 14 15  1  0
 15 16  2  0
 15 17  1  0
 17 18  2  0
 18 19  1  0
 19 20  2  0
 20 21  1  0
 21 22  1  0
 20 23  1  0
  6 24  1  0
 24 25  1  0
 24 26  2  0
 26  3  1  0
 12  8  1  0
 23 17  1  0
  1 27  1  0
  1 28  1  0
  1 29  1  0
  4 30  1  0
  5 31  1  0
  7 32  1  0
  7 33  1  0
  9 34  1  0
  9 35  1  0
 10 36  1  0
 10 37  1  0
 11 38  1  0
 11 39  1  0
 12 40  1  6
 13 41  1  0
 13 42  1  0
 18 43  1  0
 19 44  1  0
 21 45  1  0
 21 46  1  0
 22 47  1  0
 23 48  1  0
 26 49  1  0
M  CHG  2  14  -1  25  -1
M  END
>  <UniqueID>  (32) 
32

>  <SMILES>  (32) 
COc1ccc(CN2CCC[C@H]2C[N-]C(=O)c2ccc(CO)[nH]2)c([O-])c1

>  <Energy>  (32) 
91.8704960956936

>  <Genealogy>  (32) 
COc1ccc(CN2CCCC2C[N-]C(=O)c2ccc(CO)[nH]2)c([O-])c1 (protonated)
COc1ccc(CN2CCC[C@H]2C[N-]C(=O)c2ccc(CO)[nH]2)c([O-])c1 (chirality)
COc1ccc(CN2CCC[C@H]2C[N-]C(=O)c2ccc(CO)[nH]2)c([O-])c1 (3D coordinates assigned)
COc1ccc(CN2CCC[C@H]2C[N-]C(=O)c2ccc(CO)[nH]2)c([O-])c1 (nonaromatic ring conformer: 91.8704960956936 kcal/mol)

>  <smiles>  (32) 
COc1ccc(CN2CCCC2CNC(=O)c2ccc(CO)[nH]2)c(O)c1

>  <score_type>  (32) 
oracle

>  <origin>  (32) 
adg

>  <m_score__min__energy>  (32) 
-12.66

>  <m_primary>  (32) 
energy

$$$$
32:0
     RDKit          3D

 69 72  0  0  0  0  0  0  0  0999 V2000
   55.4960   25.9760   45.6600 C   0  0  0  0  0  0  0  0  0  0  0  0
   56.7010   26.7910   46.0420 C   0  0  0  0  0  0  0  0  0  0  0  0
   56.9700   28.0930   45.6340 C   0  0  0  0  0  0  0  0  0  0  0  0
   56.1620   28.9710   44.7680 C   0  0  0  0  0  0  0  0  0  0  0  0
   56.6230   29.6520   43.7080 C   0  0  0  0  0  0  0  0  0  0  0  0
   57.1480   31.0470   43.7250 C   0  0  0  0  0  0  0  0  0  0  0  0
   57.7350   31.5230   42.7190 O   0  0  0  0  0  0  0  0  0  0  0  0
   56.9730   31.8930   44.8710 N   0  0  0  0  0  0  0  0  0  0  0  0
   57.5470   33.2310   45.0040 C   0  0  0  0  0  0  0  0  0  0  0  0
   58.2440   33.4110   46.3300 C   0  0  0  0  0  0  0  0  0  0  0  0
   59.2020   34.4200   46.5430 C   0  0  0  0  0  0  0  0  0  0  0  0
   59.8370   34.5420   47.7850 C   0  0  0  0  0  0  0  0  0  0  0  0
   59.5120   33.6800   48.8460 C   0  0  0  0  0  0  0  0  0  0  0  0
   60.2140   33.8150   50.0990 N   0  0  0  0  0  0  0  0  0  0  0  0
   59.5320   33.4430   51.6510 S   0  0  0  0  0  0  0  0  0  0  0  0
   60.8010   33.4290   52.9080 C   0  0  0  0  0  0  0  0  0  0  0  0
   58.8270   32.1170   51.5940 O   0  0  0  0  0  0  0  0  0  0  0  0
   58.5290   34.5040   52.0060 O   0  0  0  0  0  0  0  0  0  0  0  0
   58.5100   32.7080   48.6470 C   0  0  0  0  0  0  0  0  0  0  0  0
   57.8820   32.5810   47.4040 C   0  0  0  0  0  0  0  0  0  0  0  0
   58.2230   28.4190   46.1120 C   0  0  0  0  0  0  0  0  0  0  0  0
   58.6630   27.3210   46.8300 C   0  0  0  0  0  0  0  0  0  0  0  0
   59.9250   27.2720   47.6050 C   0  0  0  0  0  0  0  0  0  0  0  0
   60.7860   26.3950   47.3270 O   0  0  0  0  0  0  0  0  0  0  0  0
   60.1730   28.1880   48.6900 N   0  0  0  0  0  0  0  0  0  0  0  0
   59.7400   29.5920   48.6110 C   0  0  0  0  0  0  0  0  0  0  0  0
   60.8660   30.5200   49.0850 C   0  0  0  0  0  0  0  0  0  0  0  0
   61.4920   30.0510   50.3380 N   0  0  0  0  0  0  0  0  0  0  0  0
   62.5420   30.8120   50.9820 C   0  0  0  0  0  0  0  0  0  0  0  0
   63.0050   30.4200   52.0910 O   0  0  0  0  0  0  0  0  0  0  0  0
   63.1210   32.0470   50.4000 C   0  0  0  0  0  0  0  0  0  0  0  0
   63.8860   32.0980   49.2490 C   0  0  0  0  0  0  0  0  0  0  0  0
   64.2080   33.4260   49.0670 C   0  0  0  0  0  0  0  0  0  0  0  0
   63.6260   34.1030   50.1170 C   0  0  0  0  0  0  0  0  0  0  0  0
   62.9860   33.2580   50.8900 O   0  0  0  0  0  0  0  0  0  0  0  0
   61.0120   28.7960   50.9420 C   0  0  0  0  0  0  0  0  0  0  0  0
   60.9030   27.7070   49.8720 C   0  0  0  0  0  0  0  0  0  0  0  0
   57.7410   26.3260   46.7780 N   0  0  0  0  0  0  0  0  0  0  0  0
   57.8530   25.0030   47.3940 C   0  0  0  0  0  0  0  0  0  0  0  0
   54.9841   25.6297   46.5700 H   0  0  0  0  0  0  0  0  0  0  0  0
   54.8081   26.5951   45.0653 H   0  0  0  0  0  0  0  0  0  0  0  0
   55.8145   25.1071   45.0653 H   0  0  0  0  0  0  0  0  0  0  0  0
   55.0943   29.0763   45.0108 H   0  0  0  0  0  0  0  0  0  0  0  0
   56.6126   29.1336   42.7378 H   0  0  0  0  0  0  0  0  0  0  0  0
   58.2750   33.3885   44.1945 H   0  0  0  0  0  0  0  0  0  0  0  0
   56.7276   33.9625   44.9457 H   0  0  0  0  0  0  0  0  0  0  0  0
   59.4532   35.1164   45.7294 H   0  0  0  0  0  0  0  0  0  0  0  0
   60.5990   35.3216   47.9318 H   0  0  0  0  0  0  0  0  0  0  0  0
   61.2050   34.1580   50.0910 H   0  0  0  0  0  0  0  0  0  0  0  0
   60.3317   33.4342   53.9029 H   0  0  0  0  0  0  0  0  0  0  0  0
   61.4165   32.5240   52.7976 H   0  0  0  0  0  0  0  0  0  0  0  0
   61.4363   34.3202   52.7976 H   0  0  0  0  0  0  0  0  0  0  0  0
   58.2203   32.0449   49.4755 H   0  0  0  0  0  0  0  0  0  0  0  0
   57.0965   31.8234   47.2658 H   0  0  0  0  0  0  0  0  0  0  0  0
   58.7641   29.3635   45.9537 H   0  0  0  0  0  0  0  0  0  0  0  0
   59.4828   29.8351   47.5695 H   0  0  0  0  0  0  0  0  0  0  0  0
   58.8612   29.7340   49.2572 H   0  0  0  0  0  0  0  0  0  0  0  0
   61.6368   30.5689   48.3017 H   0  0  0  0  0  0  0  0  0  0  0  0
   60.4259   31.5092   49.2796 H   0  0  0  0  0  0  0  0  0  0  0  0
   64.1779   31.2519   48.6095 H   0  0  0  0  0  0  0  0  0  0  0  0
   64.8067   33.8570   48.2510 H   0  0  0  0  0  0  0  0  0  0  0  0
   63.6887   35.1887   50.2821 H   0  0  0  0  0  0  0  0  0  0  0  0
   61.7192   28.4725   51.7200 H   0  0  0  0  0  0  0  0  0  0  0  0
   60.0201   28.9658   51.3861 H   0  0  0  0  0  0  0  0  0  0  0  0
   61.9150   27.4014   49.5679 H   0  0  0  0  0  0  0  0  0  0  0  0
   60.3503   26.8568   50.2982 H   0  0  0  0  0  0  0  0  0  0  0  0
   57.8442   25.1065   48.4891 H   0  0  0  0  0  0  0  0  0  0  0  0
   57.0045   24.3784   47.0779 H   0  0  0  0  0  0  0  0  0  0  0  0
   58.7944   24.5299   47.0779 H   0  0  0  0  0  0  0  0  0  0  0  0
  1  2  1  0
  2  3  2  0
  3  4  1  0
  4  5  2  3
  5  6  1  0
  6  7  2  0
  6  8  1  0
  8  9  1  0
  9 10  1  0
 10 11  2  0
 11 12  1  0
 12 13  2  0
 13 14  1  0
 14 15  1  0
 15 16  1  0
 15 17  2  0
 15 18  2  0
 13 19  1  0
 19 20  2  0
  3 21  1  0
 21 22  2  0
 22 23  1  0
 23 24  2  0
 23 25  1  0
 25 26  1  0
 26 27  1  0
 27 28  1  0
 28 29  1  0
 29 30  2  0
 29 31  1  0
 31 32  2  0
 32 33  1  0
 33 34  2  0
 34 35  1  0
 28 36  1  0
 36 37  1  0
 22 38  1  0
 38 39  1  0
 38  2  1  0
 20 10  1  0
 37 25  1  0
 35 31  1  0
  1 40  1  0
  1 41  1  0
  1 42  1  0
  4 43  1  0
  5 44  1  0
  9 45  1  0
  9 46  1  0
 11 47  1  0
 12 48  1  0
 14 49  1  0
 16 50  1  0
 16 51  1  0
 16 52  1  0
 19 53  1  0
 20 54  1  0
 21 55  1  0
 26 56  1  0
 26 57  1  0
 27 58  1  0
 27 59  1  0
 32 60  1  0
 33 61  1  0
 34 62  1  0
 36 63  1  0
 36 64  1  0
 37 65  1  0
 37 66  1  0
 39 67  1  0
 39 68  1  0
 39 69  1  0
M  CHG  1   8  -1
M  END
>  <UniqueID>  (33) 
33

>  <SMILES>  (33) 
Cc1c(C=CC(=O)[N-]Cc2ccc(NS(C)(=O)=O)cc2)cc(C(=O)N2CCN(C(=O)c3ccco3)CC2)n1C

>  <Energy>  (33) 
136.97147215241054

>  <Genealogy>  (33) 
Cc1c(C=CC(=O)[N-]Cc2ccc(NS(C)(=O)=O)cc2)cc(C(=O)N2CCN(C(=O)c3ccco3)CC2)n1C (protonated)
Cc1c(C=CC(=O)[N-]Cc2ccc(NS(C)(=O)=O)cc2)cc(C(=O)N2CCN(C(=O)c3ccco3)CC2)n1C (3D coordinates assigned)
Cc1c(C=CC(=O)[N-]Cc2ccc(NS(C)(=O)=O)cc2)cc(C(=O)N2CCN(C(=O)c3ccco3)CC2)n1C (nonaromatic ring conformer: 136.97147215241054 kcal/mol)

>  <smiles>  (33) 
Cc1c(C=CC(=O)NCc2ccc(NS(C)(=O)=O)cc2)cc(C(=O)N2CCN(C(=O)c3ccco3)CC2)n1C

>  <score_type>  (33) 
oracle

>  <origin>  (33) 
adg

>  <m_score__min__energy>  (33) 
-10.76

>  <m_primary>  (33) 
energy

$$$$
33:0
     RDKit          3D

 44 45  0  0  0  0  0  0  0  0999 V2000
   63.2780   33.3540   47.0640 C   0  0  0  0  0  0  0  0  0  0  0  0
   62.1620   32.9440   48.0380 C   0  0  0  0  0  0  0  0  0  0  0  0
   61.1280   32.0660   47.4370 N   0  0  0  0  0  0  0  0  0  0  0  0
   59.7930   32.7150   47.3890 C   0  0  0  0  0  0  0  0  0  0  0  0
   59.3900   33.0370   45.9430 C   0  0  0  0  0  0  0  0  0  0  0  0
   57.8650   33.0940   45.7310 C   0  0  0  0  0  0  0  0  0  0  0  0
   57.4150   32.0760   44.7750 N   0  0  0  0  0  0  0  0  0  0  0  0
   56.6550   31.0710   45.2240 N   0  0  0  0  0  0  0  0  0  0  0  0
   56.2070   30.0820   44.4080 C   0  0  0  0  0  0  0  0  0  0  0  0
   55.4840   29.1630   44.8730 O   0  0  0  0  0  0  0  0  0  0  0  0
   56.5560   30.0930   43.0600 C   0  0  0  0  0  0  0  0  0  0  0  0
   57.3460   31.1320   42.5770 C   0  0  0  0  0  0  0  0  0  0  0  0
   57.7650   32.1370   43.4500 C   0  0  0  0  0  0  0  0  0  0  0  0
   58.4630   33.0900   43.0080 O   0  0  0  0  0  0  0  0  0  0  0  0
   61.1030   30.7290   48.0760 C   0  0  0  0  0  0  0  0  0  0  0  0
   59.6990   30.1070   48.0610 C   0  0  0  0  0  0  0  0  0  0  0  0
   59.4360   29.2230   46.8620 C   0  0  0  0  0  0  0  0  0  0  0  0
   60.1520   29.4300   45.6700 C   0  0  0  0  0  0  0  0  0  0  0  0
   59.8530   28.6870   44.5250 C   0  0  0  0  0  0  0  0  0  0  0  0
   58.8350   27.7320   44.5560 C   0  0  0  0  0  0  0  0  0  0  0  0
   58.1090   27.5250   45.7310 C   0  0  0  0  0  0  0  0  0  0  0  0
   58.3960   28.2750   46.8740 C   0  0  0  0  0  0  0  0  0  0  0  0
   64.1611   33.6785   47.6339 H   0  0  0  0  0  0  0  0  0  0  0  0
   63.5455   32.4954   46.4305 H   0  0  0  0  0  0  0  0  0  0  0  0
   62.9261   34.1815   46.4305 H   0  0  0  0  0  0  0  0  0  0  0  0
   62.6200   32.4100   48.8836 H   0  0  0  0  0  0  0  0  0  0  0  0
   61.6533   33.8693   48.3463 H   0  0  0  0  0  0  0  0  0  0  0  0
   59.0469   32.0361   47.8278 H   0  0  0  0  0  0  0  0  0  0  0  0
   59.8396   33.6554   47.9577 H   0  0  0  0  0  0  0  0  0  0  0  0
   59.8165   34.0139   45.6715 H   0  0  0  0  0  0  0  0  0  0  0  0
   59.7757   32.2244   45.3098 H   0  0  0  0  0  0  0  0  0  0  0  0
   57.3638   32.9246   46.6954 H   0  0  0  0  0  0  0  0  0  0  0  0
   57.6105   34.0842   45.3250 H   0  0  0  0  0  0  0  0  0  0  0  0
   56.2127   29.2931   42.3875 H   0  0  0  0  0  0  0  0  0  0  0  0
   57.6375   31.1608   41.5167 H   0  0  0  0  0  0  0  0  0  0  0  0
   61.7913   30.0639   47.5338 H   0  0  0  0  0  0  0  0  0  0  0  0
   61.4084   30.8499   49.1258 H   0  0  0  0  0  0  0  0  0  0  0  0
   59.5781   29.5017   48.9715 H   0  0  0  0  0  0  0  0  0  0  0  0
   58.9806   30.9385   48.0099 H   0  0  0  0  0  0  0  0  0  0  0  0
   60.9537   30.1826   45.6384 H   0  0  0  0  0  0  0  0  0  0  0  0
   60.4205   28.8548   43.5978 H   0  0  0  0  0  0  0  0  0  0  0  0
   58.6050   27.1432   43.6558 H   0  0  0  0  0  0  0  0  0  0  0  0
   57.3096   26.7698   45.7564 H   0  0  0  0  0  0  0  0  0  0  0  0
   57.8052   28.1236   47.7895 H   0  0  0  0  0  0  0  0  0  0  0  0
  1  2  1  0
  2  3  1  0
  3  4  1  0
  4  5  1  0
  5  6  1  0
  6  7  1  0
  7  8  1  0
  8  9  1  0
  9 10  2  0
  9 11  1  0
 11 12  2  0
 12 13  1  0
 13 14  2  0
  3 15  1  0
 15 16  1  0
 16 17  1  0
 17 18  2  0
 18 19  1  0
 19 20  2  0
 20 21  1  0
 21 22  2  0
 13  7  1  0
 22 17  1  0
  1 23  1  0
  1 24  1  0
  1 25  1  0
  2 26  1  0
  2 27  1  0
  4 28  1  0
  4 29  1  0
  5 30  1  0
  5 31  1  0
  6 32  1  0
  6 33  1  0
 11 34  1  0
 12 35  1  0
 15 36  1  0
 15 37  1  0
 16 38  1  0
 16 39  1  0
 18 40  1  0
 19 41  1  0
 20 42  1  0
 21 43  1  0
 22 44  1  0
M  CHG  1   8  -1
M  END
>  <UniqueID>  (34) 
34

>  <SMILES>  (34) 
CCN(CCCn1[n-]c(=O)ccc1=O)CCc1ccccc1

>  <Energy>  (34) 
42.25767058326692

>  <Genealogy>  (34) 
CCN(CCCn1[n-]c(=O)ccc1=O)CCc1ccccc1 (protonated)
CCN(CCCn1[n-]c(=O)ccc1=O)CCc1ccccc1 (3D coordinates assigned)
CCN(CCCn1[n-]c(=O)ccc1=O)CCc1ccccc1 (optimized conformer: 42.25767058326692 kcal/mol)

>  <smiles>  (34) 
CCN(CCCn1[nH]c(=O)ccc1=O)CCc1ccccc1

>  <score_type>  (34) 
oracle

>  <origin>  (34) 
adg

>  <m_score__min__energy>  (34) 
-9.0500000000000007

>  <m_primary>  (34) 
energy

$$$$
34:0
     RDKit          3D

 72 75  0  0  0  0  0  0  0  0999 V2000
   62.0710   33.9190   47.2030 C   0  0  0  0  0  0  0  0  0  0  0  0
   61.3620   32.6730   46.6860 C   0  0  0  0  0  0  0  0  0  0  0  0
   60.2410   32.3090   47.5600 N   0  0  0  0  0  0  0  0  0  0  0  0
   60.2870   31.5870   48.6990 C   0  0  0  0  0  0  0  0  0  0  0  0
   61.5210   30.9490   49.2860 C   0  0  0  0  0  0  0  0  0  0  0  0
   62.4810   31.9890   49.8130 C   0  0  0  0  0  0  0  0  0  0  0  0
   63.8460   31.9080   49.4870 C   0  0  0  0  0  0  0  0  0  0  0  0
   64.7620   32.8470   49.9950 C   0  0  0  0  0  0  0  0  0  0  0  0
   66.1320   32.8010   49.6970 O   0  0  0  0  0  0  0  0  0  0  0  0
   67.1680   32.7940   50.6740 C   0  0  0  0  0  0  0  0  0  0  0  0
   64.3010   33.8650   50.8340 C   0  0  0  0  0  0  0  0  0  0  0  0
   62.9500   33.9470   51.1750 C   0  0  0  0  0  0  0  0  0  0  0  0
   62.0280   33.0070   50.6750 C   0  0  0  0  0  0  0  0  0  0  0  0
   60.6670   33.0500   51.0180 O   0  0  0  0  0  0  0  0  0  0  0  0
   60.1620   33.4570   52.2860 C   0  0  0  0  0  0  0  0  0  0  0  0
   58.9930   31.4070   49.1470 C   0  0  0  0  0  0  0  0  0  0  0  0
   58.1380   32.0320   48.3140 N   0  0  0  0  0  0  0  0  0  0  0  0
   58.9300   32.5790   47.3710 C   0  0  0  0  0  0  0  0  0  0  0  0
   58.2650   33.4920   45.9720 S   0  0  0  0  0  0  0  0  0  0  0  0
   58.5370   32.1580   44.7560 C   0  0  0  0  0  0  0  0  0  0  0  0
   58.3170   30.8130   45.3750 C   0  0  0  0  0  0  0  0  0  0  0  0
   57.1370   30.4000   45.5530 O   0  0  0  0  0  0  0  0  0  0  0  0
   59.4370   30.0290   45.8110 N   0  0  0  0  0  0  0  0  0  0  0  0
   59.3360   28.6630   46.2440 C   0  0  0  0  0  0  0  0  0  0  0  0
   60.3920   28.0320   46.9250 C   0  0  0  0  0  0  0  0  0  0  0  0
   60.2560   26.7150   47.3690 C   0  0  0  0  0  0  0  0  0  0  0  0
   59.0650   26.0200   47.1500 C   0  0  0  0  0  0  0  0  0  0  0  0
   57.9960   26.6430   46.4920 C   0  0  0  0  0  0  0  0  0  0  0  0
   56.4750   25.7810   46.2440 S   0  0  0  0  0  0  0  0  0  0  0  0
   56.1470   24.9980   47.4850 O   0  0  0  0  0  0  0  0  0  0  0  0
   55.3710   26.7760   46.0150 O   0  0  0  0  0  0  0  0  0  0  0  0
   56.5670   24.6960   44.8790 N   0  0  0  0  0  0  0  0  0  0  0  0
   57.5650   23.6360   45.1360 C   0  0  0  0  0  0  0  0  0  0  0  0
   57.4900   22.4910   44.1000 C   0  0  0  0  0  0  0  0  0  0  0  0
   56.6860   22.9000   42.8610 C   0  0  0  0  0  0  0  0  0  0  0  0
   55.2720   23.3660   43.2460 C   0  0  0  0  0  0  0  0  0  0  0  0
   55.2450   24.1160   44.5900 C   0  0  0  0  0  0  0  0  0  0  0  0
   58.1340   27.9640   46.0440 C   0  0  0  0  0  0  0  0  0  0  0  0
   62.0676   33.9130   48.3030 H   0  0  0  0  0  0  0  0  0  0  0  0
   63.1092   33.9275   46.8396 H   0  0  0  0  0  0  0  0  0  0  0  0
   61.5480   34.8159   46.8396 H   0  0  0  0  0  0  0  0  0  0  0  0
   60.9802   32.8697   45.6733 H   0  0  0  0  0  0  0  0  0  0  0  0
   62.0806   31.8403   46.6701 H   0  0  0  0  0  0  0  0  0  0  0  0
   61.2230   30.2860   50.1116 H   0  0  0  0  0  0  0  0  0  0  0  0
   62.0278   30.3804   48.4924 H   0  0  0  0  0  0  0  0  0  0  0  0
   64.2015   31.1022   48.8280 H   0  0  0  0  0  0  0  0  0  0  0  0
   66.7232   32.7970   51.6801 H   0  0  0  0  0  0  0  0  0  0  0  0
   67.7844   31.8917   50.5483 H   0  0  0  0  0  0  0  0  0  0  0  0
   67.7966   33.6879   50.5483 H   0  0  0  0  0  0  0  0  0  0  0  0
   65.0091   34.6083   51.2292 H   0  0  0  0  0  0  0  0  0  0  0  0
   62.6027   34.7520   51.8394 H   0  0  0  0  0  0  0  0  0  0  0  0
   60.7509   32.9824   53.0847 H   0  0  0  0  0  0  0  0  0  0  0  0
   60.2361   34.5508   52.3763 H   0  0  0  0  0  0  0  0  0  0  0  0
   59.1089   33.1522   52.3763 H   0  0  0  0  0  0  0  0  0  0  0  0
   58.7049   30.8409   50.0451 H   0  0  0  0  0  0  0  0  0  0  0  0
   57.8361   32.2870   43.9181 H   0  0  0  0  0  0  0  0  0  0  0  0
   59.5769   32.2142   44.4017 H   0  0  0  0  0  0  0  0  0  0  0  0
   60.3660   30.5030   45.8940 H   0  0  0  0  0  0  0  0  0  0  0  0
   61.3291   28.5780   47.1088 H   0  0  0  0  0  0  0  0  0  0  0  0
   61.0894   26.2238   47.8927 H   0  0  0  0  0  0  0  0  0  0  0  0
   58.9655   24.9803   47.4950 H   0  0  0  0  0  0  0  0  0  0  0  0
   58.5703   24.0809   45.0984 H   0  0  0  0  0  0  0  0  0  0  0  0
   57.3505   23.2068   46.1258 H   0  0  0  0  0  0  0  0  0  0  0  0
   58.5109   22.2231   43.7901 H   0  0  0  0  0  0  0  0  0  0  0  0
   56.9837   21.6352   44.5705 H   0  0  0  0  0  0  0  0  0  0  0  0
   57.2081   23.7221   42.3495 H   0  0  0  0  0  0  0  0  0  0  0  0
   56.5971   22.0262   42.1988 H   0  0  0  0  0  0  0  0  0  0  0  0
   54.8952   24.0368   42.4599 H   0  0  0  0  0  0  0  0  0  0  0  0
   54.6413   22.4708   43.3496 H   0  0  0  0  0  0  0  0  0  0  0  0
   54.4982   24.9221   44.5406 H   0  0  0  0  0  0  0  0  0  0  0  0
   54.9829   23.4075   45.3896 H   0  0  0  0  0  0  0  0  0  0  0  0
   57.2946   28.4571   45.5319 H   0  0  0  0  0  0  0  0  0  0  0  0
  1  2  1  0
  2  3  1  0
  3  4  1  0
  4  5  1  0
  5  6  1  0
  6  7  2  0
  7  8  1  0
  8  9  1  0
  9 10  1  0
  8 11  2  0
 11 12  1  0
 12 13  2  0
 13 14  1  0
 14 15  1  0
  4 16  2  0
 16 17  1  0
 17 18  2  0
 18 19  1  0
 19 20  1  0
 20 21  1  0
 21 22  2  0
 21 23  1  0
 23 24  1  0
 24 25  2  0
 25 26  1  0
 26 27  2  0
 27 28  1  0
 28 29  1  0
 29 30  2  0
 29 31  2  0
 29 32  1  0
 32 33  1  0
 33 34  1  0
 34 35  1  0
 35 36  1  0
 36 37  1  0
 28 38  2  0
 18  3  1  0
 38 24  1  0
 13  6  1  0
 37 32  1  0
  1 39  1  0
  1 40  1  0
  1 41  1  0
  2 42  1  0
  2 43  1  0
  5 44  1  0
  5 45  1  0
  7 46  1  0
 10 47  1  0
 10 48  1  0
 10 49  1  0
 11 50  1  0
 12 51  1  0
 15 52  1  0
 15 53  1  0
 15 54  1  0
 16 55  1  0
 20 56  1  0
 20 57  1  0
 23 58  1  0
 25 59  1  0
 26 60  1  0
 27 61  1  0
 33 62  1  0
 33 63  1  0
 34 64  1  0
 34 65  1  0
 35 66  1  0
 35 67  1  0
 36 68  1  0
 36 69  1  0
 37 70  1  0
 37 71  1  0
 38 72  1  0
M  END
>  <UniqueID>  (35) 
35

>  <SMILES>  (35) 
CCn1c(Cc2cc(OC)ccc2OC)cnc1SCC(=O)Nc1cccc(S(=O)(=O)N2CCCCC2)c1

>  <Energy>  (35) 
99.69934732653553

>  <Genealogy>  (35) 
CCn1c(Cc2cc(OC)ccc2OC)cnc1SCC(=O)Nc1cccc(S(=O)(=O)N2CCCCC2)c1 (3D coordinates assigned)
CCn1c(Cc2cc(OC)ccc2OC)cnc1SCC(=O)Nc1cccc(S(=O)(=O)N2CCCCC2)c1 (nonaromatic ring conformer: 99.69934732653553 kcal/mol)

>  <smiles>  (35) 
CCn1c(Cc2cc(OC)ccc2OC)cnc1SCC(=O)Nc1cccc(S(=O)(=O)N2CCCCC2)c1

>  <score_type>  (35) 
oracle

>  <origin>  (35) 
adg

>  <m_score__min__energy>  (35) 
-9.3900000000000006

>  <m_primary>  (35) 
energy

$$$$
35:0
     RDKit          3D

 60 63  0  0  0  0  0  0  0  0999 V2000
   60.7620   27.2480   47.7520 C   0  0  0  0  0  0  0  0  0  0  0  0
   60.6630   27.3830   46.2330 C   0  0  0  0  0  0  0  0  0  0  0  0
   59.2850   27.7500   45.8270 N   0  0  0  0  0  0  0  0  0  0  0  0
   59.0910   28.9380   45.1580 C   0  0  0  0  0  0  0  0  0  0  0  0
   60.0830   29.6760   44.8920 O   0  0  0  0  0  0  0  0  0  0  0  0
   57.8340   29.3410   44.7800 N   0  0  0  0  0  0  0  0  0  0  0  0
   57.6440   30.6590   44.1300 C   0  0  0  0  0  0  0  0  0  0  0  0
   57.8390   31.8170   45.0890 C   0  0  0  0  0  0  0  0  0  0  0  0
   57.3770   33.0870   44.7110 C   0  0  0  0  0  0  0  0  0  0  0  0
   57.5290   34.1800   45.5680 C   0  0  0  0  0  0  0  0  0  0  0  0
   58.1300   34.0160   46.8180 C   0  0  0  0  0  0  0  0  0  0  0  0
   58.5840   32.7520   47.2240 C   0  0  0  0  0  0  0  0  0  0  0  0
   59.1970   32.5640   48.5590 C   0  0  0  0  0  0  0  0  0  0  0  0
   58.4880   32.1350   49.5120 O   0  0  0  0  0  0  0  0  0  0  0  0
   60.5910   32.8460   48.7850 N   0  0  0  0  0  0  0  0  0  0  0  0
   61.0080   33.4860   50.0380 C   0  0  0  0  0  0  0  0  0  0  0  0
   62.4900   33.8780   49.9680 C   0  0  0  0  0  0  0  0  0  0  0  0
   63.3430   32.7040   49.6410 N   0  0  0  0  0  0  0  0  0  0  0  0
   64.7590   33.0910   49.4160 C   0  0  0  0  0  0  0  0  0  0  0  0
   65.7790   32.2500   50.2020 C   0  0  0  0  0  0  0  0  0  0  0  0
   62.8090   31.8260   48.5530 C   0  0  0  0  0  0  0  0  0  0  0  0
   61.6090   32.4330   47.8120 C   0  0  0  0  0  0  0  0  0  0  0  0
   58.4620   31.6650   46.3440 C   0  0  0  0  0  0  0  0  0  0  0  0
   56.7440   28.5670   45.0710 C   0  0  0  0  0  0  0  0  0  0  0  0
   55.5840   28.9660   44.7640 O   0  0  0  0  0  0  0  0  0  0  0  0
   56.9050   27.3340   45.7150 C   0  0  0  0  0  0  0  0  0  0  0  0
   55.7960   26.5090   45.9920 C   0  0  0  0  0  0  0  0  0  0  0  0
   55.9700   25.2740   46.6130 C   0  0  0  0  0  0  0  0  0  0  0  0
   57.2470   24.8450   46.9600 C   0  0  0  0  0  0  0  0  0  0  0  0
   58.3560   25.6500   46.6970 C   0  0  0  0  0  0  0  0  0  0  0  0
   58.2090   26.9200   46.0810 C   0  0  0  0  0  0  0  0  0  0  0  0
   60.1761   28.0469   48.2301 H   0  0  0  0  0  0  0  0  0  0  0  0
   60.3663   26.2688   48.0597 H   0  0  0  0  0  0  0  0  0  0  0  0
   61.8148   27.3311   48.0597 H   0  0  0  0  0  0  0  0  0  0  0  0
   61.3592   28.1642   45.8940 H   0  0  0  0  0  0  0  0  0  0  0  0
   60.9205   26.4166   45.7751 H   0  0  0  0  0  0  0  0  0  0  0  0
   58.3706   30.7550   43.3097 H   0  0  0  0  0  0  0  0  0  0  0  0
   56.6081   30.7023   43.7625 H   0  0  0  0  0  0  0  0  0  0  0  0
   56.8918   33.2230   43.7332 H   0  0  0  0  0  0  0  0  0  0  0  0
   57.1739   35.1736   45.2570 H   0  0  0  0  0  0  0  0  0  0  0  0
   58.2479   34.8813   47.4869 H   0  0  0  0  0  0  0  0  0  0  0  0
   60.4013   34.3884   50.2040 H   0  0  0  0  0  0  0  0  0  0  0  0
   60.8639   32.7775   50.8670 H   0  0  0  0  0  0  0  0  0  0  0  0
   62.6218   34.6448   49.1904 H   0  0  0  0  0  0  0  0  0  0  0  0
   62.7941   34.2659   50.9514 H   0  0  0  0  0  0  0  0  0  0  0  0
   63.3580   32.1180   50.5130 H   0  0  0  0  0  0  0  0  0  0  0  0
   64.9787   32.9845   48.3434 H   0  0  0  0  0  0  0  0  0  0  0  0
   64.8627   34.1260   49.7737 H   0  0  0  0  0  0  0  0  0  0  0  0
   65.6132   32.3867   51.2808 H   0  0  0  0  0  0  0  0  0  0  0  0
   65.6553   31.1879   49.9437 H   0  0  0  0  0  0  0  0  0  0  0  0
   66.7980   32.5739   49.9437 H   0  0  0  0  0  0  0  0  0  0  0  0
   63.6133   31.6454   47.8247 H   0  0  0  0  0  0  0  0  0  0  0  0
   62.4608   30.8968   49.0277 H   0  0  0  0  0  0  0  0  0  0  0  0
   61.9398   33.3082   47.2336 H   0  0  0  0  0  0  0  0  0  0  0  0
   61.1816   31.6830   47.1302 H   0  0  0  0  0  0  0  0  0  0  0  0
   58.8579   30.6817   46.6379 H   0  0  0  0  0  0  0  0  0  0  0  0
   54.7850   26.8430   45.7156 H   0  0  0  0  0  0  0  0  0  0  0  0
   55.0983   24.6387   46.8287 H   0  0  0  0  0  0  0  0  0  0  0  0
   57.3832   23.8666   47.4440 H   0  0  0  0  0  0  0  0  0  0  0  0
   59.3601   25.2945   46.9715 H   0  0  0  0  0  0  0  0  0  0  0  0
  1  2  1  0
  2  3  1  0
  3  4  1  0
  4  5  2  0
  4  6  1  0
  6  7  1  0
  7  8  1  0
  8  9  2  0
  9 10  1  0
 10 11  2  0
 11 12  1  0
 12 13  1  0
 13 14  2  0
 13 15  1  0
 15 16  1  0
 16 17  1  0
 17 18  1  0
 18 19  1  0
 19 20  1  0
 18 21  1  0
 21 22  1  0
 12 23  2  0
  6 24  1  0
 24 25  2  0
 24 26  1  0
 26 27  2  0
 27 28  1  0
 28 29  2  0
 29 30  1  0
 30 31  2  0
 31  3  1  0
 23  8  1  0
 31 26  1  0
 22 15  1  0
  1 32  1  0
  1 33  1  0
  1 34  1  0
  2 35  1  0
  2 36  1  0
  7 37  1  0
  7 38  1  0
  9 39  1  0
 10 40  1  0
 11 41  1  0
 16 42  1  0
 16 43  1  0
 17 44  1  0
 17 45  1  0
 18 46  1  0
 19 47  1  0
 19 48  1  0
 20 49  1  0
 20 50  1  0
 20 51  1  0
 21 52  1  0
 21 53  1  0
 22 54  1  0
 22 55  1  0
 23 56  1  0
 27 57  1  0
 28 58  1  0
 29 59  1  0
 30 60  1  0
M  CHG  1  18   1
M  END
>  <UniqueID>  (36) 
36

>  <SMILES>  (36) 
CCn1c(=O)n(Cc2cccc(C(=O)N3CC[NH+](CC)CC3)c2)c(=O)c2ccccc21

>  <Energy>  (36) 
87.061838084668

>  <Genealogy>  (36) 
CCn1c(=O)n(Cc2cccc(C(=O)N3CC[NH+](CC)CC3)c2)c(=O)c2ccccc21 (protonated)
CCn1c(=O)n(Cc2cccc(C(=O)N3CC[NH+](CC)CC3)c2)c(=O)c2ccccc21 (3D coordinates assigned)
CCn1c(=O)n(Cc2cccc(C(=O)N3CC[NH+](CC)CC3)c2)c(=O)c2ccccc21 (nonaromatic ring conformer: 87.061838084668 kcal/mol)

>  <smiles>  (36) 
CCN1CCN(C(=O)c2cccc(Cn3c(=O)c4ccccc4n(CC)c3=O)c2)CC1

>  <score_type>  (36) 
oracle

>  <origin>  (36) 
adg

>  <m_score__min__energy>  (36) 
-7.46

>  <m_primary>  (36) 
energy

$$$$
36:0
     RDKit          3D

 35 37  0  0  0  0  0  0  0  0999 V2000
   58.0320   27.4080   44.7860 O   0  0  0  0  0  0  0  0  0  0  0  0
   56.9960   28.0150   45.1670 C   0  0  0  0  0  0  0  0  0  0  0  0
   55.8780   27.2350   45.6190 N   0  0  0  0  0  0  0  0  0  0  0  0
   55.9290   25.9730   46.3520 C   0  0  0  0  0  0  0  0  0  0  0  0
   56.3170   24.8350   45.4440 C   0  0  0  0  0  0  0  0  0  0  0  0
   55.3500   24.1940   44.6510 C   0  0  0  0  0  0  0  0  0  0  0  0
   55.7170   23.1460   43.8010 C   0  0  0  0  0  0  0  0  0  0  0  0
   57.0510   22.7390   43.7250 C   0  0  0  0  0  0  0  0  0  0  0  0
   58.0230   23.3830   44.4950 C   0  0  0  0  0  0  0  0  0  0  0  0
   57.6610   24.4310   45.3470 C   0  0  0  0  0  0  0  0  0  0  0  0
   56.9860   29.4920   45.1310 C   0  0  0  0  0  0  0  0  0  0  0  0
   57.9960   30.3110   45.5920 C   0  0  0  0  0  0  0  0  0  0  0  0
   57.5390   31.5870   45.3150 C   0  0  0  0  0  0  0  0  0  0  0  0
   58.2160   32.8720   45.6030 C   0  0  0  0  0  0  0  0  0  0  0  0
   58.6380   33.7270   44.5680 C   0  0  0  0  0  0  0  0  0  0  0  0
   59.2750   34.9350   44.8650 C   0  0  0  0  0  0  0  0  0  0  0  0
   59.5010   35.3020   46.1920 C   0  0  0  0  0  0  0  0  0  0  0  0
   59.0870   34.4610   47.2330 C   0  0  0  0  0  0  0  0  0  0  0  0
   59.3060   34.8160   48.5620 O   0  0  0  0  0  0  0  0  0  0  0  0
   58.4480   33.2510   46.9370 C   0  0  0  0  0  0  0  0  0  0  0  0
   56.3660   31.4890   44.7330 O   0  0  0  0  0  0  0  0  0  0  0  0
   56.0040   30.2460   44.6030 N   0  0  0  0  0  0  0  0  0  0  0  0
   56.6702   26.0566   47.1605 H   0  0  0  0  0  0  0  0  0  0  0  0
   54.9301   25.7670   46.7639 H   0  0  0  0  0  0  0  0  0  0  0  0
   54.2999   24.5180   44.6991 H   0  0  0  0  0  0  0  0  0  0  0  0
   54.9535   22.6411   43.1909 H   0  0  0  0  0  0  0  0  0  0  0  0
   57.3364   21.9114   43.0589 H   0  0  0  0  0  0  0  0  0  0  0  0
   59.0741   23.0652   44.4309 H   0  0  0  0  0  0  0  0  0  0  0  0
   58.4307   24.9419   45.9441 H   0  0  0  0  0  0  0  0  0  0  0  0
   58.9432   30.0179   46.0684 H   0  0  0  0  0  0  0  0  0  0  0  0
   58.4655   33.4430   43.5194 H   0  0  0  0  0  0  0  0  0  0  0  0
   59.5993   35.5986   44.0499 H   0  0  0  0  0  0  0  0  0  0  0  0
   60.0048   36.2527   46.4210 H   0  0  0  0  0  0  0  0  0  0  0  0
   58.9840   35.7020   48.9340 H   0  0  0  0  0  0  0  0  0  0  0  0
   58.1246   32.5909   47.7553 H   0  0  0  0  0  0  0  0  0  0  0  0
  1  2  2  0
  2  3  1  0
  3  4  1  0
  4  5  1  0
  5  6  2  0
  6  7  1  0
  7  8  2  0
  8  9  1  0
  9 10  2  0
  2 11  1  0
 11 12  1  0
 12 13  2  0
 13 14  1  0
 14 15  2  0
 15 16  1  0
 16 17  2  0
 17 18  1  0
 18 19  1  0
 18 20  2  0
 13 21  1  0
 21 22  1  0
 10  5  1  0
 22 11  2  0
 20 14  1  0
  4 23  1  0
  4 24  1  0
  6 25  1  0
  7 26  1  0
  8 27  1  0
  9 28  1  0
 10 29  1  0
 12 30  1  0
 15 31  1  0
 16 32  1  0
 17 33  1  0
 19 34  1  0
 20 35  1  0
M  CHG  1   3  -1
M  END
>  <UniqueID>  (37) 
37

>  <SMILES>  (37) 
O=C([N-]Cc1ccccc1)c1cc(-c2cccc(O)c2)on1

>  <Energy>  (37) 
68.25798362626571

>  <Genealogy>  (37) 
O=C([N-]Cc1ccccc1)c1cc(-c2cccc(O)c2)on1 (protonated)
O=C([N-]Cc1ccccc1)c1cc(-c2cccc(O)c2)on1 (3D coordinates assigned)
O=C([N-]Cc1ccccc1)c1cc(-c2cccc(O)c2)on1 (optimized conformer: 68.25798362626571 kcal/mol)

>  <smiles>  (37) 
O=C(NCc1ccccc1)c1cc(-c2cccc(O)c2)on1

>  <score_type>  (37) 
oracle

>  <origin>  (37) 
adg

>  <m_score__min__energy>  (37) 
-9.6199999999999992

>  <m_primary>  (37) 
energy

$$$$
37:0
     RDKit          3D

 56 59  0  0  0  0  0  0  0  0999 V2000
   60.5370   30.7430   47.0930 C   0  0  0  0  0  0  0  0  0  0  0  0
   59.8280   30.7720   48.4180 C   0  0  0  0  0  0  0  0  0  0  0  0
   58.9790   31.8570   48.6920 C   0  0  0  0  0  0  0  0  0  0  0  0
   58.2710   31.9190   49.8920 C   0  0  0  0  0  0  0  0  0  0  0  0
   58.4070   30.9010   50.8350 C   0  0  0  0  0  0  0  0  0  0  0  0
   59.2460   29.8150   50.5780 C   0  0  0  0  0  0  0  0  0  0  0  0
   59.9500   29.7260   49.3620 C   0  0  0  0  0  0  0  0  0  0  0  0
   60.8480   28.6320   49.1090 N   0  0  0  0  0  0  0  0  0  0  0  0
   60.5610   27.2370   49.2910 C   0  0  0  0  0  0  0  0  0  0  0  0
   60.8210   26.6640   50.3840 O   0  0  0  0  0  0  0  0  0  0  0  0
   59.8810   26.4720   48.2020 C   0  0  0  0  0  0  0  0  0  0  0  0
   60.3700   27.1110   46.5610 S   0  0  0  0  0  0  0  0  0  0  0  0
   58.7000   27.5510   46.0740 C   0  0  0  0  0  0  0  0  0  0  0  0
   57.6030   26.9380   46.5570 N   0  0  0  0  0  0  0  0  0  0  0  0
   56.5560   27.5060   45.9750 N   0  0  0  0  0  0  0  0  0  0  0  0
   57.0330   28.4530   45.1430 C   0  0  0  0  0  0  0  0  0  0  0  0
   56.1720   29.3380   44.2950 C   0  0  0  0  0  0  0  0  0  0  0  0
   56.1650   30.7000   44.8220 N   0  0  0  0  0  0  0  0  0  0  0  0
   57.0560   31.7560   44.4310 C   0  0  0  0  0  0  0  0  0  0  0  0
   57.4010   31.8340   43.2250 O   0  0  0  0  0  0  0  0  0  0  0  0
   57.6550   32.6910   45.3990 C   0  0  0  0  0  0  0  0  0  0  0  0
   58.9560   33.1450   45.4440 C   0  0  0  0  0  0  0  0  0  0  0  0
   58.9930   34.0730   46.4150 N   0  0  0  0  0  0  0  0  0  0  0  0
   60.0980   34.9780   46.6990 C   0  0  0  0  0  0  0  0  0  0  0  0
   61.2190   34.2140   47.3490 C   0  0  0  0  0  0  0  0  0  0  0  0
   62.2790   33.7210   46.5730 C   0  0  0  0  0  0  0  0  0  0  0  0
   63.3550   33.0670   47.1840 C   0  0  0  0  0  0  0  0  0  0  0  0
   63.3790   32.9080   48.5720 C   0  0  0  0  0  0  0  0  0  0  0  0
   62.3310   33.4040   49.3530 C   0  0  0  0  0  0  0  0  0  0  0  0
   61.2580   34.0650   48.7460 C   0  0  0  0  0  0  0  0  0  0  0  0
   57.7830   34.1790   46.9410 N   0  0  0  0  0  0  0  0  0  0  0  0
   56.9490   33.3350   46.3520 N   0  0  0  0  0  0  0  0  0  0  0  0
   58.3800   28.5160   45.1900 N   0  0  0  0  0  0  0  0  0  0  0  0
   59.2600   29.4510   44.4940 C   0  0  0  0  0  0  0  0  0  0  0  0
   61.6234   30.6986   47.2594 H   0  0  0  0  0  0  0  0  0  0  0  0
   60.2165   29.8572   46.5250 H   0  0  0  0  0  0  0  0  0  0  0  0
   60.2899   31.6520   46.5250 H   0  0  0  0  0  0  0  0  0  0  0  0
   58.8716   32.6651   47.9534 H   0  0  0  0  0  0  0  0  0  0  0  0
   57.6053   32.7710   50.0945 H   0  0  0  0  0  0  0  0  0  0  0  0
   57.8522   30.9536   51.7834 H   0  0  0  0  0  0  0  0  0  0  0  0
   59.3579   29.0221   51.3321 H   0  0  0  0  0  0  0  0  0  0  0  0
   60.1633   25.4114   48.2753 H   0  0  0  0  0  0  0  0  0  0  0  0
   58.7929   26.5861   48.3160 H   0  0  0  0  0  0  0  0  0  0  0  0
   56.5651   29.3491   43.2677 H   0  0  0  0  0  0  0  0  0  0  0  0
   55.1436   28.9478   44.3027 H   0  0  0  0  0  0  0  0  0  0  0  0
   59.7940   32.8144   44.8128 H   0  0  0  0  0  0  0  0  0  0  0  0
   60.4557   35.4256   45.7600 H   0  0  0  0  0  0  0  0  0  0  0  0
   59.7551   35.7730   47.3775 H   0  0  0  0  0  0  0  0  0  0  0  0
   62.2642   33.8490   45.4806 H   0  0  0  0  0  0  0  0  0  0  0  0
   64.1818   32.6781   46.5715 H   0  0  0  0  0  0  0  0  0  0  0  0
   64.2240   32.3917   49.0510 H   0  0  0  0  0  0  0  0  0  0  0  0
   62.3502   33.2745   50.4452 H   0  0  0  0  0  0  0  0  0  0  0  0
   60.4425   34.4693   49.3637 H   0  0  0  0  0  0  0  0  0  0  0  0
   59.8197   30.0456   45.2310 H   0  0  0  0  0  0  0  0  0  0  0  0
   59.9656   28.8902   43.8634 H   0  0  0  0  0  0  0  0  0  0  0  0
   58.6575   30.1213   43.8634 H   0  0  0  0  0  0  0  0  0  0  0  0
  1  2  1  0
  2  3  2  0
  3  4  1  0
  4  5  2  0
  5  6  1  0
  6  7  2  0
  7  8  1  0
  8  9  1  0
  9 10  2  0
  9 11  1  0
 11 12  1  0
 12 13  1  0
 13 14  2  0
 14 15  1  0
 15 16  2  0
 16 17  1  0
 17 18  1  0
 18 19  1  0
 19 20  2  0
 19 21  1  0
 21 22  2  0
 22 23  1  0
 23 24  1  0
 24 25  1  0
 25 26  2  0
 26 27  1  0
 27 28  2  0
 28 29  1  0
 29 30  2  0
 23 31  1  0
 31 32  2  0
 16 33  1  0
 33 34  1  0
  7  2  1  0
 33 13  1  0
 32 21  1  0
 30 25  1  0
  1 35  1  0
  1 36  1  0
  1 37  1  0
  3 38  1  0
  4 39  1  0
  5 40  1  0
  6 41  1  0
 11 42  1  0
 11 43  1  0
 17 44  1  0
 17 45  1  0
 22 46  1  0
 24 47  1  0
 24 48  1  0
 26 49  1  0
 27 50  1  0
 28 51  1  0
 29 52  1  0
 30 53  1  0
 34 54  1  0
 34 55  1  0
 34 56  1  0
M  CHG  2   8  -1  18  -1
M  END
>  <UniqueID>  (38) 
38

>  <SMILES>  (38) 
Cc1ccccc1[N-]C(=O)CSc1nnc(C[N-]C(=O)c2cn(Cc3ccccc3)nn2)n1C

>  <Energy>  (38) 
120.9220508573392

>  <Genealogy>  (38) 
Cc1ccccc1[N-]C(=O)CSc1nnc(C[N-]C(=O)c2cn(Cc3ccccc3)nn2)n1C (protonated)
Cc1ccccc1[N-]C(=O)CSc1nnc(C[N-]C(=O)c2cn(Cc3ccccc3)nn2)n1C (3D coordinates assigned)
Cc1ccccc1[N-]C(=O)CSc1nnc(C[N-]C(=O)c2cn(Cc3ccccc3)nn2)n1C (optimized conformer: 120.9220508573392 kcal/mol)

>  <smiles>  (38) 
Cc1ccccc1NC(=O)CSc1nnc(CNC(=O)c2cn(Cc3ccccc3)nn2)n1C

>  <score_type>  (38) 
oracle

>  <origin>  (38) 
adg

>  <m_score__min__energy>  (38) 
-11.859999999999999

>  <m_primary>  (38) 
energy

$$$$
38:0
     RDKit          3D

 52 54  0  0  0  0  0  0  0  0999 V2000
   60.6940   26.4910   46.9560 C   0  0  0  0  0  0  0  0  0  0  0  0
   59.7170   27.3090   46.1600 C   0  0  0  0  0  0  0  0  0  0  0  0
   58.3360   27.2040   46.3930 C   0  0  0  0  0  0  0  0  0  0  0  0
   57.4350   27.9960   45.6720 C   0  0  0  0  0  0  0  0  0  0  0  0
   57.9100   28.9100   44.7220 C   0  0  0  0  0  0  0  0  0  0  0  0
   56.7920   29.9260   43.8160 S   0  0  0  0  0  0  0  0  0  0  0  0
   55.4910   30.0940   44.5500 O   0  0  0  0  0  0  0  0  0  0  0  0
   56.5120   29.2750   42.4900 O   0  0  0  0  0  0  0  0  0  0  0  0
   57.5060   31.4860   43.5540 N   0  0  0  0  0  0  0  0  0  0  0  0
   57.9290   32.3710   44.6080 C   0  0  0  0  0  0  0  0  0  0  0  0
   57.8260   33.7700   44.4930 C   0  0  0  0  0  0  0  0  0  0  0  0
   58.2360   34.5970   45.5400 C   0  0  0  0  0  0  0  0  0  0  0  0
   58.7600   34.0450   46.7090 C   0  0  0  0  0  0  0  0  0  0  0  0
   58.8900   32.6530   46.8370 C   0  0  0  0  0  0  0  0  0  0  0  0
   59.4370   32.0820   48.0840 C   0  0  0  0  0  0  0  0  0  0  0  0
   59.5630   30.8310   48.1790 O   0  0  0  0  0  0  0  0  0  0  0  0
   59.7850   32.8970   49.2130 N   0  0  0  0  0  0  0  0  0  0  0  0
   60.5920   34.1110   49.1560 C   0  0  0  0  0  0  0  0  0  0  0  0
   62.0290   33.7410   48.9370 C   0  0  0  0  0  0  0  0  0  0  0  0
   62.6810   33.6070   47.7210 C   0  0  0  0  0  0  0  0  0  0  0  0
   62.0860   33.8140   46.3650 C   0  0  0  0  0  0  0  0  0  0  0  0
   63.9270   33.1300   47.9230 N   0  0  0  0  0  0  0  0  0  0  0  0
   64.0950   32.9780   49.2310 N   0  0  0  0  0  0  0  0  0  0  0  0
   65.3230   32.4610   49.8280 C   0  0  0  0  0  0  0  0  0  0  0  0
   62.9670   33.3440   49.8820 C   0  0  0  0  0  0  0  0  0  0  0  0
   62.7480   33.2380   51.3630 C   0  0  0  0  0  0  0  0  0  0  0  0
   58.4530   31.8230   45.7910 C   0  0  0  0  0  0  0  0  0  0  0  0
   59.2870   29.0280   44.5000 C   0  0  0  0  0  0  0  0  0  0  0  0
   60.1870   28.2360   45.2190 C   0  0  0  0  0  0  0  0  0  0  0  0
   60.5111   26.6441   48.0298 H   0  0  0  0  0  0  0  0  0  0  0  0
   60.5665   25.4264   46.7105 H   0  0  0  0  0  0  0  0  0  0  0  0
   61.7197   26.8036   46.7105 H   0  0  0  0  0  0  0  0  0  0  0  0
   57.9605   26.4956   47.1461 H   0  0  0  0  0  0  0  0  0  0  0  0
   56.3539   27.9009   45.8511 H   0  0  0  0  0  0  0  0  0  0  0  0
   57.6530   31.7750   42.5610 H   0  0  0  0  0  0  0  0  0  0  0  0
   57.4199   34.2144   43.5723 H   0  0  0  0  0  0  0  0  0  0  0  0
   58.1455   35.6890   45.4429 H   0  0  0  0  0  0  0  0  0  0  0  0
   59.0725   34.7027   47.5335 H   0  0  0  0  0  0  0  0  0  0  0  0
   60.2450   34.7443   48.3262 H   0  0  0  0  0  0  0  0  0  0  0  0
   60.4938   34.6636   50.1020 H   0  0  0  0  0  0  0  0  0  0  0  0
   61.0518   34.1738   46.4694 H   0  0  0  0  0  0  0  0  0  0  0  0
   62.6794   34.5585   45.8140 H   0  0  0  0  0  0  0  0  0  0  0  0
   62.0891   32.8620   45.8140 H   0  0  0  0  0  0  0  0  0  0  0  0
   65.2406   32.4957   50.9244 H   0  0  0  0  0  0  0  0  0  0  0  0
   65.4783   31.4211   49.5047 H   0  0  0  0  0  0  0  0  0  0  0  0
   66.1753   33.0767   49.5047 H   0  0  0  0  0  0  0  0  0  0  0  0
   63.6156   33.6580   51.8929 H   0  0  0  0  0  0  0  0  0  0  0  0
   61.8426   33.7976   51.6408 H   0  0  0  0  0  0  0  0  0  0  0  0
   62.6252   32.1807   51.6408 H   0  0  0  0  0  0  0  0  0  0  0  0
   58.5219   30.7305   45.8995 H   0  0  0  0  0  0  0  0  0  0  0  0
   59.6624   29.7468   43.7568 H   0  0  0  0  0  0  0  0  0  0  0  0
   61.2682   28.3405   45.0458 H   0  0  0  0  0  0  0  0  0  0  0  0
  1  2  1  0
  2  3  2  0
  3  4  1  0
  4  5  2  0
  5  6  1  0
  6  7  2  0
  6  8  2  0
  6  9  1  0
  9 10  1  0
 10 11  2  0
 11 12  1  0
 12 13  2  0
 13 14  1  0
 14 15  1  0
 15 16  2  0
 15 17  1  0
 17 18  1  0
 18 19  1  0
 19 20  1  0
 20 21  1  0
 20 22  2  0
 22 23  1  0
 23 24  1  0
 23 25  1  0
 25 26  1  0
 14 27  2  0
  5 28  1  0
 28 29  2  0
 29  2  1  0
 27 10  1  0
 25 19  2  0
  1 30  1  0
  1 31  1  0
  1 32  1  0
  3 33  1  0
  4 34  1  0
  9 35  1  0
 11 36  1  0
 12 37  1  0
 13 38  1  0
 18 39  1  0
 18 40  1  0
 21 41  1  0
 21 42  1  0
 21 43  1  0
 24 44  1  0
 24 45  1  0
 24 46  1  0
 26 47  1  0
 26 48  1  0
 26 49  1  0
 27 50  1  0
 28 51  1  0
 29 52  1  0
M  CHG  1  17  -1
M  END
>  <UniqueID>  (39) 
39

>  <SMILES>  (39) 
Cc1ccc(S(=O)(=O)Nc2cccc(C(=O)[N-]Cc3c(C)nn(C)c3C)c2)cc1

>  <Energy>  (39) 
86.69570633604464

>  <Genealogy>  (39) 
Cc1ccc(S(=O)(=O)Nc2cccc(C(=O)[N-]Cc3c(C)nn(C)c3C)c2)cc1 (protonated)
Cc1ccc(S(=O)(=O)Nc2cccc(C(=O)[N-]Cc3c(C)nn(C)c3C)c2)cc1 (3D coordinates assigned)
Cc1ccc(S(=O)(=O)Nc2cccc(C(=O)[N-]Cc3c(C)nn(C)c3C)c2)cc1 (optimized conformer: 86.69570633604464 kcal/mol)

>  <smiles>  (39) 
Cc1ccc(S(=O)(=O)Nc2cccc(C(=O)NCc3c(C)nn(C)c3C)c2)cc1

>  <score_type>  (39) 
oracle

>  <origin>  (39) 
adg

>  <m_score__min__energy>  (39) 
-12.51

>  <m_primary>  (39) 
energy

$$$$
39:0
     RDKit          3D

 65 68  0  0  0  0  0  0  0  0999 V2000
   57.0290   31.2650   42.0460 C   0  0  0  0  0  0  0  0  0  0  0  0
   56.5930   29.9110   42.3810 N   0  0  0  0  0  0  0  0  0  0  0  0
   56.0620   29.8530   44.0360 S   0  0  0  0  0  0  0  0  0  0  0  0
   55.7310   31.2410   44.5060 O   0  0  0  0  0  0  0  0  0  0  0  0
   54.8040   29.0330   44.1110 O   0  0  0  0  0  0  0  0  0  0  0  0
   57.2990   29.1330   45.0920 C   0  0  0  0  0  0  0  0  0  0  0  0
   57.0360   27.8680   45.6290 C   0  0  0  0  0  0  0  0  0  0  0  0
   57.9400   27.2730   46.5080 C   0  0  0  0  0  0  0  0  0  0  0  0
   57.6750   26.1320   46.9770 O   0  0  0  0  0  0  0  0  0  0  0  0
   59.0890   27.9220   46.8620 N   0  0  0  0  0  0  0  0  0  0  0  0
   60.0450   27.2780   47.7700 C   0  0  0  0  0  0  0  0  0  0  0  0
   59.3760   29.1550   46.3440 C   0  0  0  0  0  0  0  0  0  0  0  0
   58.5190   29.7780   45.4150 C   0  0  0  0  0  0  0  0  0  0  0  0
   58.8940   31.1400   44.8420 C   0  0  0  0  0  0  0  0  0  0  0  0
   58.5340   32.2970   45.7470 C   0  0  0  0  0  0  0  0  0  0  0  0
   57.3790   32.7960   45.6510 O   0  0  0  0  0  0  0  0  0  0  0  0
   59.4900   32.8510   46.7430 C   0  0  0  0  0  0  0  0  0  0  0  0
   59.1530   33.9910   47.4960 C   0  0  0  0  0  0  0  0  0  0  0  0
   60.0070   34.4570   48.5010 C   0  0  0  0  0  0  0  0  0  0  0  0
   61.2060   33.7920   48.7830 C   0  0  0  0  0  0  0  0  0  0  0  0
   61.9750   34.2410   49.8750 O   0  0  0  0  0  0  0  0  0  0  0  0
   61.8950   33.8020   51.2440 C   0  0  2  0  0  0  0  0  0  0  0  0
   62.6880   32.5170   51.5030 C   0  0  0  0  0  0  0  0  0  0  0  0
   61.7000   31.4960   52.0650 C   0  0  0  0  0  0  0  0  0  0  0  0
   60.3870   32.1340   52.0530 N   0  0  0  0  0  0  0  0  0  0  0  0
   59.1320   31.4280   52.2210 C   0  0  0  0  0  0  0  0  0  0  0  0
   57.9100   32.0590   51.9140 C   0  0  0  0  0  0  0  0  0  0  0  0
   56.7040   31.3580   51.9950 C   0  0  0  0  0  0  0  0  0  0  0  0
   56.6860   30.0130   52.3730 C   0  0  0  0  0  0  0  0  0  0  0  0
   55.4560   29.3410   52.3880 O   0  0  0  0  0  0  0  0  0  0  0  0
   54.9930   28.5400   53.4710 C   0  0  0  0  0  0  0  0  0  0  0  0
   57.8950   29.3840   52.7160 C   0  0  0  0  0  0  0  0  0  0  0  0
   59.1010   30.0850   52.6500 C   0  0  0  0  0  0  0  0  0  0  0  0
   60.4580   33.5450   51.7000 C   0  0  0  0  0  0  0  0  0  0  0  0
   61.5740   32.6970   47.9840 C   0  0  0  0  0  0  0  0  0  0  0  0
   60.7270   32.2310   46.9810 C   0  0  0  0  0  0  0  0  0  0  0  0
   57.2113   31.8310   42.9714 H   0  0  0  0  0  0  0  0  0  0  0  0
   57.9569   31.2163   41.4572 H   0  0  0  0  0  0  0  0  0  0  0  0
   56.2470   31.7669   41.4572 H   0  0  0  0  0  0  0  0  0  0  0  0
   55.7790   29.6710   41.7720 H   0  0  0  0  0  0  0  0  0  0  0  0
   56.1105   27.3398   45.3561 H   0  0  0  0  0  0  0  0  0  0  0  0
   59.7516   27.4756   48.8116 H   0  0  0  0  0  0  0  0  0  0  0  0
   60.0482   26.1929   47.5896 H   0  0  0  0  0  0  0  0  0  0  0  0
   61.0518   27.6827   47.5896 H   0  0  0  0  0  0  0  0  0  0  0  0
   60.2949   29.6710   46.6592 H   0  0  0  0  0  0  0  0  0  0  0  0
   59.9803   31.1579   44.6700 H   0  0  0  0  0  0  0  0  0  0  0  0
   58.3212   31.2676   43.9116 H   0  0  0  0  0  0  0  0  0  0  0  0
   58.2102   34.5200   47.2926 H   0  0  0  0  0  0  0  0  0  0  0  0
   59.7338   35.3546   49.0752 H   0  0  0  0  0  0  0  0  0  0  0  0
   62.3295   34.6342   51.8173 H   0  0  0  0  0  0  0  0  0  0  0  0
   63.1242   32.1452   50.5641 H   0  0  0  0  0  0  0  0  0  0  0  0
   63.5137   32.6972   52.2072 H   0  0  0  0  0  0  0  0  0  0  0  0
   61.6888   30.5933   51.4366 H   0  0  0  0  0  0  0  0  0  0  0  0
   61.9826   31.1901   53.0831 H   0  0  0  0  0  0  0  0  0  0  0  0
   57.9055   33.1153   51.6071 H   0  0  0  0  0  0  0  0  0  0  0  0
   55.7595   31.8700   51.7589 H   0  0  0  0  0  0  0  0  0  0  0  0
   55.2684   29.0165   54.4234 H   0  0  0  0  0  0  0  0  0  0  0  0
   53.8989   28.4419   53.4130 H   0  0  0  0  0  0  0  0  0  0  0  0
   55.4541   27.5430   53.4130 H   0  0  0  0  0  0  0  0  0  0  0  0
   57.8913   28.3324   53.0386 H   0  0  0  0  0  0  0  0  0  0  0  0
   60.0375   29.5838   52.9359 H   0  0  0  0  0  0  0  0  0  0  0  0
   59.7540   33.7696   50.8852 H   0  0  0  0  0  0  0  0  0  0  0  0
   60.1892   34.1845   52.5536 H   0  0  0  0  0  0  0  0  0  0  0  0
   62.5418   32.2019   48.1521 H   0  0  0  0  0  0  0  0  0  0  0  0
   61.0304   31.3686   46.3693 H   0  0  0  0  0  0  0  0  0  0  0  0
  1  2  1  0
  2  3  1  0
  3  4  2  0
  3  5  2  0
  3  6  1  0
  6  7  2  0
  7  8  1  0
  8  9  2  0
  8 10  1  0
 10 11  1  0
 10 12  1  0
 12 13  2  0
 13 14  1  0
 14 15  1  0
 15 16  2  0
 15 17  1  0
 17 18  2  0
 18 19  1  0
 19 20  2  0
 20 21  1  0
 21 22  1  0
 22 23  1  0
 23 24  1  0
 24 25  1  0
 25 26  1  0
 26 27  2  0
 27 28  1  0
 28 29  2  0
 29 30  1  0
 30 31  1  0
 29 32  1  0
 32 33  2  0
 25 34  1  0
 20 35  1  0
 35 36  2  0
 13  6  1  0
 36 17  1  0
 34 22  1  0
 33 26  1  0
  1 37  1  0
  1 38  1  0
  1 39  1  0
  2 40  1  0
  7 41  1  0
 11 42  1  0
 11 43  1  0
 11 44  1  0
 12 45  1  0
 14 46  1  0
 14 47  1  0
 18 48  1  0
 19 49  1  0
 22 50  1  1
 23 51  1  0
 23 52  1  0
 24 53  1  0
 24 54  1  0
 27 55  1  0
 28 56  1  0
 31 57  1  0
 31 58  1  0
 31 59  1  0
 32 60  1  0
 33 61  1  0
 34 62  1  0
 34 63  1  0
 35 64  1  0
 36 65  1  0
M  END
>  <UniqueID>  (40) 
40

>  <SMILES>  (40) 
CNS(=O)(=O)c1cc(=O)n(C)cc1CC(=O)c1ccc(O[C@@H]2CCN(c3ccc(OC)cc3)C2)cc1

>  <Energy>  (40) 
74.67472163384804

>  <Genealogy>  (40) 
CNS(=O)(=O)c1cc(=O)n(C)cc1CC(=O)c1ccc(O[C@@H]2CCN(c3ccc(OC)cc3)C2)cc1 (chirality)
CNS(=O)(=O)c1cc(=O)n(C)cc1CC(=O)c1ccc(O[C@@H]2CCN(c3ccc(OC)cc3)C2)cc1 (3D coordinates assigned)
CNS(=O)(=O)c1cc(=O)n(C)cc1CC(=O)c1ccc(O[C@@H]2CCN(c3ccc(OC)cc3)C2)cc1 (nonaromatic ring conformer: 74.67472163384804 kcal/mol)

>  <smiles>  (40) 
CNS(=O)(=O)c1cc(=O)n(C)cc1CC(=O)c1ccc(OC2CCN(c3ccc(OC)cc3)C2)cc1

>  <score_type>  (40) 
oracle

>  <origin>  (40) 
adg

>  <m_score__min__energy>  (40) 
-10.15

>  <m_primary>  (40) 
energy

$$$$
40:0
     RDKit          3D

 60 64  0  0  0  0  0  0  0  0999 V2000
   67.5940   29.5380   52.8810 H   0  0  0  0  0  0  0  0  0  0  0  0
   67.8540   30.0350   52.0370 O   0  0  0  0  0  0  0  0  0  0  0  0
   66.9690   30.9050   51.4060 C   0  0  0  0  0  0  0  0  0  0  0  0
   67.4450   32.0980   50.8500 C   0  0  0  0  0  0  0  0  0  0  0  0
   68.5134   32.3489   50.9249 H   0  0  0  0  0  0  0  0  0  0  0  0
   66.5690   32.9720   50.2000 C   0  0  0  0  0  0  0  0  0  0  0  0
   66.9485   33.9138   49.7769 H   0  0  0  0  0  0  0  0  0  0  0  0
   65.2080   32.6530   50.0850 C   0  0  0  0  0  0  0  0  0  0  0  0
   64.3020   33.5930   49.3860 C   0  0  0  0  0  0  0  0  0  0  0  0
   64.0294   34.5212   49.9096 H   0  0  0  0  0  0  0  0  0  0  0  0
   63.7880   33.3970   48.1600 C   0  0  0  0  0  0  0  0  0  0  0  0
   64.3670   33.7628   47.2992 H   0  0  0  0  0  0  0  0  0  0  0  0
   62.5000   32.7250   47.8850 C   0  0  0  0  0  0  0  0  0  0  0  0
   61.7500   33.1020   46.7630 C   0  0  0  0  0  0  0  0  0  0  0  0
   62.1424   33.8632   46.0726 H   0  0  0  0  0  0  0  0  0  0  0  0
   60.5050   32.5150   46.5170 C   0  0  0  0  0  0  0  0  0  0  0  0
   59.9139   32.8296   45.6443 H   0  0  0  0  0  0  0  0  0  0  0  0
   60.0060   31.5250   47.3800 C   0  0  0  0  0  0  0  0  0  0  0  0
   58.6200   30.9650   47.1870 C   0  0  0  0  0  0  0  0  0  0  0  0
   58.1152   31.5195   46.3822 H   0  0  0  0  0  0  0  0  0  0  0  0
   58.0620   31.0684   48.1293 H   0  0  0  0  0  0  0  0  0  0  0  0
   58.6830   29.5000   46.8170 C   0  0  0  0  0  0  0  0  0  0  0  0
   59.6310   28.6260   47.3120 C   0  0  0  0  0  0  0  0  0  0  0  0
   60.4424   28.8677   48.0143 H   0  0  0  0  0  0  0  0  0  0  0  0
   59.3650   27.3930   46.7570 C   0  0  0  0  0  0  0  0  0  0  0  0
   59.9930   26.2730   47.1260 C   0  0  0  0  0  0  0  0  0  0  0  0
   59.7383   25.3162   46.6468 H   0  0  0  0  0  0  0  0  0  0  0  0
   60.7648   26.3077   47.9090 H   0  0  0  0  0  0  0  0  0  0  0  0
   58.2650   27.5570   45.9030 C   0  0  0  0  0  0  0  0  0  0  0  0
   57.7200   26.6400   45.0690 C   0  0  0  0  0  0  0  0  0  0  0  0
   57.9310   26.7472   43.9948 H   0  0  0  0  0  0  0  0  0  0  0  0
   56.8690   25.5120   45.4800 C   0  0  0  0  0  0  0  0  0  0  0  0
   57.3280   24.2620   45.6530 N   0  0  0  0  0  0  0  0  0  0  0  0
   56.2630   23.6040   46.1620 C   0  0  0  0  0  0  0  0  0  0  0  0
   56.2980   22.3810   46.4540 O   0  0  0  0  0  0  0  0  0  0  0  0
   55.1650   24.3630   46.3530 N   0  0  0  0  0  0  0  0  0  0  0  0
   55.5690   25.5720   45.9340 C   0  0  0  0  0  0  0  0  0  0  0  0
   54.7790   26.7130   45.9990 O   0  0  0  0  0  0  0  0  0  0  0  0
   57.8150   28.8400   46.0040 N   0  0  0  0  0  0  0  0  0  0  0  0
   56.6900   29.4430   45.2680 C   0  0  0  0  0  0  0  0  0  0  0  0
   56.3608   28.7531   44.4770 H   0  0  0  0  0  0  0  0  0  0  0  0
   55.8618   29.6324   45.9668 H   0  0  0  0  0  0  0  0  0  0  0  0
   57.1170   30.7380   44.6500 C   0  0  0  0  0  0  0  0  0  0  0  0
   56.9850   31.9050   45.2350 O   0  0  0  0  0  0  0  0  0  0  0  0
   57.5000   32.8220   44.4490 C   0  0  0  0  0  0  0  0  0  0  0  0
   57.5440   34.2500   44.7790 C   0  0  0  0  0  0  0  0  0  0  0  0
   58.6470   34.8250   44.9860 O   0  0  0  0  0  0  0  0  0  0  0  0
   56.3640   34.9770   44.8680 O   0  0  0  0  0  0  0  0  0  0  0  0
   57.9900   32.2380   43.2960 C   0  0  0  0  0  0  0  0  0  0  0  0
   58.4774   32.7450   42.4502 H   0  0  0  0  0  0  0  0  0  0  0  0
   57.7410   30.8880   43.4260 C   0  0  0  0  0  0  0  0  0  0  0  0
   57.9879   30.0948   42.7049 H   0  0  0  0  0  0  0  0  0  0  0  0
   60.7780   31.1190   48.4760 C   0  0  0  0  0  0  0  0  0  0  0  0
   60.4004   30.3363   49.1504 H   0  0  0  0  0  0  0  0  0  0  0  0
   62.0230   31.7010   48.7180 C   0  0  0  0  0  0  0  0  0  0  0  0
   62.6334   31.3557   49.5655 H   0  0  0  0  0  0  0  0  0  0  0  0
   64.7250   31.4730   50.6790 C   0  0  0  0  0  0  0  0  0  0  0  0
   63.6515   31.2369   50.6352 H   0  0  0  0  0  0  0  0  0  0  0  0
   65.6050   30.5990   51.3250 C   0  0  0  0  0  0  0  0  0  0  0  0
   65.2245   29.6682   51.7709 H   0  0  0  0  0  0  0  0  0  0  0  0
  1  2  1  0
  2  3  1  0
  3  4  2  0
  4  5  1  0
  4  6  1  0
  6  7  1  0
  6  8  2  0
  8  9  1  0
  9 10  1  0
  9 11  2  3
 11 12  1  0
 11 13  1  0
 13 14  2  0
 14 15  1  0
 14 16  1  0
 16 17  1  0
 16 18  2  0
 18 19  1  0
 19 20  1  0
 19 21  1  0
 19 22  1  0
 22 23  2  0
 23 24  1  0
 23 25  1  0
 25 26  2  0
 26 27  1  0
 26 28  1  0
 25 29  1  0
 29 30  2  0
 30 31  1  0
 30 32  1  0
 32 33  1  0
 33 34  1  0
 34 35  2  0
 34 36  1  0
 36 37  1  0
 37 38  1  0
 29 39  1  0
 39 40  1  0
 40 41  1  0
 40 42  1  0
 40 43  1  0
 43 44  1  0
 44 45  1  0
 45 46  1  0
 46 47  2  0
 46 48  1  0
 45 49  2  0
 49 50  1  0
 49 51  1  0
 51 52  1  0
 18 53  1  0
 53 54  1  0
 53 55  2  0
 55 56  1  0
  8 57  1  0
 57 58  1  0
 57 59  2  0
 59 60  1  0
 59  3  1  0
 55 13  1  0
 39 22  1  0
 51 43  2  0
 37 32  2  0
M  CHG  4  33  -1  36  -1  38  -1  48  -1
M  END
>  <UniqueID>  (41) 
41

>  <SMILES>  (41) 
C=c1cc(Cc2ccc(C=Cc3ccc(O)cc3)cc2)n(Cc2ccc(C(=O)[O-])o2)/c1=C/c1[n-]c(=O)[n-]c1[O-]

>  <Energy>  (41) 
167.95847155000328

>  <Genealogy>  (41) 
C=c1cc(Cc2ccc(C=Cc3ccc(O)cc3)cc2)n(Cc2ccc(C(=O)[O-])o2)c1=Cc1[n-]c(=O)[n-]c1[O-] (protonated)
C=c1cc(Cc2ccc(C=Cc3ccc(O)cc3)cc2)n(Cc2ccc(C(=O)[O-])o2)/c1=C/c1[n-]c(=O)[n-]c1[O-] (cis-trans isomerization)
C=c1cc(Cc2ccc(C=Cc3ccc(O)cc3)cc2)n(Cc2ccc(C(=O)[O-])o2)/c1=C/c1[n-]c(=O)[n-]c1[O-] (3D coordinates assigned)
C=c1cc(Cc2ccc(C=Cc3ccc(O)cc3)cc2)n(Cc2ccc(C(=O)[O-])o2)/c1=C/c1[n-]c(=O)[n-]c1[O-] (optimized conformer: 167.95847155000328 kcal/mol)

>  <smiles>  (41) 
C=c1cc(Cc2ccc(C=Cc3ccc(O)cc3)cc2)n(Cc2ccc(C(=O)O)o2)c1=Cc1[nH]c(=O)[nH]c1O

>  <score_type>  (41) 
oracle

>  <origin>  (41) 
adg

>  <m_score__min__energy>  (41) 
-18.760000000000002

>  <m_primary>  (41) 
energy

$$$$
41:0
     RDKit          3D

 51 54  0  0  0  0  0  0  0  0999 V2000
   57.2621   21.2818   45.9955 H   0  0  0  0  0  0  0  0  0  0  0  0
   56.7380   21.9710   45.3170 C   0  0  0  0  0  0  0  0  0  0  0  0
   55.7960   22.8200   45.8060 N   0  0  0  0  0  0  0  0  0  0  0  0
   55.1320   23.6990   45.0040 C   0  0  0  0  0  0  0  0  0  0  0  0
   54.0710   24.5770   45.5950 C   0  0  0  0  0  0  0  0  0  0  0  0
   53.8249   24.2230   46.6070 H   0  0  0  0  0  0  0  0  0  0  0  0
   53.1719   24.5392   44.9624 H   0  0  0  0  0  0  0  0  0  0  0  0
   54.5550   25.9500   45.6660 N   0  0  0  0  0  0  0  0  0  0  0  0
   55.8470   26.3110   46.1650 C   0  0  0  0  0  0  0  0  0  0  0  0
   56.4050   25.6150   47.0540 O   0  0  0  0  0  0  0  0  0  0  0  0
   56.5160   27.5140   45.6550 C   0  0  0  0  0  0  0  0  0  0  0  0
   55.8620   28.5860   45.1590 N   0  0  0  0  0  0  0  0  0  0  0  0
   56.7730   29.4810   44.8160 N   0  0  0  0  0  0  0  0  0  0  0  0
   56.4510   30.8060   44.3000 C   0  0  0  0  0  0  0  0  0  0  0  0
   56.2833   31.4959   45.1402 H   0  0  0  0  0  0  0  0  0  0  0  0
   57.2861   31.1730   43.6852 H   0  0  0  0  0  0  0  0  0  0  0  0
   55.5406   30.7488   43.6852 H   0  0  0  0  0  0  0  0  0  0  0  0
   58.0010   29.0040   45.1020 C   0  0  0  0  0  0  0  0  0  0  0  0
   59.0950   29.6960   44.9420 N   0  0  0  0  0  0  0  0  0  0  0  0
   60.2650   29.6550   45.7730 C   0  0  0  0  0  0  0  0  0  0  0  0
   61.3620   29.3440   45.2430 O   0  0  0  0  0  0  0  0  0  0  0  0
   60.1930   29.8830   47.2370 C   0  0  0  0  0  0  0  0  0  0  0  0
   59.6100   28.8900   48.0450 C   0  0  0  0  0  0  0  0  0  0  0  0
   59.2922   27.9380   47.5947 H   0  0  0  0  0  0  0  0  0  0  0  0
   59.4310   29.1020   49.4140 C   0  0  0  0  0  0  0  0  0  0  0  0
   58.9825   28.3147   50.0377 H   0  0  0  0  0  0  0  0  0  0  0  0
   59.8200   30.3100   49.9910 C   0  0  0  0  0  0  0  0  0  0  0  0
   59.6668   30.4796   51.0670 H   0  0  0  0  0  0  0  0  0  0  0  0
   60.4040   31.3050   49.2040 C   0  0  0  0  0  0  0  0  0  0  0  0
   60.6956   32.2616   49.6622 H   0  0  0  0  0  0  0  0  0  0  0  0
   60.6220   31.0950   47.8340 C   0  0  0  0  0  0  0  0  0  0  0  0
   61.3560   32.4290   46.8690 S   0  0  0  0  0  0  0  0  0  0  0  0
   59.7700   33.0990   46.3550 C   0  0  0  0  0  0  0  0  0  0  0  0
   59.7220   34.0510   45.3270 C   0  0  0  0  0  0  0  0  0  0  0  0
   60.6520   34.3825   44.8420 H   0  0  0  0  0  0  0  0  0  0  0  0
   58.4940   34.5800   44.9170 C   0  0  0  0  0  0  0  0  0  0  0  0
   58.4593   35.3248   44.1082 H   0  0  0  0  0  0  0  0  0  0  0  0
   57.3120   34.1640   45.5330 C   0  0  0  0  0  0  0  0  0  0  0  0
   56.3464   34.5770   45.2059 H   0  0  0  0  0  0  0  0  0  0  0  0
   57.3560   33.2230   46.5650 C   0  0  0  0  0  0  0  0  0  0  0  0
   56.4247   32.8973   47.0515 H   0  0  0  0  0  0  0  0  0  0  0  0
   58.5820   32.6950   46.9800 C   0  0  0  0  0  0  0  0  0  0  0  0
   58.6146   31.9610   47.7987 H   0  0  0  0  0  0  0  0  0  0  0  0
   57.8830   27.7360   45.6460 C   0  0  0  0  0  0  0  0  0  0  0  0
   58.6842   27.0649   45.9892 H   0  0  0  0  0  0  0  0  0  0  0  0
   55.4050   23.7220   43.6270 C   0  0  0  0  0  0  0  0  0  0  0  0
   54.8674   24.4175   42.9657 H   0  0  0  0  0  0  0  0  0  0  0  0
   56.3660   22.8530   43.1050 C   0  0  0  0  0  0  0  0  0  0  0  0
   56.5906   22.8617   42.0282 H   0  0  0  0  0  0  0  0  0  0  0  0
   57.0410   21.9730   43.9540 C   0  0  0  0  0  0  0  0  0  0  0  0
   57.8033   21.2887   43.5531 H   0  0  0  0  0  0  0  0  0  0  0  0
  1  2  1  0
  2  3  2  0
  3  4  1  0
  4  5  1  0
  5  6  1  0
  5  7  1  0
  5  8  1  0
  8  9  1  0
  9 10  2  0
  9 11  1  0
 11 12  1  0
 12 13  1  0
 13 14  1  0
 14 15  1  0
 14 16  1  0
 14 17  1  0
 13 18  1  0
 18 19  2  0
 19 20  1  0
 20 21  2  0
 20 22  1  0
 22 23  2  0
 23 24  1  0
 23 25  1  0
 25 26  1  0
 25 27  2  0
 27 28  1  0
 27 29  1  0
 29 30  1  0
 29 31  2  0
 31 32  1  0
 32 33  1  0
 33 34  2  0
 34 35  1  0
 34 36  1  0
 36 37  1  0
 36 38  2  0
 38 39  1  0
 38 40  1  0
 40 41  1  0
 40 42  2  0
 42 43  1  0
 18 44  1  0
 44 45  1  0
  4 46  2  0
 46 47  1  0
 46 48  1  0
 48 49  1  0
 48 50  2  0
 50 51  1  0
 50  2  1  0
 44 11  2  0
 31 22  1  0
 42 33  1  0
M  CHG  2   8  -1  12  -1
M  END
>  <UniqueID>  (42) 
42

>  <SMILES>  (42) 
Cn1[n-]c(C(=O)[N-]Cc2ccccn2)c/c1=N\C(=O)c1ccccc1Sc1ccccc1

>  <Energy>  (42) 
91.33323091191951

>  <Genealogy>  (42) 
Cn1[n-]c(C(=O)[N-]Cc2ccccn2)cc1=NC(=O)c1ccccc1Sc1ccccc1 (protonated)
Cn1[n-]c(C(=O)[N-]Cc2ccccn2)c/c1=N\C(=O)c1ccccc1Sc1ccccc1 (cis-trans isomerization)
Cn1[n-]c(C(=O)[N-]Cc2ccccn2)c/c1=N\C(=O)c1ccccc1Sc1ccccc1 (3D coordinates assigned)
Cn1[n-]c(C(=O)[N-]Cc2ccccn2)c/c1=N\C(=O)c1ccccc1Sc1ccccc1 (optimized conformer: 91.33323091191951 kcal/mol)

>  <smiles>  (42) 
Cn1[nH]c(C(=O)NCc2ccccn2)cc1=NC(=O)c1ccccc1Sc1ccccc1

>  <score_type>  (42) 
oracle

>  <origin>  (42) 
adg

>  <m_score__min__energy>  (42) 
-13.65

>  <m_primary>  (42) 
energy

$$$$
42:0
     RDKit          3D

 41 43  0  0  0  0  0  0  0  0999 V2000
   60.3240   29.5830   49.6870 O   0  0  0  0  0  0  0  0  0  0  0  0
   60.3620   30.7770   49.2890 C   0  0  0  0  0  0  0  0  0  0  0  0
   59.1230   31.4720   49.0780 N   0  0  0  0  0  0  0  0  0  0  0  0
   58.8520   32.3930   48.0110 C   0  0  0  0  0  0  0  0  0  0  0  0
   59.2350   33.7310   48.1510 C   0  0  0  0  0  0  0  0  0  0  0  0
   59.0230   34.6370   47.1080 C   0  0  0  0  0  0  0  0  0  0  0  0
   58.4240   34.2140   45.9190 C   0  0  0  0  0  0  0  0  0  0  0  0
   58.0030   32.8800   45.7720 C   0  0  0  0  0  0  0  0  0  0  0  0
   57.4050   32.4080   44.5020 C   0  0  0  0  0  0  0  0  0  0  0  0
   57.8800   32.7910   43.3980 O   0  0  0  0  0  0  0  0  0  0  0  0
   56.3090   31.4910   44.5280 N   0  0  0  0  0  0  0  0  0  0  0  0
   56.4960   29.7870   44.2930 S   0  0  0  0  0  0  0  0  0  0  0  0
   55.3050   29.0750   44.8700 O   0  0  0  0  0  0  0  0  0  0  0  0
   56.5680   29.4760   42.8230 O   0  0  0  0  0  0  0  0  0  0  0  0
   57.9570   29.2550   45.1180 C   0  0  0  0  0  0  0  0  0  0  0  0
   57.8610   28.6020   46.3560 C   0  0  0  0  0  0  0  0  0  0  0  0
   59.0180   28.1930   47.0270 C   0  0  0  0  0  0  0  0  0  0  0  0
   60.2760   28.4460   46.4690 C   0  0  0  0  0  0  0  0  0  0  0  0
   60.3780   29.1040   45.2400 C   0  0  0  0  0  0  0  0  0  0  0  0
   59.2200   29.5110   44.5650 C   0  0  0  0  0  0  0  0  0  0  0  0
   58.1970   31.9830   46.8370 C   0  0  0  0  0  0  0  0  0  0  0  0
   61.6750   31.4340   49.0820 C   0  0  0  0  0  0  0  0  0  0  0  0
   62.7070   31.2920   50.0280 C   0  0  0  0  0  0  0  0  0  0  0  0
   63.9320   31.9400   49.8390 C   0  0  0  0  0  0  0  0  0  0  0  0
   64.1410   32.7290   48.7060 C   0  0  0  0  0  0  0  0  0  0  0  0
   63.1270   32.8650   47.7520 C   0  0  0  0  0  0  0  0  0  0  0  0
   63.3910   33.8600   46.3320 Cl  0  0  0  0  0  0  0  0  0  0  0  0
   61.9000   32.2140   47.9350 C   0  0  0  0  0  0  0  0  0  0  0  0
   59.7048   34.0715   49.0855 H   0  0  0  0  0  0  0  0  0  0  0  0
   59.3290   35.6872   47.2239 H   0  0  0  0  0  0  0  0  0  0  0  0
   58.2809   34.9274   45.0940 H   0  0  0  0  0  0  0  0  0  0  0  0
   56.8729   28.4111   46.8002 H   0  0  0  0  0  0  0  0  0  0  0  0
   58.9390   27.6727   47.9929 H   0  0  0  0  0  0  0  0  0  0  0  0
   61.1859   28.1266   46.9982 H   0  0  0  0  0  0  0  0  0  0  0  0
   61.3677   29.3022   44.8028 H   0  0  0  0  0  0  0  0  0  0  0  0
   59.3015   30.0322   43.5997 H   0  0  0  0  0  0  0  0  0  0  0  0
   57.8321   30.9489   46.7505 H   0  0  0  0  0  0  0  0  0  0  0  0
   62.5496   30.6684   50.9204 H   0  0  0  0  0  0  0  0  0  0  0  0
   64.7328   31.8278   50.5848 H   0  0  0  0  0  0  0  0  0  0  0  0
   65.1028   33.2435   48.5637 H   0  0  0  0  0  0  0  0  0  0  0  0
   61.1090   32.3139   47.1772 H   0  0  0  0  0  0  0  0  0  0  0  0
  1  2  2  0
  2  3  1  0
  3  4  1  0
  4  5  2  0
  5  6  1  0
  6  7  2  0
  7  8  1  0
  8  9  1  0
  9 10  2  0
  9 11  1  0
 11 12  1  0
 12 13  2  0
 12 14  2  0
 12 15  1  0
 15 16  2  0
 16 17  1  0
 17 18  2  0
 18 19  1  0
 19 20  2  0
  8 21  2  0
  2 22  1  0
 22 23  2  0
 23 24  1  0
 24 25  2  0
 25 26  1  0
 26 27  1  0
 26 28  2  0
 21  4  1  0
 28 22  1  0
 20 15  1  0
  5 29  1  0
  6 30  1  0
  7 31  1  0
 16 32  1  0
 17 33  1  0
 18 34  1  0
 19 35  1  0
 20 36  1  0
 21 37  1  0
 23 38  1  0
 24 39  1  0
 25 40  1  0
 28 41  1  0
M  CHG  2   3  -1  11  -1
M  END
>  <UniqueID>  (43) 
43

>  <SMILES>  (43) 
O=C([N-]c1cccc(C(=O)[N-]S(=O)(=O)c2ccccc2)c1)c1cccc(Cl)c1

>  <Energy>  (43) 
51.42546837334747

>  <Genealogy>  (43) 
O=C([N-]c1cccc(C(=O)[N-]S(=O)(=O)c2ccccc2)c1)c1cccc(Cl)c1 (protonated)
O=C([N-]c1cccc(C(=O)[N-]S(=O)(=O)c2ccccc2)c1)c1cccc(Cl)c1 (3D coordinates assigned)
O=C([N-]c1cccc(C(=O)[N-]S(=O)(=O)c2ccccc2)c1)c1cccc(Cl)c1 (optimized conformer: 51.42546837334747 kcal/mol)

>  <smiles>  (43) 
O=C(Nc1cccc(C(=O)NS(=O)(=O)c2ccccc2)c1)c1cccc(Cl)c1

>  <score_type>  (43) 
oracle

>  <origin>  (43) 
adg

>  <m_score__min__energy>  (43) 
-12.859999999999999

>  <m_primary>  (43) 
energy

$$$$
43:0
     RDKit          3D

 53 56  0  0  0  0  0  0  0  0999 V2000
   60.3937   28.4041   47.1640 H   0  0  0  0  0  0  0  0  0  0  0  0
   59.6970   27.8790   46.4940 C   0  0  0  0  0  0  0  0  0  0  0  0
   59.6469   26.7802   46.5043 H   0  0  0  0  0  0  0  0  0  0  0  0
   58.9080   28.5790   45.6640 C   0  0  0  0  0  0  0  0  0  0  0  0
   57.9690   28.0720   44.7500 C   0  0  0  0  0  0  0  0  0  0  0  0
   57.5040   26.8230   44.5590 C   0  0  0  0  0  0  0  0  0  0  0  0
   57.4336   26.4676   43.5204 H   0  0  0  0  0  0  0  0  0  0  0  0
   57.0820   25.8920   45.6160 C   0  0  0  0  0  0  0  0  0  0  0  0
   57.8190   24.8430   46.0220 N   0  0  0  0  0  0  0  0  0  0  0  0
   57.0050   24.2090   46.8940 C   0  0  0  0  0  0  0  0  0  0  0  0
   57.3500   23.1660   47.5100 O   0  0  0  0  0  0  0  0  0  0  0  0
   55.7860   24.7700   47.0440 N   0  0  0  0  0  0  0  0  0  0  0  0
   55.8450   25.8260   46.2150 C   0  0  0  0  0  0  0  0  0  0  0  0
   54.7810   26.6920   45.9910 O   0  0  0  0  0  0  0  0  0  0  0  0
   57.5300   29.1550   44.0030 C   0  0  0  0  0  0  0  0  0  0  0  0
   56.8158   29.1279   43.1668 H   0  0  0  0  0  0  0  0  0  0  0  0
   58.1600   30.2720   44.5090 C   0  0  0  0  0  0  0  0  0  0  0  0
   57.9670   31.6680   43.9980 C   0  0  0  0  0  0  0  0  0  0  0  0
   57.8714   32.3596   44.8480 H   0  0  0  0  0  0  0  0  0  0  0  0
   58.8337   31.9574   43.3855 H   0  0  0  0  0  0  0  0  0  0  0  0
   57.0543   31.7114   43.3855 H   0  0  0  0  0  0  0  0  0  0  0  0
   58.9860   29.9280   45.5220 N   0  0  0  0  0  0  0  0  0  0  0  0
   59.8580   30.8320   46.2230 C   0  0  0  0  0  0  0  0  0  0  0  0
   61.1260   30.4060   46.6370 C   0  0  0  0  0  0  0  0  0  0  0  0
   61.4640   29.3848   46.4068 H   0  0  0  0  0  0  0  0  0  0  0  0
   61.9620   31.2740   47.3410 C   0  0  0  0  0  0  0  0  0  0  0  0
   62.9591   30.9360   47.6596 H   0  0  0  0  0  0  0  0  0  0  0  0
   61.5370   32.5720   47.6430 C   0  0  0  0  0  0  0  0  0  0  0  0
   62.2009   33.2497   48.1997 H   0  0  0  0  0  0  0  0  0  0  0  0
   60.2640   33.0150   47.2380 C   0  0  0  0  0  0  0  0  0  0  0  0
   59.8030   34.3830   47.5620 C   0  0  0  0  0  0  0  0  0  0  0  0
   59.8570   35.2930   46.6900 O   0  0  0  0  0  0  0  0  0  0  0  0
   59.2930   34.6770   48.8650 N   0  0  0  0  0  0  0  0  0  0  0  0
   59.8820   34.1620   50.0940 C   0  0  0  0  0  0  0  0  0  0  0  0
   60.9304   33.8857   49.9081 H   0  0  0  0  0  0  0  0  0  0  0  0
   59.8343   34.9386   50.8715 H   0  0  0  0  0  0  0  0  0  0  0  0
   59.1210   32.9490   50.5580 C   0  0  0  0  0  0  0  0  0  0  0  0
   58.2130   33.0480   51.6250 C   0  0  0  0  0  0  0  0  0  0  0  0
   58.0497   34.0180   52.1173 H   0  0  0  0  0  0  0  0  0  0  0  0
   57.5170   31.9200   52.0630 C   0  0  0  0  0  0  0  0  0  0  0  0
   56.8081   32.0042   52.8999 H   0  0  0  0  0  0  0  0  0  0  0  0
   57.7180   30.6820   51.4410 C   0  0  0  0  0  0  0  0  0  0  0  0
   57.0090   29.5690   51.8800 O   0  0  0  0  0  0  0  0  0  0  0  0
   58.6250   30.5610   50.3780 C   0  0  0  0  0  0  0  0  0  0  0  0
   58.7870   29.3030   49.7740 O   0  0  0  0  0  0  0  0  0  0  0  0
   60.0240   28.6050   49.6840 C   0  0  0  0  0  0  0  0  0  0  0  0
   60.3998   28.3929   50.6958 H   0  0  0  0  0  0  0  0  0  0  0  0
   59.8728   27.6591   49.1433 H   0  0  0  0  0  0  0  0  0  0  0  0
   60.7555   29.2235   49.1433 H   0  0  0  0  0  0  0  0  0  0  0  0
   59.3380   31.6990   49.9490 C   0  0  0  0  0  0  0  0  0  0  0  0
   60.0693   31.6092   49.1322 H   0  0  0  0  0  0  0  0  0  0  0  0
   59.4290   32.1320   46.5280 C   0  0  0  0  0  0  0  0  0  0  0  0
   58.4302   32.4648   46.2092 H   0  0  0  0  0  0  0  0  0  0  0  0
  1  2  1  0
  2  3  1  0
  2  4  2  0
  4  5  1  0
  5  6  2  0
  6  7  1  0
  6  8  1  0
  8  9  1  0
  9 10  1  0
 10 11  2  0
 10 12  1  0
 12 13  1  0
 13 14  1  0
  5 15  1  0
 15 16  1  0
 15 17  2  0
 17 18  1  0
 18 19  1  0
 18 20  1  0
 18 21  1  0
 17 22  1  0
 22 23  1  0
 23 24  2  0
 24 25  1  0
 24 26  1  0
 26 27  1  0
 26 28  2  0
 28 29  1  0
 28 30  1  0
 30 31  1  0
 31 32  2  0
 31 33  1  0
 33 34  1  0
 34 35  1  0
 34 36  1  0
 34 37  1  0
 37 38  2  0
 38 39  1  0
 38 40  1  0
 40 41  1  0
 40 42  2  0
 42 43  1  0
 42 44  1  0
 44 45  1  0
 45 46  1  0
 46 47  1  0
 46 48  1  0
 46 49  1  0
 44 50  2  0
 50 51  1  0
 30 52  2  0
 52 53  1  0
 22  4  1  0
 52 23  1  0
 13  8  2  0
 50 37  1  0
M  CHG  5   9  -1  12  -1  14  -1  33  -1  43  -1
M  END
>  <UniqueID>  (44) 
44

>  <SMILES>  (44) 
C=c1/c(=C\c2[n-]c(=O)[n-]c2[O-])cc(C)n1-c1cccc(C(=O)[N-]Cc2ccc([O-])c(OC)c2)c1

>  <Energy>  (44) 
131.32016923495118

>  <Genealogy>  (44) 
C=c1c(=Cc2[n-]c(=O)[n-]c2[O-])cc(C)n1-c1cccc(C(=O)[N-]Cc2ccc([O-])c(OC)c2)c1 (protonated)
C=c1/c(=C\c2[n-]c(=O)[n-]c2[O-])cc(C)n1-c1cccc(C(=O)[N-]Cc2ccc([O-])c(OC)c2)c1 (cis-trans isomerization)
C=c1/c(=C\c2[n-]c(=O)[n-]c2[O-])cc(C)n1-c1cccc(C(=O)[N-]Cc2ccc([O-])c(OC)c2)c1 (3D coordinates assigned)
C=c1/c(=C\c2[n-]c(=O)[n-]c2[O-])cc(C)n1-c1cccc(C(=O)[N-]Cc2ccc([O-])c(OC)c2)c1 (optimized conformer: 131.32016923495118 kcal/mol)

>  <smiles>  (44) 
C=c1c(=Cc2[nH]c(=O)[nH]c2O)cc(C)n1-c1cccc(C(=O)NCc2ccc(O)c(OC)c2)c1

>  <score_type>  (44) 
oracle

>  <origin>  (44) 
adg

>  <m_score__min__energy>  (44) 
-21.510000000000002

>  <m_primary>  (44) 
energy

$$$$
44:0
     RDKit          3D

 55 58  0  0  0  0  0  0  0  0999 V2000
   54.7780   26.6880   47.1250 H   0  0  0  0  0  0  0  0  0  0  0  0
   54.8790   26.3560   46.1730 O   0  0  0  0  0  0  0  0  0  0  0  0
   55.9040   25.4810   45.8110 C   0  0  0  0  0  0  0  0  0  0  0  0
   55.6760   24.4730   44.8650 C   0  0  0  0  0  0  0  0  0  0  0  0
   54.6814   24.3615   44.4085 H   0  0  0  0  0  0  0  0  0  0  0  0
   56.7120   23.6100   44.5020 C   0  0  0  0  0  0  0  0  0  0  0  0
   56.4440   22.3480   43.3150 Cl  0  0  0  0  0  0  0  0  0  0  0  0
   57.9670   23.7680   45.0910 C   0  0  0  0  0  0  0  0  0  0  0  0
   58.7942   23.1003   44.8083 H   0  0  0  0  0  0  0  0  0  0  0  0
   58.1690   24.7450   46.0130 N   0  0  0  0  0  0  0  0  0  0  0  0
   57.1770   25.6010   46.3900 C   0  0  0  0  0  0  0  0  0  0  0  0
   57.4050   26.5550   47.2470 N   0  0  0  0  0  0  0  0  0  0  0  0
   58.6370   27.2760   47.3970 C   0  0  0  0  0  0  0  0  0  0  0  0
   59.1210   27.5060   48.5380 O   0  0  0  0  0  0  0  0  0  0  0  0
   59.3820   27.7130   46.1770 C   0  0  0  0  0  0  0  0  0  0  0  0
   60.2164   28.3673   46.4698 H   0  0  0  0  0  0  0  0  0  0  0  0
   59.7789   26.8324   45.6506 H   0  0  0  0  0  0  0  0  0  0  0  0
   58.4470   28.4650   45.2710 C   0  0  0  0  0  0  0  0  0  0  0  0
   58.1640   27.9860   43.9830 C   0  0  0  0  0  0  0  0  0  0  0  0
   58.5796   27.0228   43.6522 H   0  0  0  0  0  0  0  0  0  0  0  0
   57.3550   28.7300   43.1190 C   0  0  0  0  0  0  0  0  0  0  0  0
   57.1139   28.3389   42.1195 H   0  0  0  0  0  0  0  0  0  0  0  0
   56.8520   29.9700   43.5230 C   0  0  0  0  0  0  0  0  0  0  0  0
   56.2106   30.5485   42.8419 H   0  0  0  0  0  0  0  0  0  0  0  0
   57.1600   30.4790   44.7890 C   0  0  0  0  0  0  0  0  0  0  0  0
   56.6490   31.7670   45.1650 N   0  0  0  0  0  0  0  0  0  0  0  0
   57.3980   32.9900   45.2080 C   0  0  0  0  0  0  0  0  0  0  0  0
   57.0400   33.9420   44.4660 O   0  0  0  0  0  0  0  0  0  0  0  0
   58.5970   33.1480   46.0630 C   0  0  0  0  0  0  0  0  0  0  0  0
   59.7160   33.8680   45.6100 C   0  0  0  0  0  0  0  0  0  0  0  0
   59.7042   34.3228   44.6085 H   0  0  0  0  0  0  0  0  0  0  0  0
   60.8440   34.0100   46.4240 C   0  0  0  0  0  0  0  0  0  0  0  0
   61.7104   34.5840   46.0636 H   0  0  0  0  0  0  0  0  0  0  0  0
   60.8760   33.4240   47.6980 C   0  0  0  0  0  0  0  0  0  0  0  0
   62.0360   33.5710   48.5320 N   0  0  0  0  0  0  0  0  0  0  0  0
   63.3690   33.4830   47.9240 C   0  0  0  0  0  0  0  0  0  0  0  0
   63.3129   32.8297   47.0408 H   0  0  0  0  0  0  0  0  0  0  0  0
   63.6827   34.5012   47.6502 H   0  0  0  0  0  0  0  0  0  0  0  0
   64.4220   32.9090   48.9020 C   0  0  0  0  0  0  0  0  0  0  0  0
   64.5549   31.8409   48.6751 H   0  0  0  0  0  0  0  0  0  0  0  0
   65.3390   33.4984   48.7544 H   0  0  0  0  0  0  0  0  0  0  0  0
   64.0680   33.0360   50.3280 N   0  0  0  0  0  0  0  0  0  0  0  0
   63.5440   32.1820   50.6310 H   0  0  0  0  0  0  0  0  0  0  0  0
   63.2360   34.2130   50.5940 C   0  0  0  0  0  0  0  0  0  0  0  0
   63.0837   34.3124   51.6789 H   0  0  0  0  0  0  0  0  0  0  0  0
   63.7435   35.1068   50.2020 H   0  0  0  0  0  0  0  0  0  0  0  0
   61.8770   34.0680   49.9040 C   0  0  0  0  0  0  0  0  0  0  0  0
   61.2575   33.3599   50.4739 H   0  0  0  0  0  0  0  0  0  0  0  0
   61.3952   35.0561   49.8660 H   0  0  0  0  0  0  0  0  0  0  0  0
   59.7540   32.7160   48.1570 C   0  0  0  0  0  0  0  0  0  0  0  0
   59.7671   32.2601   49.1580 H   0  0  0  0  0  0  0  0  0  0  0  0
   58.6210   32.5870   47.3500 C   0  0  0  0  0  0  0  0  0  0  0  0
   57.7420   32.0424   47.7252 H   0  0  0  0  0  0  0  0  0  0  0  0
   57.9330   29.7060   45.6740 C   0  0  0  0  0  0  0  0  0  0  0  0
   58.1358   30.0775   46.6893 H   0  0  0  0  0  0  0  0  0  0  0  0
  1  2  1  0
  2  3  1  0
  3  4  2  0
  4  5  1  0
  4  6  1  0
  6  7  1  0
  6  8  2  0
  8  9  1  0
  8 10  1  0
 10 11  1  0
 11 12  2  0
 12 13  1  0
 13 14  2  0
 13 15  1  0
 15 16  1  0
 15 17  1  0
 15 18  1  0
 18 19  2  0
 19 20  1  0
 19 21  1  0
 21 22  1  0
 21 23  2  0
 23 24  1  0
 23 25  1  0
 25 26  1  0
 26 27  1  0
 27 28  2  0
 27 29  1  0
 29 30  2  0
 30 31  1  0
 30 32  1  0
 32 33  1  0
 32 34  2  0
 34 35  1  0
 35 36  1  0
 36 37  1  0
 36 38  1  0
 36 39  1  0
 39 40  1  0
 39 41  1  0
 39 42  1  0
 42 43  1  0
 42 44  1  0
 44 45  1  0
 44 46  1  0
 44 47  1  0
 47 48  1  0
 47 49  1  0
 34 50  1  0
 50 51  1  0
 50 52  2  0
 52 53  1  0
 25 54  2  0
 54 55  1  0
 11  3  1  0
 54 18  1  0
 52 29  1  0
 47 35  1  0
M  CHG  2  10  -1  26  -1
M  END
>  <UniqueID>  (45) 
45

>  <SMILES>  (45) 
O=C(Cc1cccc([N-]C(=O)c2ccc(N3CCNCC3)cc2)c1)/N=c1\[n-]cc(Cl)cc1O

>  <Energy>  (45) 
71.84998787483418

>  <Genealogy>  (45) 
O=C(Cc1cccc([N-]C(=O)c2ccc(N3CCNCC3)cc2)c1)N=c1[n-]cc(Cl)cc1O (protonated)
O=C(Cc1cccc([N-]C(=O)c2ccc(N3CCNCC3)cc2)c1)/N=c1\[n-]cc(Cl)cc1O (cis-trans isomerization)
O=C(Cc1cccc([N-]C(=O)c2ccc(N3CCNCC3)cc2)c1)/N=c1\[n-]cc(Cl)cc1O (3D coordinates assigned)
O=C(Cc1cccc([N-]C(=O)c2ccc(N3CCNCC3)cc2)c1)/N=c1\[n-]cc(Cl)cc1O (nonaromatic ring conformer: 71.84998787483418 kcal/mol)

>  <smiles>  (45) 
O=C(Cc1cccc(NC(=O)c2ccc(N3CCNCC3)cc2)c1)N=c1[nH]cc(Cl)cc1O

>  <score_type>  (45) 
oracle

>  <origin>  (45) 
adg

>  <m_score__min__energy>  (45) 
-13.449999999999999

>  <m_primary>  (45) 
energy

$$$$
45:0
     RDKit          3D

 48 50  0  0  0  0  0  0  0  0999 V2000
   57.8200   22.3900   44.6990 C   0  0  0  0  0  0  0  0  0  0  0  0
   56.3700   22.6160   44.2720 C   0  0  0  0  0  0  0  0  0  0  0  0
   56.2930   23.6740   43.1680 C   0  0  0  0  0  0  0  0  0  0  0  0
   55.5910   23.0400   45.4360 N   0  0  0  0  0  0  0  0  0  0  0  0
   55.3940   24.3950   45.8660 C   0  0  0  0  0  0  0  0  0  0  0  0
   54.2180   24.8300   45.9760 O   0  0  0  0  0  0  0  0  0  0  0  0
   56.5230   25.2910   46.1850 C   0  0  0  0  0  0  0  0  0  0  0  0
   56.6130   26.5560   45.5840 C   0  0  0  0  0  0  0  0  0  0  0  0
   57.6880   27.4150   45.8770 C   0  0  0  0  0  0  0  0  0  0  0  0
   57.7940   28.7150   45.2700 N   0  0  0  0  0  0  0  0  0  0  0  0
   56.6690   29.5370   44.9340 C   0  0  0  0  0  0  0  0  0  0  0  0
   55.5010   29.0620   44.9540 O   0  0  0  0  0  0  0  0  0  0  0  0
   56.8870   30.9090   44.5860 N   0  0  0  0  0  0  0  0  0  0  0  0
   57.5590   31.8960   45.3820 C   0  0  0  0  0  0  0  0  0  0  0  0
   57.5780   33.2590   45.0230 C   0  0  0  0  0  0  0  0  0  0  0  0
   58.2620   34.1840   45.8160 C   0  0  0  0  0  0  0  0  0  0  0  0
   58.9400   33.7630   46.9670 C   0  0  0  0  0  0  0  0  0  0  0  0
   59.8200   34.9510   47.9790 S   0  0  0  0  0  0  0  0  0  0  0  0
   61.3660   34.0680   47.8240 C   0  0  0  0  0  0  0  0  0  0  0  0
   62.0260   33.5310   48.8710 N   0  0  0  0  0  0  0  0  0  0  0  0
   63.1720   32.9110   48.4780 C   0  0  0  0  0  0  0  0  0  0  0  0
   64.0630   32.2500   49.4400 C   0  0  0  0  0  0  0  0  0  0  0  0
   65.2320   32.6800   49.6190 O   0  0  0  0  0  0  0  0  0  0  0  0
   63.6220   31.1450   50.1590 O   0  0  0  0  0  0  0  0  0  0  0  0
   63.4250   32.9530   47.1080 C   0  0  0  0  0  0  0  0  0  0  0  0
   62.1680   33.7960   46.3740 S   0  0  0  0  0  0  0  0  0  0  0  0
   58.9450   32.4070   47.3110 C   0  0  0  0  0  0  0  0  0  0  0  0
   58.2640   31.4780   46.5170 C   0  0  0  0  0  0  0  0  0  0  0  0
   58.6410   27.0180   46.8270 C   0  0  0  0  0  0  0  0  0  0  0  0
   58.5420   25.7710   47.4480 C   0  0  0  0  0  0  0  0  0  0  0  0
   57.4880   24.9080   47.1320 C   0  0  0  0  0  0  0  0  0  0  0  0
   57.4190   23.6950   47.7380 F   0  0  0  0  0  0  0  0  0  0  0  0
   57.8816   22.3804   45.7972 H   0  0  0  0  0  0  0  0  0  0  0  0
   58.1727   21.4260   44.3035 H   0  0  0  0  0  0  0  0  0  0  0  0
   58.4493   23.2009   44.3035 H   0  0  0  0  0  0  0  0  0  0  0  0
   55.9574   21.6774   43.8734 H   0  0  0  0  0  0  0  0  0  0  0  0
   56.2203   24.6732   43.6222 H   0  0  0  0  0  0  0  0  0  0  0  0
   57.1975   23.6196   42.5443 H   0  0  0  0  0  0  0  0  0  0  0  0
   55.4059   23.4893   42.5443 H   0  0  0  0  0  0  0  0  0  0  0  0
   55.8351   26.8792   44.8766 H   0  0  0  0  0  0  0  0  0  0  0  0
   58.7390   29.0490   44.9770 H   0  0  0  0  0  0  0  0  0  0  0  0
   57.0532   33.5951   44.1166 H   0  0  0  0  0  0  0  0  0  0  0  0
   58.2680   35.2475   45.5351 H   0  0  0  0  0  0  0  0  0  0  0  0
   64.2937   32.5125   46.5968 H   0  0  0  0  0  0  0  0  0  0  0  0
   59.4857   32.0704   48.2079 H   0  0  0  0  0  0  0  0  0  0  0  0
   58.2826   30.4117   46.7864 H   0  0  0  0  0  0  0  0  0  0  0  0
   59.4708   27.6927   47.0842 H   0  0  0  0  0  0  0  0  0  0  0  0
   59.2961   25.4664   48.1886 H   0  0  0  0  0  0  0  0  0  0  0  0
  1  2  1  0
  2  3  1  0
  2  4  1  0
  4  5  1  0
  5  6  2  0
  5  7  1  0
  7  8  2  0
  8  9  1  0
  9 10  1  0
 10 11  1  0
 11 12  2  0
 11 13  1  0
 13 14  1  0
 14 15  2  0
 15 16  1  0
 16 17  2  0
 17 18  1  0
 18 19  1  0
 19 20  2  0
 20 21  1  0
 21 22  1  0
 22 23  2  0
 22 24  1  0
 21 25  2  0
 25 26  1  0
 17 27  1  0
 27 28  2  0
  9 29  2  0
 29 30  1  0
 30 31  2  0
 31 32  1  0
 31  7  1  0
 28 14  1  0
 26 19  1  0
  1 33  1  0
  1 34  1  0
  1 35  1  0
  2 36  1  0
  3 37  1  0
  3 38  1  0
  3 39  1  0
  8 40  1  0
 10 41  1  0
 15 42  1  0
 16 43  1  0
 25 44  1  0
 27 45  1  0
 28 46  1  0
 29 47  1  0
 30 48  1  0
M  CHG  3   4  -1  13  -1  24  -1
M  END
>  <UniqueID>  (46) 
46

>  <SMILES>  (46) 
CC(C)[N-]C(=O)c1cc(NC(=O)[N-]c2ccc(Sc3nc(C(=O)[O-])cs3)cc2)ccc1F

>  <Energy>  (46) 
80.80034316064038

>  <Genealogy>  (46) 
CC(C)[N-]C(=O)c1cc(NC(=O)[N-]c2ccc(Sc3nc(C(=O)[O-])cs3)cc2)ccc1F (protonated)
CC(C)[N-]C(=O)c1cc(NC(=O)[N-]c2ccc(Sc3nc(C(=O)[O-])cs3)cc2)ccc1F (3D coordinates assigned)
CC(C)[N-]C(=O)c1cc(NC(=O)[N-]c2ccc(Sc3nc(C(=O)[O-])cs3)cc2)ccc1F (optimized conformer: 80.80034316064038 kcal/mol)

>  <smiles>  (46) 
CC(C)NC(=O)c1cc(NC(=O)Nc2ccc(Sc3nc(C(=O)O)cs3)cc2)ccc1F

>  <score_type>  (46) 
oracle

>  <origin>  (46) 
adg

>  <m_score__min__energy>  (46) 
-13.91

>  <m_primary>  (46) 
energy

$$$$
46:0
     RDKit          3D

 43 46  0  0  0  0  0  0  0  0999 V2000
   53.4780   29.6220   54.7130 C   0  0  0  0  0  0  0  0  0  0  0  0
   54.1400   30.0410   53.6290 C   0  0  0  0  0  0  0  0  0  0  0  0
   55.4650   29.8500   53.4710 N   0  0  0  0  0  0  0  0  0  0  0  0
   55.8050   30.3820   52.2810 C   0  0  0  0  0  0  0  0  0  0  0  0
   57.1900   30.4180   51.7690 C   0  0  0  0  0  0  0  0  0  0  0  0
   57.7670   29.3270   51.5070 O   0  0  0  0  0  0  0  0  0  0  0  0
   57.9270   31.6860   51.5640 C   0  0  0  0  0  0  0  0  0  0  0  0
   58.0490   32.6280   52.6000 C   0  0  0  0  0  0  0  0  0  0  0  0
   58.7450   33.8200   52.3910 C   0  0  0  0  0  0  0  0  0  0  0  0
   59.3090   34.0940   51.1440 C   0  0  0  0  0  0  0  0  0  0  0  0
   59.1690   33.1830   50.0870 C   0  0  0  0  0  0  0  0  0  0  0  0
   59.7550   33.4720   48.8050 N   0  0  0  0  0  0  0  0  0  0  0  0
   59.2710   34.3350   47.8940 C   0  0  0  0  0  0  0  0  0  0  0  0
   60.1150   34.3290   46.8060 C   0  0  0  0  0  0  0  0  0  0  0  0
   61.1220   33.4580   47.0190 N   0  0  0  0  0  0  0  0  0  0  0  0
   60.8680   32.9460   48.2420 C   0  0  0  0  0  0  0  0  0  0  0  0
   61.7360   31.8990   48.8670 C   0  0  0  0  0  0  0  0  0  0  0  0
   58.4810   31.9780   50.3060 C   0  0  0  0  0  0  0  0  0  0  0  0
   54.6930   30.9380   51.6700 C   0  0  0  0  0  0  0  0  0  0  0  0
   53.6160   30.7140   52.5210 C   0  0  0  0  0  0  0  0  0  0  0  0
   52.3360   31.0990   52.3370 C   0  0  0  0  0  0  0  0  0  0  0  0
   51.6800   31.2440   51.0180 C   0  0  0  0  0  0  0  0  0  0  0  0
   51.0250   32.3410   50.5960 N   0  0  0  0  0  0  0  0  0  0  0  0
   50.6740   32.0350   49.3300 C   0  0  0  0  0  0  0  0  0  0  0  0
   50.0270   32.8280   48.5950 O   0  0  0  0  0  0  0  0  0  0  0  0
   51.0740   30.8170   48.9110 N   0  0  0  0  0  0  0  0  0  0  0  0
   51.7140   30.3280   49.9850 C   0  0  0  0  0  0  0  0  0  0  0  0
   52.3050   29.0670   50.0090 O   0  0  0  0  0  0  0  0  0  0  0  0
   52.3959   29.7998   54.7995 H   0  0  0  0  0  0  0  0  0  0  0  0
   54.0156   29.0996   55.5180 H   0  0  0  0  0  0  0  0  0  0  0  0
   56.1110   29.3790   54.1450 H   0  0  0  0  0  0  0  0  0  0  0  0
   57.5937   32.4249   53.5806 H   0  0  0  0  0  0  0  0  0  0  0  0
   58.8492   34.5453   53.2114 H   0  0  0  0  0  0  0  0  0  0  0  0
   59.8664   35.0297   50.9895 H   0  0  0  0  0  0  0  0  0  0  0  0
   58.3589   34.9407   47.9998 H   0  0  0  0  0  0  0  0  0  0  0  0
   59.9872   34.9413   45.9012 H   0  0  0  0  0  0  0  0  0  0  0  0
   61.6722   31.9759   49.9625 H   0  0  0  0  0  0  0  0  0  0  0  0
   61.3954   30.9026   48.5489 H   0  0  0  0  0  0  0  0  0  0  0  0
   62.7783   32.0490   48.5489 H   0  0  0  0  0  0  0  0  0  0  0  0
   58.3748   31.2551   49.4838 H   0  0  0  0  0  0  0  0  0  0  0  0
   54.6669   31.4561   50.7000 H   0  0  0  0  0  0  0  0  0  0  0  0
   51.7365   31.3212   53.2321 H   0  0  0  0  0  0  0  0  0  0  0  0
   53.0010   28.8160   50.6990 H   0  0  0  0  0  0  0  0  0  0  0  0
  1  2  2  0
  2  3  1  0
  3  4  1  0
  4  5  1  0
  5  6  2  0
  5  7  1  0
  7  8  2  0
  8  9  1  0
  9 10  2  0
 10 11  1  0
 11 12  1  0
 12 13  1  0
 13 14  2  0
 14 15  1  0
 15 16  2  0
 16 17  1  0
 11 18  2  0
  4 19  2  0
 19 20  1  0
 20 21  2  3
 21 22  1  0
 22 23  1  0
 23 24  1  0
 24 25  2  0
 24 26  1  0
 26 27  1  0
 27 28  1  0
 20  2  1  0
 27 22  2  0
 18  7  1  0
 16 12  1  0
  1 29  1  0
  1 30  1  0
  3 31  1  0
  8 32  1  0
  9 33  1  0
 10 34  1  0
 13 35  1  0
 14 36  1  0
 17 37  1  0
 17 38  1  0
 17 39  1  0
 18 40  1  0
 19 41  1  0
 21 42  1  0
 28 43  1  0
M  CHG  2  23  -1  26  -1
M  END
>  <UniqueID>  (47) 
47

>  <SMILES>  (47) 
C=c1[nH]c(C(=O)c2cccc(-n3ccnc3C)c2)cc1=Cc1[n-]c(=O)[n-]c1O

>  <Energy>  (47) 
145.24004258880422

>  <Genealogy>  (47) 
C=c1[nH]c(C(=O)c2cccc(-n3ccnc3C)c2)cc1=Cc1[n-]c(=O)[n-]c1O (protonated)
C=c1[nH]c(C(=O)c2cccc(-n3ccnc3C)c2)cc1=Cc1[n-]c(=O)[n-]c1O (3D coordinates assigned)
C=c1[nH]c(C(=O)c2cccc(-n3ccnc3C)c2)cc1=Cc1[n-]c(=O)[n-]c1O (optimized conformer: 145.24004258880422 kcal/mol)

>  <smiles>  (47) 
C=c1[nH]c(C(=O)c2cccc(-n3ccnc3C)c2)cc1=Cc1[nH]c(=O)[nH]c1O

>  <score_type>  (47) 
oracle

>  <origin>  (47) 
adg

>  <m_score__min__energy>  (47) 
-14.039999999999999

>  <m_primary>  (47) 
energy

$$$$
47:0
     RDKit          3D

 41 43  0  0  0  0  0  0  0  0999 V2000
   54.7640   27.4860   46.3420 H   0  0  0  0  0  0  0  0  0  0  0  0
   55.1420   26.6940   45.8360 O   0  0  0  0  0  0  0  0  0  0  0  0
   56.1350   25.9000   46.4020 C   0  0  0  0  0  0  0  0  0  0  0  0
   55.9040   24.9520   47.3240 N   0  0  0  0  0  0  0  0  0  0  0  0
   57.1320   24.4290   47.5250 C   0  0  0  0  0  0  0  0  0  0  0  0
   57.3430   23.4870   48.3320 O   0  0  0  0  0  0  0  0  0  0  0  0
   58.1150   24.9860   46.7850 N   0  0  0  0  0  0  0  0  0  0  0  0
   57.4760   25.9460   46.0930 C   0  0  0  0  0  0  0  0  0  0  0  0
   58.1160   26.7550   45.0450 C   0  0  0  0  0  0  0  0  0  0  0  0
   58.5752   26.2148   44.2040 H   0  0  0  0  0  0  0  0  0  0  0  0
   58.1890   28.1000   45.0250 C   0  0  0  0  0  0  0  0  0  0  0  0
   57.8240   28.8520   43.9190 C   0  0  0  0  0  0  0  0  0  0  0  0
   57.4891   28.4651   42.9453 H   0  0  0  0  0  0  0  0  0  0  0  0
   57.9610   30.1780   44.2730 C   0  0  0  0  0  0  0  0  0  0  0  0
   57.6450   31.3430   43.3850 C   0  0  0  0  0  0  0  0  0  0  0  0
   57.4068   32.2212   44.0031 H   0  0  0  0  0  0  0  0  0  0  0  0
   58.5149   31.5666   42.7500 H   0  0  0  0  0  0  0  0  0  0  0  0
   56.7813   31.0964   42.7500 H   0  0  0  0  0  0  0  0  0  0  0  0
   58.4140   30.2800   45.5400 N   0  0  0  0  0  0  0  0  0  0  0  0
   58.7170   31.5100   46.2180 C   0  0  0  0  0  0  0  0  0  0  0  0
   57.7960   32.5670   46.2000 C   0  0  0  0  0  0  0  0  0  0  0  0
   56.6090   32.4280   45.5590 F   0  0  0  0  0  0  0  0  0  0  0  0
   58.0950   33.7650   46.8510 C   0  0  0  0  0  0  0  0  0  0  0  0
   57.3699   34.5920   46.8366 H   0  0  0  0  0  0  0  0  0  0  0  0
   59.3120   33.9180   47.5210 C   0  0  0  0  0  0  0  0  0  0  0  0
   59.5404   34.8644   48.0330 H   0  0  0  0  0  0  0  0  0  0  0  0
   60.2460   32.8660   47.5430 C   0  0  0  0  0  0  0  0  0  0  0  0
   61.5070   32.9820   48.2160 N   0  0  0  0  0  0  0  0  0  0  0  0
   63.0600   32.8650   47.4560 S   0  0  0  0  0  0  0  0  0  0  0  0
   63.2420   31.4930   46.8710 O   0  0  0  0  0  0  0  0  0  0  0  0
   63.1790   33.9030   46.3750 O   0  0  0  0  0  0  0  0  0  0  0  0
   64.3220   33.1500   48.6750 C   0  0  0  0  0  0  0  0  0  0  0  0
   63.8886   33.0521   49.6813 H   0  0  0  0  0  0  0  0  0  0  0  0
   65.1270   32.4110   48.5490 H   0  0  0  0  0  0  0  0  0  0  0  0
   64.7313   34.1632   48.5490 H   0  0  0  0  0  0  0  0  0  0  0  0
   59.9410   31.6650   46.8870 C   0  0  0  0  0  0  0  0  0  0  0  0
   60.8380   30.6450   46.8940 F   0  0  0  0  0  0  0  0  0  0  0  0
   58.5920   29.0180   46.0080 C   0  0  0  0  0  0  0  0  0  0  0  0
   59.1680   28.7490   47.1900 C   0  0  0  0  0  0  0  0  0  0  0  0
   59.4350   29.5703   47.8713 H   0  0  0  0  0  0  0  0  0  0  0  0
   59.3731   27.7072   47.4775 H   0  0  0  0  0  0  0  0  0  0  0  0
  1  2  1  0
  2  3  1  0
  3  4  1  0
  4  5  1  0
  5  6  2  0
  5  7  1  0
  7  8  1  0
  8  9  1  0
  9 10  1  0
  9 11  2  0
 11 12  1  0
 12 13  1  0
 12 14  2  0
 14 15  1  0
 15 16  1  0
 15 17  1  0
 15 18  1  0
 14 19  1  0
 19 20  1  0
 20 21  2  0
 21 22  1  0
 21 23  1  0
 23 24  1  0
 23 25  2  0
 25 26  1  0
 25 27  1  0
 27 28  1  0
 28 29  1  0
 29 30  2  0
 29 31  2  0
 29 32  1  0
 32 33  1  0
 32 34  1  0
 32 35  1  0
 27 36  2  0
 36 37  1  0
 19 38  1  0
 38 39  2  0
 39 40  1  0
 39 41  1  0
  8  3  2  0
 38 11  1  0
 36 20  1  0
M  CHG  3   4  -1   7  -1  28  -1
M  END
>  <UniqueID>  (48) 
48

>  <SMILES>  (48) 
C=c1/c(=C\c2[n-]c(=O)[n-]c2O)cc(C)n1-c1c(F)ccc([N-]S(C)(=O)=O)c1F

>  <Energy>  (48) 
117.72141840521483

>  <Genealogy>  (48) 
C=c1c(=Cc2[n-]c(=O)[n-]c2O)cc(C)n1-c1c(F)ccc([N-]S(C)(=O)=O)c1F (protonated)
C=c1/c(=C\c2[n-]c(=O)[n-]c2O)cc(C)n1-c1c(F)ccc([N-]S(C)(=O)=O)c1F (cis-trans isomerization)
C=c1/c(=C\c2[n-]c(=O)[n-]c2O)cc(C)n1-c1c(F)ccc([N-]S(C)(=O)=O)c1F (3D coordinates assigned)
C=c1/c(=C\c2[n-]c(=O)[n-]c2O)cc(C)n1-c1c(F)ccc([N-]S(C)(=O)=O)c1F (optimized conformer: 117.72141840521483 kcal/mol)

>  <smiles>  (48) 
C=c1c(=Cc2[nH]c(=O)[nH]c2O)cc(C)n1-c1c(F)ccc(NS(C)(=O)=O)c1F

>  <score_type>  (48) 
oracle

>  <origin>  (48) 
adg

>  <m_score__min__energy>  (48) 
-13.82

>  <m_primary>  (48) 
energy

$$$$
48:0
     RDKit          3D

 83 88  0  0  0  0  0  0  0  0999 V2000
   56.1310   30.0530   43.4220 C   0  0  0  0  0  0  0  0  0  0  0  0
   56.4950   30.8800   44.5200 O   0  0  0  0  0  0  0  0  0  0  0  0
   57.7830   31.4010   44.6790 C   0  0  0  0  0  0  0  0  0  0  0  0
   58.0490   32.5670   44.2690 O   0  0  0  0  0  0  0  0  0  0  0  0
   58.8280   30.5820   45.3990 C   0  0  2  0  0  0  0  0  0  0  0  0
   59.2120   29.3010   44.6130 C   0  0  0  0  0  0  0  0  0  0  0  0
   60.3540   28.5330   45.3050 C   0  0  0  0  0  0  0  0  0  0  0  0
   60.0930   28.3710   46.7730 C   0  0  0  0  0  0  0  0  0  0  0  0
   60.7470   27.4600   47.5420 N   0  0  0  0  0  0  0  0  0  0  0  0
   60.3780   27.5490   48.8380 C   0  0  0  0  0  0  0  0  0  0  0  0
   60.8340   26.7340   49.7430 N   0  0  0  0  0  0  0  0  0  0  0  0
   61.3150   27.1080   51.0430 C   0  0  0  0  0  0  0  0  0  0  0  0
   61.7240   26.2060   51.8210 O   0  0  0  0  0  0  0  0  0  0  0  0
   61.3920   28.5220   51.4700 C   0  0  0  0  0  0  0  0  0  0  0  0
   60.5720   28.9890   52.5090 C   0  0  0  0  0  0  0  0  0  0  0  0
   60.6250   30.3270   52.9000 C   0  0  0  0  0  0  0  0  0  0  0  0
   61.4990   31.2100   52.2650 C   0  0  0  0  0  0  0  0  0  0  0  0
   62.3310   30.7620   51.2240 C   0  0  0  0  0  0  0  0  0  0  0  0
   63.3130   31.7220   50.6020 C   0  0  0  0  0  0  0  0  0  0  0  0
   62.7650   32.3960   49.4230 N   0  0  0  0  0  0  0  0  0  0  0  0
   61.6470   31.8820   48.6850 C   0  0  0  0  0  0  0  0  0  0  0  0
   61.3710   30.6540   48.7190 O   0  0  0  0  0  0  0  0  0  0  0  0
   60.8070   32.7940   47.8850 C   0  0  0  0  0  0  0  0  0  0  0  0
   61.1290   32.9870   46.5350 C   0  0  0  0  0  0  0  0  0  0  0  0
   60.3920   33.8700   45.7460 C   0  0  0  0  0  0  0  0  0  0  0  0
   59.3190   34.5680   46.2980 C   0  0  0  0  0  0  0  0  0  0  0  0
   58.9800   34.3850   47.6420 C   0  0  0  0  0  0  0  0  0  0  0  0
   59.7070   33.4910   48.4500 C   0  0  0  0  0  0  0  0  0  0  0  0
   59.2760   33.2750   49.8570 C   0  0  0  0  0  0  0  0  0  0  0  0
   59.8950   33.9760   50.9050 C   0  0  0  0  0  0  0  0  0  0  0  0
   59.5320   33.7270   52.2290 C   0  0  0  0  0  0  0  0  0  0  0  0
   58.5620   32.7650   52.5250 C   0  0  0  0  0  0  0  0  0  0  0  0
   57.9220   32.0590   51.4910 C   0  0  0  0  0  0  0  0  0  0  0  0
   56.9540   30.9740   51.7950 C   0  0  0  0  0  0  0  0  0  0  0  0
   57.3930   29.7080   52.2170 C   0  0  0  0  0  0  0  0  0  0  0  0
   56.4940   28.7480   52.5630 N   0  0  0  0  0  0  0  0  0  0  0  0
   55.1550   28.9690   52.5220 C   0  0  0  0  0  0  0  0  0  0  0  0
   54.6560   30.2110   52.1010 C   0  0  0  0  0  0  0  0  0  0  0  0
   53.2010   30.4640   52.0550 C   0  0  0  0  0  0  0  0  0  0  0  0
   52.5130   30.0110   51.0950 O   0  0  0  0  0  0  0  0  0  0  0  0
   52.5650   31.2090   53.1020 N   0  0  0  0  0  0  0  0  0  0  0  0
   51.1250   31.2080   53.3390 C   0  0  0  0  0  0  0  0  0  0  0  0
   50.4730   32.4520   52.7330 C   0  0  0  0  0  0  0  0  0  0  0  0
   51.0270   32.7150   51.4710 O   0  0  0  0  0  0  0  0  0  0  0  0
   55.5700   31.2110   51.7330 C   0  0  0  0  0  0  0  0  0  0  0  0
   58.2610   32.3500   50.1570 C   0  0  0  0  0  0  0  0  0  0  0  0
   62.2860   29.4080   50.8440 C   0  0  0  0  0  0  0  0  0  0  0  0
   59.2160   28.7570   49.0810 S   0  0  0  0  0  0  0  0  0  0  0  0
   59.2250   29.2060   47.4630 C   0  0  0  0  0  0  0  0  0  0  0  0
   58.3350   30.2250   46.8210 C   0  0  0  0  0  0  0  0  0  0  0  0
   55.7145   29.1068   43.7979 H   0  0  0  0  0  0  0  0  0  0  0  0
   55.3764   30.5680   42.8094 H   0  0  0  0  0  0  0  0  0  0  0  0
   57.0205   29.8444   42.8094 H   0  0  0  0  0  0  0  0  0  0  0  0
   59.7379   31.1954   45.4754 H   0  0  0  0  0  0  0  0  0  0  0  0
   58.3309   28.6460   44.5452 H   0  0  0  0  0  0  0  0  0  0  0  0
   59.5558   29.6012   43.6121 H   0  0  0  0  0  0  0  0  0  0  0  0
   60.4458   27.5377   44.8457 H   0  0  0  0  0  0  0  0  0  0  0  0
   61.2836   29.1076   45.1798 H   0  0  0  0  0  0  0  0  0  0  0  0
   59.8845   28.2968   53.0172 H   0  0  0  0  0  0  0  0  0  0  0  0
   59.9756   30.6871   53.7116 H   0  0  0  0  0  0  0  0  0  0  0  0
   61.5373   32.2630   52.5808 H   0  0  0  0  0  0  0  0  0  0  0  0
   63.5850   32.4823   51.3489 H   0  0  0  0  0  0  0  0  0  0  0  0
   64.1901   31.1420   50.2791 H   0  0  0  0  0  0  0  0  0  0  0  0
   63.1160   33.3540   49.1990 H   0  0  0  0  0  0  0  0  0  0  0  0
   61.9722   32.4362   46.0927 H   0  0  0  0  0  0  0  0  0  0  0  0
   60.6574   34.0156   44.6885 H   0  0  0  0  0  0  0  0  0  0  0  0
   58.7380   35.2640   45.6751 H   0  0  0  0  0  0  0  0  0  0  0  0
   58.1367   34.9453   48.0721 H   0  0  0  0  0  0  0  0  0  0  0  0
   60.6693   34.7245   50.6810 H   0  0  0  0  0  0  0  0  0  0  0  0
   60.0112   34.2901   53.0434 H   0  0  0  0  0  0  0  0  0  0  0  0
   58.2978   32.5591   53.5728 H   0  0  0  0  0  0  0  0  0  0  0  0
   58.4704   29.4919   52.2679 H   0  0  0  0  0  0  0  0  0  0  0  0
   54.4587   28.1713   52.8200 H   0  0  0  0  0  0  0  0  0  0  0  0
   50.6848   30.3105   52.8801 H   0  0  0  0  0  0  0  0  0  0  0  0
   50.9467   31.2102   54.4245 H   0  0  0  0  0  0  0  0  0  0  0  0
   49.3912   32.2824   52.6283 H   0  0  0  0  0  0  0  0  0  0  0  0
   50.6523   33.3130   53.3937 H   0  0  0  0  0  0  0  0  0  0  0  0
   51.6990   32.0000   51.3160 H   0  0  0  0  0  0  0  0  0  0  0  0
   55.1995   32.1893   51.3929 H   0  0  0  0  0  0  0  0  0  0  0  0
   57.7250   31.8473   49.3384 H   0  0  0  0  0  0  0  0  0  0  0  0
   62.9548   29.0403   50.0518 H   0  0  0  0  0  0  0  0  0  0  0  0
   57.3145   29.8198   46.7557 H   0  0  0  0  0  0  0  0  0  0  0  0
   58.3514   31.1378   47.4347 H   0  0  0  0  0  0  0  0  0  0  0  0
  1  2  1  0
  2  3  1  0
  3  4  2  0
  3  5  1  0
  5  6  1  0
  6  7  1  0
  7  8  1  0
  8  9  1  0
  9 10  1  0
 10 11  2  3
 11 12  1  0
 12 13  2  0
 12 14  1  0
 14 15  2  0
 15 16  1  0
 16 17  2  0
 17 18  1  0
 18 19  1  0
 19 20  1  0
 20 21  1  0
 21 22  2  0
 21 23  1  0
 23 24  2  0
 24 25  1  0
 25 26  2  0
 26 27  1  0
 27 28  2  0
 28 29  1  0
 29 30  2  0
 30 31  1  0
 31 32  2  0
 32 33  1  0
 33 34  1  0
 34 35  2  0
 35 36  1  0
 36 37  2  0
 37 38  1  0
 38 39  1  0
 39 40  2  0
 39 41  1  0
 41 42  1  0
 42 43  1  0
 43 44  1  0
 38 45  2  0
 33 46  2  0
 18 47  2  0
 10 48  1  0
 48 49  1  0
 49 50  1  0
 50  5  1  0
 49  8  2  0
 47 14  1  0
 28 23  1  0
 46 29  1  0
 45 34  1  0
  1 51  1  0
  1 52  1  0
  1 53  1  0
  5 54  1  1
  6 55  1  0
  6 56  1  0
  7 57  1  0
  7 58  1  0
 15 59  1  0
 16 60  1  0
 17 61  1  0
 19 62  1  0
 19 63  1  0
 20 64  1  0
 24 65  1  0
 25 66  1  0
 26 67  1  0
 27 68  1  0
 30 69  1  0
 31 70  1  0
 32 71  1  0
 35 72  1  0
 37 73  1  0
 42 74  1  0
 42 75  1  0
 43 76  1  0
 43 77  1  0
 44 78  1  0
 45 79  1  0
 46 80  1  0
 47 81  1  0
 50 82  1  0
 50 83  1  0
M  CHG  2   9  -1  41  -1
M  END
>  <UniqueID>  (49) 
49

>  <SMILES>  (49) 
COC(=O)[C@@H]1CCc2[n-]c(=NC(=O)c3cccc(CNC(=O)c4ccccc4-c4cccc(-c5cncc(C(=O)[N-]CCO)c5)c4)c3)sc2C1

>  <Energy>  (49) 
135.00680340583455

>  <Genealogy>  (49) 
COC(=O)C1CCc2[n-]c(=NC(=O)c3cccc(CNC(=O)c4ccccc4-c4cccc(-c5cncc(C(=O)[N-]CCO)c5)c4)c3)sc2C1 (protonated)
COC(=O)[C@@H]1CCc2[n-]c(=NC(=O)c3cccc(CNC(=O)c4ccccc4-c4cccc(-c5cncc(C(=O)[N-]CCO)c5)c4)c3)sc2C1 (chirality)
COC(=O)[C@@H]1CCc2[n-]c(=NC(=O)c3cccc(CNC(=O)c4ccccc4-c4cccc(-c5cncc(C(=O)[N-]CCO)c5)c4)c3)sc2C1 (3D coordinates assigned)
COC(=O)[C@@H]1CCc2[n-]c(=NC(=O)c3cccc(CNC(=O)c4ccccc4-c4cccc(-c5cncc(C(=O)[N-]CCO)c5)c4)c3)sc2C1 (nonaromatic ring conformer: 135.00680340583455 kcal/mol)

>  <smiles>  (49) 
COC(=O)C1CCc2[nH]c(=NC(=O)c3cccc(CNC(=O)c4ccccc4-c4cccc(-c5cncc(C(=O)NCCO)c5)c4)c3)sc2C1

>  <score_type>  (49) 
oracle

>  <origin>  (49) 
adg

>  <m_score__min__energy>  (49) 
-14.33

>  <m_primary>  (49) 
energy

$$$$
49:0
     RDKit          3D

 49 52  0  0  0  0  0  0  0  0999 V2000
   59.4970   29.8680   45.1130 C   0  0  0  0  0  0  0  0  0  0  0  0
   59.2930   29.4310   46.3650 C   0  0  0  0  0  0  0  0  0  0  0  0
   58.5630   28.3000   46.7460 C   0  0  0  0  0  0  0  0  0  0  0  0
   57.9770   27.3990   45.9340 C   0  0  0  0  0  0  0  0  0  0  0  0
   57.3590   26.1420   46.3990 C   0  0  0  0  0  0  0  0  0  0  0  0
   58.0080   25.1090   46.9670 N   0  0  0  0  0  0  0  0  0  0  0  0
   57.0330   24.2490   47.3220 C   0  0  0  0  0  0  0  0  0  0  0  0
   57.2600   23.1520   47.8940 O   0  0  0  0  0  0  0  0  0  0  0  0
   55.7870   24.6770   47.0260 N   0  0  0  0  0  0  0  0  0  0  0  0
   56.0100   25.8770   46.4560 C   0  0  0  0  0  0  0  0  0  0  0  0
   55.0000   26.7140   46.0000 O   0  0  0  0  0  0  0  0  0  0  0  0
   58.6070   28.2590   48.1350 C   0  0  0  0  0  0  0  0  0  0  0  0
   59.3460   29.3520   48.5410 C   0  0  0  0  0  0  0  0  0  0  0  0
   59.6640   29.6950   49.9640 C   0  0  0  0  0  0  0  0  0  0  0  0
   59.7650   30.0590   47.4700 N   0  0  0  0  0  0  0  0  0  0  0  0
   60.5430   31.2690   47.5180 C   0  0  0  0  0  0  0  0  0  0  0  0
   61.8980   31.2110   47.1610 C   0  0  0  0  0  0  0  0  0  0  0  0
   62.7020   32.3480   47.2410 C   0  0  0  0  0  0  0  0  0  0  0  0
   62.1620   33.5540   47.6830 C   0  0  0  0  0  0  0  0  0  0  0  0
   60.8120   33.6300   48.0380 C   0  0  0  0  0  0  0  0  0  0  0  0
   59.9810   32.4970   47.9530 C   0  0  0  0  0  0  0  0  0  0  0  0
   58.5440   32.6270   48.3060 C   0  0  0  0  0  0  0  0  0  0  0  0
   58.1500   32.3340   49.4680 O   0  0  0  0  0  0  0  0  0  0  0  0
   57.6070   33.0650   47.3060 N   0  0  0  0  0  0  0  0  0  0  0  0
   57.6690   32.8490   46.0240 C   0  0  0  0  0  0  0  0  0  0  0  0
   58.4260   33.7110   45.2210 C   0  0  0  0  0  0  0  0  0  0  0  0
   58.4950   33.4900   43.8460 C   0  0  0  0  0  0  0  0  0  0  0  0
   57.7980   32.4190   43.2710 C   0  0  0  0  0  0  0  0  0  0  0  0
   57.8960   32.1440   41.8000 C   0  0  0  0  0  0  0  0  0  0  0  0
   57.0640   31.5670   44.1080 C   0  0  0  0  0  0  0  0  0  0  0  0
   57.0140   31.8030   45.4470 N   0  0  0  0  0  0  0  0  0  0  0  0
   60.0924   30.7762   44.9376 H   0  0  0  0  0  0  0  0  0  0  0  0
   59.0689   29.3181   44.2619 H   0  0  0  0  0  0  0  0  0  0  0  0
   57.9579   27.6139   44.8554 H   0  0  0  0  0  0  0  0  0  0  0  0
   59.0300   25.0130   47.1570 H   0  0  0  0  0  0  0  0  0  0  0  0
   58.1429   27.5023   48.7846 H   0  0  0  0  0  0  0  0  0  0  0  0
   59.0720   29.0565   50.6362 H   0  0  0  0  0  0  0  0  0  0  0  0
   60.7354   29.5296   50.1504 H   0  0  0  0  0  0  0  0  0  0  0  0
   59.4181   30.7508   50.1504 H   0  0  0  0  0  0  0  0  0  0  0  0
   62.3305   30.2606   46.8149 H   0  0  0  0  0  0  0  0  0  0  0  0
   63.7627   32.2925   46.9550 H   0  0  0  0  0  0  0  0  0  0  0  0
   62.7991   34.4480   47.7527 H   0  0  0  0  0  0  0  0  0  0  0  0
   60.3945   34.5858   48.3876 H   0  0  0  0  0  0  0  0  0  0  0  0
   58.9634   34.5580   45.6725 H   0  0  0  0  0  0  0  0  0  0  0  0
   59.0973   34.1572   43.2119 H   0  0  0  0  0  0  0  0  0  0  0  0
   58.2614   31.1185   41.6422 H   0  0  0  0  0  0  0  0  0  0  0  0
   56.9032   32.2544   41.3394 H   0  0  0  0  0  0  0  0  0  0  0  0
   58.5953   32.8574   41.3394 H   0  0  0  0  0  0  0  0  0  0  0  0
   56.5277   30.7064   43.6816 H   0  0  0  0  0  0  0  0  0  0  0  0
  1  2  2  0
  2  3  1  0
  3  4  2  3
  4  5  1  0
  5  6  1  0
  6  7  1  0
  7  8  2  0
  7  9  1  0
  9 10  1  0
 10 11  1  0
  3 12  1  0
 12 13  2  0
 13 14  1  0
 13 15  1  0
 15 16  1  0
 16 17  2  0
 17 18  1  0
 18 19  2  0
 19 20  1  0
 20 21  2  0
 21 22  1  0
 22 23  2  0
 22 24  1  0
 24 25  2  3
 25 26  1  0
 26 27  2  0
 27 28  1  0
 28 29  1  0
 28 30  2  0
 30 31  1  0
 15  2  1  0
 21 16  1  0
 31 25  1  0
 10  5  2  0
  1 32  1  0
  1 33  1  0
  4 34  1  0
  6 35  1  0
 12 36  1  0
 14 37  1  0
 14 38  1  0
 14 39  1  0
 17 40  1  0
 18 41  1  0
 19 42  1  0
 20 43  1  0
 26 44  1  0
 27 45  1  0
 29 46  1  0
 29 47  1  0
 29 48  1  0
 30 49  1  0
M  CHG  3   9  -1  11  -1  31  -1
M  END
>  <UniqueID>  (50) 
50

>  <SMILES>  (50) 
C=c1c(=Cc2[nH]c(=O)[n-]c2[O-])cc(C)n1-c1ccccc1C(=O)N=c1ccc(C)c[n-]1

>  <Energy>  (50) 
129.82925367928092

>  <Genealogy>  (50) 
C=c1c(=Cc2[nH]c(=O)[n-]c2[O-])cc(C)n1-c1ccccc1C(=O)N=c1ccc(C)c[n-]1 (protonated)
C=c1c(=Cc2[nH]c(=O)[n-]c2[O-])cc(C)n1-c1ccccc1C(=O)N=c1ccc(C)c[n-]1 (3D coordinates assigned)
C=c1c(=Cc2[nH]c(=O)[n-]c2[O-])cc(C)n1-c1ccccc1C(=O)N=c1ccc(C)c[n-]1 (optimized conformer: 129.82925367928092 kcal/mol)

>  <smiles>  (50) 
C=c1c(=Cc2[nH]c(=O)[nH]c2O)cc(C)n1-c1ccccc1C(=O)N=c1ccc(C)c[nH]1

>  <score_type>  (50) 
oracle

>  <origin>  (50) 
adg

>  <m_score__min__energy>  (50) 
-16.41

>  <m_primary>  (50) 
energy

$$$$
50:0
     RDKit          3D

 63 67  0  0  0  0  0  0  0  0999 V2000
   54.0400   28.6770   53.7200 C   0  0  0  0  0  0  0  0  0  0  0  0
   54.8350   29.5400   53.0620 C   0  0  0  0  0  0  0  0  0  0  0  0
   54.4150   30.7290   52.4470 C   0  0  0  0  0  0  0  0  0  0  0  0
   53.1560   31.2120   52.3800 C   0  0  0  0  0  0  0  0  0  0  0  0
   52.3030   31.2230   51.1670 C   0  0  0  0  0  0  0  0  0  0  0  0
   52.3300   30.3160   50.1740 N   0  0  0  0  0  0  0  0  0  0  0  0
   51.3880   30.7580   49.3150 C   0  0  0  0  0  0  0  0  0  0  0  0
   51.1120   30.1560   48.2450 O   0  0  0  0  0  0  0  0  0  0  0  0
   50.7610   31.8920   49.6970 N   0  0  0  0  0  0  0  0  0  0  0  0
   51.3580   32.1770   50.8640 C   0  0  0  0  0  0  0  0  0  0  0  0
   51.0380   33.2820   51.6420 O   0  0  0  0  0  0  0  0  0  0  0  0
   55.5470   31.2860   51.8730 C   0  0  0  0  0  0  0  0  0  0  0  0
   56.6050   30.4460   52.1590 C   0  0  0  0  0  0  0  0  0  0  0  0
   57.9940   30.6400   51.6840 C   0  0  0  0  0  0  0  0  0  0  0  0
   58.9530   30.4520   52.4770 O   0  0  0  0  0  0  0  0  0  0  0  0
   58.2820   30.9370   50.3100 N   0  0  0  0  0  0  0  0  0  0  0  0
   58.8640   29.8810   49.4760 C   0  0  0  0  0  0  0  0  0  0  0  0
   59.9020   30.4760   48.5250 C   0  0  0  0  0  0  0  0  0  0  0  0
   59.2890   31.6240   47.6840 C   0  0  0  0  0  0  0  0  0  0  0  0
   58.1650   31.1860   46.7970 N   0  0  0  0  0  0  0  0  0  0  0  0
   57.8260   32.2550   45.8170 C   0  0  0  0  0  0  0  0  0  0  0  0
   57.1580   31.7120   44.5410 C   0  0  0  0  0  0  0  0  0  0  0  0
   56.4000   30.5680   44.8530 O   0  0  0  0  0  0  0  0  0  0  0  0
   57.2690   29.4960   45.1880 C   0  0  0  0  0  0  0  0  0  0  0  0
   58.4480   29.9100   46.1000 C   0  0  0  0  0  0  0  0  0  0  0  0
   58.8290   32.7120   48.6840 C   0  0  0  0  0  0  0  0  0  0  0  0
   57.7920   32.1650   49.6760 C   0  0  0  0  0  0  0  0  0  0  0  0
   56.1770   29.3770   52.8820 N   0  0  0  0  0  0  0  0  0  0  0  0
   57.0210   28.2370   53.2900 C   0  0  0  0  0  0  0  0  0  0  0  0
   58.1660   28.6840   54.1670 C   0  0  0  0  0  0  0  0  0  0  0  0
   57.9130   29.4720   55.3040 C   0  0  0  0  0  0  0  0  0  0  0  0
   58.9680   29.9010   56.1130 C   0  0  0  0  0  0  0  0  0  0  0  0
   60.2820   29.5400   55.8020 C   0  0  0  0  0  0  0  0  0  0  0  0
   60.5400   28.7340   54.6890 C   0  0  0  0  0  0  0  0  0  0  0  0
   59.4860   28.2930   53.8840 C   0  0  0  0  0  0  0  0  0  0  0  0
   54.4674   27.7685   54.1694 H   0  0  0  0  0  0  0  0  0  0  0  0
   52.9625   28.8798   53.8086 H   0  0  0  0  0  0  0  0  0  0  0  0
   52.7274   31.6323   53.3018 H   0  0  0  0  0  0  0  0  0  0  0  0
   55.5938   32.2221   51.2973 H   0  0  0  0  0  0  0  0  0  0  0  0
   59.3480   29.1329   50.1211 H   0  0  0  0  0  0  0  0  0  0  0  0
   58.0657   29.4062   48.8867 H   0  0  0  0  0  0  0  0  0  0  0  0
   60.7443   30.8703   49.1125 H   0  0  0  0  0  0  0  0  0  0  0  0
   60.2461   29.6855   47.8419 H   0  0  0  0  0  0  0  0  0  0  0  0
   60.0494   32.0092   46.9887 H   0  0  0  0  0  0  0  0  0  0  0  0
   57.1376   32.9656   46.2977 H   0  0  0  0  0  0  0  0  0  0  0  0
   58.7684   32.7358   45.5157 H   0  0  0  0  0  0  0  0  0  0  0  0
   56.4983   32.4834   44.1169 H   0  0  0  0  0  0  0  0  0  0  0  0
   57.9341   31.4463   43.8081 H   0  0  0  0  0  0  0  0  0  0  0  0
   56.6829   28.7239   45.7079 H   0  0  0  0  0  0  0  0  0  0  0  0
   57.7050   29.1307   44.2465 H   0  0  0  0  0  0  0  0  0  0  0  0
   58.6160   29.1219   46.8488 H   0  0  0  0  0  0  0  0  0  0  0  0
   59.3414   30.0468   45.4730 H   0  0  0  0  0  0  0  0  0  0  0  0
   59.7033   33.0742   49.2448 H   0  0  0  0  0  0  0  0  0  0  0  0
   58.3626   33.5288   48.1137 H   0  0  0  0  0  0  0  0  0  0  0  0
   57.6002   32.9207   50.4519 H   0  0  0  0  0  0  0  0  0  0  0  0
   56.8649   31.9366   49.1299 H   0  0  0  0  0  0  0  0  0  0  0  0
   56.4040   27.5164   53.8469 H   0  0  0  0  0  0  0  0  0  0  0  0
   57.4396   27.7749   52.3838 H   0  0  0  0  0  0  0  0  0  0  0  0
   56.8798   29.7518   55.5575 H   0  0  0  0  0  0  0  0  0  0  0  0
   58.7642   30.5240   56.9964 H   0  0  0  0  0  0  0  0  0  0  0  0
   61.1127   29.8898   56.4325 H   0  0  0  0  0  0  0  0  0  0  0  0
   61.5738   28.4466   54.4466 H   0  0  0  0  0  0  0  0  0  0  0  0
   59.6905   27.6369   53.0251 H   0  0  0  0  0  0  0  0  0  0  0  0
  1  2  2  0
  2  3  1  0
  3  4  2  3
  4  5  1  0
  5  6  1  0
  6  7  1  0
  7  8  2  0
  7  9  1  0
  9 10  1  0
 10 11  1  0
  3 12  1  0
 12 13  2  0
 13 14  1  0
 14 15  2  0
 14 16  1  0
 16 17  1  0
 17 18  1  0
 18 19  1  0
 19 20  1  0
 20 21  1  0
 21 22  1  0
 22 23  1  0
 23 24  1  0
 24 25  1  0
 19 26  1  0
 26 27  1  0
 13 28  1  0
 28 29  1  0
 29 30  1  0
 30 31  2  0
 31 32  1  0
 32 33  2  0
 33 34  1  0
 34 35  2  0
 28  2  1  0
 35 30  1  0
 10  5  2  0
 27 16  1  0
 25 20  1  0
  1 36  1  0
  1 37  1  0
  4 38  1  0
 12 39  1  0
 17 40  1  0
 17 41  1  0
 18 42  1  0
 18 43  1  0
 19 44  1  0
 21 45  1  0
 21 46  1  0
 22 47  1  0
 22 48  1  0
 24 49  1  0
 24 50  1  0
 25 51  1  0
 25 52  1  0
 26 53  1  0
 26 54  1  0
 27 55  1  0
 27 56  1  0
 29 57  1  0
 29 58  1  0
 31 59  1  0
 32 60  1  0
 33 61  1  0
 34 62  1  0
 35 63  1  0
M  CHG  3   6  -1   9  -1  11  -1
M  END
>  <UniqueID>  (51) 
51

>  <SMILES>  (51) 
C=c1c(=Cc2[n-]c(=O)[n-]c2[O-])cc(C(=O)N2CCC(N3CCOCC3)CC2)n1Cc1ccccc1

>  <Energy>  (51) 
152.04711792018261

>  <Genealogy>  (51) 
C=c1c(=Cc2[n-]c(=O)[n-]c2[O-])cc(C(=O)N2CCC(N3CCOCC3)CC2)n1Cc1ccccc1 (protonated)
C=c1c(=Cc2[n-]c(=O)[n-]c2[O-])cc(C(=O)N2CCC(N3CCOCC3)CC2)n1Cc1ccccc1 (3D coordinates assigned)
C=c1c(=Cc2[n-]c(=O)[n-]c2[O-])cc(C(=O)N2CCC(N3CCOCC3)CC2)n1Cc1ccccc1 (nonaromatic ring conformer: 152.04711792018261 kcal/mol)

>  <smiles>  (51) 
C=c1c(=Cc2[nH]c(=O)[nH]c2O)cc(C(=O)N2CCC(N3CCOCC3)CC2)n1Cc1ccccc1

>  <score_type>  (51) 
oracle

>  <origin>  (51) 
adg

>  <m_score__min__energy>  (51) 
-17.620000000000001

>  <m_primary>  (51) 
energy

$$$$
51:0
     RDKit          3D

 28 29  0  0  0  0  0  0  0  0999 V2000
   58.9234   33.3648   43.1643 H   0  0  0  0  0  0  0  0  0  0  0  0
   58.1180   32.8830   43.7380 C   0  0  0  0  0  0  0  0  0  0  0  0
   57.6390   33.5790   44.9530 C   0  0  0  0  0  0  0  0  0  0  0  0
   56.5770   34.2500   44.8710 O   0  0  0  0  0  0  0  0  0  0  0  0
   58.3820   33.5550   46.2380 C   0  0  0  0  0  0  0  0  0  0  0  0
   58.1660   32.5320   47.1810 C   0  0  0  0  0  0  0  0  0  0  0  0
   57.4545   31.7233   46.9579 H   0  0  0  0  0  0  0  0  0  0  0  0
   58.8510   32.5390   48.3990 C   0  0  0  0  0  0  0  0  0  0  0  0
   58.6686   31.7425   49.1354 H   0  0  0  0  0  0  0  0  0  0  0  0
   59.7670   33.5550   48.6840 C   0  0  0  0  0  0  0  0  0  0  0  0
   60.6210   33.5650   50.2160 Cl  0  0  0  0  0  0  0  0  0  0  0  0
   60.0040   34.5640   47.7440 C   0  0  0  0  0  0  0  0  0  0  0  0
   60.7300   35.3603   47.9648 H   0  0  0  0  0  0  0  0  0  0  0  0
   59.3200   34.5620   46.5250 C   0  0  0  0  0  0  0  0  0  0  0  0
   59.5168   35.3528   45.7861 H   0  0  0  0  0  0  0  0  0  0  0  0
   57.6500   31.7120   43.2790 C   0  0  0  0  0  0  0  0  0  0  0  0
   57.3917   31.6533   42.2114 H   0  0  0  0  0  0  0  0  0  0  0  0
   57.4540   30.4940   44.0950 C   0  0  0  0  0  0  0  0  0  0  0  0
   58.5310   29.9680   44.8190 C   0  0  0  0  0  0  0  0  0  0  0  0
   59.5146   30.4585   44.7748 H   0  0  0  0  0  0  0  0  0  0  0  0
   58.3580   28.8230   45.5960 C   0  0  0  0  0  0  0  0  0  0  0  0
   59.1972   28.4160   46.1792 H   0  0  0  0  0  0  0  0  0  0  0  0
   57.1080   28.1970   45.6270 C   0  0  0  0  0  0  0  0  0  0  0  0
   56.9400   27.1650   46.3300 O   0  0  0  0  0  0  0  0  0  0  0  0
   56.0760   28.7000   44.8940 N   0  0  0  0  0  0  0  0  0  0  0  0
   55.1470   28.2210   44.9140 H   0  0  0  0  0  0  0  0  0  0  0  0
   56.2240   29.8160   44.1290 C   0  0  0  0  0  0  0  0  0  0  0  0
   55.3767   30.1887   43.5347 H   0  0  0  0  0  0  0  0  0  0  0  0
  1  2  1  0
  2  3  1  0
  3  4  2  0
  3  5  1  0
  5  6  2  0
  6  7  1  0
  6  8  1  0
  8  9  1  0
  8 10  2  0
 10 11  1  0
 10 12  1  0
 12 13  1  0
 12 14  2  0
 14 15  1  0
  2 16  2  0
 16 17  1  0
 16 18  1  0
 18 19  1  0
 19 20  1  0
 19 21  2  0
 21 22  1  0
 21 23  1  0
 23 24  2  0
 23 25  1  0
 25 26  1  0
 25 27  1  0
 27 28  1  0
 14  5  1  0
 27 18  2  0
M  END
>  <UniqueID>  (52) 
52

>  <SMILES>  (52) 
O=C(/C=C\c1ccc(=O)[nH]c1)c1ccc(Cl)cc1

>  <Energy>  (52) 
39.2167581420353

>  <Genealogy>  (52) 
O=C(/C=C\c1ccc(=O)[nH]c1)c1ccc(Cl)cc1 (cis-trans isomerization)
O=C(/C=C\c1ccc(=O)[nH]c1)c1ccc(Cl)cc1 (3D coordinates assigned)
O=C(/C=C\c1ccc(=O)[nH]c1)c1ccc(Cl)cc1 (optimized conformer: 39.2167581420353 kcal/mol)

>  <smiles>  (52) 
O=C(C=Cc1ccc(=O)[nH]c1)c1ccc(Cl)cc1

>  <score_type>  (52) 
oracle

>  <origin>  (52) 
adg

>  <m_score__min__energy>  (52) 
-7.5599999999999996

>  <m_primary>  (52) 
energy

$$$$
52:0
     RDKit          3D

 59 62  0  0  0  0  0  0  0  0999 V2000
   55.1430   29.1530   44.8810 O   0  0  0  0  0  0  0  0  0  0  0  0
   56.3430   29.4990   44.7290 C   0  0  0  0  0  0  0  0  0  0  0  0
   56.7310   30.7860   45.0760 O   0  0  0  0  0  0  0  0  0  0  0  0
   57.3650   28.5220   44.2250 C   0  0  0  0  0  0  0  0  0  0  0  0
   57.9220   27.6740   45.3450 C   0  0  0  0  0  0  0  0  0  0  0  0
   57.2500   26.6260   45.9740 C   0  0  0  0  0  0  0  0  0  0  0  0
   55.9200   26.0720   45.6340 C   0  0  0  0  0  0  0  0  0  0  0  0
   55.8120   25.0850   44.8600 O   0  0  0  0  0  0  0  0  0  0  0  0
   54.7700   26.6220   46.1830 O   0  0  0  0  0  0  0  0  0  0  0  0
   58.1030   26.1610   46.9640 C   0  0  0  0  0  0  0  0  0  0  0  0
   57.7420   24.8860   48.1830 S   0  0  0  0  0  0  0  0  0  0  0  0
   57.4620   23.6290   46.9300 C   0  0  0  0  0  0  0  0  0  0  0  0
   58.3550   23.4940   45.8560 C   0  0  0  0  0  0  0  0  0  0  0  0
   58.1260   22.5280   44.8710 C   0  0  0  0  0  0  0  0  0  0  0  0
   57.0120   21.6890   44.9580 C   0  0  0  0  0  0  0  0  0  0  0  0
   56.1280   21.8090   46.0350 C   0  0  0  0  0  0  0  0  0  0  0  0
   56.3550   22.7740   47.0220 C   0  0  0  0  0  0  0  0  0  0  0  0
   59.2630   26.9140   46.8890 C   0  0  0  0  0  0  0  0  0  0  0  0
   60.5110   26.6530   47.6960 C   0  0  0  0  0  0  0  0  0  0  0  0
   60.5460   27.5010   48.8100 O   0  0  0  0  0  0  0  0  0  0  0  0
   59.1530   27.8340   45.9000 N   0  0  0  0  0  0  0  0  0  0  0  0
   60.1520   28.8500   45.5320 C   0  0  0  0  0  0  0  0  0  0  0  0
   60.1040   30.0080   46.4940 C   0  0  0  0  0  0  0  0  0  0  0  0
   61.2590   30.7640   46.7500 C   0  0  0  0  0  0  0  0  0  0  0  0
   61.2370   31.7850   47.7030 C   0  0  0  0  0  0  0  0  0  0  0  0
   60.0670   32.0610   48.4190 C   0  0  0  0  0  0  0  0  0  0  0  0
   60.1180   33.0350   49.4300 O   0  0  0  0  0  0  0  0  0  0  0  0
   60.2480   32.7540   50.8240 C   0  0  0  0  0  0  0  0  0  0  0  0
   59.0030   32.0870   51.3500 C   0  0  0  0  0  0  0  0  0  0  0  0
   58.8760   30.6900   51.2960 C   0  0  0  0  0  0  0  0  0  0  0  0
   57.7070   30.0680   51.7440 C   0  0  0  0  0  0  0  0  0  0  0  0
   56.6590   30.8370   52.2630 C   0  0  0  0  0  0  0  0  0  0  0  0
   55.0620   29.9880   52.8730 Br  0  0  0  0  0  0  0  0  0  0  0  0
   56.7830   32.2280   52.3330 C   0  0  0  0  0  0  0  0  0  0  0  0
   57.9510   32.8520   51.8810 C   0  0  0  0  0  0  0  0  0  0  0  0
   58.8940   31.3440   48.1220 C   0  0  0  0  0  0  0  0  0  0  0  0
   58.9140   30.3270   47.1650 C   0  0  0  0  0  0  0  0  0  0  0  0
   56.8935   27.8645   43.4797 H   0  0  0  0  0  0  0  0  0  0  0  0
   58.1940   29.0904   43.7781 H   0  0  0  0  0  0  0  0  0  0  0  0
   59.2363   24.1488   45.7888 H   0  0  0  0  0  0  0  0  0  0  0  0
   58.8238   22.4285   44.0265 H   0  0  0  0  0  0  0  0  0  0  0  0
   56.8303   20.9338   44.1791 H   0  0  0  0  0  0  0  0  0  0  0  0
   55.2542   21.1446   46.1060 H   0  0  0  0  0  0  0  0  0  0  0  0
   55.6630   22.8621   47.8725 H   0  0  0  0  0  0  0  0  0  0  0  0
   60.5139   25.6064   48.0344 H   0  0  0  0  0  0  0  0  0  0  0  0
   61.3939   26.8441   47.0683 H   0  0  0  0  0  0  0  0  0  0  0  0
   59.8710   28.2110   48.6560 H   0  0  0  0  0  0  0  0  0  0  0  0
   61.1547   28.3984   45.5585 H   0  0  0  0  0  0  0  0  0  0  0  0
   59.9293   29.2183   44.5197 H   0  0  0  0  0  0  0  0  0  0  0  0
   62.1860   30.5512   46.1973 H   0  0  0  0  0  0  0  0  0  0  0  0
   62.1454   32.3759   47.8918 H   0  0  0  0  0  0  0  0  0  0  0  0
   61.1086   32.0867   50.9794 H   0  0  0  0  0  0  0  0  0  0  0  0
   60.3977   33.7007   51.3637 H   0  0  0  0  0  0  0  0  0  0  0  0
   59.7014   30.0810   50.8987 H   0  0  0  0  0  0  0  0  0  0  0  0
   57.6107   28.9736   51.6886 H   0  0  0  0  0  0  0  0  0  0  0  0
   55.9611   32.8326   52.7440 H   0  0  0  0  0  0  0  0  0  0  0  0
   58.0460   33.9462   51.9417 H   0  0  0  0  0  0  0  0  0  0  0  0
   57.9571   31.5852   48.6456 H   0  0  0  0  0  0  0  0  0  0  0  0
   57.9916   29.7731   46.9361 H   0  0  0  0  0  0  0  0  0  0  0  0
  1  2  2  0
  2  3  1  0
  2  4  1  0
  4  5  1  0
  5  6  2  0
  6  7  1  0
  7  8  2  0
  7  9  1  0
  6 10  1  0
 10 11  1  0
 11 12  1  0
 12 13  2  0
 13 14  1  0
 14 15  2  0
 15 16  1  0
 16 17  2  0
 10 18  2  0
 18 19  1  0
 19 20  1  0
 18 21  1  0
 21 22  1  0
 22 23  1  0
 23 24  2  0
 24 25  1  0
 25 26  2  0
 26 27  1  0
 27 28  1  0
 28 29  1  0
 29 30  2  0
 30 31  1  0
 31 32  2  0
 32 33  1  0
 32 34  1  0
 34 35  2  0
 26 36  1  0
 36 37  2  0
 21  5  1  0
 37 23  1  0
 17 12  1  0
 35 29  1  0
  4 38  1  0
  4 39  1  0
 13 40  1  0
 14 41  1  0
 15 42  1  0
 16 43  1  0
 17 44  1  0
 19 45  1  0
 19 46  1  0
 20 47  1  0
 22 48  1  0
 22 49  1  0
 24 50  1  0
 25 51  1  0
 28 52  1  0
 28 53  1  0
 30 54  1  0
 31 55  1  0
 34 56  1  0
 35 57  1  0
 36 58  1  0
 37 59  1  0
M  CHG  2   3  -1   9  -1
M  END
>  <UniqueID>  (53) 
53

>  <SMILES>  (53) 
O=C([O-])Cc1c(C(=O)[O-])c(Sc2ccccc2)c(CO)n1Cc1ccc(OCc2ccc(Br)cc2)cc1

>  <Energy>  (53) 
83.55392135034174

>  <Genealogy>  (53) 
O=C([O-])Cc1c(C(=O)[O-])c(Sc2ccccc2)c(CO)n1Cc1ccc(OCc2ccc(Br)cc2)cc1 (protonated)
O=C([O-])Cc1c(C(=O)[O-])c(Sc2ccccc2)c(CO)n1Cc1ccc(OCc2ccc(Br)cc2)cc1 (3D coordinates assigned)
O=C([O-])Cc1c(C(=O)[O-])c(Sc2ccccc2)c(CO)n1Cc1ccc(OCc2ccc(Br)cc2)cc1 (optimized conformer: 83.55392135034174 kcal/mol)

>  <smiles>  (53) 
O=C(O)Cc1c(C(=O)O)c(Sc2ccccc2)c(CO)n1Cc1ccc(OCc2ccc(Br)cc2)cc1

>  <score_type>  (53) 
oracle

>  <origin>  (53) 
adg

>  <m_score__min__energy>  (53) 
-13.41

>  <m_primary>  (53) 
energy

$$$$
53:0
     RDKit          3D

 33 35  0  0  0  0  0  0  0  0999 V2000
   58.4732   22.9709   46.2526 H   0  0  0  0  0  0  0  0  0  0  0  0
   57.6260   23.6680   46.1740 C   0  0  0  0  0  0  0  0  0  0  0  0
   56.3270   23.1710   46.0730 C   0  0  0  0  0  0  0  0  0  0  0  0
   56.1592   22.0839   46.0659 H   0  0  0  0  0  0  0  0  0  0  0  0
   55.2280   24.0460   45.9800 C   0  0  0  0  0  0  0  0  0  0  0  0
   53.8540   23.4880   45.8920 C   0  0  0  0  0  0  0  0  0  0  0  0
   53.1920   23.2560   46.9400 O   0  0  0  0  0  0  0  0  0  0  0  0
   53.2700   23.2080   44.6620 O   0  0  0  0  0  0  0  0  0  0  0  0
   55.4670   25.4390   45.9740 C   0  0  0  0  0  0  0  0  0  0  0  0
   54.4100   26.3410   45.8900 O   0  0  0  0  0  0  0  0  0  0  0  0
   56.7780   25.9380   46.0420 C   0  0  0  0  0  0  0  0  0  0  0  0
   56.9770   27.3600   46.0430 N   0  0  0  0  0  0  0  0  0  0  0  0
   57.0480   28.1910   44.8770 C   0  0  0  0  0  0  0  0  0  0  0  0
   57.6910   27.8140   43.8620 O   0  0  0  0  0  0  0  0  0  0  0  0
   56.4470   29.4910   44.8800 N   0  0  0  0  0  0  0  0  0  0  0  0
   57.0250   30.6610   44.8160 C   0  0  0  0  0  0  0  0  0  0  0  0
   57.5980   31.1400   45.9540 N   0  0  0  0  0  0  0  0  0  0  0  0
   58.2140   32.3490   46.0150 C   0  0  0  0  0  0  0  0  0  0  0  0
   58.7750   32.7930   47.2180 C   0  0  0  0  0  0  0  0  0  0  0  0
   58.7232   32.1595   48.1157 H   0  0  0  0  0  0  0  0  0  0  0  0
   59.4020   34.0430   47.2790 C   0  0  0  0  0  0  0  0  0  0  0  0
   60.1040   34.5980   48.7880 Cl  0  0  0  0  0  0  0  0  0  0  0  0
   59.4710   34.8500   46.1370 C   0  0  0  0  0  0  0  0  0  0  0  0
   59.9639   35.8321   46.1884 H   0  0  0  0  0  0  0  0  0  0  0  0
   58.9150   34.4110   44.9310 C   0  0  0  0  0  0  0  0  0  0  0  0
   58.9725   35.0467   44.0351 H   0  0  0  0  0  0  0  0  0  0  0  0
   58.2840   33.1600   44.8640 C   0  0  0  0  0  0  0  0  0  0  0  0
   57.7320   32.6870   43.6720 C   0  0  0  0  0  0  0  0  0  0  0  0
   57.7795   33.3052   42.7634 H   0  0  0  0  0  0  0  0  0  0  0  0
   57.1190   31.4310   43.6280 C   0  0  0  0  0  0  0  0  0  0  0  0
   56.6740   30.9600   42.3980 O   0  0  0  0  0  0  0  0  0  0  0  0
   57.8580   25.0440   46.1760 C   0  0  0  0  0  0  0  0  0  0  0  0
   59.1560   25.5090   46.3460 O   0  0  0  0  0  0  0  0  0  0  0  0
  1  2  1  0
  2  3  2  0
  3  4  1  0
  3  5  1  0
  5  6  1  0
  6  7  2  0
  6  8  1  0
  5  9  2  0
  9 10  1  0
  9 11  1  0
 11 12  1  0
 12 13  1  0
 13 14  2  0
 13 15  1  0
 15 16  2  0
 16 17  1  0
 17 18  1  0
 18 19  2  0
 19 20  1  0
 19 21  1  0
 21 22  1  0
 21 23  2  0
 23 24  1  0
 23 25  1  0
 25 26  1  0
 25 27  2  0
 27 28  1  0
 28 29  1  0
 28 30  2  0
 30 31  1  0
 11 32  2  0
 32 33  1  0
 32  2  1  0
 30 16  1  0
 27 18  1  0
M  CHG  6   8  -1  10  -1  12  -1  17  -1  31  -1  33  -1
M  END
>  <UniqueID>  (54) 
54

>  <SMILES>  (54) 
O=C(/N=c1/[n-]c2cc(Cl)ccc2cc1[O-])[N-]c1c([O-])ccc(C(=O)[O-])c1[O-]

>  <Energy>  (54) 
60.09173242056361

>  <Genealogy>  (54) 
O=C(N=c1[n-]c2cc(Cl)ccc2cc1[O-])[N-]c1c([O-])ccc(C(=O)[O-])c1[O-] (protonated)
O=C(/N=c1/[n-]c2cc(Cl)ccc2cc1[O-])[N-]c1c([O-])ccc(C(=O)[O-])c1[O-] (cis-trans isomerization)
O=C(/N=c1/[n-]c2cc(Cl)ccc2cc1[O-])[N-]c1c([O-])ccc(C(=O)[O-])c1[O-] (3D coordinates assigned)
O=C(/N=c1/[n-]c2cc(Cl)ccc2cc1[O-])[N-]c1c([O-])ccc(C(=O)[O-])c1[O-] (optimized conformer: 60.09173242056361 kcal/mol)

>  <smiles>  (54) 
O=C(N=c1[nH]c2cc(Cl)ccc2cc1O)Nc1c(O)ccc(C(=O)O)c1O

>  <score_type>  (54) 
oracle

>  <origin>  (54) 
adg

>  <m_score__min__energy>  (54) 
-18.77

>  <m_primary>  (54) 
energy

$$$$
54:0
     RDKit          3D

 58 61  0  0  0  0  0  0  0  0999 V2000
   60.2870   29.7100   46.3370 C   0  0  0  0  0  0  0  0  0  0  0  0
   59.6400   29.4370   44.9840 C   0  0  0  0  0  0  0  0  0  0  0  0
   58.3840   28.6320   45.1490 C   0  0  0  0  0  0  0  0  0  0  0  0
   58.3120   27.1950   46.0170 S   0  0  0  0  0  0  0  0  0  0  0  0
   56.6350   27.0790   45.9110 C   0  0  0  0  0  0  0  0  0  0  0  0
   55.8740   26.1650   46.4400 N   0  0  0  0  0  0  0  0  0  0  0  0
   55.4320   24.9080   45.9010 C   0  0  0  0  0  0  0  0  0  0  0  0
   54.2110   24.6150   46.0060 O   0  0  0  0  0  0  0  0  0  0  0  0
   56.3540   23.9300   45.2230 C   0  0  0  0  0  0  0  0  0  0  0  0
   55.9010   23.4370   43.8540 C   0  0  0  0  0  0  0  0  0  0  0  0
   57.0080   24.4690   43.9590 C   0  0  0  0  0  0  0  0  0  0  0  0
   56.1170   28.1310   45.2460 N   0  0  0  0  0  0  0  0  0  0  0  0
   57.0720   29.0060   44.8240 C   0  0  0  0  0  0  0  0  0  0  0  0
   56.6930   30.2540   44.1280 C   0  0  0  0  0  0  0  0  0  0  0  0
   56.6410   30.2860   42.8710 O   0  0  0  0  0  0  0  0  0  0  0  0
   56.3140   31.4220   44.8680 N   0  0  0  0  0  0  0  0  0  0  0  0
   57.2260   32.4490   45.2820 C   0  0  0  0  0  0  0  0  0  0  0  0
   57.3940   33.5810   44.4840 C   0  0  0  0  0  0  0  0  0  0  0  0
   58.2390   34.6150   44.8970 C   0  0  0  0  0  0  0  0  0  0  0  0
   58.9460   34.5190   46.1020 C   0  0  0  0  0  0  0  0  0  0  0  0
   59.7500   35.5970   46.4810 O   0  0  0  0  0  0  0  0  0  0  0  0
   58.8270   33.3520   46.8920 C   0  0  0  0  0  0  0  0  0  0  0  0
   59.5750   33.1910   48.1950 C   0  0  0  0  0  0  0  0  0  0  0  0
   60.9020   33.8410   48.1240 N   0  0  0  0  0  0  0  0  0  0  0  0
   61.8480   32.9950   47.3600 C   0  0  0  0  0  0  0  0  0  0  0  0
   63.3070   33.3890   47.6430 C   0  0  0  0  0  0  0  0  0  0  0  0
   63.6630   33.2500   49.0770 N   0  0  0  0  0  0  0  0  0  0  0  0
   64.4710   32.0460   49.3180 C   0  0  0  0  0  0  0  0  0  0  0  0
   62.4920   33.2690   49.9830 C   0  0  0  0  0  0  0  0  0  0  0  0
   61.4110   34.2270   49.4670 C   0  0  0  0  0  0  0  0  0  0  0  0
   57.9680   32.3250   46.4670 C   0  0  0  0  0  0  0  0  0  0  0  0
   59.5945   29.4178   47.1402 H   0  0  0  0  0  0  0  0  0  0  0  0
   61.2158   29.1271   46.4236 H   0  0  0  0  0  0  0  0  0  0  0  0
   60.5175   30.7821   46.4236 H   0  0  0  0  0  0  0  0  0  0  0  0
   59.3944   30.3945   44.5015 H   0  0  0  0  0  0  0  0  0  0  0  0
   60.3464   28.8667   44.3630 H   0  0  0  0  0  0  0  0  0  0  0  0
   56.7000   23.4395   46.1448 H   0  0  0  0  0  0  0  0  0  0  0  0
   56.1345   22.4107   43.5342 H   0  0  0  0  0  0  0  0  0  0  0  0
   54.9368   23.3819   43.3274 H   0  0  0  0  0  0  0  0  0  0  0  0
   58.0437   24.1906   43.7146 H   0  0  0  0  0  0  0  0  0  0  0  0
   57.1776   25.4715   43.5392 H   0  0  0  0  0  0  0  0  0  0  0  0
   56.8593   33.6601   43.5260 H   0  0  0  0  0  0  0  0  0  0  0  0
   58.3496   35.5120   44.2700 H   0  0  0  0  0  0  0  0  0  0  0  0
   60.0770   35.7360   47.4290 H   0  0  0  0  0  0  0  0  0  0  0  0
   58.9909   33.6518   49.0052 H   0  0  0  0  0  0  0  0  0  0  0  0
   59.7186   32.1177   48.3883 H   0  0  0  0  0  0  0  0  0  0  0  0
   61.6993   31.9434   47.6463 H   0  0  0  0  0  0  0  0  0  0  0  0
   61.6524   33.1388   46.2871 H   0  0  0  0  0  0  0  0  0  0  0  0
   63.9692   32.7408   47.0503 H   0  0  0  0  0  0  0  0  0  0  0  0
   63.4276   34.4474   47.3687 H   0  0  0  0  0  0  0  0  0  0  0  0
   64.5778   31.8869   50.4012 H   0  0  0  0  0  0  0  0  0  0  0  0
   63.9742   31.1746   48.8666 H   0  0  0  0  0  0  0  0  0  0  0  0
   65.4657   32.1756   48.8666 H   0  0  0  0  0  0  0  0  0  0  0  0
   62.0717   32.2546   50.0484 H   0  0  0  0  0  0  0  0  0  0  0  0
   62.8219   33.6150   50.9737 H   0  0  0  0  0  0  0  0  0  0  0  0
   60.5705   34.2256   50.1766 H   0  0  0  0  0  0  0  0  0  0  0  0
   61.8639   35.2255   49.3785 H   0  0  0  0  0  0  0  0  0  0  0  0
   57.8755   31.4106   47.0714 H   0  0  0  0  0  0  0  0  0  0  0  0
  1  2  1  0
  2  3  1  0
  3  4  1  0
  4  5  1  0
  5  6  2  3
  6  7  1  0
  7  8  2  0
  7  9  1  0
  9 10  1  0
 10 11  1  0
  5 12  1  0
 12 13  1  0
 13 14  1  0
 14 15  2  0
 14 16  1  0
 16 17  1  0
 17 18  2  0
 18 19  1  0
 19 20  2  0
 20 21  1  0
 20 22  1  0
 22 23  1  0
 23 24  1  0
 24 25  1  0
 25 26  1  0
 26 27  1  0
 27 28  1  0
 27 29  1  0
 29 30  1  0
 22 31  2  0
 13  3  2  0
 31 17  1  0
 11  9  1  0
 30 24  1  0
  1 32  1  0
  1 33  1  0
  1 34  1  0
  2 35  1  0
  2 36  1  0
  9 37  1  0
 10 38  1  0
 10 39  1  0
 11 40  1  0
 11 41  1  0
 18 42  1  0
 19 43  1  0
 21 44  1  0
 23 45  1  0
 23 46  1  0
 25 47  1  0
 25 48  1  0
 26 49  1  0
 26 50  1  0
 28 51  1  0
 28 52  1  0
 28 53  1  0
 29 54  1  0
 29 55  1  0
 30 56  1  0
 30 57  1  0
 31 58  1  0
M  CHG  2  12  -1  16  -1
M  END
>  <UniqueID>  (55) 
55

>  <SMILES>  (55) 
CCc1sc(=NC(=O)C2CC2)[n-]c1C(=O)[N-]c1ccc(O)c(CN2CCN(C)CC2)c1

>  <Energy>  (55) 
369.8292062699314

>  <Genealogy>  (55) 
CCc1sc(=NC(=O)C2CC2)[n-]c1C(=O)[N-]c1ccc(O)c(CN2CCN(C)CC2)c1 (protonated)
CCc1sc(=NC(=O)C2CC2)[n-]c1C(=O)[N-]c1ccc(O)c(CN2CCN(C)CC2)c1 (3D coordinates assigned)
CCc1sc(=NC(=O)C2CC2)[n-]c1C(=O)[N-]c1ccc(O)c(CN2CCN(C)CC2)c1 (nonaromatic ring conformer: 369.8292062699314 kcal/mol)

>  <smiles>  (55) 
CCc1sc(=NC(=O)C2CC2)[nH]c1C(=O)Nc1ccc(O)c(CN2CCN(C)CC2)c1

>  <score_type>  (55) 
oracle

>  <origin>  (55) 
adg

>  <m_score__min__energy>  (55) 
-12.93

>  <m_primary>  (55) 
energy

$$$$
55:0
     RDKit          3D

 48 51  0  0  0  0  0  0  0  0999 V2000
   58.5310   34.5750   45.0050 C   0  0  0  0  0  0  0  0  0  0  0  0
   59.0020   33.9060   46.2630 C   0  0  0  0  0  0  0  0  0  0  0  0
   59.3900   32.5570   46.2530 C   0  0  0  0  0  0  0  0  0  0  0  0
   59.8470   31.9450   47.4240 C   0  0  0  0  0  0  0  0  0  0  0  0
   59.9270   32.6770   48.6160 C   0  0  0  0  0  0  0  0  0  0  0  0
   60.4830   31.9140   50.1010 S   0  0  0  0  0  0  0  0  0  0  0  0
   61.2770   30.6890   49.7350 O   0  0  0  0  0  0  0  0  0  0  0  0
   61.3800   32.8470   50.8640 O   0  0  0  0  0  0  0  0  0  0  0  0
   59.0920   31.5020   51.1090 C   0  0  0  0  0  0  0  0  0  0  0  0
   58.8660   32.2140   52.2910 C   0  0  0  0  0  0  0  0  0  0  0  0
   57.8100   31.9040   53.0870 N   0  0  0  0  0  0  0  0  0  0  0  0
   56.9640   30.8950   52.7570 C   0  0  0  0  0  0  0  0  0  0  0  0
   55.5990   30.4770   53.8350 S   0  0  0  0  0  0  0  0  0  0  0  0
   54.7690   29.3760   52.6330 C   0  0  0  0  0  0  0  0  0  0  0  0
   53.2700   29.5390   52.6300 C   0  0  0  0  0  0  0  0  0  0  0  0
   52.5520   28.5050   52.7130 O   0  0  0  0  0  0  0  0  0  0  0  0
   52.6390   30.8370   52.5630 N   0  0  0  0  0  0  0  0  0  0  0  0
   52.8400   31.6560   51.3580 C   0  0  0  0  0  0  0  0  0  0  0  0
   51.5740   32.3730   50.9840 C   0  0  0  0  0  0  0  0  0  0  0  0
   51.3890   32.7470   49.7950 O   0  0  0  0  0  0  0  0  0  0  0  0
   50.6120   32.6980   51.9900 N   0  0  0  0  0  0  0  0  0  0  0  0
   50.8040   32.2700   53.3400 C   0  0  0  0  0  0  0  0  0  0  0  0
   49.9870   32.7750   54.3580 C   0  0  0  0  0  0  0  0  0  0  0  0
   50.2250   32.4150   55.6860 C   0  0  0  0  0  0  0  0  0  0  0  0
   51.2790   31.5550   56.0020 C   0  0  0  0  0  0  0  0  0  0  0  0
   52.0900   31.0350   54.9870 C   0  0  0  0  0  0  0  0  0  0  0  0
   51.8410   31.3680   53.6430 C   0  0  0  0  0  0  0  0  0  0  0  0
   57.1670   30.1840   51.6180 N   0  0  0  0  0  0  0  0  0  0  0  0
   58.1980   30.4660   50.7840 C   0  0  0  0  0  0  0  0  0  0  0  0
   58.3510   29.7820   49.7400 O   0  0  0  0  0  0  0  0  0  0  0  0
   59.5710   34.0330   48.6210 C   0  0  0  0  0  0  0  0  0  0  0  0
   59.1140   34.6460   47.4500 C   0  0  0  0  0  0  0  0  0  0  0  0
   57.9154   35.4493   45.2631 H   0  0  0  0  0  0  0  0  0  0  0  0
   59.4006   34.9001   44.4149 H   0  0  0  0  0  0  0  0  0  0  0  0
   57.9318   33.8660   44.4149 H   0  0  0  0  0  0  0  0  0  0  0  0
   59.3342   31.9785   45.3191 H   0  0  0  0  0  0  0  0  0  0  0  0
   60.1445   30.8861   47.4095 H   0  0  0  0  0  0  0  0  0  0  0  0
   59.5467   33.0291   52.5776 H   0  0  0  0  0  0  0  0  0  0  0  0
   55.1494   29.6042   51.6264 H   0  0  0  0  0  0  0  0  0  0  0  0
   54.9889   28.3390   52.9268 H   0  0  0  0  0  0  0  0  0  0  0  0
   53.6299   32.3964   51.5526 H   0  0  0  0  0  0  0  0  0  0  0  0
   53.1305   30.9962   50.5272 H   0  0  0  0  0  0  0  0  0  0  0  0
   49.1580   33.4550   54.1121 H   0  0  0  0  0  0  0  0  0  0  0  0
   49.5806   32.8098   56.4853 H   0  0  0  0  0  0  0  0  0  0  0  0
   51.4721   31.2858   57.0509 H   0  0  0  0  0  0  0  0  0  0  0  0
   52.9242   30.3643   55.2406 H   0  0  0  0  0  0  0  0  0  0  0  0
   59.6514   34.6171   49.5496 H   0  0  0  0  0  0  0  0  0  0  0  0
   58.8415   35.7117   47.4595 H   0  0  0  0  0  0  0  0  0  0  0  0
  1  2  1  0
  2  3  2  0
  3  4  1  0
  4  5  2  0
  5  6  1  0
  6  7  2  0
  6  8  2  0
  6  9  1  0
  9 10  2  0
 10 11  1  0
 11 12  1  0
 12 13  1  0
 13 14  1  0
 14 15  1  0
 15 16  2  0
 15 17  1  0
 17 18  1  0
 18 19  1  0
 19 20  2  0
 19 21  1  0
 21 22  1  0
 22 23  2  0
 23 24  1  0
 24 25  2  0
 25 26  1  0
 26 27  2  0
 12 28  2  0
 28 29  1  0
 29 30  2  0
  5 31  1  0
 31 32  2  0
 32  2  1  0
 29  9  1  0
 27 17  1  0
 27 22  1  0
  1 33  1  0
  1 34  1  0
  1 35  1  0
  3 36  1  0
  4 37  1  0
 10 38  1  0
 14 39  1  0
 14 40  1  0
 18 41  1  0
 18 42  1  0
 23 43  1  0
 24 44  1  0
 25 45  1  0
 26 46  1  0
 31 47  1  0
 32 48  1  0
M  CHG  2  11  -1  21  -1
M  END
>  <UniqueID>  (56) 
56

>  <SMILES>  (56) 
Cc1ccc(S(=O)(=O)c2c[n-]c(SCC(=O)N3CC(=O)[N-]c4ccccc43)nc2=O)cc1

>  <Energy>  (56) 
58.51789121909787

>  <Genealogy>  (56) 
Cc1ccc(S(=O)(=O)c2c[n-]c(SCC(=O)N3CC(=O)[N-]c4ccccc43)nc2=O)cc1 (protonated)
Cc1ccc(S(=O)(=O)c2c[n-]c(SCC(=O)N3CC(=O)[N-]c4ccccc43)nc2=O)cc1 (3D coordinates assigned)
Cc1ccc(S(=O)(=O)c2c[n-]c(SCC(=O)N3CC(=O)[N-]c4ccccc43)nc2=O)cc1 (nonaromatic ring conformer: 58.51789121909787 kcal/mol)

>  <smiles>  (56) 
Cc1ccc(S(=O)(=O)c2c[nH]c(SCC(=O)N3CC(=O)Nc4ccccc43)nc2=O)cc1

>  <score_type>  (56) 
oracle

>  <origin>  (56) 
adg

>  <m_score__min__energy>  (56) 
-12.93

>  <m_primary>  (56) 
energy

$$$$
56:0
     RDKit          3D

 62 64  0  0  0  0  0  0  0  0999 V2000
   56.0850   29.7460   42.5940 C   0  0  0  0  0  0  0  0  0  0  0  0
   57.3490   30.4000   42.6190 O   0  0  0  0  0  0  0  0  0  0  0  0
   57.7270   31.3730   43.5590 C   0  0  0  0  0  0  0  0  0  0  0  0
   58.0300   32.6930   43.1790 C   0  0  0  0  0  0  0  0  0  0  0  0
   58.4070   33.6370   44.1360 C   0  0  0  0  0  0  0  0  0  0  0  0
   58.4880   33.2850   45.4930 C   0  0  0  0  0  0  0  0  0  0  0  0
   58.8900   34.2860   46.5080 C   0  0  0  0  0  0  0  0  0  0  0  0
   59.4230   35.3710   46.1480 O   0  0  0  0  0  0  0  0  0  0  0  0
   58.6730   34.0240   47.9020 N   0  0  0  0  0  0  0  0  0  0  0  0
   59.7150   33.6760   48.8690 C   0  0  2  0  0  0  0  0  0  0  0  0
   60.9900   34.5200   48.6360 C   0  0  0  0  0  0  0  0  0  0  0  0
   62.3120   33.8560   49.0990 C   0  0  0  0  0  0  0  0  0  0  0  0
   63.2620   33.4490   48.0350 N   0  0  0  0  0  0  0  0  0  0  0  0
   62.8480   33.7960   46.6690 C   0  0  0  0  0  0  0  0  0  0  0  0
   63.7400   32.0600   48.1390 C   0  0  0  0  0  0  0  0  0  0  0  0
   59.9240   32.1680   48.8920 C   0  0  0  0  0  0  0  0  0  0  0  0
   59.4230   31.4460   49.9920 C   0  0  0  0  0  0  0  0  0  0  0  0
   59.5680   30.0590   50.0650 C   0  0  0  0  0  0  0  0  0  0  0  0
   60.2180   29.3680   49.0390 C   0  0  0  0  0  0  0  0  0  0  0  0
   60.3980   27.6250   49.1320 Cl  0  0  0  0  0  0  0  0  0  0  0  0
   60.7210   30.0670   47.9390 C   0  0  0  0  0  0  0  0  0  0  0  0
   60.5760   31.4560   47.8610 C   0  0  0  0  0  0  0  0  0  0  0  0
   58.1830   31.9660   45.8720 C   0  0  0  0  0  0  0  0  0  0  0  0
   57.8060   31.0120   44.9150 C   0  0  0  0  0  0  0  0  0  0  0  0
   57.4460   29.3550   45.4140 S   0  0  0  0  0  0  0  0  0  0  0  0
   57.7880   29.1670   46.8660 O   0  0  0  0  0  0  0  0  0  0  0  0
   55.9710   29.1220   45.2350 O   0  0  0  0  0  0  0  0  0  0  0  0
   58.3490   28.2330   44.4160 N   0  0  0  0  0  0  0  0  0  0  0  0
   59.8080   28.4030   44.5500 C   0  0  0  0  0  0  0  0  0  0  0  0
   60.3720   27.6650   45.7730 C   0  0  0  0  0  0  0  0  0  0  0  0
   60.0040   26.3020   45.7530 O   0  0  0  0  0  0  0  0  0  0  0  0
   58.5990   26.1940   45.8410 C   0  0  0  0  0  0  0  0  0  0  0  0
   57.9250   26.8340   44.6190 C   0  0  0  0  0  0  0  0  0  0  0  0
   55.7432   29.5692   43.6245 H   0  0  0  0  0  0  0  0  0  0  0  0
   55.3547   30.3794   42.0691 H   0  0  0  0  0  0  0  0  0  0  0  0
   56.1802   28.7840   42.0691 H   0  0  0  0  0  0  0  0  0  0  0  0
   57.9694   32.9837   42.1198 H   0  0  0  0  0  0  0  0  0  0  0  0
   58.6426   34.6653   43.8244 H   0  0  0  0  0  0  0  0  0  0  0  0
   59.3956   33.9408   49.8878 H   0  0  0  0  0  0  0  0  0  0  0  0
   61.0708   34.7249   47.5583 H   0  0  0  0  0  0  0  0  0  0  0  0
   60.8726   35.4272   49.2469 H   0  0  0  0  0  0  0  0  0  0  0  0
   62.8319   34.5702   49.7545 H   0  0  0  0  0  0  0  0  0  0  0  0
   62.0085   32.9191   49.5890 H   0  0  0  0  0  0  0  0  0  0  0  0
   62.0055   34.5021   46.7094 H   0  0  0  0  0  0  0  0  0  0  0  0
   63.6912   34.2612   46.1373 H   0  0  0  0  0  0  0  0  0  0  0  0
   62.5373   32.8845   46.1373 H   0  0  0  0  0  0  0  0  0  0  0  0
   63.8352   31.7834   49.1994 H   0  0  0  0  0  0  0  0  0  0  0  0
   63.0217   31.3873   47.6476 H   0  0  0  0  0  0  0  0  0  0  0  0
   64.7202   31.9718   47.6476 H   0  0  0  0  0  0  0  0  0  0  0  0
   58.9105   31.9816   50.8047 H   0  0  0  0  0  0  0  0  0  0  0  0
   59.1701   29.5098   50.9311 H   0  0  0  0  0  0  0  0  0  0  0  0
   61.2329   29.5232   47.1314 H   0  0  0  0  0  0  0  0  0  0  0  0
   60.9728   31.9981   46.9900 H   0  0  0  0  0  0  0  0  0  0  0  0
   58.2407   31.6784   46.9322 H   0  0  0  0  0  0  0  0  0  0  0  0
   60.2943   28.0103   43.6448 H   0  0  0  0  0  0  0  0  0  0  0  0
   60.0105   29.4761   44.6822 H   0  0  0  0  0  0  0  0  0  0  0  0
   61.4693   27.7419   45.7656 H   0  0  0  0  0  0  0  0  0  0  0  0
   59.9606   28.1268   46.6827 H   0  0  0  0  0  0  0  0  0  0  0  0
   58.3215   25.1307   45.8902 H   0  0  0  0  0  0  0  0  0  0  0  0
   58.2611   26.7204   46.7458 H   0  0  0  0  0  0  0  0  0  0  0  0
   58.1877   26.2510   43.7240 H   0  0  0  0  0  0  0  0  0  0  0  0
   56.8390   26.8328   44.7937 H   0  0  0  0  0  0  0  0  0  0  0  0
  1  2  1  0
  2  3  1  0
  3  4  2  0
  4  5  1  0
  5  6  2  0
  6  7  1  0
  7  8  2  0
  7  9  1  0
  9 10  1  0
 10 11  1  0
 11 12  1  0
 12 13  1  0
 13 14  1  0
 13 15  1  0
 10 16  1  0
 16 17  2  0
 17 18  1  0
 18 19  2  0
 19 20  1  0
 19 21  1  0
 21 22  2  0
  6 23  1  0
 23 24  2  0
 24 25  1  0
 25 26  2  0
 25 27  2  0
 25 28  1  0
 28 29  1  0
 29 30  1  0
 30 31  1  0
 31 32  1  0
 32 33  1  0
 24  3  1  0
 33 28  1  0
 22 16  1  0
  1 34  1  0
  1 35  1  0
  1 36  1  0
  4 37  1  0
  5 38  1  0
 10 39  1  1
 11 40  1  0
 11 41  1  0
 12 42  1  0
 12 43  1  0
 14 44  1  0
 14 45  1  0
 14 46  1  0
 15 47  1  0
 15 48  1  0
 15 49  1  0
 17 50  1  0
 18 51  1  0
 21 52  1  0
 22 53  1  0
 23 54  1  0
 29 55  1  0
 29 56  1  0
 30 57  1  0
 30 58  1  0
 32 59  1  0
 32 60  1  0
 33 61  1  0
 33 62  1  0
M  CHG  1   9  -1
M  END
>  <UniqueID>  (57) 
57

>  <SMILES>  (57) 
COc1ccc(C(=O)[N-][C@H](CCN(C)C)c2ccc(Cl)cc2)cc1S(=O)(=O)N1CCOCC1

>  <Energy>  (57) 
74.59752027709986

>  <Genealogy>  (57) 
COc1ccc(C(=O)[N-]C(CCN(C)C)c2ccc(Cl)cc2)cc1S(=O)(=O)N1CCOCC1 (protonated)
COc1ccc(C(=O)[N-][C@H](CCN(C)C)c2ccc(Cl)cc2)cc1S(=O)(=O)N1CCOCC1 (chirality)
COc1ccc(C(=O)[N-][C@H](CCN(C)C)c2ccc(Cl)cc2)cc1S(=O)(=O)N1CCOCC1 (3D coordinates assigned)
COc1ccc(C(=O)[N-][C@H](CCN(C)C)c2ccc(Cl)cc2)cc1S(=O)(=O)N1CCOCC1 (nonaromatic ring conformer: 74.59752027709986 kcal/mol)

>  <smiles>  (57) 
COc1ccc(C(=O)NC(CCN(C)C)c2ccc(Cl)cc2)cc1S(=O)(=O)N1CCOCC1

>  <score_type>  (57) 
oracle

>  <origin>  (57) 
adg

>  <m_score__min__energy>  (57) 
-9.7799999999999994

>  <m_primary>  (57) 
energy

$$$$
57:0
     RDKit          3D

 31 32  0  0  0  0  0  0  0  0999 V2000
   61.9490   33.8270   47.9880 C   0  0  0  0  0  0  0  0  0  0  0  0
   60.3920   34.2410   48.8340 S   0  0  0  0  0  0  0  0  0  0  0  0
   59.3680   33.5410   47.5380 C   0  0  0  0  0  0  0  0  0  0  0  0
   58.6400   34.3820   46.6900 C   0  0  0  0  0  0  0  0  0  0  0  0
   57.8200   33.8370   45.6990 C   0  0  0  0  0  0  0  0  0  0  0  0
   57.7170   32.4430   45.5510 C   0  0  0  0  0  0  0  0  0  0  0  0
   56.7770   31.8530   44.5310 C   0  0  0  0  0  0  0  0  0  0  0  0
   57.0940   30.4490   44.2730 N   0  0  0  0  0  0  0  0  0  0  0  0
   56.4360   29.3210   44.8680 C   0  0  0  0  0  0  0  0  0  0  0  0
   55.1820   29.3270   44.9670 O   0  0  0  0  0  0  0  0  0  0  0  0
   57.1830   28.1310   45.3120 C   0  0  0  0  0  0  0  0  0  0  0  0
   58.5800   28.1040   45.1930 C   0  0  0  0  0  0  0  0  0  0  0  0
   59.2990   27.0030   45.6580 C   0  0  0  0  0  0  0  0  0  0  0  0
   58.6100   25.9290   46.2300 C   0  0  0  0  0  0  0  0  0  0  0  0
   59.2430   24.9300   46.6590 O   0  0  0  0  0  0  0  0  0  0  0  0
   57.2550   25.9600   46.3200 N   0  0  0  0  0  0  0  0  0  0  0  0
   56.5300   27.0240   45.8760 C   0  0  0  0  0  0  0  0  0  0  0  0
   55.1440   26.9930   45.9770 O   0  0  0  0  0  0  0  0  0  0  0  0
   58.4740   31.6050   46.3850 C   0  0  0  0  0  0  0  0  0  0  0  0
   59.2930   32.1530   47.3780 C   0  0  0  0  0  0  0  0  0  0  0  0
   62.7287   33.6197   48.7357 H   0  0  0  0  0  0  0  0  0  0  0  0
   61.7990   32.9375   47.3584 H   0  0  0  0  0  0  0  0  0  0  0  0
   62.2605   34.6735   47.3584 H   0  0  0  0  0  0  0  0  0  0  0  0
   58.7132   35.4737   46.8035 H   0  0  0  0  0  0  0  0  0  0  0  0
   57.2523   34.5018   45.0314 H   0  0  0  0  0  0  0  0  0  0  0  0
   55.7462   31.9251   44.9083 H   0  0  0  0  0  0  0  0  0  0  0  0
   56.8847   32.4139   43.5909 H   0  0  0  0  0  0  0  0  0  0  0  0
   59.1090   28.9515   44.7327 H   0  0  0  0  0  0  0  0  0  0  0  0
   60.3957   26.9798   45.5757 H   0  0  0  0  0  0  0  0  0  0  0  0
   58.4230   30.5136   46.2572 H   0  0  0  0  0  0  0  0  0  0  0  0
   59.8787   31.4919   48.0337 H   0  0  0  0  0  0  0  0  0  0  0  0
  1  2  1  0
  2  3  1  0
  3  4  2  0
  4  5  1  0
  5  6  2  0
  6  7  1  0
  7  8  1  0
  8  9  1  0
  9 10  2  0
  9 11  1  0
 11 12  1  0
 12 13  2  0
 13 14  1  0
 14 15  2  0
 14 16  1  0
 16 17  1  0
 17 18  1  0
  6 19  1  0
 19 20  2  0
 20  3  1  0
 17 11  2  0
  1 21  1  0
  1 22  1  0
  1 23  1  0
  4 24  1  0
  5 25  1  0
  7 26  1  0
  7 27  1  0
 12 28  1  0
 13 29  1  0
 19 30  1  0
 20 31  1  0
M  CHG  3   8  -1  16  -1  18  -1
M  END
>  <UniqueID>  (58) 
58

>  <SMILES>  (58) 
CSc1ccc(C[N-]C(=O)c2ccc(=O)[n-]c2[O-])cc1

>  <Energy>  (58) 
30.775838774717332

>  <Genealogy>  (58) 
CSc1ccc(C[N-]C(=O)c2ccc(=O)[n-]c2[O-])cc1 (protonated)
CSc1ccc(C[N-]C(=O)c2ccc(=O)[n-]c2[O-])cc1 (3D coordinates assigned)
CSc1ccc(C[N-]C(=O)c2ccc(=O)[n-]c2[O-])cc1 (optimized conformer: 30.775838774717332 kcal/mol)

>  <smiles>  (58) 
CSc1ccc(CNC(=O)c2ccc(=O)[nH]c2O)cc1

>  <score_type>  (58) 
oracle

>  <origin>  (58) 
adg

>  <m_score__min__energy>  (58) 
-14.68

>  <m_primary>  (58) 
energy

$$$$
58:0
     RDKit          3D

 47 50  0  0  0  0  0  0  0  0999 V2000
   56.5400   31.4630   44.8190 O   0  0  0  0  0  0  0  0  0  0  0  0
   57.7880   31.4700   45.0060 C   0  0  0  0  0  0  0  0  0  0  0  0
   58.5660   30.3610   44.6360 O   0  0  0  0  0  0  0  0  0  0  0  0
   58.3500   29.0400   45.0550 C   0  0  0  0  0  0  0  0  0  0  0  0
   59.4250   28.1300   45.2770 C   0  0  0  0  0  0  0  0  0  0  0  0
   59.1700   26.8100   45.6910 C   0  0  0  0  0  0  0  0  0  0  0  0
   57.8410   26.4400   45.8870 C   0  0  0  0  0  0  0  0  0  0  0  0
   57.3590   25.2560   46.2840 N   0  0  0  0  0  0  0  0  0  0  0  0
   56.0210   25.4600   46.3320 C   0  0  0  0  0  0  0  0  0  0  0  0
   55.2030   24.5630   46.6730 O   0  0  0  0  0  0  0  0  0  0  0  0
   55.6350   26.7140   45.9870 N   0  0  0  0  0  0  0  0  0  0  0  0
   56.8100   27.3110   45.7070 C   0  0  0  0  0  0  0  0  0  0  0  0
   57.0220   28.6240   45.2940 C   0  0  0  0  0  0  0  0  0  0  0  0
   58.4440   32.6290   45.6590 C   0  0  0  0  0  0  0  0  0  0  0  0
   58.7310   33.7640   44.8740 C   0  0  0  0  0  0  0  0  0  0  0  0
   59.2970   34.9050   45.4460 C   0  0  0  0  0  0  0  0  0  0  0  0
   59.5910   34.9320   46.8080 C   0  0  0  0  0  0  0  0  0  0  0  0
   59.3340   33.8130   47.6000 C   0  0  0  0  0  0  0  0  0  0  0  0
   58.7810   32.6520   47.0390 C   0  0  0  0  0  0  0  0  0  0  0  0
   58.5980   31.2120   48.1070 S   0  0  0  0  0  0  0  0  0  0  0  0
   60.2140   30.4690   47.6740 C   0  0  0  0  0  0  0  0  0  0  0  0
   61.2500   30.8710   48.6830 C   0  0  0  0  0  0  0  0  0  0  0  0
   61.2990   30.2490   49.7790 O   0  0  0  0  0  0  0  0  0  0  0  0
   62.1560   31.9670   48.4410 N   0  0  0  0  0  0  0  0  0  0  0  0
   62.7780   32.1640   47.1240 C   0  0  0  0  0  0  0  0  0  0  0  0
   63.0620   33.6550   46.9040 C   0  0  0  0  0  0  0  0  0  0  0  0
   63.8060   34.1920   47.9810 O   0  0  0  0  0  0  0  0  0  0  0  0
   63.0230   34.1520   49.1620 C   0  0  0  0  0  0  0  0  0  0  0  0
   62.7260   32.7000   49.5760 C   0  0  0  0  0  0  0  0  0  0  0  0
   60.4621   28.4628   45.1233 H   0  0  0  0  0  0  0  0  0  0  0  0
   59.9903   26.0955   45.8542 H   0  0  0  0  0  0  0  0  0  0  0  0
   57.8910   24.3880   46.5130 H   0  0  0  0  0  0  0  0  0  0  0  0
   56.1789   29.3173   45.1578 H   0  0  0  0  0  0  0  0  0  0  0  0
   58.5062   33.7507   43.7973 H   0  0  0  0  0  0  0  0  0  0  0  0
   59.5112   35.7841   44.8205 H   0  0  0  0  0  0  0  0  0  0  0  0
   60.0260   35.8363   47.2587 H   0  0  0  0  0  0  0  0  0  0  0  0
   59.5671   33.8410   48.6747 H   0  0  0  0  0  0  0  0  0  0  0  0
   60.1204   29.3730   47.6647 H   0  0  0  0  0  0  0  0  0  0  0  0
   60.5207   30.8254   46.6796 H   0  0  0  0  0  0  0  0  0  0  0  0
   63.7220   31.6013   47.0777 H   0  0  0  0  0  0  0  0  0  0  0  0
   62.0945   31.8041   46.3409 H   0  0  0  0  0  0  0  0  0  0  0  0
   63.6351   33.7789   45.9733 H   0  0  0  0  0  0  0  0  0  0  0  0
   62.1027   34.1894   46.8388 H   0  0  0  0  0  0  0  0  0  0  0  0
   63.5704   34.6531   49.9740 H   0  0  0  0  0  0  0  0  0  0  0  0
   62.0689   34.6640   48.9682 H   0  0  0  0  0  0  0  0  0  0  0  0
   63.6595   32.2126   49.8939 H   0  0  0  0  0  0  0  0  0  0  0  0
   62.0059   32.6993   50.4076 H   0  0  0  0  0  0  0  0  0  0  0  0
  1  2  2  0
  2  3  1  0
  3  4  1  0
  4  5  2  0
  5  6  1  0
  6  7  2  0
  7  8  1  0
  8  9  1  0
  9 10  2  0
  9 11  1  0
 11 12  1  0
 12 13  2  0
  2 14  1  0
 14 15  2  0
 15 16  1  0
 16 17  2  0
 17 18  1  0
 18 19  2  0
 19 20  1  0
 20 21  1  0
 21 22  1  0
 22 23  2  0
 22 24  1  0
 24 25  1  0
 25 26  1  0
 26 27  1  0
 27 28  1  0
 28 29  1  0
 13  4  1  0
 19 14  1  0
 29 24  1  0
 12  7  1  0
  5 30  1  0
  6 31  1  0
  8 32  1  0
 13 33  1  0
 15 34  1  0
 16 35  1  0
 17 36  1  0
 18 37  1  0
 21 38  1  0
 21 39  1  0
 25 40  1  0
 25 41  1  0
 26 42  1  0
 26 43  1  0
 28 44  1  0
 28 45  1  0
 29 46  1  0
 29 47  1  0
M  CHG  1  11  -1
M  END
>  <UniqueID>  (59) 
59

>  <SMILES>  (59) 
O=C(Oc1ccc2[nH]c(=O)[n-]c2c1)c1ccccc1SCC(=O)N1CCOCC1

>  <Energy>  (59) 
94.84721657175282

>  <Genealogy>  (59) 
O=C(Oc1ccc2[nH]c(=O)[n-]c2c1)c1ccccc1SCC(=O)N1CCOCC1 (protonated)
O=C(Oc1ccc2[nH]c(=O)[n-]c2c1)c1ccccc1SCC(=O)N1CCOCC1 (3D coordinates assigned)
O=C(Oc1ccc2[nH]c(=O)[n-]c2c1)c1ccccc1SCC(=O)N1CCOCC1 (nonaromatic ring conformer: 94.84721657175282 kcal/mol)

>  <smiles>  (59) 
O=C(Oc1ccc2[nH]c(=O)[nH]c2c1)c1ccccc1SCC(=O)N1CCOCC1

>  <score_type>  (59) 
oracle

>  <origin>  (59) 
adg

>  <m_score__min__energy>  (59) 
-10.960000000000001

>  <m_primary>  (59) 
energy

$$$$
59:0
     RDKit          3D

 51 54  0  0  0  0  0  0  0  0999 V2000
   56.2920   29.4140   42.8110 C   0  0  0  0  0  0  0  0  0  0  0  0
   56.9160   29.3100   43.9910 C   0  0  0  0  0  0  0  0  0  0  0  0
   57.0420   28.1470   44.6610 N   0  0  0  0  0  0  0  0  0  0  0  0
   57.7370   28.4230   45.7850 C   0  0  0  0  0  0  0  0  0  0  0  0
   58.0330   27.5370   46.7460 C   0  0  0  0  0  0  0  0  0  0  0  0
   57.3590   26.2380   46.8950 C   0  0  0  0  0  0  0  0  0  0  0  0
   57.9660   25.1450   47.3900 N   0  0  0  0  0  0  0  0  0  0  0  0
   57.0100   24.1950   47.3140 C   0  0  0  0  0  0  0  0  0  0  0  0
   57.1970   23.0150   47.7040 O   0  0  0  0  0  0  0  0  0  0  0  0
   55.8390   24.6090   46.7810 N   0  0  0  0  0  0  0  0  0  0  0  0
   56.0760   25.9010   46.5050 C   0  0  0  0  0  0  0  0  0  0  0  0
   55.1500   26.7290   45.8730 O   0  0  0  0  0  0  0  0  0  0  0  0
   58.0510   29.7700   45.8430 C   0  0  0  0  0  0  0  0  0  0  0  0
   57.5390   30.3380   44.6930 C   0  0  0  0  0  0  0  0  0  0  0  0
   57.5370   31.7790   44.3750 C   0  0  0  0  0  0  0  0  0  0  0  0
   58.3190   32.2170   43.4920 O   0  0  0  0  0  0  0  0  0  0  0  0
   56.6570   32.6980   45.0270 N   0  0  0  0  0  0  0  0  0  0  0  0
   57.0130   34.0640   45.3880 C   0  0  0  0  0  0  0  0  0  0  0  0
   58.2920   34.0500   46.1730 C   0  0  0  0  0  0  0  0  0  0  0  0
   59.4460   34.6520   45.6510 C   0  0  0  0  0  0  0  0  0  0  0  0
   60.6230   34.6880   46.4020 C   0  0  0  0  0  0  0  0  0  0  0  0
   60.6600   34.1190   47.6790 C   0  0  0  0  0  0  0  0  0  0  0  0
   59.5170   33.5000   48.2090 C   0  0  0  0  0  0  0  0  0  0  0  0
   59.5520   32.9070   49.5600 C   0  0  0  0  0  0  0  0  0  0  0  0
   59.7190   33.6620   50.5580 O   0  0  0  0  0  0  0  0  0  0  0  0
   59.4040   31.4920   49.7600 N   0  0  0  0  0  0  0  0  0  0  0  0
   58.9330   30.9180   51.0090 C   0  0  0  0  0  0  0  0  0  0  0  0
   59.2670   29.4360   50.9370 C   0  0  0  0  0  0  0  0  0  0  0  0
   59.6260   29.1480   49.4810 C   0  0  0  0  0  0  0  0  0  0  0  0
   59.9330   30.4930   48.8440 C   0  0  0  0  0  0  0  0  0  0  0  0
   58.3280   33.4910   47.4600 C   0  0  0  0  0  0  0  0  0  0  0  0
   56.2205   30.3911   42.3109 H   0  0  0  0  0  0  0  0  0  0  0  0
   55.8508   28.5223   42.3417 H   0  0  0  0  0  0  0  0  0  0  0  0
   56.6420   27.2270   44.3680 H   0  0  0  0  0  0  0  0  0  0  0  0
   58.8250   27.7959   47.4642 H   0  0  0  0  0  0  0  0  0  0  0  0
   54.3560   27.1140   46.3680 H   0  0  0  0  0  0  0  0  0  0  0  0
   58.5992   30.2854   46.6454 H   0  0  0  0  0  0  0  0  0  0  0  0
   57.1483   34.6624   44.4750 H   0  0  0  0  0  0  0  0  0  0  0  0
   56.2107   34.5062   45.9969 H   0  0  0  0  0  0  0  0  0  0  0  0
   59.4241   35.0978   44.6456 H   0  0  0  0  0  0  0  0  0  0  0  0
   61.5234   35.1652   45.9879 H   0  0  0  0  0  0  0  0  0  0  0  0
   61.5872   34.1566   48.2697 H   0  0  0  0  0  0  0  0  0  0  0  0
   59.4461   31.3851   51.8626 H   0  0  0  0  0  0  0  0  0  0  0  0
   57.8545   31.0832   51.1488 H   0  0  0  0  0  0  0  0  0  0  0  0
   60.1198   29.2055   51.5924 H   0  0  0  0  0  0  0  0  0  0  0  0
   58.4196   28.8185   51.2696 H   0  0  0  0  0  0  0  0  0  0  0  0
   60.5071   28.4916   49.4285 H   0  0  0  0  0  0  0  0  0  0  0  0
   58.8032   28.6369   48.9597 H   0  0  0  0  0  0  0  0  0  0  0  0
   61.0187   30.6209   48.7223 H   0  0  0  0  0  0  0  0  0  0  0  0
   59.4837   30.5807   47.8438 H   0  0  0  0  0  0  0  0  0  0  0  0
   57.4183   33.0423   47.8857 H   0  0  0  0  0  0  0  0  0  0  0  0
  1  2  2  0
  2  3  1  0
  3  4  1  0
  4  5  2  3
  5  6  1  0
  6  7  1  0
  7  8  1  0
  8  9  2  0
  8 10  1  0
 10 11  1  0
 11 12  1  0
  4 13  1  0
 13 14  2  0
 14 15  1  0
 15 16  2  0
 15 17  1  0
 17 18  1  0
 18 19  1  0
 19 20  2  0
 20 21  1  0
 21 22  2  0
 22 23  1  0
 23 24  1  0
 24 25  2  0
 24 26  1  0
 26 27  1  0
 27 28  1  0
 28 29  1  0
 29 30  1  0
 23 31  2  0
 14  2  1  0
 31 19  1  0
 11  6  2  0
 30 26  1  0
  1 32  1  0
  1 33  1  0
  3 34  1  0
  5 35  1  0
 12 36  1  0
 13 37  1  0
 18 38  1  0
 18 39  1  0
 20 40  1  0
 21 41  1  0
 22 42  1  0
 27 43  1  0
 27 44  1  0
 28 45  1  0
 28 46  1  0
 29 47  1  0
 29 48  1  0
 30 49  1  0
 30 50  1  0
 31 51  1  0
M  CHG  3   7  -1  10  -1  17  -1
M  END
>  <UniqueID>  (60) 
60

>  <SMILES>  (60) 
C=c1[nH]c(=Cc2[n-]c(=O)[n-]c2O)cc1C(=O)[N-]Cc1cccc(C(=O)N2CCCC2)c1

>  <Energy>  (60) 
123.07296805097158

>  <Genealogy>  (60) 
C=c1[nH]c(=Cc2[n-]c(=O)[n-]c2O)cc1C(=O)[N-]Cc1cccc(C(=O)N2CCCC2)c1 (protonated)
C=c1[nH]c(=Cc2[n-]c(=O)[n-]c2O)cc1C(=O)[N-]Cc1cccc(C(=O)N2CCCC2)c1 (3D coordinates assigned)
C=c1[nH]c(=Cc2[n-]c(=O)[n-]c2O)cc1C(=O)[N-]Cc1cccc(C(=O)N2CCCC2)c1 (nonaromatic ring conformer: 123.07296805097158 kcal/mol)

>  <smiles>  (60) 
C=c1[nH]c(=Cc2[nH]c(=O)[nH]c2O)cc1C(=O)NCc1cccc(C(=O)N2CCCC2)c1

>  <score_type>  (60) 
oracle

>  <origin>  (60) 
adg

>  <m_score__min__energy>  (60) 
-15.779999999999999

>  <m_primary>  (60) 
energy

$$$$
60:0
     RDKit          3D

 50 52  0  0  0  0  0  0  0  0999 V2000
   59.6540   34.1590   49.9690 O   0  0  0  0  0  0  0  0  0  0  0  0
   59.2520   32.9850   49.7590 C   0  0  0  0  0  0  0  0  0  0  0  0
   58.2330   32.7410   48.6780 C   0  0  0  0  0  0  0  0  0  0  0  0
   58.6580   33.3700   47.3750 C   0  0  0  0  0  0  0  0  0  0  0  0
   60.0140   33.6470   47.1310 C   0  0  0  0  0  0  0  0  0  0  0  0
   60.4160   34.2040   45.9130 C   0  0  0  0  0  0  0  0  0  0  0  0
   59.4670   34.4990   44.9330 C   0  0  0  0  0  0  0  0  0  0  0  0
   58.1130   34.2510   45.1730 C   0  0  0  0  0  0  0  0  0  0  0  0
   57.7050   33.6940   46.3900 C   0  0  0  0  0  0  0  0  0  0  0  0
   56.3840   33.4650   46.6020 F   0  0  0  0  0  0  0  0  0  0  0  0
   59.7590   31.9280   50.5830 N   0  0  0  0  0  0  0  0  0  0  0  0
   58.9690   30.8010   51.0590 C   0  0  0  0  0  0  0  0  0  0  0  0
   59.6810   29.5150   50.7690 C   0  0  0  0  0  0  0  0  0  0  0  0
   59.8870   28.6940   51.7050 O   0  0  0  0  0  0  0  0  0  0  0  0
   60.1360   29.2050   49.4410 N   0  0  0  0  0  0  0  0  0  0  0  0
   60.1270   27.8150   48.9830 C   0  0  0  0  0  0  0  0  0  0  0  0
   60.2830   27.7280   47.4530 C   0  0  0  0  0  0  0  0  0  0  0  0
   59.6220   28.8490   46.7500 N   0  0  0  0  0  0  0  0  0  0  0  0
   58.2030   28.6430   46.3760 C   0  0  0  0  0  0  0  0  0  0  0  0
   57.7390   29.5120   45.2230 C   0  0  0  0  0  0  0  0  0  0  0  0
   58.6250   30.4270   44.6270 C   0  0  0  0  0  0  0  0  0  0  0  0
   58.2030   31.2410   43.5740 C   0  0  0  0  0  0  0  0  0  0  0  0
   56.8980   31.1420   43.0910 C   0  0  0  0  0  0  0  0  0  0  0  0
   56.0160   30.2190   43.6520 C   0  0  0  0  0  0  0  0  0  0  0  0
   56.4290   29.4000   44.7090 C   0  0  0  0  0  0  0  0  0  0  0  0
   55.5270   28.4860   45.2460 O   0  0  0  0  0  0  0  0  0  0  0  0
   59.9720   30.2150   47.2110 C   0  0  0  0  0  0  0  0  0  0  0  0
   60.6970   30.2320   48.5620 C   0  0  0  0  0  0  0  0  0  0  0  0
   58.1175   31.6569   48.5321 H   0  0  0  0  0  0  0  0  0  0  0  0
   57.2803   33.1945   48.9890 H   0  0  0  0  0  0  0  0  0  0  0  0
   60.7645   33.4241   47.9037 H   0  0  0  0  0  0  0  0  0  0  0  0
   61.4805   34.4097   45.7272 H   0  0  0  0  0  0  0  0  0  0  0  0
   59.7852   34.9271   43.9710 H   0  0  0  0  0  0  0  0  0  0  0  0
   57.3659   34.4943   44.4032 H   0  0  0  0  0  0  0  0  0  0  0  0
   58.8166   30.8959   52.1442 H   0  0  0  0  0  0  0  0  0  0  0  0
   57.9972   30.7990   50.5437 H   0  0  0  0  0  0  0  0  0  0  0  0
   60.9591   27.2756   49.4591 H   0  0  0  0  0  0  0  0  0  0  0  0
   59.1621   27.3650   49.2594 H   0  0  0  0  0  0  0  0  0  0  0  0
   61.3550   27.7406   47.2067 H   0  0  0  0  0  0  0  0  0  0  0  0
   59.8019   26.7961   47.1211 H   0  0  0  0  0  0  0  0  0  0  0  0
   58.0695   27.5890   46.0909 H   0  0  0  0  0  0  0  0  0  0  0  0
   57.5982   28.9237   47.2509 H   0  0  0  0  0  0  0  0  0  0  0  0
   59.6594   30.5021   44.9935 H   0  0  0  0  0  0  0  0  0  0  0  0
   58.9013   31.9621   43.1242 H   0  0  0  0  0  0  0  0  0  0  0  0
   56.5649   31.7916   42.2681 H   0  0  0  0  0  0  0  0  0  0  0  0
   54.9910   30.1343   43.2620 H   0  0  0  0  0  0  0  0  0  0  0  0
   60.6251   30.6808   46.4584 H   0  0  0  0  0  0  0  0  0  0  0  0
   59.0292   30.7668   47.3402 H   0  0  0  0  0  0  0  0  0  0  0  0
   61.7672   30.0323   48.4043 H   0  0  0  0  0  0  0  0  0  0  0  0
   60.5681   31.2192   49.0299 H   0  0  0  0  0  0  0  0  0  0  0  0
  1  2  2  0
  2  3  1  0
  3  4  1  0
  4  5  2  0
  5  6  1  0
  6  7  2  0
  7  8  1  0
  8  9  2  0
  9 10  1  0
  2 11  1  0
 11 12  1  0
 12 13  1  0
 13 14  2  0
 13 15  1  0
 15 16  1  0
 16 17  1  0
 17 18  1  0
 18 19  1  0
 19 20  1  0
 20 21  2  0
 21 22  1  0
 22 23  2  0
 23 24  1  0
 24 25  2  0
 25 26  1  0
 18 27  1  0
 27 28  1  0
  9  4  1  0
 28 15  1  0
 25 20  1  0
  3 29  1  0
  3 30  1  0
  5 31  1  0
  6 32  1  0
  7 33  1  0
  8 34  1  0
 12 35  1  0
 12 36  1  0
 16 37  1  0
 16 38  1  0
 17 39  1  0
 17 40  1  0
 19 41  1  0
 19 42  1  0
 21 43  1  0
 22 44  1  0
 23 45  1  0
 24 46  1  0
 27 47  1  0
 27 48  1  0
 28 49  1  0
 28 50  1  0
M  CHG  2  11  -1  26  -1
M  END
>  <UniqueID>  (61) 
61

>  <SMILES>  (61) 
O=C(Cc1ccccc1F)[N-]CC(=O)N1CCN(Cc2ccccc2[O-])CC1

>  <Energy>  (61) 
57.68674122095492

>  <Genealogy>  (61) 
O=C(Cc1ccccc1F)[N-]CC(=O)N1CCN(Cc2ccccc2[O-])CC1 (protonated)
O=C(Cc1ccccc1F)[N-]CC(=O)N1CCN(Cc2ccccc2[O-])CC1 (3D coordinates assigned)
O=C(Cc1ccccc1F)[N-]CC(=O)N1CCN(Cc2ccccc2[O-])CC1 (nonaromatic ring conformer: 57.68674122095492 kcal/mol)

>  <smiles>  (61) 
O=C(Cc1ccccc1F)NCC(=O)N1CCN(Cc2ccccc2O)CC1

>  <score_type>  (61) 
oracle

>  <origin>  (61) 
adg

>  <m_score__min__energy>  (61) 
-12.699999999999999

>  <m_primary>  (61) 
energy

$$$$
61:0
     RDKit          3D

 52 55  0  0  0  0  0  0  0  0999 V2000
   59.6560   35.3510   46.4080 C   0  0  0  0  0  0  0  0  0  0  0  0
   59.5320   33.9960   46.9910 N   0  0  0  0  0  0  0  0  0  0  0  0
   60.1330   33.7150   48.1980 C   0  0  0  0  0  0  0  0  0  0  0  0
   60.7820   34.6170   48.8020 O   0  0  0  0  0  0  0  0  0  0  0  0
   60.0410   32.4630   48.7590 N   0  0  0  0  0  0  0  0  0  0  0  0
   60.7370   32.1610   50.0290 C   0  0  0  0  0  0  0  0  0  0  0  0
   59.7320   31.8880   51.1080 C   0  0  0  0  0  0  0  0  0  0  0  0
   59.4870   32.7740   51.9700 O   0  0  0  0  0  0  0  0  0  0  0  0
   59.0450   30.6280   51.1440 N   0  0  0  0  0  0  0  0  0  0  0  0
   57.7780   30.4270   51.7890 C   0  0  0  0  0  0  0  0  0  0  0  0
   56.7570   31.3730   51.6020 C   0  0  0  0  0  0  0  0  0  0  0  0
   55.5200   31.2190   52.2350 C   0  0  0  0  0  0  0  0  0  0  0  0
   55.2970   30.1230   53.0740 C   0  0  0  0  0  0  0  0  0  0  0  0
   56.3130   29.1870   53.2850 C   0  0  0  0  0  0  0  0  0  0  0  0
   57.5550   29.3380   52.6570 C   0  0  0  0  0  0  0  0  0  0  0  0
   58.5460   28.4540   52.9410 F   0  0  0  0  0  0  0  0  0  0  0  0
   59.3620   31.4640   48.1120 C   0  0  0  0  0  0  0  0  0  0  0  0
   59.3020   30.3070   48.6190 O   0  0  0  0  0  0  0  0  0  0  0  0
   58.7350   31.7170   46.8840 C   0  0  0  0  0  0  0  0  0  0  0  0
   58.0270   30.7030   46.2060 C   0  0  0  0  0  0  0  0  0  0  0  0
   57.4010   30.9700   44.9840 C   0  0  0  0  0  0  0  0  0  0  0  0
   56.5210   29.6930   44.1480 S   0  0  0  0  0  0  0  0  0  0  0  0
   55.2000   29.4910   44.8340 O   0  0  0  0  0  0  0  0  0  0  0  0
   56.2560   30.0870   42.7240 O   0  0  0  0  0  0  0  0  0  0  0  0
   57.3870   28.1930   44.1640 N   0  0  0  0  0  0  0  0  0  0  0  0
   58.1850   27.7360   45.2610 C   0  0  0  0  0  0  0  0  0  0  0  0
   57.6060   27.1010   46.3750 C   0  0  0  0  0  0  0  0  0  0  0  0
   58.4190   26.6500   47.4220 C   0  0  0  0  0  0  0  0  0  0  0  0
   59.8090   26.8340   47.3670 C   0  0  0  0  0  0  0  0  0  0  0  0
   60.5950   26.4010   48.3840 F   0  0  0  0  0  0  0  0  0  0  0  0
   60.3920   27.4550   46.2550 C   0  0  0  0  0  0  0  0  0  0  0  0
   59.5830   27.8910   45.2000 C   0  0  0  0  0  0  0  0  0  0  0  0
   57.4820   32.2520   44.4320 C   0  0  0  0  0  0  0  0  0  0  0  0
   58.1850   33.2610   45.0890 C   0  0  0  0  0  0  0  0  0  0  0  0
   58.8270   33.0140   46.3280 C   0  0  0  0  0  0  0  0  0  0  0  0
   59.7239   36.0934   47.2169 H   0  0  0  0  0  0  0  0  0  0  0  0
   60.5625   35.4014   45.7870 H   0  0  0  0  0  0  0  0  0  0  0  0
   58.7737   35.5651   45.7870 H   0  0  0  0  0  0  0  0  0  0  0  0
   61.3763   31.2762   49.8934 H   0  0  0  0  0  0  0  0  0  0  0  0
   61.3544   33.0242   50.3184 H   0  0  0  0  0  0  0  0  0  0  0  0
   59.5270   29.7980   50.7330 H   0  0  0  0  0  0  0  0  0  0  0  0
   56.9321   32.2428   50.9518 H   0  0  0  0  0  0  0  0  0  0  0  0
   54.7228   31.9595   52.0731 H   0  0  0  0  0  0  0  0  0  0  0  0
   54.3221   29.9975   53.5678 H   0  0  0  0  0  0  0  0  0  0  0  0
   56.1359   28.3272   53.9479 H   0  0  0  0  0  0  0  0  0  0  0  0
   57.9667   29.6947   46.6415 H   0  0  0  0  0  0  0  0  0  0  0  0
   56.5163   26.9590   46.4234 H   0  0  0  0  0  0  0  0  0  0  0  0
   57.9664   26.1496   48.2908 H   0  0  0  0  0  0  0  0  0  0  0  0
   61.4816   27.5993   46.2114 H   0  0  0  0  0  0  0  0  0  0  0  0
   60.0426   28.3582   44.3165 H   0  0  0  0  0  0  0  0  0  0  0  0
   56.9877   32.4660   43.4729 H   0  0  0  0  0  0  0  0  0  0  0  0
   58.2421   34.2632   44.6392 H   0  0  0  0  0  0  0  0  0  0  0  0
  1  2  1  0
  2  3  1  0
  3  4  2  0
  3  5  1  0
  5  6  1  0
  6  7  1  0
  7  8  2  0
  7  9  1  0
  9 10  1  0
 10 11  2  0
 11 12  1  0
 12 13  2  0
 13 14  1  0
 14 15  2  0
 15 16  1  0
  5 17  1  0
 17 18  2  0
 17 19  1  0
 19 20  2  0
 20 21  1  0
 21 22  1  0
 22 23  2  0
 22 24  2  0
 22 25  1  0
 25 26  1  0
 26 27  2  0
 27 28  1  0
 28 29  2  0
 29 30  1  0
 29 31  1  0
 31 32  2  0
 21 33  2  0
 33 34  1  0
 34 35  2  0
 35  2  1  0
 15 10  1  0
 35 19  1  0
 32 26  1  0
  1 36  1  0
  1 37  1  0
  1 38  1  0
  6 39  1  0
  6 40  1  0
  9 41  1  0
 11 42  1  0
 12 43  1  0
 13 44  1  0
 14 45  1  0
 20 46  1  0
 27 47  1  0
 28 48  1  0
 31 49  1  0
 32 50  1  0
 33 51  1  0
 34 52  1  0
M  CHG  1  25  -1
M  END
>  <UniqueID>  (62) 
62

>  <SMILES>  (62) 
Cn1c(=O)n(CC(=O)Nc2ccccc2F)c(=O)c2cc(S(=O)(=O)[N-]c3ccc(F)cc3)ccc21

>  <Energy>  (62) 
81.96060201599826

>  <Genealogy>  (62) 
Cn1c(=O)n(CC(=O)Nc2ccccc2F)c(=O)c2cc(S(=O)(=O)[N-]c3ccc(F)cc3)ccc21 (protonated)
Cn1c(=O)n(CC(=O)Nc2ccccc2F)c(=O)c2cc(S(=O)(=O)[N-]c3ccc(F)cc3)ccc21 (3D coordinates assigned)
Cn1c(=O)n(CC(=O)Nc2ccccc2F)c(=O)c2cc(S(=O)(=O)[N-]c3ccc(F)cc3)ccc21 (optimized conformer: 81.96060201599826 kcal/mol)

>  <smiles>  (62) 
Cn1c(=O)n(CC(=O)Nc2ccccc2F)c(=O)c2cc(S(=O)(=O)Nc3ccc(F)cc3)ccc21

>  <score_type>  (62) 
oracle

>  <origin>  (62) 
adg

>  <m_score__min__energy>  (62) 
-10.41

>  <m_primary>  (62) 
energy

$$$$
62:0
     RDKit          3D

 62 65  0  0  0  0  0  0  0  0999 V2000
   60.3322   35.3665   48.5917 H   0  0  0  0  0  0  0  0  0  0  0  0
   60.4900   34.3570   48.9990 C   0  0  0  0  0  0  0  0  0  0  0  0
   59.7760   33.9900   50.0700 C   0  0  0  0  0  0  0  0  0  0  0  0
   58.6815   34.0862   50.0175 H   0  0  0  0  0  0  0  0  0  0  0  0
   60.3780   33.4530   51.3440 C   0  0  0  0  0  0  0  0  0  0  0  0
   60.4392   34.2731   52.0745 H   0  0  0  0  0  0  0  0  0  0  0  0
   61.3697   33.0491   51.0921 H   0  0  0  0  0  0  0  0  0  0  0  0
   59.5940   32.3520   51.9390 N   0  0  0  0  0  0  0  0  0  0  0  0
   58.6140   32.6560   52.1220 H   0  0  0  0  0  0  0  0  0  0  0  0
   59.6250   31.0350   51.2600 C   0  0  0  0  0  0  0  0  0  0  0  0
   59.4532   30.2992   52.0594 H   0  0  0  0  0  0  0  0  0  0  0  0
   61.0040   30.6780   50.6660 C   0  0  0  0  0  0  0  0  0  0  0  0
   61.7617   30.6985   51.4632 H   0  0  0  0  0  0  0  0  0  0  0  0
   61.2657   31.4103   49.8880 H   0  0  0  0  0  0  0  0  0  0  0  0
   60.9540   29.2790   50.0480 C   0  0  0  0  0  0  0  0  0  0  0  0
   60.7944   28.5398   50.8468 H   0  0  0  0  0  0  0  0  0  0  0  0
   61.9070   29.0934   49.5310 H   0  0  0  0  0  0  0  0  0  0  0  0
   59.8630   29.1670   49.0660 N   0  0  0  0  0  0  0  0  0  0  0  0
   59.8150   28.0010   48.2180 C   0  0  0  0  0  0  0  0  0  0  0  0
   60.2500   26.8980   48.6510 O   0  0  0  0  0  0  0  0  0  0  0  0
   59.3240   28.0890   46.8260 C   0  0  0  0  0  0  0  0  0  0  0  0
   58.9500   29.2430   46.2530 N   0  0  0  0  0  0  0  0  0  0  0  0
   58.6020   28.8860   44.9980 C   0  0  0  0  0  0  0  0  0  0  0  0
   58.0530   29.8550   43.9910 C   0  0  0  0  0  0  0  0  0  0  0  0
   58.8900   30.3287   43.4570 H   0  0  0  0  0  0  0  0  0  0  0  0
   57.4082   29.3006   43.2933 H   0  0  0  0  0  0  0  0  0  0  0  0
   57.2240   30.9270   44.6530 C   0  0  0  0  0  0  0  0  0  0  0  0
   55.9940   30.7100   44.8290 O   0  0  0  0  0  0  0  0  0  0  0  0
   57.8040   32.2280   45.0890 C   0  0  0  0  0  0  0  0  0  0  0  0
   57.6970   32.6670   46.4240 C   0  0  0  0  0  0  0  0  0  0  0  0
   57.1523   32.0548   47.1578 H   0  0  0  0  0  0  0  0  0  0  0  0
   58.2780   33.8750   46.8230 C   0  0  0  0  0  0  0  0  0  0  0  0
   58.1953   34.2049   47.8691 H   0  0  0  0  0  0  0  0  0  0  0  0
   58.9620   34.6620   45.8970 C   0  0  0  0  0  0  0  0  0  0  0  0
   59.4156   35.6136   46.2111 H   0  0  0  0  0  0  0  0  0  0  0  0
   59.0700   34.2400   44.5710 C   0  0  0  0  0  0  0  0  0  0  0  0
   59.6150   34.8590   43.8431 H   0  0  0  0  0  0  0  0  0  0  0  0
   58.4910   33.0380   44.1630 C   0  0  0  0  0  0  0  0  0  0  0  0
   58.5712   32.7209   43.1128 H   0  0  0  0  0  0  0  0  0  0  0  0
   58.7730   27.5720   44.7370 N   0  0  0  0  0  0  0  0  0  0  0  0
   59.2210   27.0690   45.9000 C   0  0  0  0  0  0  0  0  0  0  0  0
   59.5840   25.6310   46.0980 C   0  0  0  0  0  0  0  0  0  0  0  0
   59.6394   25.4117   47.1745 H   0  0  0  0  0  0  0  0  0  0  0  0
   58.8189   24.9923   45.6325 H   0  0  0  0  0  0  0  0  0  0  0  0
   60.5606   25.4319   45.6325 H   0  0  0  0  0  0  0  0  0  0  0  0
   58.9040   30.2720   48.8900 C   0  0  0  0  0  0  0  0  0  0  0  0
   58.0211   29.8989   48.3503 H   0  0  0  0  0  0  0  0  0  0  0  0
   59.3956   31.0737   48.3195 H   0  0  0  0  0  0  0  0  0  0  0  0
   58.4600   30.8400   50.2460 C   0  0  0  0  0  0  0  0  0  0  0  0
   57.7279   30.1483   50.6883 H   0  0  0  0  0  0  0  0  0  0  0  0
   58.0358   31.8361   50.0515 H   0  0  0  0  0  0  0  0  0  0  0  0
   61.4730   33.4880   48.3360 C   0  0  0  0  0  0  0  0  0  0  0  0
   61.0610   32.2830   47.7410 C   0  0  0  0  0  0  0  0  0  0  0  0
   59.9990   31.9969   47.7583 H   0  0  0  0  0  0  0  0  0  0  0  0
   62.0010   31.4460   47.1260 C   0  0  0  0  0  0  0  0  0  0  0  0
   61.6748   30.5121   46.6449 H   0  0  0  0  0  0  0  0  0  0  0  0
   63.3570   31.7990   47.1240 C   0  0  0  0  0  0  0  0  0  0  0  0
   64.0958   31.1394   46.6453 H   0  0  0  0  0  0  0  0  0  0  0  0
   63.7720   32.9890   47.7300 C   0  0  0  0  0  0  0  0  0  0  0  0
   64.8382   33.2595   47.7354 H   0  0  0  0  0  0  0  0  0  0  0  0
   62.8330   33.8370   48.3300 C   0  0  0  0  0  0  0  0  0  0  0  0
   63.1611   34.7773   48.7970 H   0  0  0  0  0  0  0  0  0  0  0  0
  1  2  1  0
  2  3  2  0
  3  4  1  0
  3  5  1  0
  5  6  1  0
  5  7  1  0
  5  8  1  0
  8  9  1  0
  8 10  1  0
 10 11  1  0
 10 12  1  0
 12 13  1  0
 12 14  1  0
 12 15  1  0
 15 16  1  0
 15 17  1  0
 15 18  1  0
 18 19  1  0
 19 20  2  0
 19 21  1  0
 21 22  1  0
 22 23  2  0
 23 24  1  0
 24 25  1  0
 24 26  1  0
 24 27  1  0
 27 28  2  0
 27 29  1  0
 29 30  2  0
 30 31  1  0
 30 32  1  0
 32 33  1  0
 32 34  2  0
 34 35  1  0
 34 36  1  0
 36 37  1  0
 36 38  2  0
 38 39  1  0
 23 40  1  0
 40 41  1  0
 41 42  1  0
 42 43  1  0
 42 44  1  0
 42 45  1  0
 18 46  1  0
 46 47  1  0
 46 48  1  0
 46 49  1  0
 49 50  1  0
 49 51  1  0
  2 52  1  0
 52 53  2  0
 53 54  1  0
 53 55  1  0
 55 56  1  0
 55 57  2  0
 57 58  1  0
 57 59  1  0
 59 60  1  0
 59 61  2  0
 61 62  1  0
 49 10  1  0
 61 52  1  0
 41 21  2  0
 38 29  1  0
M  CHG  1  40  -1
M  END
>  <UniqueID>  (63) 
63

>  <SMILES>  (63) 
Cc1[n-]c(CC(=O)c2ccccc2)nc1C(=O)N1CCC(NC/C=C\c2ccccc2)CC1

>  <Energy>  (63) 
105.98879363032543

>  <Genealogy>  (63) 
Cc1[n-]c(CC(=O)c2ccccc2)nc1C(=O)N1CCC(NCC=Cc2ccccc2)CC1 (protonated)
Cc1[n-]c(CC(=O)c2ccccc2)nc1C(=O)N1CCC(NC/C=C\c2ccccc2)CC1 (cis-trans isomerization)
Cc1[n-]c(CC(=O)c2ccccc2)nc1C(=O)N1CCC(NC/C=C\c2ccccc2)CC1 (3D coordinates assigned)
Cc1[n-]c(CC(=O)c2ccccc2)nc1C(=O)N1CCC(NC/C=C\c2ccccc2)CC1 (nonaromatic ring conformer: 105.98879363032543 kcal/mol)

>  <smiles>  (63) 
Cc1[nH]c(CC(=O)c2ccccc2)nc1C(=O)N1CCC(NCC=Cc2ccccc2)CC1

>  <score_type>  (63) 
oracle

>  <origin>  (63) 
adg

>  <m_score__min__energy>  (63) 
-10.81

>  <m_primary>  (63) 
energy

$$$$
63:0
     RDKit          3D

 43 46  0  0  0  0  0  0  0  0999 V2000
   59.2249   29.1322   47.4293 H   0  0  0  0  0  0  0  0  0  0  0  0
   58.8410   28.3640   46.7420 C   0  0  0  0  0  0  0  0  0  0  0  0
   58.8774   27.3025   47.0280 H   0  0  0  0  0  0  0  0  0  0  0  0
   58.3280   28.7220   45.5540 C   0  0  0  0  0  0  0  0  0  0  0  0
   57.8050   27.8640   44.5810 C   0  0  0  0  0  0  0  0  0  0  0  0
   57.7400   26.5190   44.6290 C   0  0  0  0  0  0  0  0  0  0  0  0
   58.1028   25.9531   43.7583 H   0  0  0  0  0  0  0  0  0  0  0  0
   57.2120   25.7590   45.7780 C   0  0  0  0  0  0  0  0  0  0  0  0
   55.9700   25.8700   46.3730 C   0  0  0  0  0  0  0  0  0  0  0  0
   54.9430   26.7150   45.9700 O   0  0  0  0  0  0  0  0  0  0  0  0
   55.8940   25.0730   47.4560 N   0  0  0  0  0  0  0  0  0  0  0  0
   57.1190   24.5070   47.4990 C   0  0  0  0  0  0  0  0  0  0  0  0
   57.4620   23.6840   48.3880 O   0  0  0  0  0  0  0  0  0  0  0  0
   57.9450   24.9090   46.5130 N   0  0  0  0  0  0  0  0  0  0  0  0
   58.9380   24.6240   46.3570 H   0  0  0  0  0  0  0  0  0  0  0  0
   57.4170   28.6700   43.5180 C   0  0  0  0  0  0  0  0  0  0  0  0
   56.9741   28.3367   42.5679 H   0  0  0  0  0  0  0  0  0  0  0  0
   57.6960   29.9720   43.8870 C   0  0  0  0  0  0  0  0  0  0  0  0
   57.4560   31.1710   43.0210 C   0  0  0  0  0  0  0  0  0  0  0  0
   57.2796   32.0521   43.6554 H   0  0  0  0  0  0  0  0  0  0  0  0
   58.3368   31.3468   42.3859 H   0  0  0  0  0  0  0  0  0  0  0  0
   56.5754   30.9943   42.3859 H   0  0  0  0  0  0  0  0  0  0  0  0
   58.2580   30.0030   45.1150 N   0  0  0  0  0  0  0  0  0  0  0  0
   58.6750   31.1860   45.8190 C   0  0  0  0  0  0  0  0  0  0  0  0
   59.9490   31.2390   46.4040 C   0  0  0  0  0  0  0  0  0  0  0  0
   60.6248   30.3756   46.3159 H   0  0  0  0  0  0  0  0  0  0  0  0
   60.3710   32.3850   47.1020 C   0  0  0  0  0  0  0  0  0  0  0  0
   61.6760   32.4420   47.7090 N   0  0  0  0  0  0  0  0  0  0  0  0
   62.8280   33.1060   47.2220 C   0  0  0  0  0  0  0  0  0  0  0  0
   62.8330   33.8790   46.2280 O   0  0  0  0  0  0  0  0  0  0  0  0
   63.9380   32.8720   47.9990 O   0  0  0  0  0  0  0  0  0  0  0  0
   63.5910   32.0120   49.0770 C   0  0  0  0  0  0  0  0  0  0  0  0
   63.8154   32.4941   50.0399 H   0  0  0  0  0  0  0  0  0  0  0  0
   64.1612   31.0718   49.0465 H   0  0  0  0  0  0  0  0  0  0  0  0
   62.0720   31.7630   48.9400 C   0  0  0  0  0  0  0  0  0  0  0  0
   61.5339   32.1843   49.8019 H   0  0  0  0  0  0  0  0  0  0  0  0
   61.8351   30.6893   48.9087 H   0  0  0  0  0  0  0  0  0  0  0  0
   59.4840   33.4690   47.2260 C   0  0  0  0  0  0  0  0  0  0  0  0
   59.7911   34.3637   47.7875 H   0  0  0  0  0  0  0  0  0  0  0  0
   58.2160   33.4190   46.6420 C   0  0  0  0  0  0  0  0  0  0  0  0
   57.5340   34.2767   46.7385 H   0  0  0  0  0  0  0  0  0  0  0  0
   57.8110   32.2840   45.9360 C   0  0  0  0  0  0  0  0  0  0  0  0
   56.5860   32.2580   45.3570 F   0  0  0  0  0  0  0  0  0  0  0  0
  1  2  1  0
  2  3  1  0
  2  4  2  0
  4  5  1  0
  5  6  2  0
  6  7  1  0
  6  8  1  0
  8  9  2  0
  9 10  1  0
  9 11  1  0
 11 12  1  0
 12 13  2  0
 12 14  1  0
 14 15  1  0
  5 16  1  0
 16 17  1  0
 16 18  2  0
 18 19  1  0
 19 20  1  0
 19 21  1  0
 19 22  1  0
 18 23  1  0
 23 24  1  0
 24 25  2  0
 25 26  1  0
 25 27  1  0
 27 28  1  0
 28 29  1  0
 29 30  2  0
 29 31  1  0
 31 32  1  0
 32 33  1  0
 32 34  1  0
 32 35  1  0
 35 36  1  0
 35 37  1  0
 27 38  2  0
 38 39  1  0
 38 40  1  0
 40 41  1  0
 40 42  2  0
 42 43  1  0
 23  4  1  0
 42 24  1  0
 14  8  1  0
 35 28  1  0
M  CHG  2  10  -1  11  -1
M  END
>  <UniqueID>  (64) 
64

>  <SMILES>  (64) 
C=c1/c(=C/c2[nH]c(=O)[n-]c2[O-])cc(C)n1-c1cc(N2CCOC2=O)ccc1F

>  <Energy>  (64) 
137.44610033151167

>  <Genealogy>  (64) 
C=c1c(=Cc2[nH]c(=O)[n-]c2[O-])cc(C)n1-c1cc(N2CCOC2=O)ccc1F (protonated)
C=c1/c(=C/c2[nH]c(=O)[n-]c2[O-])cc(C)n1-c1cc(N2CCOC2=O)ccc1F (cis-trans isomerization)
C=c1/c(=C/c2[nH]c(=O)[n-]c2[O-])cc(C)n1-c1cc(N2CCOC2=O)ccc1F (3D coordinates assigned)
C=c1/c(=C/c2[nH]c(=O)[n-]c2[O-])cc(C)n1-c1cc(N2CCOC2=O)ccc1F (nonaromatic ring conformer: 137.44610033151167 kcal/mol)

>  <smiles>  (64) 
C=c1c(=Cc2[nH]c(=O)[nH]c2O)cc(C)n1-c1cc(N2CCOC2=O)ccc1F

>  <score_type>  (64) 
oracle

>  <origin>  (64) 
adg

>  <m_score__min__energy>  (64) 
-14.109999999999999

>  <m_primary>  (64) 
energy

$$$$
64:0
     RDKit          3D

 42 44  0  0  0  0  0  0  0  0999 V2000
   60.5650   25.5920   46.0000 O   0  0  0  0  0  0  0  0  0  0  0  0
   59.8570   26.5820   46.3300 C   0  0  0  0  0  0  0  0  0  0  0  0
   60.4850   27.7710   46.8200 N   0  0  0  0  0  0  0  0  0  0  0  0
   60.7140   28.9510   45.9960 C   0  0  0  0  0  0  0  0  0  0  0  0
   60.7370   30.2060   46.8690 C   0  0  0  0  0  0  0  0  0  0  0  0
   59.6610   31.1890   46.4560 C   0  0  0  0  0  0  0  0  0  0  0  0
   58.6090   30.7360   45.6400 C   0  0  0  0  0  0  0  0  0  0  0  0
   57.5520   31.5820   45.2950 C   0  0  0  0  0  0  0  0  0  0  0  0
   56.5280   31.0940   44.4840 O   0  0  0  0  0  0  0  0  0  0  0  0
   57.5330   32.9010   45.7710 C   0  0  0  0  0  0  0  0  0  0  0  0
   56.4890   33.7570   45.4390 O   0  0  0  0  0  0  0  0  0  0  0  0
   58.5670   33.3630   46.5890 C   0  0  0  0  0  0  0  0  0  0  0  0
   59.6350   32.5220   46.9370 C   0  0  0  0  0  0  0  0  0  0  0  0
   60.6970   33.0600   47.8100 C   0  0  0  0  0  0  0  0  0  0  0  0
   61.9820   33.2780   47.2890 C   0  0  0  0  0  0  0  0  0  0  0  0
   62.9980   33.7810   48.1070 C   0  0  0  0  0  0  0  0  0  0  0  0
   62.7400   34.0570   49.4530 C   0  0  0  0  0  0  0  0  0  0  0  0
   63.7520   34.5580   50.2650 O   0  0  0  0  0  0  0  0  0  0  0  0
   61.4670   33.8300   49.9830 C   0  0  0  0  0  0  0  0  0  0  0  0
   60.4450   33.3280   49.1690 C   0  0  0  0  0  0  0  0  0  0  0  0
   59.1880   33.0920   49.7150 O   0  0  0  0  0  0  0  0  0  0  0  0
   58.3820   26.5160   46.2180 C   0  0  0  0  0  0  0  0  0  0  0  0
   57.6870   25.3480   46.5900 C   0  0  0  0  0  0  0  0  0  0  0  0
   56.2950   25.2880   46.4800 C   0  0  0  0  0  0  0  0  0  0  0  0
   55.5790   26.3860   45.9970 C   0  0  0  0  0  0  0  0  0  0  0  0
   54.1950   26.3160   45.8910 O   0  0  0  0  0  0  0  0  0  0  0  0
   56.2570   27.5510   45.6220 C   0  0  0  0  0  0  0  0  0  0  0  0
   55.5500   28.6460   45.1400 O   0  0  0  0  0  0  0  0  0  0  0  0
   57.6500   27.6160   45.7310 C   0  0  0  0  0  0  0  0  0  0  0  0
   61.6790   28.8509   45.4776 H   0  0  0  0  0  0  0  0  0  0  0  0
   59.9009   29.0394   45.2604 H   0  0  0  0  0  0  0  0  0  0  0  0
   60.5725   29.9154   47.9171 H   0  0  0  0  0  0  0  0  0  0  0  0
   61.7154   30.6936   46.7469 H   0  0  0  0  0  0  0  0  0  0  0  0
   58.6185   29.7008   45.2681 H   0  0  0  0  0  0  0  0  0  0  0  0
   56.1350   30.1700   44.6120 H   0  0  0  0  0  0  0  0  0  0  0  0
   58.5437   34.3968   46.9642 H   0  0  0  0  0  0  0  0  0  0  0  0
   62.1904   33.0521   46.2328 H   0  0  0  0  0  0  0  0  0  0  0  0
   64.0007   33.9597   47.6915 H   0  0  0  0  0  0  0  0  0  0  0  0
   61.2676   34.0465   51.0429 H   0  0  0  0  0  0  0  0  0  0  0  0
   58.2434   24.4782   46.9693 H   0  0  0  0  0  0  0  0  0  0  0  0
   55.7611   24.3726   46.7749 H   0  0  0  0  0  0  0  0  0  0  0  0
   58.1781   28.5340   45.4338 H   0  0  0  0  0  0  0  0  0  0  0  0
  1  2  2  0
  2  3  1  0
  3  4  1  0
  4  5  1  0
  5  6  1  0
  6  7  2  0
  7  8  1  0
  8  9  1  0
  8 10  2  0
 10 11  1  0
 10 12  1  0
 12 13  2  0
 13 14  1  0
 14 15  2  0
 15 16  1  0
 16 17  2  0
 17 18  1  0
 17 19  1  0
 19 20  2  0
 20 21  1  0
  2 22  1  0
 22 23  2  0
 23 24  1  0
 24 25  2  0
 25 26  1  0
 25 27  1  0
 27 28  1  0
 27 29  2  0
 13  6  1  0
 20 14  1  0
 29 22  1  0
  4 30  1  0
  4 31  1  0
  5 32  1  0
  5 33  1  0
  7 34  1  0
  9 35  1  0
 12 36  1  0
 15 37  1  0
 16 38  1  0
 19 39  1  0
 23 40  1  0
 24 41  1  0
 29 42  1  0
M  CHG  6   3  -1  11  -1  18  -1  21  -1  26  -1  28  -1
M  END
>  <UniqueID>  (65) 
65

>  <SMILES>  (65) 
O=C([N-]CCc1cc(O)c([O-])cc1-c1ccc([O-])cc1[O-])c1ccc([O-])c([O-])c1

>  <Energy>  (65) 
49.91367033626844

>  <Genealogy>  (65) 
O=C([N-]CCc1cc(O)c([O-])cc1-c1ccc([O-])cc1[O-])c1ccc([O-])c([O-])c1 (protonated)
O=C([N-]CCc1cc(O)c([O-])cc1-c1ccc([O-])cc1[O-])c1ccc([O-])c([O-])c1 (3D coordinates assigned)
O=C([N-]CCc1cc(O)c([O-])cc1-c1ccc([O-])cc1[O-])c1ccc([O-])c([O-])c1 (optimized conformer: 49.91367033626844 kcal/mol)

>  <smiles>  (65) 
O=C(NCCc1cc(O)c(O)cc1-c1ccc(O)cc1O)c1ccc(O)c(O)c1

>  <score_type>  (65) 
oracle

>  <origin>  (65) 
adg

>  <m_score__min__energy>  (65) 
-19.399999999999999

>  <m_primary>  (65) 
energy

$$$$
65:0
     RDKit          3D

 60 64  0  0  0  0  0  0  0  0999 V2000
   55.6890   25.7830   46.3400 O   0  0  0  0  0  0  0  0  0  0  0  0
   56.8760   25.5830   45.9800 C   0  0  0  0  0  0  0  0  0  0  0  0
   57.9290   25.7110   46.9450 N   0  0  0  0  0  0  0  0  0  0  0  0
   58.4180   26.8410   47.3600 C   0  0  0  0  0  0  0  0  0  0  0  0
   57.7760   28.0280   47.2590 N   0  0  0  0  0  0  0  0  0  0  0  0
   58.5470   29.0510   47.7060 C   0  0  0  0  0  0  0  0  0  0  0  0
   59.8030   28.6690   48.1610 C   0  0  0  0  0  0  0  0  0  0  0  0
   61.1040   29.7970   48.6430 S   0  0  0  0  0  0  0  0  0  0  0  0
   60.4140   29.9900   50.2940 C   0  0  0  0  0  0  0  0  0  0  0  0
   60.8720   29.1770   51.2850 N   0  0  0  0  0  0  0  0  0  0  0  0
   60.4010   29.2530   52.5560 C   0  0  0  0  0  0  0  0  0  0  0  0
   59.4200   30.1860   52.8820 C   0  0  0  0  0  0  0  0  0  0  0  0
   58.9420   31.0490   51.8940 C   0  0  0  0  0  0  0  0  0  0  0  0
   59.4320   30.9610   50.5840 C   0  0  0  0  0  0  0  0  0  0  0  0
   58.9550   31.9110   49.5610 C   0  0  0  0  0  0  0  0  0  0  0  0
   57.7730   32.3490   49.6190 O   0  0  0  0  0  0  0  0  0  0  0  0
   59.8390   32.3460   48.5160 N   0  0  0  0  0  0  0  0  0  0  0  0
   59.3940   32.8630   47.2480 C   0  0  0  0  0  0  0  0  0  0  0  0
   59.5780   34.2220   46.9600 C   0  0  0  0  0  0  0  0  0  0  0  0
   59.2160   34.7370   45.7130 C   0  0  0  0  0  0  0  0  0  0  0  0
   58.6680   33.9000   44.7400 C   0  0  0  0  0  0  0  0  0  0  0  0
   58.4670   32.5390   45.0090 C   0  0  0  0  0  0  0  0  0  0  0  0
   57.9330   31.6310   43.9680 C   0  0  0  0  0  0  0  0  0  0  0  0
   57.3610   32.1250   42.9570 O   0  0  0  0  0  0  0  0  0  0  0  0
   58.0460   30.2030   44.0830 N   0  0  0  0  0  0  0  0  0  0  0  0
   57.0920   29.2950   43.4680 C   0  0  0  0  0  0  0  0  0  0  0  0
   57.7760   27.9350   43.4360 C   0  0  0  0  0  0  0  0  0  0  0  0
   58.9670   28.0360   44.3870 C   0  0  0  0  0  0  0  0  0  0  0  0
   59.2520   29.5260   44.5330 C   0  0  0  0  0  0  0  0  0  0  0  0
   58.8560   32.0210   46.2580 C   0  0  0  0  0  0  0  0  0  0  0  0
   59.9560   26.9970   48.0250 S   0  0  0  0  0  0  0  0  0  0  0  0
   57.1360   25.2200   44.6140 N   0  0  0  0  0  0  0  0  0  0  0  0
   57.1680   23.8850   44.0840 C   0  0  0  0  0  0  0  0  0  0  0  0
   56.2860   23.4740   43.0670 C   0  0  0  0  0  0  0  0  0  0  0  0
   56.3250   22.1590   42.5880 C   0  0  0  0  0  0  0  0  0  0  0  0
   57.2510   21.2520   43.1090 C   0  0  0  0  0  0  0  0  0  0  0  0
   58.1490   21.6620   44.0970 C   0  0  0  0  0  0  0  0  0  0  0  0
   58.1140   22.9760   44.5810 C   0  0  0  0  0  0  0  0  0  0  0  0
   58.9860   23.3620   45.5440 F   0  0  0  0  0  0  0  0  0  0  0  0
   58.2058   30.0967   47.7080 H   0  0  0  0  0  0  0  0  0  0  0  0
   60.7947   28.5768   53.3292 H   0  0  0  0  0  0  0  0  0  0  0  0
   59.0257   30.2425   53.9074 H   0  0  0  0  0  0  0  0  0  0  0  0
   58.1785   31.8002   52.1446 H   0  0  0  0  0  0  0  0  0  0  0  0
   60.8670   32.2840   48.6820 H   0  0  0  0  0  0  0  0  0  0  0  0
   60.0105   34.8879   47.7212 H   0  0  0  0  0  0  0  0  0  0  0  0
   59.3633   35.8055   45.4973 H   0  0  0  0  0  0  0  0  0  0  0  0
   58.3925   34.3102   43.7573 H   0  0  0  0  0  0  0  0  0  0  0  0
   56.1697   29.2461   44.0654 H   0  0  0  0  0  0  0  0  0  0  0  0
   56.8070   29.6290   42.4594 H   0  0  0  0  0  0  0  0  0  0  0  0
   57.0826   27.1511   43.7748 H   0  0  0  0  0  0  0  0  0  0  0  0
   58.0969   27.6710   42.4175 H   0  0  0  0  0  0  0  0  0  0  0  0
   58.7167   27.5958   45.3635 H   0  0  0  0  0  0  0  0  0  0  0  0
   59.8415   27.4909   44.0022 H   0  0  0  0  0  0  0  0  0  0  0  0
   59.4625   29.7751   45.5835 H   0  0  0  0  0  0  0  0  0  0  0  0
   60.1315   29.8306   43.9468 H   0  0  0  0  0  0  0  0  0  0  0  0
   58.7382   30.9466   46.4623 H   0  0  0  0  0  0  0  0  0  0  0  0
   55.5632   24.1888   42.6469 H   0  0  0  0  0  0  0  0  0  0  0  0
   55.6260   21.8398   41.8009 H   0  0  0  0  0  0  0  0  0  0  0  0
   57.2729   20.2155   42.7413 H   0  0  0  0  0  0  0  0  0  0  0  0
   58.8865   20.9504   44.4966 H   0  0  0  0  0  0  0  0  0  0  0  0
  1  2  2  0
  2  3  1  0
  3  4  2  3
  4  5  1  0
  5  6  1  0
  6  7  2  0
  7  8  1  0
  8  9  1  0
  9 10  2  0
 10 11  1  0
 11 12  2  0
 12 13  1  0
 13 14  2  0
 14 15  1  0
 15 16  2  0
 15 17  1  0
 17 18  1  0
 18 19  2  0
 19 20  1  0
 20 21  2  0
 21 22  1  0
 22 23  1  0
 23 24  2  0
 23 25  1  0
 25 26  1  0
 26 27  1  0
 27 28  1  0
 28 29  1  0
 22 30  2  0
  7 31  1  0
  2 32  1  0
 32 33  1  0
 33 34  2  0
 34 35  1  0
 35 36  2  0
 36 37  1  0
 37 38  2  0
 38 39  1  0
 31  4  1  0
 38 33  1  0
 14  9  1  0
 30 18  1  0
 29 25  1  0
  6 40  1  0
 11 41  1  0
 12 42  1  0
 13 43  1  0
 17 44  1  0
 19 45  1  0
 20 46  1  0
 21 47  1  0
 26 48  1  0
 26 49  1  0
 27 50  1  0
 27 51  1  0
 28 52  1  0
 28 53  1  0
 29 54  1  0
 29 55  1  0
 30 56  1  0
 34 57  1  0
 35 58  1  0
 36 59  1  0
 37 60  1  0
M  CHG  2   5  -1  32  -1
M  END
>  <UniqueID>  (66) 
66

>  <SMILES>  (66) 
O=C(N=c1[n-]cc(Sc2ncccc2C(=O)Nc2cccc(C(=O)N3CCCC3)c2)s1)[N-]c1ccccc1F

>  <Energy>  (66) 
114.24200736223419

>  <Genealogy>  (66) 
O=C(N=c1[n-]cc(Sc2ncccc2C(=O)Nc2cccc(C(=O)N3CCCC3)c2)s1)[N-]c1ccccc1F (protonated)
O=C(N=c1[n-]cc(Sc2ncccc2C(=O)Nc2cccc(C(=O)N3CCCC3)c2)s1)[N-]c1ccccc1F (3D coordinates assigned)
O=C(N=c1[n-]cc(Sc2ncccc2C(=O)Nc2cccc(C(=O)N3CCCC3)c2)s1)[N-]c1ccccc1F (nonaromatic ring conformer: 114.24200736223419 kcal/mol)

>  <smiles>  (66) 
O=C(N=c1[nH]cc(Sc2ncccc2C(=O)Nc2cccc(C(=O)N3CCCC3)c2)s1)Nc1ccccc1F

>  <score_type>  (66) 
oracle

>  <origin>  (66) 
adg

>  <m_score__min__energy>  (66) 
-12.34

>  <m_primary>  (66) 
energy

$$$$
66:0
     RDKit          3D

 65 69  0  0  0  0  0  0  0  0999 V2000
   65.3230   32.4130   49.6900 C   0  0  0  0  0  0  0  0  0  0  0  0
   64.1300   32.8380   49.2670 C   0  0  0  0  0  0  0  0  0  0  0  0
   63.8670   33.1510   47.9860 N   0  0  0  0  0  0  0  0  0  0  0  0
   62.5750   33.5370   47.9170 C   0  0  0  0  0  0  0  0  0  0  0  0
   62.0080   33.8890   46.7480 C   0  0  0  0  0  0  0  0  0  0  0  0
   60.6160   33.6190   46.3660 C   0  0  0  0  0  0  0  0  0  0  0  0
   59.7100   34.5160   45.8210 C   0  0  0  0  0  0  0  0  0  0  0  0
   59.9570   35.8680   45.6310 O   0  0  0  0  0  0  0  0  0  0  0  0
   58.5390   33.9240   45.4880 N   0  0  0  0  0  0  0  0  0  0  0  0
   58.7260   32.6270   45.8060 C   0  0  0  0  0  0  0  0  0  0  0  0
   57.8050   31.5920   45.6550 C   0  0  0  0  0  0  0  0  0  0  0  0
   58.1890   30.2920   46.0400 C   0  0  0  0  0  0  0  0  0  0  0  0
   57.2100   29.2440   45.9920 N   0  0  0  0  0  0  0  0  0  0  0  0
   57.5270   27.8520   46.0770 C   0  0  0  0  0  0  0  0  0  0  0  0
   57.8020   27.3320   47.1920 O   0  0  0  0  0  0  0  0  0  0  0  0
   57.4190   26.9990   44.8540 C   0  0  0  0  0  0  0  0  0  0  0  0
   56.8380   25.6620   45.2400 C   0  0  0  0  0  0  0  0  0  0  0  0
   57.5610   24.4840   44.9820 C   0  0  0  0  0  0  0  0  0  0  0  0
   56.9900   23.2330   45.2270 C   0  0  0  0  0  0  0  0  0  0  0  0
   55.6880   23.1430   45.7240 C   0  0  0  0  0  0  0  0  0  0  0  0
   54.9010   21.4310   46.0310 Br  0  0  0  0  0  0  0  0  0  0  0  0
   54.9590   24.3070   45.9860 C   0  0  0  0  0  0  0  0  0  0  0  0
   55.5240   25.5640   45.7420 C   0  0  0  0  0  0  0  0  0  0  0  0
   54.7710   26.7080   45.9890 O   0  0  0  0  0  0  0  0  0  0  0  0
   59.4980   30.0660   46.5500 C   0  0  0  0  0  0  0  0  0  0  0  0
   60.4100   31.1260   46.6770 C   0  0  0  0  0  0  0  0  0  0  0  0
   59.9790   32.4010   46.3200 C   0  0  0  0  0  0  0  0  0  0  0  0
   62.0060   33.5040   49.2000 C   0  0  0  0  0  0  0  0  0  0  0  0
   60.6050   33.8630   49.6190 C   0  0  0  0  0  0  0  0  0  0  0  0
   63.0060   33.0430   50.0510 C   0  0  0  0  0  0  0  0  0  0  0  0
   62.8950   32.8130   51.5030 C   0  0  0  0  0  0  0  0  0  0  0  0
   62.6600   33.7940   52.2600 O   0  0  0  0  0  0  0  0  0  0  0  0
   63.0330   31.4930   52.0590 N   0  0  0  0  0  0  0  0  0  0  0  0
   62.6780   30.3100   51.2640 C   0  0  0  0  0  0  0  0  0  0  0  0
   62.4030   29.1070   52.1780 C   0  0  0  0  0  0  0  0  0  0  0  0
   63.5100   28.8320   53.1260 N   0  0  0  0  0  0  0  0  0  0  0  0
   64.4210   27.8040   52.6030 C   0  0  0  0  0  0  0  0  0  0  0  0
   64.2660   30.0290   53.5720 C   0  0  0  0  0  0  0  0  0  0  0  0
   63.4490   31.3200   53.4530 C   0  0  0  0  0  0  0  0  0  0  0  0
   65.4761   32.1723   50.7524 H   0  0  0  0  0  0  0  0  0  0  0  0
   66.1527   32.3036   48.9761 H   0  0  0  0  0  0  0  0  0  0  0  0
   64.5400   33.0880   47.1860 H   0  0  0  0  0  0  0  0  0  0  0  0
   62.6380   34.4217   46.0204 H   0  0  0  0  0  0  0  0  0  0  0  0
   56.8026   31.7852   45.2452 H   0  0  0  0  0  0  0  0  0  0  0  0
   56.7627   27.4885   44.1193 H   0  0  0  0  0  0  0  0  0  0  0  0
   58.4151   26.8578   44.4092 H   0  0  0  0  0  0  0  0  0  0  0  0
   58.5845   24.5481   44.5840 H   0  0  0  0  0  0  0  0  0  0  0  0
   57.5666   22.3176   45.0282 H   0  0  0  0  0  0  0  0  0  0  0  0
   53.9368   24.2345   46.3857 H   0  0  0  0  0  0  0  0  0  0  0  0
   59.7985   29.0506   46.8478 H   0  0  0  0  0  0  0  0  0  0  0  0
   61.4318   30.9547   47.0465 H   0  0  0  0  0  0  0  0  0  0  0  0
   60.5434   33.8788   50.7172 H   0  0  0  0  0  0  0  0  0  0  0  0
   60.3470   34.8563   49.2230 H   0  0  0  0  0  0  0  0  0  0  0  0
   59.9011   33.1162   49.2230 H   0  0  0  0  0  0  0  0  0  0  0  0
   61.7762   30.5288   50.6733 H   0  0  0  0  0  0  0  0  0  0  0  0
   63.5188   30.0647   50.5984 H   0  0  0  0  0  0  0  0  0  0  0  0
   61.4889   29.3081   52.7559 H   0  0  0  0  0  0  0  0  0  0  0  0
   62.2960   28.2224   51.5329 H   0  0  0  0  0  0  0  0  0  0  0  0
   64.8930   27.2714   53.4417 H   0  0  0  0  0  0  0  0  0  0  0  0
   63.8537   27.0900   51.9879 H   0  0  0  0  0  0  0  0  0  0  0  0
   65.1981   28.2813   51.9879 H   0  0  0  0  0  0  0  0  0  0  0  0
   64.5555   29.8910   54.6242 H   0  0  0  0  0  0  0  0  0  0  0  0
   65.1455   30.1299   52.9191 H   0  0  0  0  0  0  0  0  0  0  0  0
   62.5603   31.2551   54.0980 H   0  0  0  0  0  0  0  0  0  0  0  0
   64.0610   32.1781   53.7680 H   0  0  0  0  0  0  0  0  0  0  0  0
  1  2  2  0
  2  3  1  0
  3  4  1  0
  4  5  2  3
  5  6  1  0
  6  7  2  0
  7  8  1  0
  7  9  1  0
  9 10  1  0
 10 11  2  0
 11 12  1  0
 12 13  1  0
 13 14  1  0
 14 15  2  0
 14 16  1  0
 16 17  1  0
 17 18  2  0
 18 19  1  0
 19 20  2  0
 20 21  1  0
 20 22  1  0
 22 23  2  0
 23 24  1  0
 12 25  2  0
 25 26  1  0
 26 27  2  0
  4 28  1  0
 28 29  1  0
 28 30  2  0
 30 31  1  0
 31 32  2  0
 31 33  1  0
 33 34  1  0
 34 35  1  0
 35 36  1  0
 36 37  1  0
 36 38  1  0
 38 39  1  0
 30  2  1  0
 39 33  1  0
 27  6  1  0
 27 10  1  0
 23 17  1  0
  1 40  1  0
  1 41  1  0
  3 42  1  0
  5 43  1  0
 11 44  1  0
 16 45  1  0
 16 46  1  0
 18 47  1  0
 19 48  1  0
 22 49  1  0
 25 50  1  0
 26 51  1  0
 29 52  1  0
 29 53  1  0
 29 54  1  0
 34 55  1  0
 34 56  1  0
 35 57  1  0
 35 58  1  0
 37 59  1  0
 37 60  1  0
 37 61  1  0
 38 62  1  0
 38 63  1  0
 39 64  1  0
 39 65  1  0
M  CHG  4   8  -1   9  -1  13  -1  24  -1
M  END
>  <UniqueID>  (67) 
67

>  <SMILES>  (67) 
C=c1[nH]c(=Cc2c([O-])[n-]c3cc([N-]C(=O)Cc4ccc(Br)cc4[O-])ccc23)c(C)c1C(=O)N1CCN(C)CC1

>  <Energy>  (67) 
153.87274354273583

>  <Genealogy>  (67) 
C=c1[nH]c(=Cc2c([O-])[n-]c3cc([N-]C(=O)Cc4ccc(Br)cc4[O-])ccc23)c(C)c1C(=O)N1CCN(C)CC1 (protonated)
C=c1[nH]c(=Cc2c([O-])[n-]c3cc([N-]C(=O)Cc4ccc(Br)cc4[O-])ccc23)c(C)c1C(=O)N1CCN(C)CC1 (3D coordinates assigned)
C=c1[nH]c(=Cc2c([O-])[n-]c3cc([N-]C(=O)Cc4ccc(Br)cc4[O-])ccc23)c(C)c1C(=O)N1CCN(C)CC1 (nonaromatic ring conformer: 153.87274354273583 kcal/mol)

>  <smiles>  (67) 
C=c1[nH]c(=Cc2c(O)[nH]c3cc(NC(=O)Cc4ccc(Br)cc4O)ccc23)c(C)c1C(=O)N1CCN(C)CC1

>  <score_type>  (67) 
oracle

>  <origin>  (67) 
adg

>  <m_score__min__energy>  (67) 
-16.890000000000001

>  <m_primary>  (67) 
energy

$$$$
67:0
     RDKit          3D

 45 48  0  0  0  0  0  0  0  0999 V2000
   56.6610   30.8540   54.9310 C   0  0  0  0  0  0  0  0  0  0  0  0
   57.1430   30.6720   53.5670 N   0  0  0  0  0  0  0  0  0  0  0  0
   57.2150   29.5010   52.8890 C   0  0  0  0  0  0  0  0  0  0  0  0
   57.8340   29.6880   51.6530 C   0  0  0  0  0  0  0  0  0  0  0  0
   58.1550   31.0300   51.6090 C   0  0  0  0  0  0  0  0  0  0  0  0
   58.8220   31.7810   50.6510 C   0  0  0  0  0  0  0  0  0  0  0  0
   59.0320   33.1530   50.9270 C   0  0  0  0  0  0  0  0  0  0  0  0
   59.6750   34.0310   49.9940 N   0  0  0  0  0  0  0  0  0  0  0  0
   60.6560   33.5350   48.6550 S   0  0  0  0  0  0  0  0  0  0  0  0
   61.6950   34.5790   48.3540 O   0  0  0  0  0  0  0  0  0  0  0  0
   61.3650   32.2580   49.0110 O   0  0  0  0  0  0  0  0  0  0  0  0
   59.6470   33.2480   47.2490 C   0  0  0  0  0  0  0  0  0  0  0  0
   59.8290   33.8260   45.9990 C   0  0  0  0  0  0  0  0  0  0  0  0
   58.8530   33.4450   45.0720 C   0  0  0  0  0  0  0  0  0  0  0  0
   57.9230   32.5480   45.5980 C   0  0  0  0  0  0  0  0  0  0  0  0
   56.7370   31.9860   44.8770 C   0  0  0  0  0  0  0  0  0  0  0  0
   57.0040   30.6360   44.3890 N   0  0  0  0  0  0  0  0  0  0  0  0
   56.3980   29.4380   44.8920 C   0  0  0  0  0  0  0  0  0  0  0  0
   55.1440   29.3370   44.8820 O   0  0  0  0  0  0  0  0  0  0  0  0
   57.1980   28.3060   45.3840 C   0  0  0  0  0  0  0  0  0  0  0  0
   58.5980   28.3670   45.3030 C   0  0  0  0  0  0  0  0  0  0  0  0
   59.3760   27.2910   45.7420 C   0  0  0  0  0  0  0  0  0  0  0  0
   58.7600   26.1450   46.2480 C   0  0  0  0  0  0  0  0  0  0  0  0
   57.3660   26.0780   46.3380 C   0  0  0  0  0  0  0  0  0  0  0  0
   56.5820   27.1510   45.9020 C   0  0  0  0  0  0  0  0  0  0  0  0
   55.1950   27.0540   45.9650 O   0  0  0  0  0  0  0  0  0  0  0  0
   58.2880   32.2550   47.2160 S   0  0  0  0  0  0  0  0  0  0  0  0
   58.5820   33.6840   52.1610 C   0  0  0  0  0  0  0  0  0  0  0  0
   57.9410   32.8940   53.0740 N   0  0  0  0  0  0  0  0  0  0  0  0
   57.7320   31.5870   52.7790 C   0  0  0  0  0  0  0  0  0  0  0  0
   57.4474   30.5571   55.6405 H   0  0  0  0  0  0  0  0  0  0  0  0
   56.4032   31.9114   55.0908 H   0  0  0  0  0  0  0  0  0  0  0  0
   55.7687   30.2309   55.0908 H   0  0  0  0  0  0  0  0  0  0  0  0
   56.8378   28.5371   53.2614 H   0  0  0  0  0  0  0  0  0  0  0  0
   58.0252   28.9294   50.8797 H   0  0  0  0  0  0  0  0  0  0  0  0
   59.1740   31.3270   49.7129 H   0  0  0  0  0  0  0  0  0  0  0  0
   60.6553   34.5125   45.7625 H   0  0  0  0  0  0  0  0  0  0  0  0
   58.8221   33.8142   44.0363 H   0  0  0  0  0  0  0  0  0  0  0  0
   55.8802   31.9550   45.5662 H   0  0  0  0  0  0  0  0  0  0  0  0
   56.5182   32.6307   44.0130 H   0  0  0  0  0  0  0  0  0  0  0  0
   59.0848   29.2641   44.8929 H   0  0  0  0  0  0  0  0  0  0  0  0
   60.4732   27.3477   45.6886 H   0  0  0  0  0  0  0  0  0  0  0  0
   59.3726   25.2926   46.5767 H   0  0  0  0  0  0  0  0  0  0  0  0
   56.8852   25.1796   46.7525 H   0  0  0  0  0  0  0  0  0  0  0  0
   58.7508   34.7471   52.3876 H   0  0  0  0  0  0  0  0  0  0  0  0
  1  2  1  0
  2  3  1  0
  3  4  2  0
  4  5  1  0
  5  6  2  0
  6  7  1  0
  7  8  1  0
  8  9  1  0
  9 10  2  0
  9 11  2  0
  9 12  1  0
 12 13  2  0
 13 14  1  0
 14 15  2  0
 15 16  1  0
 16 17  1  0
 17 18  1  0
 18 19  2  0
 18 20  1  0
 20 21  2  0
 21 22  1  0
 22 23  2  0
 23 24  1  0
 24 25  2  0
 25 26  1  0
 15 27  1  0
  7 28  2  0
 28 29  1  0
 29 30  2  0
 30  2  1  0
 30  5  1  0
 27 12  1  0
 25 20  1  0
  1 31  1  0
  1 32  1  0
  1 33  1  0
  3 34  1  0
  4 35  1  0
  6 36  1  0
 13 37  1  0
 14 38  1  0
 16 39  1  0
 16 40  1  0
 21 41  1  0
 22 42  1  0
 23 43  1  0
 24 44  1  0
 28 45  1  0
M  CHG  3   8  -1  17  -1  26  -1
M  END
>  <UniqueID>  (68) 
68

>  <SMILES>  (68) 
Cn1ccc2cc([N-]S(=O)(=O)c3ccc(C[N-]C(=O)c4ccccc4[O-])s3)cnc21

>  <Energy>  (68) 
113.06358237326822

>  <Genealogy>  (68) 
Cn1ccc2cc([N-]S(=O)(=O)c3ccc(C[N-]C(=O)c4ccccc4[O-])s3)cnc21 (protonated)
Cn1ccc2cc([N-]S(=O)(=O)c3ccc(C[N-]C(=O)c4ccccc4[O-])s3)cnc21 (3D coordinates assigned)
Cn1ccc2cc([N-]S(=O)(=O)c3ccc(C[N-]C(=O)c4ccccc4[O-])s3)cnc21 (optimized conformer: 113.06358237326822 kcal/mol)

>  <smiles>  (68) 
Cn1ccc2cc(NS(=O)(=O)c3ccc(CNC(=O)c4ccccc4O)s3)cnc21

>  <score_type>  (68) 
oracle

>  <origin>  (68) 
adg

>  <m_score__min__energy>  (68) 
-16.120000000000001

>  <m_primary>  (68) 
energy

$$$$
68:0
     RDKit          3D

 56 58  0  0  0  0  0  0  0  0999 V2000
   50.6550   27.0710   52.0360 C   0  0  0  0  0  0  0  0  0  0  0  0
   51.0740   28.4310   52.1010 O   0  0  0  0  0  0  0  0  0  0  0  0
   52.3000   28.8590   52.6310 C   0  0  0  0  0  0  0  0  0  0  0  0
   52.6880   28.3690   53.8860 C   0  0  0  0  0  0  0  0  0  0  0  0
   53.8930   28.7750   54.4620 C   0  0  0  0  0  0  0  0  0  0  0  0
   54.7290   29.6650   53.7860 C   0  0  0  0  0  0  0  0  0  0  0  0
   54.3760   30.1450   52.5150 C   0  0  0  0  0  0  0  0  0  0  0  0
   55.2520   31.0690   51.8450 N   0  0  0  0  0  0  0  0  0  0  0  0
   56.6350   30.8080   51.5490 C   0  0  0  0  0  0  0  0  0  0  0  0
   57.2000   29.7750   51.9990 O   0  0  0  0  0  0  0  0  0  0  0  0
   57.3840   31.7650   50.7880 N   0  0  0  0  0  0  0  0  0  0  0  0
   58.6770   31.4920   50.2230 C   0  0  0  0  0  0  0  0  0  0  0  0
   59.0890   30.3050   50.1270 O   0  0  0  0  0  0  0  0  0  0  0  0
   59.5130   32.6250   49.6800 C   0  0  0  0  0  0  0  0  0  0  0  0
   60.9570   32.3000   49.5190 N   0  0  2  0  0  0  0  0  0  0  0  0
   61.8120   33.1730   50.3660 C   0  0  0  0  0  0  0  0  0  0  0  0
   63.2450   32.6930   50.4020 C   0  0  0  0  0  0  0  0  0  0  0  0
   63.6010   31.5480   51.1330 C   0  0  0  0  0  0  0  0  0  0  0  0
   64.9330   31.1250   51.1730 C   0  0  0  0  0  0  0  0  0  0  0  0
   65.9180   31.8440   50.4890 C   0  0  0  0  0  0  0  0  0  0  0  0
   67.2080   31.4350   50.5320 F   0  0  0  0  0  0  0  0  0  0  0  0
   65.5720   32.9860   49.7620 C   0  0  0  0  0  0  0  0  0  0  0  0
   64.2410   33.4090   49.7150 C   0  0  0  0  0  0  0  0  0  0  0  0
   61.4060   32.3310   48.1010 C   0  0  0  0  0  0  0  0  0  0  0  0
   60.3940   32.9900   47.1890 C   0  0  0  0  0  0  0  0  0  0  0  0
   60.3540   34.3880   47.0600 C   0  0  0  0  0  0  0  0  0  0  0  0
   59.4120   34.9900   46.2230 C   0  0  0  0  0  0  0  0  0  0  0  0
   58.5100   34.2050   45.4990 C   0  0  0  0  0  0  0  0  0  0  0  0
   58.5520   32.8120   45.6110 C   0  0  0  0  0  0  0  0  0  0  0  0
   57.4300   31.8230   44.6920 Cl  0  0  0  0  0  0  0  0  0  0  0  0
   59.4900   32.2060   46.4540 C   0  0  0  0  0  0  0  0  0  0  0  0
   53.1450   29.7590   51.9510 C   0  0  0  0  0  0  0  0  0  0  0  0
   50.5332   26.6757   53.0553 H   0  0  0  0  0  0  0  0  0  0  0  0
   49.6958   27.0080   51.5013 H   0  0  0  0  0  0  0  0  0  0  0  0
   51.4125   26.4791   51.5013 H   0  0  0  0  0  0  0  0  0  0  0  0
   52.0386   27.6599   54.4203 H   0  0  0  0  0  0  0  0  0  0  0  0
   54.1844   28.3925   55.4513 H   0  0  0  0  0  0  0  0  0  0  0  0
   55.6701   29.9923   54.2520 H   0  0  0  0  0  0  0  0  0  0  0  0
   54.8910   32.0300   51.6480 H   0  0  0  0  0  0  0  0  0  0  0  0
   56.9690   32.7120   50.6470 H   0  0  0  0  0  0  0  0  0  0  0  0
   59.1119   32.9077   48.6955 H   0  0  0  0  0  0  0  0  0  0  0  0
   59.4543   33.4401   50.4164 H   0  0  0  0  0  0  0  0  0  0  0  0
   61.0640   31.3170   49.8680 H   0  0  0  0  0  0  0  0  0  0  0  0
   61.7892   34.1951   49.9601 H   0  0  0  0  0  0  0  0  0  0  0  0
   61.4170   33.1455   51.3922 H   0  0  0  0  0  0  0  0  0  0  0  0
   62.8295   30.9822   51.6758 H   0  0  0  0  0  0  0  0  0  0  0  0
   65.2065   30.2251   51.7435 H   0  0  0  0  0  0  0  0  0  0  0  0
   66.3479   33.5525   49.2263 H   0  0  0  0  0  0  0  0  0  0  0  0
   63.9714   34.3059   49.1381 H   0  0  0  0  0  0  0  0  0  0  0  0
   62.3514   32.8903   48.0421 H   0  0  0  0  0  0  0  0  0  0  0  0
   61.5312   31.2907   47.7663 H   0  0  0  0  0  0  0  0  0  0  0  0
   61.0670   35.0108   47.6201 H   0  0  0  0  0  0  0  0  0  0  0  0
   59.3797   36.0858   46.1331 H   0  0  0  0  0  0  0  0  0  0  0  0
   57.7682   34.6826   44.8420 H   0  0  0  0  0  0  0  0  0  0  0  0
   59.5195   31.1099   46.5415 H   0  0  0  0  0  0  0  0  0  0  0  0
   52.8410   30.1623   50.9738 H   0  0  0  0  0  0  0  0  0  0  0  0
  1  2  1  0
  2  3  1  0
  3  4  2  0
  4  5  1  0
  5  6  2  0
  6  7  1  0
  7  8  1  0
  8  9  1  0
  9 10  2  0
  9 11  1  0
 11 12  1  0
 12 13  2  0
 12 14  1  0
 14 15  1  0
 15 16  1  0
 16 17  1  0
 17 18  2  0
 18 19  1  0
 19 20  2  0
 20 21  1  0
 20 22  1  0
 22 23  2  0
 15 24  1  0
 24 25  1  0
 25 26  2  0
 26 27  1  0
 27 28  2  0
 28 29  1  0
 29 30  1  0
 29 31  2  0
  7 32  2  0
 32  3  1  0
 23 17  1  0
 31 25  1  0
  1 33  1  0
  1 34  1  0
  1 35  1  0
  4 36  1  0
  5 37  1  0
  6 38  1  0
  8 39  1  0
 11 40  1  0
 14 41  1  0
 14 42  1  0
 15 43  1  1
 16 44  1  0
 16 45  1  0
 18 46  1  0
 19 47  1  0
 22 48  1  0
 23 49  1  0
 24 50  1  0
 24 51  1  0
 26 52  1  0
 27 53  1  0
 28 54  1  0
 31 55  1  0
 32 56  1  0
M  CHG  1  15   1
M  END
>  <UniqueID>  (69) 
69

>  <SMILES>  (69) 
COc1cccc(NC(=O)NC(=O)C[N@H+](Cc2ccc(F)cc2)Cc2cccc(Cl)c2)c1

>  <Energy>  (69) 
65.4231946059983

>  <Genealogy>  (69) 
COc1cccc(NC(=O)NC(=O)C[NH+](Cc2ccc(F)cc2)Cc2cccc(Cl)c2)c1 (protonated)
COc1cccc(NC(=O)NC(=O)C[N@H+](Cc2ccc(F)cc2)Cc2cccc(Cl)c2)c1 (chirality)
COc1cccc(NC(=O)NC(=O)C[N@H+](Cc2ccc(F)cc2)Cc2cccc(Cl)c2)c1 (3D coordinates assigned)
COc1cccc(NC(=O)NC(=O)C[N@H+](Cc2ccc(F)cc2)Cc2cccc(Cl)c2)c1 (optimized conformer: 65.4231946059983 kcal/mol)

>  <smiles>  (69) 
COc1cccc(NC(=O)NC(=O)CN(Cc2ccc(F)cc2)Cc2cccc(Cl)c2)c1

>  <score_type>  (69) 
oracle

>  <origin>  (69) 
adg

>  <m_score__min__energy>  (69) 
-7.2199999999999998

>  <m_primary>  (69) 
energy

$$$$
69:0
     RDKit          3D

 48 50  0  0  0  0  0  0  0  0999 V2000
   67.0910   32.4470   50.7980 C   0  0  0  0  0  0  0  0  0  0  0  0
   66.2440   32.7810   49.7170 O   0  0  0  0  0  0  0  0  0  0  0  0
   64.8770   32.9840   49.8710 C   0  0  0  0  0  0  0  0  0  0  0  0
   64.0950   32.8420   48.7460 C   0  0  0  0  0  0  0  0  0  0  0  0
   62.7340   33.0330   48.8470 C   0  0  0  0  0  0  0  0  0  0  0  0
   62.1280   33.3670   50.0630 C   0  0  0  0  0  0  0  0  0  0  0  0
   60.6590   33.5350   50.0360 C   0  0  0  0  0  0  0  0  0  0  0  0
   60.1110   33.7340   48.7160 N   0  0  0  0  0  0  0  0  0  0  0  0
   59.2790   32.8180   48.0380 C   0  0  0  0  0  0  0  0  0  0  0  0
   58.9900   31.7460   48.6220 O   0  0  0  0  0  0  0  0  0  0  0  0
   58.7420   33.0490   46.7040 C   0  0  0  0  0  0  0  0  0  0  0  0
   58.3630   34.2970   46.2440 C   0  0  0  0  0  0  0  0  0  0  0  0
   57.8670   34.4800   44.9680 C   0  0  0  0  0  0  0  0  0  0  0  0
   57.7270   33.4240   44.0920 C   0  0  0  0  0  0  0  0  0  0  0  0
   58.1060   32.1500   44.5380 C   0  0  0  0  0  0  0  0  0  0  0  0
   57.9430   31.0480   43.5730 C   0  0  0  0  0  0  0  0  0  0  0  0
   57.5990   29.7660   44.2510 C   0  0  0  0  0  0  0  0  0  0  0  0
   58.6350   28.8560   44.4820 C   0  0  0  0  0  0  0  0  0  0  0  0
   58.3490   27.6990   45.1000 N   0  0  0  0  0  0  0  0  0  0  0  0
   57.1020   27.3980   45.4960 C   0  0  0  0  0  0  0  0  0  0  0  0
   56.8000   26.2860   46.0960 N   0  0  0  0  0  0  0  0  0  0  0  0
   56.1080   28.2630   45.2780 N   0  0  0  0  0  0  0  0  0  0  0  0
   56.2970   29.4680   44.6570 C   0  0  0  0  0  0  0  0  0  0  0  0
   55.3860   30.2200   44.4720 N   0  0  0  0  0  0  0  0  0  0  0  0
   58.5970   32.0010   45.8160 C   0  0  0  0  0  0  0  0  0  0  0  0
   62.9060   33.5100   51.1890 C   0  0  0  0  0  0  0  0  0  0  0  0
   64.2880   33.3130   51.0710 C   0  0  0  0  0  0  0  0  0  0  0  0
   66.5728   32.6513   51.7465 H   0  0  0  0  0  0  0  0  0  0  0  0
   67.3502   31.3793   50.7444 H   0  0  0  0  0  0  0  0  0  0  0  0
   68.0092   33.0504   50.7444 H   0  0  0  0  0  0  0  0  0  0  0  0
   64.5508   32.5796   47.7799 H   0  0  0  0  0  0  0  0  0  0  0  0
   62.1085   32.9201   47.9492 H   0  0  0  0  0  0  0  0  0  0  0  0
   60.2006   32.6330   50.4676 H   0  0  0  0  0  0  0  0  0  0  0  0
   60.4340   34.4445   50.6123 H   0  0  0  0  0  0  0  0  0  0  0  0
   60.3430   34.6270   48.2130 H   0  0  0  0  0  0  0  0  0  0  0  0
   58.4590   35.1661   46.9114 H   0  0  0  0  0  0  0  0  0  0  0  0
   57.5773   35.4903   44.6433 H   0  0  0  0  0  0  0  0  0  0  0  0
   57.3311   33.5763   43.0771 H   0  0  0  0  0  0  0  0  0  0  0  0
   57.1375   31.3064   42.8699 H   0  0  0  0  0  0  0  0  0  0  0  0
   58.8985   30.9107   43.0457 H   0  0  0  0  0  0  0  0  0  0  0  0
   59.6632   29.0833   44.1640 H   0  0  0  0  0  0  0  0  0  0  0  0
   59.0830   26.9760   45.3020 H   0  0  0  0  0  0  0  0  0  0  0  0
   56.5580   25.4110   45.5420 H   0  0  0  0  0  0  0  0  0  0  0  0
   55.1440   28.0340   45.5820 H   0  0  0  0  0  0  0  0  0  0  0  0
   54.6090   30.7520   44.4050 H   0  0  0  0  0  0  0  0  0  0  0  0
   58.8893   30.9936   46.1473 H   0  0  0  0  0  0  0  0  0  0  0  0
   62.4543   33.7723   52.1571 H   0  0  0  0  0  0  0  0  0  0  0  0
   64.9212   33.4245   51.9636 H   0  0  0  0  0  0  0  0  0  0  0  0
  1  2  1  0
  2  3  1  0
  3  4  2  0
  4  5  1  0
  5  6  2  0
  6  7  1  0
  7  8  1  0
  8  9  1  0
  9 10  2  0
  9 11  1  0
 11 12  2  0
 12 13  1  0
 13 14  2  0
 14 15  1  0
 15 16  1  0
 16 17  1  0
 17 18  2  0
 18 19  1  0
 19 20  1  0
 20 21  2  3
 20 22  1  0
 22 23  1  0
 23 24  2  3
 15 25  2  0
  6 26  1  0
 26 27  2  0
 27  3  1  0
 25 11  1  0
 23 17  1  0
  1 28  1  0
  1 29  1  0
  1 30  1  0
  4 31  1  0
  5 32  1  0
  7 33  1  0
  7 34  1  0
  8 35  1  0
 12 36  1  0
 13 37  1  0
 14 38  1  0
 16 39  1  0
 16 40  1  0
 18 41  1  0
 19 42  1  0
 21 43  1  0
 22 44  1  0
 24 45  1  0
 25 46  1  0
 26 47  1  0
 27 48  1  0
M  END
>  <smiles>  (70) 
COc1ccc(CNC(=O)c2cccc(Cc3c[nH]c(=N)[nH]c3=N)c2)cc1

>  <score_type>  (70) 
oracle

>  <origin>  (70) 
adg

>  <m_score__min__energy>  (70) 
-8.3699999999999992

>  <m_primary>  (70) 
energy

$$$$
70:0
     RDKit          3D

 38 39  0  0  0  0  0  0  0  0999 V2000
   55.5200   28.8470   45.0890 N   0  0  0  0  0  0  0  0  0  0  0  0
   56.6330   29.9730   44.3970 S   0  0  0  0  0  0  0  0  0  0  0  0
   56.7360   29.7350   42.9170 O   0  0  0  0  0  0  0  0  0  0  0  0
   56.1340   31.3720   44.6270 O   0  0  0  0  0  0  0  0  0  0  0  0
   58.2130   29.7720   45.1450 C   0  0  0  0  0  0  0  0  0  0  0  0
   59.2010   29.0100   44.5100 C   0  0  0  0  0  0  0  0  0  0  0  0
   60.4510   28.8420   45.1110 C   0  0  0  0  0  0  0  0  0  0  0  0
   60.7130   29.4120   46.3600 C   0  0  0  0  0  0  0  0  0  0  0  0
   59.7170   30.1440   47.0260 C   0  0  0  0  0  0  0  0  0  0  0  0
   59.9620   30.7400   48.3580 C   0  0  0  0  0  0  0  0  0  0  0  0
   59.0880   30.6070   49.2540 O   0  0  0  0  0  0  0  0  0  0  0  0
   61.1840   31.4130   48.6900 N   0  0  0  0  0  0  0  0  0  0  0  0
   62.2900   31.6780   47.7780 C   0  0  0  0  0  0  0  0  0  0  0  0
   62.3130   33.1400   47.4490 C   0  0  0  0  0  0  0  0  0  0  0  0
   62.8600   33.5130   46.3800 O   0  0  0  0  0  0  0  0  0  0  0  0
   61.6790   34.1230   48.2800 N   0  0  0  0  0  0  0  0  0  0  0  0
   60.2470   34.2280   48.5480 C   0  0  0  0  0  0  0  0  0  0  0  0
   59.4350   34.1390   47.2810 C   0  0  0  0  0  0  0  0  0  0  0  0
   58.1520   33.5630   47.3070 C   0  0  0  0  0  0  0  0  0  0  0  0
   57.3760   33.5180   46.1460 C   0  0  0  0  0  0  0  0  0  0  0  0
   57.8730   34.0400   44.9490 C   0  0  0  0  0  0  0  0  0  0  0  0
   59.1410   34.6270   44.9170 C   0  0  0  0  0  0  0  0  0  0  0  0
   59.9150   34.6890   46.0810 C   0  0  0  0  0  0  0  0  0  0  0  0
   58.4780   30.3460   46.3970 C   0  0  0  0  0  0  0  0  0  0  0  0
   54.6170   29.3530   45.2220 H   0  0  0  0  0  0  0  0  0  0  0  0
   58.9927   28.5428   43.5362 H   0  0  0  0  0  0  0  0  0  0  0  0
   61.2314   28.2593   44.5996 H   0  0  0  0  0  0  0  0  0  0  0  0
   61.7030   29.2867   46.8228 H   0  0  0  0  0  0  0  0  0  0  0  0
   63.2386   31.3929   48.2564 H   0  0  0  0  0  0  0  0  0  0  0  0
   62.1595   31.0921   46.8562 H   0  0  0  0  0  0  0  0  0  0  0  0
   59.9492   33.4101   49.2205 H   0  0  0  0  0  0  0  0  0  0  0  0
   60.0554   35.2076   49.0102 H   0  0  0  0  0  0  0  0  0  0  0  0
   57.7579   33.1461   48.2455 H   0  0  0  0  0  0  0  0  0  0  0  0
   56.3715   33.0706   46.1744 H   0  0  0  0  0  0  0  0  0  0  0  0
   57.2668   33.9890   44.0325 H   0  0  0  0  0  0  0  0  0  0  0  0
   59.5310   35.0408   43.9754 H   0  0  0  0  0  0  0  0  0  0  0  0
   60.9037   35.1706   46.0562 H   0  0  0  0  0  0  0  0  0  0  0  0
   57.7092   30.9592   46.8900 H   0  0  0  0  0  0  0  0  0  0  0  0
  1  2  1  0
  2  3  2  0
  2  4  2  0
  2  5  1  0
  5  6  2  0
  6  7  1  0
  7  8  2  0
  8  9  1  0
  9 10  1  0
 10 11  2  0
 10 12  1  0
 12 13  1  0
 13 14  1  0
 14 15  2  0
 14 16  1  0
 16 17  1  0
 17 18  1  0
 18 19  2  0
 19 20  1  0
 20 21  2  0
 21 22  1  0
 22 23  2  0
  9 24  2  0
 24  5  1  0
 23 18  1  0
  1 25  1  0
  6 26  1  0
  7 27  1  0
  8 28  1  0
 13 29  1  0
 13 30  1  0
 17 31  1  0
 17 32  1  0
 19 33  1  0
 20 34  1  0
 21 35  1  0
 22 36  1  0
 23 37  1  0
 24 38  1  0
M  CHG  3   1  -1  12  -1  16  -1
M  END
>  <UniqueID>  (71) 
70

>  <SMILES>  (71) 
[NH-]S(=O)(=O)c1cccc(C(=O)[N-]CC(=O)[N-]Cc2ccccc2)c1

>  <Energy>  (71) 
35.941199116109246

>  <Genealogy>  (71) 
[NH-]S(=O)(=O)c1cccc(C(=O)[N-]CC(=O)[N-]Cc2ccccc2)c1 (protonated)
[NH-]S(=O)(=O)c1cccc(C(=O)[N-]CC(=O)[N-]Cc2ccccc2)c1 (3D coordinates assigned)
[NH-]S(=O)(=O)c1cccc(C(=O)[N-]CC(=O)[N-]Cc2ccccc2)c1 (optimized conformer: 35.941199116109246 kcal/mol)

>  <smiles>  (71) 
NS(=O)(=O)c1cccc(C(=O)NCC(=O)NCc2ccccc2)c1

>  <score_type>  (71) 
oracle

>  <origin>  (71) 
adg

>  <m_score__min__energy>  (71) 
-13.9

>  <m_primary>  (71) 
energy

$$$$
71:0
     RDKit          3D

 49 52  0  0  0  0  0  0  0  0999 V2000
   59.7310   26.9610   48.4360 C   0  0  0  0  0  0  0  0  0  0  0  0
   59.6990   28.0350   47.6270 C   0  0  0  0  0  0  0  0  0  0  0  0
   59.3380   28.0400   46.2700 C   0  0  0  0  0  0  0  0  0  0  0  0
   58.7560   27.0960   45.5040 C   0  0  0  0  0  0  0  0  0  0  0  0
   57.4340   26.4930   45.7440 C   0  0  0  0  0  0  0  0  0  0  0  0
   57.2420   25.2760   46.2860 N   0  0  0  0  0  0  0  0  0  0  0  0
   55.9030   25.2090   46.4380 C   0  0  0  0  0  0  0  0  0  0  0  0
   55.3230   24.1970   46.9110 O   0  0  0  0  0  0  0  0  0  0  0  0
   55.2330   26.3160   46.0510 N   0  0  0  0  0  0  0  0  0  0  0  0
   56.2170   27.1250   45.6260 C   0  0  0  0  0  0  0  0  0  0  0  0
   55.9960   28.4110   45.1420 O   0  0  0  0  0  0  0  0  0  0  0  0
   59.6850   29.2850   45.7810 C   0  0  0  0  0  0  0  0  0  0  0  0
   60.1520   30.0180   46.8480 C   0  0  0  0  0  0  0  0  0  0  0  0
   60.6050   31.4180   46.7390 C   0  0  0  0  0  0  0  0  0  0  0  0
   61.8410   31.6580   46.8090 O   0  0  0  0  0  0  0  0  0  0  0  0
   59.6760   32.4970   46.5160 N   0  0  0  0  0  0  0  0  0  0  0  0
   60.1110   33.8770   46.7540 C   0  0  0  0  0  0  0  0  0  0  0  0
   58.8930   34.7700   47.0110 C   0  0  0  0  0  0  0  0  0  0  0  0
   57.9430   34.6320   45.9730 O   0  0  0  0  0  0  0  0  0  0  0  0
   57.4200   33.3180   45.9780 C   0  0  0  0  0  0  0  0  0  0  0  0
   58.5120   32.2940   45.6440 C   0  0  0  0  0  0  0  0  0  0  0  0
   60.1650   29.2680   47.9790 N   0  0  0  0  0  0  0  0  0  0  0  0
   60.7710   29.6780   49.2590 C   0  0  0  0  0  0  0  0  0  0  0  0
   59.8640   30.6310   49.9950 C   0  0  0  0  0  0  0  0  0  0  0  0
   58.6700   30.1720   50.5790 C   0  0  0  0  0  0  0  0  0  0  0  0
   57.8410   31.0550   51.2770 C   0  0  0  0  0  0  0  0  0  0  0  0
   58.1930   32.4030   51.3970 C   0  0  0  0  0  0  0  0  0  0  0  0
   57.3690   33.2780   52.0930 O   0  0  0  0  0  0  0  0  0  0  0  0
   59.3750   32.8700   50.8130 C   0  0  0  0  0  0  0  0  0  0  0  0
   60.2060   31.9900   50.1140 C   0  0  0  0  0  0  0  0  0  0  0  0
   60.0309   27.0738   49.4883 H   0  0  0  0  0  0  0  0  0  0  0  0
   59.4573   25.9698   48.0453 H   0  0  0  0  0  0  0  0  0  0  0  0
   59.3163   26.7461   44.6244 H   0  0  0  0  0  0  0  0  0  0  0  0
   56.1800   28.6490   44.1740 H   0  0  0  0  0  0  0  0  0  0  0  0
   59.6035   29.6252   44.7381 H   0  0  0  0  0  0  0  0  0  0  0  0
   60.7748   33.9042   47.6307 H   0  0  0  0  0  0  0  0  0  0  0  0
   60.6498   34.2450   45.8684 H   0  0  0  0  0  0  0  0  0  0  0  0
   58.4289   34.4814   47.9657 H   0  0  0  0  0  0  0  0  0  0  0  0
   59.2251   35.8180   47.0488 H   0  0  0  0  0  0  0  0  0  0  0  0
   57.0113   33.0967   46.9750 H   0  0  0  0  0  0  0  0  0  0  0  0
   56.6298   33.2509   45.2157 H   0  0  0  0  0  0  0  0  0  0  0  0
   58.1171   31.2784   45.7945 H   0  0  0  0  0  0  0  0  0  0  0  0
   58.8196   32.4237   44.5959 H   0  0  0  0  0  0  0  0  0  0  0  0
   60.9397   28.7865   49.8810 H   0  0  0  0  0  0  0  0  0  0  0  0
   61.7253   30.1848   49.0530 H   0  0  0  0  0  0  0  0  0  0  0  0
   58.3870   29.1131   50.4861 H   0  0  0  0  0  0  0  0  0  0  0  0
   56.9095   30.6885   51.7330 H   0  0  0  0  0  0  0  0  0  0  0  0
   59.6509   33.9310   50.9039 H   0  0  0  0  0  0  0  0  0  0  0  0
   61.1332   32.3626   49.6541 H   0  0  0  0  0  0  0  0  0  0  0  0
  1  2  2  0
  2  3  1  0
  3  4  2  3
  4  5  1  0
  5  6  1  0
  6  7  1  0
  7  8  2  0
  7  9  1  0
  9 10  1  0
 10 11  1  0
  3 12  1  0
 12 13  2  0
 13 14  1  0
 14 15  2  0
 14 16  1  0
 16 17  1  0
 17 18  1  0
 18 19  1  0
 19 20  1  0
 20 21  1  0
 13 22  1  0
 22 23  1  0
 23 24  1  0
 24 25  2  0
 25 26  1  0
 26 27  2  0
 27 28  1  0
 27 29  1  0
 29 30  2  0
 22  2  1  0
 30 24  1  0
 10  5  2  0
 21 16  1  0
  1 31  1  0
  1 32  1  0
  4 33  1  0
 11 34  1  0
 12 35  1  0
 17 36  1  0
 17 37  1  0
 18 38  1  0
 18 39  1  0
 20 40  1  0
 20 41  1  0
 21 42  1  0
 21 43  1  0
 23 44  1  0
 23 45  1  0
 25 46  1  0
 26 47  1  0
 29 48  1  0
 30 49  1  0
M  CHG  3   6  -1   9  -1  28  -1
M  END
>  <UniqueID>  (72) 
71

>  <SMILES>  (72) 
C=c1c(=Cc2[n-]c(=O)[n-]c2O)cc(C(=O)N2CCOCC2)n1Cc1ccc([O-])cc1

>  <Energy>  (72) 
126.60122144010113

>  <Genealogy>  (72) 
C=c1c(=Cc2[n-]c(=O)[n-]c2O)cc(C(=O)N2CCOCC2)n1Cc1ccc([O-])cc1 (protonated)
C=c1c(=Cc2[n-]c(=O)[n-]c2O)cc(C(=O)N2CCOCC2)n1Cc1ccc([O-])cc1 (3D coordinates assigned)
C=c1c(=Cc2[n-]c(=O)[n-]c2O)cc(C(=O)N2CCOCC2)n1Cc1ccc([O-])cc1 (nonaromatic ring conformer: 126.60122144010113 kcal/mol)

>  <smiles>  (72) 
C=c1c(=Cc2[nH]c(=O)[nH]c2O)cc(C(=O)N2CCOCC2)n1Cc1ccc(O)cc1

>  <score_type>  (72) 
oracle

>  <origin>  (72) 
adg

>  <m_score__min__energy>  (72) 
-13.130000000000001

>  <m_primary>  (72) 
energy

$$$$
72:0
     RDKit          3D

 57 60  0  0  0  0  0  0  0  0999 V2000
   56.5000   29.5700   42.8450 C   0  0  0  0  0  0  0  0  0  0  0  0
   55.9700   30.1130   44.1370 C   0  0  0  0  0  0  0  0  0  0  0  0
   55.2730   29.3650   44.8720 O   0  0  0  0  0  0  0  0  0  0  0  0
   56.2630   31.4440   44.5830 N   0  0  0  0  0  0  0  0  0  0  0  0
   57.4290   31.8450   45.3120 C   0  0  0  0  0  0  0  0  0  0  0  0
   57.7200   33.4310   45.7820 S   0  0  0  0  0  0  0  0  0  0  0  0
   59.2180   33.1160   46.4720 C   0  0  0  0  0  0  0  0  0  0  0  0
   59.5140   31.7590   46.3600 C   0  0  0  0  0  0  0  0  0  0  0  0
   58.5150   31.0370   45.6720 C   0  0  0  0  0  0  0  0  0  0  0  0
   58.6590   29.6300   45.2530 C   0  0  0  0  0  0  0  0  0  0  0  0
   59.4950   29.3370   44.3550 O   0  0  0  0  0  0  0  0  0  0  0  0
   57.8000   28.6200   45.8010 N   0  0  0  0  0  0  0  0  0  0  0  0
   58.0310   27.2090   45.6550 C   0  0  0  0  0  0  0  0  0  0  0  0
   57.4020   26.4670   44.6410 C   0  0  0  0  0  0  0  0  0  0  0  0
   57.6500   25.0980   44.5120 C   0  0  0  0  0  0  0  0  0  0  0  0
   58.5330   24.4520   45.3890 C   0  0  0  0  0  0  0  0  0  0  0  0
   58.8120   22.7150   45.2510 S   0  0  0  0  0  0  0  0  0  0  0  0
   60.2590   22.4220   45.5400 O   0  0  0  0  0  0  0  0  0  0  0  0
   58.5220   22.2760   43.8430 O   0  0  0  0  0  0  0  0  0  0  0  0
   57.8010   21.8140   46.3580 N   0  0  0  0  0  0  0  0  0  0  0  0
   57.3390   20.5380   45.7580 C   0  0  0  0  0  0  0  0  0  0  0  0
   55.8770   20.5890   45.2880 C   0  0  0  0  0  0  0  0  0  0  0  0
   54.9320   20.9390   46.4510 C   0  0  0  0  0  0  0  0  0  0  0  0
   55.5940   21.8450   47.5040 C   0  0  0  0  0  0  0  0  0  0  0  0
   56.7220   22.6770   46.8840 C   0  0  0  0  0  0  0  0  0  0  0  0
   59.1870   25.1980   46.3790 C   0  0  0  0  0  0  0  0  0  0  0  0
   58.9410   26.5680   46.5070 C   0  0  0  0  0  0  0  0  0  0  0  0
   60.8700   31.2190   46.7490 C   0  0  0  0  0  0  0  0  0  0  0  0
   61.6080   32.1700   47.7090 C   0  0  0  0  0  0  0  0  0  0  0  0
   61.5450   33.6250   47.2180 C   0  0  0  0  0  0  0  0  0  0  0  0
   60.0940   34.1230   47.1540 C   0  0  0  0  0  0  0  0  0  0  0  0
   57.2543   28.7972   43.0540 H   0  0  0  0  0  0  0  0  0  0  0  0
   55.6746   29.1298   42.2662 H   0  0  0  0  0  0  0  0  0  0  0  0
   56.9601   30.3844   42.2662 H   0  0  0  0  0  0  0  0  0  0  0  0
   56.8930   28.9310   46.2190 H   0  0  0  0  0  0  0  0  0  0  0  0
   56.7112   26.9662   43.9456 H   0  0  0  0  0  0  0  0  0  0  0  0
   57.1498   24.5239   43.7181 H   0  0  0  0  0  0  0  0  0  0  0  0
   57.9773   20.3064   44.8926 H   0  0  0  0  0  0  0  0  0  0  0  0
   57.4068   19.7648   46.5375 H   0  0  0  0  0  0  0  0  0  0  0  0
   55.7787   21.3532   44.5030 H   0  0  0  0  0  0  0  0  0  0  0  0
   55.6004   19.5976   44.8999 H   0  0  0  0  0  0  0  0  0  0  0  0
   54.0513   21.4577   46.0445 H   0  0  0  0  0  0  0  0  0  0  0  0
   54.6567   19.9978   46.9493 H   0  0  0  0  0  0  0  0  0  0  0  0
   54.8357   22.5230   47.9226 H   0  0  0  0  0  0  0  0  0  0  0  0
   56.0215   21.2093   48.2933 H   0  0  0  0  0  0  0  0  0  0  0  0
   56.3115   23.2793   46.0602 H   0  0  0  0  0  0  0  0  0  0  0  0
   57.1458   23.3239   47.6662 H   0  0  0  0  0  0  0  0  0  0  0  0
   59.8969   24.7033   47.0582 H   0  0  0  0  0  0  0  0  0  0  0  0
   59.4651   27.1471   47.2816 H   0  0  0  0  0  0  0  0  0  0  0  0
   60.7375   30.2455   47.2436 H   0  0  0  0  0  0  0  0  0  0  0  0
   61.4738   31.1180   45.8351 H   0  0  0  0  0  0  0  0  0  0  0  0
   61.1413   32.1075   48.7031 H   0  0  0  0  0  0  0  0  0  0  0  0
   62.6641   31.8656   47.7528 H   0  0  0  0  0  0  0  0  0  0  0  0
   62.1139   34.2630   47.9103 H   0  0  0  0  0  0  0  0  0  0  0  0
   61.9761   33.6722   46.2071 H   0  0  0  0  0  0  0  0  0  0  0  0
   59.7241   34.2899   48.1764 H   0  0  0  0  0  0  0  0  0  0  0  0
   60.0670   35.0613   46.5805 H   0  0  0  0  0  0  0  0  0  0  0  0
  1  2  1  0
  2  3  2  0
  2  4  1  0
  4  5  1  0
  5  6  1  0
  6  7  1  0
  7  8  2  0
  8  9  1  0
  9 10  1  0
 10 11  2  0
 10 12  1  0
 12 13  1  0
 13 14  2  0
 14 15  1  0
 15 16  2  0
 16 17  1  0
 17 18  2  0
 17 19  2  0
 17 20  1  0
 20 21  1  0
 21 22  1  0
 22 23  1  0
 23 24  1  0
 24 25  1  0
 16 26  1  0
 26 27  2  0
  8 28  1  0
 28 29  1  0
 29 30  1  0
 30 31  1  0
  9  5  2  0
 27 13  1  0
 31  7  1  0
 25 20  1  0
  1 32  1  0
  1 33  1  0
  1 34  1  0
 12 35  1  0
 14 36  1  0
 15 37  1  0
 21 38  1  0
 21 39  1  0
 22 40  1  0
 22 41  1  0
 23 42  1  0
 23 43  1  0
 24 44  1  0
 24 45  1  0
 25 46  1  0
 25 47  1  0
 26 48  1  0
 27 49  1  0
 28 50  1  0
 28 51  1  0
 29 52  1  0
 29 53  1  0
 30 54  1  0
 30 55  1  0
 31 56  1  0
 31 57  1  0
M  CHG  1   4  -1
M  END
>  <UniqueID>  (73) 
72

>  <SMILES>  (73) 
CC(=O)[N-]c1sc2c(c1C(=O)Nc1ccc(S(=O)(=O)N3CCCCC3)cc1)CCCC2

>  <Energy>  (73) 
100.08165992953568

>  <Genealogy>  (73) 
CC(=O)[N-]c1sc2c(c1C(=O)Nc1ccc(S(=O)(=O)N3CCCCC3)cc1)CCCC2 (protonated)
CC(=O)[N-]c1sc2c(c1C(=O)Nc1ccc(S(=O)(=O)N3CCCCC3)cc1)CCCC2 (3D coordinates assigned)
CC(=O)[N-]c1sc2c(c1C(=O)Nc1ccc(S(=O)(=O)N3CCCCC3)cc1)CCCC2 (nonaromatic ring conformer: 100.08165992953568 kcal/mol)

>  <smiles>  (73) 
CC(=O)Nc1sc2c(c1C(=O)Nc1ccc(S(=O)(=O)N3CCCCC3)cc1)CCCC2

>  <score_type>  (73) 
oracle

>  <origin>  (73) 
adg

>  <m_score__min__energy>  (73) 
-11.300000000000001

>  <m_primary>  (73) 
energy

$$$$
73:0
     RDKit          3D

 43 44  0  0  0  0  0  0  0  0999 V2000
   57.3200   29.9160   43.3550 C   0  0  0  0  0  0  0  0  0  0  0  0
   57.8980   30.1300   44.5440 C   0  0  0  0  0  0  0  0  0  0  0  0
   57.9510   31.3590   45.1890 C   0  0  0  0  0  0  0  0  0  0  0  0
   57.3680   32.6550   44.7000 C   0  0  0  0  0  0  0  0  0  0  0  0
   58.6000   31.1440   46.3930 C   0  0  0  0  0  0  0  0  0  0  0  0
   58.8790   32.1620   47.4250 C   0  0  0  0  0  0  0  0  0  0  0  0
   57.9480   32.4970   48.2060 O   0  0  0  0  0  0  0  0  0  0  0  0
   60.1850   32.7660   47.5580 N   0  0  0  0  0  0  0  0  0  0  0  0
   60.3210   34.0530   48.2570 C   0  0  0  0  0  0  0  0  0  0  0  0
   60.2950   33.8440   49.7670 C   0  0  0  0  0  0  0  0  0  0  0  0
   61.3930   32.0600   47.1000 C   0  0  0  0  0  0  0  0  0  0  0  0
   62.6480   32.8190   47.5150 C   0  0  0  0  0  0  0  0  0  0  0  0
   58.9380   29.7950   46.4300 C   0  0  0  0  0  0  0  0  0  0  0  0
   59.6160   29.2080   47.4270 C   0  0  0  0  0  0  0  0  0  0  0  0
   58.5050   29.1730   45.2980 N   0  0  0  0  0  0  0  0  0  0  0  0
   58.5960   27.7400   44.9690 C   0  0  0  0  0  0  0  0  0  0  0  0
   57.4520   26.9900   45.5830 C   0  0  0  0  0  0  0  0  0  0  0  0
   57.5680   25.7820   46.1600 N   0  0  0  0  0  0  0  0  0  0  0  0
   56.3020   25.4920   46.5340 C   0  0  0  0  0  0  0  0  0  0  0  0
   55.9980   24.4220   47.1210 O   0  0  0  0  0  0  0  0  0  0  0  0
   55.3900   26.4370   46.2260 N   0  0  0  0  0  0  0  0  0  0  0  0
   56.1340   27.3790   45.6220 C   0  0  0  0  0  0  0  0  0  0  0  0
   55.6190   28.5670   45.1150 O   0  0  0  0  0  0  0  0  0  0  0  0
   57.3237   28.9078   42.9152 H   0  0  0  0  0  0  0  0  0  0  0  0
   56.8416   30.7485   42.8182 H   0  0  0  0  0  0  0  0  0  0  0  0
   57.0873   33.2789   45.5614 H   0  0  0  0  0  0  0  0  0  0  0  0
   58.1141   33.1858   44.0904 H   0  0  0  0  0  0  0  0  0  0  0  0
   56.4759   32.4489   44.0904 H   0  0  0  0  0  0  0  0  0  0  0  0
   61.2750   34.5208   47.9724 H   0  0  0  0  0  0  0  0  0  0  0  0
   59.4808   34.7036   47.9727 H   0  0  0  0  0  0  0  0  0  0  0  0
   60.4156   34.8130   50.2734 H   0  0  0  0  0  0  0  0  0  0  0  0
   59.3341   33.3950   50.0585 H   0  0  0  0  0  0  0  0  0  0  0  0
   61.1166   33.1732   50.0585 H   0  0  0  0  0  0  0  0  0  0  0  0
   61.4148   31.0545   47.5455 H   0  0  0  0  0  0  0  0  0  0  0  0
   61.3679   31.9896   46.0025 H   0  0  0  0  0  0  0  0  0  0  0  0
   62.7083   32.8555   48.6127 H   0  0  0  0  0  0  0  0  0  0  0  0
   63.5355   32.3061   47.1159 H   0  0  0  0  0  0  0  0  0  0  0  0
   62.6059   33.8432   47.1159 H   0  0  0  0  0  0  0  0  0  0  0  0
   59.8435   28.1328   47.3791 H   0  0  0  0  0  0  0  0  0  0  0  0
   59.9447   29.8016   48.2928 H   0  0  0  0  0  0  0  0  0  0  0  0
   58.5660   27.6162   43.8764 H   0  0  0  0  0  0  0  0  0  0  0  0
   59.5401   27.3411   45.3684 H   0  0  0  0  0  0  0  0  0  0  0  0
   54.7640   28.9620   45.4900 H   0  0  0  0  0  0  0  0  0  0  0  0
  1  2  2  0
  2  3  1  0
  3  4  1  0
  3  5  2  0
  5  6  1  0
  6  7  2  0
  6  8  1  0
  8  9  1  0
  9 10  1  0
  8 11  1  0
 11 12  1  0
  5 13  1  0
 13 14  2  0
 13 15  1  0
 15 16  1  0
 16 17  1  0
 17 18  1  0
 18 19  1  0
 19 20  2  0
 19 21  1  0
 21 22  1  0
 22 23  1  0
 15  2  1  0
 22 17  2  0
  1 24  1  0
  1 25  1  0
  4 26  1  0
  4 27  1  0
  4 28  1  0
  9 29  1  0
  9 30  1  0
 10 31  1  0
 10 32  1  0
 10 33  1  0
 11 34  1  0
 11 35  1  0
 12 36  1  0
 12 37  1  0
 12 38  1  0
 14 39  1  0
 14 40  1  0
 16 41  1  0
 16 42  1  0
 23 43  1  0
M  CHG  2  18  -1  21  -1
M  END
>  <UniqueID>  (74) 
73

>  <SMILES>  (74) 
C=c1c(C)c(C(=O)N(CC)CC)c(=C)n1Cc1[n-]c(=O)[n-]c1O

>  <Energy>  (74) 
98.18775918105048

>  <Genealogy>  (74) 
C=c1c(C)c(C(=O)N(CC)CC)c(=C)n1Cc1[n-]c(=O)[n-]c1O (protonated)
C=c1c(C)c(C(=O)N(CC)CC)c(=C)n1Cc1[n-]c(=O)[n-]c1O (3D coordinates assigned)
C=c1c(C)c(C(=O)N(CC)CC)c(=C)n1Cc1[n-]c(=O)[n-]c1O (optimized conformer: 98.18775918105048 kcal/mol)

>  <smiles>  (74) 
C=c1c(C)c(C(=O)N(CC)CC)c(=C)n1Cc1[nH]c(=O)[nH]c1O

>  <score_type>  (74) 
oracle

>  <origin>  (74) 
adg

>  <m_score__min__energy>  (74) 
-11.76

>  <m_primary>  (74) 
energy

$$$$
74:0
     RDKit          3D

 48 50  0  0  0  0  0  0  0  0999 V2000
   57.2400   28.4160   55.8780 C   0  0  0  0  0  0  0  0  0  0  0  0
   57.6450   29.2140   54.3360 S   0  0  0  0  0  0  0  0  0  0  0  0
   58.0230   28.1670   53.3270 O   0  0  0  0  0  0  0  0  0  0  0  0
   58.8350   30.0980   54.5930 O   0  0  0  0  0  0  0  0  0  0  0  0
   56.3080   30.2030   53.7730 N   0  0  2  0  0  0  0  0  0  0  0  0
   55.1630   29.4330   53.2180 C   0  0  0  0  0  0  0  0  0  0  0  0
   53.9980   30.2490   52.6980 C   0  0  0  0  0  0  0  0  0  0  0  0
   52.9160   30.5420   53.5470 C   0  0  0  0  0  0  0  0  0  0  0  0
   51.8070   31.2480   53.0700 C   0  0  0  0  0  0  0  0  0  0  0  0
   51.7450   31.6320   51.7280 C   0  0  0  0  0  0  0  0  0  0  0  0
   50.6470   32.3410   51.2560 O   0  0  0  0  0  0  0  0  0  0  0  0
   52.7850   31.2920   50.8590 C   0  0  0  0  0  0  0  0  0  0  0  0
   53.8940   30.5840   51.3350 C   0  0  0  0  0  0  0  0  0  0  0  0
   56.6990   31.4300   53.0220 C   0  0  0  0  0  0  0  0  0  0  0  0
   57.7910   31.2650   51.9780 C   0  0  0  0  0  0  0  0  0  0  0  0
   58.9030   32.1250   51.9690 C   0  0  0  0  0  0  0  0  0  0  0  0
   59.9220   31.9640   51.0260 C   0  0  0  0  0  0  0  0  0  0  0  0
   59.8920   30.8980   50.1260 C   0  0  0  0  0  0  0  0  0  0  0  0
   60.9170   30.7850   49.1750 O   0  0  0  0  0  0  0  0  0  0  0  0
   61.3910   31.8290   48.3680 C   0  0  0  0  0  0  0  0  0  0  0  0
   60.5190   32.6370   47.6140 C   0  0  0  0  0  0  0  0  0  0  0  0
   61.0310   33.6440   46.7900 C   0  0  0  0  0  0  0  0  0  0  0  0
   62.4110   33.8450   46.7050 C   0  0  0  0  0  0  0  0  0  0  0  0
   63.2830   33.0400   47.4450 C   0  0  0  0  0  0  0  0  0  0  0  0
   62.7740   32.0320   48.2680 C   0  0  0  0  0  0  0  0  0  0  0  0
   58.8240   29.9860   50.1780 C   0  0  0  0  0  0  0  0  0  0  0  0
   57.8010   30.1520   51.1150 C   0  0  0  0  0  0  0  0  0  0  0  0
   57.5627   29.0517   56.7157 H   0  0  0  0  0  0  0  0  0  0  0  0
   56.1528   28.2584   55.9349 H   0  0  0  0  0  0  0  0  0  0  0  0
   57.7546   27.4455   55.9349 H   0  0  0  0  0  0  0  0  0  0  0  0
   55.9230   30.5780   54.6730 H   0  0  0  0  0  0  0  0  0  0  0  0
   55.5418   28.8209   52.3862 H   0  0  0  0  0  0  0  0  0  0  0  0
   54.7622   28.8521   54.0617 H   0  0  0  0  0  0  0  0  0  0  0  0
   52.9421   30.2128   54.5963 H   0  0  0  0  0  0  0  0  0  0  0  0
   50.9823   31.5014   53.7524 H   0  0  0  0  0  0  0  0  0  0  0  0
   52.7318   31.5814   49.7991 H   0  0  0  0  0  0  0  0  0  0  0  0
   54.6914   30.2867   50.6380 H   0  0  0  0  0  0  0  0  0  0  0  0
   55.8020   31.8093   52.5107 H   0  0  0  0  0  0  0  0  0  0  0  0
   57.1171   32.1129   53.7762 H   0  0  0  0  0  0  0  0  0  0  0  0
   58.9719   32.9332   52.7120 H   0  0  0  0  0  0  0  0  0  0  0  0
   60.7539   32.6830   50.9931 H   0  0  0  0  0  0  0  0  0  0  0  0
   59.4325   32.4758   47.6732 H   0  0  0  0  0  0  0  0  0  0  0  0
   60.3465   34.2787   46.2080 H   0  0  0  0  0  0  0  0  0  0  0  0
   62.8120   34.6371   46.0555 H   0  0  0  0  0  0  0  0  0  0  0  0
   64.3693   33.2003   47.3791 H   0  0  0  0  0  0  0  0  0  0  0  0
   63.4630   31.3940   48.8409 H   0  0  0  0  0  0  0  0  0  0  0  0
   58.7934   29.1380   49.4781 H   0  0  0  0  0  0  0  0  0  0  0  0
   56.9953   29.4059   51.1793 H   0  0  0  0  0  0  0  0  0  0  0  0
  1  2  1  0
  2  3  2  0
  2  4  2  0
  2  5  1  0
  5  6  1  0
  6  7  1  0
  7  8  2  0
  8  9  1  0
  9 10  2  0
 10 11  1  0
 10 12  1  0
 12 13  2  0
  5 14  1  0
 14 15  1  0
 15 16  2  0
 16 17  1  0
 17 18  2  0
 18 19  1  0
 19 20  1  0
 20 21  2  0
 21 22  1  0
 22 23  2  0
 23 24  1  0
 24 25  2  0
 18 26  1  0
 26 27  2  0
 13  7  1  0
 27 15  1  0
 25 20  1  0
  1 28  1  0
  1 29  1  0
  1 30  1  0
  5 31  1  1
  6 32  1  0
  6 33  1  0
  8 34  1  0
  9 35  1  0
 12 36  1  0
 13 37  1  0
 14 38  1  0
 14 39  1  0
 16 40  1  0
 17 41  1  0
 21 42  1  0
 22 43  1  0
 23 44  1  0
 24 45  1  0
 25 46  1  0
 26 47  1  0
 27 48  1  0
M  CHG  2   5   1  11  -1
M  END
>  <UniqueID>  (75) 
74

>  <SMILES>  (75) 
CS(=O)(=O)[N@H+](Cc1ccc([O-])cc1)Cc1ccc(Oc2ccccc2)cc1

>  <Energy>  (75) 
66.37459997395811

>  <Genealogy>  (75) 
CS(=O)(=O)[NH+](Cc1ccc([O-])cc1)Cc1ccc(Oc2ccccc2)cc1 (protonated)
CS(=O)(=O)[N@H+](Cc1ccc([O-])cc1)Cc1ccc(Oc2ccccc2)cc1 (chirality)
CS(=O)(=O)[N@H+](Cc1ccc([O-])cc1)Cc1ccc(Oc2ccccc2)cc1 (3D coordinates assigned)
CS(=O)(=O)[N@H+](Cc1ccc([O-])cc1)Cc1ccc(Oc2ccccc2)cc1 (optimized conformer: 66.37459997395811 kcal/mol)

>  <smiles>  (75) 
CS(=O)(=O)N(Cc1ccc(O)cc1)Cc1ccc(Oc2ccccc2)cc1

>  <score_type>  (75) 
oracle

>  <origin>  (75) 
adg

>  <m_score__min__energy>  (75) 
-10.279999999999999

>  <m_primary>  (75) 
energy

$$$$
75:0
     RDKit          3D

 36 38  0  0  0  0  0  0  0  0999 V2000
   59.1850   29.1940   48.2990 C   0  0  0  0  0  0  0  0  0  0  0  0
   59.0270   29.7780   47.0980 C   0  0  0  0  0  0  0  0  0  0  0  0
   58.5940   29.1480   45.9180 C   0  0  0  0  0  0  0  0  0  0  0  0
   58.4310   27.8450   45.6150 C   0  0  0  0  0  0  0  0  0  0  0  0
   57.2370   27.0350   45.9160 C   0  0  0  0  0  0  0  0  0  0  0  0
   57.2640   25.7630   46.3550 N   0  0  0  0  0  0  0  0  0  0  0  0
   55.9620   25.4050   46.3470 C   0  0  0  0  0  0  0  0  0  0  0  0
   55.5700   24.2660   46.7150 O   0  0  0  0  0  0  0  0  0  0  0  0
   55.1130   26.3570   45.9030 N   0  0  0  0  0  0  0  0  0  0  0  0
   55.9400   27.3760   45.6210 C   0  0  0  0  0  0  0  0  0  0  0  0
   55.5170   28.5920   45.1000 O   0  0  0  0  0  0  0  0  0  0  0  0
   58.3610   30.1560   44.9980 C   0  0  0  0  0  0  0  0  0  0  0  0
   58.7300   31.3400   45.5970 C   0  0  0  0  0  0  0  0  0  0  0  0
   58.6620   32.6790   44.9280 C   0  0  0  0  0  0  0  0  0  0  0  0
   59.1210   31.1210   46.8770 N   0  0  0  0  0  0  0  0  0  0  0  0
   59.5800   32.1210   47.7730 N   0  0  0  0  0  0  0  0  0  0  0  0
   60.9790   32.4030   47.5400 C   0  0  0  0  0  0  0  0  0  0  0  0
   61.9670   31.5180   48.0130 C   0  0  0  0  0  0  0  0  0  0  0  0
   63.3220   31.7840   47.7980 C   0  0  0  0  0  0  0  0  0  0  0  0
   63.7090   32.9420   47.1200 C   0  0  0  0  0  0  0  0  0  0  0  0
   62.7420   33.8380   46.6610 C   0  0  0  0  0  0  0  0  0  0  0  0
   61.3840   33.5790   46.8720 C   0  0  0  0  0  0  0  0  0  0  0  0
   60.4700   34.4760   46.4290 F   0  0  0  0  0  0  0  0  0  0  0  0
   59.5313   29.7876   49.1579 H   0  0  0  0  0  0  0  0  0  0  0  0
   58.9679   28.1227   48.4225 H   0  0  0  0  0  0  0  0  0  0  0  0
   59.2615   27.3421   45.0979 H   0  0  0  0  0  0  0  0  0  0  0  0
   57.9578   30.0344   43.9818 H   0  0  0  0  0  0  0  0  0  0  0  0
   58.6219   33.4691   45.6923 H   0  0  0  0  0  0  0  0  0  0  0  0
   59.5541   32.8210   44.3003 H   0  0  0  0  0  0  0  0  0  0  0  0
   57.7601   32.7299   44.3003 H   0  0  0  0  0  0  0  0  0  0  0  0
   59.4230   31.7790   48.7490 H   0  0  0  0  0  0  0  0  0  0  0  0
   59.0350   33.0020   47.6820 H   0  0  0  0  0  0  0  0  0  0  0  0
   61.6695   30.6091   48.5566 H   0  0  0  0  0  0  0  0  0  0  0  0
   64.0846   31.0804   48.1632 H   0  0  0  0  0  0  0  0  0  0  0  0
   64.7757   33.1480   46.9477 H   0  0  0  0  0  0  0  0  0  0  0  0
   63.0494   34.7516   46.1311 H   0  0  0  0  0  0  0  0  0  0  0  0
  1  2  2  0
  2  3  1  0
  3  4  2  3
  4  5  1  0
  5  6  1  0
  6  7  1  0
  7  8  2  0
  7  9  1  0
  9 10  1  0
 10 11  1  0
  3 12  1  0
 12 13  2  0
 13 14  1  0
 13 15  1  0
 15 16  1  0
 16 17  1  0
 17 18  2  0
 18 19  1  0
 19 20  2  0
 20 21  1  0
 21 22  2  0
 22 23  1  0
 15  2  1  0
 22 17  1  0
 10  5  2  0
  1 24  1  0
  1 25  1  0
  4 26  1  0
 12 27  1  0
 14 28  1  0
 14 29  1  0
 14 30  1  0
 16 31  1  0
 16 32  1  0
 18 33  1  0
 19 34  1  0
 20 35  1  0
 21 36  1  0
M  CHG  4   6  -1   9  -1  11  -1  16   1
M  END
>  <UniqueID>  (76) 
75

>  <SMILES>  (76) 
C=c1c(=Cc2[n-]c(=O)[n-]c2[O-])cc(C)n1[NH2+]c1ccccc1F

>  <Energy>  (76) 
112.90719209439293

>  <Genealogy>  (76) 
C=c1c(=Cc2[n-]c(=O)[n-]c2[O-])cc(C)n1[NH2+]c1ccccc1F (protonated)
C=c1c(=Cc2[n-]c(=O)[n-]c2[O-])cc(C)n1[NH2+]c1ccccc1F (3D coordinates assigned)
C=c1c(=Cc2[n-]c(=O)[n-]c2[O-])cc(C)n1[NH2+]c1ccccc1F (optimized conformer: 112.90719209439293 kcal/mol)

>  <smiles>  (76) 
C=c1c(=Cc2[nH]c(=O)[nH]c2O)cc(C)n1Nc1ccccc1F

>  <score_type>  (76) 
oracle

>  <origin>  (76) 
adg

>  <m_score__min__energy>  (76) 
-14.06

>  <m_primary>  (76) 
energy

$$$$
76:0
     RDKit          3D

 50 53  0  0  0  0  0  0  0  0999 V2000
   59.5870   29.2380   45.7730 C   0  0  0  0  0  0  0  0  0  0  0  0
   58.3330   29.3430   45.3120 C   0  0  0  0  0  0  0  0  0  0  0  0
   57.4880   28.3040   44.9170 C   0  0  0  0  0  0  0  0  0  0  0  0
   57.7650   26.9870   44.9170 C   0  0  0  0  0  0  0  0  0  0  0  0
   57.2160   26.0290   45.8950 C   0  0  0  0  0  0  0  0  0  0  0  0
   57.9440   25.0270   46.4200 N   0  0  0  0  0  0  0  0  0  0  0  0
   57.0640   24.3700   47.2040 C   0  0  0  0  0  0  0  0  0  0  0  0
   57.3820   23.3600   47.8820 O   0  0  0  0  0  0  0  0  0  0  0  0
   55.8130   24.8750   47.1960 N   0  0  0  0  0  0  0  0  0  0  0  0
   55.9190   25.9180   46.3560 C   0  0  0  0  0  0  0  0  0  0  0  0
   54.8410   26.7120   45.9850 O   0  0  0  0  0  0  0  0  0  0  0  0
   56.2850   28.8160   44.5730 N   0  0  0  0  0  0  0  0  0  0  0  0
   56.4260   30.1430   44.7510 C   0  0  0  0  0  0  0  0  0  0  0  0
   55.5010   30.9650   44.5110 O   0  0  0  0  0  0  0  0  0  0  0  0
   57.6500   30.5050   45.1920 N   0  0  0  0  0  0  0  0  0  0  0  0
   58.1000   31.8480   45.4510 C   0  0  0  0  0  0  0  0  0  0  0  0
   57.8750   32.8640   44.5110 C   0  0  0  0  0  0  0  0  0  0  0  0
   58.2960   34.1700   44.7740 C   0  0  0  0  0  0  0  0  0  0  0  0
   58.9400   34.4720   45.9750 C   0  0  0  0  0  0  0  0  0  0  0  0
   59.1760   33.4660   46.9280 C   0  0  0  0  0  0  0  0  0  0  0  0
   59.8460   33.7840   48.2110 C   0  0  0  0  0  0  0  0  0  0  0  0
   60.2490   34.9590   48.4210 O   0  0  0  0  0  0  0  0  0  0  0  0
   60.0660   32.7720   49.2090 N   0  0  0  0  0  0  0  0  0  0  0  0
   58.9620   31.9030   49.6440 C   0  0  0  0  0  0  0  0  0  0  0  0
   59.4260   30.4430   49.8040 C   0  0  0  0  0  0  0  0  0  0  0  0
   60.9260   30.3090   50.1660 C   0  0  0  0  0  0  0  0  0  0  0  0
   61.1660   29.0660   50.9850 C   0  0  0  0  0  0  0  0  0  0  0  0
   61.6010   29.1690   52.3420 N   0  0  0  0  0  0  0  0  0  0  0  0
   61.0340   27.9270   50.4620 O   0  0  0  0  0  0  0  0  0  0  0  0
   61.4480   31.5630   50.8880 C   0  0  0  0  0  0  0  0  0  0  0  0
   61.3260   32.7850   49.9660 C   0  0  0  0  0  0  0  0  0  0  0  0
   58.7370   32.1570   46.6630 C   0  0  0  0  0  0  0  0  0  0  0  0
   60.1481   30.1422   46.0516 H   0  0  0  0  0  0  0  0  0  0  0  0
   60.0552   28.2476   45.8728 H   0  0  0  0  0  0  0  0  0  0  0  0
   58.4420   26.6015   44.1404 H   0  0  0  0  0  0  0  0  0  0  0  0
   57.3657   32.6321   43.5640 H   0  0  0  0  0  0  0  0  0  0  0  0
   58.1194   34.9628   44.0322 H   0  0  0  0  0  0  0  0  0  0  0  0
   59.2648   35.5034   46.1769 H   0  0  0  0  0  0  0  0  0  0  0  0
   58.5806   32.2653   50.6101 H   0  0  0  0  0  0  0  0  0  0  0  0
   58.1741   31.9339   48.8771 H   0  0  0  0  0  0  0  0  0  0  0  0
   58.8317   29.9740   50.6021 H   0  0  0  0  0  0  0  0  0  0  0  0
   59.2817   29.9487   48.8320 H   0  0  0  0  0  0  0  0  0  0  0  0
   61.4922   30.2158   49.2276 H   0  0  0  0  0  0  0  0  0  0  0  0
   61.7790   28.3070   52.9040 H   0  0  0  0  0  0  0  0  0  0  0  0
   61.7600   30.1020   52.7840 H   0  0  0  0  0  0  0  0  0  0  0  0
   60.8554   31.7327   51.7990 H   0  0  0  0  0  0  0  0  0  0  0  0
   62.5048   31.4142   51.1546 H   0  0  0  0  0  0  0  0  0  0  0  0
   61.3648   33.6983   50.5778 H   0  0  0  0  0  0  0  0  0  0  0  0
   62.1580   32.7562   49.2470 H   0  0  0  0  0  0  0  0  0  0  0  0
   58.8942   31.3674   47.4126 H   0  0  0  0  0  0  0  0  0  0  0  0
  1  2  2  0
  2  3  1  0
  3  4  2  3
  4  5  1  0
  5  6  1  0
  6  7  1  0
  7  8  2  0
  7  9  1  0
  9 10  1  0
 10 11  1  0
  3 12  1  0
 12 13  1  0
 13 14  2  0
 13 15  1  0
 15 16  1  0
 16 17  2  0
 17 18  1  0
 18 19  2  0
 19 20  1  0
 20 21  1  0
 21 22  2  0
 21 23  1  0
 23 24  1  0
 24 25  1  0
 25 26  1  0
 26 27  1  0
 27 28  1  0
 27 29  2  0
 26 30  1  0
 30 31  1  0
 20 32  2  0
 15  2  1  0
 32 16  1  0
 10  5  2  0
 31 23  1  0
  1 33  1  0
  1 34  1  0
  4 35  1  0
 17 36  1  0
 18 37  1  0
 19 38  1  0
 24 39  1  0
 24 40  1  0
 25 41  1  0
 25 42  1  0
 26 43  1  0
 28 44  1  0
 28 45  1  0
 30 46  1  0
 30 47  1  0
 31 48  1  0
 31 49  1  0
 32 50  1  0
M  CHG  4   6  -1   9  -1  11  -1  12  -1
M  END
>  <UniqueID>  (77) 
76

>  <SMILES>  (77) 
C=c1c(=Cc2[n-]c(=O)[n-]c2[O-])[n-]c(=O)n1-c1cccc(C(=O)N2CCC(C(N)=O)CC2)c1

>  <Energy>  (77) 
132.72712675055345

>  <Genealogy>  (77) 
C=c1c(=Cc2[n-]c(=O)[n-]c2[O-])[n-]c(=O)n1-c1cccc(C(=O)N2CCC(C(N)=O)CC2)c1 (protonated)
C=c1c(=Cc2[n-]c(=O)[n-]c2[O-])[n-]c(=O)n1-c1cccc(C(=O)N2CCC(C(N)=O)CC2)c1 (3D coordinates assigned)
C=c1c(=Cc2[n-]c(=O)[n-]c2[O-])[n-]c(=O)n1-c1cccc(C(=O)N2CCC(C(N)=O)CC2)c1 (nonaromatic ring conformer: 132.72712675055345 kcal/mol)

>  <smiles>  (77) 
C=c1c(=Cc2[nH]c(=O)[nH]c2O)[nH]c(=O)n1-c1cccc(C(=O)N2CCC(C(N)=O)CC2)c1

>  <score_type>  (77) 
oracle

>  <origin>  (77) 
adg

>  <m_score__min__energy>  (77) 
-18.559999999999999

>  <m_primary>  (77) 
energy

$$$$
77:0
     RDKit          3D

 36 37  0  0  0  0  0  0  0  0999 V2000
   55.5760   29.7510   46.0030 H   0  0  0  0  0  0  0  0  0  0  0  0
   55.3850   29.2630   45.1360 O   0  0  0  0  0  0  0  0  0  0  0  0
   56.2460   29.3780   44.0660 N   0  0  0  0  0  0  0  0  0  0  0  0
   55.8240   29.4320   43.1140 H   0  0  0  0  0  0  0  0  0  0  0  0
   57.5420   29.3770   44.2290 C   0  0  0  0  0  0  0  0  0  0  0  0
   58.2260   30.5150   44.8900 C   0  0  0  0  0  0  0  0  0  0  0  0
   57.8770   31.8340   44.5650 C   0  0  0  0  0  0  0  0  0  0  0  0
   57.1048   32.0247   43.8052 H   0  0  0  0  0  0  0  0  0  0  0  0
   58.4890   32.8780   45.1850 N   0  0  0  0  0  0  0  0  0  0  0  0
   59.4400   32.6920   46.1420 C   0  0  0  0  0  0  0  0  0  0  0  0
   60.0750   33.7800   46.7540 O   0  0  0  0  0  0  0  0  0  0  0  0
   61.2120   33.6990   47.5710 C   0  0  0  0  0  0  0  0  0  0  0  0
   61.1400   33.8230   48.9720 C   0  0  0  0  0  0  0  0  0  0  0  0
   60.1687   33.9992   49.4573 H   0  0  0  0  0  0  0  0  0  0  0  0
   62.2980   33.7230   49.7480 C   0  0  0  0  0  0  0  0  0  0  0  0
   62.2372   33.8300   50.8411 H   0  0  0  0  0  0  0  0  0  0  0  0
   63.5350   33.4870   49.1370 C   0  0  0  0  0  0  0  0  0  0  0  0
   64.9870   33.3600   50.1130 Cl  0  0  0  0  0  0  0  0  0  0  0  0
   63.6090   33.3430   47.7480 C   0  0  0  0  0  0  0  0  0  0  0  0
   64.5792   33.1517   47.2663 H   0  0  0  0  0  0  0  0  0  0  0  0
   62.4510   33.4420   46.9710 C   0  0  0  0  0  0  0  0  0  0  0  0
   62.5136   33.3171   45.8799 H   0  0  0  0  0  0  0  0  0  0  0  0
   59.8180   31.3940   46.4960 C   0  0  0  0  0  0  0  0  0  0  0  0
   60.5939   31.2316   47.2586 H   0  0  0  0  0  0  0  0  0  0  0  0
   59.2040   30.3050   45.8750 C   0  0  0  0  0  0  0  0  0  0  0  0
   59.4870   29.2804   46.1580 H   0  0  0  0  0  0  0  0  0  0  0  0
   58.3440   28.2640   43.7860 N   0  0  0  0  0  0  0  0  0  0  0  0
   59.3840   28.3640   43.8350 H   0  0  0  0  0  0  0  0  0  0  0  0
   57.7800   27.0080   43.2860 C   0  0  0  0  0  0  0  0  0  0  0  0
   58.4098   26.6325   42.4660 H   0  0  0  0  0  0  0  0  0  0  0  0
   56.7572   27.2011   42.9302 H   0  0  0  0  0  0  0  0  0  0  0  0
   57.7200   25.9720   44.3730 C   0  0  0  0  0  0  0  0  0  0  0  0
   57.8047   24.9079   44.1073 H   0  0  0  0  0  0  0  0  0  0  0  0
   57.5660   26.3150   45.6550 C   0  0  0  0  0  0  0  0  0  0  0  0
   57.5252   25.5369   46.4314 H   0  0  0  0  0  0  0  0  0  0  0  0
   57.4800   27.3755   45.9341 H   0  0  0  0  0  0  0  0  0  0  0  0
  1  2  1  0
  2  3  1  0
  3  4  1  0
  3  5  2  0
  5  6  1  0
  6  7  2  0
  7  8  1  0
  7  9  1  0
  9 10  2  0
 10 11  1  0
 11 12  1  0
 12 13  2  0
 13 14  1  0
 13 15  1  0
 15 16  1  0
 15 17  2  0
 17 18  1  0
 17 19  1  0
 19 20  1  0
 19 21  2  0
 21 22  1  0
 10 23  1  0
 23 24  1  0
 23 25  2  0
 25 26  1  0
  5 27  1  0
 27 28  1  0
 27 29  1  0
 29 30  1  0
 29 31  1  0
 29 32  1  0
 32 33  1  0
 32 34  2  0
 34 35  1  0
 34 36  1  0
 25  6  1  0
 21 12  1  0
M  CHG  1   3   1
M  END
>  <UniqueID>  (78) 
77

>  <SMILES>  (78) 
C=CCN/C(=[NH+]/O)c1ccc(Oc2ccc(Cl)cc2)nc1

>  <Energy>  (78) 
43.15486369366609

>  <Genealogy>  (78) 
C=CCNC(=[NH+]O)c1ccc(Oc2ccc(Cl)cc2)nc1 (protonated)
C=CCN/C(=[NH+]/O)c1ccc(Oc2ccc(Cl)cc2)nc1 (cis-trans isomerization)
C=CCN/C(=[NH+]/O)c1ccc(Oc2ccc(Cl)cc2)nc1 (3D coordinates assigned)
C=CCN/C(=[NH+]/O)c1ccc(Oc2ccc(Cl)cc2)nc1 (optimized conformer: 43.15486369366609 kcal/mol)

>  <smiles>  (78) 
C=CCNC(=NO)c1ccc(Oc2ccc(Cl)cc2)nc1

>  <score_type>  (78) 
oracle

>  <origin>  (78) 
adg

>  <m_score__min__energy>  (78) 
-5.8300000000000001

>  <m_primary>  (78) 
energy

$$$$
78:0
     RDKit          3D

 37 39  0  0  0  0  0  0  0  0999 V2000
   57.2400   31.5380   42.3300 N   0  0  0  0  0  0  0  0  0  0  0  0
   57.3420   30.6300   43.4310 C   0  0  0  0  0  0  0  0  0  0  0  0
   56.2420   29.8590   43.8070 C   0  0  0  0  0  0  0  0  0  0  0  0
   56.3360   28.9800   44.8850 C   0  0  0  0  0  0  0  0  0  0  0  0
   57.5360   28.8470   45.6090 C   0  0  0  0  0  0  0  0  0  0  0  0
   57.5500   27.8850   46.7790 C   0  0  0  0  0  0  0  0  0  0  0  0
   57.2030   26.4840   46.3690 C   0  0  0  0  0  0  0  0  0  0  0  0
   58.1050   25.5090   46.1680 N   0  0  0  0  0  0  0  0  0  0  0  0
   57.3850   24.4650   45.7140 C   0  0  0  0  0  0  0  0  0  0  0  0
   57.8990   23.3530   45.4190 O   0  0  0  0  0  0  0  0  0  0  0  0
   56.0640   24.7150   45.5960 N   0  0  0  0  0  0  0  0  0  0  0  0
   55.9650   25.9960   46.0030 C   0  0  0  0  0  0  0  0  0  0  0  0
   54.7710   26.7040   46.0270 O   0  0  0  0  0  0  0  0  0  0  0  0
   58.6630   29.6280   45.2250 C   0  0  0  0  0  0  0  0  0  0  0  0
   60.2210   29.5840   46.0810 S   0  0  0  0  0  0  0  0  0  0  0  0
   61.3090   29.1790   45.1270 O   0  0  0  0  0  0  0  0  0  0  0  0
   60.1740   28.5660   47.1870 O   0  0  0  0  0  0  0  0  0  0  0  0
   60.6270   31.1700   46.7290 C   0  0  0  0  0  0  0  0  0  0  0  0
   61.9320   31.4390   47.1640 C   0  0  0  0  0  0  0  0  0  0  0  0
   62.2590   32.7020   47.6680 C   0  0  0  0  0  0  0  0  0  0  0  0
   61.2850   33.7030   47.7350 C   0  0  0  0  0  0  0  0  0  0  0  0
   59.9860   33.4430   47.2920 C   0  0  0  0  0  0  0  0  0  0  0  0
   59.6570   32.1830   46.7840 C   0  0  0  0  0  0  0  0  0  0  0  0
   58.5430   30.5140   44.1400 C   0  0  0  0  0  0  0  0  0  0  0  0
   57.7530   31.3590   41.4390 H   0  0  0  0  0  0  0  0  0  0  0  0
   56.6520   32.3990   42.4000 H   0  0  0  0  0  0  0  0  0  0  0  0
   55.2969   29.9449   43.2508 H   0  0  0  0  0  0  0  0  0  0  0  0
   55.4595   28.3815   45.1741 H   0  0  0  0  0  0  0  0  0  0  0  0
   58.5558   27.8843   47.2243 H   0  0  0  0  0  0  0  0  0  0  0  0
   56.7912   28.2220   47.5006 H   0  0  0  0  0  0  0  0  0  0  0  0
   59.1370   25.5530   46.3210 H   0  0  0  0  0  0  0  0  0  0  0  0
   62.7011   30.6545   47.1088 H   0  0  0  0  0  0  0  0  0  0  0  0
   63.2833   32.9081   48.0120 H   0  0  0  0  0  0  0  0  0  0  0  0
   61.5415   34.6945   48.1363 H   0  0  0  0  0  0  0  0  0  0  0  0
   59.2205   34.2313   47.3430 H   0  0  0  0  0  0  0  0  0  0  0  0
   58.6357   31.9849   46.4266 H   0  0  0  0  0  0  0  0  0  0  0  0
   59.4075   31.1262   43.8434 H   0  0  0  0  0  0  0  0  0  0  0  0
  1  2  1  0
  2  3  2  0
  3  4  1  0
  4  5  2  0
  5  6  1  0
  6  7  1  0
  7  8  1  0
  8  9  1  0
  9 10  2  0
  9 11  1  0
 11 12  1  0
 12 13  1  0
  5 14  1  0
 14 15  1  0
 15 16  2  0
 15 17  2  0
 15 18  1  0
 18 19  2  0
 19 20  1  0
 20 21  2  0
 21 22  1  0
 22 23  2  0
 14 24  2  0
 24  2  1  0
 12  7  2  0
 23 18  1  0
  1 25  1  0
  1 26  1  0
  3 27  1  0
  4 28  1  0
  6 29  1  0
  6 30  1  0
  8 31  1  0
 19 32  1  0
 20 33  1  0
 21 34  1  0
 22 35  1  0
 23 36  1  0
 24 37  1  0
M  CHG  2  11  -1  13  -1
M  END
>  <UniqueID>  (79) 
78

>  <SMILES>  (79) 
Nc1ccc(Cc2[nH]c(=O)[n-]c2[O-])c(S(=O)(=O)c2ccccc2)c1

>  <Energy>  (79) 
70.67168707392325

>  <Genealogy>  (79) 
Nc1ccc(Cc2[nH]c(=O)[n-]c2[O-])c(S(=O)(=O)c2ccccc2)c1 (protonated)
Nc1ccc(Cc2[nH]c(=O)[n-]c2[O-])c(S(=O)(=O)c2ccccc2)c1 (3D coordinates assigned)
Nc1ccc(Cc2[nH]c(=O)[n-]c2[O-])c(S(=O)(=O)c2ccccc2)c1 (optimized conformer: 70.67168707392325 kcal/mol)

>  <smiles>  (79) 
Nc1ccc(Cc2[nH]c(=O)[nH]c2O)c(S(=O)(=O)c2ccccc2)c1

>  <score_type>  (79) 
oracle

>  <origin>  (79) 
adg

>  <m_score__min__energy>  (79) 
-13.77

>  <m_primary>  (79) 
energy

$$$$
79:0
     RDKit          3D

 85 90  0  0  0  0  0  0  0  0999 V2000
   61.8663   26.6565   46.8487 H   0  0  0  0  0  0  0  0  0  0  0  0
   60.8050   26.7190   47.1310 C   0  0  0  0  0  0  0  0  0  0  0  0
   59.9360   25.9660   46.4380 C   0  0  0  0  0  0  0  0  0  0  0  0
   60.3252   25.0575   45.9551 H   0  0  0  0  0  0  0  0  0  0  0  0
   58.4970   26.2620   46.2730 C   0  0  0  0  0  0  0  0  0  0  0  0
   57.5540   25.3610   46.7780 C   0  0  0  0  0  0  0  0  0  0  0  0
   57.8816   24.4390   47.2807 H   0  0  0  0  0  0  0  0  0  0  0  0
   56.1960   25.6410   46.6390 C   0  0  0  0  0  0  0  0  0  0  0  0
   55.4481   24.9461   47.0485 H   0  0  0  0  0  0  0  0  0  0  0  0
   55.7930   26.7700   45.9990 N   0  0  0  0  0  0  0  0  0  0  0  0
   56.6730   27.6520   45.4530 C   0  0  0  0  0  0  0  0  0  0  0  0
   56.1930   28.7110   44.8630 N   0  0  0  0  0  0  0  0  0  0  0  0
   56.6600   30.0680   44.9330 C   0  0  0  0  0  0  0  0  0  0  0  0
   55.9550   31.0110   44.4790 O   0  0  0  0  0  0  0  0  0  0  0  0
   57.8680   30.3460   45.6530 N   0  0  0  0  0  0  0  0  0  0  0  0
   58.2970   29.5520   46.1800 H   0  0  0  0  0  0  0  0  0  0  0  0
   58.4290   31.6580   45.8400 C   0  0  0  0  0  0  0  0  0  0  0  0
   58.3140   32.6010   44.8080 C   0  0  0  0  0  0  0  0  0  0  0  0
   57.8154   32.3225   43.8679 H   0  0  0  0  0  0  0  0  0  0  0  0
   58.8270   33.8900   44.9640 C   0  0  0  0  0  0  0  0  0  0  0  0
   58.7387   34.6191   44.1451 H   0  0  0  0  0  0  0  0  0  0  0  0
   59.4520   34.2550   46.1580 C   0  0  0  0  0  0  0  0  0  0  0  0
   59.8570   35.2707   46.2778 H   0  0  0  0  0  0  0  0  0  0  0  0
   59.5640   33.3290   47.2040 C   0  0  0  0  0  0  0  0  0  0  0  0
   60.3240   33.7950   48.7210 S   0  0  0  0  0  0  0  0  0  0  0  0
   60.2970   32.6240   49.6640 O   0  0  0  0  0  0  0  0  0  0  0  0
   59.5310   34.9120   49.3410 O   0  0  0  0  0  0  0  0  0  0  0  0
   61.9720   34.2920   48.3760 N   0  0  0  0  0  0  0  0  0  0  0  0
   62.4650   33.8190   47.0760 C   0  0  0  0  0  0  0  0  0  0  0  0
   61.6869   34.0008   46.3200 H   0  0  0  0  0  0  0  0  0  0  0  0
   63.3911   34.3710   46.8574 H   0  0  0  0  0  0  0  0  0  0  0  0
   62.8140   32.3190   47.0680 C   0  0  0  0  0  0  0  0  0  0  0  0
   62.0265   31.7817   46.5192 H   0  0  0  0  0  0  0  0  0  0  0  0
   63.7996   32.2198   46.5897 H   0  0  0  0  0  0  0  0  0  0  0  0
   62.9310   31.7080   48.4700 C   0  0  0  0  0  0  0  0  0  0  0  0
   61.9214   31.4862   48.8462 H   0  0  0  0  0  0  0  0  0  0  0  0
   63.5365   30.7929   48.3926 H   0  0  0  0  0  0  0  0  0  0  0  0
   63.6350   32.6650   49.4620 C   0  0  2  0  0  0  0  0  0  0  0  0
   64.6688   32.7775   49.1035 H   0  0  0  0  0  0  0  0  0  0  0  0
   63.6990   32.1180   50.8500 N   0  0  0  0  0  0  0  0  0  0  0  0
   64.1600   30.6980   50.8800 C   0  0  0  0  0  0  0  0  0  0  0  0
   64.5160   30.4255   49.8755 H   0  0  0  0  0  0  0  0  0  0  0  0
   64.9568   30.6307   51.6353 H   0  0  0  0  0  0  0  0  0  0  0  0
   63.0560   29.7060   51.2930 C   0  0  0  0  0  0  0  0  0  0  0  0
   62.2673   29.7141   50.5262 H   0  0  0  0  0  0  0  0  0  0  0  0
   63.5137   28.7100   51.3854 H   0  0  0  0  0  0  0  0  0  0  0  0
   62.4540   30.0530   52.6000 N   0  0  0  0  0  0  0  0  0  0  0  0
   62.8580   29.1810   53.7270 C   0  0  0  0  0  0  0  0  0  0  0  0
   63.7951   29.5732   54.1489 H   0  0  0  0  0  0  0  0  0  0  0  0
   62.0297   29.1926   54.4507 H   0  0  0  0  0  0  0  0  0  0  0  0
   63.0800   27.7320   53.3380 C   0  0  0  0  0  0  0  0  0  0  0  0
   61.9990   26.8330   53.2970 C   0  0  0  0  0  0  0  0  0  0  0  0
   60.9868   27.1843   53.5460 H   0  0  0  0  0  0  0  0  0  0  0  0
   62.2020   25.4960   52.9420 C   0  0  0  0  0  0  0  0  0  0  0  0
   61.3499   24.8015   52.9021 H   0  0  0  0  0  0  0  0  0  0  0  0
   63.4880   25.0430   52.6380 C   0  0  0  0  0  0  0  0  0  0  0  0
   63.6460   23.9937   52.3483 H   0  0  0  0  0  0  0  0  0  0  0  0
   64.5730   25.9190   52.7010 C   0  0  0  0  0  0  0  0  0  0  0  0
   65.5854   25.5574   52.4681 H   0  0  0  0  0  0  0  0  0  0  0  0
   64.3740   27.2560   53.0600 C   0  0  0  0  0  0  0  0  0  0  0  0
   65.2339   27.9388   53.1253 H   0  0  0  0  0  0  0  0  0  0  0  0
   62.4800   31.4940   52.9230 C   0  0  0  0  0  0  0  0  0  0  0  0
   61.5967   31.7432   53.5294 H   0  0  0  0  0  0  0  0  0  0  0  0
   63.4027   31.7127   53.4804 H   0  0  0  0  0  0  0  0  0  0  0  0
   62.4670   32.3400   51.6470 C   0  0  0  0  0  0  0  0  0  0  0  0
   61.5916   32.0636   51.0409 H   0  0  0  0  0  0  0  0  0  0  0  0
   62.4192   33.4017   51.9306 H   0  0  0  0  0  0  0  0  0  0  0  0
   62.9230   34.0570   49.4810 C   0  0  0  0  0  0  0  0  0  0  0  0
   62.3716   34.1443   50.4288 H   0  0  0  0  0  0  0  0  0  0  0  0
   63.7181   34.8081   49.3643 H   0  0  0  0  0  0  0  0  0  0  0  0
   59.0360   32.0390   47.0520 C   0  0  0  0  0  0  0  0  0  0  0  0
   59.0963   31.3213   47.8834 H   0  0  0  0  0  0  0  0  0  0  0  0
   58.0560   27.4040   45.5820 C   0  0  0  0  0  0  0  0  0  0  0  0
   58.7856   28.1010   45.1440 H   0  0  0  0  0  0  0  0  0  0  0  0
   60.4490   27.6260   48.2440 C   0  0  0  0  0  0  0  0  0  0  0  0
   59.7330   28.8180   48.0210 C   0  0  0  0  0  0  0  0  0  0  0  0
   59.4337   29.0938   46.9991 H   0  0  0  0  0  0  0  0  0  0  0  0
   59.4010   29.6520   49.0920 C   0  0  0  0  0  0  0  0  0  0  0  0
   58.8544   30.5889   48.9093 H   0  0  0  0  0  0  0  0  0  0  0  0
   59.7620   29.2980   50.3940 C   0  0  0  0  0  0  0  0  0  0  0  0
   59.5091   29.9604   51.2350 H   0  0  0  0  0  0  0  0  0  0  0  0
   60.4450   28.1010   50.6270 C   0  0  0  0  0  0  0  0  0  0  0  0
   60.7196   27.8170   51.6536 H   0  0  0  0  0  0  0  0  0  0  0  0
   60.7800   27.2640   49.5590 C   0  0  0  0  0  0  0  0  0  0  0  0
   61.3057   26.3168   49.7500 H   0  0  0  0  0  0  0  0  0  0  0  0
  1  2  1  0
  2  3  2  0
  3  4  1  0
  3  5  1  0
  5  6  1  0
  6  7  1  0
  6  8  2  0
  8  9  1  0
  8 10  1  0
 10 11  1  0
 11 12  2  3
 12 13  1  0
 13 14  2  0
 13 15  1  0
 15 16  1  0
 15 17  1  0
 17 18  2  0
 18 19  1  0
 18 20  1  0
 20 21  1  0
 20 22  2  0
 22 23  1  0
 22 24  1  0
 24 25  1  0
 25 26  2  0
 25 27  2  0
 25 28  1  0
 28 29  1  0
 29 30  1  0
 29 31  1  0
 29 32  1  0
 32 33  1  0
 32 34  1  0
 32 35  1  0
 35 36  1  0
 35 37  1  0
 35 38  1  0
 38 39  1  6
 38 40  1  0
 40 41  1  0
 41 42  1  0
 41 43  1  0
 41 44  1  0
 44 45  1  0
 44 46  1  0
 44 47  1  0
 47 48  1  0
 48 49  1  0
 48 50  1  0
 48 51  1  0
 51 52  2  0
 52 53  1  0
 52 54  1  0
 54 55  1  0
 54 56  2  0
 56 57  1  0
 56 58  1  0
 58 59  1  0
 58 60  2  0
 60 61  1  0
 47 62  1  0
 62 63  1  0
 62 64  1  0
 62 65  1  0
 65 66  1  0
 65 67  1  0
 38 68  1  0
 68 69  1  0
 68 70  1  0
 24 71  2  0
 71 72  1  0
 11 73  1  0
 73 74  1  0
  2 75  1  0
 75 76  2  0
 76 77  1  0
 76 78  1  0
 78 79  1  0
 78 80  2  0
 80 81  1  0
 80 82  1  0
 82 83  1  0
 82 84  2  0
 84 85  1  0
 73  5  2  0
 84 75  1  0
 71 17  1  0
 68 28  1  0
 65 40  1  0
 60 51  1  0
M  CHG  1  10  -1
M  END
>  <UniqueID>  (80) 
79

>  <SMILES>  (80) 
O=C(N=c1cc(/C=C\c2ccccc2)cc[n-]1)Nc1cccc(S(=O)(=O)N2CCC[C@H](N3CCN(Cc4ccccc4)CC3)C2)c1

>  <Energy>  (80) 
139.11168865783563

>  <Genealogy>  (80) 
O=C(N=c1cc(C=Cc2ccccc2)cc[n-]1)Nc1cccc(S(=O)(=O)N2CCCC(N3CCN(Cc4ccccc4)CC3)C2)c1 (protonated)
O=C(N=c1cc(C=Cc2ccccc2)cc[n-]1)Nc1cccc(S(=O)(=O)N2CCC[C@H](N3CCN(Cc4ccccc4)CC3)C2)c1 (chirality)
O=C(N=c1cc(/C=C\c2ccccc2)cc[n-]1)Nc1cccc(S(=O)(=O)N2CCC[C@H](N3CCN(Cc4ccccc4)CC3)C2)c1 (cis-trans isomerization)
O=C(N=c1cc(/C=C\c2ccccc2)cc[n-]1)Nc1cccc(S(=O)(=O)N2CCC[C@H](N3CCN(Cc4ccccc4)CC3)C2)c1 (3D coordinates assigned)
O=C(N=c1cc(/C=C\c2ccccc2)cc[n-]1)Nc1cccc(S(=O)(=O)N2CCC[C@H](N3CCN(Cc4ccccc4)CC3)C2)c1 (nonaromatic ring conformer: 139.11168865783563 kcal/mol)

>  <smiles>  (80) 
O=C(N=c1cc(C=Cc2ccccc2)cc[nH]1)Nc1cccc(S(=O)(=O)N2CCCC(N3CCN(Cc4ccccc4)CC3)C2)c1

>  <score_type>  (80) 
oracle

>  <origin>  (80) 
adg

>  <m_score__min__energy>  (80) 
-12.880000000000001

>  <m_primary>  (80) 
energy

$$$$
80:0
     RDKit          3D

 56 59  0  0  1  0  0  0  0  0999 V2000
   56.6730   30.1030   44.8560 O   0  0  0  0  0  0  0  0  0  0  0  0
   57.8840   29.7950   45.1280 C   0  0  0  0  0  0  0  0  0  0  0  0
   58.8350   30.8160   45.0200 N   0  0  0  0  0  0  0  0  0  0  0  0
   58.6210   32.0140   45.4450 C   0  0  0  0  0  0  0  0  0  0  0  0
   59.4920   32.5630   46.3660 C   0  0  0  0  0  0  0  0  0  0  0  0
   59.2260   33.8460   46.7990 C   0  0  0  0  0  0  0  0  0  0  0  0
   60.0930   34.5500   47.7740 C   0  0  0  0  0  0  0  0  0  0  0  0
   59.6550   33.9710   49.4310 S   0  0  0  0  0  0  0  0  0  0  0  0
   59.8760   32.2000   49.5650 C   0  0  0  0  0  0  0  0  0  0  0  0
   59.0480   31.3180   48.9890 N   0  0  0  0  0  0  0  0  0  0  0  0
   59.2680   29.9880   49.1210 C   0  0  0  0  0  0  0  0  0  0  0  0
   58.5130   29.1450   48.5960 O   0  0  0  0  0  0  0  0  0  0  0  0
   60.3590   29.5610   49.8600 C   0  0  0  0  0  0  0  0  0  0  0  0
   61.2090   30.4480   50.4500 C   0  0  0  0  0  0  0  0  0  0  0  0
   62.3540   30.1390   51.2130 N   0  0  0  0  0  0  0  0  0  0  0  0
   63.6450   31.1590   51.6070 S   0  0  0  0  0  0  0  0  0  0  0  0
   64.5310   30.4400   52.6170 O   0  0  0  0  0  0  0  0  0  0  0  0
   63.0800   32.3460   52.3870 O   0  0  0  0  0  0  0  0  0  0  0  0
   64.6810   31.7160   50.3290 C   0  0  0  0  0  0  0  0  0  0  0  0
   64.0560   32.2540   49.1220 C   0  0  0  0  0  0  0  0  0  0  0  0
   63.2620   31.5440   48.2470 C   0  0  0  0  0  0  0  0  0  0  0  0
   62.6880   32.0950   47.1190 C   0  0  0  0  0  0  0  0  0  0  0  0
   62.9040   33.4270   46.8300 C   0  0  0  0  0  0  0  0  0  0  0  0
   63.6990   34.1410   47.7050 C   0  0  0  0  0  0  0  0  0  0  0  0
   64.2630   33.5860   48.8180 C   0  0  0  0  0  0  0  0  0  0  0  0
   60.9320   31.7660   50.2790 N   0  0  0  0  0  0  0  0  0  0  0  0
   58.1260   34.5600   46.3260 C   0  0  0  0  0  0  0  0  0  0  0  0
   57.2840   33.9750   45.4080 C   0  0  0  0  0  0  0  0  0  0  0  0
   57.5590   32.7340   45.0050 N   0  0  0  0  0  0  0  0  0  0  0  0
   58.1330   28.4270   45.5150 C   0  0  0  0  0  0  0  0  0  0  0  0
   59.4700   28.0690   45.7270 C   0  0  0  0  0  0  0  0  0  0  0  0
   60.4550   29.0080   45.5590 F   0  0  0  0  0  0  0  0  0  0  0  0
   59.8300   26.7900   46.1010 C   0  0  0  0  0  0  0  0  0  0  0  0
   58.8650   25.8250   46.2770 C   0  0  0  0  0  0  0  0  0  0  0  0
   57.5560   26.1970   46.0640 C   0  0  0  0  0  0  0  0  0  0  0  0
   57.1770   27.4660   45.6910 C   0  0  0  0  0  0  0  0  0  0  0  0
   55.8690   27.8150   45.4850 F   0  0  0  0  0  0  0  0  0  0  0  0
   60.3611   32.0010   46.7386 H   0  0  0  0  0  0  0  0  0  0  0  0
   61.1491   34.3232   47.5663 H   0  0  0  0  0  0  0  0  0  0  0  0
   59.9483   35.6378   47.6985 H   0  0  0  0  0  0  0  0  0  0  0  0
   60.5433   28.4825   49.9731 H   0  0  0  0  0  0  0  0  0  0  0  0
   62.3840   29.1280   51.5700 H   0  0  0  0  0  0  0  0  0  0  0  0
   65.3191   32.5083   50.7475 H   0  0  0  0  0  0  0  0  0  0  0  0
   65.2043   30.8111   49.9865 H   0  0  0  0  0  0  0  0  0  0  0  0
   63.0757   30.4808   48.4591 H   0  0  0  0  0  0  0  0  0  0  0  0
   62.0638   31.4777   46.4562 H   0  0  0  0  0  0  0  0  0  0  0  0
   62.4619   33.8999   45.9407 H   0  0  0  0  0  0  0  0  0  0  0  0
   63.8863   35.2046   47.4960 H   0  0  0  0  0  0  0  0  0  0  0  0
   64.8879   34.2050   49.4786 H   0  0  0  0  0  0  0  0  0  0  0  0
   61.5760   32.4810   50.7280 H   0  0  0  0  0  0  0  0  0  0  0  0
   57.9327   35.5822   46.6835 H   0  0  0  0  0  0  0  0  0  0  0  0
   56.4091   34.5157   45.0178 H   0  0  0  0  0  0  0  0  0  0  0  0
   56.9000   32.3060   44.3000 H   0  0  0  0  0  0  0  0  0  0  0  0
   60.8900   26.5418   46.2586 H   0  0  0  0  0  0  0  0  0  0  0  0
   59.1279   24.7994   46.5753 H   0  0  0  0  0  0  0  0  0  0  0  0
   56.7710   25.4384   46.1994 H   0  0  0  0  0  0  0  0  0  0  0  0
  1  2  2  0
  2  3  1  0
  3  4  2  0
  4  5  1  0
  5  6  2  0
  6  7  1  0
  7  8  1  0
  8  9  1  0
  9 10  2  0
 10 11  1  0
 11 12  2  0
 11 13  1  0
 13 14  2  0
 14 15  1  0
 15 16  1  0
 16 17  2  0
 16 18  2  0
 16 19  1  0
 19 20  1  0
 20 21  2  0
 21 22  1  0
 22 23  2  0
 23 24  1  0
 24 25  2  0
 14 26  1  0
  6 27  1  0
 27 28  2  0
 28 29  1  0
  2 30  1  0
 30 31  2  0
 31 32  1  0
 31 33  1  0
 33 34  2  0
 34 35  1  0
 35 36  2  0
 36 37  1  0
 29  4  1  0
 36 30  1  0
 26  9  1  0
 25 20  1  0
  5 38  1  0
  7 39  1  0
  7 40  1  0
 13 41  1  0
 15 42  1  0
 19 43  1  0
 19 44  1  0
 21 45  1  0
 22 46  1  0
 23 47  1  0
 24 48  1  0
 25 49  1  0
 26 50  1  0
 27 51  1  0
 28 52  1  0
 29 53  1  0
 33 54  1  0
 34 55  1  0
 35 56  1  0
M  END
>  <smiles>  (81) 
O=C(N=c1cc(CSc2nc(=O)cc(NS(=O)(=O)Cc3ccccc3)[nH]2)cc[nH]1)c1c(F)cccc1F

>  <score_type>  (81) 
oracle

>  <origin>  (81) 
adg

>  <m_score__min__energy>  (81) 
-10.43

>  <m_primary>  (81) 
energy

$$$$
81:0
     RDKit          3D

 34 34  0  0  0  0  0  0  0  0999 V2000
   60.3490   28.8320   47.8570 C   0  0  0  0  0  0  0  0  0  0  0  0
   60.3210   27.6200   47.2980 C   0  0  0  0  0  0  0  0  0  0  0  0
   60.0480   27.4250   45.8310 C   0  0  0  0  0  0  0  0  0  0  0  0
   58.7080   27.9480   45.4900 N   0  0  0  0  0  0  0  0  0  0  0  0
   57.5620   27.3500   45.9690 C   0  0  0  0  0  0  0  0  0  0  0  0
   57.6000   26.0270   46.9460 S   0  0  0  0  0  0  0  0  0  0  0  0
   56.3430   27.8350   45.6230 N   0  0  0  0  0  0  0  0  0  0  0  0
   56.2020   28.9040   44.8050 C   0  0  0  0  0  0  0  0  0  0  0  0
   54.9250   29.3440   44.4650 O   0  0  0  0  0  0  0  0  0  0  0  0
   57.3370   29.5400   44.2930 C   0  0  0  0  0  0  0  0  0  0  0  0
   57.2140   30.6990   43.3750 C   0  0  0  0  0  0  0  0  0  0  0  0
   56.2710   30.7160   42.5390 O   0  0  0  0  0  0  0  0  0  0  0  0
   58.1500   31.8420   43.3990 C   0  0  0  0  0  0  0  0  0  0  0  0
   57.9820   32.9050   44.1980 C   0  0  0  0  0  0  0  0  0  0  0  0
   57.4360   32.7780   45.5570 C   0  0  0  0  0  0  0  0  0  0  0  0
   56.6580   33.6720   45.9910 O   0  0  0  0  0  0  0  0  0  0  0  0
   57.7740   31.6840   46.3590 O   0  0  0  0  0  0  0  0  0  0  0  0
   58.8890   31.6960   47.2450 C   0  0  0  0  0  0  0  0  0  0  0  0
   59.0350   33.0790   47.8580 C   0  0  0  0  0  0  0  0  0  0  0  0
   58.5990   29.0220   44.6370 C   0  0  0  0  0  0  0  0  0  0  0  0
   59.6360   29.5630   44.1580 O   0  0  0  0  0  0  0  0  0  0  0  0
   60.5518   28.9368   48.9330 H   0  0  0  0  0  0  0  0  0  0  0  0
   60.1693   29.7258   47.2415 H   0  0  0  0  0  0  0  0  0  0  0  0
   60.5030   26.7373   47.9287 H   0  0  0  0  0  0  0  0  0  0  0  0
   60.8082   27.9621   45.2449 H   0  0  0  0  0  0  0  0  0  0  0  0
   60.0855   26.3507   45.5974 H   0  0  0  0  0  0  0  0  0  0  0  0
   54.7830   30.2520   44.0380 H   0  0  0  0  0  0  0  0  0  0  0  0
   59.0238   31.8196   42.7312 H   0  0  0  0  0  0  0  0  0  0  0  0
   58.2609   33.9018   43.8258 H   0  0  0  0  0  0  0  0  0  0  0  0
   58.7307   30.9560   48.0434 H   0  0  0  0  0  0  0  0  0  0  0  0
   59.8030   31.4442   46.6871 H   0  0  0  0  0  0  0  0  0  0  0  0
   59.0263   32.9967   48.9549 H   0  0  0  0  0  0  0  0  0  0  0  0
   59.9854   33.5264   47.5314 H   0  0  0  0  0  0  0  0  0  0  0  0
   58.1990   33.7150   47.5314 H   0  0  0  0  0  0  0  0  0  0  0  0
  1  2  2  0
  2  3  1  0
  3  4  1  0
  4  5  1  0
  5  6  2  0
  5  7  1  0
  7  8  1  0
  8  9  1  0
  8 10  2  0
 10 11  1  0
 11 12  2  0
 11 13  1  0
 13 14  2  3
 14 15  1  0
 15 16  2  0
 15 17  1  0
 17 18  1  0
 18 19  1  0
 10 20  1  0
 20 21  2  0
 20  4  1  0
  1 22  1  0
  1 23  1  0
  2 24  1  0
  3 25  1  0
  3 26  1  0
  9 27  1  0
 13 28  1  0
 14 29  1  0
 18 30  1  0
 18 31  1  0
 19 32  1  0
 19 33  1  0
 19 34  1  0
M  CHG  1   7  -1
M  END
>  <UniqueID>  (82) 
80

>  <SMILES>  (82) 
C=CCn1c(=S)[n-]c(O)c(C(=O)C=CC(=O)OCC)c1=O

>  <Energy>  (82) 
36.28510055390998

>  <Genealogy>  (82) 
C=CCn1c(=S)[n-]c(O)c(C(=O)C=CC(=O)OCC)c1=O (protonated)
C=CCn1c(=S)[n-]c(O)c(C(=O)C=CC(=O)OCC)c1=O (3D coordinates assigned)
C=CCn1c(=S)[n-]c(O)c(C(=O)C=CC(=O)OCC)c1=O (optimized conformer: 36.28510055390998 kcal/mol)

>  <smiles>  (82) 
C=CCn1c(=S)[nH]c(O)c(C(=O)C=CC(=O)OCC)c1=O

>  <score_type>  (82) 
oracle

>  <origin>  (82) 
adg

>  <m_score__min__energy>  (82) 
-9.1600000000000001

>  <m_primary>  (82) 
energy

$$$$
82:0
     RDKit          3D

 71 75  0  0  0  0  0  0  0  0999 V2000
   57.5660   31.2300   55.0350 C   0  0  0  0  0  0  0  0  0  0  0  0
   57.6010   31.5480   53.6470 O   0  0  0  0  0  0  0  0  0  0  0  0
   58.4080   30.8970   52.6990 C   0  0  0  0  0  0  0  0  0  0  0  0
   58.9350   29.6120   52.9250 C   0  0  0  0  0  0  0  0  0  0  0  0
   59.7590   28.9960   51.9700 C   0  0  0  0  0  0  0  0  0  0  0  0
   60.0340   29.6570   50.7590 C   0  0  0  0  0  0  0  0  0  0  0  0
   59.5030   30.9360   50.5330 C   0  0  0  0  0  0  0  0  0  0  0  0
   58.6890   31.5600   51.4970 C   0  0  0  0  0  0  0  0  0  0  0  0
   58.1530   32.8430   51.3030 O   0  0  0  0  0  0  0  0  0  0  0  0
   58.5470   34.0020   52.0280 C   0  0  0  0  0  0  0  0  0  0  0  0
   60.9890   29.0800   49.7410 C   0  0  0  0  0  0  0  0  0  0  0  0
   61.2610   27.6440   49.9400 N   0  0  0  0  0  0  0  0  0  0  0  0
   60.5460   26.7110   49.0450 C   0  0  0  0  0  0  0  0  0  0  0  0
   60.7560   26.9910   47.5480 C   0  0  0  0  0  0  0  0  0  0  0  0
   59.4900   27.5200   46.9320 C   0  0  0  0  0  0  0  0  0  0  0  0
   58.7920   26.7580   45.9830 C   0  0  0  0  0  0  0  0  0  0  0  0
   57.5980   27.2360   45.4330 C   0  0  0  0  0  0  0  0  0  0  0  0
   57.0910   28.4830   45.8130 C   0  0  0  0  0  0  0  0  0  0  0  0
   55.8500   28.9260   45.2420 N   0  0  0  0  0  0  0  0  0  0  0  0
   55.6790   29.8480   44.1550 C   0  0  0  0  0  0  0  0  0  0  0  0
   54.7260   29.6570   43.3540 O   0  0  0  0  0  0  0  0  0  0  0  0
   56.6130   30.9730   43.9120 C   0  0  0  0  0  0  0  0  0  0  0  0
   57.1630   31.1700   42.6340 C   0  0  0  0  0  0  0  0  0  0  0  0
   58.0540   32.2200   42.3980 C   0  0  0  0  0  0  0  0  0  0  0  0
   58.4160   33.0790   43.4370 C   0  0  0  0  0  0  0  0  0  0  0  0
   57.8850   32.8960   44.7230 C   0  0  0  0  0  0  0  0  0  0  0  0
   58.3130   33.7940   45.8510 C   0  0  0  0  0  0  0  0  0  0  0  0
   59.6220   33.3190   46.4230 C   0  0  0  0  0  0  0  0  0  0  0  0
   60.7350   34.1770   46.4610 C   0  0  0  0  0  0  0  0  0  0  0  0
   61.9600   33.7210   46.9600 C   0  0  0  0  0  0  0  0  0  0  0  0
   62.0840   32.4080   47.4180 C   0  0  0  0  0  0  0  0  0  0  0  0
   60.9850   31.5450   47.3730 C   0  0  0  0  0  0  0  0  0  0  0  0
   59.7590   31.9960   46.8730 C   0  0  0  0  0  0  0  0  0  0  0  0
   56.9960   31.8330   44.9580 C   0  0  0  0  0  0  0  0  0  0  0  0
   57.7760   29.2400   46.7820 C   0  0  0  0  0  0  0  0  0  0  0  0
   58.9700   28.7620   47.3320 C   0  0  0  0  0  0  0  0  0  0  0  0
   61.4480   27.2280   51.3400 C   0  0  0  0  0  0  0  0  0  0  0  0
   60.2630   27.6030   52.2340 C   0  0  0  0  0  0  0  0  0  0  0  0
   57.6676   32.1527   55.6252 H   0  0  0  0  0  0  0  0  0  0  0  0
   56.6090   30.7441   55.2758 H   0  0  0  0  0  0  0  0  0  0  0  0
   58.3945   30.5476   55.2758 H   0  0  0  0  0  0  0  0  0  0  0  0
   58.6986   29.0842   53.8607 H   0  0  0  0  0  0  0  0  0  0  0  0
   59.7257   31.4576   49.5905 H   0  0  0  0  0  0  0  0  0  0  0  0
   58.4784   33.8003   53.1072 H   0  0  0  0  0  0  0  0  0  0  0  0
   59.5839   34.2618   51.7687 H   0  0  0  0  0  0  0  0  0  0  0  0
   57.8832   34.8400   51.7687 H   0  0  0  0  0  0  0  0  0  0  0  0
   60.5554   29.2171   48.7394 H   0  0  0  0  0  0  0  0  0  0  0  0
   61.9457   29.6105   49.8565 H   0  0  0  0  0  0  0  0  0  0  0  0
   60.8973   25.6906   49.2580 H   0  0  0  0  0  0  0  0  0  0  0  0
   59.4720   26.8412   49.2441 H   0  0  0  0  0  0  0  0  0  0  0  0
   61.5567   27.7355   47.4272 H   0  0  0  0  0  0  0  0  0  0  0  0
   61.0335   26.0531   47.0446 H   0  0  0  0  0  0  0  0  0  0  0  0
   59.1857   25.7797   45.6699 H   0  0  0  0  0  0  0  0  0  0  0  0
   57.0538   26.6268   44.6963 H   0  0  0  0  0  0  0  0  0  0  0  0
   56.8897   30.4917   41.8123 H   0  0  0  0  0  0  0  0  0  0  0  0
   58.4711   32.3701   41.3913 H   0  0  0  0  0  0  0  0  0  0  0  0
   59.1201   33.9025   43.2470 H   0  0  0  0  0  0  0  0  0  0  0  0
   58.4320   34.8204   45.4737 H   0  0  0  0  0  0  0  0  0  0  0  0
   57.5464   33.7714   46.6396 H   0  0  0  0  0  0  0  0  0  0  0  0
   60.6424   35.2109   46.0970 H   0  0  0  0  0  0  0  0  0  0  0  0
   62.8265   34.3979   46.9915 H   0  0  0  0  0  0  0  0  0  0  0  0
   63.0465   32.0524   47.8143 H   0  0  0  0  0  0  0  0  0  0  0  0
   61.0846   30.5098   47.7313 H   0  0  0  0  0  0  0  0  0  0  0  0
   58.8988   31.3116   46.8322 H   0  0  0  0  0  0  0  0  0  0  0  0
   56.5956   31.6717   45.9697 H   0  0  0  0  0  0  0  0  0  0  0  0
   57.3714   30.2097   47.1075 H   0  0  0  0  0  0  0  0  0  0  0  0
   59.5051   29.3625   48.0824 H   0  0  0  0  0  0  0  0  0  0  0  0
   61.5774   26.1360   51.3678 H   0  0  0  0  0  0  0  0  0  0  0  0
   62.3335   27.7540   51.7262 H   0  0  0  0  0  0  0  0  0  0  0  0
   59.4444   26.8913   52.0513 H   0  0  0  0  0  0  0  0  0  0  0  0
   60.6073   27.5648   53.2780 H   0  0  0  0  0  0  0  0  0  0  0  0
  1  2  1  0
  2  3  1  0
  3  4  2  0
  4  5  1  0
  5  6  2  0
  6  7  1  0
  7  8  2  0
  8  9  1  0
  9 10  1  0
  6 11  1  0
 11 12  1  0
 12 13  1  0
 13 14  1  0
 14 15  1  0
 15 16  2  0
 16 17  1  0
 17 18  2  0
 18 19  1  0
 19 20  1  0
 20 21  2  0
 20 22  1  0
 22 23  2  0
 23 24  1  0
 24 25  2  0
 25 26  1  0
 26 27  1  0
 27 28  1  0
 28 29  2  0
 29 30  1  0
 30 31  2  0
 31 32  1  0
 32 33  2  0
 26 34  2  0
 18 35  1  0
 35 36  2  0
 12 37  1  0
 37 38  1  0
  8  3  1  0
 36 15  1  0
 38  5  1  0
 34 22  1  0
 33 28  1  0
  1 39  1  0
  1 40  1  0
  1 41  1  0
  4 42  1  0
  7 43  1  0
 10 44  1  0
 10 45  1  0
 10 46  1  0
 11 47  1  0
 11 48  1  0
 13 49  1  0
 13 50  1  0
 14 51  1  0
 14 52  1  0
 16 53  1  0
 17 54  1  0
 23 55  1  0
 24 56  1  0
 25 57  1  0
 27 58  1  0
 27 59  1  0
 29 60  1  0
 30 61  1  0
 31 62  1  0
 32 63  1  0
 33 64  1  0
 34 65  1  0
 35 66  1  0
 36 67  1  0
 37 68  1  0
 37 69  1  0
 38 70  1  0
 38 71  1  0
M  CHG  1  19  -1
M  END
>  <UniqueID>  (83) 
81

>  <SMILES>  (83) 
COc1cc2c(cc1OC)CN(CCc1ccc([N-]C(=O)c3cccc(Cc4ccccc4)c3)cc1)CC2

>  <Energy>  (83) 
90.6839471499302

>  <Genealogy>  (83) 
COc1cc2c(cc1OC)CN(CCc1ccc([N-]C(=O)c3cccc(Cc4ccccc4)c3)cc1)CC2 (protonated)
COc1cc2c(cc1OC)CN(CCc1ccc([N-]C(=O)c3cccc(Cc4ccccc4)c3)cc1)CC2 (3D coordinates assigned)
COc1cc2c(cc1OC)CN(CCc1ccc([N-]C(=O)c3cccc(Cc4ccccc4)c3)cc1)CC2 (nonaromatic ring conformer: 90.6839471499302 kcal/mol)

>  <smiles>  (83) 
COc1cc2c(cc1OC)CN(CCc1ccc(NC(=O)c3cccc(Cc4ccccc4)c3)cc1)CC2

>  <score_type>  (83) 
oracle

>  <origin>  (83) 
adg

>  <m_score__min__energy>  (83) 
-12.300000000000001

>  <m_primary>  (83) 
energy

$$$$
83:0
     RDKit          3D

 63 66  0  0  0  0  0  0  0  0999 V2000
   60.5533   35.1108   48.3267 H   0  0  0  0  0  0  0  0  0  0  0  0
   59.8430   34.6040   47.6570 C   0  0  0  0  0  0  0  0  0  0  0  0
   59.1270   33.4910   48.1100 C   0  0  0  0  0  0  0  0  0  0  0  0
   59.2776   33.1214   49.1350 H   0  0  0  0  0  0  0  0  0  0  0  0
   58.2210   32.8480   47.2630 C   0  0  0  0  0  0  0  0  0  0  0  0
   57.6679   31.9665   47.6193 H   0  0  0  0  0  0  0  0  0  0  0  0
   58.0140   33.3250   45.9550 C   0  0  0  0  0  0  0  0  0  0  0  0
   57.0660   32.6110   45.0280 C   0  0  0  0  0  0  0  0  0  0  0  0
   56.3290   33.3295   44.6400 H   0  0  0  0  0  0  0  0  0  0  0  0
   56.5576   31.8108   45.5858 H   0  0  0  0  0  0  0  0  0  0  0  0
   57.8310   31.9890   43.8540 C   0  0  0  0  0  0  0  0  0  0  0  0
   58.8766   31.8321   44.1574 H   0  0  0  0  0  0  0  0  0  0  0  0
   57.7576   32.6809   43.0020 H   0  0  0  0  0  0  0  0  0  0  0  0
   57.2370   30.6410   43.4150 C   0  0  0  0  0  0  0  0  0  0  0  0
   57.7011   30.3383   42.4648 H   0  0  0  0  0  0  0  0  0  0  0  0
   56.1502   30.7642   43.2979 H   0  0  0  0  0  0  0  0  0  0  0  0
   57.4790   29.5870   44.4260 N   0  0  0  0  0  0  0  0  0  0  0  0
   56.4240   28.9800   45.0470 C   0  0  0  0  0  0  0  0  0  0  0  0
   55.2390   29.3330   44.8020 O   0  0  0  0  0  0  0  0  0  0  0  0
   56.6380   27.9780   45.9270 N   0  0  0  0  0  0  0  0  0  0  0  0
   57.8930   27.5630   46.2260 C   0  0  0  0  0  0  0  0  0  0  0  0
   58.0700   26.5660   47.0470 N   0  0  0  0  0  0  0  0  0  0  0  0
   57.7890   25.1580   46.7490 C   0  0  1  0  0  0  0  0  0  0  0  0
   57.6823   24.5902   47.6851 H   0  0  0  0  0  0  0  0  0  0  0  0
   56.4490   25.0190   45.9850 C   0  0  0  0  0  0  0  0  0  0  0  0
   55.7855   25.8492   46.2688 H   0  0  0  0  0  0  0  0  0  0  0  0
   55.9937   24.0533   46.2498 H   0  0  0  0  0  0  0  0  0  0  0  0
   56.6740   25.0530   44.4660 C   0  0  0  0  0  0  0  0  0  0  0  0
   57.1475   26.0102   44.2022 H   0  0  0  0  0  0  0  0  0  0  0  0
   55.6925   24.9365   43.9831 H   0  0  0  0  0  0  0  0  0  0  0  0
   57.5470   23.9400   43.9850 N   0  0  2  0  0  0  0  0  0  0  0  0
   58.1300   24.3180   43.2010 H   0  0  0  0  0  0  0  0  0  0  0  0
   56.7470   22.8020   43.4600 C   0  0  0  0  0  0  0  0  0  0  0  0
   55.8652   23.1998   42.9365 H   0  0  0  0  0  0  0  0  0  0  0  0
   57.3876   22.2230   42.7786 H   0  0  0  0  0  0  0  0  0  0  0  0
   56.2830   21.8760   44.5640 C   0  0  0  0  0  0  0  0  0  0  0  0
   56.9790   20.6860   44.8360 C   0  0  0  0  0  0  0  0  0  0  0  0
   57.8672   20.4233   44.2426 H   0  0  0  0  0  0  0  0  0  0  0  0
   56.5470   19.8330   45.8590 C   0  0  0  0  0  0  0  0  0  0  0  0
   57.0967   18.9033   46.0676 H   0  0  0  0  0  0  0  0  0  0  0  0
   55.4190   20.1610   46.6150 C   0  0  0  0  0  0  0  0  0  0  0  0
   55.0784   19.4873   47.4151 H   0  0  0  0  0  0  0  0  0  0  0  0
   54.7230   21.3450   46.3550 C   0  0  0  0  0  0  0  0  0  0  0  0
   53.8383   21.6053   46.9546 H   0  0  0  0  0  0  0  0  0  0  0  0
   55.1510   22.2000   45.3320 C   0  0  0  0  0  0  0  0  0  0  0  0
   54.5990   23.1294   45.1284 H   0  0  0  0  0  0  0  0  0  0  0  0
   58.4990   23.4460   45.0180 C   0  0  0  0  0  0  0  0  0  0  0  0
   59.3747   23.0100   44.5149 H   0  0  0  0  0  0  0  0  0  0  0  0
   57.9779   22.6950   45.6299 H   0  0  0  0  0  0  0  0  0  0  0  0
   58.9710   24.5720   45.9480 C   0  0  0  0  0  0  0  0  0  0  0  0
   59.4274   25.3701   45.3441 H   0  0  0  0  0  0  0  0  0  0  0  0
   59.7041   24.1583   46.6561 H   0  0  0  0  0  0  0  0  0  0  0  0
   58.9690   28.1870   45.6520 N   0  0  0  0  0  0  0  0  0  0  0  0
   60.3380   27.7340   45.9550 C   0  0  0  0  0  0  0  0  0  0  0  0
   60.4762   27.6883   47.0453 H   0  0  0  0  0  0  0  0  0  0  0  0
   60.4978   26.7351   45.5229 H   0  0  0  0  0  0  0  0  0  0  0  0
   61.0621   28.4405   45.5229 H   0  0  0  0  0  0  0  0  0  0  0  0
   58.7560   29.1800   44.7290 C   0  0  0  0  0  0  0  0  0  0  0  0
   59.7410   29.7130   44.1430 O   0  0  0  0  0  0  0  0  0  0  0  0
   58.7480   34.4350   45.5040 C   0  0  0  0  0  0  0  0  0  0  0  0
   58.6073   34.8042   44.4774 H   0  0  0  0  0  0  0  0  0  0  0  0
   59.6560   35.0720   46.3540 C   0  0  0  0  0  0  0  0  0  0  0  0
   60.2244   35.9433   45.9966 H   0  0  0  0  0  0  0  0  0  0  0  0
  1  2  1  0
  2  3  2  0
  3  4  1  0
  3  5  1  0
  5  6  1  0
  5  7  2  0
  7  8  1  0
  8  9  1  0
  8 10  1  0
  8 11  1  0
 11 12  1  0
 11 13  1  0
 11 14  1  0
 14 15  1  0
 14 16  1  0
 14 17  1  0
 17 18  1  0
 18 19  2  0
 18 20  1  0
 20 21  1  0
 21 22  2  0
 22 23  1  0
 23 24  1  1
 23 25  1  0
 25 26  1  0
 25 27  1  0
 25 28  1  0
 28 29  1  0
 28 30  1  0
 28 31  1  0
 31 32  1  6
 31 33  1  0
 33 34  1  0
 33 35  1  0
 33 36  1  0
 36 37  2  0
 37 38  1  0
 37 39  1  0
 39 40  1  0
 39 41  2  0
 41 42  1  0
 41 43  1  0
 43 44  1  0
 43 45  2  0
 45 46  1  0
 31 47  1  0
 47 48  1  0
 47 49  1  0
 47 50  1  0
 50 51  1  0
 50 52  1  0
 21 53  1  0
 53 54  1  0
 54 55  1  0
 54 56  1  0
 54 57  1  0
 53 58  1  0
 58 59  2  0
  7 60  1  0
 60 61  1  0
 60 62  2  0
 62 63  1  0
 62  2  1  0
 58 17  1  0
 50 23  1  0
 45 36  1  0
M  CHG  2  20  -1  31   1
M  END
>  <UniqueID>  (84) 
82

>  <SMILES>  (84) 
Cn1c(=O)n(CCCc2ccccc2)c(=O)[n-]/c1=N\C1CC[NH+](Cc2ccccc2)CC1

>  <Energy>  (84) 
78.23634113035565

>  <Genealogy>  (84) 
Cn1c(=NC2CC[NH+](Cc3ccccc3)CC2)[n-]c(=O)n(CCCc2ccccc2)c1=O (protonated)
Cn1c(=O)n(CCCc2ccccc2)c(=O)[n-]/c1=N\C1CC[NH+](Cc2ccccc2)CC1 (cis-trans isomerization)
Cn1c(=O)n(CCCc2ccccc2)c(=O)[n-]/c1=N\C1CC[NH+](Cc2ccccc2)CC1 (3D coordinates assigned)
Cn1c(=O)n(CCCc2ccccc2)c(=O)[n-]/c1=N\C1CC[NH+](Cc2ccccc2)CC1 (nonaromatic ring conformer: 78.23634113035565 kcal/mol)

>  <smiles>  (84) 
Cn1c(=NC2CCN(Cc3ccccc3)CC2)[nH]c(=O)n(CCCc2ccccc2)c1=O

>  <score_type>  (84) 
oracle

>  <origin>  (84) 
adg

>  <m_score__min__energy>  (84) 
-9.3200000000000003

>  <m_primary>  (84) 
energy

$$$$
84:0
     RDKit          3D

 22 23  0  0  0  0  0  0  0  0999 V2000
   53.2130   26.4180   53.6360 C   0  0  0  0  0  0  0  0  0  0  0  0
   53.6610   27.6560   54.1800 O   0  0  0  0  0  0  0  0  0  0  0  0
   54.2530   28.6890   53.4330 C   0  0  0  0  0  0  0  0  0  0  0  0
   55.6440   28.7390   53.2160 C   0  0  0  0  0  0  0  0  0  0  0  0
   56.2100   29.7750   52.4710 C   0  0  0  0  0  0  0  0  0  0  0  0
   55.4050   30.7760   51.9300 C   0  0  0  0  0  0  0  0  0  0  0  0
   54.0180   30.7500   52.1300 C   0  0  0  0  0  0  0  0  0  0  0  0
   53.2060   31.7580   51.5860 C   0  0  0  0  0  0  0  0  0  0  0  0
   51.8230   31.7310   51.7870 C   0  0  0  0  0  0  0  0  0  0  0  0
   51.0250   32.7300   51.2460 O   0  0  0  0  0  0  0  0  0  0  0  0
   51.2430   30.7010   52.5310 C   0  0  0  0  0  0  0  0  0  0  0  0
   52.0390   29.6910   53.0780 C   0  0  0  0  0  0  0  0  0  0  0  0
   53.4340   29.7010   52.8860 C   0  0  0  0  0  0  0  0  0  0  0  0
   52.9629   25.7269   54.4545 H   0  0  0  0  0  0  0  0  0  0  0  0
   52.3205   26.5912   53.0167 H   0  0  0  0  0  0  0  0  0  0  0  0
   54.0096   25.9799   53.0167 H   0  0  0  0  0  0  0  0  0  0  0  0
   56.2899   27.9547   53.6374 H   0  0  0  0  0  0  0  0  0  0  0  0
   57.2978   29.8015   52.3099 H   0  0  0  0  0  0  0  0  0  0  0  0
   55.8595   31.5887   51.3444 H   0  0  0  0  0  0  0  0  0  0  0  0
   53.6594   32.5711   51.0001 H   0  0  0  0  0  0  0  0  0  0  0  0
   50.1543   30.6847   52.6871 H   0  0  0  0  0  0  0  0  0  0  0  0
   51.5732   28.8835   53.6619 H   0  0  0  0  0  0  0  0  0  0  0  0
  1  2  1  0
  2  3  1  0
  3  4  2  0
  4  5  1  0
  5  6  2  0
  6  7  1  0
  7  8  2  0
  8  9  1  0
  9 10  1  0
  9 11  2  0
 11 12  1  0
 12 13  2  0
 13  3  1  0
 13  7  1  0
  1 14  1  0
  1 15  1  0
  1 16  1  0
  4 17  1  0
  5 18  1  0
  6 19  1  0
  8 20  1  0
 11 21  1  0
 12 22  1  0
M  CHG  1  10  -1
M  END
>  <UniqueID>  (85) 
83

>  <SMILES>  (85) 
COc1cccc2cc([O-])ccc12

>  <Energy>  (85) 
26.074415919045542

>  <Genealogy>  (85) 
COc1cccc2cc([O-])ccc12 (protonated)
COc1cccc2cc([O-])ccc12 (3D coordinates assigned)
COc1cccc2cc([O-])ccc12 (optimized conformer: 26.074415919045542 kcal/mol)

>  <smiles>  (85) 
COc1cccc2cc(O)ccc12

>  <score_type>  (85) 
oracle

>  <origin>  (85) 
adg

>  <m_score__min__energy>  (85) 
-9

>  <m_primary>  (85) 
energy

$$$$
85:0
     RDKit          3D

 63 67  0  0  0  0  0  0  0  0999 V2000
   58.7250   34.5810   46.6590 C   0  0  0  0  0  0  0  0  0  0  0  0
   57.9470   34.5310   45.4820 O   0  0  0  0  0  0  0  0  0  0  0  0
   58.6720   33.8950   44.4440 C   0  0  0  0  0  0  0  0  0  0  0  0
   57.9160   32.7140   43.8990 C   0  0  0  0  0  0  0  0  0  0  0  0
   57.8760   32.4040   42.5400 C   0  0  0  0  0  0  0  0  0  0  0  0
   57.0240   30.9690   42.3510 S   0  0  0  0  0  0  0  0  0  0  0  0
   56.7100   30.7200   43.9860 C   0  0  0  0  0  0  0  0  0  0  0  0
   55.9760   29.5770   44.5520 C   0  0  0  0  0  0  0  0  0  0  0  0
   54.8250   29.2960   44.1180 O   0  0  0  0  0  0  0  0  0  0  0  0
   56.5670   28.8120   45.6160 N   0  0  0  0  0  0  0  0  0  0  0  0
   56.6460   27.5140   45.6800 C   0  0  0  0  0  0  0  0  0  0  0  0
   55.5250   26.7360   45.6320 N   0  0  0  0  0  0  0  0  0  0  0  0
   55.5860   25.3780   45.6760 C   0  0  0  0  0  0  0  0  0  0  0  0
   56.8220   24.7370   45.7590 C   0  0  0  0  0  0  0  0  0  0  0  0
   57.9860   25.5020   45.8130 C   0  0  0  0  0  0  0  0  0  0  0  0
   57.9070   26.8970   45.7890 C   0  0  0  0  0  0  0  0  0  0  0  0
   59.0770   27.6530   45.9030 O   0  0  0  0  0  0  0  0  0  0  0  0
   59.2160   28.7350   46.7880 C   0  0  0  0  0  0  0  0  0  0  0  0
   59.2380   30.0710   46.3400 C   0  0  0  0  0  0  0  0  0  0  0  0
   59.3420   31.1200   47.2570 C   0  0  0  0  0  0  0  0  0  0  0  0
   59.4020   30.8590   48.6290 C   0  0  0  0  0  0  0  0  0  0  0  0
   59.4760   31.9640   49.5420 N   0  0  0  0  0  0  0  0  0  0  0  0
   60.1710   33.2000   49.3250 C   0  0  0  0  0  0  0  0  0  0  0  0
   59.6270   34.2680   49.7050 O   0  0  0  0  0  0  0  0  0  0  0  0
   61.5360   33.2460   48.7510 C   0  0  0  0  0  0  0  0  0  0  0  0
   61.7450   33.6630   47.4260 C   0  0  0  0  0  0  0  0  0  0  0  0
   63.0310   33.6880   46.8880 C   0  0  0  0  0  0  0  0  0  0  0  0
   64.1220   33.2890   47.6620 C   0  0  0  0  0  0  0  0  0  0  0  0
   63.9380   32.8630   48.9880 C   0  0  0  0  0  0  0  0  0  0  0  0
   65.0590   32.4200   49.7800 N   0  0  0  0  0  0  0  0  0  0  0  0
   66.3780   33.0360   49.7640 C   0  0  0  0  0  0  0  0  0  0  0  0
   67.1670   32.3890   50.9200 C   0  0  0  0  0  0  0  0  0  0  0  0
   66.3510   31.1870   51.4100 C   0  0  0  0  0  0  0  0  0  0  0  0
   65.0650   31.3400   50.7030 C   0  0  0  0  0  0  0  0  0  0  0  0
   64.1020   30.5410   50.8390 O   0  0  0  0  0  0  0  0  0  0  0  0
   62.6360   32.8290   49.5200 C   0  0  0  0  0  0  0  0  0  0  0  0
   59.4190   29.5280   49.0760 C   0  0  0  0  0  0  0  0  0  0  0  0
   59.3240   28.4750   48.1590 C   0  0  0  0  0  0  0  0  0  0  0  0
   59.3130   27.1970   48.6060 F   0  0  0  0  0  0  0  0  0  0  0  0
   57.2710   31.7670   44.7090 C   0  0  0  0  0  0  0  0  0  0  0  0
   58.0642   34.5385   47.5374 H   0  0  0  0  0  0  0  0  0  0  0  0
   59.4161   33.7254   46.6783 H   0  0  0  0  0  0  0  0  0  0  0  0
   59.3009   35.5180   46.6783 H   0  0  0  0  0  0  0  0  0  0  0  0
   58.8444   34.6168   43.6320 H   0  0  0  0  0  0  0  0  0  0  0  0
   59.6282   33.5381   44.8542 H   0  0  0  0  0  0  0  0  0  0  0  0
   58.3255   32.9977   41.7304 H   0  0  0  0  0  0  0  0  0  0  0  0
   54.6601   24.7849   45.6461 H   0  0  0  0  0  0  0  0  0  0  0  0
   56.8777   23.6386   45.7816 H   0  0  0  0  0  0  0  0  0  0  0  0
   58.9667   25.0076   45.8745 H   0  0  0  0  0  0  0  0  0  0  0  0
   59.1730   30.2889   45.2637 H   0  0  0  0  0  0  0  0  0  0  0  0
   59.3769   32.1587   46.8967 H   0  0  0  0  0  0  0  0  0  0  0  0
   60.8884   33.9718   46.8088 H   0  0  0  0  0  0  0  0  0  0  0  0
   63.1862   34.0228   45.8517 H   0  0  0  0  0  0  0  0  0  0  0  0
   65.1336   33.3083   47.2303 H   0  0  0  0  0  0  0  0  0  0  0  0
   66.8786   32.8410   48.8041 H   0  0  0  0  0  0  0  0  0  0  0  0
   66.3129   34.1275   49.8837 H   0  0  0  0  0  0  0  0  0  0  0  0
   68.1524   32.0551   50.5630 H   0  0  0  0  0  0  0  0  0  0  0  0
   67.3269   33.1103   51.7349 H   0  0  0  0  0  0  0  0  0  0  0  0
   66.8407   30.2405   51.1372 H   0  0  0  0  0  0  0  0  0  0  0  0
   66.2404   31.1585   52.5041 H   0  0  0  0  0  0  0  0  0  0  0  0
   62.4773   32.4724   50.5484 H   0  0  0  0  0  0  0  0  0  0  0  0
   59.5073   29.3121   50.1510 H   0  0  0  0  0  0  0  0  0  0  0  0
   57.2148   31.8449   45.8048 H   0  0  0  0  0  0  0  0  0  0  0  0
  1  2  1  0
  2  3  1  0
  3  4  1  0
  4  5  2  0
  5  6  1  0
  6  7  1  0
  7  8  1  0
  8  9  2  0
  8 10  1  0
 10 11  2  3
 11 12  1  0
 12 13  1  0
 13 14  2  0
 14 15  1  0
 15 16  2  0
 16 17  1  0
 17 18  1  0
 18 19  2  0
 19 20  1  0
 20 21  2  0
 21 22  1  0
 22 23  1  0
 23 24  2  0
 23 25  1  0
 25 26  2  0
 26 27  1  0
 27 28  2  0
 28 29  1  0
 29 30  1  0
 30 31  1  0
 31 32  1  0
 32 33  1  0
 33 34  1  0
 34 35  2  0
 29 36  2  0
 21 37  1  0
 37 38  2  0
 38 39  1  0
  7 40  2  0
 40  4  1  0
 16 11  1  0
 38 18  1  0
 36 25  1  0
 34 30  1  0
  1 41  1  0
  1 42  1  0
  1 43  1  0
  3 44  1  0
  3 45  1  0
  5 46  1  0
 13 47  1  0
 14 48  1  0
 15 49  1  0
 19 50  1  0
 20 51  1  0
 26 52  1  0
 27 53  1  0
 28 54  1  0
 31 55  1  0
 31 56  1  0
 32 57  1  0
 32 58  1  0
 33 59  1  0
 33 60  1  0
 36 61  1  0
 37 62  1  0
 40 63  1  0
M  CHG  2  12  -1  22  -1
M  END
>  <UniqueID>  (86) 
84

>  <SMILES>  (86) 
COCc1csc(C(=O)N=c2[n-]cccc2Oc2ccc([N-]C(=O)c3cccc(N4CCCC4=O)c3)cc2F)c1

>  <Energy>  (86) 
125.92757854564607

>  <Genealogy>  (86) 
COCc1csc(C(=O)N=c2[n-]cccc2Oc2ccc([N-]C(=O)c3cccc(N4CCCC4=O)c3)cc2F)c1 (protonated)
COCc1csc(C(=O)N=c2[n-]cccc2Oc2ccc([N-]C(=O)c3cccc(N4CCCC4=O)c3)cc2F)c1 (3D coordinates assigned)
COCc1csc(C(=O)N=c2[n-]cccc2Oc2ccc([N-]C(=O)c3cccc(N4CCCC4=O)c3)cc2F)c1 (nonaromatic ring conformer: 125.92757854564607 kcal/mol)

>  <smiles>  (86) 
COCc1csc(C(=O)N=c2[nH]cccc2Oc2ccc(NC(=O)c3cccc(N4CCCC4=O)c3)cc2F)c1

>  <score_type>  (86) 
oracle

>  <origin>  (86) 
adg

>  <m_score__min__energy>  (86) 
-12.81

>  <m_primary>  (86) 
energy

$$$$
86:0
     RDKit          3D

 32 33  0  0  0  0  0  0  0  0999 V2000
   55.1570   26.6820   45.9920 N   0  0  0  0  0  0  0  0  0  0  0  0
   56.8810   26.7670   46.0590 S   0  0  0  0  0  0  0  0  0  0  0  0
   57.3520   26.2840   47.4030 O   0  0  0  0  0  0  0  0  0  0  0  0
   57.4710   25.8840   44.9950 O   0  0  0  0  0  0  0  0  0  0  0  0
   57.3980   28.4310   45.8060 C   0  0  0  0  0  0  0  0  0  0  0  0
   58.5670   28.9100   46.4140 C   0  0  0  0  0  0  0  0  0  0  0  0
   58.9680   30.2350   46.2210 C   0  0  0  0  0  0  0  0  0  0  0  0
   58.1960   31.1020   45.4390 C   0  0  0  0  0  0  0  0  0  0  0  0
   58.6550   32.4440   45.2320 N   0  0  0  0  0  0  0  0  0  0  0  0
   59.0480   33.3810   46.2440 C   0  0  0  0  0  0  0  0  0  0  0  0
   58.1930   33.7500   47.0910 O   0  0  0  0  0  0  0  0  0  0  0  0
   60.3930   34.0570   46.2240 C   0  0  0  0  0  0  0  0  0  0  0  0
   61.4140   33.1930   46.8150 N   0  0  0  0  0  0  0  0  0  0  0  0
   61.1670   32.1410   47.7950 C   0  0  0  0  0  0  0  0  0  0  0  0
   62.5660   31.6250   48.2180 C   0  0  0  0  0  0  0  0  0  0  0  0
   63.5280   32.4800   47.5360 N   0  0  0  0  0  0  0  0  0  0  0  0
   62.8100   33.3810   46.7270 C   0  0  0  0  0  0  0  0  0  0  0  0
   63.3590   34.2600   46.0120 O   0  0  0  0  0  0  0  0  0  0  0  0
   57.0380   30.6150   44.8110 C   0  0  0  0  0  0  0  0  0  0  0  0
   56.6350   29.2900   45.0040 C   0  0  0  0  0  0  0  0  0  0  0  0
   54.7970   27.0890   46.8850 H   0  0  0  0  0  0  0  0  0  0  0  0
   59.1705   28.2409   47.0449 H   0  0  0  0  0  0  0  0  0  0  0  0
   59.8959   30.5986   46.6865 H   0  0  0  0  0  0  0  0  0  0  0  0
   60.6687   34.2821   45.1832 H   0  0  0  0  0  0  0  0  0  0  0  0
   60.3314   34.9850   46.8114 H   0  0  0  0  0  0  0  0  0  0  0  0
   60.6284   32.5457   48.6646 H   0  0  0  0  0  0  0  0  0  0  0  0
   60.5461   31.3347   47.3774 H   0  0  0  0  0  0  0  0  0  0  0  0
   62.6895   31.7034   49.3082 H   0  0  0  0  0  0  0  0  0  0  0  0
   62.7047   30.5669   47.9511 H   0  0  0  0  0  0  0  0  0  0  0  0
   64.5680   32.4160   47.6100 H   0  0  0  0  0  0  0  0  0  0  0  0
   56.4454   31.2789   44.1644 H   0  0  0  0  0  0  0  0  0  0  0  0
   55.7162   28.9209   44.5248 H   0  0  0  0  0  0  0  0  0  0  0  0
  1  2  1  0
  2  3  2  0
  2  4  2  0
  2  5  1  0
  5  6  2  0
  6  7  1  0
  7  8  2  0
  8  9  1  0
  9 10  1  0
 10 11  2  0
 10 12  1  0
 12 13  1  0
 13 14  1  0
 14 15  1  0
 15 16  1  0
 16 17  1  0
 17 18  2  0
  8 19  1  0
 19 20  2  0
 20  5  1  0
 17 13  1  0
  1 21  1  0
  6 22  1  0
  7 23  1  0
 12 24  1  0
 12 25  1  0
 14 26  1  0
 14 27  1  0
 15 28  1  0
 15 29  1  0
 16 30  1  0
 19 31  1  0
 20 32  1  0
M  CHG  2   1  -1   9  -1
M  END
>  <UniqueID>  (87) 
85

>  <SMILES>  (87) 
[NH-]S(=O)(=O)c1ccc([N-]C(=O)CN2CCNC2=O)cc1

>  <Energy>  (87) 
47.35726602410518

>  <Genealogy>  (87) 
[NH-]S(=O)(=O)c1ccc([N-]C(=O)CN2CCNC2=O)cc1 (protonated)
[NH-]S(=O)(=O)c1ccc([N-]C(=O)CN2CCNC2=O)cc1 (3D coordinates assigned)
[NH-]S(=O)(=O)c1ccc([N-]C(=O)CN2CCNC2=O)cc1 (nonaromatic ring conformer: 47.35726602410518 kcal/mol)

>  <smiles>  (87) 
NS(=O)(=O)c1ccc(NC(=O)CN2CCNC2=O)cc1

>  <score_type>  (87) 
oracle

>  <origin>  (87) 
adg

>  <m_score__min__energy>  (87) 
-10.49

>  <m_primary>  (87) 
energy

$$$$
87:0
     RDKit          3D

 56 59  0  0  0  0  0  0  0  0999 V2000
   63.3470   32.4270   46.9940 O   0  0  0  0  0  0  0  0  0  0  0  0
   62.3170   32.5180   47.7180 C   0  0  0  0  0  0  0  0  0  0  0  0
   62.4120   32.3610   49.1460 N   0  0  0  0  0  0  0  0  0  0  0  0
   63.6560   32.2920   49.8650 C   0  0  0  0  0  0  0  0  0  0  0  0
   64.4760   33.4300   49.9310 C   0  0  0  0  0  0  0  0  0  0  0  0
   65.6840   33.3920   50.6330 C   0  0  0  0  0  0  0  0  0  0  0  0
   66.0860   32.2170   51.2730 C   0  0  0  0  0  0  0  0  0  0  0  0
   65.2860   31.0680   51.2040 C   0  0  0  0  0  0  0  0  0  0  0  0
   65.7650   29.5980   52.0550 S   0  0  0  0  0  0  0  0  0  0  0  0
   64.5710   29.0090   52.7470 O   0  0  0  0  0  0  0  0  0  0  0  0
   66.7850   29.9440   53.1030 O   0  0  0  0  0  0  0  0  0  0  0  0
   66.4450   28.4170   50.9650 N   0  0  0  0  0  0  0  0  0  0  0  0
   66.0980   27.0580   51.4020 C   0  0  0  0  0  0  0  0  0  0  0  0
   66.7760   26.0140   50.4950 C   0  0  0  0  0  0  0  0  0  0  0  0
   67.5200   26.6220   49.4560 O   0  0  0  0  0  0  0  0  0  0  0  0
   68.5150   27.4600   50.0090 C   0  0  0  0  0  0  0  0  0  0  0  0
   67.9050   28.5690   50.8900 C   0  0  0  0  0  0  0  0  0  0  0  0
   64.0880   31.1010   50.4800 C   0  0  0  0  0  0  0  0  0  0  0  0
   61.0070   32.8140   47.0950 C   0  0  0  0  0  0  0  0  0  0  0  0
   60.7060   34.1570   46.8090 C   0  0  0  0  0  0  0  0  0  0  0  0
   59.5050   34.5020   46.1820 C   0  0  0  0  0  0  0  0  0  0  0  0
   58.5840   33.5120   45.8390 C   0  0  0  0  0  0  0  0  0  0  0  0
   58.8540   32.1740   46.1300 C   0  0  0  0  0  0  0  0  0  0  0  0
   60.0610   31.8030   46.7560 C   0  0  0  0  0  0  0  0  0  0  0  0
   60.2150   30.3630   47.1790 C   0  0  0  0  0  0  0  0  0  0  0  0
   60.5060   29.3320   45.6990 S   0  0  0  0  0  0  0  0  0  0  0  0
   58.9000   28.5410   45.7870 C   0  0  0  0  0  0  0  0  0  0  0  0
   58.7470   27.3370   46.4800 C   0  0  0  0  0  0  0  0  0  0  0  0
   57.4900   26.7240   46.5520 C   0  0  0  0  0  0  0  0  0  0  0  0
   56.3850   27.3150   45.9290 C   0  0  0  0  0  0  0  0  0  0  0  0
   55.1350   26.7050   45.9930 O   0  0  0  0  0  0  0  0  0  0  0  0
   56.5370   28.5200   45.2330 C   0  0  0  0  0  0  0  0  0  0  0  0
   57.7910   29.1360   45.1630 C   0  0  0  0  0  0  0  0  0  0  0  0
   61.5310   32.1520   49.6660 H   0  0  0  0  0  0  0  0  0  0  0  0
   64.1657   34.3572   49.4270 H   0  0  0  0  0  0  0  0  0  0  0  0
   66.3192   34.2887   50.6817 H   0  0  0  0  0  0  0  0  0  0  0  0
   67.0328   32.1934   51.8325 H   0  0  0  0  0  0  0  0  0  0  0  0
   66.4369   26.9127   52.4384 H   0  0  0  0  0  0  0  0  0  0  0  0
   65.0072   26.9304   51.3402 H   0  0  0  0  0  0  0  0  0  0  0  0
   67.4540   25.3993   51.1053 H   0  0  0  0  0  0  0  0  0  0  0  0
   65.9886   25.3985   50.0356 H   0  0  0  0  0  0  0  0  0  0  0  0
   69.1932   26.8498   50.6235 H   0  0  0  0  0  0  0  0  0  0  0  0
   69.0564   27.9404   49.1807 H   0  0  0  0  0  0  0  0  0  0  0  0
   68.3291   28.5021   51.9027 H   0  0  0  0  0  0  0  0  0  0  0  0
   68.1401   29.5477   50.4464 H   0  0  0  0  0  0  0  0  0  0  0  0
   63.4792   30.1892   50.3908 H   0  0  0  0  0  0  0  0  0  0  0  0
   61.4233   34.9452   47.0815 H   0  0  0  0  0  0  0  0  0  0  0  0
   59.2858   35.5565   45.9586 H   0  0  0  0  0  0  0  0  0  0  0  0
   57.6437   33.7863   45.3385 H   0  0  0  0  0  0  0  0  0  0  0  0
   58.1169   31.4007   45.8680 H   0  0  0  0  0  0  0  0  0  0  0  0
   61.0691   30.2704   47.8660 H   0  0  0  0  0  0  0  0  0  0  0  0
   59.3006   30.0274   47.6900 H   0  0  0  0  0  0  0  0  0  0  0  0
   59.6147   26.8705   46.9693 H   0  0  0  0  0  0  0  0  0  0  0  0
   57.3711   25.7770   47.0988 H   0  0  0  0  0  0  0  0  0  0  0  0
   55.6693   28.9831   44.7405 H   0  0  0  0  0  0  0  0  0  0  0  0
   57.9085   30.0853   44.6199 H   0  0  0  0  0  0  0  0  0  0  0  0
  1  2  2  0
  2  3  1  0
  3  4  1  0
  4  5  2  0
  5  6  1  0
  6  7  2  0
  7  8  1  0
  8  9  1  0
  9 10  2  0
  9 11  2  0
  9 12  1  0
 12 13  1  0
 13 14  1  0
 14 15  1  0
 15 16  1  0
 16 17  1  0
  8 18  2  0
  2 19  1  0
 19 20  2  0
 20 21  1  0
 21 22  2  0
 22 23  1  0
 23 24  2  0
 24 25  1  0
 25 26  1  0
 26 27  1  0
 27 28  2  0
 28 29  1  0
 29 30  2  0
 30 31  1  0
 30 32  1  0
 32 33  2  0
 18  4  1  0
 24 19  1  0
 33 27  1  0
 17 12  1  0
  3 34  1  0
  5 35  1  0
  6 36  1  0
  7 37  1  0
 13 38  1  0
 13 39  1  0
 14 40  1  0
 14 41  1  0
 16 42  1  0
 16 43  1  0
 17 44  1  0
 17 45  1  0
 18 46  1  0
 20 47  1  0
 21 48  1  0
 22 49  1  0
 23 50  1  0
 25 51  1  0
 25 52  1  0
 28 53  1  0
 29 54  1  0
 32 55  1  0
 33 56  1  0
M  CHG  1  31  -1
M  END
>  <UniqueID>  (88) 
86

>  <SMILES>  (88) 
O=C(Nc1cccc(S(=O)(=O)N2CCOCC2)c1)c1ccccc1CSc1ccc([O-])cc1

>  <Energy>  (88) 
72.64494163280744

>  <Genealogy>  (88) 
O=C(Nc1cccc(S(=O)(=O)N2CCOCC2)c1)c1ccccc1CSc1ccc([O-])cc1 (protonated)
O=C(Nc1cccc(S(=O)(=O)N2CCOCC2)c1)c1ccccc1CSc1ccc([O-])cc1 (3D coordinates assigned)
O=C(Nc1cccc(S(=O)(=O)N2CCOCC2)c1)c1ccccc1CSc1ccc([O-])cc1 (nonaromatic ring conformer: 72.64494163280744 kcal/mol)

>  <smiles>  (88) 
O=C(Nc1cccc(S(=O)(=O)N2CCOCC2)c1)c1ccccc1CSc1ccc(O)cc1

>  <score_type>  (88) 
oracle

>  <origin>  (88) 
adg

>  <m_score__min__energy>  (88) 
-14.68

>  <m_primary>  (88) 
energy

$$$$
88:0
     RDKit          3D

 51 53  0  0  1  0  0  0  0  0999 V2000
   65.8590   32.6700   50.1210 C   0  0  0  0  0  0  0  0  0  0  0  0
   64.5070   32.2570   49.5430 C   0  0  0  0  0  0  0  0  0  0  0  0
   63.9640   33.4950   48.8610 C   0  0  0  0  0  0  0  0  0  0  0  0
   62.9160   33.1310   47.5080 S   0  0  0  0  0  0  0  0  0  0  0  0
   63.3790   33.9450   46.3280 O   0  0  0  0  0  0  0  0  0  0  0  0
   63.1740   31.6940   47.1160 O   0  0  0  0  0  0  0  0  0  0  0  0
   61.2750   33.4210   47.8410 N   0  0  0  0  0  0  0  0  0  0  0  0
   60.1860   33.3550   46.9770 C   0  0  0  0  0  0  0  0  0  0  0  0
   59.3980   34.3830   46.5340 C   0  0  0  0  0  0  0  0  0  0  0  0
   58.3420   34.2000   45.6570 C   0  0  0  0  0  0  0  0  0  0  0  0
   58.0450   32.9380   45.1920 C   0  0  0  0  0  0  0  0  0  0  0  0
   58.8190   31.8810   45.6200 C   0  0  0  0  0  0  0  0  0  0  0  0
   58.5260   30.5130   45.1390 C   0  0  0  0  0  0  0  0  0  0  0  0
   57.6040   30.2800   44.1360 C   0  0  0  0  0  0  0  0  0  0  0  0
   57.3660   28.9730   43.7190 C   0  0  0  0  0  0  0  0  0  0  0  0
   58.0310   27.9090   44.2840 C   0  0  0  0  0  0  0  0  0  0  0  0
   57.7900   26.4860   43.8480 C   0  0  0  0  0  0  0  0  0  0  0  0
   57.5780   25.6130   44.9460 N   0  0  0  0  0  0  0  0  0  0  0  0
   57.8830   24.3690   44.8680 C   0  0  0  0  0  0  0  0  0  0  0  0
   56.9270   23.5420   44.2790 C   0  0  0  0  0  0  0  0  0  0  0  0
   57.2010   22.1790   44.1650 C   0  0  0  0  0  0  0  0  0  0  0  0
   58.3710   21.7180   44.6260 N   0  0  0  0  0  0  0  0  0  0  0  0
   59.2860   22.5240   45.1920 C   0  0  0  0  0  0  0  0  0  0  0  0
   60.3950   21.9950   45.6130 N   0  0  0  0  0  0  0  0  0  0  0  0
   59.0180   23.8370   45.2990 N   0  0  0  0  0  0  0  0  0  0  0  0
   58.9520   28.1540   45.2880 C   0  0  0  0  0  0  0  0  0  0  0  0
   59.1960   29.4470   45.7080 C   0  0  0  0  0  0  0  0  0  0  0  0
   59.8520   32.0810   46.4800 C   0  0  0  0  0  0  0  0  0  0  0  0
   65.8082   32.6545   51.2197 H   0  0  0  0  0  0  0  0  0  0  0  0
   66.6337   31.9675   49.7798 H   0  0  0  0  0  0  0  0  0  0  0  0
   66.1089   33.6854   49.7798 H   0  0  0  0  0  0  0  0  0  0  0  0
   64.6327   31.4413   48.8158 H   0  0  0  0  0  0  0  0  0  0  0  0
   63.8249   31.8882   50.3232 H   0  0  0  0  0  0  0  0  0  0  0  0
   63.3935   34.0788   49.5983 H   0  0  0  0  0  0  0  0  0  0  0  0
   64.8244   34.0560   48.4672 H   0  0  0  0  0  0  0  0  0  0  0  0
   61.0380   33.6910   48.8560 H   0  0  0  0  0  0  0  0  0  0  0  0
   59.6135   35.4009   46.8910 H   0  0  0  0  0  0  0  0  0  0  0  0
   57.7408   35.0619   45.3320 H   0  0  0  0  0  0  0  0  0  0  0  0
   57.2093   32.7774   44.4950 H   0  0  0  0  0  0  0  0  0  0  0  0
   57.0638   31.1184   43.6720 H   0  0  0  0  0  0  0  0  0  0  0  0
   56.6314   28.7872   42.9216 H   0  0  0  0  0  0  0  0  0  0  0  0
   56.9016   26.4607   43.1998 H   0  0  0  0  0  0  0  0  0  0  0  0
   58.6881   26.1419   43.3142 H   0  0  0  0  0  0  0  0  0  0  0  0
   55.9763   23.9560   43.9118 H   0  0  0  0  0  0  0  0  0  0  0  0
   56.4708   21.4965   43.7057 H   0  0  0  0  0  0  0  0  0  0  0  0
   58.5470   20.6950   44.5260 H   0  0  0  0  0  0  0  0  0  0  0  0
   61.0850   21.7160   44.8760 H   0  0  0  0  0  0  0  0  0  0  0  0
   59.7230   24.4340   45.7320 H   0  0  0  0  0  0  0  0  0  0  0  0
   59.4916   27.3158   45.7531 H   0  0  0  0  0  0  0  0  0  0  0  0
   59.9321   29.6301   46.5046 H   0  0  0  0  0  0  0  0  0  0  0  0
   60.4497   31.2147   46.7998 H   0  0  0  0  0  0  0  0  0  0  0  0
  1  2  1  0
  2  3  1  0
  3  4  1  0
  4  5  2  0
  4  6  2  0
  4  7  1  0
  7  8  1  0
  8  9  2  0
  9 10  1  0
 10 11  2  0
 11 12  1  0
 12 13  1  0
 13 14  2  0
 14 15  1  0
 15 16  2  0
 16 17  1  0
 17 18  1  0
 18 19  2  0
 19 20  1  0
 20 21  2  0
 21 22  1  0
 22 23  1  0
 23 24  2  3
 23 25  1  0
 16 26  1  0
 26 27  2  0
 12 28  2  0
 28  8  1  0
 27 13  1  0
 25 19  1  0
  1 29  1  0
  1 30  1  0
  1 31  1  0
  2 32  1  0
  2 33  1  0
  3 34  1  0
  3 35  1  0
  7 36  1  0
  9 37  1  0
 10 38  1  0
 11 39  1  0
 14 40  1  0
 15 41  1  0
 17 42  1  0
 17 43  1  0
 20 44  1  0
 21 45  1  0
 22 46  1  0
 24 47  1  0
 25 48  1  0
 26 49  1  0
 27 50  1  0
 28 51  1  0
M  END
>  <smiles>  (89) 
CCCS(=O)(=O)Nc1cccc(-c2ccc(CN=c3cc[nH]c(=N)[nH]3)cc2)c1

>  <score_type>  (89) 
oracle

>  <origin>  (89) 
adg

>  <m_score__min__energy>  (89) 
-8.9299999999999997

>  <m_primary>  (89) 
energy

$$$$
89:0
     RDKit          3D

 42 44  0  0  0  0  0  0  0  0999 V2000
   56.6462   31.7198   52.2428 H   0  0  0  0  0  0  0  0  0  0  0  0
   55.5580   31.6230   52.3710 C   0  0  0  0  0  0  0  0  0  0  0  0
   54.9121   32.5083   52.2756 H   0  0  0  0  0  0  0  0  0  0  0  0
   55.0180   30.4240   52.6440 C   0  0  0  0  0  0  0  0  0  0  0  0
   53.6580   30.1340   52.8350 C   0  0  0  0  0  0  0  0  0  0  0  0
   52.5550   30.8650   52.5820 C   0  0  0  0  0  0  0  0  0  0  0  0
   52.0405   31.3130   53.4449 H   0  0  0  0  0  0  0  0  0  0  0  0
   51.9790   31.1160   51.2520 C   0  0  0  0  0  0  0  0  0  0  0  0
   51.9340   30.2140   50.2520 N   0  0  0  0  0  0  0  0  0  0  0  0
   51.2060   30.8400   49.3020 C   0  0  0  0  0  0  0  0  0  0  0  0
   50.9520   30.3140   48.1870 O   0  0  0  0  0  0  0  0  0  0  0  0
   50.7620   32.0680   49.6430 N   0  0  0  0  0  0  0  0  0  0  0  0
   51.2490   32.2200   50.8860 C   0  0  0  0  0  0  0  0  0  0  0  0
   51.0260   33.3440   51.6730 O   0  0  0  0  0  0  0  0  0  0  0  0
   53.6060   28.8540   53.3600 C   0  0  0  0  0  0  0  0  0  0  0  0
   52.7035   28.3165   53.6863 H   0  0  0  0  0  0  0  0  0  0  0  0
   54.9010   28.3810   53.3960 C   0  0  0  0  0  0  0  0  0  0  0  0
   55.2950   27.0190   53.8790 C   0  0  0  0  0  0  0  0  0  0  0  0
   55.2985   27.0068   54.9789 H   0  0  0  0  0  0  0  0  0  0  0  0
   54.5751   26.2754   53.5064 H   0  0  0  0  0  0  0  0  0  0  0  0
   56.3007   26.7745   53.5064 H   0  0  0  0  0  0  0  0  0  0  0  0
   55.7600   29.3320   52.9630 N   0  0  0  0  0  0  0  0  0  0  0  0
   57.1920   29.2040   52.9000 C   0  0  0  0  0  0  0  0  0  0  0  0
   57.8800   29.4820   51.7150 C   0  0  0  0  0  0  0  0  0  0  0  0
   57.3246   29.7990   50.8200 H   0  0  0  0  0  0  0  0  0  0  0  0
   59.2750   29.3580   51.6640 C   0  0  0  0  0  0  0  0  0  0  0  0
   60.0210   29.6670   50.3970 C   0  0  0  0  0  0  0  0  0  0  0  0
   61.0111   30.0771   50.6452 H   0  0  0  0  0  0  0  0  0  0  0  0
   60.1428   28.7453   49.8091 H   0  0  0  0  0  0  0  0  0  0  0  0
   59.4554   30.4048   49.8091 H   0  0  0  0  0  0  0  0  0  0  0  0
   59.9690   28.9740   52.8260 C   0  0  0  0  0  0  0  0  0  0  0  0
   61.3660   28.8570   52.7790 O   0  0  0  0  0  0  0  0  0  0  0  0
   62.1130   27.8970   53.4720 C   0  0  0  0  0  0  0  0  0  0  0  0
   61.6900   27.3980   54.5510 O   0  0  0  0  0  0  0  0  0  0  0  0
   63.4800   27.5480   52.9880 C   0  0  0  0  0  0  0  0  0  0  0  0
   64.1421   27.3790   53.8500 H   0  0  0  0  0  0  0  0  0  0  0  0
   63.4308   26.6336   52.3785 H   0  0  0  0  0  0  0  0  0  0  0  0
   63.8752   28.3741   52.3785 H   0  0  0  0  0  0  0  0  0  0  0  0
   59.2720   28.6850   53.9660 N   0  0  0  0  0  0  0  0  0  0  0  0
   59.7690   28.3390   54.8160 H   0  0  0  0  0  0  0  0  0  0  0  0
   57.9180   28.7970   54.0240 C   0  0  0  0  0  0  0  0  0  0  0  0
   57.3903   28.5660   54.9611 H   0  0  0  0  0  0  0  0  0  0  0  0
  1  2  1  0
  2  3  1  0
  2  4  2  0
  4  5  1  0
  5  6  2  0
  6  7  1  0
  6  8  1  0
  8  9  1  0
  9 10  1  0
 10 11  2  0
 10 12  1  0
 12 13  1  0
 13 14  1  0
  5 15  1  0
 15 16  1  0
 15 17  2  0
 17 18  1  0
 18 19  1  0
 18 20  1  0
 18 21  1  0
 17 22  1  0
 22 23  1  0
 23 24  2  0
 24 25  1  0
 24 26  1  0
 26 27  1  0
 27 28  1  0
 27 29  1  0
 27 30  1  0
 26 31  2  0
 31 32  1  0
 32 33  1  0
 33 34  2  0
 33 35  1  0
 35 36  1  0
 35 37  1  0
 35 38  1  0
 31 39  1  0
 39 40  1  0
 39 41  2  0
 41 42  1  0
 22  4  1  0
 41 23  1  0
 13  8  2  0
M  CHG  4   9  -1  12  -1  14  -1  39   1
M  END
>  <UniqueID>  (90) 
87

>  <SMILES>  (90) 
C=c1/c(=C\c2[n-]c(=O)[n-]c2[O-])cc(C)n1-c1c[nH+]c(OC(C)=O)c(C)c1

>  <Energy>  (90) 
120.36435398716179

>  <Genealogy>  (90) 
C=c1c(=Cc2[n-]c(=O)[n-]c2[O-])cc(C)n1-c1c[nH+]c(OC(C)=O)c(C)c1 (protonated)
C=c1/c(=C\c2[n-]c(=O)[n-]c2[O-])cc(C)n1-c1c[nH+]c(OC(C)=O)c(C)c1 (cis-trans isomerization)
C=c1/c(=C\c2[n-]c(=O)[n-]c2[O-])cc(C)n1-c1c[nH+]c(OC(C)=O)c(C)c1 (3D coordinates assigned)
C=c1/c(=C\c2[n-]c(=O)[n-]c2[O-])cc(C)n1-c1c[nH+]c(OC(C)=O)c(C)c1 (optimized conformer: 120.36435398716179 kcal/mol)

>  <smiles>  (90) 
C=c1c(=Cc2[nH]c(=O)[nH]c2O)cc(C)n1-c1cnc(OC(C)=O)c(C)c1

>  <score_type>  (90) 
oracle

>  <origin>  (90) 
adg

>  <m_score__min__energy>  (90) 
-13.970000000000001

>  <m_primary>  (90) 
energy

$$$$
90:0
     RDKit          3D

 48 51  0  0  0  0  0  0  0  0999 V2000
   51.0620   30.5060   48.2770 O   0  0  0  0  0  0  0  0  0  0  0  0
   51.3430   30.8220   49.4620 C   0  0  0  0  0  0  0  0  0  0  0  0
   50.8850   32.0400   50.0320 N   0  0  0  0  0  0  0  0  0  0  0  0
   51.3890   32.1650   51.3490 C   0  0  0  0  0  0  0  0  0  0  0  0
   51.0560   33.1270   52.0900 O   0  0  0  0  0  0  0  0  0  0  0  0
   52.2580   31.0560   51.7640 C   0  0  0  0  0  0  0  0  0  0  0  0
   52.9070   30.9310   52.9310 C   0  0  0  0  0  0  0  0  0  0  0  0
   54.1250   30.1260   53.1340 C   0  0  0  0  0  0  0  0  0  0  0  0
   54.2100   29.1960   54.1820 C   0  0  0  0  0  0  0  0  0  0  0  0
   55.3850   28.4660   54.3780 C   0  0  0  0  0  0  0  0  0  0  0  0
   56.4850   28.6660   53.5390 C   0  0  0  0  0  0  0  0  0  0  0  0
   56.4180   29.6090   52.4960 C   0  0  0  0  0  0  0  0  0  0  0  0
   57.4840   29.8400   51.6120 O   0  0  0  0  0  0  0  0  0  0  0  0
   57.8270   31.1020   51.0400 C   0  0  0  0  0  0  0  0  0  0  0  0
   59.2890   31.1500   50.6460 C   0  0  0  0  0  0  0  0  0  0  0  0
   60.1980   31.7850   51.5130 C   0  0  0  0  0  0  0  0  0  0  0  0
   61.5520   31.8700   51.1890 C   0  0  0  0  0  0  0  0  0  0  0  0
   62.0180   31.3370   49.9890 C   0  0  0  0  0  0  0  0  0  0  0  0
   61.1320   30.7190   49.1080 C   0  0  0  0  0  0  0  0  0  0  0  0
   59.7630   30.6160   49.4160 C   0  0  0  0  0  0  0  0  0  0  0  0
   58.8530   29.9150   48.4320 C   0  0  0  0  0  0  0  0  0  0  0  0
   59.5870   28.8940   47.6860 N   0  0  0  0  0  0  0  0  0  0  0  0
   59.0970   28.1560   46.5580 C   0  0  0  0  0  0  0  0  0  0  0  0
   59.4690   26.9640   46.4070 O   0  0  0  0  0  0  0  0  0  0  0  0
   58.1760   28.7370   45.5690 C   0  0  0  0  0  0  0  0  0  0  0  0
   58.5410   29.3830   44.4000 C   0  0  0  0  0  0  0  0  0  0  0  0
   57.3710   29.8160   43.8190 C   0  0  0  0  0  0  0  0  0  0  0  0
   56.3620   29.4260   44.6730 C   0  0  0  0  0  0  0  0  0  0  0  0
   55.0080   29.6690   44.4740 O   0  0  0  0  0  0  0  0  0  0  0  0
   56.8400   28.7760   45.7510 N   0  0  0  0  0  0  0  0  0  0  0  0
   55.2440   30.3510   52.3200 C   0  0  0  0  0  0  0  0  0  0  0  0
   52.3440   29.7680   50.5150 S   0  0  0  0  0  0  0  0  0  0  0  0
   52.5006   31.4686   53.8004 H   0  0  0  0  0  0  0  0  0  0  0  0
   53.3499   29.0417   54.8502 H   0  0  0  0  0  0  0  0  0  0  0  0
   55.4447   27.7318   55.1949 H   0  0  0  0  0  0  0  0  0  0  0  0
   57.4059   28.0847   53.6943 H   0  0  0  0  0  0  0  0  0  0  0  0
   57.2093   31.2694   50.1453 H   0  0  0  0  0  0  0  0  0  0  0  0
   57.6446   31.8843   51.7915 H   0  0  0  0  0  0  0  0  0  0  0  0
   59.8365   32.2192   52.4568 H   0  0  0  0  0  0  0  0  0  0  0  0
   62.2529   32.3585   51.8819 H   0  0  0  0  0  0  0  0  0  0  0  0
   63.0865   31.4040   49.7365 H   0  0  0  0  0  0  0  0  0  0  0  0
   61.5079   30.3066   48.1600 H   0  0  0  0  0  0  0  0  0  0  0  0
   58.0274   29.4379   48.9804 H   0  0  0  0  0  0  0  0  0  0  0  0
   58.4606   30.6580   47.7221 H   0  0  0  0  0  0  0  0  0  0  0  0
   59.5613   29.5222   44.0133 H   0  0  0  0  0  0  0  0  0  0  0  0
   57.2634   30.3607   42.8694 H   0  0  0  0  0  0  0  0  0  0  0  0
   54.3350   28.9110   44.4980 H   0  0  0  0  0  0  0  0  0  0  0  0
   55.1990   31.1193   51.5341 H   0  0  0  0  0  0  0  0  0  0  0  0
  1  2  2  0
  2  3  1  0
  3  4  1  0
  4  5  2  0
  4  6  1  0
  6  7  2  3
  7  8  1  0
  8  9  2  0
  9 10  1  0
 10 11  2  0
 11 12  1  0
 12 13  1  0
 13 14  1  0
 14 15  1  0
 15 16  2  0
 16 17  1  0
 17 18  2  0
 18 19  1  0
 19 20  2  0
 20 21  1  0
 21 22  1  0
 22 23  1  0
 23 24  2  0
 23 25  1  0
 25 26  2  0
 26 27  1  0
 27 28  2  0
 28 29  1  0
 28 30  1  0
 12 31  2  0
  6 32  1  0
 32  2  1  0
 31  8  1  0
 20 15  1  0
 30 25  1  0
  7 33  1  0
  9 34  1  0
 10 35  1  0
 11 36  1  0
 14 37  1  0
 14 38  1  0
 16 39  1  0
 17 40  1  0
 18 41  1  0
 19 42  1  0
 21 43  1  0
 21 44  1  0
 26 45  1  0
 27 46  1  0
 29 47  1  0
 31 48  1  0
M  CHG  3   3  -1  22  -1  30  -1
M  END
>  <UniqueID>  (91) 
88

>  <SMILES>  (91) 
O=C1[N-]C(=O)C(=Cc2cccc(OCc3ccccc3C[N-]C(=O)c3ccc(O)[n-]3)c2)S1

>  <Energy>  (91) 
105.20237577582586

>  <Genealogy>  (91) 
O=C1[N-]C(=O)C(=Cc2cccc(OCc3ccccc3C[N-]C(=O)c3ccc(O)[n-]3)c2)S1 (protonated)
O=C1[N-]C(=O)C(=Cc2cccc(OCc3ccccc3C[N-]C(=O)c3ccc(O)[n-]3)c2)S1 (3D coordinates assigned)
O=C1[N-]C(=O)C(=Cc2cccc(OCc3ccccc3C[N-]C(=O)c3ccc(O)[n-]3)c2)S1 (nonaromatic ring conformer: 105.20237577582586 kcal/mol)

>  <smiles>  (91) 
O=C1NC(=O)C(=Cc2cccc(OCc3ccccc3CNC(=O)c3ccc(O)[nH]3)c2)S1

>  <score_type>  (91) 
oracle

>  <origin>  (91) 
adg

>  <m_score__min__energy>  (91) 
-15.779999999999999

>  <m_primary>  (91) 
energy

$$$$
91:0
     RDKit          3D

 50 53  0  0  0  0  0  0  0  0999 V2000
   55.9506   30.2340   51.8644 H   0  0  0  0  0  0  0  0  0  0  0  0
   54.9120   30.5230   52.0830 C   0  0  0  0  0  0  0  0  0  0  0  0
   54.2856   30.9628   51.2930 H   0  0  0  0  0  0  0  0  0  0  0  0
   54.4090   30.3390   53.3140 C   0  0  0  0  0  0  0  0  0  0  0  0
   53.1190   30.6440   53.7730 C   0  0  0  0  0  0  0  0  0  0  0  0
   52.1030   31.3140   53.1900 C   0  0  0  0  0  0  0  0  0  0  0  0
   51.5321   32.0114   53.8207 H   0  0  0  0  0  0  0  0  0  0  0  0
   51.6930   31.1900   51.7770 C   0  0  0  0  0  0  0  0  0  0  0  0
   51.1940   32.3030   51.0870 C   0  0  0  0  0  0  0  0  0  0  0  0
   51.0270   33.5220   51.7330 O   0  0  0  0  0  0  0  0  0  0  0  0
   50.8600   32.1930   49.7740 N   0  0  0  0  0  0  0  0  0  0  0  0
   51.0170   31.0210   49.1070 C   0  0  0  0  0  0  0  0  0  0  0  0
   50.6970   30.9420   47.8930 O   0  0  0  0  0  0  0  0  0  0  0  0
   51.5240   29.9360   49.7470 N   0  0  0  0  0  0  0  0  0  0  0  0
   51.8740   29.9940   51.0580 C   0  0  0  0  0  0  0  0  0  0  0  0
   52.3600   28.9740   51.6150 O   0  0  0  0  0  0  0  0  0  0  0  0
   53.0790   30.0970   55.0510 C   0  0  0  0  0  0  0  0  0  0  0  0
   51.9280   30.1310   56.0080 C   0  0  0  0  0  0  0  0  0  0  0  0
   52.3087   30.1198   57.0400 H   0  0  0  0  0  0  0  0  0  0  0  0
   51.3414   31.0469   55.8436 H   0  0  0  0  0  0  0  0  0  0  0  0
   51.2883   29.2514   55.8436 H   0  0  0  0  0  0  0  0  0  0  0  0
   54.2680   29.5480   55.3550 N   0  0  0  0  0  0  0  0  0  0  0  0
   55.0730   29.7060   54.3160 N   0  0  0  0  0  0  0  0  0  0  0  0
   56.4340   29.1660   54.2970 C   0  0  0  0  0  0  0  0  0  0  0  0
   56.6562   28.7077   55.2720 H   0  0  0  0  0  0  0  0  0  0  0  0
   56.5085   28.4113   53.5002 H   0  0  0  0  0  0  0  0  0  0  0  0
   57.4470   30.2850   54.0210 C   0  0  0  0  0  0  0  0  0  0  0  0
   56.9206   31.1323   53.5573 H   0  0  0  0  0  0  0  0  0  0  0  0
   57.9019   30.5713   54.9807 H   0  0  0  0  0  0  0  0  0  0  0  0
   58.5740   29.8320   53.0840 C   0  0  0  0  0  0  0  0  0  0  0  0
   59.5408   30.1187   53.5233 H   0  0  0  0  0  0  0  0  0  0  0  0
   58.5057   28.7406   52.9650 H   0  0  0  0  0  0  0  0  0  0  0  0
   58.4490   30.4620   51.7270 C   0  0  0  0  0  0  0  0  0  0  0  0
   57.8350   29.8460   50.8140 O   0  0  0  0  0  0  0  0  0  0  0  0
   59.0320   31.7500   51.4760 N   0  0  0  0  0  0  0  0  0  0  0  0
   59.2520   32.3570   52.2980 H   0  0  0  0  0  0  0  0  0  0  0  0
   59.2710   32.2830   50.1620 C   0  0  0  0  0  0  0  0  0  0  0  0
   58.2190   32.4140   49.2140 C   0  0  0  0  0  0  0  0  0  0  0  0
   57.1946   32.1262   49.4929 H   0  0  0  0  0  0  0  0  0  0  0  0
   58.4770   32.9080   47.9240 C   0  0  0  0  0  0  0  0  0  0  0  0
   57.6679   33.0230   47.1878 H   0  0  0  0  0  0  0  0  0  0  0  0
   59.7890   33.2470   47.6080 C   0  0  0  0  0  0  0  0  0  0  0  0
   60.8010   33.1100   48.5000 C   0  0  0  0  0  0  0  0  0  0  0  0
   60.5890   32.6240   49.7870 C   0  0  0  0  0  0  0  0  0  0  0  0
   61.4251   32.5087   50.4925 H   0  0  0  0  0  0  0  0  0  0  0  0
   61.9870   33.5140   47.9170 O   0  0  0  0  0  0  0  0  0  0  0  0
   61.7010   33.9290   46.5740 C   0  0  0  0  0  0  0  0  0  0  0  0
   61.9695   34.9861   46.4311 H   0  0  0  0  0  0  0  0  0  0  0  0
   62.2763   33.3537   45.8337 H   0  0  0  0  0  0  0  0  0  0  0  0
   60.2870   33.7430   46.4180 O   0  0  0  0  0  0  0  0  0  0  0  0
  1  2  1  0
  2  3  1  0
  2  4  2  0
  4  5  1  0
  5  6  2  0
  6  7  1  0
  6  8  1  0
  8  9  2  0
  9 10  1  0
  9 11  1  0
 11 12  1  0
 12 13  2  0
 12 14  1  0
 14 15  1  0
 15 16  2  0
  5 17  1  0
 17 18  1  0
 18 19  1  0
 18 20  1  0
 18 21  1  0
 17 22  2  0
 22 23  1  0
 23 24  1  0
 24 25  1  0
 24 26  1  0
 24 27  1  0
 27 28  1  0
 27 29  1  0
 27 30  1  0
 30 31  1  0
 30 32  1  0
 30 33  1  0
 33 34  2  0
 33 35  1  0
 35 36  1  0
 35 37  1  0
 37 38  2  0
 38 39  1  0
 38 40  1  0
 40 41  1  0
 40 42  2  0
 42 43  1  0
 43 44  2  0
 44 45  1  0
 43 46  1  0
 46 47  1  0
 47 48  1  0
 47 49  1  0
 47 50  1  0
 23  4  1  0
 44 37  1  0
 15  8  1  0
 50 42  1  0
M  CHG  3  10  -1  11  -1  14  -1
M  END
>  <UniqueID>  (92) 
89

>  <SMILES>  (92) 
C=c1/c(=C\c2c([O-])[n-]c(=O)[n-]c2=O)c(C)nn1CCCC(=O)Nc1ccc2c(c1)OCO2

>  <Energy>  (92) 
125.59041668309233

>  <Genealogy>  (92) 
C=c1c(=Cc2c([O-])[n-]c(=O)[n-]c2=O)c(C)nn1CCCC(=O)Nc1ccc2c(c1)OCO2 (protonated)
C=c1/c(=C\c2c([O-])[n-]c(=O)[n-]c2=O)c(C)nn1CCCC(=O)Nc1ccc2c(c1)OCO2 (cis-trans isomerization)
C=c1/c(=C\c2c([O-])[n-]c(=O)[n-]c2=O)c(C)nn1CCCC(=O)Nc1ccc2c(c1)OCO2 (3D coordinates assigned)
C=c1/c(=C\c2c([O-])[n-]c(=O)[n-]c2=O)c(C)nn1CCCC(=O)Nc1ccc2c(c1)OCO2 (nonaromatic ring conformer: 125.59041668309233 kcal/mol)

>  <smiles>  (92) 
C=c1c(=Cc2c(O)[nH]c(=O)[nH]c2=O)c(C)nn1CCCC(=O)Nc1ccc2c(c1)OCO2

>  <score_type>  (92) 
oracle

>  <origin>  (92) 
adg

>  <m_score__min__energy>  (92) 
-16.710000000000001

>  <m_primary>  (92) 
energy

$$$$
