0:0
     RDKit          3D

 66 69  0  0  0  0  0  0  0  0999 V2000
   65.5890   32.7600   49.8160 C   0  0  0  0  0  0  0  0  0  0  0  0
   65.4920   31.5080   50.6820 C   0  0  0  0  0  0  0  0  0  0  0  0
   64.0890   31.0220   50.7340 N   0  0  0  0  0  0  0  0  0  0  0  0
   63.2550   31.2780   49.5560 C   0  0  0  0  0  0  0  0  0  0  0  0
   61.8590   31.6280   49.9810 C   0  0  0  0  0  0  0  0  0  0  0  0
   61.2920   32.8580   49.8090 C   0  0  0  0  0  0  0  0  0  0  0  0
   61.8710   33.9470   48.9680 C   0  0  0  0  0  0  0  0  0  0  0  0
   62.3600   34.9840   49.5260 O   0  0  0  0  0  0  0  0  0  0  0  0
   61.7340   33.9250   47.5710 O   0  0  0  0  0  0  0  0  0  0  0  0
   62.8050   33.5340   46.7070 C   0  0  0  0  0  0  0  0  0  0  0  0
   59.8720   33.0720   50.3190 C   0  0  0  0  0  0  0  0  0  0  0  0
   58.9190   31.9930   49.7350 C   0  0  1  0  0  0  0  0  0  0  0  0
   57.5820   32.1160   50.2410 O   0  0  0  0  0  0  0  0  0  0  0  0
   57.4140   32.1100   51.9370 S   0  0  0  0  0  0  0  0  0  0  0  0
   57.0130   33.4440   52.4970 O   0  0  0  0  0  0  0  0  0  0  0  0
   58.7300   31.7060   52.5500 O   0  0  0  0  0  0  0  0  0  0  0  0
   56.1980   30.8880   52.3780 C   0  0  0  0  0  0  0  0  0  0  0  0
   55.9910   30.8930   53.7410 F   0  0  0  0  0  0  0  0  0  0  0  0
   55.0050   31.1650   51.7210 F   0  0  0  0  0  0  0  0  0  0  0  0
   56.6370   29.6310   51.9960 F   0  0  0  0  0  0  0  0  0  0  0  0
   58.8200   32.2300   48.2190 C   0  0  0  0  0  0  0  0  0  0  0  0
   59.1170   31.2060   47.2740 C   0  0  0  0  0  0  0  0  0  0  0  0
   59.1270   31.4840   45.9010 C   0  0  0  0  0  0  0  0  0  0  0  0
   58.8110   32.7680   45.4420 C   0  0  0  0  0  0  0  0  0  0  0  0
   58.8910   33.0560   44.1240 F   0  0  0  0  0  0  0  0  0  0  0  0
   58.5310   33.7850   46.3560 C   0  0  0  0  0  0  0  0  0  0  0  0
   58.5750   33.5390   47.7360 C   0  0  0  0  0  0  0  0  0  0  0  0
   59.5090   30.6200   50.0090 C   0  0  0  0  0  0  0  0  0  0  0  0
   58.7410   29.6170   49.9810 O   0  0  0  0  0  0  0  0  0  0  0  0
   60.9760   30.4790   50.3260 C   0  0  0  0  0  0  0  0  0  0  0  0
   61.4660   29.2570   50.6720 C   0  0  0  0  0  0  0  0  0  0  0  0
   62.6630   28.9910   51.4450 N   0  0  2  0  0  0  0  0  0  0  0  0
   62.3540   28.2090   52.6850 C   0  0  0  0  0  0  0  0  0  0  0  0
   60.9990   28.5180   53.2990 C   0  0  0  0  0  0  0  0  0  0  0  0
   60.8470   29.6720   54.0980 C   0  0  0  0  0  0  0  0  0  0  0  0
   59.6220   29.9390   54.7310 C   0  0  0  0  0  0  0  0  0  0  0  0
   58.5470   29.0550   54.5590 C   0  0  0  0  0  0  0  0  0  0  0  0
   58.6860   27.9360   53.7390 C   0  0  0  0  0  0  0  0  0  0  0  0
   59.9060   27.6610   53.1160 C   0  0  0  0  0  0  0  0  0  0  0  0
   63.7460   29.9540   51.6530 C   0  0  0  0  0  0  0  0  0  0  0  0
   64.4390   29.7990   52.7110 O   0  0  0  0  0  0  0  0  0  0  0  0
   65.6578   33.6480   50.4616 H   0  0  0  0  0  0  0  0  0  0  0  0
   66.4850   32.6981   49.1810 H   0  0  0  0  0  0  0  0  0  0  0  0
   64.6941   32.8368   49.1810 H   0  0  0  0  0  0  0  0  0  0  0  0
   66.1324   30.7218   50.2556 H   0  0  0  0  0  0  0  0  0  0  0  0
   65.8229   31.7530   51.7020 H   0  0  0  0  0  0  0  0  0  0  0  0
   63.6815   32.1142   48.9826 H   0  0  0  0  0  0  0  0  0  0  0  0
   63.2258   30.3732   48.9311 H   0  0  0  0  0  0  0  0  0  0  0  0
   63.6679   33.2190   47.3121 H   0  0  0  0  0  0  0  0  0  0  0  0
   62.4773   32.6975   46.0723 H   0  0  0  0  0  0  0  0  0  0  0  0
   63.0933   34.3849   46.0723 H   0  0  0  0  0  0  0  0  0  0  0  0
   59.8670   33.0041   51.4169 H   0  0  0  0  0  0  0  0  0  0  0  0
   59.5242   34.0657   50.0004 H   0  0  0  0  0  0  0  0  0  0  0  0
   59.3405   30.1880   47.6256 H   0  0  0  0  0  0  0  0  0  0  0  0
   59.3837   30.6918   45.1823 H   0  0  0  0  0  0  0  0  0  0  0  0
   58.2732   34.7898   45.9902 H   0  0  0  0  0  0  0  0  0  0  0  0
   58.4188   34.3650   48.4455 H   0  0  0  0  0  0  0  0  0  0  0  0
   60.8949   28.3814   50.3298 H   0  0  0  0  0  0  0  0  0  0  0  0
   63.1530   28.2990   50.8370 H   0  0  0  0  0  0  0  0  0  0  0  0
   62.3817   27.1386   52.4329 H   0  0  0  0  0  0  0  0  0  0  0  0
   63.1099   28.4925   53.4322 H   0  0  0  0  0  0  0  0  0  0  0  0
   61.6917   30.3650   54.2253 H   0  0  0  0  0  0  0  0  0  0  0  0
   59.5065   30.8357   55.3576 H   0  0  0  0  0  0  0  0  0  0  0  0
   57.5926   29.2448   55.0719 H   0  0  0  0  0  0  0  0  0  0  0  0
   57.8289   27.2648   53.5814 H   0  0  0  0  0  0  0  0  0  0  0  0
   60.0085   26.7693   52.4802 H   0  0  0  0  0  0  0  0  0  0  0  0
  1  2  1  0
  2  3  1  0
  3  4  1  0
  4  5  1  0
  5  6  2  0
  6  7  1  0
  7  8  2  0
  7  9  1  0
  9 10  1  0
  6 11  1  0
 11 12  1  0
 12 13  1  1
 13 14  1  0
 14 15  2  0
 14 16  2  0
 14 17  1  0
 17 18  1  0
 17 19  1  0
 17 20  1  0
 12 21  1  0
 21 22  2  0
 22 23  1  0
 23 24  2  0
 24 25  1  0
 24 26  1  0
 26 27  2  0
 12 28  1  0
 28 29  2  0
 28 30  1  0
 30 31  2  0
 31 32  1  0
 32 33  1  0
 33 34  1  0
 34 35  2  0
 35 36  1  0
 36 37  2  0
 37 38  1  0
 38 39  2  0
 32 40  1  0
 40 41  2  0
 40  3  1  0
 30  5  1  0
 39 34  1  0
 27 21  1  0
  1 42  1  0
  1 43  1  0
  1 44  1  0
  2 45  1  0
  2 46  1  0
  4 47  1  0
  4 48  1  0
 10 49  1  0
 10 50  1  0
 10 51  1  0
 11 52  1  0
 11 53  1  0
 22 54  1  0
 23 55  1  0
 26 56  1  0
 27 57  1  0
 31 58  1  0
 32 59  1  6
 33 60  1  0
 33 61  1  0
 35 62  1  0
 36 63  1  0
 37 64  1  0
 38 65  1  0
 39 66  1  0
M  CHG  1  32   1
M  END
>  <UniqueID>  (1) 
1

>  <SMILES>  (1) 
CCN1CC2=C(C(=O)OC)C[C@@](OS(=O)(=O)C(F)(F)F)(c3ccc(F)cc3)C(=O)C2=C[N@H+](Cc2ccccc2)C1=O

>  <Energy>  (1) 
129.33829461912825

>  <Genealogy>  (1) 
CCN1CC2=C(C(=O)OC)CC(OS(=O)(=O)C(F)(F)F)(c3ccc(F)cc3)C(=O)C2=C[NH+](Cc2ccccc2)C1=O (protonated)
CCN1CC2=C(C(=O)OC)C[C@@](OS(=O)(=O)C(F)(F)F)(c3ccc(F)cc3)C(=O)C2=C[N@H+](Cc2ccccc2)C1=O (chirality)
CCN1CC2=C(C(=O)OC)C[C@@](OS(=O)(=O)C(F)(F)F)(c3ccc(F)cc3)C(=O)C2=C[N@H+](Cc2ccccc2)C1=O (3D coordinates assigned)
CCN1CC2=C(C(=O)OC)C[C@@](OS(=O)(=O)C(F)(F)F)(c3ccc(F)cc3)C(=O)C2=C[N@H+](Cc2ccccc2)C1=O (nonaromatic ring conformer: 129.33829461912825 kcal/mol)

>  <smiles>  (1) 
CCN1CC2=C(C(=O)OC)CC(OS(=O)(=O)C(F)(F)F)(c3ccc(F)cc3)C(=O)C2=CN(Cc2ccccc2)C1=O

>  <score_type>  (1) 
oracle

>  <origin>  (1) 
adg

>  <m_score__min__energy>  (1) 
-4.6399999999999997

>  <m_primary>  (1) 
energy

$$$$
1:0
     RDKit          3D

 53 56  0  0  0  0  0  0  0  0999 V2000
   57.8414   32.6362   42.8803 H   0  0  0  0  0  0  0  0  0  0  0  0
   57.4150   31.7450   43.3640 C   0  0  0  0  0  0  0  0  0  0  0  0
   57.5890   31.5360   44.7440 C   0  0  0  0  0  0  0  0  0  0  0  0
   58.3490   32.4920   45.5890 C   0  0  0  0  0  0  0  0  0  0  0  0
   57.8140   33.7450   45.9420 C   0  0  0  0  0  0  0  0  0  0  0  0
   56.8114   34.0294   45.5901 H   0  0  0  0  0  0  0  0  0  0  0  0
   58.5470   34.6300   46.7360 C   0  0  0  0  0  0  0  0  0  0  0  0
   58.1259   35.6131   46.9933 H   0  0  0  0  0  0  0  0  0  0  0  0
   59.8120   34.2710   47.2040 C   0  0  0  0  0  0  0  0  0  0  0  0
   60.3909   34.9777   47.8167 H   0  0  0  0  0  0  0  0  0  0  0  0
   60.3480   33.0100   46.8950 C   0  0  0  0  0  0  0  0  0  0  0  0
   61.6530   32.6140   47.3390 N   0  0  0  0  0  0  0  0  0  0  0  0
   62.4250   33.2520   48.3620 C   0  0  0  0  0  0  0  0  0  0  0  0
   63.5560   33.7210   48.0680 O   0  0  0  0  0  0  0  0  0  0  0  0
   61.9660   33.2590   49.7210 N   0  0  0  0  0  0  0  0  0  0  0  0
   60.7910   32.6110   50.2290 C   0  0  0  0  0  0  0  0  0  0  0  0
   59.6750   33.3360   50.6770 C   0  0  0  0  0  0  0  0  0  0  0  0
   59.6957   34.4358   50.6662 H   0  0  0  0  0  0  0  0  0  0  0  0
   58.5370   32.6650   51.1370 C   0  0  0  0  0  0  0  0  0  0  0  0
   57.6692   33.2422   51.4887 H   0  0  0  0  0  0  0  0  0  0  0  0
   58.4920   31.2600   51.1540 C   0  0  0  0  0  0  0  0  0  0  0  0
   57.2750   30.5630   51.6380 C   0  0  0  0  0  0  0  0  0  0  0  0
   57.3450   29.3510   51.9790 O   0  0  0  0  0  0  0  0  0  0  0  0
   56.0130   31.2300   51.7140 N   0  0  0  0  0  0  0  0  0  0  0  0
   55.8660   32.1780   51.3040 H   0  0  0  0  0  0  0  0  0  0  0  0
   55.1840   30.7320   52.1120 H   0  0  0  0  0  0  0  0  0  0  0  0
   59.6010   30.5400   50.6730 C   0  0  0  0  0  0  0  0  0  0  0  0
   59.5750   29.4404   50.6611 H   0  0  0  0  0  0  0  0  0  0  0  0
   60.7360   31.2130   50.2100 C   0  0  0  0  0  0  0  0  0  0  0  0
   61.5927   30.6386   49.8277 H   0  0  0  0  0  0  0  0  0  0  0  0
   59.6210   32.1370   46.0760 C   0  0  0  0  0  0  0  0  0  0  0  0
   60.0502   31.1599   45.8095 H   0  0  0  0  0  0  0  0  0  0  0  0
   57.0630   30.4150   45.3130 N   0  0  0  0  0  0  0  0  0  0  0  0
   56.3600   29.4860   44.6090 C   0  0  0  0  0  0  0  0  0  0  0  0
   55.8940   28.4480   45.2420 N   0  0  0  0  0  0  0  0  0  0  0  0
   56.6720   27.3090   45.7230 C   0  0  0  0  0  0  0  0  0  0  0  0
   56.1561   26.8457   46.5769 H   0  0  0  0  0  0  0  0  0  0  0  0
   56.7789   26.5684   44.9167 H   0  0  0  0  0  0  0  0  0  0  0  0
   58.0290   27.7830   46.1540 C   0  0  0  0  0  0  0  0  0  0  0  0
   58.2370   28.2460   47.4640 C   0  0  0  0  0  0  0  0  0  0  0  0
   57.4084   28.2355   48.1874 H   0  0  0  0  0  0  0  0  0  0  0  0
   59.4940   28.7200   47.8510 C   0  0  0  0  0  0  0  0  0  0  0  0
   59.6547   29.0717   48.8808 H   0  0  0  0  0  0  0  0  0  0  0  0
   60.5460   28.7480   46.9330 C   0  0  0  0  0  0  0  0  0  0  0  0
   61.5350   29.1184   47.2408 H   0  0  0  0  0  0  0  0  0  0  0  0
   60.3420   28.3050   45.6220 C   0  0  0  0  0  0  0  0  0  0  0  0
   61.1698   28.3314   44.8981 H   0  0  0  0  0  0  0  0  0  0  0  0
   59.0880   27.8290   45.2310 C   0  0  0  0  0  0  0  0  0  0  0  0
   58.9289   27.4890   44.1970 H   0  0  0  0  0  0  0  0  0  0  0  0
   56.1640   29.6810   43.2280 C   0  0  0  0  0  0  0  0  0  0  0  0
   55.5950   28.9466   42.6390 H   0  0  0  0  0  0  0  0  0  0  0  0
   56.6980   30.8140   42.6140 C   0  0  0  0  0  0  0  0  0  0  0  0
   56.5530   30.9732   41.5353 H   0  0  0  0  0  0  0  0  0  0  0  0
  1  2  1  0
  2  3  2  0
  3  4  1  0
  4  5  2  0
  5  6  1  0
  5  7  1  0
  7  8  1  0
  7  9  2  0
  9 10  1  0
  9 11  1  0
 11 12  1  0
 12 13  1  0
 13 14  2  0
 13 15  1  0
 15 16  1  0
 16 17  2  0
 17 18  1  0
 17 19  1  0
 19 20  1  0
 19 21  2  0
 21 22  1  0
 22 23  2  0
 22 24  1  0
 24 25  1  0
 24 26  1  0
 21 27  1  0
 27 28  1  0
 27 29  2  0
 29 30  1  0
 11 31  2  0
 31 32  1  0
  3 33  1  0
 33 34  1  0
 34 35  2  0
 35 36  1  0
 36 37  1  0
 36 38  1  0
 36 39  1  0
 39 40  2  0
 40 41  1  0
 40 42  1  0
 42 43  1  0
 42 44  2  0
 44 45  1  0
 44 46  1  0
 46 47  1  0
 46 48  2  0
 48 49  1  0
 34 50  1  0
 50 51  1  0
 50 52  2  0
 52 53  1  0
 52  2  1  0
 31  4  1  0
 48 39  1  0
 29 16  1  0
M  CHG  3  12  -1  15  -1  33  -1
M  END
>  <UniqueID>  (2) 
2

>  <SMILES>  (2) 
NC(=O)c1ccc([N-]C(=O)[N-]c2cccc(-c3ccc/c(=N\Cc4ccccc4)[n-]3)c2)cc1

>  <Energy>  (2) 
71.09054378471858

>  <Genealogy>  (2) 
NC(=O)c1ccc([N-]C(=O)[N-]c2cccc(-c3cccc(=NCc4ccccc4)[n-]3)c2)cc1 (protonated)
NC(=O)c1ccc([N-]C(=O)[N-]c2cccc(-c3ccc/c(=N\Cc4ccccc4)[n-]3)c2)cc1 (cis-trans isomerization)
NC(=O)c1ccc([N-]C(=O)[N-]c2cccc(-c3ccc/c(=N\Cc4ccccc4)[n-]3)c2)cc1 (3D coordinates assigned)
NC(=O)c1ccc([N-]C(=O)[N-]c2cccc(-c3ccc/c(=N\Cc4ccccc4)[n-]3)c2)cc1 (optimized conformer: 71.09054378471858 kcal/mol)

>  <smiles>  (2) 
NC(=O)c1ccc(NC(=O)Nc2cccc(-c3cccc(=NCc4ccccc4)[nH]3)c2)cc1

>  <score_type>  (2) 
oracle

>  <origin>  (2) 
adg

>  <m_score__min__energy>  (2) 
-16.050000000000001

>  <m_primary>  (2) 
energy

$$$$
2:0
     RDKit          3D

 54 56  0  0  0  0  0  0  0  0999 V2000
   63.9900   30.6870   51.2040 C   0  0  0  0  0  0  0  0  0  0  0  0
   65.2560   31.4890   51.0760 C   0  0  0  0  0  0  0  0  0  0  0  0
   66.2590   31.3580   52.0520 C   0  0  0  0  0  0  0  0  0  0  0  0
   67.4440   32.0900   51.9550 C   0  0  0  0  0  0  0  0  0  0  0  0
   67.6490   32.9480   50.8750 C   0  0  0  0  0  0  0  0  0  0  0  0
   68.8080   33.6450   50.7760 F   0  0  0  0  0  0  0  0  0  0  0  0
   66.6680   33.0810   49.8910 C   0  0  0  0  0  0  0  0  0  0  0  0
   65.4600   32.3620   49.9810 C   0  0  0  0  0  0  0  0  0  0  0  0
   64.4710   32.4760   48.9420 N   0  0  0  0  0  0  0  0  0  0  0  0
   63.4360   33.4680   48.9360 C   0  0  0  0  0  0  0  0  0  0  0  0
   63.2140   34.1630   49.9640 O   0  0  0  0  0  0  0  0  0  0  0  0
   62.6000   33.5960   47.7790 N   0  0  0  0  0  0  0  0  0  0  0  0
   61.6610   32.6240   47.2930 C   0  0  0  0  0  0  0  0  0  0  0  0
   61.9460   31.2470   47.2960 C   0  0  0  0  0  0  0  0  0  0  0  0
   60.9990   30.3290   46.8360 C   0  0  0  0  0  0  0  0  0  0  0  0
   59.7430   30.7660   46.3810 C   0  0  0  0  0  0  0  0  0  0  0  0
   58.7740   29.8150   45.9000 N   0  0  0  0  0  0  0  0  0  0  0  0
   57.4320   29.9700   45.8870 C   0  0  0  0  0  0  0  0  0  0  0  0
   56.8780   28.8350   45.3370 C   0  0  0  0  0  0  0  0  0  0  0  0
   55.5210   28.6200   45.1290 O   0  0  0  0  0  0  0  0  0  0  0  0
   57.8520   27.9630   45.0080 N   0  0  0  0  0  0  0  0  0  0  0  0
   57.7050   26.6540   44.3620 C   0  0  0  0  0  0  0  0  0  0  0  0
   57.5700   25.4820   45.3800 C   0  0  0  0  0  0  0  0  0  0  0  0
   57.0770   24.2310   44.6220 C   0  0  0  0  0  0  0  0  0  0  0  0
   58.9400   25.1540   46.0100 C   0  0  0  0  0  0  0  0  0  0  0  0
   56.5690   25.8270   46.5130 C   0  0  0  0  0  0  0  0  0  0  0  0
   55.3190   26.2060   45.9970 O   0  0  0  0  0  0  0  0  0  0  0  0
   58.9960   28.5980   45.3470 C   0  0  0  0  0  0  0  0  0  0  0  0
   60.1430   28.1260   45.1280 O   0  0  0  0  0  0  0  0  0  0  0  0
   59.4560   32.1410   46.3940 C   0  0  0  0  0  0  0  0  0  0  0  0
   60.4040   33.0600   46.8560 C   0  0  0  0  0  0  0  0  0  0  0  0
   60.1020   34.3840   46.8600 F   0  0  0  0  0  0  0  0  0  0  0  0
   63.7559   30.5387   52.2685 H   0  0  0  0  0  0  0  0  0  0  0  0
   63.1635   31.2266   50.7185 H   0  0  0  0  0  0  0  0  0  0  0  0
   64.1247   29.7092   50.7185 H   0  0  0  0  0  0  0  0  0  0  0  0
   66.1091   30.6729   52.8995 H   0  0  0  0  0  0  0  0  0  0  0  0
   68.2168   31.9898   52.7314 H   0  0  0  0  0  0  0  0  0  0  0  0
   66.8398   33.7534   49.0375 H   0  0  0  0  0  0  0  0  0  0  0  0
   64.4700   31.7760   48.1670 H   0  0  0  0  0  0  0  0  0  0  0  0
   62.9200   30.8908   47.6626 H   0  0  0  0  0  0  0  0  0  0  0  0
   61.2382   29.2553   46.8298 H   0  0  0  0  0  0  0  0  0  0  0  0
   56.8789   30.8482   46.2515 H   0  0  0  0  0  0  0  0  0  0  0  0
   56.8048   26.6745   43.7302 H   0  0  0  0  0  0  0  0  0  0  0  0
   58.6169   26.4742   43.7737 H   0  0  0  0  0  0  0  0  0  0  0  0
   56.7732   23.4600   45.3454 H   0  0  0  0  0  0  0  0  0  0  0  0
   56.2177   24.5000   43.9902 H   0  0  0  0  0  0  0  0  0  0  0  0
   57.8889   23.8414   43.9902 H   0  0  0  0  0  0  0  0  0  0  0  0
   58.8538   25.1746   47.1064 H   0  0  0  0  0  0  0  0  0  0  0  0
   59.2623   24.1533   45.6863 H   0  0  0  0  0  0  0  0  0  0  0  0
   59.6805   25.9002   45.6863 H   0  0  0  0  0  0  0  0  0  0  0  0
   56.4377   24.9437   47.1553 H   0  0  0  0  0  0  0  0  0  0  0  0
   56.9759   26.6719   47.0879 H   0  0  0  0  0  0  0  0  0  0  0  0
   55.4920   26.7210   45.1660 H   0  0  0  0  0  0  0  0  0  0  0  0
   58.4782   32.4978   46.0381 H   0  0  0  0  0  0  0  0  0  0  0  0
  1  2  1  0
  2  3  2  0
  3  4  1  0
  4  5  2  0
  5  6  1  0
  5  7  1  0
  7  8  2  0
  8  9  1  0
  9 10  1  0
 10 11  2  0
 10 12  1  0
 12 13  1  0
 13 14  2  0
 14 15  1  0
 15 16  2  0
 16 17  1  0
 17 18  1  0
 18 19  2  0
 19 20  1  0
 19 21  1  0
 21 22  1  0
 22 23  1  0
 23 24  1  0
 23 25  1  0
 23 26  1  0
 26 27  1  0
 21 28  1  0
 28 29  2  0
 16 30  1  0
 30 31  2  0
 31 32  1  0
  8  2  1  0
 31 13  1  0
 28 17  1  0
  1 33  1  0
  1 34  1  0
  1 35  1  0
  3 36  1  0
  4 37  1  0
  7 38  1  0
  9 39  1  0
 14 40  1  0
 15 41  1  0
 18 42  1  0
 22 43  1  0
 22 44  1  0
 24 45  1  0
 24 46  1  0
 24 47  1  0
 25 48  1  0
 25 49  1  0
 25 50  1  0
 26 51  1  0
 26 52  1  0
 27 53  1  0
 30 54  1  0
M  CHG  2  12  -1  20  -1
M  END
>  <UniqueID>  (3) 
3

>  <SMILES>  (3) 
Cc1ccc(F)cc1NC(=O)[N-]c1ccc(-n2cc([O-])n(CC(C)(C)CO)c2=O)cc1F

>  <Energy>  (3) 
98.48445857877066

>  <Genealogy>  (3) 
Cc1ccc(F)cc1NC(=O)[N-]c1ccc(-n2cc([O-])n(CC(C)(C)CO)c2=O)cc1F (protonated)
Cc1ccc(F)cc1NC(=O)[N-]c1ccc(-n2cc([O-])n(CC(C)(C)CO)c2=O)cc1F (3D coordinates assigned)
Cc1ccc(F)cc1NC(=O)[N-]c1ccc(-n2cc([O-])n(CC(C)(C)CO)c2=O)cc1F (optimized conformer: 98.48445857877066 kcal/mol)

>  <smiles>  (3) 
Cc1ccc(F)cc1NC(=O)Nc1ccc(-n2cc(O)n(CC(C)(C)CO)c2=O)cc1F

>  <score_type>  (3) 
oracle

>  <origin>  (3) 
adg

>  <m_score__min__energy>  (3) 
-12.380000000000001

>  <m_primary>  (3) 
energy

$$$$
3:0
     RDKit          3D

 33 34  0  0  0  0  0  0  0  0999 V2000
   54.7740   26.3320   45.9890 N   0  0  0  0  0  0  0  0  0  0  0  0
   56.2900   25.5440   46.2310 S   0  0  0  0  0  0  0  0  0  0  0  0
   56.2870   24.8490   47.5630 O   0  0  0  0  0  0  0  0  0  0  0  0
   56.5030   24.5180   45.1530 O   0  0  0  0  0  0  0  0  0  0  0  0
   57.5870   26.7360   46.1850 C   0  0  0  0  0  0  0  0  0  0  0  0
   58.8640   26.4080   46.6560 C   0  0  0  0  0  0  0  0  0  0  0  0
   59.8940   27.3500   46.6050 C   0  0  0  0  0  0  0  0  0  0  0  0
   59.6520   28.6270   46.0900 C   0  0  0  0  0  0  0  0  0  0  0  0
   58.3710   28.9730   45.6270 C   0  0  0  0  0  0  0  0  0  0  0  0
   58.0970   30.2720   45.0800 N   0  0  0  0  0  0  0  0  0  0  0  0
   57.4560   30.4850   43.8110 C   0  0  0  0  0  0  0  0  0  0  0  0
   56.9810   29.5160   43.1590 O   0  0  0  0  0  0  0  0  0  0  0  0
   57.3910   31.8620   43.2210 C   0  0  0  0  0  0  0  0  0  0  0  0
   58.2040   32.7940   43.9980 N   0  0  0  0  0  0  0  0  0  0  0  0
   57.7570   33.5930   45.1030 C   0  0  0  0  0  0  0  0  0  0  0  0
   56.8520   34.4450   44.9040 O   0  0  0  0  0  0  0  0  0  0  0  0
   58.3380   33.4860   46.4520 C   0  0  0  0  0  0  0  0  0  0  0  0
   59.1170   34.4290   47.0960 C   0  0  0  0  0  0  0  0  0  0  0  0
   59.4380   33.8740   48.3150 C   0  0  0  0  0  0  0  0  0  0  0  0
   58.8470   32.6270   48.3380 C   0  0  0  0  0  0  0  0  0  0  0  0
   58.2060   32.4230   47.2100 O   0  0  0  0  0  0  0  0  0  0  0  0
   57.3490   28.0120   45.6570 C   0  0  0  0  0  0  0  0  0  0  0  0
   54.7100   27.0970   46.6980 H   0  0  0  0  0  0  0  0  0  0  0  0
   59.0566   25.4061   47.0672 H   0  0  0  0  0  0  0  0  0  0  0  0
   60.8974   27.0866   46.9707 H   0  0  0  0  0  0  0  0  0  0  0  0
   60.4675   29.3639   46.0470 H   0  0  0  0  0  0  0  0  0  0  0  0
   58.5430   31.0940   45.5470 H   0  0  0  0  0  0  0  0  0  0  0  0
   57.7660   31.8303   42.1874 H   0  0  0  0  0  0  0  0  0  0  0  0
   56.3460   32.2052   43.2368 H   0  0  0  0  0  0  0  0  0  0  0  0
   59.4176   35.4160   46.7147 H   0  0  0  0  0  0  0  0  0  0  0  0
   60.0438   34.3325   49.1105 H   0  0  0  0  0  0  0  0  0  0  0  0
   58.9041   31.9133   49.1731 H   0  0  0  0  0  0  0  0  0  0  0  0
   56.3530   28.2623   45.2629 H   0  0  0  0  0  0  0  0  0  0  0  0
  1  2  1  0
  2  3  2  0
  2  4  2  0
  2  5  1  0
  5  6  2  0
  6  7  1  0
  7  8  2  0
  8  9  1  0
  9 10  1  0
 10 11  1  0
 11 12  2  0
 11 13  1  0
 13 14  1  0
 14 15  1  0
 15 16  2  0
 15 17  1  0
 17 18  2  0
 18 19  1  0
 19 20  2  0
 20 21  1  0
  9 22  2  0
 22  5  1  0
 21 17  1  0
  1 23  1  0
  6 24  1  0
  7 25  1  0
  8 26  1  0
 10 27  1  0
 13 28  1  0
 13 29  1  0
 18 30  1  0
 19 31  1  0
 20 32  1  0
 22 33  1  0
M  CHG  2   1  -1  14  -1
M  END
>  <UniqueID>  (4) 
4

>  <SMILES>  (4) 
[NH-]S(=O)(=O)c1cccc(NC(=O)C[N-]C(=O)c2ccco2)c1

>  <Energy>  (4) 
62.341851530853674

>  <Genealogy>  (4) 
[NH-]S(=O)(=O)c1cccc(NC(=O)C[N-]C(=O)c2ccco2)c1 (protonated)
[NH-]S(=O)(=O)c1cccc(NC(=O)C[N-]C(=O)c2ccco2)c1 (3D coordinates assigned)
[NH-]S(=O)(=O)c1cccc(NC(=O)C[N-]C(=O)c2ccco2)c1 (optimized conformer: 62.341851530853674 kcal/mol)

>  <smiles>  (4) 
NS(=O)(=O)c1cccc(NC(=O)CNC(=O)c2ccco2)c1

>  <score_type>  (4) 
oracle

>  <origin>  (4) 
adg

>  <m_score__min__energy>  (4) 
-11.16

>  <m_primary>  (4) 
energy

$$$$
4:0
     RDKit          3D

 52 54  0  0  0  0  0  0  0  0999 V2000
   54.7250   26.3230   45.8840 N   0  0  0  0  0  0  0  0  0  0  0  0
   56.1240   25.3130   45.9860 S   0  0  0  0  0  0  0  0  0  0  0  0
   56.0800   24.5230   47.2680 O   0  0  0  0  0  0  0  0  0  0  0  0
   56.1400   24.3530   44.8280 O   0  0  0  0  0  0  0  0  0  0  0  0
   57.5700   26.3170   45.9510 C   0  0  0  0  0  0  0  0  0  0  0  0
   57.9420   26.9770   44.7710 C   0  0  0  0  0  0  0  0  0  0  0  0
   59.0990   27.7580   44.7410 C   0  0  0  0  0  0  0  0  0  0  0  0
   59.9010   27.8690   45.8810 C   0  0  0  0  0  0  0  0  0  0  0  0
   59.5550   27.1850   47.0590 C   0  0  0  0  0  0  0  0  0  0  0  0
   60.3500   27.2930   48.2500 N   0  0  0  0  0  0  0  0  0  0  0  0
   60.3960   28.4340   49.1220 C   0  0  0  0  0  0  0  0  0  0  0  0
   60.7790   28.2760   50.3110 O   0  0  0  0  0  0  0  0  0  0  0  0
   60.0280   29.8080   48.6410 C   0  0  0  0  0  0  0  0  0  0  0  0
   60.2950   30.7720   49.6580 O   0  0  0  0  0  0  0  0  0  0  0  0
   61.1850   31.8320   49.4620 C   0  0  0  0  0  0  0  0  0  0  0  0
   62.1240   31.7340   48.6250 O   0  0  0  0  0  0  0  0  0  0  0  0
   61.0010   33.1060   50.2280 C   0  0  0  0  0  0  0  0  0  0  0  0
   60.3830   34.2090   49.3550 C   0  0  0  0  0  0  0  0  0  0  0  0
   59.7070   33.6420   48.1310 C   0  0  0  0  0  0  0  0  0  0  0  0
   60.3350   33.7110   46.8770 C   0  0  0  0  0  0  0  0  0  0  0  0
   59.7490   33.1050   45.7620 C   0  0  0  0  0  0  0  0  0  0  0  0
   58.5310   32.4170   45.8860 C   0  0  0  0  0  0  0  0  0  0  0  0
   57.9490   31.7590   44.7470 N   0  0  0  0  0  0  0  0  0  0  0  0
   57.2710   30.4960   44.8750 C   0  0  0  0  0  0  0  0  0  0  0  0
   57.2390   29.8900   45.9800 O   0  0  0  0  0  0  0  0  0  0  0  0
   56.6760   29.8590   43.6510 C   0  0  0  0  0  0  0  0  0  0  0  0
   56.3000   30.8380   42.6950 O   0  0  0  0  0  0  0  0  0  0  0  0
   57.4290   31.5830   42.2770 C   0  0  0  0  0  0  0  0  0  0  0  0
   58.0130   32.3420   43.4350 C   0  0  0  0  0  0  0  0  0  0  0  0
   58.5590   33.4630   43.2460 O   0  0  0  0  0  0  0  0  0  0  0  0
   57.8990   32.3580   47.1380 C   0  0  0  0  0  0  0  0  0  0  0  0
   58.4820   32.9660   48.2510 C   0  0  0  0  0  0  0  0  0  0  0  0
   58.3750   26.4310   47.0960 C   0  0  0  0  0  0  0  0  0  0  0  0
   54.8500   27.0950   46.5820 H   0  0  0  0  0  0  0  0  0  0  0  0
   57.3216   26.8793   43.8679 H   0  0  0  0  0  0  0  0  0  0  0  0
   59.3802   28.2871   43.8185 H   0  0  0  0  0  0  0  0  0  0  0  0
   60.8059   28.4939   45.8558 H   0  0  0  0  0  0  0  0  0  0  0  0
   60.6194   30.0505   47.7458 H   0  0  0  0  0  0  0  0  0  0  0  0
   58.9553   29.8288   48.3983 H   0  0  0  0  0  0  0  0  0  0  0  0
   60.3371   32.9147   51.0839 H   0  0  0  0  0  0  0  0  0  0  0  0
   61.9900   33.4493   50.5657 H   0  0  0  0  0  0  0  0  0  0  0  0
   59.6391   34.7591   49.9500 H   0  0  0  0  0  0  0  0  0  0  0  0
   61.1926   34.8746   49.0210 H   0  0  0  0  0  0  0  0  0  0  0  0
   61.2915   34.2439   46.7717 H   0  0  0  0  0  0  0  0  0  0  0  0
   60.2446   33.1673   44.7820 H   0  0  0  0  0  0  0  0  0  0  0  0
   57.4187   29.1841   43.2005 H   0  0  0  0  0  0  0  0  0  0  0  0
   55.7767   29.3009   43.9507 H   0  0  0  0  0  0  0  0  0  0  0  0
   58.1878   30.8960   41.8741 H   0  0  0  0  0  0  0  0  0  0  0  0
   57.1176   32.2985   41.5017 H   0  0  0  0  0  0  0  0  0  0  0  0
   56.9396   31.8301   47.2425 H   0  0  0  0  0  0  0  0  0  0  0  0
   57.9789   32.9153   49.2279 H   0  0  0  0  0  0  0  0  0  0  0  0
   58.0775   25.9257   48.0266 H   0  0  0  0  0  0  0  0  0  0  0  0
  1  2  1  0
  2  3  2  0
  2  4  2  0
  2  5  1  0
  5  6  2  0
  6  7  1  0
  7  8  2  0
  8  9  1  0
  9 10  1  0
 10 11  1  0
 11 12  2  0
 11 13  1  0
 13 14  1  0
 14 15  1  0
 15 16  2  0
 15 17  1  0
 17 18  1  0
 18 19  1  0
 19 20  2  0
 20 21  1  0
 21 22  2  0
 22 23  1  0
 23 24  1  0
 24 25  2  0
 24 26  1  0
 26 27  1  0
 27 28  1  0
 28 29  1  0
 29 30  2  0
 22 31  1  0
 31 32  2  0
  9 33  2  0
 33  5  1  0
 32 19  1  0
 29 23  1  0
  1 34  1  0
  6 35  1  0
  7 36  1  0
  8 37  1  0
 13 38  1  0
 13 39  1  0
 17 40  1  0
 17 41  1  0
 18 42  1  0
 18 43  1  0
 20 44  1  0
 21 45  1  0
 26 46  1  0
 26 47  1  0
 28 48  1  0
 28 49  1  0
 31 50  1  0
 32 51  1  0
 33 52  1  0
M  CHG  2   1  -1  10  -1
M  END
>  <UniqueID>  (5) 
5

>  <SMILES>  (5) 
[NH-]S(=O)(=O)c1cccc([N-]C(=O)COC(=O)CCc2ccc(N3C(=O)COCC3=O)cc2)c1

>  <Energy>  (5) 
62.23067858630781

>  <Genealogy>  (5) 
[NH-]S(=O)(=O)c1cccc([N-]C(=O)COC(=O)CCc2ccc(N3C(=O)COCC3=O)cc2)c1 (protonated)
[NH-]S(=O)(=O)c1cccc([N-]C(=O)COC(=O)CCc2ccc(N3C(=O)COCC3=O)cc2)c1 (3D coordinates assigned)
[NH-]S(=O)(=O)c1cccc([N-]C(=O)COC(=O)CCc2ccc(N3C(=O)COCC3=O)cc2)c1 (nonaromatic ring conformer: 62.23067858630781 kcal/mol)

>  <smiles>  (5) 
NS(=O)(=O)c1cccc(NC(=O)COC(=O)CCc2ccc(N3C(=O)COCC3=O)cc2)c1

>  <score_type>  (5) 
oracle

>  <origin>  (5) 
adg

>  <m_score__min__energy>  (5) 
-13.35

>  <m_primary>  (5) 
energy

$$$$
5:0
     RDKit          3D

 64 64  0  0  0  0  0  0  0  0999 V2000
   60.9200   29.2900   45.0240 H   0  0  0  0  0  0  0  0  0  0  0  0
   60.3010   28.7570   44.4260 O   0  0  0  0  0  0  0  0  0  0  0  0
   59.0370   28.3870   44.8710 C   0  0  0  0  0  0  0  0  0  0  0  0
   58.7970   27.3190   45.6010 O   0  0  0  0  0  0  0  0  0  0  0  0
   57.5030   27.2600   45.8360 C   0  0  0  0  0  0  0  0  0  0  0  0
   56.8200   26.1700   46.6230 C   0  0  2  0  0  0  0  0  0  0  0  0
   56.0586   26.6460   47.2583 H   0  0  0  0  0  0  0  0  0  0  0  0
   57.8020   25.4570   47.5620 C   0  0  0  0  0  0  0  0  0  0  0  0
   57.5231   25.6595   48.6066 H   0  0  0  0  0  0  0  0  0  0  0  0
   57.7658   24.3734   47.3763 H   0  0  0  0  0  0  0  0  0  0  0  0
   58.8211   25.8270   47.3763 H   0  0  0  0  0  0  0  0  0  0  0  0
   56.0720   25.1830   45.6990 C   0  0  0  0  0  0  0  0  0  0  0  0
   55.1675   25.6825   45.3216 H   0  0  0  0  0  0  0  0  0  0  0  0
   55.8476   24.2928   46.3049 H   0  0  0  0  0  0  0  0  0  0  0  0
   56.8900   24.7010   44.4980 C   0  0  0  0  0  0  0  0  0  0  0  0
   57.7868   24.1725   44.8535 H   0  0  0  0  0  0  0  0  0  0  0  0
   56.2795   24.0183   43.8888 H   0  0  0  0  0  0  0  0  0  0  0  0
   57.1914   25.5659   43.8888 H   0  0  0  0  0  0  0  0  0  0  0  0
   56.8810   28.3320   45.2250 C   0  0  0  0  0  0  0  0  0  0  0  0
   55.5200   28.6080   45.2250 O   0  0  0  0  0  0  0  0  0  0  0  0
   57.8660   29.0720   44.6080 C   0  0  0  0  0  0  0  0  0  0  0  0
   57.6920   30.3050   43.7680 C   0  0  0  0  0  0  0  0  0  0  0  0
   58.6804   30.7536   43.5895 H   0  0  0  0  0  0  0  0  0  0  0  0
   57.2105   30.0046   42.8257 H   0  0  0  0  0  0  0  0  0  0  0  0
   56.7900   31.3500   44.4440 C   0  0  0  0  0  0  0  0  0  0  0  0
   55.9550   31.5823   43.7666 H   0  0  0  0  0  0  0  0  0  0  0  0
   56.4420   30.9176   45.3937 H   0  0  0  0  0  0  0  0  0  0  0  0
   57.5150   32.6360   44.7730 C   0  0  0  0  0  0  0  0  0  0  0  0
   57.5464   33.4135   43.9954 H   0  0  0  0  0  0  0  0  0  0  0  0
   58.1280   32.9050   45.9490 C   0  0  0  0  0  0  0  0  0  0  0  0
   57.3800   33.4710   47.1330 C   0  0  0  0  0  0  0  0  0  0  0  0
   57.8467   33.1179   48.0644 H   0  0  0  0  0  0  0  0  0  0  0  0
   57.4163   34.5699   47.0984 H   0  0  0  0  0  0  0  0  0  0  0  0
   56.3324   33.1374   47.0984 H   0  0  0  0  0  0  0  0  0  0  0  0
   59.6050   32.6010   46.0830 C   0  0  0  0  0  0  0  0  0  0  0  0
   60.0957   32.7592   45.1113 H   0  0  0  0  0  0  0  0  0  0  0  0
   60.0362   33.2703   46.8420 H   0  0  0  0  0  0  0  0  0  0  0  0
   59.8220   31.1490   46.5260 C   0  0  0  0  0  0  0  0  0  0  0  0
   59.2367   30.4823   45.8756 H   0  0  0  0  0  0  0  0  0  0  0  0
   60.8939   30.9140   46.4503 H   0  0  0  0  0  0  0  0  0  0  0  0
   59.3850   30.9540   47.9540 C   0  0  0  0  0  0  0  0  0  0  0  0
   58.6157   31.6340   48.3488 H   0  0  0  0  0  0  0  0  0  0  0  0
   59.8690   30.0040   48.7870 C   0  0  0  0  0  0  0  0  0  0  0  0
   59.6890   28.5580   48.4000 C   0  0  0  0  0  0  0  0  0  0  0  0
   59.6123   27.9422   49.3082 H   0  0  0  0  0  0  0  0  0  0  0  0
   58.7704   28.4494   47.8047 H   0  0  0  0  0  0  0  0  0  0  0  0
   60.5529   28.2275   47.8047 H   0  0  0  0  0  0  0  0  0  0  0  0
   60.6140   30.3320   50.0690 C   0  0  0  0  0  0  0  0  0  0  0  0
   60.0943   31.1550   50.5814 H   0  0  0  0  0  0  0  0  0  0  0  0
   60.6342   29.4257   50.6921 H   0  0  0  0  0  0  0  0  0  0  0  0
   62.0640   30.7540   49.7980 C   0  0  0  0  0  0  0  0  0  0  0  0
   62.6343   30.7007   50.7371 H   0  0  0  0  0  0  0  0  0  0  0  0
   62.4893   30.0734   49.0457 H   0  0  0  0  0  0  0  0  0  0  0  0
   62.1330   32.1650   49.2590 C   0  0  0  0  0  0  0  0  0  0  0  0
   61.5314   32.9346   49.7648 H   0  0  0  0  0  0  0  0  0  0  0  0
   62.8810   32.5490   48.2000 C   0  0  0  0  0  0  0  0  0  0  0  0
   63.3190   33.9850   48.0760 C   0  0  0  0  0  0  0  0  0  0  0  0
   63.4505   34.4162   49.0794 H   0  0  0  0  0  0  0  0  0  0  0  0
   64.2722   34.0317   47.5290 H   0  0  0  0  0  0  0  0  0  0  0  0
   62.5541   34.5557   47.5290 H   0  0  0  0  0  0  0  0  0  0  0  0
   63.3520   31.5720   47.1530 C   0  0  0  0  0  0  0  0  0  0  0  0
   63.7794   30.6855   47.6445 H   0  0  0  0  0  0  0  0  0  0  0  0
   62.5011   31.2688   46.5253 H   0  0  0  0  0  0  0  0  0  0  0  0
   64.1192   32.0488   46.5253 H   0  0  0  0  0  0  0  0  0  0  0  0
  1  2  1  0
  2  3  1  0
  3  4  1  0
  4  5  1  0
  5  6  1  0
  6  7  1  1
  6  8  1  0
  8  9  1  0
  8 10  1  0
  8 11  1  0
  6 12  1  0
 12 13  1  0
 12 14  1  0
 12 15  1  0
 15 16  1  0
 15 17  1  0
 15 18  1  0
  5 19  2  0
 19 20  1  0
 19 21  1  0
 21 22  1  0
 22 23  1  0
 22 24  1  0
 22 25  1  0
 25 26  1  0
 25 27  1  0
 25 28  1  0
 28 29  1  0
 28 30  2  0
 30 31  1  0
 31 32  1  0
 31 33  1  0
 31 34  1  0
 30 35  1  0
 35 36  1  0
 35 37  1  0
 35 38  1  0
 38 39  1  0
 38 40  1  0
 38 41  1  0
 41 42  1  0
 41 43  2  0
 43 44  1  0
 44 45  1  0
 44 46  1  0
 44 47  1  0
 43 48  1  0
 48 49  1  0
 48 50  1  0
 48 51  1  0
 51 52  1  0
 51 53  1  0
 51 54  1  0
 54 55  1  0
 54 56  2  3
 56 57  1  0
 57 58  1  0
 57 59  1  0
 57 60  1  0
 56 61  1  0
 61 62  1  0
 61 63  1  0
 61 64  1  0
 21  3  2  0
M  CHG  1  20  -1
M  END
>  <UniqueID>  (6) 
6

>  <SMILES>  (6) 
CC[C@@H](C)c1oc(O)c(CC/C=C(\C)CC/C=C(/C)CCC=C(C)C)c1[O-]

>  <Energy>  (6) 
61.844011064666724

>  <Genealogy>  (6) 
CCC(C)c1oc(O)c(CCC=C(C)CCC=C(C)CCC=C(C)C)c1[O-] (protonated)
CC[C@@H](C)c1oc(O)c(CCC=C(C)CCC=C(C)CCC=C(C)C)c1[O-] (chirality)
CC[C@@H](C)c1oc(O)c(CC/C=C(\C)CC/C=C(/C)CCC=C(C)C)c1[O-] (cis-trans isomerization)
CC[C@@H](C)c1oc(O)c(CC/C=C(\C)CC/C=C(/C)CCC=C(C)C)c1[O-] (3D coordinates assigned)
CC[C@@H](C)c1oc(O)c(CC/C=C(\C)CC/C=C(/C)CCC=C(C)C)c1[O-] (optimized conformer: 61.844011064666724 kcal/mol)

>  <smiles>  (6) 
CCC(C)c1oc(O)c(CCC=C(C)CCC=C(C)CCC=C(C)C)c1O

>  <score_type>  (6) 
oracle

>  <origin>  (6) 
adg

>  <m_score__min__energy>  (6) 
-11.01

>  <m_primary>  (6) 
energy

$$$$
6:0
     RDKit          3D

 28 29  0  0  0  0  0  0  0  0999 V2000
   60.0750   28.2150   45.2810 C   0  0  0  0  0  0  0  0  0  0  0  0
   59.0170   29.2790   45.2920 C   0  0  0  0  0  0  0  0  0  0  0  0
   57.8820   29.0810   44.5720 N   0  0  0  0  0  0  0  0  0  0  0  0
   56.8970   30.0110   44.5360 C   0  0  0  0  0  0  0  0  0  0  0  0
   55.5500   29.7390   43.6560 S   0  0  0  0  0  0  0  0  0  0  0  0
   57.0320   31.1720   45.2230 N   0  0  0  0  0  0  0  0  0  0  0  0
   58.1400   31.4330   45.9680 C   0  0  0  0  0  0  0  0  0  0  0  0
   58.2250   32.7670   46.6640 C   0  0  0  0  0  0  0  0  0  0  0  0
   59.2350   33.9420   45.6930 S   0  0  0  0  0  0  0  0  0  0  0  0
   60.6130   33.9600   46.8420 C   0  0  0  0  0  0  0  0  0  0  0  0
   60.3810   34.1110   48.2150 C   0  0  0  0  0  0  0  0  0  0  0  0
   61.4550   34.1090   49.1110 C   0  0  0  0  0  0  0  0  0  0  0  0
   62.7630   33.9620   48.6360 C   0  0  0  0  0  0  0  0  0  0  0  0
   63.8030   33.9550   49.5060 F   0  0  0  0  0  0  0  0  0  0  0  0
   62.9970   33.8220   47.2640 C   0  0  0  0  0  0  0  0  0  0  0  0
   61.9250   33.8280   46.3670 C   0  0  0  0  0  0  0  0  0  0  0  0
   59.1780   30.4750   46.0210 C   0  0  0  0  0  0  0  0  0  0  0  0
   60.3820   30.7080   46.7890 C   0  0  0  0  0  0  0  0  0  0  0  0
   61.3450   30.8940   47.4030 N   0  0  0  0  0  0  0  0  0  0  0  0
   60.3389   27.9496   46.3154 H   0  0  0  0  0  0  0  0  0  0  0  0
   59.6940   27.3244   44.7598 H   0  0  0  0  0  0  0  0  0  0  0  0
   60.9677   28.5910   44.7598 H   0  0  0  0  0  0  0  0  0  0  0  0
   57.2111   33.1764   46.7842 H   0  0  0  0  0  0  0  0  0  0  0  0
   58.6984   32.6229   47.6464 H   0  0  0  0  0  0  0  0  0  0  0  0
   59.3535   34.2312   48.5889 H   0  0  0  0  0  0  0  0  0  0  0  0
   61.2714   34.2230   50.1896 H   0  0  0  0  0  0  0  0  0  0  0  0
   64.0253   33.7071   46.8907 H   0  0  0  0  0  0  0  0  0  0  0  0
   62.1112   33.7290   45.2874 H   0  0  0  0  0  0  0  0  0  0  0  0
  1  2  1  0
  2  3  1  0
  3  4  1  0
  4  5  2  0
  4  6  1  0
  6  7  2  0
  7  8  1  0
  8  9  1  0
  9 10  1  0
 10 11  2  0
 11 12  1  0
 12 13  2  0
 13 14  1  0
 13 15  1  0
 15 16  2  0
  7 17  1  0
 17 18  1  0
 18 19  3  0
 17  2  2  0
 16 10  1  0
  1 20  1  0
  1 21  1  0
  1 22  1  0
  8 23  1  0
  8 24  1  0
 11 25  1  0
 12 26  1  0
 15 27  1  0
 16 28  1  0
M  CHG  1   3  -1
M  END
>  <UniqueID>  (7) 
7

>  <SMILES>  (7) 
Cc1[n-]c(=S)nc(CSc2ccc(F)cc2)c1C#N

>  <Energy>  (7) 
23.862732462398313

>  <Genealogy>  (7) 
Cc1[n-]c(=S)nc(CSc2ccc(F)cc2)c1C#N (protonated)
Cc1[n-]c(=S)nc(CSc2ccc(F)cc2)c1C#N (3D coordinates assigned)
Cc1[n-]c(=S)nc(CSc2ccc(F)cc2)c1C#N (optimized conformer: 23.862732462398313 kcal/mol)

>  <smiles>  (7) 
Cc1[nH]c(=S)nc(CSc2ccc(F)cc2)c1C#N

>  <score_type>  (7) 
oracle

>  <origin>  (7) 
adg

>  <m_score__min__energy>  (7) 
-7.7800000000000002

>  <m_primary>  (7) 
energy

$$$$
7:0
     RDKit          3D

 43 45  0  0  0  0  0  0  0  0999 V2000
   63.1250   31.6380   50.2850 C   0  0  0  0  0  0  0  0  0  0  0  0
   63.5780   32.8500   49.5890 N   0  0  0  0  0  0  0  0  0  0  0  0
   65.0330   32.9970   49.7260 C   0  0  0  0  0  0  0  0  0  0  0  0
   63.1500   32.7600   47.8970 S   0  0  0  0  0  0  0  0  0  0  0  0
   63.1650   31.3230   47.4550 O   0  0  0  0  0  0  0  0  0  0  0  0
   64.1680   33.5080   47.0800 O   0  0  0  0  0  0  0  0  0  0  0  0
   61.5520   33.4430   47.6020 C   0  0  0  0  0  0  0  0  0  0  0  0
   60.8180   34.0020   48.6560 C   0  0  0  0  0  0  0  0  0  0  0  0
   59.5800   34.6000   48.4100 C   0  0  0  0  0  0  0  0  0  0  0  0
   59.0730   34.6520   47.1100 C   0  0  0  0  0  0  0  0  0  0  0  0
   59.7980   34.0960   46.0440 C   0  0  0  0  0  0  0  0  0  0  0  0
   59.3010   34.2350   44.6290 C   0  0  0  0  0  0  0  0  0  0  0  0
   57.5080   33.8730   44.5000 S   0  0  0  0  0  0  0  0  0  0  0  0
   57.6640   32.1300   44.8860 C   0  0  0  0  0  0  0  0  0  0  0  0
   58.8630   31.5520   45.1580 N   0  0  0  0  0  0  0  0  0  0  0  0
   58.5290   30.2660   45.3260 C   0  0  0  0  0  0  0  0  0  0  0  0
   59.3740   29.1990   45.6120 C   0  0  0  0  0  0  0  0  0  0  0  0
   58.7960   27.9210   45.7300 C   0  0  0  0  0  0  0  0  0  0  0  0
   57.4000   27.7430   45.5520 C   0  0  0  0  0  0  0  0  0  0  0  0
   56.6890   26.1410   45.7040 S   0  0  0  0  0  0  0  0  0  0  0  0
   54.9710   26.2680   45.8480 N   0  0  0  0  0  0  0  0  0  0  0  0
   57.0130   25.3210   44.4880 O   0  0  0  0  0  0  0  0  0  0  0  0
   57.2430   25.4630   46.9260 O   0  0  0  0  0  0  0  0  0  0  0  0
   56.5790   28.8550   45.2670 C   0  0  0  0  0  0  0  0  0  0  0  0
   57.1880   30.1020   45.1600 C   0  0  0  0  0  0  0  0  0  0  0  0
   56.6080   31.2780   44.8780 N   0  0  0  0  0  0  0  0  0  0  0  0
   61.0320   33.4770   46.3000 C   0  0  0  0  0  0  0  0  0  0  0  0
   63.1840   31.7957   51.3720 H   0  0  0  0  0  0  0  0  0  0  0  0
   62.0846   31.4199   50.0020 H   0  0  0  0  0  0  0  0  0  0  0  0
   63.7672   30.7910   50.0020 H   0  0  0  0  0  0  0  0  0  0  0  0
   65.3000   33.0240   50.7928 H   0  0  0  0  0  0  0  0  0  0  0  0
   65.5346   32.1450   49.2439 H   0  0  0  0  0  0  0  0  0  0  0  0
   65.3541   33.9322   49.2439 H   0  0  0  0  0  0  0  0  0  0  0  0
   61.2177   33.9699   49.6803 H   0  0  0  0  0  0  0  0  0  0  0  0
   59.0034   35.0308   49.2418 H   0  0  0  0  0  0  0  0  0  0  0  0
   58.1010   35.1308   46.9202 H   0  0  0  0  0  0  0  0  0  0  0  0
   59.4821   35.2648   44.2873 H   0  0  0  0  0  0  0  0  0  0  0  0
   59.8426   33.5105   44.0031 H   0  0  0  0  0  0  0  0  0  0  0  0
   60.4561   29.3486   45.7414 H   0  0  0  0  0  0  0  0  0  0  0  0
   59.4316   27.0537   45.9620 H   0  0  0  0  0  0  0  0  0  0  0  0
   54.7760   27.0900   46.4620 H   0  0  0  0  0  0  0  0  0  0  0  0
   55.4932   28.7400   45.1338 H   0  0  0  0  0  0  0  0  0  0  0  0
   61.5942   33.0160   45.4745 H   0  0  0  0  0  0  0  0  0  0  0  0
  1  2  1  0
  2  3  1  0
  2  4  1  0
  4  5  2  0
  4  6  2  0
  4  7  1  0
  7  8  2  0
  8  9  1  0
  9 10  2  0
 10 11  1  0
 11 12  1  0
 12 13  1  0
 13 14  1  0
 14 15  2  0
 15 16  1  0
 16 17  2  0
 17 18  1  0
 18 19  2  0
 19 20  1  0
 20 21  1  0
 20 22  2  0
 20 23  2  0
 19 24  1  0
 24 25  2  0
 25 26  1  0
 11 27  2  0
 27  7  1  0
 26 14  1  0
 25 16  1  0
  1 28  1  0
  1 29  1  0
  1 30  1  0
  3 31  1  0
  3 32  1  0
  3 33  1  0
  8 34  1  0
  9 35  1  0
 10 36  1  0
 12 37  1  0
 12 38  1  0
 17 39  1  0
 18 40  1  0
 21 41  1  0
 24 42  1  0
 27 43  1  0
M  CHG  2  21  -1  26  -1
M  END
>  <UniqueID>  (8) 
8

>  <SMILES>  (8) 
CN(C)S(=O)(=O)c1cccc(CSc2nc3ccc(S([NH-])(=O)=O)cc3[n-]2)c1

>  <Energy>  (8) 
71.14137393808777

>  <Genealogy>  (8) 
CN(C)S(=O)(=O)c1cccc(CSc2nc3ccc(S([NH-])(=O)=O)cc3[n-]2)c1 (protonated)
CN(C)S(=O)(=O)c1cccc(CSc2nc3ccc(S([NH-])(=O)=O)cc3[n-]2)c1 (3D coordinates assigned)
CN(C)S(=O)(=O)c1cccc(CSc2nc3ccc(S([NH-])(=O)=O)cc3[n-]2)c1 (optimized conformer: 71.14137393808777 kcal/mol)

>  <smiles>  (8) 
CN(C)S(=O)(=O)c1cccc(CSc2nc3ccc(S(N)(=O)=O)cc3[nH]2)c1

>  <score_type>  (8) 
oracle

>  <origin>  (8) 
adg

>  <m_score__min__energy>  (8) 
-13.73

>  <m_primary>  (8) 
energy

$$$$
8:0
     RDKit          3D

 57 59  0  0  0  0  0  0  0  0999 V2000
   57.7630   20.2900   46.5590 C   0  0  0  0  0  0  0  0  0  0  0  0
   57.5920   21.7630   46.3310 C   0  0  0  0  0  0  0  0  0  0  0  0
   56.6470   22.4770   47.0830 C   0  0  0  0  0  0  0  0  0  0  0  0
   56.4710   23.8480   46.8730 C   0  0  0  0  0  0  0  0  0  0  0  0
   57.2390   24.5220   45.9130 C   0  0  0  0  0  0  0  0  0  0  0  0
   57.0340   26.2590   45.6650 S   0  0  0  0  0  0  0  0  0  0  0  0
   57.2880   26.5850   44.2190 O   0  0  0  0  0  0  0  0  0  0  0  0
   55.6160   26.6390   45.9870 O   0  0  0  0  0  0  0  0  0  0  0  0
   58.1290   27.1820   46.6680 N   0  0  0  0  0  0  0  0  0  0  0  0
   59.2460   27.6990   45.8660 C   0  0  0  0  0  0  0  0  0  0  0  0
   60.0160   28.7310   46.6930 C   0  0  0  0  0  0  0  0  0  0  0  0
   60.0790   28.3400   48.1080 N   0  0  0  0  0  0  0  0  0  0  0  0
   60.6330   29.2770   49.0540 C   0  0  0  0  0  0  0  0  0  0  0  0
   61.5420   30.0660   48.6760 O   0  0  0  0  0  0  0  0  0  0  0  0
   60.0390   29.4440   50.4330 C   0  0  0  0  0  0  0  0  0  0  0  0
   59.0630   30.6250   50.5320 C   0  0  0  0  0  0  0  0  0  0  0  0
   58.5240   31.0120   49.2280 N   0  0  0  0  0  0  0  0  0  0  0  0
   59.1000   31.9280   48.2850 C   0  0  0  0  0  0  0  0  0  0  0  0
   60.1310   32.5660   48.6210 O   0  0  0  0  0  0  0  0  0  0  0  0
   58.5070   32.1890   46.9590 C   0  0  0  0  0  0  0  0  0  0  0  0
   58.4390   33.4900   46.4350 C   0  0  0  0  0  0  0  0  0  0  0  0
   57.8900   33.7110   45.1690 C   0  0  0  0  0  0  0  0  0  0  0  0
   57.3900   32.6400   44.4240 C   0  0  0  0  0  0  0  0  0  0  0  0
   57.4150   31.3430   44.9530 C   0  0  0  0  0  0  0  0  0  0  0  0
   56.8010   29.9800   44.0240 S   0  0  0  0  0  0  0  0  0  0  0  0
   55.5420   29.2030   44.9150 N   0  0  0  0  0  0  0  0  0  0  0  0
   57.9040   28.9960   43.7560 O   0  0  0  0  0  0  0  0  0  0  0  0
   56.2600   30.4710   42.7100 O   0  0  0  0  0  0  0  0  0  0  0  0
   57.9630   31.1240   46.2240 C   0  0  0  0  0  0  0  0  0  0  0  0
   59.8750   26.9290   48.4630 C   0  0  0  0  0  0  0  0  0  0  0  0
   58.6160   26.3480   47.7870 C   0  0  0  0  0  0  0  0  0  0  0  0
   58.1790   23.8080   45.1570 C   0  0  0  0  0  0  0  0  0  0  0  0
   58.3540   22.4350   45.3640 C   0  0  0  0  0  0  0  0  0  0  0  0
   57.7866   20.0866   47.6398 H   0  0  0  0  0  0  0  0  0  0  0  0
   56.9217   19.7482   46.1022 H   0  0  0  0  0  0  0  0  0  0  0  0
   58.7060   19.9553   46.1022 H   0  0  0  0  0  0  0  0  0  0  0  0
   56.0425   21.9564   47.8404 H   0  0  0  0  0  0  0  0  0  0  0  0
   55.7260   24.4008   47.4641 H   0  0  0  0  0  0  0  0  0  0  0  0
   59.9168   26.8717   45.5910 H   0  0  0  0  0  0  0  0  0  0  0  0
   58.8597   28.1696   44.9499 H   0  0  0  0  0  0  0  0  0  0  0  0
   61.0393   28.8153   46.2984 H   0  0  0  0  0  0  0  0  0  0  0  0
   59.4914   29.6952   46.6217 H   0  0  0  0  0  0  0  0  0  0  0  0
   59.4998   28.5219   50.6954 H   0  0  0  0  0  0  0  0  0  0  0  0
   60.8699   29.6477   51.1244 H   0  0  0  0  0  0  0  0  0  0  0  0
   58.2282   30.3397   51.1891 H   0  0  0  0  0  0  0  0  0  0  0  0
   59.6166   31.4856   50.9356 H   0  0  0  0  0  0  0  0  0  0  0  0
   58.8192   34.3383   47.0231 H   0  0  0  0  0  0  0  0  0  0  0  0
   57.8514   34.7306   44.7581 H   0  0  0  0  0  0  0  0  0  0  0  0
   56.9759   32.8155   43.4201 H   0  0  0  0  0  0  0  0  0  0  0  0
   55.6950   28.1730   44.8300 H   0  0  0  0  0  0  0  0  0  0  0  0
   57.9669   30.1095   46.6491 H   0  0  0  0  0  0  0  0  0  0  0  0
   60.7526   26.3496   48.1404 H   0  0  0  0  0  0  0  0  0  0  0  0
   59.7400   26.8652   49.5528 H   0  0  0  0  0  0  0  0  0  0  0  0
   58.8554   25.3464   47.4003 H   0  0  0  0  0  0  0  0  0  0  0  0
   57.8196   26.3137   48.5450 H   0  0  0  0  0  0  0  0  0  0  0  0
   58.7814   24.3289   44.3982 H   0  0  0  0  0  0  0  0  0  0  0  0
   59.0922   21.8806   44.7659 H   0  0  0  0  0  0  0  0  0  0  0  0
  1  2  1  0
  2  3  2  0
  3  4  1  0
  4  5  2  0
  5  6  1  0
  6  7  2  0
  6  8  2  0
  6  9  1  0
  9 10  1  0
 10 11  1  0
 11 12  1  0
 12 13  1  0
 13 14  2  0
 13 15  1  0
 15 16  1  0
 16 17  1  0
 17 18  1  0
 18 19  2  0
 18 20  1  0
 20 21  2  0
 21 22  1  0
 22 23  2  0
 23 24  1  0
 24 25  1  0
 25 26  1  0
 25 27  2  0
 25 28  2  0
 24 29  2  0
 12 30  1  0
 30 31  1  0
  5 32  1  0
 32 33  2  0
 33  2  1  0
 31  9  1  0
 29 20  1  0
  1 34  1  0
  1 35  1  0
  1 36  1  0
  3 37  1  0
  4 38  1  0
 10 39  1  0
 10 40  1  0
 11 41  1  0
 11 42  1  0
 15 43  1  0
 15 44  1  0
 16 45  1  0
 16 46  1  0
 21 47  1  0
 22 48  1  0
 23 49  1  0
 26 50  1  0
 29 51  1  0
 30 52  1  0
 30 53  1  0
 31 54  1  0
 31 55  1  0
 32 56  1  0
 33 57  1  0
M  CHG  2  17  -1  26  -1
M  END
>  <UniqueID>  (9) 
9

>  <SMILES>  (9) 
Cc1ccc(S(=O)(=O)N2CCN(C(=O)CC[N-]C(=O)c3cccc(S([NH-])(=O)=O)c3)CC2)cc1

>  <Energy>  (9) 
64.67950371890622

>  <Genealogy>  (9) 
Cc1ccc(S(=O)(=O)N2CCN(C(=O)CC[N-]C(=O)c3cccc(S([NH-])(=O)=O)c3)CC2)cc1 (protonated)
Cc1ccc(S(=O)(=O)N2CCN(C(=O)CC[N-]C(=O)c3cccc(S([NH-])(=O)=O)c3)CC2)cc1 (3D coordinates assigned)
Cc1ccc(S(=O)(=O)N2CCN(C(=O)CC[N-]C(=O)c3cccc(S([NH-])(=O)=O)c3)CC2)cc1 (nonaromatic ring conformer: 64.67950371890622 kcal/mol)

>  <smiles>  (9) 
Cc1ccc(S(=O)(=O)N2CCN(C(=O)CCNC(=O)c3cccc(S(N)(=O)=O)c3)CC2)cc1

>  <score_type>  (9) 
oracle

>  <origin>  (9) 
adg

>  <m_score__min__energy>  (9) 
-13.640000000000001

>  <m_primary>  (9) 
energy

$$$$
9:0
     RDKit          3D

 66 69  0  0  0  0  0  0  0  0999 V2000
   55.1230   26.2100   45.9950 N   0  0  0  0  0  0  0  0  0  0  0  0
   56.8300   26.0560   46.2770 S   0  0  0  0  0  0  0  0  0  0  0  0
   57.4310   25.1420   45.2490 O   0  0  0  0  0  0  0  0  0  0  0  0
   57.0570   25.4700   47.6450 O   0  0  0  0  0  0  0  0  0  0  0  0
   57.5820   27.6460   46.1720 C   0  0  0  0  0  0  0  0  0  0  0  0
   58.6420   27.9750   47.0210 C   0  0  0  0  0  0  0  0  0  0  0  0
   59.1990   29.2500   46.9880 C   0  0  0  0  0  0  0  0  0  0  0  0
   58.6910   30.2330   46.1250 C   0  0  0  0  0  0  0  0  0  0  0  0
   59.1780   31.5770   46.1710 N   0  0  0  0  0  0  0  0  0  0  0  0
   58.3550   32.6670   46.6000 C   0  0  0  0  0  0  0  0  0  0  0  0
   57.2310   32.8550   46.0560 O   0  0  0  0  0  0  0  0  0  0  0  0
   58.8390   33.6100   47.6630 C   0  0  0  0  0  0  0  0  0  0  0  0
   59.7420   32.9260   48.5140 O   0  0  0  0  0  0  0  0  0  0  0  0
   59.3630   32.3510   49.7140 N   0  0  0  0  0  0  0  0  0  0  0  0
   58.8220   33.1080   50.6080 C   0  0  0  0  0  0  0  0  0  0  0  0
   58.7980   32.7590   52.0540 C   0  0  0  0  0  0  0  0  0  0  0  0
   59.4160   33.6670   52.9350 C   0  0  0  0  0  0  0  0  0  0  0  0
   59.2950   33.5230   54.3160 C   0  0  0  0  0  0  0  0  0  0  0  0
   58.5640   32.4620   54.8440 C   0  0  0  0  0  0  0  0  0  0  0  0
   57.9730   31.5240   53.9940 C   0  0  0  0  0  0  0  0  0  0  0  0
   58.1050   31.6440   52.5990 C   0  0  0  0  0  0  0  0  0  0  0  0
   57.6180   30.5300   51.7520 C   0  0  0  0  0  0  0  0  0  0  0  0
   56.3790   30.3710   51.6150 O   0  0  0  0  0  0  0  0  0  0  0  0
   58.4960   29.6730   51.0140 N   0  0  0  0  0  0  0  0  0  0  0  0
   59.8840   29.3710   51.2420 C   0  0  0  0  0  0  0  0  0  0  0  0
   60.4240   28.0860   51.0750 C   0  0  0  0  0  0  0  0  0  0  0  0
   61.8020   27.8820   51.2010 C   0  0  0  0  0  0  0  0  0  0  0  0
   62.6510   28.9500   51.4860 C   0  0  0  0  0  0  0  0  0  0  0  0
   62.1260   30.2390   51.6280 C   0  0  0  0  0  0  0  0  0  0  0  0
   63.1770   31.6250   51.8820 S   0  0  0  0  0  0  0  0  0  0  0  0
   64.6060   31.1680   51.7810 O   0  0  0  0  0  0  0  0  0  0  0  0
   62.9070   32.1930   53.2470 O   0  0  0  0  0  0  0  0  0  0  0  0
   62.8740   32.8420   50.6810 N   0  0  0  0  0  0  0  0  0  0  0  0
   62.9650   32.6400   49.3980 C   0  0  0  0  0  0  0  0  0  0  0  0
   64.0810   33.0970   48.5250 C   0  0  0  0  0  0  0  0  0  0  0  0
   63.6970   32.5460   47.1440 C   0  0  0  0  0  0  0  0  0  0  0  0
   62.4660   31.6330   47.3410 C   0  0  0  0  0  0  0  0  0  0  0  0
   62.0270   31.8500   48.7060 N   0  0  0  0  0  0  0  0  0  0  0  0
   60.7420   30.4410   51.5230 C   0  0  0  0  0  0  0  0  0  0  0  0
   57.6340   29.8930   45.2580 C   0  0  0  0  0  0  0  0  0  0  0  0
   57.0960   30.8640   44.3700 N   0  0  0  0  0  0  0  0  0  0  0  0
   57.7210   31.1400   43.3260 O   0  0  0  0  0  0  0  0  0  0  0  0
   55.7600   31.1770   44.4600 O   0  0  0  0  0  0  0  0  0  0  0  0
   57.0920   28.6050   45.2830 C   0  0  0  0  0  0  0  0  0  0  0  0
   54.7960   27.0630   46.5030 H   0  0  0  0  0  0  0  0  0  0  0  0
   59.0381   27.2226   47.7188 H   0  0  0  0  0  0  0  0  0  0  0  0
   60.0472   29.4899   47.6460 H   0  0  0  0  0  0  0  0  0  0  0  0
   59.3502   34.4633   47.1933 H   0  0  0  0  0  0  0  0  0  0  0  0
   57.9839   33.9777   48.2492 H   0  0  0  0  0  0  0  0  0  0  0  0
   58.3584   34.0525   50.2870 H   0  0  0  0  0  0  0  0  0  0  0  0
   60.0033   34.5028   52.5271 H   0  0  0  0  0  0  0  0  0  0  0  0
   59.7770   34.2475   54.9888 H   0  0  0  0  0  0  0  0  0  0  0  0
   58.4515   32.3621   55.9337 H   0  0  0  0  0  0  0  0  0  0  0  0
   57.4007   30.6861   54.4186 H   0  0  0  0  0  0  0  0  0  0  0  0
   59.7622   27.2380   50.8446 H   0  0  0  0  0  0  0  0  0  0  0  0
   62.2185   26.8718   51.0743 H   0  0  0  0  0  0  0  0  0  0  0  0
   63.7318   28.7797   51.5991 H   0  0  0  0  0  0  0  0  0  0  0  0
   64.1436   34.1951   48.5077 H   0  0  0  0  0  0  0  0  0  0  0  0
   65.0665   32.7494   48.8685 H   0  0  0  0  0  0  0  0  0  0  0  0
   63.4469   33.3740   46.4644 H   0  0  0  0  0  0  0  0  0  0  0  0
   64.5329   31.9837   46.7023 H   0  0  0  0  0  0  0  0  0  0  0  0
   61.6689   31.9070   46.6342 H   0  0  0  0  0  0  0  0  0  0  0  0
   62.7123   30.5766   47.1582 H   0  0  0  0  0  0  0  0  0  0  0  0
   61.1750   31.4120   49.1280 H   0  0  0  0  0  0  0  0  0  0  0  0
   60.3267   31.4499   51.6628 H   0  0  0  0  0  0  0  0  0  0  0  0
   56.2727   28.3445   44.5968 H   0  0  0  0  0  0  0  0  0  0  0  0
  1  2  1  0
  2  3  2  0
  2  4  2  0
  2  5  1  0
  5  6  2  0
  6  7  1  0
  7  8  2  0
  8  9  1  0
  9 10  1  0
 10 11  2  0
 10 12  1  0
 12 13  1  0
 13 14  1  0
 14 15  2  3
 15 16  1  0
 16 17  2  0
 17 18  1  0
 18 19  2  0
 19 20  1  0
 20 21  2  0
 21 22  1  0
 22 23  2  0
 22 24  1  0
 24 25  1  0
 25 26  2  0
 26 27  1  0
 27 28  2  0
 28 29  1  0
 29 30  1  0
 30 31  2  0
 30 32  2  0
 30 33  1  0
 33 34  2  3
 34 35  1  0
 35 36  1  0
 36 37  1  0
 37 38  1  0
 29 39  2  0
  8 40  1  0
 40 41  1  0
 41 42  2  0
 41 43  1  0
 40 44  2  0
 44  5  1  0
 21 16  1  0
 39 25  1  0
 38 34  1  0
  1 45  1  0
  6 46  1  0
  7 47  1  0
 12 48  1  0
 12 49  1  0
 15 50  1  0
 17 51  1  0
 18 52  1  0
 19 53  1  0
 20 54  1  0
 26 55  1  0
 27 56  1  0
 28 57  1  0
 35 58  1  0
 35 59  1  0
 36 60  1  0
 36 61  1  0
 37 62  1  0
 37 63  1  0
 38 64  1  0
 39 65  1  0
 44 66  1  0
M  CHG  5   1  -1   9  -1  24  -1  41   1  43  -1
M  END
>  <UniqueID>  (10) 
10

>  <SMILES>  (10) 
[NH-]S(=O)(=O)c1ccc([N-]C(=O)CON=Cc2ccccc2C(=O)[N-]c2cccc(S(=O)(=O)N=C3CCCN3)c2)c([N+](=O)[O-])c1

>  <Energy>  (10) 
110.8105880490634

>  <Genealogy>  (10) 
[NH-]S(=O)(=O)c1ccc([N-]C(=O)CON=Cc2ccccc2C(=O)[N-]c2cccc(S(=O)(=O)N=C3CCCN3)c2)c([N+](=O)[O-])c1 (protonated)
[NH-]S(=O)(=O)c1ccc([N-]C(=O)CON=Cc2ccccc2C(=O)[N-]c2cccc(S(=O)(=O)N=C3CCCN3)c2)c([N+](=O)[O-])c1 (3D coordinates assigned)
[NH-]S(=O)(=O)c1ccc([N-]C(=O)CON=Cc2ccccc2C(=O)[N-]c2cccc(S(=O)(=O)N=C3CCCN3)c2)c([N+](=O)[O-])c1 (nonaromatic ring conformer: 110.8105880490634 kcal/mol)

>  <smiles>  (10) 
NS(=O)(=O)c1ccc(NC(=O)CON=Cc2ccccc2C(=O)Nc2cccc(S(=O)(=O)N=C3CCCN3)c2)c([N+](=O)[O-])c1

>  <score_type>  (10) 
oracle

>  <origin>  (10) 
adg

>  <m_score__min__energy>  (10) 
-15.6

>  <m_primary>  (10) 
energy

$$$$
10:0
     RDKit          3D

 39 42  0  0  0  0  0  0  0  0999 V2000
   56.3541   21.2824   43.8481 H   0  0  0  0  0  0  0  0  0  0  0  0
   56.1500   22.2620   44.3050 C   0  0  0  0  0  0  0  0  0  0  0  0
   55.1560   22.3850   45.2800 C   0  0  0  0  0  0  0  0  0  0  0  0
   54.5715   21.5035   45.5821 H   0  0  0  0  0  0  0  0  0  0  0  0
   54.9030   23.6260   45.8720 C   0  0  0  0  0  0  0  0  0  0  0  0
   54.1107   23.7213   46.6291 H   0  0  0  0  0  0  0  0  0  0  0  0
   55.6610   24.7560   45.5010 C   0  0  0  0  0  0  0  0  0  0  0  0
   55.4130   26.0580   46.0570 N   0  0  0  0  0  0  0  0  0  0  0  0
   56.1910   27.0970   45.9820 C   0  0  0  0  0  0  0  0  0  0  0  0
   55.9010   28.2030   45.2430 N   0  0  0  0  0  0  0  0  0  0  0  0
   56.9480   28.9990   45.4990 C   0  0  0  0  0  0  0  0  0  0  0  0
   57.1840   30.2780   45.0070 C   0  0  0  0  0  0  0  0  0  0  0  0
   56.4769   30.7603   44.3161 H   0  0  0  0  0  0  0  0  0  0  0  0
   58.3570   30.9350   45.4220 C   0  0  0  0  0  0  0  0  0  0  0  0
   58.5722   31.9486   45.0528 H   0  0  0  0  0  0  0  0  0  0  0  0
   59.2680   30.3030   46.3140 C   0  0  0  0  0  0  0  0  0  0  0  0
   60.5000   30.9980   46.7590 C   0  0  0  0  0  0  0  0  0  0  0  0
   61.5980   30.3780   46.7550 O   0  0  0  0  0  0  0  0  0  0  0  0
   60.4670   32.3830   47.1450 N   0  0  0  0  0  0  0  0  0  0  0  0
   59.7320   32.9930   46.7220 H   0  0  0  0  0  0  0  0  0  0  0  0
   61.4760   33.0100   47.9550 C   0  0  0  0  0  0  0  0  0  0  0  0
   62.8320   33.0040   47.5760 C   0  0  0  0  0  0  0  0  0  0  0  0
   63.1349   32.5268   46.6323 H   0  0  0  0  0  0  0  0  0  0  0  0
   63.7950   33.6020   48.3940 C   0  0  0  0  0  0  0  0  0  0  0  0
   64.8515   33.6015   48.0876 H   0  0  0  0  0  0  0  0  0  0  0  0
   63.4200   34.2000   49.5990 C   0  0  0  0  0  0  0  0  0  0  0  0
   64.1793   34.6753   50.2374 H   0  0  0  0  0  0  0  0  0  0  0  0
   62.0790   34.1940   49.9930 C   0  0  0  0  0  0  0  0  0  0  0  0
   61.7840   34.6603   50.9446 H   0  0  0  0  0  0  0  0  0  0  0  0
   61.1120   33.5960   49.1790 C   0  0  0  0  0  0  0  0  0  0  0  0
   60.0596   33.5843   49.4990 H   0  0  0  0  0  0  0  0  0  0  0  0
   58.9770   29.0040   46.7960 C   0  0  0  0  0  0  0  0  0  0  0  0
   59.6561   28.4951   47.4959 H   0  0  0  0  0  0  0  0  0  0  0  0
   57.8070   28.3890   46.3590 C   0  0  0  0  0  0  0  0  0  0  0  0
   57.3470   27.1730   46.6890 N   0  0  0  0  0  0  0  0  0  0  0  0
   56.6330   24.6270   44.5000 C   0  0  0  0  0  0  0  0  0  0  0  0
   57.2027   25.5100   44.1750 H   0  0  0  0  0  0  0  0  0  0  0  0
   56.8840   23.3830   43.9110 C   0  0  0  0  0  0  0  0  0  0  0  0
   57.6599   23.2878   43.1371 H   0  0  0  0  0  0  0  0  0  0  0  0
  1  2  1  0
  2  3  2  0
  3  4  1  0
  3  5  1  0
  5  6  1  0
  5  7  2  0
  7  8  1  0
  8  9  2  0
  9 10  1  0
 10 11  1  0
 11 12  2  0
 12 13  1  0
 12 14  1  0
 14 15  1  0
 14 16  2  0
 16 17  1  0
 17 18  2  0
 17 19  1  0
 19 20  1  0
 19 21  1  0
 21 22  2  0
 22 23  1  0
 22 24  1  0
 24 25  1  0
 24 26  2  0
 26 27  1  0
 26 28  1  0
 28 29  1  0
 28 30  2  0
 30 31  1  0
 16 32  1  0
 32 33  1  0
 32 34  2  0
 34 35  1  0
  7 36  1  0
 36 37  1  0
 36 38  2  0
 38 39  1  0
 38  2  1  0
 35  9  1  0
 34 11  1  0
 30 21  1  0
M  CHG  2  10  -1  35  -1
M  END
>  <UniqueID>  (11) 
11

>  <SMILES>  (11) 
O=C(Nc1ccccc1)c1ccc2[n-]/c(=N\c3ccccc3)[n-]c2c1

>  <Energy>  (11) 
90.28889092519447

>  <Genealogy>  (11) 
O=C(Nc1ccccc1)c1ccc2[n-]c(=Nc3ccccc3)[n-]c2c1 (protonated)
O=C(Nc1ccccc1)c1ccc2[n-]/c(=N\c3ccccc3)[n-]c2c1 (cis-trans isomerization)
O=C(Nc1ccccc1)c1ccc2[n-]/c(=N\c3ccccc3)[n-]c2c1 (3D coordinates assigned)
O=C(Nc1ccccc1)c1ccc2[n-]/c(=N\c3ccccc3)[n-]c2c1 (optimized conformer: 90.28889092519447 kcal/mol)

>  <smiles>  (11) 
O=C(Nc1ccccc1)c1ccc2[nH]c(=Nc3ccccc3)[nH]c2c1

>  <score_type>  (11) 
oracle

>  <origin>  (11) 
adg

>  <m_score__min__energy>  (11) 
-10.73

>  <m_primary>  (11) 
energy

$$$$
11:0
     RDKit          3D

 53 56  0  0  0  0  0  0  0  0999 V2000
   65.8410   33.0470   49.8400 C   0  0  0  0  0  0  0  0  0  0  0  0
   64.8860   33.1130   48.7850 O   0  0  0  0  0  0  0  0  0  0  0  0
   63.6890   32.3800   48.7550 C   0  0  0  0  0  0  0  0  0  0  0  0
   63.0060   32.0960   47.5550 C   0  0  0  0  0  0  0  0  0  0  0  0
   61.8130   31.3660   47.5800 C   0  0  0  0  0  0  0  0  0  0  0  0
   61.2790   30.9210   48.8000 C   0  0  0  0  0  0  0  0  0  0  0  0
   60.0310   30.0750   48.8310 C   0  0  0  0  0  0  0  0  0  0  0  0
   59.9790   29.2280   47.6410 N   0  0  0  0  0  0  0  0  0  0  0  0
   59.7630   27.8160   47.7480 C   0  0  0  0  0  0  0  0  0  0  0  0
   60.1390   27.1960   48.7810 O   0  0  0  0  0  0  0  0  0  0  0  0
   59.0180   27.0980   46.7000 C   0  0  0  0  0  0  0  0  0  0  0  0
   59.2630   25.7340   46.4760 C   0  0  0  0  0  0  0  0  0  0  0  0
   58.5770   25.0540   45.4660 C   0  0  0  0  0  0  0  0  0  0  0  0
   57.6490   25.7290   44.6720 C   0  0  0  0  0  0  0  0  0  0  0  0
   57.4130   27.0910   44.8710 C   0  0  0  0  0  0  0  0  0  0  0  0
   58.1070   27.7910   45.8750 C   0  0  0  0  0  0  0  0  0  0  0  0
   57.8960   29.1970   46.0800 N   0  0  0  0  0  0  0  0  0  0  0  0
   57.1230   30.0670   45.2470 C   0  0  0  0  0  0  0  0  0  0  0  0
   55.9900   29.6990   44.8330 O   0  0  0  0  0  0  0  0  0  0  0  0
   57.6740   31.3750   44.8260 C   0  0  0  0  0  0  0  0  0  0  0  0
   57.7570   31.8910   43.5250 C   0  0  0  0  0  0  0  0  0  0  0  0
   57.2690   31.2330   42.2720 C   0  0  0  0  0  0  0  0  0  0  0  0
   58.3300   33.1160   43.5300 N   0  0  0  0  0  0  0  0  0  0  0  0
   58.6210   33.3850   44.8110 C   0  0  0  0  0  0  0  0  0  0  0  0
   59.2050   34.5490   45.3090 C   0  0  0  0  0  0  0  0  0  0  0  0
   59.3950   34.6500   46.6980 C   0  0  0  0  0  0  0  0  0  0  0  0
   58.9960   33.5990   47.5500 C   0  0  0  0  0  0  0  0  0  0  0  0
   58.4070   32.4370   47.0210 C   0  0  0  0  0  0  0  0  0  0  0  0
   58.2350   32.3560   45.6350 C   0  0  0  0  0  0  0  0  0  0  0  0
   61.9640   31.2010   49.9930 C   0  0  0  0  0  0  0  0  0  0  0  0
   63.1620   31.9190   49.9670 C   0  0  0  0  0  0  0  0  0  0  0  0
   65.3206   33.0830   50.8084 H   0  0  0  0  0  0  0  0  0  0  0  0
   66.4080   32.1075   49.7631 H   0  0  0  0  0  0  0  0  0  0  0  0
   66.5318   33.8995   49.7631 H   0  0  0  0  0  0  0  0  0  0  0  0
   63.4124   32.4495   46.5959 H   0  0  0  0  0  0  0  0  0  0  0  0
   61.2905   31.1394   46.6389 H   0  0  0  0  0  0  0  0  0  0  0  0
   60.0412   29.4416   49.7303 H   0  0  0  0  0  0  0  0  0  0  0  0
   59.1477   30.7303   48.8500 H   0  0  0  0  0  0  0  0  0  0  0  0
   59.8750   29.6920   46.7100 H   0  0  0  0  0  0  0  0  0  0  0  0
   59.9967   25.1991   47.0970 H   0  0  0  0  0  0  0  0  0  0  0  0
   58.7690   23.9842   45.2965 H   0  0  0  0  0  0  0  0  0  0  0  0
   57.1017   25.1866   43.8870 H   0  0  0  0  0  0  0  0  0  0  0  0
   56.6820   27.6184   44.2406 H   0  0  0  0  0  0  0  0  0  0  0  0
   56.6324   30.3746   42.5326 H   0  0  0  0  0  0  0  0  0  0  0  0
   56.6866   31.9555   41.6813 H   0  0  0  0  0  0  0  0  0  0  0  0
   58.1294   30.8854   41.6813 H   0  0  0  0  0  0  0  0  0  0  0  0
   58.5070   33.7320   42.7050 H   0  0  0  0  0  0  0  0  0  0  0  0
   59.5080   35.3639   44.6351 H   0  0  0  0  0  0  0  0  0  0  0  0
   59.8572   35.5533   47.1228 H   0  0  0  0  0  0  0  0  0  0  0  0
   59.1467   33.6891   48.6359 H   0  0  0  0  0  0  0  0  0  0  0  0
   58.0902   31.6143   47.6788 H   0  0  0  0  0  0  0  0  0  0  0  0
   61.5553   30.8532   50.9532 H   0  0  0  0  0  0  0  0  0  0  0  0
   63.6956   32.1238   50.9068 H   0  0  0  0  0  0  0  0  0  0  0  0
  1  2  1  0
  2  3  1  0
  3  4  2  0
  4  5  1  0
  5  6  2  0
  6  7  1  0
  7  8  1  0
  8  9  1  0
  9 10  2  0
  9 11  1  0
 11 12  2  0
 12 13  1  0
 13 14  2  0
 14 15  1  0
 15 16  2  0
 16 17  1  0
 17 18  1  0
 18 19  2  0
 18 20  1  0
 20 21  2  0
 21 22  1  0
 21 23  1  0
 23 24  1  0
 24 25  2  0
 25 26  1  0
 26 27  2  0
 27 28  1  0
 28 29  2  0
  6 30  1  0
 30 31  2  0
 31  3  1  0
 16 11  1  0
 29 20  1  0
 29 24  1  0
  1 32  1  0
  1 33  1  0
  1 34  1  0
  4 35  1  0
  5 36  1  0
  7 37  1  0
  7 38  1  0
  8 39  1  0
 12 40  1  0
 13 41  1  0
 14 42  1  0
 15 43  1  0
 22 44  1  0
 22 45  1  0
 22 46  1  0
 23 47  1  0
 25 48  1  0
 26 49  1  0
 27 50  1  0
 28 51  1  0
 30 52  1  0
 31 53  1  0
M  CHG  1  17  -1
M  END
>  <UniqueID>  (12) 
12

>  <SMILES>  (12) 
COc1ccc(CNC(=O)c2ccccc2[N-]C(=O)c2c(C)[nH]c3ccccc23)cc1

>  <Energy>  (12) 
92.20713968649595

>  <Genealogy>  (12) 
COc1ccc(CNC(=O)c2ccccc2[N-]C(=O)c2c(C)[nH]c3ccccc23)cc1 (protonated)
COc1ccc(CNC(=O)c2ccccc2[N-]C(=O)c2c(C)[nH]c3ccccc23)cc1 (3D coordinates assigned)
COc1ccc(CNC(=O)c2ccccc2[N-]C(=O)c2c(C)[nH]c3ccccc23)cc1 (optimized conformer: 92.20713968649595 kcal/mol)

>  <smiles>  (12) 
COc1ccc(CNC(=O)c2ccccc2NC(=O)c2c(C)[nH]c3ccccc23)cc1

>  <score_type>  (12) 
oracle

>  <origin>  (12) 
adg

>  <m_score__min__energy>  (12) 
-10.1

>  <m_primary>  (12) 
energy

$$$$
12:0
     RDKit          3D

 36 37  0  0  0  0  0  0  0  0999 V2000
   53.3425   28.3054   54.5901 H   0  0  0  0  0  0  0  0  0  0  0  0
   53.9830   29.0960   54.1720 C   0  0  0  0  0  0  0  0  0  0  0  0
   55.3520   28.7540   53.7540 C   0  0  0  0  0  0  0  0  0  0  0  0
   55.6220   28.5370   52.5410 O   0  0  0  0  0  0  0  0  0  0  0  0
   56.3800   28.6710   54.7450 N   0  0  0  0  0  0  0  0  0  0  0  0
   57.6900   29.2970   54.6050 C   0  0  0  0  0  0  0  0  0  0  0  0
   58.4644   28.5162   54.5803 H   0  0  0  0  0  0  0  0  0  0  0  0
   57.8586   29.9685   55.4598 H   0  0  0  0  0  0  0  0  0  0  0  0
   57.7530   30.0990   53.3330 C   0  0  0  0  0  0  0  0  0  0  0  0
   58.4390   29.6080   52.2120 C   0  0  0  0  0  0  0  0  0  0  0  0
   58.9224   28.6209   52.2550 H   0  0  0  0  0  0  0  0  0  0  0  0
   58.5110   30.3680   51.0400 C   0  0  0  0  0  0  0  0  0  0  0  0
   59.0479   29.9726   50.1651 H   0  0  0  0  0  0  0  0  0  0  0  0
   57.9050   31.6280   50.9720 C   0  0  0  0  0  0  0  0  0  0  0  0
   58.0060   32.3520   49.7740 O   0  0  0  0  0  0  0  0  0  0  0  0
   59.2240   32.8630   49.2430 C   0  0  0  0  0  0  0  0  0  0  0  0
   59.8944   33.1443   50.0685 H   0  0  0  0  0  0  0  0  0  0  0  0
   59.7068   32.0916   48.6251 H   0  0  0  0  0  0  0  0  0  0  0  0
   59.0119   33.7480   48.6251 H   0  0  0  0  0  0  0  0  0  0  0  0
   57.2200   32.1240   52.0980 C   0  0  0  0  0  0  0  0  0  0  0  0
   56.7402   33.1129   52.0563 H   0  0  0  0  0  0  0  0  0  0  0  0
   57.1480   31.3630   53.2690 C   0  0  0  0  0  0  0  0  0  0  0  0
   56.6135   31.7581   54.1455 H   0  0  0  0  0  0  0  0  0  0  0  0
   53.4890   30.3380   54.0610 C   0  0  0  0  0  0  0  0  0  0  0  0
   53.6380   31.0320   54.9013 H   0  0  0  0  0  0  0  0  0  0  0  0
   52.7530   30.8300   52.8700 C   0  0  0  0  0  0  0  0  0  0  0  0
   53.0760   30.4250   51.5590 C   0  0  0  0  0  0  0  0  0  0  0  0
   53.8959   29.7107   51.3932 H   0  0  0  0  0  0  0  0  0  0  0  0
   52.3590   30.9270   50.4680 C   0  0  0  0  0  0  0  0  0  0  0  0
   52.6124   30.6003   49.4487 H   0  0  0  0  0  0  0  0  0  0  0  0
   51.3220   31.8420   50.6680 C   0  0  0  0  0  0  0  0  0  0  0  0
   50.6140   32.3340   49.5780 O   0  0  0  0  0  0  0  0  0  0  0  0
   51.0030   32.2620   51.9630 C   0  0  0  0  0  0  0  0  0  0  0  0
   49.9750   33.1750   52.1690 O   0  0  0  0  0  0  0  0  0  0  0  0
   51.7180   31.7630   53.0580 C   0  0  0  0  0  0  0  0  0  0  0  0
   51.4682   32.1035   54.0737 H   0  0  0  0  0  0  0  0  0  0  0  0
  1  2  1  0
  2  3  1  0
  3  4  2  0
  3  5  1  0
  5  6  1  0
  6  7  1  0
  6  8  1  0
  6  9  1  0
  9 10  2  0
 10 11  1  0
 10 12  1  0
 12 13  1  0
 12 14  2  0
 14 15  1  0
 15 16  1  0
 16 17  1  0
 16 18  1  0
 16 19  1  0
 14 20  1  0
 20 21  1  0
 20 22  2  0
 22 23  1  0
  2 24  2  0
 24 25  1  0
 24 26  1  0
 26 27  2  0
 27 28  1  0
 27 29  1  0
 29 30  1  0
 29 31  2  0
 31 32  1  0
 31 33  1  0
 33 34  1  0
 33 35  2  0
 35 36  1  0
 22  9  1  0
 35 26  1  0
M  CHG  3   5  -1  32  -1  34  -1
M  END
>  <UniqueID>  (13) 
13

>  <SMILES>  (13) 
COc1ccc(C[N-]C(=O)/C=C/c2ccc([O-])c([O-])c2)cc1

>  <Energy>  (13) 
35.18502066502024

>  <Genealogy>  (13) 
COc1ccc(C[N-]C(=O)C=Cc2ccc([O-])c([O-])c2)cc1 (protonated)
COc1ccc(C[N-]C(=O)/C=C/c2ccc([O-])c([O-])c2)cc1 (cis-trans isomerization)
COc1ccc(C[N-]C(=O)/C=C/c2ccc([O-])c([O-])c2)cc1 (3D coordinates assigned)
COc1ccc(C[N-]C(=O)/C=C/c2ccc([O-])c([O-])c2)cc1 (optimized conformer: 35.18502066502024 kcal/mol)

>  <smiles>  (13) 
COc1ccc(CNC(=O)C=Cc2ccc(O)c(O)c2)cc1

>  <score_type>  (13) 
oracle

>  <origin>  (13) 
adg

>  <m_score__min__energy>  (13) 
-16.100000000000001

>  <m_primary>  (13) 
energy

$$$$
13:0
     RDKit          3D

 43 45  0  0  0  0  0  0  0  0999 V2000
   57.2515   32.3661   42.6307 H   0  0  0  0  0  0  0  0  0  0  0  0
   57.4090   31.8090   43.5660 C   0  0  0  0  0  0  0  0  0  0  0  0
   57.9640   32.4300   44.6390 N   0  0  0  0  0  0  0  0  0  0  0  0
   58.1800   31.7780   45.8170 C   0  0  0  0  0  0  0  0  0  0  0  0
   58.6850   32.3940   46.8470 N   0  0  0  0  0  0  0  0  0  0  0  0
   60.0800   32.5870   47.1390 C   0  0  0  0  0  0  0  0  0  0  0  0
   60.7730   33.6010   46.4690 C   0  0  0  0  0  0  0  0  0  0  0  0
   60.2520   34.2120   45.7171 H   0  0  0  0  0  0  0  0  0  0  0  0
   62.1210   33.8450   46.7460 C   0  0  0  0  0  0  0  0  0  0  0  0
   62.6592   34.6325   46.1982 H   0  0  0  0  0  0  0  0  0  0  0  0
   62.7920   33.0870   47.7230 C   0  0  0  0  0  0  0  0  0  0  0  0
   64.1440   33.2910   48.0380 O   0  0  0  0  0  0  0  0  0  0  0  0
   64.7210   33.0330   49.3130 C   0  0  0  0  0  0  0  0  0  0  0  0
   64.0214   33.3458   50.1021 H   0  0  0  0  0  0  0  0  0  0  0  0
   64.9272   31.9570   49.4112 H   0  0  0  0  0  0  0  0  0  0  0  0
   65.6604   33.5968   49.4112 H   0  0  0  0  0  0  0  0  0  0  0  0
   62.0900   32.0940   48.4160 C   0  0  0  0  0  0  0  0  0  0  0  0
   62.6033   31.5006   49.1870 H   0  0  0  0  0  0  0  0  0  0  0  0
   60.7430   31.8500   48.1370 C   0  0  0  0  0  0  0  0  0  0  0  0
   60.1984   31.0780   48.7004 H   0  0  0  0  0  0  0  0  0  0  0  0
   57.8070   30.4350   45.9390 C   0  0  0  0  0  0  0  0  0  0  0  0
   57.9480   29.9090   46.8948 H   0  0  0  0  0  0  0  0  0  0  0  0
   57.2530   29.7600   44.8410 C   0  0  0  0  0  0  0  0  0  0  0  0
   56.8580   28.3860   44.9860 N   0  0  0  0  0  0  0  0  0  0  0  0
   55.8970   28.1300   44.6660 H   0  0  0  0  0  0  0  0  0  0  0  0
   57.6730   27.3730   45.6010 C   0  0  0  0  0  0  0  0  0  0  0  0
   58.8050   27.6650   46.0730 O   0  0  0  0  0  0  0  0  0  0  0  0
   57.2040   25.9730   45.6850 C   0  0  0  0  0  0  0  0  0  0  0  0
   58.1460   24.9330   45.6270 C   0  0  0  0  0  0  0  0  0  0  0  0
   59.2153   25.1694   45.5234 H   0  0  0  0  0  0  0  0  0  0  0  0
   57.7340   23.6010   45.7000 C   0  0  0  0  0  0  0  0  0  0  0  0
   58.4791   22.7933   45.6500 H   0  0  0  0  0  0  0  0  0  0  0  0
   56.3820   23.2910   45.8360 C   0  0  0  0  0  0  0  0  0  0  0  0
   56.0643   22.2392   45.8887 H   0  0  0  0  0  0  0  0  0  0  0  0
   55.4240   24.3140   45.9060 C   0  0  0  0  0  0  0  0  0  0  0  0
   53.9710   23.9730   46.0950 C   0  0  0  0  0  0  0  0  0  0  0  0
   53.7437   23.9197   47.1699 H   0  0  0  0  0  0  0  0  0  0  0  0
   53.3482   24.7494   45.6266 H   0  0  0  0  0  0  0  0  0  0  0  0
   53.7586   23.0006   45.6266 H   0  0  0  0  0  0  0  0  0  0  0  0
   55.8390   25.6580   45.8520 C   0  0  0  0  0  0  0  0  0  0  0  0
   54.8960   26.6740   45.9980 O   0  0  0  0  0  0  0  0  0  0  0  0
   57.0380   30.4660   43.6470 C   0  0  0  0  0  0  0  0  0  0  0  0
   56.5805   29.9644   42.7815 H   0  0  0  0  0  0  0  0  0  0  0  0
  1  2  1  0
  2  3  1  0
  3  4  1  0
  4  5  2  0
  5  6  1  0
  6  7  2  0
  7  8  1  0
  7  9  1  0
  9 10  1  0
  9 11  2  0
 11 12  1  0
 12 13  1  0
 13 14  1  0
 13 15  1  0
 13 16  1  0
 11 17  1  0
 17 18  1  0
 17 19  2  0
 19 20  1  0
  4 21  1  0
 21 22  1  0
 21 23  2  0
 23 24  1  0
 24 25  1  0
 24 26  1  0
 26 27  2  0
 26 28  1  0
 28 29  2  0
 29 30  1  0
 29 31  1  0
 31 32  1  0
 31 33  2  0
 33 34  1  0
 33 35  1  0
 35 36  1  0
 36 37  1  0
 36 38  1  0
 36 39  1  0
 35 40  2  0
 40 41  1  0
 23 42  1  0
 42 43  1  0
 42  2  2  0
 19  6  1  0
 40 28  1  0
M  CHG  2   3  -1  41  -1
M  END
>  <UniqueID>  (14) 
14

>  <SMILES>  (14) 
COc1ccc(/N=c2/cc(NC(=O)c3cccc(C)c3[O-])cc[n-]2)cc1

>  <Energy>  (14) 
61.120736249835026

>  <Genealogy>  (14) 
COc1ccc(N=c2cc(NC(=O)c3cccc(C)c3[O-])cc[n-]2)cc1 (protonated)
COc1ccc(/N=c2/cc(NC(=O)c3cccc(C)c3[O-])cc[n-]2)cc1 (cis-trans isomerization)
COc1ccc(/N=c2/cc(NC(=O)c3cccc(C)c3[O-])cc[n-]2)cc1 (3D coordinates assigned)
COc1ccc(/N=c2/cc(NC(=O)c3cccc(C)c3[O-])cc[n-]2)cc1 (optimized conformer: 61.120736249835026 kcal/mol)

>  <smiles>  (14) 
COc1ccc(N=c2cc(NC(=O)c3cccc(C)c3O)cc[nH]2)cc1

>  <score_type>  (14) 
oracle

>  <origin>  (14) 
adg

>  <m_score__min__energy>  (14) 
-13.02

>  <m_primary>  (14) 
energy

$$$$
14:0
     RDKit          3D

 58 62  0  0  0  0  0  0  0  0999 V2000
   56.4444   29.0734   52.8904 H   0  0  0  0  0  0  0  0  0  0  0  0
   56.9020   29.9430   52.3960 C   0  0  0  0  0  0  0  0  0  0  0  0
   57.6040   29.7780   51.2430 N   0  0  0  0  0  0  0  0  0  0  0  0
   58.1920   30.8280   50.5990 C   0  0  0  0  0  0  0  0  0  0  0  0
   58.8420   30.6580   49.4820 N   0  0  0  0  0  0  0  0  0  0  0  0
   59.0520   31.6370   48.4520 C   0  0  0  0  0  0  0  0  0  0  0  0
   60.1880   32.3800   48.4850 N   0  0  0  0  0  0  0  0  0  0  0  0
   60.4900   33.3020   47.5300 C   0  0  0  0  0  0  0  0  0  0  0  0
   61.7460   34.1420   47.6500 C   0  0  1  0  0  0  0  0  0  0  0  0
   61.4947   35.1626   47.3257 H   0  0  0  0  0  0  0  0  0  0  0  0
   62.2140   34.2070   49.1180 C   0  0  0  0  0  0  0  0  0  0  0  0
   61.3525   34.4701   49.7493 H   0  0  0  0  0  0  0  0  0  0  0  0
   63.0114   34.9625   49.1762 H   0  0  0  0  0  0  0  0  0  0  0  0
   62.7770   32.9340   49.5990 N   0  0  0  0  0  0  0  0  0  0  0  0
   61.9890   32.3000   49.8740 H   0  0  0  0  0  0  0  0  0  0  0  0
   63.6420   32.2250   48.6330 C   0  0  0  0  0  0  0  0  0  0  0  0
   63.0861   31.3633   48.2349 H   0  0  0  0  0  0  0  0  0  0  0  0
   64.5504   31.9214   49.1740 H   0  0  0  0  0  0  0  0  0  0  0  0
   64.0890   33.1000   47.4560 C   0  0  0  0  0  0  0  0  0  0  0  0
   64.6953   32.4944   46.7663 H   0  0  0  0  0  0  0  0  0  0  0  0
   64.6795   33.9417   47.8468 H   0  0  0  0  0  0  0  0  0  0  0  0
   62.8760   33.6590   46.7010 C   0  0  0  0  0  0  0  0  0  0  0  0
   62.4737   32.8697   46.0489 H   0  0  0  0  0  0  0  0  0  0  0  0
   63.2184   34.5305   46.1238 H   0  0  0  0  0  0  0  0  0  0  0  0
   59.5950   33.5100   46.4700 C   0  0  0  0  0  0  0  0  0  0  0  0
   59.8105   34.2753   45.7098 H   0  0  0  0  0  0  0  0  0  0  0  0
   58.4230   32.7400   46.3800 C   0  0  0  0  0  0  0  0  0  0  0  0
   57.4860   32.9270   45.2470 C   0  0  0  0  0  0  0  0  0  0  0  0
   57.4780   34.0130   44.6070 O   0  0  0  0  0  0  0  0  0  0  0  0
   56.5840   31.8770   44.8770 N   0  0  0  0  0  0  0  0  0  0  0  0
   56.9050   30.8380   43.9050 C   0  0  0  0  0  0  0  0  0  0  0  0
   57.7898   31.1418   43.3264 H   0  0  0  0  0  0  0  0  0  0  0  0
   56.0472   30.6980   43.2308 H   0  0  0  0  0  0  0  0  0  0  0  0
   57.1920   29.5470   44.6080 C   0  0  0  0  0  0  0  0  0  0  0  0
   56.2480   28.6140   44.8840 N   0  0  0  0  0  0  0  0  0  0  0  0
   56.8320   27.6240   45.5510 N   0  0  0  0  0  0  0  0  0  0  0  0
   56.1280   26.4510   46.0520 C   0  0  0  0  0  0  0  0  0  0  0  0
   56.1343   26.4616   47.1519 H   0  0  0  0  0  0  0  0  0  0  0  0
   55.0890   26.4651   45.6912 H   0  0  0  0  0  0  0  0  0  0  0  0
   56.6291   25.5407   45.6912 H   0  0  0  0  0  0  0  0  0  0  0  0
   58.1350   27.9210   45.7210 C   0  0  0  0  0  0  0  0  0  0  0  0
   59.1220   27.1920   46.3830 C   0  0  0  0  0  0  0  0  0  0  0  0
   58.8958   26.2234   46.8528 H   0  0  0  0  0  0  0  0  0  0  0  0
   60.4180   27.7390   46.4290 C   0  0  0  0  0  0  0  0  0  0  0  0
   61.2242   27.1913   46.9390 H   0  0  0  0  0  0  0  0  0  0  0  0
   60.6910   28.9880   45.8240 C   0  0  0  0  0  0  0  0  0  0  0  0
   61.7080   29.4049   45.8676 H   0  0  0  0  0  0  0  0  0  0  0  0
   59.6720   29.7010   45.1670 C   0  0  0  0  0  0  0  0  0  0  0  0
   59.8708   30.6741   44.6941 H   0  0  0  0  0  0  0  0  0  0  0  0
   58.4000   29.1290   45.1370 C   0  0  0  0  0  0  0  0  0  0  0  0
   58.1620   31.7860   47.3760 C   0  0  0  0  0  0  0  0  0  0  0  0
   57.2622   31.1564   47.3138 H   0  0  0  0  0  0  0  0  0  0  0  0
   58.0590   32.1190   51.1250 C   0  0  0  0  0  0  0  0  0  0  0  0
   58.5142   32.9772   50.6089 H   0  0  0  0  0  0  0  0  0  0  0  0
   57.3440   32.3090   52.3100 C   0  0  0  0  0  0  0  0  0  0  0  0
   57.2400   33.3179   52.7358 H   0  0  0  0  0  0  0  0  0  0  0  0
   56.7620   31.2150   52.9520 C   0  0  0  0  0  0  0  0  0  0  0  0
   56.1988   31.3541   53.8866 H   0  0  0  0  0  0  0  0  0  0  0  0
  1  2  1  0
  2  3  1  0
  3  4  1  0
  4  5  2  0
  5  6  1  0
  6  7  2  0
  7  8  1  0
  8  9  1  0
  9 10  1  6
  9 11  1  0
 11 12  1  0
 11 13  1  0
 11 14  1  0
 14 15  1  0
 14 16  1  0
 16 17  1  0
 16 18  1  0
 16 19  1  0
 19 20  1  0
 19 21  1  0
 19 22  1  0
 22 23  1  0
 22 24  1  0
  8 25  2  0
 25 26  1  0
 25 27  1  0
 27 28  1  0
 28 29  2  0
 28 30  1  0
 30 31  1  0
 31 32  1  0
 31 33  1  0
 31 34  1  0
 34 35  2  0
 35 36  1  0
 36 37  1  0
 37 38  1  0
 37 39  1  0
 37 40  1  0
 36 41  1  0
 41 42  2  0
 42 43  1  0
 42 44  1  0
 44 45  1  0
 44 46  2  0
 46 47  1  0
 46 48  1  0
 48 49  1  0
 48 50  2  0
 27 51  2  0
 51 52  1  0
  4 53  1  0
 53 54  1  0
 53 55  2  0
 55 56  1  0
 55 57  1  0
 57 58  1  0
 57  2  2  0
 51  6  1  0
 22  9  1  0
 50 34  1  0
 50 41  1  0
M  CHG  2   3  -1  30  -1
M  END
>  <UniqueID>  (15) 
15

>  <SMILES>  (15) 
Cn1nc(C[N-]C(=O)c2cc(/N=c3/cccc[n-]3)nc([C@@H]3CCCNC3)c2)c2ccccc21

>  <Energy>  (15) 
114.18901685474746

>  <Genealogy>  (15) 
Cn1nc(C[N-]C(=O)c2cc(N=c3cccc[n-]3)nc(C3CCCNC3)c2)c2ccccc21 (protonated)
Cn1nc(C[N-]C(=O)c2cc(N=c3cccc[n-]3)nc([C@@H]3CCCNC3)c2)c2ccccc21 (chirality)
Cn1nc(C[N-]C(=O)c2cc(/N=c3/cccc[n-]3)nc([C@@H]3CCCNC3)c2)c2ccccc21 (cis-trans isomerization)
Cn1nc(C[N-]C(=O)c2cc(/N=c3/cccc[n-]3)nc([C@@H]3CCCNC3)c2)c2ccccc21 (3D coordinates assigned)
Cn1nc(C[N-]C(=O)c2cc(/N=c3/cccc[n-]3)nc([C@@H]3CCCNC3)c2)c2ccccc21 (nonaromatic ring conformer: 114.18901685474746 kcal/mol)

>  <smiles>  (15) 
Cn1nc(CNC(=O)c2cc(N=c3cccc[nH]3)nc(C3CCCNC3)c2)c2ccccc21

>  <score_type>  (15) 
oracle

>  <origin>  (15) 
adg

>  <m_score__min__energy>  (15) 
-12.369999999999999

>  <m_primary>  (15) 
energy

$$$$
15:0
     RDKit          3D

 52 54  0  0  0  0  0  0  0  0999 V2000
   55.1420   27.8900   45.9960 H   0  0  0  0  0  0  0  0  0  0  0  0
   55.9080   28.1610   45.3950 O   0  0  0  0  0  0  0  0  0  0  0  0
   57.2500   28.1520   45.7880 C   0  0  0  0  0  0  0  0  0  0  0  0
   57.7830   26.9640   46.3250 C   0  0  0  0  0  0  0  0  0  0  0  0
   56.9590   25.7370   46.4470 C   0  0  0  0  0  0  0  0  0  0  0  0
   55.6860   25.8120   46.7030 N   0  0  0  0  0  0  0  0  0  0  0  0
   54.7350   25.7950   45.7080 O   0  0  0  0  0  0  0  0  0  0  0  0
   53.9090   24.6560   45.5280 C   0  0  0  0  0  0  0  0  0  0  0  0
   53.6182   24.2550   46.5102 H   0  0  0  0  0  0  0  0  0  0  0  0
   53.0070   24.9421   44.9671 H   0  0  0  0  0  0  0  0  0  0  0  0
   54.4612   23.8876   44.9671 H   0  0  0  0  0  0  0  0  0  0  0  0
   57.6310   24.3850   46.4460 C   0  0  0  0  0  0  0  0  0  0  0  0
   58.7203   24.5303   46.4944 H   0  0  0  0  0  0  0  0  0  0  0  0
   57.2641   23.8237   47.3180 H   0  0  0  0  0  0  0  0  0  0  0  0
   57.3010   23.5880   45.2080 C   0  0  0  0  0  0  0  0  0  0  0  0
   57.5240   22.2010   45.1720 C   0  0  0  0  0  0  0  0  0  0  0  0
   57.9494   21.6915   46.0491 H   0  0  0  0  0  0  0  0  0  0  0  0
   57.2070   21.4660   44.0250 C   0  0  0  0  0  0  0  0  0  0  0  0
   57.3850   20.3807   44.0020 H   0  0  0  0  0  0  0  0  0  0  0  0
   56.6650   22.1070   42.9090 C   0  0  0  0  0  0  0  0  0  0  0  0
   56.4096   21.5255   42.0109 H   0  0  0  0  0  0  0  0  0  0  0  0
   56.4470   23.4870   42.9330 C   0  0  0  0  0  0  0  0  0  0  0  0
   56.0244   23.9916   42.0516 H   0  0  0  0  0  0  0  0  0  0  0  0
   56.7650   24.2270   44.0750 C   0  0  0  0  0  0  0  0  0  0  0  0
   56.5955   25.3138   44.0881 H   0  0  0  0  0  0  0  0  0  0  0  0
   59.1250   26.9260   46.7200 C   0  0  0  0  0  0  0  0  0  0  0  0
   59.5398   26.0023   47.1497 H   0  0  0  0  0  0  0  0  0  0  0  0
   59.9400   28.0440   46.5750 C   0  0  0  0  0  0  0  0  0  0  0  0
   60.9948   27.9928   46.8830 H   0  0  0  0  0  0  0  0  0  0  0  0
   59.4290   29.2380   46.0390 C   0  0  0  0  0  0  0  0  0  0  0  0
   60.2480   30.3680   45.8680 O   0  0  0  0  0  0  0  0  0  0  0  0
   61.2700   30.7770   46.7710 C   0  0  0  0  0  0  0  0  0  0  0  0
   60.9225   30.6379   47.8054 H   0  0  0  0  0  0  0  0  0  0  0  0
   62.1722   30.1707   46.6026 H   0  0  0  0  0  0  0  0  0  0  0  0
   61.5048   31.8384   46.6026 H   0  0  0  0  0  0  0  0  0  0  0  0
   58.0700   29.3030   45.6590 C   0  0  0  0  0  0  0  0  0  0  0  0
   57.5160   30.5850   45.0670 C   0  0  0  0  0  0  0  0  0  0  0  0
   56.9492   30.3467   44.1549 H   0  0  0  0  0  0  0  0  0  0  0  0
   56.8596   31.0635   45.8087 H   0  0  0  0  0  0  0  0  0  0  0  0
   58.6030   31.5100   44.7310 N   0  0  0  0  0  0  0  0  0  0  0  0
   59.2680   31.2450   43.9690 H   0  0  0  0  0  0  0  0  0  0  0  0
   58.8160   32.7580   45.4130 C   0  0  0  0  0  0  0  0  0  0  0  0
   59.1710   33.8960   44.6670 C   0  0  0  0  0  0  0  0  0  0  0  0
   59.2770   33.8216   43.5746 H   0  0  0  0  0  0  0  0  0  0  0  0
   59.3900   35.1200   45.3030 C   0  0  0  0  0  0  0  0  0  0  0  0
   59.6687   36.0041   44.7107 H   0  0  0  0  0  0  0  0  0  0  0  0
   59.2560   35.2240   46.6890 C   0  0  0  0  0  0  0  0  0  0  0  0
   59.4308   36.1886   47.1880 H   0  0  0  0  0  0  0  0  0  0  0  0
   58.9000   34.1030   47.4410 C   0  0  0  0  0  0  0  0  0  0  0  0
   58.7940   34.1861   48.5327 H   0  0  0  0  0  0  0  0  0  0  0  0
   58.6780   32.8760   46.8110 C   0  0  0  0  0  0  0  0  0  0  0  0
   58.3941   31.9974   47.4089 H   0  0  0  0  0  0  0  0  0  0  0  0
  1  2  1  0
  2  3  1  0
  3  4  2  0
  4  5  1  0
  5  6  2  0
  6  7  1  0
  7  8  1  0
  8  9  1  0
  8 10  1  0
  8 11  1  0
  5 12  1  0
 12 13  1  0
 12 14  1  0
 12 15  1  0
 15 16  2  0
 16 17  1  0
 16 18  1  0
 18 19  1  0
 18 20  2  0
 20 21  1  0
 20 22  1  0
 22 23  1  0
 22 24  2  0
 24 25  1  0
  4 26  1  0
 26 27  1  0
 26 28  2  0
 28 29  1  0
 28 30  1  0
 30 31  1  0
 31 32  1  0
 32 33  1  0
 32 34  1  0
 32 35  1  0
 30 36  2  0
 36 37  1  0
 37 38  1  0
 37 39  1  0
 37 40  1  0
 40 41  1  0
 40 42  1  0
 42 43  2  0
 43 44  1  0
 43 45  1  0
 45 46  1  0
 45 47  2  0
 47 48  1  0
 47 49  1  0
 49 50  1  0
 49 51  2  0
 51 52  1  0
 36  3  1  0
 51 42  1  0
 24 15  1  0
M  END
>  <UniqueID>  (16) 
16

>  <SMILES>  (16) 
CO/N=C(/Cc1ccccc1)c1ccc(OC)c(CNc2ccccc2)c1O

>  <Energy>  (16) 
58.5635857519727

>  <Genealogy>  (16) 
CO/N=C(/Cc1ccccc1)c1ccc(OC)c(CNc2ccccc2)c1O (cis-trans isomerization)
CO/N=C(/Cc1ccccc1)c1ccc(OC)c(CNc2ccccc2)c1O (3D coordinates assigned)
CO/N=C(/Cc1ccccc1)c1ccc(OC)c(CNc2ccccc2)c1O (optimized conformer: 58.5635857519727 kcal/mol)

>  <smiles>  (16) 
CON=C(Cc1ccccc1)c1ccc(OC)c(CNc2ccccc2)c1O

>  <score_type>  (16) 
oracle

>  <origin>  (16) 
adg

>  <m_score__min__energy>  (16) 
-9.0999999999999996

>  <m_primary>  (16) 
energy

$$$$
16:0
     RDKit          3D

 45 47  0  0  0  0  0  0  0  0999 V2000
   59.9920   36.3520   45.7690 H   0  0  0  0  0  0  0  0  0  0  0  0
   59.5360   35.7210   45.1200 O   0  0  0  0  0  0  0  0  0  0  0  0
   58.9690   34.5200   45.5460 C   0  0  0  0  0  0  0  0  0  0  0  0
   58.3180   33.6830   44.6280 C   0  0  0  0  0  0  0  0  0  0  0  0
   58.2402   33.9860   43.5734 H   0  0  0  0  0  0  0  0  0  0  0  0
   57.7650   32.4620   45.0440 C   0  0  0  0  0  0  0  0  0  0  0  0
   57.0290   31.5970   44.0480 C   0  0  0  0  0  0  0  0  0  0  0  0
   57.7506   31.2035   43.3169 H   0  0  0  0  0  0  0  0  0  0  0  0
   56.2651   32.2172   43.5562 H   0  0  0  0  0  0  0  0  0  0  0  0
   56.3530   30.4740   44.6970 N   0  0  0  0  0  0  0  0  0  0  0  0
   56.7710   29.2780   45.0140 C   0  0  0  0  0  0  0  0  0  0  0  0
   55.8950   28.2810   45.2440 N   0  0  0  0  0  0  0  0  0  0  0  0
   56.7060   27.2450   45.5420 C   0  0  0  0  0  0  0  0  0  0  0  0
   56.2290   25.8930   45.8740 C   0  0  0  0  0  0  0  0  0  0  0  0
   54.9310   25.5600   45.6240 N   0  0  0  0  0  0  0  0  0  0  0  0
   54.4360   24.3260   45.9090 C   0  0  0  0  0  0  0  0  0  0  0  0
   53.3828   24.0928   45.6935 H   0  0  0  0  0  0  0  0  0  0  0  0
   55.2640   23.3550   46.4750 C   0  0  0  0  0  0  0  0  0  0  0  0
   54.8692   22.3551   46.7079 H   0  0  0  0  0  0  0  0  0  0  0  0
   56.5970   23.6660   46.7420 C   0  0  0  0  0  0  0  0  0  0  0  0
   57.2600   22.9103   47.1884 H   0  0  0  0  0  0  0  0  0  0  0  0
   57.0890   24.9380   46.4420 C   0  0  0  0  0  0  0  0  0  0  0  0
   58.1397   25.1899   46.6484 H   0  0  0  0  0  0  0  0  0  0  0  0
   58.0080   27.5790   45.4910 N   0  0  0  0  0  0  0  0  0  0  0  0
   58.0570   28.8600   45.1690 N   0  0  0  0  0  0  0  0  0  0  0  0
   59.3330   29.5200   44.8910 C   0  0  0  0  0  0  0  0  0  0  0  0
   59.1730   30.6064   44.8262 H   0  0  0  0  0  0  0  0  0  0  0  0
   59.7321   29.1401   43.9389 H   0  0  0  0  0  0  0  0  0  0  0  0
   60.3410   29.2230   46.0080 C   0  0  0  0  0  0  0  0  0  0  0  0
   61.2317   28.7481   45.5709 H   0  0  0  0  0  0  0  0  0  0  0  0
   59.8645   28.5532   46.7390 H   0  0  0  0  0  0  0  0  0  0  0  0
   60.7600   30.5020   46.7250 C   0  0  0  0  0  0  0  0  0  0  0  0
   60.7089   30.3461   47.8127 H   0  0  0  0  0  0  0  0  0  0  0  0
   61.7902   30.7616   46.4397 H   0  0  0  0  0  0  0  0  0  0  0  0
   60.0831   31.3208   46.4397 H   0  0  0  0  0  0  0  0  0  0  0  0
   57.8210   32.1150   46.4030 C   0  0  0  0  0  0  0  0  0  0  0  0
   57.3527   31.1814   46.7481 H   0  0  0  0  0  0  0  0  0  0  0  0
   58.4680   32.9480   47.3210 C   0  0  0  0  0  0  0  0  0  0  0  0
   58.5208   32.6577   48.3807 H   0  0  0  0  0  0  0  0  0  0  0  0
   59.0520   34.1560   46.8960 C   0  0  0  0  0  0  0  0  0  0  0  0
   59.7150   35.0190   47.7840 O   0  0  0  0  0  0  0  0  0  0  0  0
   60.4750   34.5890   48.9080 C   0  0  0  0  0  0  0  0  0  0  0  0
   59.9580   34.8815   49.8338 H   0  0  0  0  0  0  0  0  0  0  0  0
   60.5849   33.4949   48.8794 H   0  0  0  0  0  0  0  0  0  0  0  0
   61.4695   35.0583   48.8794 H   0  0  0  0  0  0  0  0  0  0  0  0
  1  2  1  0
  2  3  1  0
  3  4  2  0
  4  5  1  0
  4  6  1  0
  6  7  1  0
  7  8  1  0
  7  9  1  0
  7 10  1  0
 10 11  2  0
 11 12  1  0
 12 13  2  0
 13 14  1  0
 14 15  2  0
 15 16  1  0
 16 17  1  0
 16 18  2  0
 18 19  1  0
 18 20  1  0
 20 21  1  0
 20 22  2  0
 22 23  1  0
 13 24  1  0
 24 25  1  0
 25 26  1  0
 26 27  1  0
 26 28  1  0
 26 29  1  0
 29 30  1  0
 29 31  1  0
 29 32  1  0
 32 33  1  0
 32 34  1  0
 32 35  1  0
  6 36  2  0
 36 37  1  0
 36 38  1  0
 38 39  1  0
 38 40  2  0
 40 41  1  0
 41 42  1  0
 42 43  1  0
 42 44  1  0
 42 45  1  0
 40  3  1  0
 25 11  1  0
 22 14  1  0
M  CHG  1  24  -1
M  END
>  <UniqueID>  (17) 
17

>  <SMILES>  (17) 
CCCn1[n-]c(-c2ccccn2)n/c1=N/Cc1ccc(OC)c(O)c1

>  <Energy>  (17) 
82.8341049558507

>  <Genealogy>  (17) 
CCCn1[n-]c(-c2ccccn2)nc1=NCc1ccc(OC)c(O)c1 (protonated)
CCCn1[n-]c(-c2ccccn2)n/c1=N/Cc1ccc(OC)c(O)c1 (cis-trans isomerization)
CCCn1[n-]c(-c2ccccn2)n/c1=N/Cc1ccc(OC)c(O)c1 (3D coordinates assigned)
CCCn1[n-]c(-c2ccccn2)n/c1=N/Cc1ccc(OC)c(O)c1 (optimized conformer: 82.8341049558507 kcal/mol)

>  <smiles>  (17) 
CCCn1[nH]c(-c2ccccn2)nc1=NCc1ccc(OC)c(O)c1

>  <score_type>  (17) 
oracle

>  <origin>  (17) 
adg

>  <m_score__min__energy>  (17) 
-9.2400000000000002

>  <m_primary>  (17) 
energy

$$$$
17:0
     RDKit          3D

 62 64  0  0  1  0  0  0  0  0999 V2000
   53.2070   30.5700   51.2510 C   0  0  0  0  0  0  0  0  0  0  0  0
   54.2780   30.1300   52.2140 C   0  0  0  0  0  0  0  0  0  0  0  0
   54.9670   31.2960   52.6860 O   0  0  0  0  0  0  0  0  0  0  0  0
   56.2440   31.4670   52.1650 C   0  0  0  0  0  0  0  0  0  0  0  0
   56.7920   32.5860   52.3700 O   0  0  0  0  0  0  0  0  0  0  0  0
   60.0330   32.9760   49.3810 N   0  0  0  0  0  0  0  0  0  0  0  0
   59.6640   31.8370   49.8420 C   0  0  0  0  0  0  0  0  0  0  0  0
   58.8880   29.4710   50.8070 C   0  0  0  0  0  0  0  0  0  0  0  0
   60.1350   29.5970   50.2250 C   0  0  0  0  0  0  0  0  0  0  0  0
   61.0450   28.4000   50.1410 C   0  0  0  0  0  0  0  0  0  0  0  0
   60.4440   27.3160   49.2930 C   0  0  0  0  0  0  0  0  0  0  0  0
   60.8630   27.3810   47.8520 C   0  0  0  0  0  0  0  0  0  0  0  0
   59.8480   28.1780   47.1120 C   0  0  0  0  0  0  0  0  0  0  0  0
   58.5880   27.6760   46.8010 C   0  0  0  0  0  0  0  0  0  0  0  0
   57.6600   28.4300   46.1120 C   0  0  0  0  0  0  0  0  0  0  0  0
   58.0110   29.7050   45.7370 C   0  0  0  0  0  0  0  0  0  0  0  0
   57.1060   30.5620   45.0150 N   0  0  0  0  0  0  0  0  0  0  0  0
   56.3280   30.0360   44.1190 C   0  0  0  0  0  0  0  0  0  0  0  0
   56.6320   30.1230   42.7310 N   0  0  0  0  0  0  0  0  0  0  0  0
   55.1280   29.3400   44.4630 N   0  0  0  0  0  0  0  0  0  0  0  0
   59.2490   30.2060   46.0390 C   0  0  0  0  0  0  0  0  0  0  0  0
   60.1870   29.4770   46.7210 C   0  0  0  0  0  0  0  0  0  0  0  0
   60.5060   30.7960   49.7450 N   0  0  0  0  0  0  0  0  0  0  0  0
   58.0560   30.5740   50.8840 C   0  0  0  0  0  0  0  0  0  0  0  0
   56.8980   30.4220   51.4330 N   0  0  0  0  0  0  0  0  0  0  0  0
   60.5140   33.2790   48.0760 C   0  0  0  0  0  0  0  0  0  0  0  0
   59.4510   33.5700   47.0760 C   0  0  0  0  0  0  0  0  0  0  0  0
   59.6900   34.1500   45.8550 C   0  0  0  0  0  0  0  0  0  0  0  0
   58.7010   34.4220   44.9260 C   0  0  0  0  0  0  0  0  0  0  0  0
   57.3840   34.1020   45.2150 C   0  0  0  0  0  0  0  0  0  0  0  0
   57.1130   33.5180   46.4350 C   0  0  0  0  0  0  0  0  0  0  0  0
   58.1230   33.2530   47.3540 C   0  0  0  0  0  0  0  0  0  0  0  0
   58.4450   31.7640   50.3990 N   0  0  0  0  0  0  0  0  0  0  0  0
   52.3328   30.9291   51.8139 H   0  0  0  0  0  0  0  0  0  0  0  0
   53.5943   31.3819   50.6179 H   0  0  0  0  0  0  0  0  0  0  0  0
   52.9116   29.7204   50.6179 H   0  0  0  0  0  0  0  0  0  0  0  0
   53.8203   29.5998   53.0622 H   0  0  0  0  0  0  0  0  0  0  0  0
   54.9829   29.4510   51.7119 H   0  0  0  0  0  0  0  0  0  0  0  0
   58.5590   28.5003   51.2064 H   0  0  0  0  0  0  0  0  0  0  0  0
   62.0042   28.7094   49.7003 H   0  0  0  0  0  0  0  0  0  0  0  0
   61.1929   28.0044   51.1567 H   0  0  0  0  0  0  0  0  0  0  0  0
   60.7528   26.3426   49.7018 H   0  0  0  0  0  0  0  0  0  0  0  0
   59.3528   27.4522   49.3192 H   0  0  0  0  0  0  0  0  0  0  0  0
   61.8479   27.8642   47.7714 H   0  0  0  0  0  0  0  0  0  0  0  0
   60.9346   26.3679   47.4295 H   0  0  0  0  0  0  0  0  0  0  0  0
   58.3255   26.6540   47.1117 H   0  0  0  0  0  0  0  0  0  0  0  0
   56.6675   28.0222   45.8698 H   0  0  0  0  0  0  0  0  0  0  0  0
   57.6560   30.0180   42.4820 H   0  0  0  0  0  0  0  0  0  0  0  0
   55.9060   30.2780   42.0160 H   0  0  0  0  0  0  0  0  0  0  0  0
   55.1540   28.6180   45.2330 H   0  0  0  0  0  0  0  0  0  0  0  0
   54.2110   29.5190   43.9770 H   0  0  0  0  0  0  0  0  0  0  0  0
   59.4990   31.2295   45.7230 H   0  0  0  0  0  0  0  0  0  0  0  0
   61.1754   29.9000   46.9537 H   0  0  0  0  0  0  0  0  0  0  0  0
   61.4550   30.9280   49.2920 H   0  0  0  0  0  0  0  0  0  0  0  0
   61.1683   34.1604   48.1476 H   0  0  0  0  0  0  0  0  0  0  0  0
   61.0386   32.3799   47.7206 H   0  0  0  0  0  0  0  0  0  0  0  0
   60.7271   34.4137   45.6004 H   0  0  0  0  0  0  0  0  0  0  0  0
   58.9587   34.8893   43.9641 H   0  0  0  0  0  0  0  0  0  0  0  0
   56.5793   34.3074   44.4936 H   0  0  0  0  0  0  0  0  0  0  0  0
   56.0748   33.2560   46.6868 H   0  0  0  0  0  0  0  0  0  0  0  0
   57.8690   32.7852   48.3166 H   0  0  0  0  0  0  0  0  0  0  0  0
   57.8090   32.5810   50.4640 H   0  0  0  0  0  0  0  0  0  0  0  0
  1  2  1  0
  2  3  1  0
  3  4  1  0
  4  5  2  0
  4  6  1  0
  6  7  2  0
  7  8  1  0
  8  9  2  0
  9 10  1  0
 10 11  1  0
 11 12  1  0
 12 13  1  0
 13 14  2  0
 14 15  1  0
 15 16  2  0
 16 17  1  0
 17 18  2  3
 18 19  1  0
 18 20  1  0
 16 21  1  0
 21 22  2  0
  9 23  1  0
 23 24  1  0
 24 25  2  0
 25 26  1  0
 26 27  1  0
 27 28  2  0
 28 29  1  0
 29 30  2  0
 30 31  1  0
 31 32  2  0
 24 33  1  0
 33  7  1  0
 22 13  1  0
 32 27  1  0
  1 34  1  0
  1 35  1  0
  1 36  1  0
  2 37  1  0
  2 38  1  0
  8 39  1  0
 10 40  1  0
 10 41  1  0
 11 42  1  0
 11 43  1  0
 12 44  1  0
 12 45  1  0
 14 46  1  0
 15 47  1  0
 19 48  1  0
 19 49  1  0
 20 50  1  0
 20 51  1  0
 21 52  1  0
 22 53  1  0
 23 54  1  0
 26 55  1  0
 26 56  1  0
 28 57  1  0
 29 58  1  0
 30 59  1  0
 31 60  1  0
 32 61  1  0
 33 62  1  0
M  END
>  <smiles>  (18) 
CCOC(=O)N=c1cc(CCCc2ccc(N=C(N)N)cc2)[nH]c(=NCc2ccccc2)[nH]1

>  <score_type>  (18) 
oracle

>  <origin>  (18) 
adg

>  <m_score__min__energy>  (18) 
-9.6400000000000006

>  <m_primary>  (18) 
energy

$$$$
18:0
     RDKit          3D

 44 47  0  0  0  0  0  0  0  0999 V2000
   58.8554   34.9123   46.4741 H   0  0  0  0  0  0  0  0  0  0  0  0
   58.5550   33.9970   45.9430 C   0  0  0  0  0  0  0  0  0  0  0  0
   58.4920   33.9890   44.5470 C   0  0  0  0  0  0  0  0  0  0  0  0
   58.7422   34.8978   43.9800 H   0  0  0  0  0  0  0  0  0  0  0  0
   58.1110   32.8260   43.8710 C   0  0  0  0  0  0  0  0  0  0  0  0
   58.0685   32.8210   42.7718 H   0  0  0  0  0  0  0  0  0  0  0  0
   57.7820   31.6630   44.5890 C   0  0  0  0  0  0  0  0  0  0  0  0
   57.3990   30.4010   43.8660 C   0  0  0  0  0  0  0  0  0  0  0  0
   58.2901   29.7681   43.7420 H   0  0  0  0  0  0  0  0  0  0  0  0
   56.9851   30.6623   42.8809 H   0  0  0  0  0  0  0  0  0  0  0  0
   56.3660   29.6530   44.6480 C   0  0  0  0  0  0  0  0  0  0  0  0
   55.1440   29.8490   44.4070 O   0  0  0  0  0  0  0  0  0  0  0  0
   56.7860   28.7580   45.6900 N   0  0  0  0  0  0  0  0  0  0  0  0
   56.7470   27.4570   45.6450 C   0  0  0  0  0  0  0  0  0  0  0  0
   55.6490   26.7220   45.9800 N   0  0  0  0  0  0  0  0  0  0  0  0
   56.0820   25.4580   45.8210 C   0  0  0  0  0  0  0  0  0  0  0  0
   55.3840   24.2770   46.0420 C   0  0  0  0  0  0  0  0  0  0  0  0
   54.3348   24.2854   46.3723 H   0  0  0  0  0  0  0  0  0  0  0  0
   56.0740   23.0700   45.8260 C   0  0  0  0  0  0  0  0  0  0  0  0
   55.5651   22.1078   45.9851 H   0  0  0  0  0  0  0  0  0  0  0  0
   57.4230   23.0970   45.4040 C   0  0  0  0  0  0  0  0  0  0  0  0
   57.9610   22.1521   45.2372 H   0  0  0  0  0  0  0  0  0  0  0  0
   58.0660   24.2890   45.2010 N   0  0  0  0  0  0  0  0  0  0  0  0
   59.0630   24.2930   44.8940 H   0  0  0  0  0  0  0  0  0  0  0  0
   57.3790   25.4450   45.4100 C   0  0  0  0  0  0  0  0  0  0  0  0
   57.8220   26.7070   45.2810 N   0  0  0  0  0  0  0  0  0  0  0  0
   59.1640   27.1780   44.9330 C   0  0  0  0  0  0  0  0  0  0  0  0
   59.8411   26.3154   44.8465 H   0  0  0  0  0  0  0  0  0  0  0  0
   59.1190   27.7166   43.9749 H   0  0  0  0  0  0  0  0  0  0  0  0
   59.6780   28.1090   45.9970 C   0  0  0  0  0  0  0  0  0  0  0  0
   59.4720   27.8110   47.3540 C   0  0  0  0  0  0  0  0  0  0  0  0
   58.9543   26.8833   47.6391 H   0  0  0  0  0  0  0  0  0  0  0  0
   59.9230   28.6900   48.3440 C   0  0  0  0  0  0  0  0  0  0  0  0
   59.7588   28.4529   49.4055 H   0  0  0  0  0  0  0  0  0  0  0  0
   60.5820   29.8690   47.9860 C   0  0  0  0  0  0  0  0  0  0  0  0
   60.9371   30.5588   48.7658 H   0  0  0  0  0  0  0  0  0  0  0  0
   60.7900   30.1720   46.6390 C   0  0  0  0  0  0  0  0  0  0  0  0
   61.3119   31.0990   46.3590 H   0  0  0  0  0  0  0  0  0  0  0  0
   60.3360   29.2990   45.6450 C   0  0  0  0  0  0  0  0  0  0  0  0
   60.4947   29.5450   44.5847 H   0  0  0  0  0  0  0  0  0  0  0  0
   57.8510   31.6800   45.9920 C   0  0  0  0  0  0  0  0  0  0  0  0
   57.6005   30.7743   46.5637 H   0  0  0  0  0  0  0  0  0  0  0  0
   58.2370   32.8440   46.6650 C   0  0  0  0  0  0  0  0  0  0  0  0
   58.2902   32.8515   47.7637 H   0  0  0  0  0  0  0  0  0  0  0  0
  1  2  1  0
  2  3  2  0
  3  4  1  0
  3  5  1  0
  5  6  1  0
  5  7  2  0
  7  8  1  0
  8  9  1  0
  8 10  1  0
  8 11  1  0
 11 12  2  0
 11 13  1  0
 13 14  2  0
 14 15  1  0
 15 16  1  0
 16 17  2  0
 17 18  1  0
 17 19  1  0
 19 20  1  0
 19 21  2  0
 21 22  1  0
 21 23  1  0
 23 24  1  0
 23 25  2  0
 25 26  1  0
 26 27  1  0
 27 28  1  0
 27 29  1  0
 27 30  1  0
 30 31  2  0
 31 32  1  0
 31 33  1  0
 33 34  1  0
 33 35  2  0
 35 36  1  0
 35 37  1  0
 37 38  1  0
 37 39  2  0
 39 40  1  0
  7 41  1  0
 41 42  1  0
 41 43  2  0
 43 44  1  0
 43  2  1  0
 26 14  1  0
 39 30  1  0
 25 16  1  0
M  CHG  2  15  -1  23   1
M  END
>  <UniqueID>  (19) 
18

>  <SMILES>  (19) 
O=C(Cc1ccccc1)/N=c1\[n-]c2ccc[nH+]c2n1Cc1ccccc1

>  <Energy>  (19) 
84.91473947537857

>  <Genealogy>  (19) 
O=C(Cc1ccccc1)N=c1[n-]c2ccc[nH+]c2n1Cc1ccccc1 (protonated)
O=C(Cc1ccccc1)/N=c1\[n-]c2ccc[nH+]c2n1Cc1ccccc1 (cis-trans isomerization)
O=C(Cc1ccccc1)/N=c1\[n-]c2ccc[nH+]c2n1Cc1ccccc1 (3D coordinates assigned)
O=C(Cc1ccccc1)/N=c1\[n-]c2ccc[nH+]c2n1Cc1ccccc1 (optimized conformer: 84.91473947537857 kcal/mol)

>  <smiles>  (19) 
O=C(Cc1ccccc1)N=c1[nH]c2cccnc2n1Cc1ccccc1

>  <score_type>  (19) 
oracle

>  <origin>  (19) 
adg

>  <m_score__min__energy>  (19) 
-7.4100000000000001

>  <m_primary>  (19) 
energy

$$$$
19:0
     RDKit          3D

 29 30  0  0  0  0  0  0  0  0999 V2000
   55.9110   29.7170   44.8730 O   0  0  0  0  0  0  0  0  0  0  0  0
   56.8760   30.0760   44.1440 C   0  0  0  0  0  0  0  0  0  0  0  0
   57.0100   31.5160   43.7560 C   0  0  0  0  0  0  0  0  0  0  0  0
   57.7050   32.2820   44.8480 C   0  0  0  0  0  0  0  0  0  0  0  0
   57.7810   33.6840   44.7960 C   0  0  0  0  0  0  0  0  0  0  0  0
   58.4550   34.3900   45.7950 C   0  0  0  0  0  0  0  0  0  0  0  0
   59.0670   33.7030   46.8490 C   0  0  0  0  0  0  0  0  0  0  0  0
   59.9150   34.5910   48.1020 Cl  0  0  0  0  0  0  0  0  0  0  0  0
   59.0050   32.3070   46.9010 C   0  0  0  0  0  0  0  0  0  0  0  0
   58.3310   31.5970   45.9030 C   0  0  0  0  0  0  0  0  0  0  0  0
   57.8630   29.1230   43.7280 N   0  0  0  0  0  0  0  0  0  0  0  0
   57.7840   27.7070   44.0780 C   0  0  0  0  0  0  0  0  0  0  0  0
   58.5500   27.4450   45.3360 C   0  0  0  0  0  0  0  0  0  0  0  0
   59.8520   27.8500   45.6000 C   0  0  0  0  0  0  0  0  0  0  0  0
   60.2850   27.5040   46.8860 C   0  0  0  0  0  0  0  0  0  0  0  0
   59.3260   26.8360   47.6360 C   0  0  0  0  0  0  0  0  0  0  0  0
   57.9370   26.6770   46.7010 S   0  0  0  0  0  0  0  0  0  0  0  0
   57.5973   31.5900   42.8289 H   0  0  0  0  0  0  0  0  0  0  0  0
   56.0080   31.9417   43.5987 H   0  0  0  0  0  0  0  0  0  0  0  0
   57.3078   34.2278   43.9651 H   0  0  0  0  0  0  0  0  0  0  0  0
   58.5047   35.4881   45.7530 H   0  0  0  0  0  0  0  0  0  0  0  0
   59.4875   31.7665   47.7287 H   0  0  0  0  0  0  0  0  0  0  0  0
   58.2906   30.4985   45.9438 H   0  0  0  0  0  0  0  0  0  0  0  0
   58.6800   29.4520   43.1660 H   0  0  0  0  0  0  0  0  0  0  0  0
   56.7308   27.4276   44.2285 H   0  0  0  0  0  0  0  0  0  0  0  0
   58.2167   27.1097   43.2619 H   0  0  0  0  0  0  0  0  0  0  0  0
   60.4789   28.3875   44.8733 H   0  0  0  0  0  0  0  0  0  0  0  0
   61.2900   27.7392   47.2662 H   0  0  0  0  0  0  0  0  0  0  0  0
   59.4532   26.4726   48.6664 H   0  0  0  0  0  0  0  0  0  0  0  0
  1  2  2  0
  2  3  1  0
  3  4  1  0
  4  5  2  0
  5  6  1  0
  6  7  2  0
  7  8  1  0
  7  9  1  0
  9 10  2  0
  2 11  1  0
 11 12  1  0
 12 13  1  0
 13 14  2  0
 14 15  1  0
 15 16  2  0
 16 17  1  0
 10  4  1  0
 17 13  1  0
  3 18  1  0
  3 19  1  0
  5 20  1  0
  6 21  1  0
  9 22  1  0
 10 23  1  0
 11 24  1  0
 12 25  1  0
 12 26  1  0
 14 27  1  0
 15 28  1  0
 16 29  1  0
M  END
>  <UniqueID>  (20) 
19

>  <SMILES>  (20) 
O=C(Cc1ccc(Cl)cc1)NCc1cccs1

>  <Energy>  (20) 
49.50378051704011

>  <Genealogy>  (20) 
O=C(Cc1ccc(Cl)cc1)NCc1cccs1 (3D coordinates assigned)
O=C(Cc1ccc(Cl)cc1)NCc1cccs1 (optimized conformer: 49.50378051704011 kcal/mol)

>  <smiles>  (20) 
O=C(Cc1ccc(Cl)cc1)NCc1cccs1

>  <score_type>  (20) 
oracle

>  <origin>  (20) 
adg

>  <m_score__min__energy>  (20) 
-7.0099999999999998

>  <m_primary>  (20) 
energy

$$$$
20:0
     RDKit          3D

 39 41  0  0  0  0  0  0  0  0999 V2000
   59.6143   31.2207   49.0358 H   0  0  0  0  0  0  0  0  0  0  0  0
   59.2100   31.1280   48.0170 C   0  0  0  0  0  0  0  0  0  0  0  0
   58.4090   32.1110   47.5790 C   0  0  0  0  0  0  0  0  0  0  0  0
   57.7551   32.6128   48.3074 H   0  0  0  0  0  0  0  0  0  0  0  0
   58.3590   32.5440   46.2090 N   0  0  0  0  0  0  0  0  0  0  0  0
   57.7180   31.9410   45.1880 C   0  0  0  0  0  0  0  0  0  0  0  0
   57.0920   30.8510   45.2790 O   0  0  0  0  0  0  0  0  0  0  0  0
   57.8170   32.7100   44.0470 C   0  0  0  0  0  0  0  0  0  0  0  0
   57.4156   32.4910   43.0465 H   0  0  0  0  0  0  0  0  0  0  0  0
   58.5380   33.8210   44.4510 C   0  0  0  0  0  0  0  0  0  0  0  0
   58.8195   34.6689   43.8093 H   0  0  0  0  0  0  0  0  0  0  0  0
   58.8390   33.6940   45.7600 N   0  0  0  0  0  0  0  0  0  0  0  0
   59.7460   34.8380   46.6990 S   0  0  0  0  0  0  0  0  0  0  0  0
   60.1030   36.0340   45.8600 O   0  0  0  0  0  0  0  0  0  0  0  0
   58.8980   35.3050   47.8490 O   0  0  0  0  0  0  0  0  0  0  0  0
   61.2310   34.0740   47.2860 C   0  0  0  0  0  0  0  0  0  0  0  0
   62.2740   33.8350   46.3760 C   0  0  0  0  0  0  0  0  0  0  0  0
   62.1438   34.0995   45.3162 H   0  0  0  0  0  0  0  0  0  0  0  0
   63.4740   33.2650   46.8040 C   0  0  0  0  0  0  0  0  0  0  0  0
   64.2839   33.0838   46.0821 H   0  0  0  0  0  0  0  0  0  0  0  0
   63.6480   32.9250   48.1440 C   0  0  0  0  0  0  0  0  0  0  0  0
   64.5940   32.4743   48.4786 H   0  0  0  0  0  0  0  0  0  0  0  0
   62.6230   33.1560   49.0610 C   0  0  0  0  0  0  0  0  0  0  0  0
   62.7667   32.8851   50.1174 H   0  0  0  0  0  0  0  0  0  0  0  0
   61.4090   33.7310   48.6500 C   0  0  0  0  0  0  0  0  0  0  0  0
   60.3920   33.9680   49.6330 N   0  0  0  0  0  0  0  0  0  0  0  0
   59.7190   34.7610   49.5660 H   0  0  0  0  0  0  0  0  0  0  0  0
   60.3190   33.3550   50.4740 H   0  0  0  0  0  0  0  0  0  0  0  0
   59.5930   29.9290   47.2390 C   0  0  0  0  0  0  0  0  0  0  0  0
   59.0910   28.6510   47.5470 C   0  0  0  0  0  0  0  0  0  0  0  0
   58.4153   28.5218   48.4053 H   0  0  0  0  0  0  0  0  0  0  0  0
   59.4450   27.5450   46.7700 C   0  0  0  0  0  0  0  0  0  0  0  0
   59.0603   26.5469   47.0264 H   0  0  0  0  0  0  0  0  0  0  0  0
   60.2880   27.7070   45.6670 C   0  0  0  0  0  0  0  0  0  0  0  0
   60.5719   26.8351   45.0594 H   0  0  0  0  0  0  0  0  0  0  0  0
   60.7700   28.9750   45.3360 C   0  0  0  0  0  0  0  0  0  0  0  0
   61.4273   29.1022   44.4632 H   0  0  0  0  0  0  0  0  0  0  0  0
   60.4180   30.0840   46.1130 C   0  0  0  0  0  0  0  0  0  0  0  0
   60.7895   31.0829   45.8405 H   0  0  0  0  0  0  0  0  0  0  0  0
  1  2  1  0
  2  3  2  0
  3  4  1  0
  3  5  1  0
  5  6  1  0
  6  7  2  0
  6  8  1  0
  8  9  1  0
  8 10  2  0
 10 11  1  0
 10 12  1  0
 12 13  1  0
 13 14  2  0
 13 15  2  0
 13 16  1  0
 16 17  2  0
 17 18  1  0
 17 19  1  0
 19 20  1  0
 19 21  2  0
 21 22  1  0
 21 23  1  0
 23 24  1  0
 23 25  2  0
 25 26  1  0
 26 27  1  0
 26 28  1  0
  2 29  1  0
 29 30  2  0
 30 31  1  0
 30 32  1  0
 32 33  1  0
 32 34  2  0
 34 35  1  0
 34 36  1  0
 36 37  1  0
 36 38  2  0
 38 39  1  0
 12  5  1  0
 25 16  1  0
 38 29  1  0
M  END
>  <UniqueID>  (21) 
20

>  <SMILES>  (21) 
Nc1ccccc1S(=O)(=O)n1ccc(=O)n1/C=C\c1ccccc1

>  <Energy>  (21) 
84.92448917097775

>  <Genealogy>  (21) 
Nc1ccccc1S(=O)(=O)n1ccc(=O)n1/C=C\c1ccccc1 (cis-trans isomerization)
Nc1ccccc1S(=O)(=O)n1ccc(=O)n1/C=C\c1ccccc1 (3D coordinates assigned)
Nc1ccccc1S(=O)(=O)n1ccc(=O)n1/C=C\c1ccccc1 (optimized conformer: 84.92448917097775 kcal/mol)

>  <smiles>  (21) 
Nc1ccccc1S(=O)(=O)n1ccc(=O)n1C=Cc1ccccc1

>  <score_type>  (21) 
oracle

>  <origin>  (21) 
adg

>  <m_score__min__energy>  (21) 
-8.5399999999999991

>  <m_primary>  (21) 
energy

$$$$
21:0
     RDKit          3D

 43 45  0  0  0  0  0  0  0  0999 V2000
   64.3269   33.0175   48.3416 H   0  0  0  0  0  0  0  0  0  0  0  0
   63.2960   32.6610   48.2000 C   0  0  0  0  0  0  0  0  0  0  0  0
   62.4050   33.4100   47.2950 C   0  0  0  0  0  0  0  0  0  0  0  0
   62.9000   33.9440   46.2650 O   0  0  0  0  0  0  0  0  0  0  0  0
   61.0100   33.5820   47.5910 N   0  0  0  0  0  0  0  0  0  0  0  0
   60.7250   33.6470   48.5940 H   0  0  0  0  0  0  0  0  0  0  0  0
   59.9980   33.7540   46.5850 C   0  0  0  0  0  0  0  0  0  0  0  0
   59.8690   34.9920   45.9390 C   0  0  0  0  0  0  0  0  0  0  0  0
   60.5576   35.8127   46.1884 H   0  0  0  0  0  0  0  0  0  0  0  0
   58.8720   35.1900   44.9810 C   0  0  0  0  0  0  0  0  0  0  0  0
   58.7939   36.1566   44.4618 H   0  0  0  0  0  0  0  0  0  0  0  0
   57.9740   34.1630   44.6810 C   0  0  0  0  0  0  0  0  0  0  0  0
   57.1978   34.3202   43.9176 H   0  0  0  0  0  0  0  0  0  0  0  0
   58.0570   32.9350   45.3470 C   0  0  0  0  0  0  0  0  0  0  0  0
   57.1040   31.9080   45.0310 N   0  0  0  0  0  0  0  0  0  0  0  0
   57.3390   30.7540   44.2110 C   0  0  0  0  0  0  0  0  0  0  0  0
   57.4550   30.9140   42.9660 O   0  0  0  0  0  0  0  0  0  0  0  0
   57.4030   29.3850   44.7750 C   0  0  0  0  0  0  0  0  0  0  0  0
   58.6490   28.7680   44.9860 C   0  0  0  0  0  0  0  0  0  0  0  0
   59.5746   29.2978   44.7168 H   0  0  0  0  0  0  0  0  0  0  0  0
   58.7170   27.4850   45.5360 C   0  0  0  0  0  0  0  0  0  0  0  0
   59.6955   27.0120   45.7054 H   0  0  0  0  0  0  0  0  0  0  0  0
   57.5460   26.8020   45.8710 C   0  0  0  0  0  0  0  0  0  0  0  0
   57.6030   25.7951   46.3103 H   0  0  0  0  0  0  0  0  0  0  0  0
   56.3010   27.3980   45.6480 C   0  0  0  0  0  0  0  0  0  0  0  0
   55.1360   26.7150   45.9740 O   0  0  0  0  0  0  0  0  0  0  0  0
   56.2280   28.6820   45.0970 C   0  0  0  0  0  0  0  0  0  0  0  0
   55.2466   29.1441   44.9147 H   0  0  0  0  0  0  0  0  0  0  0  0
   59.0870   32.7250   46.2810 C   0  0  0  0  0  0  0  0  0  0  0  0
   59.1816   31.7484   46.7782 H   0  0  0  0  0  0  0  0  0  0  0  0
   62.8980   31.5620   48.8570 C   0  0  0  0  0  0  0  0  0  0  0  0
   63.6459   31.0068   49.4422 H   0  0  0  0  0  0  0  0  0  0  0  0
   61.5050   31.0540   48.8380 C   0  0  0  0  0  0  0  0  0  0  0  0
   61.0560   30.1150   47.8850 C   0  0  0  0  0  0  0  0  0  0  0  0
   61.7482   29.7411   47.1162 H   0  0  0  0  0  0  0  0  0  0  0  0
   59.7350   29.6580   47.9140 C   0  0  0  0  0  0  0  0  0  0  0  0
   59.3902   28.9313   47.1636 H   0  0  0  0  0  0  0  0  0  0  0  0
   58.8520   30.1200   48.8910 C   0  0  0  0  0  0  0  0  0  0  0  0
   57.8120   29.7620   48.9065 H   0  0  0  0  0  0  0  0  0  0  0  0
   59.2900   31.0380   49.8500 C   0  0  0  0  0  0  0  0  0  0  0  0
   58.1820   31.6130   51.0840 Cl  0  0  0  0  0  0  0  0  0  0  0  0
   60.6110   31.4990   49.8260 C   0  0  0  0  0  0  0  0  0  0  0  0
   60.9523   32.2159   50.5873 H   0  0  0  0  0  0  0  0  0  0  0  0
  1  2  1  0
  2  3  1  0
  3  4  2  0
  3  5  1  0
  5  6  1  0
  5  7  1  0
  7  8  2  0
  8  9  1  0
  8 10  1  0
 10 11  1  0
 10 12  2  0
 12 13  1  0
 12 14  1  0
 14 15  1  0
 15 16  1  0
 16 17  2  0
 16 18  1  0
 18 19  2  0
 19 20  1  0
 19 21  1  0
 21 22  1  0
 21 23  2  0
 23 24  1  0
 23 25  1  0
 25 26  1  0
 25 27  2  0
 27 28  1  0
 14 29  2  0
 29 30  1  0
  2 31  2  0
 31 32  1  0
 31 33  1  0
 33 34  2  0
 34 35  1  0
 34 36  1  0
 36 37  1  0
 36 38  2  0
 38 39  1  0
 38 40  1  0
 40 41  1  0
 40 42  2  0
 42 43  1  0
 29  7  1  0
 42 33  1  0
 27 18  1  0
M  CHG  2  15  -1  26  -1
M  END
>  <UniqueID>  (22) 
21

>  <SMILES>  (22) 
O=C(/C=C/c1cccc(Cl)c1)Nc1cccc([N-]C(=O)c2cccc([O-])c2)c1

>  <Energy>  (22) 
58.1241224426119

>  <Genealogy>  (22) 
O=C(C=Cc1cccc(Cl)c1)Nc1cccc([N-]C(=O)c2cccc([O-])c2)c1 (protonated)
O=C(/C=C/c1cccc(Cl)c1)Nc1cccc([N-]C(=O)c2cccc([O-])c2)c1 (cis-trans isomerization)
O=C(/C=C/c1cccc(Cl)c1)Nc1cccc([N-]C(=O)c2cccc([O-])c2)c1 (3D coordinates assigned)
O=C(/C=C/c1cccc(Cl)c1)Nc1cccc([N-]C(=O)c2cccc([O-])c2)c1 (optimized conformer: 58.1241224426119 kcal/mol)

>  <smiles>  (22) 
O=C(C=Cc1cccc(Cl)c1)Nc1cccc(NC(=O)c2cccc(O)c2)c1

>  <score_type>  (22) 
oracle

>  <origin>  (22) 
adg

>  <m_score__min__energy>  (22) 
-14.18

>  <m_primary>  (22) 
energy

$$$$
22:0
     RDKit          3D

 38 40  0  0  0  0  0  0  0  0999 V2000
   60.7950   26.3180   46.3800 C   0  0  0  0  0  0  0  0  0  0  0  0
   59.4180   26.8240   46.0630 C   0  0  0  0  0  0  0  0  0  0  0  0
   58.2980   26.2690   46.6990 C   0  0  0  0  0  0  0  0  0  0  0  0
   57.0150   26.7160   46.3770 C   0  0  0  0  0  0  0  0  0  0  0  0
   56.8400   27.7050   45.4070 C   0  0  0  0  0  0  0  0  0  0  0  0
   57.9450   28.2530   44.7380 C   0  0  0  0  0  0  0  0  0  0  0  0
   57.7270   29.2530   43.7270 N   0  0  0  0  0  0  0  0  0  0  0  0
   57.2770   30.8940   44.0690 S   0  0  0  0  0  0  0  0  0  0  0  0
   55.9060   30.9070   44.6860 O   0  0  0  0  0  0  0  0  0  0  0  0
   57.2450   31.6780   42.7890 O   0  0  0  0  0  0  0  0  0  0  0  0
   58.4550   31.6270   45.1530 C   0  0  0  0  0  0  0  0  0  0  0  0
   58.5990   33.0200   45.1880 C   0  0  0  0  0  0  0  0  0  0  0  0
   59.5470   33.6090   46.0280 C   0  0  0  0  0  0  0  0  0  0  0  0
   60.3680   32.8140   46.8500 C   0  0  0  0  0  0  0  0  0  0  0  0
   61.3500   33.4220   47.7130 N   0  0  0  0  0  0  0  0  0  0  0  0
   62.6930   33.3610   47.5730 C   0  0  0  0  0  0  0  0  0  0  0  0
   63.3050   34.0650   48.5880 C   0  0  0  0  0  0  0  0  0  0  0  0
   62.2960   34.5740   49.3800 C   0  0  0  0  0  0  0  0  0  0  0  0
   61.1060   34.1620   48.8150 C   0  0  0  0  0  0  0  0  0  0  0  0
   60.2120   31.4160   46.8130 C   0  0  0  0  0  0  0  0  0  0  0  0
   59.2620   30.8280   45.9730 C   0  0  0  0  0  0  0  0  0  0  0  0
   59.2380   27.8060   45.0770 C   0  0  0  0  0  0  0  0  0  0  0  0
   60.9258   26.2699   47.4711 H   0  0  0  0  0  0  0  0  0  0  0  0
   60.9244   25.3136   45.9506 H   0  0  0  0  0  0  0  0  0  0  0  0
   61.5440   26.9996   45.9506 H   0  0  0  0  0  0  0  0  0  0  0  0
   58.4306   25.4795   47.4534 H   0  0  0  0  0  0  0  0  0  0  0  0
   56.1402   26.2881   46.8886 H   0  0  0  0  0  0  0  0  0  0  0  0
   55.8266   28.0578   45.1651 H   0  0  0  0  0  0  0  0  0  0  0  0
   57.9350   29.0190   42.7300 H   0  0  0  0  0  0  0  0  0  0  0  0
   57.9629   33.6526   44.5514 H   0  0  0  0  0  0  0  0  0  0  0  0
   59.6529   34.7037   46.0474 H   0  0  0  0  0  0  0  0  0  0  0  0
   63.2200   32.8281   46.7678 H   0  0  0  0  0  0  0  0  0  0  0  0
   64.3869   34.1956   48.7375 H   0  0  0  0  0  0  0  0  0  0  0  0
   62.4165   35.1880   50.2847 H   0  0  0  0  0  0  0  0  0  0  0  0
   60.1059   34.4015   49.2054 H   0  0  0  0  0  0  0  0  0  0  0  0
   60.8434   30.7801   47.4509 H   0  0  0  0  0  0  0  0  0  0  0  0
   59.1477   29.7341   45.9559 H   0  0  0  0  0  0  0  0  0  0  0  0
   60.1136   28.2306   44.5642 H   0  0  0  0  0  0  0  0  0  0  0  0
  1  2  1  0
  2  3  2  0
  3  4  1  0
  4  5  2  0
  5  6  1  0
  6  7  1  0
  7  8  1  0
  8  9  2  0
  8 10  2  0
  8 11  1  0
 11 12  2  0
 12 13  1  0
 13 14  2  0
 14 15  1  0
 15 16  1  0
 16 17  2  0
 17 18  1  0
 18 19  2  0
 14 20  1  0
 20 21  2  0
  6 22  2  0
 22  2  1  0
 21 11  1  0
 19 15  1  0
  1 23  1  0
  1 24  1  0
  1 25  1  0
  3 26  1  0
  4 27  1  0
  5 28  1  0
  7 29  1  0
 12 30  1  0
 13 31  1  0
 16 32  1  0
 17 33  1  0
 18 34  1  0
 19 35  1  0
 20 36  1  0
 21 37  1  0
 22 38  1  0
M  END
>  <UniqueID>  (23) 
22

>  <SMILES>  (23) 
Cc1cccc(NS(=O)(=O)c2ccc(-n3cccc3)cc2)c1

>  <Energy>  (23) 
71.06217109126652

>  <Genealogy>  (23) 
Cc1cccc(NS(=O)(=O)c2ccc(-n3cccc3)cc2)c1 (3D coordinates assigned)
Cc1cccc(NS(=O)(=O)c2ccc(-n3cccc3)cc2)c1 (optimized conformer: 71.06217109126652 kcal/mol)

>  <smiles>  (23) 
Cc1cccc(NS(=O)(=O)c2ccc(-n3cccc3)cc2)c1

>  <score_type>  (23) 
oracle

>  <origin>  (23) 
adg

>  <m_score__min__energy>  (23) 
-7.71

>  <m_primary>  (23) 
energy

$$$$
23:0
     RDKit          3D

 43 45  0  0  0  0  0  0  0  0999 V2000
   60.3130   34.3210   47.3410 C   0  0  0  0  0  0  0  0  0  0  0  0
   58.9690   33.6200   47.5100 C   0  0  0  0  0  0  0  0  0  0  0  0
   58.5560   32.9400   46.2280 C   0  0  0  0  0  0  0  0  0  0  0  0
   58.5250   31.5440   46.1520 C   0  0  0  0  0  0  0  0  0  0  0  0
   58.1150   30.9080   45.0130 N   0  0  0  0  0  0  0  0  0  0  0  0
   58.1320   29.4270   45.0060 C   0  0  1  0  0  0  0  0  0  0  0  0
   58.4990   28.8970   46.2620 O   0  0  0  0  0  0  0  0  0  0  0  0
   57.7270   27.7340   46.4790 C   0  0  2  0  0  0  0  0  0  0  0  0
   58.6330   26.5360   46.8100 C   0  0  0  0  0  0  0  0  0  0  0  0
   57.7610   25.2160   47.7420 S   0  0  0  0  0  0  0  0  0  0  0  0
   56.8320   24.5910   46.3410 C   0  0  0  0  0  0  0  0  0  0  0  0
   57.4990   24.1250   45.2030 C   0  0  0  0  0  0  0  0  0  0  0  0
   56.7540   23.6340   44.1280 C   0  0  0  0  0  0  0  0  0  0  0  0
   55.3600   23.6080   44.2030 C   0  0  0  0  0  0  0  0  0  0  0  0
   54.7300   24.0710   45.3610 C   0  0  0  0  0  0  0  0  0  0  0  0
   55.4730   24.5450   46.3970 N   0  0  0  0  0  0  0  0  0  0  0  0
   56.8180   27.4860   45.2720 C   0  0  1  0  0  0  0  0  0  0  0  0
   55.5540   27.0720   45.6640 F   0  0  0  0  0  0  0  0  0  0  0  0
   56.7880   28.8310   44.5890 C   0  0  1  0  0  0  0  0  0  0  0  0
   55.6950   29.6170   45.0080 O   0  0  0  0  0  0  0  0  0  0  0  0
   57.7490   31.6550   43.9180 C   0  0  0  0  0  0  0  0  0  0  0  0
   57.3990   31.0990   42.8410 O   0  0  0  0  0  0  0  0  0  0  0  0
   57.7600   33.0150   43.9800 N   0  0  0  0  0  0  0  0  0  0  0  0
   58.1440   33.6700   45.1060 C   0  0  0  0  0  0  0  0  0  0  0  0
   58.1280   34.9300   45.1310 O   0  0  0  0  0  0  0  0  0  0  0  0
   60.7380   34.5427   48.3311 H   0  0  0  0  0  0  0  0  0  0  0  0
   61.0005   33.6666   46.7850 H   0  0  0  0  0  0  0  0  0  0  0  0
   60.1698   35.2593   46.7850 H   0  0  0  0  0  0  0  0  0  0  0  0
   59.0526   32.8668   48.3073 H   0  0  0  0  0  0  0  0  0  0  0  0
   58.2093   34.3712   47.7719 H   0  0  0  0  0  0  0  0  0  0  0  0
   58.8355   30.9478   47.0227 H   0  0  0  0  0  0  0  0  0  0  0  0
   58.8896   29.1454   44.2598 H   0  0  0  0  0  0  0  0  0  0  0  0
   57.0749   27.8755   47.3535 H   0  0  0  0  0  0  0  0  0  0  0  0
   59.0098   26.1103   45.8683 H   0  0  0  0  0  0  0  0  0  0  0  0
   59.4493   26.9060   47.4478 H   0  0  0  0  0  0  0  0  0  0  0  0
   58.5978   24.1450   45.1552 H   0  0  0  0  0  0  0  0  0  0  0  0
   57.2644   23.2688   43.2246 H   0  0  0  0  0  0  0  0  0  0  0  0
   54.7646   23.2274   43.3600 H   0  0  0  0  0  0  0  0  0  0  0  0
   53.6326   24.0522   45.4349 H   0  0  0  0  0  0  0  0  0  0  0  0
   57.1779   26.6818   44.6133 H   0  0  0  0  0  0  0  0  0  0  0  0
   56.6556   28.7713   43.4986 H   0  0  0  0  0  0  0  0  0  0  0  0
   55.7510   29.7340   45.9930 H   0  0  0  0  0  0  0  0  0  0  0  0
   57.4660   33.5680   43.1430 H   0  0  0  0  0  0  0  0  0  0  0  0
  1  2  1  0
  2  3  1  0
  3  4  2  0
  4  5  1  0
  5  6  1  0
  6  7  1  0
  7  8  1  0
  8  9  1  0
  9 10  1  0
 10 11  1  0
 11 12  2  0
 12 13  1  0
 13 14  2  0
 14 15  1  0
 15 16  2  0
  8 17  1  0
 17 18  1  0
 17 19  1  0
 19 20  1  0
  5 21  1  0
 21 22  2  0
 21 23  1  0
 23 24  1  0
 24 25  2  0
 24  3  1  0
 19  6  1  0
 16 11  1  0
  1 26  1  0
  1 27  1  0
  1 28  1  0
  2 29  1  0
  2 30  1  0
  4 31  1  0
  6 32  1  6
  8 33  1  1
  9 34  1  0
  9 35  1  0
 12 36  1  0
 13 37  1  0
 14 38  1  0
 15 39  1  0
 17 40  1  6
 19 41  1  6
 20 42  1  0
 23 43  1  0
M  END
>  <UniqueID>  (24) 
23

>  <SMILES>  (24) 
CCc1cn([C@H]2O[C@H](CSc3ccccn3)C(F)C2O)c(=O)[nH]c1=O

>  <Energy>  (24) 
47.0869999948265

>  <Genealogy>  (24) 
CCc1cn([C@H]2O[C@H](CSc3ccccn3)C(F)C2O)c(=O)[nH]c1=O (chirality)
CCc1cn([C@H]2O[C@H](CSc3ccccn3)C(F)C2O)c(=O)[nH]c1=O (3D coordinates assigned)
CCc1cn([C@H]2O[C@H](CSc3ccccn3)C(F)C2O)c(=O)[nH]c1=O (nonaromatic ring conformer: 47.0869999948265 kcal/mol)

>  <smiles>  (24) 
CCc1cn(C2OC(CSc3ccccn3)C(F)C2O)c(=O)[nH]c1=O

>  <score_type>  (24) 
oracle

>  <origin>  (24) 
adg

>  <m_score__min__energy>  (24) 
-8.1799999999999997

>  <m_primary>  (24) 
energy

$$$$
24:0
     RDKit          3D

 60 63  0  0  1  0  0  0  0  0999 V2000
   60.3950   34.3290   48.5440 C   0  0  0  0  0  0  0  0  0  0  0  0
   61.0580   33.1690   49.0220 O   0  0  0  0  0  0  0  0  0  0  0  0
   60.5670   31.9450   48.6500 C   0  0  0  0  0  0  0  0  0  0  0  0
   59.7480   31.7560   47.5540 C   0  0  0  0  0  0  0  0  0  0  0  0
   59.2580   30.5150   47.1860 C   0  0  0  0  0  0  0  0  0  0  0  0
   58.3820   30.3300   46.0050 C   0  0  0  0  0  0  0  0  0  0  0  0
   59.0390   29.3870   45.0200 C   0  0  0  0  0  0  0  0  0  0  0  0
   58.0660   28.8030   44.0520 C   0  0  0  0  0  0  0  0  0  0  0  0
   56.6340   29.8440   43.9830 S   0  0  0  0  0  0  0  0  0  0  0  0
   56.0910   29.7330   42.5720 O   0  0  0  0  0  0  0  0  0  0  0  0
   55.5830   29.3170   44.9280 O   0  0  0  0  0  0  0  0  0  0  0  0
   57.0200   31.5400   44.3310 C   0  0  0  0  0  0  0  0  0  0  0  0
   58.1630   31.6590   45.3170 C   0  0  0  0  0  0  0  0  0  0  0  0
   59.5960   29.4090   47.9410 C   0  0  0  0  0  0  0  0  0  0  0  0
   59.0940   28.0440   47.5910 C   0  0  0  0  0  0  0  0  0  0  0  0
   60.4120   29.5650   49.0420 C   0  0  0  0  0  0  0  0  0  0  0  0
   66.3610   28.7820   51.4440 C   0  0  0  0  0  0  0  0  0  0  0  0
   65.9220   30.0390   51.9230 N   0  0  0  0  0  0  0  0  0  0  0  0
   65.1660   30.7890   51.2430 C   0  0  0  0  0  0  0  0  0  0  0  0
   63.3330   32.3090   49.8120 N   0  0  0  0  0  0  0  0  0  0  0  0
   64.6340   32.6180   49.8210 C   0  0  0  0  0  0  0  0  0  0  0  0
   65.5570   31.8830   50.5200 C   0  0  0  0  0  0  0  0  0  0  0  0
   67.2380   32.3300   50.4970 Cl  0  0  0  0  0  0  0  0  0  0  0  0
   62.9620   31.2250   50.5320 C   0  0  0  0  0  0  0  0  0  0  0  0
   61.7380   30.8980   50.5510 N   0  0  0  0  0  0  0  0  0  0  0  0
   60.8930   30.8190   49.3920 C   0  0  0  0  0  0  0  0  0  0  0  0
   67.5350   28.7330   50.6760 C   0  0  0  0  0  0  0  0  0  0  0  0
   67.9740   27.5260   50.2370 N   0  0  0  0  0  0  0  0  0  0  0  0
   67.3080   26.3740   50.5220 C   0  0  0  0  0  0  0  0  0  0  0  0
   66.1520   26.3670   51.2720 C   0  0  0  0  0  0  0  0  0  0  0  0
   65.6710   27.5960   51.7400 C   0  0  0  0  0  0  0  0  0  0  0  0
   64.4730   27.6820   52.5280 C   0  0  0  0  0  0  0  0  0  0  0  0
   64.5790   27.9570   53.9170 N   0  0  0  0  0  0  0  0  0  0  0  0
   63.3660   27.5140   51.9910 O   0  0  0  0  0  0  0  0  0  0  0  0
   63.8430   30.4910   51.2230 N   0  0  0  0  0  0  0  0  0  0  0  0
   60.0503   34.9320   49.3970 H   0  0  0  0  0  0  0  0  0  0  0  0
   61.0901   34.9228   47.9322 H   0  0  0  0  0  0  0  0  0  0  0  0
   59.5306   34.0314   47.9322 H   0  0  0  0  0  0  0  0  0  0  0  0
   59.4729   32.6308   46.9465 H   0  0  0  0  0  0  0  0  0  0  0  0
   57.4209   29.9145   46.3421 H   0  0  0  0  0  0  0  0  0  0  0  0
   59.8055   29.9413   44.4586 H   0  0  0  0  0  0  0  0  0  0  0  0
   59.4783   28.5576   45.5936 H   0  0  0  0  0  0  0  0  0  0  0  0
   58.5273   28.7424   43.0553 H   0  0  0  0  0  0  0  0  0  0  0  0
   57.7777   27.7921   44.3759 H   0  0  0  0  0  0  0  0  0  0  0  0
   57.3030   32.0415   43.3938 H   0  0  0  0  0  0  0  0  0  0  0  0
   56.1311   32.0117   44.7752 H   0  0  0  0  0  0  0  0  0  0  0  0
   59.0791   31.9492   44.7817 H   0  0  0  0  0  0  0  0  0  0  0  0
   57.9175   32.4230   46.0693 H   0  0  0  0  0  0  0  0  0  0  0  0
   58.8872   27.4817   48.5135 H   0  0  0  0  0  0  0  0  0  0  0  0
   58.1699   28.1333   47.0011 H   0  0  0  0  0  0  0  0  0  0  0  0
   59.8558   27.5133   47.0011 H   0  0  0  0  0  0  0  0  0  0  0  0
   60.6839   28.6881   49.6479 H   0  0  0  0  0  0  0  0  0  0  0  0
   62.6510   32.8900   49.2690 H   0  0  0  0  0  0  0  0  0  0  0  0
   64.9758   33.4923   49.2477 H   0  0  0  0  0  0  0  0  0  0  0  0
   68.0874   29.6532   50.4351 H   0  0  0  0  0  0  0  0  0  0  0  0
   67.7040   25.4205   50.1426 H   0  0  0  0  0  0  0  0  0  0  0  0
   65.6249   25.4277   51.4955 H   0  0  0  0  0  0  0  0  0  0  0  0
   64.3410   27.2030   54.6040 H   0  0  0  0  0  0  0  0  0  0  0  0
   64.8810   28.8670   54.3160 H   0  0  0  0  0  0  0  0  0  0  0  0
   63.4850   29.6600   51.7610 H   0  0  0  0  0  0  0  0  0  0  0  0
  1  2  1  0
  2  3  1  0
  3  4  2  0
  4  5  1  0
  5  6  1  0
  6  7  1  0
  7  8  1  0
  8  9  1  0
  9 10  2  0
  9 11  2  0
  9 12  1  0
 12 13  1  0
  5 14  2  0
 14 15  1  0
 14 16  1  0
 16 17  2  0
 17 18  1  0
 18 19  2  0
 19 20  1  0
 20 21  1  0
 21 22  2  0
 22 23  1  0
 22 24  1  0
 24 25  2  0
 25 26  1  0
 26 27  2  0
 27 28  1  0
 28 29  2  0
 29 30  1  0
 30 31  2  0
 31 32  1  0
 32 33  1  0
 32 34  2  0
 24 35  1  0
 17  3  1  0
 35 19  1  0
 13  6  1  0
 31 26  1  0
  1 36  1  0
  1 37  1  0
  1 38  1  0
  4 39  1  0
  6 40  1  0
  7 41  1  0
  7 42  1  0
  8 43  1  0
  8 44  1  0
 12 45  1  0
 12 46  1  0
 13 47  1  0
 13 48  1  0
 15 49  1  0
 15 50  1  0
 15 51  1  0
 16 52  1  0
 20 53  1  0
 21 54  1  0
 27 55  1  0
 29 56  1  0
 30 57  1  0
 33 58  1  0
 33 59  1  0
 35 60  1  0
M  END
>  <smiles>  (25) 
COc1cc(C2CCS(=O)(=O)CC2)c(C)cc1N=c1[nH]cc(Cl)c(=Nc2cnccc2C(N)=O)[nH]1

>  <score_type>  (25) 
oracle

>  <origin>  (25) 
adg

>  <m_score__min__energy>  (25) 
-10.73

>  <m_primary>  (25) 
energy

$$$$
25:0
     RDKit          3D

 44 45  0  0  0  0  0  0  0  0999 V2000
   59.7120   34.5830   48.5230 C   0  0  0  0  0  0  0  0  0  0  0  0
   59.1890   34.0280   47.2310 C   0  0  0  0  0  0  0  0  0  0  0  0
   58.6240   32.7450   47.1890 C   0  0  0  0  0  0  0  0  0  0  0  0
   58.1680   32.2140   45.9790 C   0  0  0  0  0  0  0  0  0  0  0  0
   58.2910   32.9520   44.7910 C   0  0  0  0  0  0  0  0  0  0  0  0
   57.7740   32.3830   43.4980 C   0  0  0  0  0  0  0  0  0  0  0  0
   57.9000   30.9270   43.5040 N   0  0  0  0  0  0  0  0  0  0  0  0
   56.9550   30.0780   44.1750 C   0  0  0  0  0  0  0  0  0  0  0  0
   55.8650   30.5630   44.5870 O   0  0  0  0  0  0  0  0  0  0  0  0
   57.2320   28.6370   44.3810 C   0  0  0  0  0  0  0  0  0  0  0  0
   57.7800   27.8490   43.3510 C   0  0  0  0  0  0  0  0  0  0  0  0
   58.0430   26.4930   43.5600 C   0  0  0  0  0  0  0  0  0  0  0  0
   57.7730   25.9000   44.8010 C   0  0  0  0  0  0  0  0  0  0  0  0
   58.0370   24.4290   45.0130 C   0  0  0  0  0  0  0  0  0  0  0  0
   56.8290   23.5590   44.6040 C   0  0  0  0  0  0  0  0  0  0  0  0
   55.5500   24.0910   45.2600 C   0  0  0  0  0  0  0  0  0  0  0  0
   56.6570   23.5110   43.0790 C   0  0  0  0  0  0  0  0  0  0  0  0
   57.2330   26.6820   45.8330 C   0  0  0  0  0  0  0  0  0  0  0  0
   56.9710   28.0390   45.6260 C   0  0  0  0  0  0  0  0  0  0  0  0
   58.8680   34.2300   44.8310 C   0  0  0  0  0  0  0  0  0  0  0  0
   59.3220   34.7620   46.0420 C   0  0  0  0  0  0  0  0  0  0  0  0
   59.2273   34.0687   49.3659 H   0  0  0  0  0  0  0  0  0  0  0  0
   60.7997   34.4277   48.5752 H   0  0  0  0  0  0  0  0  0  0  0  0
   59.4924   35.6596   48.5752 H   0  0  0  0  0  0  0  0  0  0  0  0
   58.5393   32.1537   48.1127 H   0  0  0  0  0  0  0  0  0  0  0  0
   57.7109   31.2137   45.9575 H   0  0  0  0  0  0  0  0  0  0  0  0
   56.7152   32.6561   43.3779 H   0  0  0  0  0  0  0  0  0  0  0  0
   58.3629   32.7919   42.6638 H   0  0  0  0  0  0  0  0  0  0  0  0
   58.6830   30.5030   42.9580 H   0  0  0  0  0  0  0  0  0  0  0  0
   58.0027   28.3043   42.3747 H   0  0  0  0  0  0  0  0  0  0  0  0
   58.4649   25.8865   42.7450 H   0  0  0  0  0  0  0  0  0  0  0  0
   58.9077   24.1339   44.4090 H   0  0  0  0  0  0  0  0  0  0  0  0
   58.2233   24.2686   46.0852 H   0  0  0  0  0  0  0  0  0  0  0  0
   57.0202   22.5339   44.9541 H   0  0  0  0  0  0  0  0  0  0  0  0
   55.6539   24.0478   46.3542 H   0  0  0  0  0  0  0  0  0  0  0  0
   55.3840   25.1328   44.9483 H   0  0  0  0  0  0  0  0  0  0  0  0
   54.6942   23.4742   44.9483 H   0  0  0  0  0  0  0  0  0  0  0  0
   55.6238   23.2227   42.8354 H   0  0  0  0  0  0  0  0  0  0  0  0
   56.8706   24.5031   42.6545 H   0  0  0  0  0  0  0  0  0  0  0  0
   57.3534   22.7729   42.6545 H   0  0  0  0  0  0  0  0  0  0  0  0
   57.0148   26.2250   46.8095 H   0  0  0  0  0  0  0  0  0  0  0  0
   56.5566   28.6449   46.4452 H   0  0  0  0  0  0  0  0  0  0  0  0
   58.9638   34.8165   43.9054 H   0  0  0  0  0  0  0  0  0  0  0  0
   59.7851   35.7595   46.0628 H   0  0  0  0  0  0  0  0  0  0  0  0
  1  2  1  0
  2  3  2  0
  3  4  1  0
  4  5  2  0
  5  6  1  0
  6  7  1  0
  7  8  1  0
  8  9  2  0
  8 10  1  0
 10 11  2  0
 11 12  1  0
 12 13  2  0
 13 14  1  0
 14 15  1  0
 15 16  1  0
 15 17  1  0
 13 18  1  0
 18 19  2  0
  5 20  1  0
 20 21  2  0
 21  2  1  0
 19 10  1  0
  1 22  1  0
  1 23  1  0
  1 24  1  0
  3 25  1  0
  4 26  1  0
  6 27  1  0
  6 28  1  0
  7 29  1  0
 11 30  1  0
 12 31  1  0
 14 32  1  0
 14 33  1  0
 15 34  1  0
 16 35  1  0
 16 36  1  0
 16 37  1  0
 17 38  1  0
 17 39  1  0
 17 40  1  0
 18 41  1  0
 19 42  1  0
 20 43  1  0
 21 44  1  0
M  END
>  <UniqueID>  (26) 
24

>  <SMILES>  (26) 
Cc1ccc(CNC(=O)c2ccc(CC(C)C)cc2)cc1

>  <Energy>  (26) 
36.65783293716561

>  <Genealogy>  (26) 
Cc1ccc(CNC(=O)c2ccc(CC(C)C)cc2)cc1 (3D coordinates assigned)
Cc1ccc(CNC(=O)c2ccc(CC(C)C)cc2)cc1 (optimized conformer: 36.65783293716561 kcal/mol)

>  <smiles>  (26) 
Cc1ccc(CNC(=O)c2ccc(CC(C)C)cc2)cc1

>  <score_type>  (26) 
oracle

>  <origin>  (26) 
adg

>  <m_score__min__energy>  (26) 
-8.2200000000000006

>  <m_primary>  (26) 
energy

$$$$
26:0
     RDKit          3D

 33 34  0  0  0  0  0  0  0  0999 V2000
   56.9480   23.5060   46.5770 C   0  0  0  0  0  0  0  0  0  0  0  0
   56.6320   24.9440   46.3390 C   0  0  0  0  0  0  0  0  0  0  0  0
   57.5480   25.9580   46.1550 C   0  0  0  0  0  0  0  0  0  0  0  0
   56.7450   27.0580   45.9590 C   0  0  0  0  0  0  0  0  0  0  0  0
   57.1810   28.2600   45.7430 N   0  0  0  0  0  0  0  0  0  0  0  0
   56.6320   29.2410   44.4230 S   0  0  0  0  0  0  0  0  0  0  0  0
   55.1360   29.3680   44.4690 O   0  0  0  0  0  0  0  0  0  0  0  0
   57.0340   28.6100   43.1190 O   0  0  0  0  0  0  0  0  0  0  0  0
   57.3620   30.8370   44.5580 C   0  0  0  0  0  0  0  0  0  0  0  0
   57.5510   31.6250   43.4170 C   0  0  0  0  0  0  0  0  0  0  0  0
   58.1440   32.8840   43.5260 C   0  0  0  0  0  0  0  0  0  0  0  0
   58.5530   33.3640   44.7730 C   0  0  0  0  0  0  0  0  0  0  0  0
   58.3710   32.5830   45.9310 C   0  0  0  0  0  0  0  0  0  0  0  0
   58.7870   33.0370   47.2330 N   0  0  0  0  0  0  0  0  0  0  0  0
   59.9420   34.3020   47.5140 S   0  0  0  0  0  0  0  0  0  0  0  0
   61.5550   33.7960   46.9530 C   0  0  0  0  0  0  0  0  0  0  0  0
   59.9790   34.6540   48.9730 O   0  0  0  0  0  0  0  0  0  0  0  0
   59.5270   35.5180   46.7350 O   0  0  0  0  0  0  0  0  0  0  0  0
   57.7800   31.3140   45.8080 C   0  0  0  0  0  0  0  0  0  0  0  0
   55.4430   26.7160   46.0190 N   0  0  0  0  0  0  0  0  0  0  0  0
   55.4160   25.4350   46.2470 O   0  0  0  0  0  0  0  0  0  0  0  0
   56.9902   23.3141   47.6593 H   0  0  0  0  0  0  0  0  0  0  0  0
   56.1662   22.8789   46.1236 H   0  0  0  0  0  0  0  0  0  0  0  0
   57.9207   23.2644   46.1236 H   0  0  0  0  0  0  0  0  0  0  0  0
   58.6465   25.9016   46.1629 H   0  0  0  0  0  0  0  0  0  0  0  0
   57.2318   31.2517   42.4328 H   0  0  0  0  0  0  0  0  0  0  0  0
   58.2899   33.5006   42.6268 H   0  0  0  0  0  0  0  0  0  0  0  0
   59.0196   34.3571   44.8507 H   0  0  0  0  0  0  0  0  0  0  0  0
   58.3260   32.6300   48.0780 H   0  0  0  0  0  0  0  0  0  0  0  0
   62.1987   33.5941   47.8218 H   0  0  0  0  0  0  0  0  0  0  0  0
   61.4624   32.8838   46.3454 H   0  0  0  0  0  0  0  0  0  0  0  0
   62.0000   34.5977   46.3454 H   0  0  0  0  0  0  0  0  0  0  0  0
   57.6439   30.6882   46.7024 H   0  0  0  0  0  0  0  0  0  0  0  0
  1  2  1  0
  2  3  2  0
  3  4  1  0
  4  5  2  3
  5  6  1  0
  6  7  2  0
  6  8  2  0
  6  9  1  0
  9 10  2  0
 10 11  1  0
 11 12  2  0
 12 13  1  0
 13 14  1  0
 14 15  1  0
 15 16  1  0
 15 17  2  0
 15 18  2  0
 13 19  2  0
  4 20  1  0
 20 21  1  0
 21  2  1  0
 19  9  1  0
  1 22  1  0
  1 23  1  0
  1 24  1  0
  3 25  1  0
 10 26  1  0
 11 27  1  0
 12 28  1  0
 14 29  1  0
 16 30  1  0
 16 31  1  0
 16 32  1  0
 19 33  1  0
M  CHG  1  20  -1
M  END
>  <UniqueID>  (27) 
25

>  <SMILES>  (27) 
Cc1cc(=NS(=O)(=O)c2cccc(NS(C)(=O)=O)c2)[n-]o1

>  <Energy>  (27) 
65.15264147198663

>  <Genealogy>  (27) 
Cc1cc(=NS(=O)(=O)c2cccc(NS(C)(=O)=O)c2)[n-]o1 (protonated)
Cc1cc(=NS(=O)(=O)c2cccc(NS(C)(=O)=O)c2)[n-]o1 (3D coordinates assigned)
Cc1cc(=NS(=O)(=O)c2cccc(NS(C)(=O)=O)c2)[n-]o1 (optimized conformer: 65.15264147198663 kcal/mol)

>  <smiles>  (27) 
Cc1cc(=NS(=O)(=O)c2cccc(NS(C)(=O)=O)c2)[nH]o1

>  <score_type>  (27) 
oracle

>  <origin>  (27) 
adg

>  <m_score__min__energy>  (27) 
-10.24

>  <m_primary>  (27) 
energy

$$$$
27:0
     RDKit          3D

 54 57  0  0  1  0  0  0  0  0999 V2000
   59.9110   26.8640   47.2090 C   0  0  0  0  0  0  0  0  0  0  0  0
   58.5430   27.1300   46.6390 C   0  0  0  0  0  0  0  0  0  0  0  0
   57.6300   26.0960   46.6030 C   0  0  0  0  0  0  0  0  0  0  0  0
   56.3860   26.3910   46.0710 C   0  0  0  0  0  0  0  0  0  0  0  0
   55.4680   25.4860   45.9960 N   0  0  0  0  0  0  0  0  0  0  0  0
   55.7110   24.1970   45.4640 C   0  0  0  0  0  0  0  0  0  0  0  0
   56.0470   24.0250   44.1210 C   0  0  0  0  0  0  0  0  0  0  0  0
   56.2790   22.7580   43.6220 C   0  0  0  0  0  0  0  0  0  0  0  0
   56.1900   21.6280   44.4230 C   0  0  0  0  0  0  0  0  0  0  0  0
   55.8560   21.7910   45.7650 C   0  0  0  0  0  0  0  0  0  0  0  0
   55.6260   23.0630   46.2460 C   0  0  0  0  0  0  0  0  0  0  0  0
   55.3020   23.1850   47.5590 F   0  0  0  0  0  0  0  0  0  0  0  0
   56.0910   27.6190   45.6150 N   0  0  0  0  0  0  0  0  0  0  0  0
   57.0270   28.5720   45.6830 C   0  0  0  0  0  0  0  0  0  0  0  0
   56.7590   29.7360   45.2550 N   0  0  0  0  0  0  0  0  0  0  0  0
   57.6290   30.8750   45.2360 C   0  0  0  0  0  0  0  0  0  0  0  0
   57.3750   31.9210   44.2210 C   0  0  0  0  0  0  0  0  0  0  0  0
   57.7380   33.2570   44.8830 C   0  0  0  0  0  0  0  0  0  0  0  0
   59.0890   33.1990   45.3340 N   0  0  0  0  0  0  0  0  0  0  0  0
   59.4150   34.4420   46.0100 C   0  0  0  0  0  0  0  0  0  0  0  0
   60.5280   34.2350   46.9400 C   0  0  0  0  0  0  0  0  0  0  0  0
   61.7720   33.9440   46.4030 C   0  0  0  0  0  0  0  0  0  0  0  0
   62.8760   33.7350   47.2350 C   0  0  0  0  0  0  0  0  0  0  0  0
   62.7130   33.8230   48.6130 C   0  0  0  0  0  0  0  0  0  0  0  0
   61.5010   34.1050   49.0950 N   0  0  0  0  0  0  0  0  0  0  0  0
   60.4300   34.3090   48.3140 C   0  0  0  0  0  0  0  0  0  0  0  0
   59.4230   32.1420   46.2290 C   0  0  0  0  0  0  0  0  0  0  0  0
   58.1460   31.3490   46.5610 C   0  0  0  0  0  0  0  0  0  0  0  0
   58.2640   28.3610   46.1890 N   0  0  0  0  0  0  0  0  0  0  0  0
   59.8587   26.8742   48.3077 H   0  0  0  0  0  0  0  0  0  0  0  0
   60.2654   25.8801   46.8679 H   0  0  0  0  0  0  0  0  0  0  0  0
   60.6083   27.6434   46.8679 H   0  0  0  0  0  0  0  0  0  0  0  0
   57.8771   25.0914   46.9768 H   0  0  0  0  0  0  0  0  0  0  0  0
   56.1273   24.8995   43.4585 H   0  0  0  0  0  0  0  0  0  0  0  0
   56.5416   22.6414   42.5602 H   0  0  0  0  0  0  0  0  0  0  0  0
   56.3789   20.6272   44.0075 H   0  0  0  0  0  0  0  0  0  0  0  0
   55.7768   20.9191   46.4309 H   0  0  0  0  0  0  0  0  0  0  0  0
   55.1520   27.8660   45.2060 H   0  0  0  0  0  0  0  0  0  0  0  0
   58.5229   30.4040   44.8012 H   0  0  0  0  0  0  0  0  0  0  0  0
   58.0030   31.7520   43.3338 H   0  0  0  0  0  0  0  0  0  0  0  0
   56.3266   31.9104   43.8881 H   0  0  0  0  0  0  0  0  0  0  0  0
   57.6275   34.0724   44.1530 H   0  0  0  0  0  0  0  0  0  0  0  0
   57.0689   33.4432   45.7360 H   0  0  0  0  0  0  0  0  0  0  0  0
   59.7010   35.1975   45.2634 H   0  0  0  0  0  0  0  0  0  0  0  0
   58.5352   34.7856   46.5738 H   0  0  0  0  0  0  0  0  0  0  0  0
   61.8920   33.8768   45.3116 H   0  0  0  0  0  0  0  0  0  0  0  0
   63.8616   33.5038   46.8046 H   0  0  0  0  0  0  0  0  0  0  0  0
   63.5644   33.6637   49.2910 H   0  0  0  0  0  0  0  0  0  0  0  0
   59.4586   34.5388   48.7761 H   0  0  0  0  0  0  0  0  0  0  0  0
   60.1590   31.4757   45.7555 H   0  0  0  0  0  0  0  0  0  0  0  0
   59.8551   32.5568   47.1516 H   0  0  0  0  0  0  0  0  0  0  0  0
   58.3799   30.4945   47.2130 H   0  0  0  0  0  0  0  0  0  0  0  0
   57.4069   31.9615   47.0981 H   0  0  0  0  0  0  0  0  0  0  0  0
   58.9360   29.1260   46.2150 H   0  0  0  0  0  0  0  0  0  0  0  0
  1  2  1  0
  2  3  2  0
  3  4  1  0
  4  5  2  0
  5  6  1  0
  6  7  2  0
  7  8  1  0
  8  9  2  0
  9 10  1  0
 10 11  2  0
 11 12  1  0
  4 13  1  0
 13 14  1  0
 14 15  2  0
 15 16  1  0
 16 17  1  0
 17 18  1  0
 18 19  1  0
 19 20  1  0
 20 21  1  0
 21 22  2  0
 22 23  1  0
 23 24  2  0
 24 25  1  0
 25 26  2  0
 19 27  1  0
 27 28  1  0
 14 29  1  0
 29  2  1  0
 11  6  1  0
 28 16  1  0
 26 21  1  0
  1 30  1  0
  1 31  1  0
  1 32  1  0
  3 33  1  0
  7 34  1  0
  8 35  1  0
  9 36  1  0
 10 37  1  0
 13 38  1  0
 16 39  1  0
 17 40  1  0
 17 41  1  0
 18 42  1  0
 18 43  1  0
 20 44  1  0
 20 45  1  0
 22 46  1  0
 23 47  1  0
 24 48  1  0
 26 49  1  0
 27 50  1  0
 27 51  1  0
 28 52  1  0
 28 53  1  0
 29 54  1  0
M  END
>  <smiles>  (28) 
Cc1cc(=Nc2ccccc2F)[nH]c(=NC2CCN(Cc3cccnc3)CC2)[nH]1

>  <score_type>  (28) 
oracle

>  <origin>  (28) 
adg

>  <m_score__min__energy>  (28) 
-9.2599999999999998

>  <m_primary>  (28) 
energy

$$$$
28:0
     RDKit          3D

 48 50  0  0  0  0  0  0  0  0999 V2000
   60.7590   25.7300   46.3580 C   0  0  0  0  0  0  0  0  0  0  0  0
   59.5400   25.6330   45.6300 O   0  0  0  0  0  0  0  0  0  0  0  0
   58.7040   26.7180   45.3210 C   0  0  0  0  0  0  0  0  0  0  0  0
   59.0520   27.6610   44.3360 C   0  0  0  0  0  0  0  0  0  0  0  0
   58.1750   28.6940   44.0000 C   0  0  0  0  0  0  0  0  0  0  0  0
   56.9250   28.8050   44.6320 C   0  0  0  0  0  0  0  0  0  0  0  0
   55.9870   29.8920   44.2660 C   0  0  0  0  0  0  0  0  0  0  0  0
   54.8690   29.6080   43.7560 O   0  0  0  0  0  0  0  0  0  0  0  0
   56.3920   31.2650   44.4100 N   0  0  0  0  0  0  0  0  0  0  0  0
   57.3080   31.7760   45.1850 C   0  0  0  0  0  0  0  0  0  0  0  0
   57.7650   33.1080   45.0670 C   0  0  0  0  0  0  0  0  0  0  0  0
   58.7400   33.5890   45.9530 C   0  0  0  0  0  0  0  0  0  0  0  0
   59.2610   34.9940   45.8170 C   0  0  0  0  0  0  0  0  0  0  0  0
   59.5910   35.5090   47.0780 O   0  0  0  0  0  0  0  0  0  0  0  0
   59.2590   32.7360   46.9340 C   0  0  0  0  0  0  0  0  0  0  0  0
   58.7730   31.4340   47.0360 C   0  0  0  0  0  0  0  0  0  0  0  0
   57.8180   30.9930   46.1750 N   0  0  0  0  0  0  0  0  0  0  0  0
   56.5830   27.8690   45.6240 C   0  0  0  0  0  0  0  0  0  0  0  0
   57.4720   26.8520   45.9920 C   0  0  0  0  0  0  0  0  0  0  0  0
   57.0630   25.9280   47.0110 N   0  0  0  0  0  0  0  0  0  0  0  0
   57.1280   24.5000   46.9070 C   0  0  0  0  0  0  0  0  0  0  0  0
   57.3700   23.8060   47.9310 O   0  0  0  0  0  0  0  0  0  0  0  0
   56.9080   23.8510   45.5900 C   0  0  0  0  0  0  0  0  0  0  0  0
   58.0140   23.2400   44.9720 C   0  0  0  0  0  0  0  0  0  0  0  0
   57.8760   22.5650   43.7600 C   0  0  0  0  0  0  0  0  0  0  0  0
   56.6300   22.4860   43.1450 C   0  0  0  0  0  0  0  0  0  0  0  0
   55.5210   23.0980   43.7290 C   0  0  0  0  0  0  0  0  0  0  0  0
   55.6390   23.8100   44.9410 C   0  0  0  0  0  0  0  0  0  0  0  0
   54.4110   24.4960   45.5120 C   0  0  0  0  0  0  0  0  0  0  0  0
   54.1200   23.9670   46.7550 F   0  0  0  0  0  0  0  0  0  0  0  0
   53.3050   24.3220   44.6970 F   0  0  0  0  0  0  0  0  0  0  0  0
   54.6310   25.8570   45.6270 F   0  0  0  0  0  0  0  0  0  0  0  0
   60.5442   25.7129   47.4367 H   0  0  0  0  0  0  0  0  0  0  0  0
   61.4087   24.8807   46.1000 H   0  0  0  0  0  0  0  0  0  0  0  0
   61.2662   26.6713   46.1000 H   0  0  0  0  0  0  0  0  0  0  0  0
   60.0237   27.5835   43.8263 H   0  0  0  0  0  0  0  0  0  0  0  0
   58.4652   29.4277   43.2335 H   0  0  0  0  0  0  0  0  0  0  0  0
   57.3579   33.7645   44.2839 H   0  0  0  0  0  0  0  0  0  0  0  0
   60.1576   34.9896   45.1797 H   0  0  0  0  0  0  0  0  0  0  0  0
   58.4824   35.6245   45.3629 H   0  0  0  0  0  0  0  0  0  0  0  0
   59.1830   36.4120   47.1310 H   0  0  0  0  0  0  0  0  0  0  0  0
   60.0438   33.0904   47.6185 H   0  0  0  0  0  0  0  0  0  0  0  0
   59.1628   30.7619   47.8146 H   0  0  0  0  0  0  0  0  0  0  0  0
   55.6026   27.9368   46.1182 H   0  0  0  0  0  0  0  0  0  0  0  0
   59.0022   23.2956   45.4520 H   0  0  0  0  0  0  0  0  0  0  0  0
   58.7521   22.0947   43.2897 H   0  0  0  0  0  0  0  0  0  0  0  0
   56.5196   21.9399   42.1966 H   0  0  0  0  0  0  0  0  0  0  0  0
   54.5398   23.0243   43.2372 H   0  0  0  0  0  0  0  0  0  0  0  0
  1  2  1  0
  2  3  1  0
  3  4  2  0
  4  5  1  0
  5  6  2  0
  6  7  1  0
  7  8  2  0
  7  9  1  0
  9 10  2  3
 10 11  1  0
 11 12  2  0
 12 13  1  0
 13 14  1  0
 12 15  1  0
 15 16  2  0
 16 17  1  0
  6 18  1  0
 18 19  2  0
 19 20  1  0
 20 21  1  0
 21 22  2  0
 21 23  1  0
 23 24  2  0
 24 25  1  0
 25 26  2  0
 26 27  1  0
 27 28  2  0
 28 29  1  0
 29 30  1  0
 29 31  1  0
 29 32  1  0
 19  3  1  0
 28 23  1  0
 17 10  1  0
  1 33  1  0
  1 34  1  0
  1 35  1  0
  4 36  1  0
  5 37  1  0
 11 38  1  0
 13 39  1  0
 13 40  1  0
 14 41  1  0
 15 42  1  0
 16 43  1  0
 18 44  1  0
 24 45  1  0
 25 46  1  0
 26 47  1  0
 27 48  1  0
M  CHG  2  17  -1  20  -1
M  END
>  <UniqueID>  (29) 
26

>  <SMILES>  (29) 
COc1ccc(C(=O)N=c2cc(CO)cc[n-]2)cc1[N-]C(=O)c1ccccc1C(F)(F)F

>  <Energy>  (29) 
71.65189974599876

>  <Genealogy>  (29) 
COc1ccc(C(=O)N=c2cc(CO)cc[n-]2)cc1[N-]C(=O)c1ccccc1C(F)(F)F (protonated)
COc1ccc(C(=O)N=c2cc(CO)cc[n-]2)cc1[N-]C(=O)c1ccccc1C(F)(F)F (3D coordinates assigned)
COc1ccc(C(=O)N=c2cc(CO)cc[n-]2)cc1[N-]C(=O)c1ccccc1C(F)(F)F (optimized conformer: 71.65189974599876 kcal/mol)

>  <smiles>  (29) 
COc1ccc(C(=O)N=c2cc(CO)cc[nH]2)cc1NC(=O)c1ccccc1C(F)(F)F

>  <score_type>  (29) 
oracle

>  <origin>  (29) 
adg

>  <m_score__min__energy>  (29) 
-11.710000000000001

>  <m_primary>  (29) 
energy

$$$$
29:0
     RDKit          3D

 42 44  0  0  0  0  0  0  0  0999 V2000
   61.1455   30.7411   49.4517 H   0  0  0  0  0  0  0  0  0  0  0  0
   60.8610   30.0760   48.6230 C   0  0  0  0  0  0  0  0  0  0  0  0
   61.1220   30.4530   47.3030 C   0  0  0  0  0  0  0  0  0  0  0  0
   61.6112   31.4157   47.0936 H   0  0  0  0  0  0  0  0  0  0  0  0
   60.7630   29.6100   46.2490 C   0  0  0  0  0  0  0  0  0  0  0  0
   60.9737   29.9112   45.2122 H   0  0  0  0  0  0  0  0  0  0  0  0
   60.1330   28.3770   46.5050 C   0  0  0  0  0  0  0  0  0  0  0  0
   59.7990   27.4570   45.3590 C   0  0  0  0  0  0  0  0  0  0  0  0
   60.3910   26.5343   45.4490 H   0  0  0  0  0  0  0  0  0  0  0  0
   60.0351   27.9629   44.4112 H   0  0  0  0  0  0  0  0  0  0  0  0
   58.3370   27.1130   45.3810 C   0  0  0  0  0  0  0  0  0  0  0  0
   57.7470   25.5590   45.6790 S   0  0  0  0  0  0  0  0  0  0  0  0
   56.1550   26.0720   45.7950 C   0  0  0  0  0  0  0  0  0  0  0  0
   55.1600   25.2710   46.0380 N   0  0  0  0  0  0  0  0  0  0  0  0
   55.0800   23.8660   45.6380 C   0  0  0  0  0  0  0  0  0  0  0  0
   54.1202   23.4505   45.9786 H   0  0  0  0  0  0  0  0  0  0  0  0
   55.9220   23.3260   46.0957 H   0  0  0  0  0  0  0  0  0  0  0  0
   55.1780   23.7140   44.1130 C   0  0  0  0  0  0  0  0  0  0  0  0
   55.1529   24.7134   43.6541 H   0  0  0  0  0  0  0  0  0  0  0  0
   54.3288   23.1008   43.7772 H   0  0  0  0  0  0  0  0  0  0  0  0
   56.4660   23.0090   43.6900 C   0  0  0  0  0  0  0  0  0  0  0  0
   57.0269   22.7020   44.5851 H   0  0  0  0  0  0  0  0  0  0  0  0
   56.2179   22.1209   43.0902 H   0  0  0  0  0  0  0  0  0  0  0  0
   57.0804   23.6966   43.0902 H   0  0  0  0  0  0  0  0  0  0  0  0
   56.0460   27.4120   45.6240 N   0  0  0  0  0  0  0  0  0  0  0  0
   55.1500   27.9470   45.6520 H   0  0  0  0  0  0  0  0  0  0  0  0
   57.2510   28.0030   45.3940 C   0  0  0  0  0  0  0  0  0  0  0  0
   57.3620   29.4600   45.1890 C   0  0  0  0  0  0  0  0  0  0  0  0
   57.1180   30.0090   43.9200 C   0  0  0  0  0  0  0  0  0  0  0  0
   56.8300   29.3533   43.0851 H   0  0  0  0  0  0  0  0  0  0  0  0
   57.2400   31.3880   43.7140 C   0  0  0  0  0  0  0  0  0  0  0  0
   57.0319   31.8156   42.7221 H   0  0  0  0  0  0  0  0  0  0  0  0
   57.6260   32.2230   44.7670 C   0  0  0  0  0  0  0  0  0  0  0  0
   57.7910   33.9500   44.5050 Cl  0  0  0  0  0  0  0  0  0  0  0  0
   57.8930   31.6790   46.0280 C   0  0  0  0  0  0  0  0  0  0  0  0
   58.2015   32.3351   46.8553 H   0  0  0  0  0  0  0  0  0  0  0  0
   57.7680   30.3010   46.2380 C   0  0  0  0  0  0  0  0  0  0  0  0
   57.9885   29.8752   47.2280 H   0  0  0  0  0  0  0  0  0  0  0  0
   59.8740   28.0040   47.8390 C   0  0  0  0  0  0  0  0  0  0  0  0
   59.2620   26.8260   48.1260 F   0  0  0  0  0  0  0  0  0  0  0  0
   60.2380   28.8530   48.8900 C   0  0  0  0  0  0  0  0  0  0  0  0
   60.0334   28.5574   49.9296 H   0  0  0  0  0  0  0  0  0  0  0  0
  1  2  1  0
  2  3  2  0
  3  4  1  0
  3  5  1  0
  5  6  1  0
  5  7  2  0
  7  8  1  0
  8  9  1  0
  8 10  1  0
  8 11  1  0
 11 12  1  0
 12 13  1  0
 13 14  2  0
 14 15  1  0
 15 16  1  0
 15 17  1  0
 15 18  1  0
 18 19  1  0
 18 20  1  0
 18 21  1  0
 21 22  1  0
 21 23  1  0
 21 24  1  0
 13 25  1  0
 25 26  1  0
 25 27  1  0
 27 28  1  0
 28 29  2  0
 29 30  1  0
 29 31  1  0
 31 32  1  0
 31 33  2  0
 33 34  1  0
 33 35  1  0
 35 36  1  0
 35 37  2  0
 37 38  1  0
  7 39  1  0
 39 40  1  0
 39 41  2  0
 41 42  1  0
 41  2  1  0
 27 11  2  0
 37 28  1  0
M  END
>  <UniqueID>  (30) 
27

>  <SMILES>  (30) 
CCC/N=c1\[nH]c(-c2ccc(Cl)cc2)c(Cc2ccccc2F)s1

>  <Energy>  (30) 
73.31465676421087

>  <Genealogy>  (30) 
CCC/N=c1\[nH]c(-c2ccc(Cl)cc2)c(Cc2ccccc2F)s1 (cis-trans isomerization)
CCC/N=c1\[nH]c(-c2ccc(Cl)cc2)c(Cc2ccccc2F)s1 (3D coordinates assigned)
CCC/N=c1\[nH]c(-c2ccc(Cl)cc2)c(Cc2ccccc2F)s1 (optimized conformer: 73.31465676421087 kcal/mol)

>  <smiles>  (30) 
CCCN=c1[nH]c(-c2ccc(Cl)cc2)c(Cc2ccccc2F)s1

>  <score_type>  (30) 
oracle

>  <origin>  (30) 
adg

>  <m_score__min__energy>  (30) 
-7.8499999999999996

>  <m_primary>  (30) 
energy

$$$$
30:0
     RDKit          3D

 66 70  0  0  0  0  0  0  0  0999 V2000
   61.7320   30.0720   51.9480 C   0  0  0  0  0  0  0  0  0  0  0  0
   62.2580   30.3710   50.6590 O   0  0  0  0  0  0  0  0  0  0  0  0
   62.5160   31.6550   50.1400 C   0  0  0  0  0  0  0  0  0  0  0  0
   63.0970   32.7020   50.9080 C   0  0  0  0  0  0  0  0  0  0  0  0
   63.5120   32.4630   52.2280 O   0  0  0  0  0  0  0  0  0  0  0  0
   64.1760   33.4100   53.0710 C   0  0  0  0  0  0  0  0  0  0  0  0
   65.5190   33.8280   52.4640 C   0  0  0  0  0  0  0  0  0  0  0  0
   66.3530   32.6360   52.1980 N   0  0  0  0  0  0  0  0  0  0  0  0
   66.3740   32.2790   50.7640 C   0  0  0  0  0  0  0  0  0  0  0  0
   67.1000   30.9470   50.5640 C   0  0  0  0  0  0  0  0  0  0  0  0
   66.3990   29.8300   51.2440 N   0  0  0  0  0  0  0  0  0  0  0  0
   67.3580   28.7960   51.6650 C   0  0  0  0  0  0  0  0  0  0  0  0
   65.5340   30.2590   52.3710 C   0  0  0  0  0  0  0  0  0  0  0  0
   66.0910   31.4890   53.1050 C   0  0  0  0  0  0  0  0  0  0  0  0
   63.2690   33.9710   50.3220 C   0  0  0  0  0  0  0  0  0  0  0  0
   62.8570   34.2130   49.0150 C   0  0  0  0  0  0  0  0  0  0  0  0
   62.2910   33.1920   48.2610 C   0  0  0  0  0  0  0  0  0  0  0  0
   62.1390   31.9070   48.8010 C   0  0  0  0  0  0  0  0  0  0  0  0
   61.5230   30.8590   47.9600 C   0  0  0  0  0  0  0  0  0  0  0  0
   61.7230   30.8800   46.7150 O   0  0  0  0  0  0  0  0  0  0  0  0
   60.7080   29.8290   48.5490 N   0  0  0  0  0  0  0  0  0  0  0  0
   60.1610   28.7260   47.8090 C   0  0  0  0  0  0  0  0  0  0  0  0
   59.3160   28.9790   46.7210 C   0  0  0  0  0  0  0  0  0  0  0  0
   58.7680   27.9230   45.9870 C   0  0  0  0  0  0  0  0  0  0  0  0
   59.0390   26.5900   46.3410 C   0  0  0  0  0  0  0  0  0  0  0  0
   58.4810   25.4600   45.5630 C   0  0  0  0  0  0  0  0  0  0  0  0
   58.7850   24.1620   45.8160 N   0  0  0  0  0  0  0  0  0  0  0  0
   58.1550   23.3240   44.9540 C   0  0  0  0  0  0  0  0  0  0  0  0
   58.2830   21.9340   44.9660 C   0  0  0  0  0  0  0  0  0  0  0  0
   57.5830   21.1820   44.0070 C   0  0  0  0  0  0  0  0  0  0  0  0
   56.7680   21.8240   43.0540 C   0  0  0  0  0  0  0  0  0  0  0  0
   56.6450   23.2230   43.0520 C   0  0  0  0  0  0  0  0  0  0  0  0
   57.3500   23.9440   44.0130 C   0  0  0  0  0  0  0  0  0  0  0  0
   57.4110   25.6020   44.2490 S   0  0  0  0  0  0  0  0  0  0  0  0
   59.8620   26.3390   47.4520 C   0  0  0  0  0  0  0  0  0  0  0  0
   60.4140   27.3960   48.1830 C   0  0  0  0  0  0  0  0  0  0  0  0
   62.4127   30.4589   52.7206 H   0  0  0  0  0  0  0  0  0  0  0  0
   60.7446   30.5438   52.0596 H   0  0  0  0  0  0  0  0  0  0  0  0
   61.6323   28.9822   52.0596 H   0  0  0  0  0  0  0  0  0  0  0  0
   63.5393   34.2996   53.1860 H   0  0  0  0  0  0  0  0  0  0  0  0
   64.3606   32.9433   54.0498 H   0  0  0  0  0  0  0  0  0  0  0  0
   65.3400   34.3640   51.5203 H   0  0  0  0  0  0  0  0  0  0  0  0
   66.0453   34.4828   53.1741 H   0  0  0  0  0  0  0  0  0  0  0  0
   65.3412   32.1891   50.3963 H   0  0  0  0  0  0  0  0  0  0  0  0
   66.9033   33.0648   50.2052 H   0  0  0  0  0  0  0  0  0  0  0  0
   67.1552   30.7297   49.4871 H   0  0  0  0  0  0  0  0  0  0  0  0
   68.1054   31.0365   51.0013 H   0  0  0  0  0  0  0  0  0  0  0  0
   67.3952   28.7559   52.7636 H   0  0  0  0  0  0  0  0  0  0  0  0
   67.0393   27.8189   51.2730 H   0  0  0  0  0  0  0  0  0  0  0  0
   68.3563   29.0404   51.2730 H   0  0  0  0  0  0  0  0  0  0  0  0
   64.5370   30.5050   51.9767 H   0  0  0  0  0  0  0  0  0  0  0  0
   65.4901   29.4303   53.0930 H   0  0  0  0  0  0  0  0  0  0  0  0
   65.3616   31.8033   53.8661 H   0  0  0  0  0  0  0  0  0  0  0  0
   67.0522   31.1976   53.5535 H   0  0  0  0  0  0  0  0  0  0  0  0
   63.7343   34.7801   50.9041 H   0  0  0  0  0  0  0  0  0  0  0  0
   62.9796   35.2148   48.5776 H   0  0  0  0  0  0  0  0  0  0  0  0
   61.9594   33.3937   47.2317 H   0  0  0  0  0  0  0  0  0  0  0  0
   60.4620   29.8990   49.5620 H   0  0  0  0  0  0  0  0  0  0  0  0
   59.0817   30.0169   46.4419 H   0  0  0  0  0  0  0  0  0  0  0  0
   58.1191   28.1371   45.1250 H   0  0  0  0  0  0  0  0  0  0  0  0
   58.9199   21.4365   45.7122 H   0  0  0  0  0  0  0  0  0  0  0  0
   57.6720   20.0856   44.0005 H   0  0  0  0  0  0  0  0  0  0  0  0
   56.2249   21.2262   42.3072 H   0  0  0  0  0  0  0  0  0  0  0  0
   56.0105   23.7344   42.3132 H   0  0  0  0  0  0  0  0  0  0  0  0
   60.0741   25.3015   47.7496 H   0  0  0  0  0  0  0  0  0  0  0  0
   61.0497   27.1845   49.0555 H   0  0  0  0  0  0  0  0  0  0  0  0
  1  2  1  0
  2  3  1  0
  3  4  2  0
  4  5  1  0
  5  6  1  0
  6  7  1  0
  7  8  1  0
  8  9  1  0
  9 10  1  0
 10 11  1  0
 11 12  1  0
 11 13  1  0
 13 14  1  0
  4 15  1  0
 15 16  2  0
 16 17  1  0
 17 18  2  0
 18 19  1  0
 19 20  2  0
 19 21  1  0
 21 22  1  0
 22 23  2  0
 23 24  1  0
 24 25  2  0
 25 26  1  0
 26 27  2  0
 27 28  1  0
 28 29  2  0
 29 30  1  0
 30 31  2  0
 31 32  1  0
 32 33  2  0
 33 34  1  0
 25 35  1  0
 35 36  2  0
 18  3  1  0
 36 22  1  0
 14  8  1  0
 34 26  1  0
 33 28  1  0
  1 37  1  0
  1 38  1  0
  1 39  1  0
  6 40  1  0
  6 41  1  0
  7 42  1  0
  7 43  1  0
  9 44  1  0
  9 45  1  0
 10 46  1  0
 10 47  1  0
 12 48  1  0
 12 49  1  0
 12 50  1  0
 13 51  1  0
 13 52  1  0
 14 53  1  0
 14 54  1  0
 15 55  1  0
 16 56  1  0
 17 57  1  0
 21 58  1  0
 23 59  1  0
 24 60  1  0
 29 61  1  0
 30 62  1  0
 31 63  1  0
 32 64  1  0
 35 65  1  0
 36 66  1  0
M  END
>  <UniqueID>  (31) 
28

>  <SMILES>  (31) 
COc1c(OCCN2CCN(C)CC2)cccc1C(=O)Nc1ccc(-c2nc3ccccc3s2)cc1

>  <Energy>  (31) 
131.60167117985404

>  <Genealogy>  (31) 
COc1c(OCCN2CCN(C)CC2)cccc1C(=O)Nc1ccc(-c2nc3ccccc3s2)cc1 (3D coordinates assigned)
COc1c(OCCN2CCN(C)CC2)cccc1C(=O)Nc1ccc(-c2nc3ccccc3s2)cc1 (nonaromatic ring conformer: 131.60167117985404 kcal/mol)

>  <smiles>  (31) 
COc1c(OCCN2CCN(C)CC2)cccc1C(=O)Nc1ccc(-c2nc3ccccc3s2)cc1

>  <score_type>  (31) 
oracle

>  <origin>  (31) 
adg

>  <m_score__min__energy>  (31) 
-8.3200000000000003

>  <m_primary>  (31) 
energy

$$$$
31:0
     RDKit          3D

 61 62  0  0  0  0  0  0  0  0999 V2000
   64.4520   30.9790   50.8690 C   0  0  0  0  0  0  0  0  0  0  0  0
   64.4430   32.0290   49.7450 C   0  0  0  0  0  0  0  0  0  0  0  0
   65.5820   33.0260   50.0040 C   0  0  0  0  0  0  0  0  0  0  0  0
   63.0780   32.7780   49.6530 C   0  0  0  0  0  0  0  0  0  0  0  0
   62.6240   33.2890   48.2360 C   0  0  2  0  0  0  0  0  0  0  0  0
   63.7340   34.1320   47.5600 C   0  0  0  0  0  0  0  0  0  0  0  0
   61.3690   34.2170   48.3400 C   0  0  0  0  0  0  0  0  0  0  0  0
   60.1920   33.7930   47.4890 C   0  0  0  0  0  0  0  0  0  0  0  0
   59.1400   33.0520   48.0470 C   0  0  0  0  0  0  0  0  0  0  0  0
   58.0470   32.6720   47.2640 C   0  0  0  0  0  0  0  0  0  0  0  0
   57.9920   33.0080   45.9020 C   0  0  0  0  0  0  0  0  0  0  0  0
   56.8500   32.5950   45.1290 N   0  0  0  0  0  0  0  0  0  0  0  0
   56.6230   30.9980   44.4850 S   0  0  0  0  0  0  0  0  0  0  0  0
   57.2800   30.9060   42.8330 C   0  0  0  0  0  0  0  0  0  0  0  0
   57.3590   30.0150   45.3530 O   0  0  0  0  0  0  0  0  0  0  0  0
   55.1640   30.6390   44.4900 O   0  0  0  0  0  0  0  0  0  0  0  0
   59.0660   33.7170   45.3340 C   0  0  0  0  0  0  0  0  0  0  0  0
   60.1550   34.1040   46.1220 C   0  0  0  0  0  0  0  0  0  0  0  0
   62.2290   32.1270   47.3890 N   0  0  0  0  0  0  0  0  0  0  0  0
   61.6170   30.9320   48.0070 C   0  0  0  0  0  0  0  0  0  0  0  0
   60.7000   30.1690   47.0850 C   0  0  0  0  0  0  0  0  0  0  0  0
   60.1720   30.7820   46.1160 O   0  0  0  0  0  0  0  0  0  0  0  0
   60.3640   28.7840   47.3130 N   0  0  0  0  0  0  0  0  0  0  0  0
   59.9250   28.2440   48.5900 C   0  0  0  0  0  0  0  0  0  0  0  0
   59.9340   26.7290   48.4250 C   0  0  0  0  0  0  0  0  0  0  0  0
   59.9500   26.4720   46.9220 C   0  0  0  0  0  0  0  0  0  0  0  0
   60.4930   27.7540   46.2890 C   0  0  1  0  0  0  0  0  0  0  0  0
   59.7230   28.1120   45.0820 C   0  0  0  0  0  0  0  0  0  0  0  0
   59.1190   28.3940   44.1350 N   0  0  0  0  0  0  0  0  0  0  0  0
   64.4477   31.4865   51.8449 H   0  0  0  0  0  0  0  0  0  0  0  0
   63.5593   30.3421   50.7830 H   0  0  0  0  0  0  0  0  0  0  0  0
   65.3555   30.3575   50.7830 H   0  0  0  0  0  0  0  0  0  0  0  0
   64.5892   31.5172   48.7823 H   0  0  0  0  0  0  0  0  0  0  0  0
   65.7223   33.1488   51.0881 H   0  0  0  0  0  0  0  0  0  0  0  0
   66.5113   32.6458   49.5547 H   0  0  0  0  0  0  0  0  0  0  0  0
   65.3282   33.9975   49.5547 H   0  0  0  0  0  0  0  0  0  0  0  0
   62.3004   32.0923   50.0207 H   0  0  0  0  0  0  0  0  0  0  0  0
   63.2192   33.6920   50.2485 H   0  0  0  0  0  0  0  0  0  0  0  0
   64.3571   34.6052   48.3331 H   0  0  0  0  0  0  0  0  0  0  0  0
   64.3597   33.4794   46.9334 H   0  0  0  0  0  0  0  0  0  0  0  0
   63.2733   34.9099   46.9334 H   0  0  0  0  0  0  0  0  0  0  0  0
   61.0428   34.2344   49.3904 H   0  0  0  0  0  0  0  0  0  0  0  0
   61.6819   35.2028   47.9654 H   0  0  0  0  0  0  0  0  0  0  0  0
   59.1757   32.7679   49.1091 H   0  0  0  0  0  0  0  0  0  0  0  0
   57.2219   32.1043   47.7189 H   0  0  0  0  0  0  0  0  0  0  0  0
   56.1280   33.3100   44.8770 H   0  0  0  0  0  0  0  0  0  0  0  0
   58.3684   30.7536   42.8792 H   0  0  0  0  0  0  0  0  0  0  0  0
   56.8142   30.0643   42.2995 H   0  0  0  0  0  0  0  0  0  0  0  0
   57.0633   31.8432   42.2995 H   0  0  0  0  0  0  0  0  0  0  0  0
   59.0494   33.9687   44.2633 H   0  0  0  0  0  0  0  0  0  0  0  0
   60.9893   34.6569   45.6657 H   0  0  0  0  0  0  0  0  0  0  0  0
   61.6480   32.4400   46.5800 H   0  0  0  0  0  0  0  0  0  0  0  0
   62.4237   30.2572   48.3294 H   0  0  0  0  0  0  0  0  0  0  0  0
   61.0019   31.2867   48.8472 H   0  0  0  0  0  0  0  0  0  0  0  0
   60.6153   28.5462   49.3914 H   0  0  0  0  0  0  0  0  0  0  0  0
   58.9269   28.6155   48.8651 H   0  0  0  0  0  0  0  0  0  0  0  0
   60.8297   26.2982   48.8963 H   0  0  0  0  0  0  0  0  0  0  0  0
   59.0592   26.2655   48.9045 H   0  0  0  0  0  0  0  0  0  0  0  0
   60.6047   25.6203   46.6854 H   0  0  0  0  0  0  0  0  0  0  0  0
   58.9480   26.2241   46.5417 H   0  0  0  0  0  0  0  0  0  0  0  0
   61.5377   27.6342   45.9662 H   0  0  0  0  0  0  0  0  0  0  0  0
  1  2  1  0
  2  3  1  0
  2  4  1  0
  4  5  1  0
  5  6  1  0
  5  7  1  0
  7  8  1  0
  8  9  2  0
  9 10  1  0
 10 11  2  0
 11 12  1  0
 12 13  1  0
 13 14  1  0
 13 15  2  0
 13 16  2  0
 11 17  1  0
 17 18  2  0
  5 19  1  6
 19 20  1  0
 20 21  1  0
 21 22  2  0
 21 23  1  0
 23 24  1  0
 24 25  1  0
 25 26  1  0
 26 27  1  0
 27 28  1  0
 28 29  3  0
 18  8  1  0
 27 23  1  0
  1 30  1  0
  1 31  1  0
  1 32  1  0
  2 33  1  0
  3 34  1  0
  3 35  1  0
  3 36  1  0
  4 37  1  0
  4 38  1  0
  6 39  1  0
  6 40  1  0
  6 41  1  0
  7 42  1  0
  7 43  1  0
  9 44  1  0
 10 45  1  0
 12 46  1  0
 14 47  1  0
 14 48  1  0
 14 49  1  0
 17 50  1  0
 18 51  1  0
 19 52  1  0
 20 53  1  0
 20 54  1  0
 24 55  1  0
 24 56  1  0
 25 57  1  0
 25 58  1  0
 26 59  1  0
 26 60  1  0
 27 61  1  6
M  END
>  <UniqueID>  (32) 
29

>  <SMILES>  (32) 
CC(C)C[C@](C)(Cc1ccc(NS(C)(=O)=O)cc1)NCC(=O)N1CCC[C@H]1C#N

>  <Energy>  (32) 
64.70404755383915

>  <Genealogy>  (32) 
CC(C)C[C@](C)(Cc1ccc(NS(C)(=O)=O)cc1)NCC(=O)N1CCC[C@H]1C#N (chirality)
CC(C)C[C@](C)(Cc1ccc(NS(C)(=O)=O)cc1)NCC(=O)N1CCC[C@H]1C#N (3D coordinates assigned)
CC(C)C[C@](C)(Cc1ccc(NS(C)(=O)=O)cc1)NCC(=O)N1CCC[C@H]1C#N (nonaromatic ring conformer: 64.70404755383915 kcal/mol)

>  <smiles>  (32) 
CC(C)CC(C)(Cc1ccc(NS(C)(=O)=O)cc1)NCC(=O)N1CCCC1C#N

>  <score_type>  (32) 
oracle

>  <origin>  (32) 
adg

>  <m_score__min__energy>  (32) 
-8.3499999999999996

>  <m_primary>  (32) 
energy

$$$$
32:0
     RDKit          3D

 43 46  0  0  0  0  0  0  0  0999 V2000
   56.5180   31.5810   51.2460 N   0  0  0  0  0  0  0  0  0  0  0  0
   57.3080   30.5840   51.9160 C   0  0  0  0  0  0  0  0  0  0  0  0
   56.6700   29.4700   52.4990 C   0  0  0  0  0  0  0  0  0  0  0  0
   55.3000   29.2800   52.3470 O   0  0  0  0  0  0  0  0  0  0  0  0
   57.4040   28.5590   53.2640 C   0  0  0  0  0  0  0  0  0  0  0  0
   58.7700   28.7470   53.4610 C   0  0  0  0  0  0  0  0  0  0  0  0
   59.4190   29.8300   52.8690 C   0  0  0  0  0  0  0  0  0  0  0  0
   58.7070   30.7430   52.0750 C   0  0  0  0  0  0  0  0  0  0  0  0
   59.6130   32.0360   51.2720 S   0  0  0  0  0  0  0  0  0  0  0  0
   60.7590   32.4560   52.1460 O   0  0  0  0  0  0  0  0  0  0  0  0
   58.7360   33.2280   51.0030 O   0  0  0  0  0  0  0  0  0  0  0  0
   60.2360   31.4910   49.7500 N   0  0  0  0  0  0  0  0  0  0  0  0
   59.5580   31.6320   48.4920 C   0  0  0  0  0  0  0  0  0  0  0  0
   59.2420   32.8980   47.9960 C   0  0  0  0  0  0  0  0  0  0  0  0
   58.7440   33.0550   46.7030 C   0  0  0  0  0  0  0  0  0  0  0  0
   58.5810   34.3510   46.1790 C   0  0  0  0  0  0  0  0  0  0  0  0
   58.2620   34.5280   44.8350 C   0  0  0  0  0  0  0  0  0  0  0  0
   58.1480   33.4190   43.9970 C   0  0  0  0  0  0  0  0  0  0  0  0
   58.2780   32.1280   44.5160 C   0  0  0  0  0  0  0  0  0  0  0  0
   58.4770   31.9160   45.8970 C   0  0  0  0  0  0  0  0  0  0  0  0
   58.5460   30.6160   46.4820 C   0  0  0  0  0  0  0  0  0  0  0  0
   58.0000   29.4320   45.8830 C   0  0  0  0  0  0  0  0  0  0  0  0
   56.6250   29.4220   44.7580 S   0  0  0  0  0  0  0  0  0  0  0  0
   57.0810   29.1020   43.3620 O   0  0  0  0  0  0  0  0  0  0  0  0
   55.9080   30.7420   44.7750 O   0  0  0  0  0  0  0  0  0  0  0  0
   55.5330   28.2420   45.2450 O   0  0  0  0  0  0  0  0  0  0  0  0
   58.3620   28.1760   46.3930 C   0  0  0  0  0  0  0  0  0  0  0  0
   59.1180   28.0630   47.5500 C   0  0  0  0  0  0  0  0  0  0  0  0
   59.4890   29.2030   48.2530 C   0  0  0  0  0  0  0  0  0  0  0  0
   59.1990   30.4860   47.7480 C   0  0  0  0  0  0  0  0  0  0  0  0
   55.4760   31.5300   51.2290 H   0  0  0  0  0  0  0  0  0  0  0  0
   56.9510   32.4250   50.8140 H   0  0  0  0  0  0  0  0  0  0  0  0
   56.9006   27.6898   53.7124 H   0  0  0  0  0  0  0  0  0  0  0  0
   59.3375   28.0403   54.0843 H   0  0  0  0  0  0  0  0  0  0  0  0
   60.4987   29.9702   53.0256 H   0  0  0  0  0  0  0  0  0  0  0  0
   59.3877   33.7828   48.6331 H   0  0  0  0  0  0  0  0  0  0  0  0
   58.7059   35.2267   46.8329 H   0  0  0  0  0  0  0  0  0  0  0  0
   58.1003   35.5400   44.4353 H   0  0  0  0  0  0  0  0  0  0  0  0
   57.9550   33.5610   42.9234 H   0  0  0  0  0  0  0  0  0  0  0  0
   58.2244   31.2637   43.8377 H   0  0  0  0  0  0  0  0  0  0  0  0
   58.0406   27.2655   45.8661 H   0  0  0  0  0  0  0  0  0  0  0  0
   59.4243   27.0703   47.9116 H   0  0  0  0  0  0  0  0  0  0  0  0
   60.0147   29.1026   49.2140 H   0  0  0  0  0  0  0  0  0  0  0  0
  1  2  1  0
  2  3  2  0
  3  4  1  0
  3  5  1  0
  5  6  2  0
  6  7  1  0
  7  8  2  0
  8  9  1  0
  9 10  2  0
  9 11  2  0
  9 12  1  0
 12 13  1  0
 13 14  2  0
 14 15  1  0
 15 16  2  0
 16 17  1  0
 17 18  2  0
 18 19  1  0
 19 20  2  0
 20 21  1  0
 21 22  2  0
 22 23  1  0
 23 24  2  0
 23 25  2  0
 23 26  1  0
 22 27  1  0
 27 28  2  0
 28 29  1  0
 29 30  2  0
  8  2  1  0
 30 13  1  0
 20 15  1  0
 30 21  1  0
  1 31  1  0
  1 32  1  0
  5 33  1  0
  6 34  1  0
  7 35  1  0
 14 36  1  0
 16 37  1  0
 17 38  1  0
 18 39  1  0
 19 40  1  0
 27 41  1  0
 28 42  1  0
 29 43  1  0
M  CHG  3   4  -1  12  -1  26  -1
M  END
>  <UniqueID>  (33) 
30

>  <SMILES>  (33) 
Nc1c([O-])cccc1S(=O)(=O)[N-]c1cc2ccccc2c2c(S(=O)(=O)[O-])cccc12

>  <Energy>  (33) 
83.95453075000323

>  <Genealogy>  (33) 
Nc1c([O-])cccc1S(=O)(=O)[N-]c1cc2ccccc2c2c(S(=O)(=O)[O-])cccc12 (protonated)
Nc1c([O-])cccc1S(=O)(=O)[N-]c1cc2ccccc2c2c(S(=O)(=O)[O-])cccc12 (3D coordinates assigned)
Nc1c([O-])cccc1S(=O)(=O)[N-]c1cc2ccccc2c2c(S(=O)(=O)[O-])cccc12 (optimized conformer: 83.95453075000323 kcal/mol)

>  <smiles>  (33) 
Nc1c(O)cccc1S(=O)(=O)Nc1cc2ccccc2c2c(S(=O)(=O)O)cccc12

>  <score_type>  (33) 
oracle

>  <origin>  (33) 
adg

>  <m_score__min__energy>  (33) 
-14.08

>  <m_primary>  (33) 
energy

$$$$
33:0
     RDKit          3D

 23 24  0  0  0  0  0  0  0  0999 V2000
   57.7860   27.1290   43.9840 C   0  0  0  0  0  0  0  0  0  0  0  0
   58.0460   26.2370   45.2040 C   0  0  2  0  0  0  0  0  0  0  0  0
   57.8310   24.7450   44.8660 C   0  0  0  0  0  0  0  0  0  0  0  0
   56.3660   24.3470   44.8230 C   0  0  0  0  0  0  0  0  0  0  0  0
   55.4430   25.0620   45.6130 C   0  0  0  0  0  0  0  0  0  0  0  0
   54.0960   24.7150   45.5900 C   0  0  0  0  0  0  0  0  0  0  0  0
   53.6860   23.6550   44.7840 C   0  0  0  0  0  0  0  0  0  0  0  0
   52.4700   23.3390   44.7290 O   0  0  0  0  0  0  0  0  0  0  0  0
   54.5780   22.9660   44.0800 O   0  0  0  0  0  0  0  0  0  0  0  0
   55.8810   23.2350   44.0840 C   0  0  0  0  0  0  0  0  0  0  0  0
   56.7430   22.3210   43.3090 C   0  0  0  0  0  0  0  0  0  0  0  0
   56.2740   21.3810   42.6150 O   0  0  0  0  0  0  0  0  0  0  0  0
   55.8600   26.1210   46.4250 O   0  0  0  0  0  0  0  0  0  0  0  0
   57.1470   26.6500   46.3340 C   0  0  0  0  0  0  0  0  0  0  0  0
   57.5230   27.5240   47.1570 O   0  0  0  0  0  0  0  0  0  0  0  0
   57.4929   28.1344   44.3207 H   0  0  0  0  0  0  0  0  0  0  0  0
   58.7015   27.1976   43.3781 H   0  0  0  0  0  0  0  0  0  0  0  0
   56.9770   26.6949   43.3781 H   0  0  0  0  0  0  0  0  0  0  0  0
   59.0958   26.3633   45.5071 H   0  0  0  0  0  0  0  0  0  0  0  0
   58.2777   24.5415   43.8816 H   0  0  0  0  0  0  0  0  0  0  0  0
   58.3065   24.1568   45.6647 H   0  0  0  0  0  0  0  0  0  0  0  0
   53.3660   25.2688   46.1986 H   0  0  0  0  0  0  0  0  0  0  0  0
   57.8330   22.4662   43.3389 H   0  0  0  0  0  0  0  0  0  0  0  0
  1  2  1  0
  2  3  1  0
  3  4  1  0
  4  5  1  0
  5  6  2  0
  6  7  1  0
  7  8  2  0
  7  9  1  0
  9 10  1  0
 10 11  1  0
 11 12  2  0
  5 13  1  0
 13 14  1  0
 14 15  2  0
 14  2  1  0
 10  4  2  0
  1 16  1  0
  1 17  1  0
  1 18  1  0
  2 19  1  1
  3 20  1  0
  3 21  1  0
  6 22  1  0
 11 23  1  0
M  END
>  <UniqueID>  (34) 
31

>  <SMILES>  (34) 
C[C@@H]1Cc2c(cc(=O)oc2C=O)OC1=O

>  <Energy>  (34) 
27.931556793585855

>  <Genealogy>  (34) 
C[C@@H]1Cc2c(cc(=O)oc2C=O)OC1=O (chirality)
C[C@@H]1Cc2c(cc(=O)oc2C=O)OC1=O (3D coordinates assigned)
C[C@@H]1Cc2c(cc(=O)oc2C=O)OC1=O (nonaromatic ring conformer: 27.931556793585855 kcal/mol)

>  <smiles>  (34) 
CC1Cc2c(cc(=O)oc2C=O)OC1=O

>  <score_type>  (34) 
oracle

>  <origin>  (34) 
adg

>  <m_score__min__energy>  (34) 
-5.7800000000000002

>  <m_primary>  (34) 
energy

$$$$
34:0
     RDKit          3D

 52 55  0  0  0  0  0  0  0  0999 V2000
   57.6170   26.8730   47.1980 O   0  0  0  0  0  0  0  0  0  0  0  0
   56.8290   26.6700   46.2350 C   0  0  0  0  0  0  0  0  0  0  0  0
   55.8830   25.5930   46.3310 N   0  0  0  0  0  0  0  0  0  0  0  0
   55.8370   24.4990   45.6170 C   0  0  0  0  0  0  0  0  0  0  0  0
   55.1700   23.3270   46.0390 C   0  0  0  0  0  0  0  0  0  0  0  0
   55.1630   22.1960   45.2120 C   0  0  0  0  0  0  0  0  0  0  0  0
   55.8150   22.2130   44.0200 N   0  0  0  0  0  0  0  0  0  0  0  0
   56.4890   23.3160   43.6000 C   0  0  0  0  0  0  0  0  0  0  0  0
   56.5170   24.4730   44.3920 C   0  0  0  0  0  0  0  0  0  0  0  0
   56.9780   27.4100   45.0120 N   0  0  0  0  0  0  0  0  0  0  0  0
   57.3890   28.7890   44.9150 C   0  0  0  0  0  0  0  0  0  0  0  0
   56.4950   29.7280   44.3680 C   0  0  0  0  0  0  0  0  0  0  0  0
   56.8240   31.0860   44.3210 C   0  0  0  0  0  0  0  0  0  0  0  0
   58.0560   31.5290   44.8130 C   0  0  0  0  0  0  0  0  0  0  0  0
   58.4210   33.2530   44.8190 S   0  0  0  0  0  0  0  0  0  0  0  0
   58.8850   33.7120   43.4670 O   0  0  0  0  0  0  0  0  0  0  0  0
   57.1750   34.0120   45.1800 O   0  0  0  0  0  0  0  0  0  0  0  0
   59.6450   33.5620   46.0080 N   0  0  0  0  0  0  0  0  0  0  0  0
   59.4370   33.4590   47.4220 C   0  0  0  0  0  0  0  0  0  0  0  0
   60.0480   34.3430   48.3290 C   0  0  0  0  0  0  0  0  0  0  0  0
   59.8940   34.1610   49.7050 C   0  0  0  0  0  0  0  0  0  0  0  0
   59.1070   33.1090   50.1960 C   0  0  0  0  0  0  0  0  0  0  0  0
   58.9840   32.8910   51.6800 C   0  0  0  0  0  0  0  0  0  0  0  0
   58.0380   31.7520   51.9660 C   0  0  0  0  0  0  0  0  0  0  0  0
   56.6530   31.9750   52.0030 C   0  0  0  0  0  0  0  0  0  0  0  0
   55.7890   30.8990   52.2340 C   0  0  0  0  0  0  0  0  0  0  0  0
   56.2900   29.6450   52.4080 N   0  0  0  0  0  0  0  0  0  0  0  0
   57.6270   29.4000   52.3680 C   0  0  0  0  0  0  0  0  0  0  0  0
   58.5270   30.4460   52.1430 C   0  0  0  0  0  0  0  0  0  0  0  0
   58.5030   32.2230   49.2900 C   0  0  0  0  0  0  0  0  0  0  0  0
   58.6460   32.4100   47.9110 C   0  0  0  0  0  0  0  0  0  0  0  0
   58.9570   30.6030   45.3540 C   0  0  0  0  0  0  0  0  0  0  0  0
   58.6250   29.2440   45.4170 C   0  0  0  0  0  0  0  0  0  0  0  0
   54.6585   23.3027   47.0125 H   0  0  0  0  0  0  0  0  0  0  0  0
   54.6268   21.2895   45.5294 H   0  0  0  0  0  0  0  0  0  0  0  0
   57.0151   23.3011   42.6341 H   0  0  0  0  0  0  0  0  0  0  0  0
   57.0724   25.3595   44.0519 H   0  0  0  0  0  0  0  0  0  0  0  0
   56.7470   26.9060   44.1230 H   0  0  0  0  0  0  0  0  0  0  0  0
   55.5259   29.3896   43.9727 H   0  0  0  0  0  0  0  0  0  0  0  0
   56.1117   31.8083   43.8957 H   0  0  0  0  0  0  0  0  0  0  0  0
   60.6507   35.1826   47.9525 H   0  0  0  0  0  0  0  0  0  0  0  0
   60.3922   34.8458   50.4070 H   0  0  0  0  0  0  0  0  0  0  0  0
   59.9745   32.6527   52.0949 H   0  0  0  0  0  0  0  0  0  0  0  0
   58.5909   33.8073   52.1445 H   0  0  0  0  0  0  0  0  0  0  0  0
   56.2500   32.9873   51.8517 H   0  0  0  0  0  0  0  0  0  0  0  0
   54.7026   31.0665   52.2751 H   0  0  0  0  0  0  0  0  0  0  0  0
   58.0015   28.3759   52.5131 H   0  0  0  0  0  0  0  0  0  0  0  0
   59.6085   30.2487   52.1048 H   0  0  0  0  0  0  0  0  0  0  0  0
   57.9126   31.3750   49.6674 H   0  0  0  0  0  0  0  0  0  0  0  0
   58.1370   31.7329   47.2093 H   0  0  0  0  0  0  0  0  0  0  0  0
   59.9317   30.9455   45.7318 H   0  0  0  0  0  0  0  0  0  0  0  0
   59.3324   28.5279   45.8605 H   0  0  0  0  0  0  0  0  0  0  0  0
  1  2  2  0
  2  3  1  0
  3  4  2  3
  4  5  1  0
  5  6  2  0
  6  7  1  0
  7  8  1  0
  8  9  2  0
  2 10  1  0
 10 11  1  0
 11 12  2  0
 12 13  1  0
 13 14  2  0
 14 15  1  0
 15 16  2  0
 15 17  2  0
 15 18  1  0
 18 19  1  0
 19 20  2  0
 20 21  1  0
 21 22  2  0
 22 23  1  0
 23 24  1  0
 24 25  2  0
 25 26  1  0
 26 27  2  0
 27 28  1  0
 28 29  2  0
 22 30  1  0
 30 31  2  0
 14 32  1  0
 32 33  2  0
  9  4  1  0
 33 11  1  0
 31 19  1  0
 29 24  1  0
  5 34  1  0
  6 35  1  0
  8 36  1  0
  9 37  1  0
 10 38  1  0
 12 39  1  0
 13 40  1  0
 20 41  1  0
 21 42  1  0
 23 43  1  0
 23 44  1  0
 25 45  1  0
 26 46  1  0
 28 47  1  0
 29 48  1  0
 30 49  1  0
 31 50  1  0
 32 51  1  0
 33 52  1  0
M  CHG  2   7  -1  18  -1
M  END
>  <UniqueID>  (35) 
32

>  <SMILES>  (35) 
O=C(N=c1cc[n-]cc1)Nc1ccc(S(=O)(=O)[N-]c2ccc(Cc3ccncc3)cc2)cc1

>  <Energy>  (35) 
71.8944244174772

>  <Genealogy>  (35) 
O=C(N=c1cc[n-]cc1)Nc1ccc(S(=O)(=O)[N-]c2ccc(Cc3ccncc3)cc2)cc1 (protonated)
O=C(N=c1cc[n-]cc1)Nc1ccc(S(=O)(=O)[N-]c2ccc(Cc3ccncc3)cc2)cc1 (3D coordinates assigned)
O=C(N=c1cc[n-]cc1)Nc1ccc(S(=O)(=O)[N-]c2ccc(Cc3ccncc3)cc2)cc1 (optimized conformer: 71.8944244174772 kcal/mol)

>  <smiles>  (35) 
O=C(N=c1cc[nH]cc1)Nc1ccc(S(=O)(=O)Nc2ccc(Cc3ccncc3)cc2)cc1

>  <score_type>  (35) 
oracle

>  <origin>  (35) 
adg

>  <m_score__min__energy>  (35) 
-13.69

>  <m_primary>  (35) 
energy

$$$$
35:0
     RDKit          3D

 44 47  0  0  0  0  0  0  0  0999 V2000
   55.6989   21.8439   41.9750 H   0  0  0  0  0  0  0  0  0  0  0  0
   56.4030   22.2430   42.7200 C   0  0  0  0  0  0  0  0  0  0  0  0
   56.4010   23.6080   43.0220 C   0  0  0  0  0  0  0  0  0  0  0  0
   55.6976   24.2828   42.5122 H   0  0  0  0  0  0  0  0  0  0  0  0
   57.2930   24.1160   43.9720 C   0  0  0  0  0  0  0  0  0  0  0  0
   57.2952   25.1919   44.2009 H   0  0  0  0  0  0  0  0  0  0  0  0
   58.1860   23.2580   44.6350 C   0  0  0  0  0  0  0  0  0  0  0  0
   59.1680   23.8060   45.6280 C   0  0  0  0  0  0  0  0  0  0  0  0
   60.0048   24.2800   45.0941 H   0  0  0  0  0  0  0  0  0  0  0  0
   59.5525   22.9887   46.2558 H   0  0  0  0  0  0  0  0  0  0  0  0
   58.5030   24.7950   46.4670 N   0  0  0  0  0  0  0  0  0  0  0  0
   59.1160   26.0120   46.9060 C   0  0  0  0  0  0  0  0  0  0  0  0
   60.0880   25.9560   47.7030 O   0  0  0  0  0  0  0  0  0  0  0  0
   58.6640   27.3250   46.4220 C   0  0  0  0  0  0  0  0  0  0  0  0
   59.5870   28.7350   46.5630 S   0  0  0  0  0  0  0  0  0  0  0  0
   58.4400   29.7170   45.8410 C   0  0  0  0  0  0  0  0  0  0  0  0
   58.5410   31.0490   45.6180 N   0  0  0  0  0  0  0  0  0  0  0  0
   57.5030   31.7050   45.0310 C   0  0  0  0  0  0  0  0  0  0  0  0
   57.6140   32.9800   44.7970 N   0  0  0  0  0  0  0  0  0  0  0  0
   58.4820   33.9050   45.4730 C   0  0  0  0  0  0  0  0  0  0  0  0
   59.1060   33.6290   46.5680 N   0  0  0  0  0  0  0  0  0  0  0  0
   59.0450   32.7200   47.0780 H   0  0  0  0  0  0  0  0  0  0  0  0
   59.9960   34.7000   46.9710 C   0  0  0  0  0  0  0  0  0  0  0  0
   59.7208   35.0745   47.9680 H   0  0  0  0  0  0  0  0  0  0  0  0
   61.0408   34.3617   47.0341 H   0  0  0  0  0  0  0  0  0  0  0  0
   59.8150   35.7980   45.9170 C   0  0  0  0  0  0  0  0  0  0  0  0
   59.3740   36.6982   46.3699 H   0  0  0  0  0  0  0  0  0  0  0  0
   60.7740   36.1030   45.4729 H   0  0  0  0  0  0  0  0  0  0  0  0
   58.8670   35.2030   44.8750 C   0  0  0  0  0  0  0  0  0  0  0  0
   57.9871   35.8467   44.7286 H   0  0  0  0  0  0  0  0  0  0  0  0
   59.3265   35.1014   43.8807 H   0  0  0  0  0  0  0  0  0  0  0  0
   56.3830   31.0100   44.6600 N   0  0  0  0  0  0  0  0  0  0  0  0
   56.2620   29.6710   44.8780 C   0  0  0  0  0  0  0  0  0  0  0  0
   55.2110   29.0750   44.5240 O   0  0  0  0  0  0  0  0  0  0  0  0
   57.3210   28.9880   45.4890 C   0  0  0  0  0  0  0  0  0  0  0  0
   57.4260   27.6210   45.8240 C   0  0  0  0  0  0  0  0  0  0  0  0
   56.3200   26.6210   45.6320 C   0  0  0  0  0  0  0  0  0  0  0  0
   55.9520   26.2883   46.6138 H   0  0  0  0  0  0  0  0  0  0  0  0
   55.4970   27.0877   45.0709 H   0  0  0  0  0  0  0  0  0  0  0  0
   56.7017   25.7553   45.0709 H   0  0  0  0  0  0  0  0  0  0  0  0
   58.1930   21.8910   44.3150 C   0  0  0  0  0  0  0  0  0  0  0  0
   58.9035   21.2151   44.8134 H   0  0  0  0  0  0  0  0  0  0  0  0
   57.2990   21.3850   43.3640 C   0  0  0  0  0  0  0  0  0  0  0  0
   57.3016   20.3116   43.1234 H   0  0  0  0  0  0  0  0  0  0  0  0
  1  2  1  0
  2  3  2  0
  3  4  1  0
  3  5  1  0
  5  6  1  0
  5  7  2  0
  7  8  1  0
  8  9  1  0
  8 10  1  0
  8 11  1  0
 11 12  1  0
 12 13  2  0
 12 14  1  0
 14 15  1  0
 15 16  1  0
 16 17  1  0
 17 18  1  0
 18 19  2  0
 19 20  1  0
 20 21  2  0
 21 22  1  0
 21 23  1  0
 23 24  1  0
 23 25  1  0
 23 26  1  0
 26 27  1  0
 26 28  1  0
 26 29  1  0
 29 30  1  0
 29 31  1  0
 18 32  1  0
 32 33  1  0
 33 34  2  0
 33 35  1  0
 35 36  1  0
 36 37  1  0
 37 38  1  0
 37 39  1  0
 37 40  1  0
  7 41  1  0
 41 42  1  0
 41 43  2  0
 43 44  1  0
 43  2  1  0
 36 14  2  0
 35 16  2  0
 29 20  1  0
M  CHG  4  11  -1  17  -1  21   1  32  -1
M  END
>  <UniqueID>  (36) 
33

>  <SMILES>  (36) 
Cc1c(C(=O)[N-]Cc2ccccc2)sc2[n-]/c(=N/C3=[NH+]CCC3)[n-]c(=O)c12

>  <Energy>  (36) 
95.0095835049694

>  <Genealogy>  (36) 
Cc1c(C(=O)[N-]Cc2ccccc2)sc2[n-]c(=NC3=[NH+]CCC3)[n-]c(=O)c12 (protonated)
Cc1c(C(=O)[N-]Cc2ccccc2)sc2[n-]/c(=N/C3=[NH+]CCC3)[n-]c(=O)c12 (cis-trans isomerization)
Cc1c(C(=O)[N-]Cc2ccccc2)sc2[n-]/c(=N/C3=[NH+]CCC3)[n-]c(=O)c12 (3D coordinates assigned)
Cc1c(C(=O)[N-]Cc2ccccc2)sc2[n-]/c(=N/C3=[NH+]CCC3)[n-]c(=O)c12 (nonaromatic ring conformer: 95.0095835049694 kcal/mol)

>  <smiles>  (36) 
Cc1c(C(=O)NCc2ccccc2)sc2[nH]c(=NC3=NCCC3)[nH]c(=O)c12

>  <score_type>  (36) 
oracle

>  <origin>  (36) 
adg

>  <m_score__min__energy>  (36) 
-9.7599999999999998

>  <m_primary>  (36) 
energy

$$$$
36:0
     RDKit          3D

 62 65  0  0  0  0  0  0  0  0999 V2000
   60.9970   34.5310   49.6250 N   0  0  0  0  0  0  0  0  0  0  0  0
   61.6350   34.0110   48.6200 C   0  0  0  0  0  0  0  0  0  0  0  0
   62.8370   33.2640   48.7470 N   0  0  0  0  0  0  0  0  0  0  0  0
   63.4220   32.7650   50.0080 C   0  0  0  0  0  0  0  0  0  0  0  0
   64.6720   31.8810   49.7230 C   0  0  0  0  0  0  0  0  0  0  0  0
   65.9770   32.5850   50.0810 C   0  0  0  0  0  0  0  0  0  0  0  0
   66.0120   32.9520   51.5750 C   0  0  0  0  0  0  0  0  0  0  0  0
   64.6510   33.4330   52.1280 C   0  0  0  0  0  0  0  0  0  0  0  0
   63.7190   33.9130   51.0110 C   0  0  0  0  0  0  0  0  0  0  0  0
   63.3040   32.9520   47.3920 C   0  0  0  0  0  0  0  0  0  0  0  0
   62.2570   33.5420   46.4210 C   0  0  0  0  0  0  0  0  0  0  0  0
   61.2530   34.1750   47.2640 N   0  0  0  0  0  0  0  0  0  0  0  0
   59.7450   34.8060   46.6630 S   0  0  0  0  0  0  0  0  0  0  0  0
   59.9930   35.9370   45.7010 O   0  0  0  0  0  0  0  0  0  0  0  0
   58.9300   35.3480   47.8070 O   0  0  0  0  0  0  0  0  0  0  0  0
   58.8390   33.5230   45.8720 C   0  0  0  0  0  0  0  0  0  0  0  0
   58.2230   33.7540   44.6380 C   0  0  0  0  0  0  0  0  0  0  0  0
   57.4790   32.7430   44.0230 C   0  0  0  0  0  0  0  0  0  0  0  0
   57.3400   31.4870   44.6420 C   0  0  0  0  0  0  0  0  0  0  0  0
   56.5300   30.3890   43.9900 C   0  0  0  0  0  0  0  0  0  0  0  0
   57.0420   29.0050   44.3850 C   0  0  0  0  0  0  0  0  0  0  0  0
   56.0830   28.3370   45.2560 N   0  0  0  0  0  0  0  0  0  0  0  0
   56.3610   27.0770   45.8760 C   0  0  0  0  0  0  0  0  0  0  0  0
   55.4200   26.3690   46.3200 O   0  0  0  0  0  0  0  0  0  0  0  0
   57.7700   26.5770   45.9570 C   0  0  0  0  0  0  0  0  0  0  0  0
   58.6600   27.6340   46.5300 C   0  0  0  0  0  0  0  0  0  0  0  0
   58.5540   28.1740   47.8080 C   0  0  0  0  0  0  0  0  0  0  0  0
   59.5760   29.0880   48.1030 C   0  0  0  0  0  0  0  0  0  0  0  0
   60.4830   29.2710   47.0640 C   0  0  0  0  0  0  0  0  0  0  0  0
   60.0290   28.2730   45.7850 S   0  0  0  0  0  0  0  0  0  0  0  0
   57.9940   31.2510   45.8640 C   0  0  0  0  0  0  0  0  0  0  0  0
   58.7330   32.2670   46.4780 C   0  0  0  0  0  0  0  0  0  0  0  0
   60.1940   35.1750   49.4770 H   0  0  0  0  0  0  0  0  0  0  0  0
   61.2780   34.3400   50.6110 H   0  0  0  0  0  0  0  0  0  0  0  0
   62.6725   32.1263   50.4982 H   0  0  0  0  0  0  0  0  0  0  0  0
   64.5944   30.9580   50.3163 H   0  0  0  0  0  0  0  0  0  0  0  0
   64.6919   31.6668   48.6442 H   0  0  0  0  0  0  0  0  0  0  0  0
   66.8206   31.9163   49.8547 H   0  0  0  0  0  0  0  0  0  0  0  0
   66.0503   33.5101   49.4904 H   0  0  0  0  0  0  0  0  0  0  0  0
   66.3237   32.0636   52.1438 H   0  0  0  0  0  0  0  0  0  0  0  0
   66.7176   33.7887   51.6844 H   0  0  0  0  0  0  0  0  0  0  0  0
   64.1688   32.5999   52.6603 H   0  0  0  0  0  0  0  0  0  0  0  0
   64.8376   34.2802   52.8044 H   0  0  0  0  0  0  0  0  0  0  0  0
   62.7732   34.2582   51.4541 H   0  0  0  0  0  0  0  0  0  0  0  0
   64.2114   34.7347   50.4702 H   0  0  0  0  0  0  0  0  0  0  0  0
   64.2881   33.4103   47.2142 H   0  0  0  0  0  0  0  0  0  0  0  0
   63.4129   31.8668   47.2485 H   0  0  0  0  0  0  0  0  0  0  0  0
   62.7244   34.2844   45.7574 H   0  0  0  0  0  0  0  0  0  0  0  0
   61.8170   32.7663   45.7771 H   0  0  0  0  0  0  0  0  0  0  0  0
   58.3243   34.7345   44.1497 H   0  0  0  0  0  0  0  0  0  0  0  0
   57.0000   32.9301   43.0506 H   0  0  0  0  0  0  0  0  0  0  0  0
   55.4802   30.4847   44.3042 H   0  0  0  0  0  0  0  0  0  0  0  0
   56.6235   30.4929   42.8989 H   0  0  0  0  0  0  0  0  0  0  0  0
   57.1895   28.4008   43.4777 H   0  0  0  0  0  0  0  0  0  0  0  0
   57.9945   29.1177   44.9236 H   0  0  0  0  0  0  0  0  0  0  0  0
   57.8030   25.6857   46.6008 H   0  0  0  0  0  0  0  0  0  0  0  0
   58.1196   26.3223   44.9456 H   0  0  0  0  0  0  0  0  0  0  0  0
   57.7520   27.9113   48.5136 H   0  0  0  0  0  0  0  0  0  0  0  0
   59.6534   29.6120   49.0671 H   0  0  0  0  0  0  0  0  0  0  0  0
   61.3479   29.9506   47.0757 H   0  0  0  0  0  0  0  0  0  0  0  0
   57.9240   30.2617   46.3397 H   0  0  0  0  0  0  0  0  0  0  0  0
   59.2321   32.0779   47.4398 H   0  0  0  0  0  0  0  0  0  0  0  0
  1  2  2  0
  2  3  1  0
  3  4  1  0
  4  5  1  0
  5  6  1  0
  6  7  1  0
  7  8  1  0
  8  9  1  0
  3 10  1  0
 10 11  1  0
 11 12  1  0
 12 13  1  0
 13 14  2  0
 13 15  2  0
 13 16  1  0
 16 17  2  0
 17 18  1  0
 18 19  2  0
 19 20  1  0
 20 21  1  0
 21 22  1  0
 22 23  1  0
 23 24  2  0
 23 25  1  0
 25 26  1  0
 26 27  2  0
 27 28  1  0
 28 29  2  0
 29 30  1  0
 19 31  1  0
 31 32  2  0
 12  2  1  0
 32 16  1  0
  9  4  1  0
 30 26  1  0
  1 33  1  0
  1 34  1  0
  4 35  1  0
  5 36  1  0
  5 37  1  0
  6 38  1  0
  6 39  1  0
  7 40  1  0
  7 41  1  0
  8 42  1  0
  8 43  1  0
  9 44  1  0
  9 45  1  0
 10 46  1  0
 10 47  1  0
 11 48  1  0
 11 49  1  0
 17 50  1  0
 18 51  1  0
 20 52  1  0
 20 53  1  0
 21 54  1  0
 21 55  1  0
 25 56  1  0
 25 57  1  0
 27 58  1  0
 28 59  1  0
 29 60  1  0
 31 61  1  0
 32 62  1  0
M  CHG  2   1   1  22  -1
M  END
>  <UniqueID>  (37) 
34

>  <SMILES>  (37) 
[NH2+]=C1N(C2CCCCC2)CCN1S(=O)(=O)c1ccc(CC[N-]C(=O)Cc2cccs2)cc1

>  <Energy>  (37) 
101.53642922769909

>  <Genealogy>  (37) 
[NH2+]=C1N(C2CCCCC2)CCN1S(=O)(=O)c1ccc(CC[N-]C(=O)Cc2cccs2)cc1 (protonated)
[NH2+]=C1N(C2CCCCC2)CCN1S(=O)(=O)c1ccc(CC[N-]C(=O)Cc2cccs2)cc1 (3D coordinates assigned)
[NH2+]=C1N(C2CCCCC2)CCN1S(=O)(=O)c1ccc(CC[N-]C(=O)Cc2cccs2)cc1 (nonaromatic ring conformer: 101.53642922769909 kcal/mol)

>  <smiles>  (37) 
N=C1N(C2CCCCC2)CCN1S(=O)(=O)c1ccc(CCNC(=O)Cc2cccs2)cc1

>  <score_type>  (37) 
oracle

>  <origin>  (37) 
adg

>  <m_score__min__energy>  (37) 
-10.529999999999999

>  <m_primary>  (37) 
energy

$$$$
37:0
     RDKit          3D

 54 57  0  0  0  0  0  0  0  0999 V2000
   59.0390   24.6150   45.8590 C   0  0  0  0  0  0  0  0  0  0  0  0
   58.4510   25.9590   45.5190 C   0  0  0  0  0  0  0  0  0  0  0  0
   59.2530   26.9220   44.8820 C   0  0  0  0  0  0  0  0  0  0  0  0
   58.7370   28.1790   44.5650 C   0  0  0  0  0  0  0  0  0  0  0  0
   57.4130   28.4980   44.8820 C   0  0  0  0  0  0  0  0  0  0  0  0
   56.7410   30.0740   44.4710 S   0  0  0  0  0  0  0  0  0  0  0  0
   55.2420   30.0490   44.5960 O   0  0  0  0  0  0  0  0  0  0  0  0
   57.1030   30.3920   43.0470 O   0  0  0  0  0  0  0  0  0  0  0  0
   57.4060   31.2830   45.5380 N   0  0  0  0  0  0  0  0  0  0  0  0
   57.6410   32.5330   44.7960 C   0  0  0  0  0  0  0  0  0  0  0  0
   58.0090   33.6730   45.7640 C   0  0  0  0  0  0  0  0  0  0  0  0
   58.6120   33.1480   47.0860 C   0  0  0  0  0  0  0  0  0  0  0  0
   59.4000   34.2230   47.7820 C   0  0  0  0  0  0  0  0  0  0  0  0
   59.4910   35.3700   47.2670 O   0  0  0  0  0  0  0  0  0  0  0  0
   59.9750   33.9510   49.0670 N   0  0  0  0  0  0  0  0  0  0  0  0
   59.2820   33.4760   50.2310 C   0  0  0  0  0  0  0  0  0  0  0  0
   59.2790   34.1940   51.4430 C   0  0  0  0  0  0  0  0  0  0  0  0
   58.6070   33.6880   52.5600 C   0  0  0  0  0  0  0  0  0  0  0  0
   57.9390   32.4630   52.4800 C   0  0  0  0  0  0  0  0  0  0  0  0
   57.9670   31.7300   51.2870 C   0  0  0  0  0  0  0  0  0  0  0  0
   58.6430   32.2310   50.1700 C   0  0  0  0  0  0  0  0  0  0  0  0
   57.3430   30.4460   51.2410 N   0  0  0  0  0  0  0  0  0  0  0  0
   56.6090   29.9650   52.3680 C   0  0  0  0  0  0  0  0  0  0  0  0
   56.1510   28.7910   52.3640 O   0  0  0  0  0  0  0  0  0  0  0  0
   56.3200   30.8850   53.5220 C   0  0  0  0  0  0  0  0  0  0  0  0
   57.2700   31.9530   53.6000 O   0  0  0  0  0  0  0  0  0  0  0  0
   59.4740   31.9000   46.8320 C   0  0  0  0  0  0  0  0  0  0  0  0
   58.6600   30.7820   46.1410 C   0  0  0  0  0  0  0  0  0  0  0  0
   56.6030   27.5490   45.5150 C   0  0  0  0  0  0  0  0  0  0  0  0
   57.1110   26.2810   45.8500 C   0  0  0  0  0  0  0  0  0  0  0  0
   56.2140   25.2830   46.5330 C   0  0  0  0  0  0  0  0  0  0  0  0
   59.0883   24.5023   46.9521 H   0  0  0  0  0  0  0  0  0  0  0  0
   58.4063   23.8205   45.4366 H   0  0  0  0  0  0  0  0  0  0  0  0
   60.0519   24.5405   45.4366 H   0  0  0  0  0  0  0  0  0  0  0  0
   60.2969   26.6823   44.6312 H   0  0  0  0  0  0  0  0  0  0  0  0
   59.3744   28.9222   44.0636 H   0  0  0  0  0  0  0  0  0  0  0  0
   58.4659   32.3819   44.0841 H   0  0  0  0  0  0  0  0  0  0  0  0
   56.7213   32.8059   44.2578 H   0  0  0  0  0  0  0  0  0  0  0  0
   58.7449   34.3284   45.2752 H   0  0  0  0  0  0  0  0  0  0  0  0
   57.0854   34.2181   46.0085 H   0  0  0  0  0  0  0  0  0  0  0  0
   57.7849   32.8582   47.7507 H   0  0  0  0  0  0  0  0  0  0  0  0
   59.8073   35.1564   51.5110 H   0  0  0  0  0  0  0  0  0  0  0  0
   58.6041   34.2548   53.5027 H   0  0  0  0  0  0  0  0  0  0  0  0
   58.6731   31.6449   49.2396 H   0  0  0  0  0  0  0  0  0  0  0  0
   55.3141   31.3116   53.3943 H   0  0  0  0  0  0  0  0  0  0  0  0
   56.3857   30.2998   54.4511 H   0  0  0  0  0  0  0  0  0  0  0  0
   60.3216   32.1759   46.1875 H   0  0  0  0  0  0  0  0  0  0  0  0
   59.8278   31.5209   47.8021 H   0  0  0  0  0  0  0  0  0  0  0  0
   59.2779   30.3343   45.3487 H   0  0  0  0  0  0  0  0  0  0  0  0
   58.3888   30.0430   46.9094 H   0  0  0  0  0  0  0  0  0  0  0  0
   55.5581   27.7971   45.7531 H   0  0  0  0  0  0  0  0  0  0  0  0
   56.3100   25.3899   47.6236 H   0  0  0  0  0  0  0  0  0  0  0  0
   55.1703   25.4654   46.2372 H   0  0  0  0  0  0  0  0  0  0  0  0
   56.5063   24.2646   46.2372 H   0  0  0  0  0  0  0  0  0  0  0  0
  1  2  1  0
  2  3  2  0
  3  4  1  0
  4  5  2  0
  5  6  1  0
  6  7  2  0
  6  8  2  0
  6  9  1  0
  9 10  1  0
 10 11  1  0
 11 12  1  0
 12 13  1  0
 13 14  2  0
 13 15  1  0
 15 16  1  0
 16 17  2  0
 17 18  1  0
 18 19  2  0
 19 20  1  0
 20 21  2  0
 20 22  1  0
 22 23  1  0
 23 24  2  0
 23 25  1  0
 25 26  1  0
 12 27  1  0
 27 28  1  0
  5 29  1  0
 29 30  2  0
 30 31  1  0
 30  2  1  0
 28  9  1  0
 21 16  1  0
 26 19  1  0
  1 32  1  0
  1 33  1  0
  1 34  1  0
  3 35  1  0
  4 36  1  0
 10 37  1  0
 10 38  1  0
 11 39  1  0
 11 40  1  0
 12 41  1  0
 17 42  1  0
 18 43  1  0
 21 44  1  0
 25 45  1  0
 25 46  1  0
 27 47  1  0
 27 48  1  0
 28 49  1  0
 28 50  1  0
 29 51  1  0
 31 52  1  0
 31 53  1  0
 31 54  1  0
M  CHG  2  15  -1  22  -1
M  END
>  <UniqueID>  (38) 
35

>  <SMILES>  (38) 
Cc1ccc(S(=O)(=O)N2CCC(C(=O)[N-]c3ccc4c(c3)[N-]C(=O)CO4)CC2)cc1C

>  <Energy>  (38) 
65.19060291629083

>  <Genealogy>  (38) 
Cc1ccc(S(=O)(=O)N2CCC(C(=O)[N-]c3ccc4c(c3)[N-]C(=O)CO4)CC2)cc1C (protonated)
Cc1ccc(S(=O)(=O)N2CCC(C(=O)[N-]c3ccc4c(c3)[N-]C(=O)CO4)CC2)cc1C (3D coordinates assigned)
Cc1ccc(S(=O)(=O)N2CCC(C(=O)[N-]c3ccc4c(c3)[N-]C(=O)CO4)CC2)cc1C (nonaromatic ring conformer: 65.19060291629083 kcal/mol)

>  <smiles>  (38) 
Cc1ccc(S(=O)(=O)N2CCC(C(=O)Nc3ccc4c(c3)NC(=O)CO4)CC2)cc1C

>  <score_type>  (38) 
oracle

>  <origin>  (38) 
adg

>  <m_score__min__energy>  (38) 
-13.41

>  <m_primary>  (38) 
energy

$$$$
38:0
     RDKit          3D

 34 36  0  0  0  0  0  0  0  0999 V2000
   61.3190   32.8910   47.9110 C   0  0  0  0  0  0  0  0  0  0  0  0
   60.0020   32.8050   47.1980 C   0  0  0  0  0  0  0  0  0  0  0  0
   58.9060   33.5520   47.6480 C   0  0  0  0  0  0  0  0  0  0  0  0
   57.6700   33.4420   47.0090 C   0  0  0  0  0  0  0  0  0  0  0  0
   57.5080   32.5750   45.9200 C   0  0  0  0  0  0  0  0  0  0  0  0
   56.2680   32.4780   45.2900 O   0  0  0  0  0  0  0  0  0  0  0  0
   58.5990   31.8060   45.4670 C   0  0  0  0  0  0  0  0  0  0  0  0
   58.4490   30.8270   44.3280 C   0  0  0  0  0  0  0  0  0  0  0  0
   57.8180   29.5430   44.8120 C   0  0  0  0  0  0  0  0  0  0  0  0
   58.6290   28.5240   45.3360 C   0  0  0  0  0  0  0  0  0  0  0  0
   58.0550   27.3440   45.8210 C   0  0  0  0  0  0  0  0  0  0  0  0
   58.8460   26.3110   46.3490 C   0  0  0  0  0  0  0  0  0  0  0  0
   58.2420   25.1440   46.8270 C   0  0  0  0  0  0  0  0  0  0  0  0
   56.8520   25.0010   46.7820 C   0  0  0  0  0  0  0  0  0  0  0  0
   56.0570   26.0260   46.2580 C   0  0  0  0  0  0  0  0  0  0  0  0
   56.6520   27.1980   45.7770 C   0  0  0  0  0  0  0  0  0  0  0  0
   55.8830   28.1960   45.2700 N   0  0  0  0  0  0  0  0  0  0  0  0
   56.4200   29.3510   44.7930 C   0  0  0  0  0  0  0  0  0  0  0  0
   55.6550   30.2390   44.3340 O   0  0  0  0  0  0  0  0  0  0  0  0
   59.8400   31.9220   46.1190 C   0  0  0  0  0  0  0  0  0  0  0  0
   61.1490   32.8799   48.9977 H   0  0  0  0  0  0  0  0  0  0  0  0
   61.9454   32.0318   47.6291 H   0  0  0  0  0  0  0  0  0  0  0  0
   61.8283   33.8243   47.6291 H   0  0  0  0  0  0  0  0  0  0  0  0
   59.0198   34.2280   48.5083 H   0  0  0  0  0  0  0  0  0  0  0  0
   56.8172   34.0400   47.3626 H   0  0  0  0  0  0  0  0  0  0  0  0
   55.7730   31.5970   45.2220 H   0  0  0  0  0  0  0  0  0  0  0  0
   57.8118   31.2723   43.5498 H   0  0  0  0  0  0  0  0  0  0  0  0
   59.4453   30.6014   43.9200 H   0  0  0  0  0  0  0  0  0  0  0  0
   59.7209   28.6540   45.3654 H   0  0  0  0  0  0  0  0  0  0  0  0
   59.9400   26.4197   46.3866 H   0  0  0  0  0  0  0  0  0  0  0  0
   58.8629   24.3354   47.2400 H   0  0  0  0  0  0  0  0  0  0  0  0
   56.3824   24.0806   47.1594 H   0  0  0  0  0  0  0  0  0  0  0  0
   54.9636   25.9108   46.2240 H   0  0  0  0  0  0  0  0  0  0  0  0
   60.6921   31.3146   45.7799 H   0  0  0  0  0  0  0  0  0  0  0  0
  1  2  1  0
  2  3  2  0
  3  4  1  0
  4  5  2  0
  5  6  1  0
  5  7  1  0
  7  8  1  0
  8  9  1  0
  9 10  2  0
 10 11  1  0
 11 12  2  0
 12 13  1  0
 13 14  2  0
 14 15  1  0
 15 16  2  0
 16 17  1  0
 17 18  1  0
 18 19  2  0
  7 20  2  0
 20  2  1  0
 18  9  1  0
 16 11  1  0
  1 21  1  0
  1 22  1  0
  1 23  1  0
  3 24  1  0
  4 25  1  0
  6 26  1  0
  8 27  1  0
  8 28  1  0
 10 29  1  0
 12 30  1  0
 13 31  1  0
 14 32  1  0
 15 33  1  0
 20 34  1  0
M  CHG  1  17  -1
M  END
>  <UniqueID>  (39) 
36

>  <SMILES>  (39) 
Cc1ccc(O)c(Cc2cc3ccccc3[n-]c2=O)c1

>  <Energy>  (39) 
39.188056220043265

>  <Genealogy>  (39) 
Cc1ccc(O)c(Cc2cc3ccccc3[n-]c2=O)c1 (protonated)
Cc1ccc(O)c(Cc2cc3ccccc3[n-]c2=O)c1 (3D coordinates assigned)
Cc1ccc(O)c(Cc2cc3ccccc3[n-]c2=O)c1 (optimized conformer: 39.188056220043265 kcal/mol)

>  <smiles>  (39) 
Cc1ccc(O)c(Cc2cc3ccccc3[nH]c2=O)c1

>  <score_type>  (39) 
oracle

>  <origin>  (39) 
adg

>  <m_score__min__energy>  (39) 
-9.4499999999999993

>  <m_primary>  (39) 
energy

$$$$
39:0
     RDKit          3D

 37 39  0  0  0  0  0  0  0  0999 V2000
   59.9190   28.7110   46.9930 C   0  0  0  0  0  0  0  0  0  0  0  0
   58.9640   29.6900   47.3370 O   0  0  0  0  0  0  0  0  0  0  0  0
   59.1610   30.7400   48.1980 C   0  0  0  0  0  0  0  0  0  0  0  0
   59.7410   30.5810   49.4620 C   0  0  0  0  0  0  0  0  0  0  0  0
   59.9010   31.6900   50.2650 C   0  0  0  0  0  0  0  0  0  0  0  0
   59.4990   32.9560   49.8410 C   0  0  0  0  0  0  0  0  0  0  0  0
   58.9230   33.1220   48.5880 C   0  0  0  0  0  0  0  0  0  0  0  0
   58.7580   32.0120   47.7780 C   0  0  0  0  0  0  0  0  0  0  0  0
   58.1650   32.1430   46.4710 N   0  0  0  0  0  0  0  0  0  0  0  0
   58.0770   33.4010   45.8150 C   0  0  0  0  0  0  0  0  0  0  0  0
   58.5100   34.4660   46.3300 O   0  0  0  0  0  0  0  0  0  0  0  0
   57.4410   33.4220   44.4620 C   0  0  0  0  0  0  0  0  0  0  0  0
   58.1720   31.9880   43.5830 S   0  0  0  0  0  0  0  0  0  0  0  0
   57.3360   30.5450   44.2610 C   0  0  0  0  0  0  0  0  0  0  0  0
   56.0070   30.5060   44.4790 N   0  0  0  0  0  0  0  0  0  0  0  0
   55.7190   29.3080   44.9820 N   0  0  0  0  0  0  0  0  0  0  0  0
   56.8770   28.5910   45.0790 C   0  0  0  0  0  0  0  0  0  0  0  0
   56.9830   27.2190   45.5860 C   0  0  0  0  0  0  0  0  0  0  0  0
   58.1270   26.4360   45.4790 C   0  0  0  0  0  0  0  0  0  0  0  0
   57.8250   25.2280   46.0730 C   0  0  0  0  0  0  0  0  0  0  0  0
   56.5200   25.3530   46.5020 C   0  0  0  0  0  0  0  0  0  0  0  0
   56.0530   26.5530   46.1940 O   0  0  0  0  0  0  0  0  0  0  0  0
   57.8850   29.3690   44.6260 N   0  0  0  0  0  0  0  0  0  0  0  0
   60.3439   28.2754   47.9093 H   0  0  0  0  0  0  0  0  0  0  0  0
   59.4361   27.9198   46.4007 H   0  0  0  0  0  0  0  0  0  0  0  0
   60.7219   29.1742   46.4007 H   0  0  0  0  0  0  0  0  0  0  0  0
   60.0636   29.5881   49.8086 H   0  0  0  0  0  0  0  0  0  0  0  0
   60.3549   31.5738   51.2602 H   0  0  0  0  0  0  0  0  0  0  0  0
   59.6383   33.8254   50.5004 H   0  0  0  0  0  0  0  0  0  0  0  0
   58.6038   34.1175   48.2458 H   0  0  0  0  0  0  0  0  0  0  0  0
   57.8090   31.2510   46.0510 H   0  0  0  0  0  0  0  0  0  0  0  0
   56.3497   33.3115   44.5444 H   0  0  0  0  0  0  0  0  0  0  0  0
   57.6188   34.3698   43.9328 H   0  0  0  0  0  0  0  0  0  0  0  0
   54.7650   28.9630   45.2600 H   0  0  0  0  0  0  0  0  0  0  0  0
   59.0818   26.7224   45.0138 H   0  0  0  0  0  0  0  0  0  0  0  0
   58.4832   24.3534   46.1812 H   0  0  0  0  0  0  0  0  0  0  0  0
   55.9504   24.5699   47.0239 H   0  0  0  0  0  0  0  0  0  0  0  0
  1  2  1  0
  2  3  1  0
  3  4  2  0
  4  5  1  0
  5  6  2  0
  6  7  1  0
  7  8  2  0
  8  9  1  0
  9 10  1  0
 10 11  2  0
 10 12  1  0
 12 13  1  0
 13 14  1  0
 14 15  2  0
 15 16  1  0
 16 17  1  0
 17 18  1  0
 18 19  2  0
 19 20  1  0
 20 21  2  0
 21 22  1  0
 17 23  2  0
  8  3  1  0
 23 14  1  0
 22 18  1  0
  1 24  1  0
  1 25  1  0
  1 26  1  0
  4 27  1  0
  5 28  1  0
  6 29  1  0
  7 30  1  0
  9 31  1  0
 12 32  1  0
 12 33  1  0
 16 34  1  0
 19 35  1  0
 20 36  1  0
 21 37  1  0
M  END
>  <smiles>  (40) 
COc1ccccc1NC(=O)CSc1n[nH]c(-c2ccco2)n1

>  <score_type>  (40) 
oracle

>  <origin>  (40) 
adg

>  <m_score__min__energy>  (40) 
-8.0999999999999996

>  <m_primary>  (40) 
energy

$$$$
40:0
     RDKit          3D

 52 55  0  0  0  0  0  0  0  0999 V2000
   57.3950   31.5770   42.5800 C   0  0  0  0  0  0  0  0  0  0  0  0
   56.9400   30.5580   43.6220 C   0  0  0  0  0  0  0  0  0  0  0  0
   57.7540   30.6660   44.8500 N   0  0  0  0  0  0  0  0  0  0  0  0
   58.2800   31.8960   45.1400 C   0  0  0  0  0  0  0  0  0  0  0  0
   59.0590   32.1070   46.2790 C   0  0  0  0  0  0  0  0  0  0  0  0
   59.6870   33.7210   46.6320 S   0  0  0  0  0  0  0  0  0  0  0  0
   59.8880   34.4730   45.3460 O   0  0  0  0  0  0  0  0  0  0  0  0
   58.7130   34.4940   47.4780 O   0  0  0  0  0  0  0  0  0  0  0  0
   61.2090   33.5640   47.5010 C   0  0  0  0  0  0  0  0  0  0  0  0
   62.3550   33.0820   46.8540 C   0  0  0  0  0  0  0  0  0  0  0  0
   63.5540   32.9440   47.5590 C   0  0  0  0  0  0  0  0  0  0  0  0
   63.6130   33.2820   48.9160 C   0  0  0  0  0  0  0  0  0  0  0  0
   65.2510   33.0910   49.8790 Br  0  0  0  0  0  0  0  0  0  0  0  0
   62.4700   33.7570   49.5660 C   0  0  0  0  0  0  0  0  0  0  0  0
   61.2700   33.8960   48.8620 C   0  0  0  0  0  0  0  0  0  0  0  0
   59.3050   31.0390   47.1470 C   0  0  0  0  0  0  0  0  0  0  0  0
   59.9870   31.2250   48.1930 O   0  0  0  0  0  0  0  0  0  0  0  0
   58.7930   29.7650   46.8480 C   0  0  0  0  0  0  0  0  0  0  0  0
   59.0470   28.6720   47.6980 C   0  0  0  0  0  0  0  0  0  0  0  0
   58.5550   27.4050   47.3930 C   0  0  0  0  0  0  0  0  0  0  0  0
   58.8480   26.3680   48.2180 F   0  0  0  0  0  0  0  0  0  0  0  0
   57.8030   27.2010   46.2300 C   0  0  0  0  0  0  0  0  0  0  0  0
   57.2930   25.8940   45.9070 N   0  0  0  0  0  0  0  0  0  0  0  0
   55.8480   25.6400   45.9320 C   0  0  0  0  0  0  0  0  0  0  0  0
   55.4970   24.4380   45.0430 C   0  0  0  0  0  0  0  0  0  0  0  0
   56.3110   24.4600   43.8180 N   0  0  0  0  0  0  0  0  0  0  0  0
   57.7550   24.2790   44.0880 C   0  0  0  0  0  0  0  0  0  0  0  0
   58.1970   24.8280   45.4610 C   0  0  0  0  0  0  0  0  0  0  0  0
   57.5360   28.2840   45.3800 C   0  0  0  0  0  0  0  0  0  0  0  0
   58.0160   29.5840   45.6710 C   0  0  0  0  0  0  0  0  0  0  0  0
   57.7928   32.4680   43.0878 H   0  0  0  0  0  0  0  0  0  0  0  0
   58.1801   31.1324   41.9507 H   0  0  0  0  0  0  0  0  0  0  0  0
   56.5399   31.8648   41.9507 H   0  0  0  0  0  0  0  0  0  0  0  0
   55.8847   30.7433   43.8711 H   0  0  0  0  0  0  0  0  0  0  0  0
   57.0626   29.5476   43.2048 H   0  0  0  0  0  0  0  0  0  0  0  0
   58.0843   32.7379   44.4596 H   0  0  0  0  0  0  0  0  0  0  0  0
   62.3107   32.8116   45.7887 H   0  0  0  0  0  0  0  0  0  0  0  0
   64.4524   32.5693   47.0467 H   0  0  0  0  0  0  0  0  0  0  0  0
   62.5148   34.0217   50.6327 H   0  0  0  0  0  0  0  0  0  0  0  0
   60.3715   34.2667   49.3771 H   0  0  0  0  0  0  0  0  0  0  0  0
   59.6401   28.8200   48.6125 H   0  0  0  0  0  0  0  0  0  0  0  0
   55.5355   25.4293   46.9654 H   0  0  0  0  0  0  0  0  0  0  0  0
   55.3242   26.5290   45.5508 H   0  0  0  0  0  0  0  0  0  0  0  0
   55.6952   23.5073   45.5948 H   0  0  0  0  0  0  0  0  0  0  0  0
   54.4330   24.4916   44.7690 H   0  0  0  0  0  0  0  0  0  0  0  0
   55.9850   23.6930   43.1840 H   0  0  0  0  0  0  0  0  0  0  0  0
   56.1610   25.3690   43.3210 H   0  0  0  0  0  0  0  0  0  0  0  0
   57.9839   23.2037   44.0527 H   0  0  0  0  0  0  0  0  0  0  0  0
   58.3018   24.8468   43.3207 H   0  0  0  0  0  0  0  0  0  0  0  0
   58.1841   24.0114   46.1979 H   0  0  0  0  0  0  0  0  0  0  0  0
   59.2124   25.2406   45.3674 H   0  0  0  0  0  0  0  0  0  0  0  0
   56.9418   28.1203   44.4689 H   0  0  0  0  0  0  0  0  0  0  0  0
  1  2  1  0
  2  3  1  0
  3  4  1  0
  4  5  2  0
  5  6  1  0
  6  7  2  0
  6  8  2  0
  6  9  1  0
  9 10  2  0
 10 11  1  0
 11 12  2  0
 12 13  1  0
 12 14  1  0
 14 15  2  0
  5 16  1  0
 16 17  2  0
 16 18  1  0
 18 19  2  0
 19 20  1  0
 20 21  1  0
 20 22  2  0
 22 23  1  0
 23 24  1  0
 24 25  1  0
 25 26  1  0
 26 27  1  0
 27 28  1  0
 22 29  1  0
 29 30  2  0
 30  3  1  0
 15  9  1  0
 30 18  1  0
 28 23  1  0
  1 31  1  0
  1 32  1  0
  1 33  1  0
  2 34  1  0
  2 35  1  0
  4 36  1  0
 10 37  1  0
 11 38  1  0
 14 39  1  0
 15 40  1  0
 19 41  1  0
 24 42  1  0
 24 43  1  0
 25 44  1  0
 25 45  1  0
 26 46  1  0
 26 47  1  0
 27 48  1  0
 27 49  1  0
 28 50  1  0
 28 51  1  0
 29 52  1  0
M  CHG  1  26   1
M  END
>  <UniqueID>  (41) 
37

>  <SMILES>  (41) 
CCn1cc(S(=O)(=O)c2ccc(Br)cc2)c(=O)c2cc(F)c(N3CC[NH2+]CC3)cc21

>  <Energy>  (41) 
73.91721149339733

>  <Genealogy>  (41) 
CCn1cc(S(=O)(=O)c2ccc(Br)cc2)c(=O)c2cc(F)c(N3CC[NH2+]CC3)cc21 (protonated)
CCn1cc(S(=O)(=O)c2ccc(Br)cc2)c(=O)c2cc(F)c(N3CC[NH2+]CC3)cc21 (3D coordinates assigned)
CCn1cc(S(=O)(=O)c2ccc(Br)cc2)c(=O)c2cc(F)c(N3CC[NH2+]CC3)cc21 (nonaromatic ring conformer: 73.91721149339733 kcal/mol)

>  <smiles>  (41) 
CCn1cc(S(=O)(=O)c2ccc(Br)cc2)c(=O)c2cc(F)c(N3CCNCC3)cc21

>  <score_type>  (41) 
oracle

>  <origin>  (41) 
adg

>  <m_score__min__energy>  (41) 
-7.6699999999999999

>  <m_primary>  (41) 
energy

$$$$
41:0
     RDKit          3D

 50 52  0  0  0  0  0  0  0  0999 V2000
   57.4800   31.9330   44.5950 C   0  0  0  0  0  0  0  0  0  0  0  0
   58.4720   32.8060   45.3150 C   0  0  0  0  0  0  0  0  0  0  0  0
   58.3000   34.2020   45.3050 C   0  0  0  0  0  0  0  0  0  0  0  0
   59.2190   35.0340   45.9470 C   0  0  0  0  0  0  0  0  0  0  0  0
   60.3150   34.4840   46.6120 C   0  0  0  0  0  0  0  0  0  0  0  0
   60.4930   33.0990   46.6400 C   0  0  0  0  0  0  0  0  0  0  0  0
   59.5810   32.2460   45.9940 C   0  0  0  0  0  0  0  0  0  0  0  0
   59.7890   30.8230   46.0160 N   0  0  0  0  0  0  0  0  0  0  0  0
   58.8950   29.7960   47.0880 S   0  0  0  0  0  0  0  0  0  0  0  0
   59.5510   28.4450   47.1550 O   0  0  0  0  0  0  0  0  0  0  0  0
   57.4920   29.6330   46.5760 O   0  0  0  0  0  0  0  0  0  0  0  0
   58.9020   30.5130   48.6950 C   0  0  0  0  0  0  0  0  0  0  0  0
   58.5920   31.8710   48.8430 C   0  0  0  0  0  0  0  0  0  0  0  0
   58.4680   32.4270   50.1170 C   0  0  0  0  0  0  0  0  0  0  0  0
   58.6370   31.6280   51.2500 C   0  0  0  0  0  0  0  0  0  0  0  0
   58.9460   30.2630   51.1140 C   0  0  0  0  0  0  0  0  0  0  0  0
   59.0760   29.4020   52.2510 N   0  0  0  0  0  0  0  0  0  0  0  0
   58.0580   29.4900   53.6500 S   0  0  0  0  0  0  0  0  0  0  0  0
   58.5220   30.6040   54.5470 O   0  0  0  0  0  0  0  0  0  0  0  0
   58.1370   28.1940   54.4050 O   0  0  0  0  0  0  0  0  0  0  0  0
   56.3950   29.7420   53.1240 C   0  0  0  0  0  0  0  0  0  0  0  0
   55.9770   30.9830   52.6310 C   0  0  0  0  0  0  0  0  0  0  0  0
   54.6720   31.1500   52.1570 C   0  0  0  0  0  0  0  0  0  0  0  0
   53.7580   30.0750   52.1810 C   0  0  0  0  0  0  0  0  0  0  0  0
   52.3650   30.1830   51.6760 C   0  0  0  0  0  0  0  0  0  0  0  0
   52.0230   30.7470   50.5080 C   0  0  0  0  0  0  0  0  0  0  0  0
   51.2040   31.9680   50.4360 C   0  0  0  0  0  0  0  0  0  0  0  0
   50.6650   32.3290   49.3570 O   0  0  0  0  0  0  0  0  0  0  0  0
   51.0260   32.7390   51.5780 O   0  0  0  0  0  0  0  0  0  0  0  0
   54.1910   28.8340   52.6780 C   0  0  0  0  0  0  0  0  0  0  0  0
   55.4980   28.6690   53.1420 C   0  0  0  0  0  0  0  0  0  0  0  0
   59.0980   29.7180   49.8330 C   0  0  0  0  0  0  0  0  0  0  0  0
   56.8658   31.3925   45.3303 H   0  0  0  0  0  0  0  0  0  0  0  0
   56.8312   32.5584   43.9642 H   0  0  0  0  0  0  0  0  0  0  0  0
   58.0179   31.2100   43.9642 H   0  0  0  0  0  0  0  0  0  0  0  0
   57.4347   34.6416   44.7873 H   0  0  0  0  0  0  0  0  0  0  0  0
   59.0787   36.1249   45.9284 H   0  0  0  0  0  0  0  0  0  0  0  0
   61.0395   35.1415   47.1147 H   0  0  0  0  0  0  0  0  0  0  0  0
   61.3552   32.6714   47.1727 H   0  0  0  0  0  0  0  0  0  0  0  0
   60.6210   30.4100   45.5430 H   0  0  0  0  0  0  0  0  0  0  0  0
   58.4460   32.5006   47.9529 H   0  0  0  0  0  0  0  0  0  0  0  0
   58.2367   33.4966   50.2291 H   0  0  0  0  0  0  0  0  0  0  0  0
   58.5280   32.0681   52.2522 H   0  0  0  0  0  0  0  0  0  0  0  0
   56.6778   31.8307   52.6162 H   0  0  0  0  0  0  0  0  0  0  0  0
   54.3555   32.1268   51.7624 H   0  0  0  0  0  0  0  0  0  0  0  0
   51.5593   29.7726   52.3025 H   0  0  0  0  0  0  0  0  0  0  0  0
   52.3662   30.2813   49.5724 H   0  0  0  0  0  0  0  0  0  0  0  0
   53.4935   27.9838   52.7019 H   0  0  0  0  0  0  0  0  0  0  0  0
   55.8236   27.6900   53.5236 H   0  0  0  0  0  0  0  0  0  0  0  0
   59.3730   28.6591   49.7189 H   0  0  0  0  0  0  0  0  0  0  0  0
  1  2  1  0
  2  3  2  0
  3  4  1  0
  4  5  2  0
  5  6  1  0
  6  7  2  0
  7  8  1  0
  8  9  1  0
  9 10  2  0
  9 11  2  0
  9 12  1  0
 12 13  2  0
 13 14  1  0
 14 15  2  0
 15 16  1  0
 16 17  1  0
 17 18  1  0
 18 19  2  0
 18 20  2  0
 18 21  1  0
 21 22  2  0
 22 23  1  0
 23 24  2  0
 24 25  1  0
 25 26  2  3
 26 27  1  0
 27 28  2  0
 27 29  1  0
 24 30  1  0
 30 31  2  0
 16 32  2  0
  7  2  1  0
 32 12  1  0
 31 21  1  0
  1 33  1  0
  1 34  1  0
  1 35  1  0
  3 36  1  0
  4 37  1  0
  5 38  1  0
  6 39  1  0
  8 40  1  0
 13 41  1  0
 14 42  1  0
 15 43  1  0
 22 44  1  0
 23 45  1  0
 25 46  1  0
 26 47  1  0
 30 48  1  0
 31 49  1  0
 32 50  1  0
M  CHG  2  17  -1  29  -1
M  END
>  <UniqueID>  (42) 
38

>  <SMILES>  (42) 
Cc1ccccc1NS(=O)(=O)c1cccc([N-]S(=O)(=O)c2ccc(C=CC(=O)[O-])cc2)c1

>  <Energy>  (42) 
59.17890291305458

>  <Genealogy>  (42) 
Cc1ccccc1NS(=O)(=O)c1cccc([N-]S(=O)(=O)c2ccc(C=CC(=O)[O-])cc2)c1 (protonated)
Cc1ccccc1NS(=O)(=O)c1cccc([N-]S(=O)(=O)c2ccc(C=CC(=O)[O-])cc2)c1 (3D coordinates assigned)
Cc1ccccc1NS(=O)(=O)c1cccc([N-]S(=O)(=O)c2ccc(C=CC(=O)[O-])cc2)c1 (optimized conformer: 59.17890291305458 kcal/mol)

>  <smiles>  (42) 
Cc1ccccc1NS(=O)(=O)c1cccc(NS(=O)(=O)c2ccc(C=CC(=O)O)cc2)c1

>  <score_type>  (42) 
oracle

>  <origin>  (42) 
adg

>  <m_score__min__energy>  (42) 
-13.390000000000001

>  <m_primary>  (42) 
energy

$$$$
42:0
     RDKit          3D

 43 45  0  0  1  0  0  0  0  0999 V2000
   63.3550   33.5620   46.7380 C   0  0  0  0  0  0  0  0  0  0  0  0
   63.2790   33.8470   48.2390 C   0  0  0  0  0  0  0  0  0  0  0  0
   64.2960   33.0080   48.9400 C   0  0  0  0  0  0  0  0  0  0  0  0
   61.9450   33.7100   48.7610 N   0  0  0  0  0  0  0  0  0  0  0  0
   60.8760   33.4960   47.9450 C   0  0  0  0  0  0  0  0  0  0  0  0
   59.7270   33.4060   48.7130 C   0  0  0  0  0  0  0  0  0  0  0  0
   58.4510   33.1810   48.1420 N   0  0  0  0  0  0  0  0  0  0  0  0
   58.2150   33.1430   46.8740 C   0  0  0  0  0  0  0  0  0  0  0  0
   58.0110   31.9730   46.2130 N   0  0  0  0  0  0  0  0  0  0  0  0
   57.7580   31.9600   44.8830 C   0  0  0  0  0  0  0  0  0  0  0  0
   57.5200   30.7640   44.1580 N   0  0  0  0  0  0  0  0  0  0  0  0
   56.9760   30.9340   42.8080 C   0  0  0  0  0  0  0  0  0  0  0  0
   57.7920   29.4630   44.6300 C   0  0  0  0  0  0  0  0  0  0  0  0
   59.1260   29.0630   44.6470 C   0  0  0  0  0  0  0  0  0  0  0  0
   59.5150   27.8510   45.0830 N   0  0  0  0  0  0  0  0  0  0  0  0
   58.5920   26.9780   45.5190 C   0  0  0  0  0  0  0  0  0  0  0  0
   57.2480   27.3220   45.5240 C   0  0  0  0  0  0  0  0  0  0  0  0
   56.3290   26.3480   45.9930 C   0  0  0  0  0  0  0  0  0  0  0  0
   55.5850   25.5540   46.3760 N   0  0  0  0  0  0  0  0  0  0  0  0
   56.8430   28.5780   45.0750 C   0  0  0  0  0  0  0  0  0  0  0  0
   57.7070   33.1510   44.1850 C   0  0  0  0  0  0  0  0  0  0  0  0
   57.9170   34.3580   44.8620 C   0  0  0  0  0  0  0  0  0  0  0  0
   58.1660   34.3200   46.1920 N   0  0  0  0  0  0  0  0  0  0  0  0
   60.1390   33.5710   50.0040 C   0  0  0  0  0  0  0  0  0  0  0  0
   61.4920   33.7540   49.9990 N   0  0  0  0  0  0  0  0  0  0  0  0
   63.6354   32.5104   46.5782 H   0  0  0  0  0  0  0  0  0  0  0  0
   62.3743   33.7539   46.2782 H   0  0  0  0  0  0  0  0  0  0  0  0
   64.1099   34.2167   46.2782 H   0  0  0  0  0  0  0  0  0  0  0  0
   63.5247   34.9029   48.4256 H   0  0  0  0  0  0  0  0  0  0  0  0
   64.1702   33.1118   50.0278 H   0  0  0  0  0  0  0  0  0  0  0  0
   64.1620   31.9542   48.6543 H   0  0  0  0  0  0  0  0  0  0  0  0
   65.3051   33.3399   48.6543 H   0  0  0  0  0  0  0  0  0  0  0  0
   60.9184   33.4085   46.8493 H   0  0  0  0  0  0  0  0  0  0  0  0
   55.9279   31.2615   42.8736 H   0  0  0  0  0  0  0  0  0  0  0  0
   57.5637   31.6913   42.2685 H   0  0  0  0  0  0  0  0  0  0  0  0
   57.0280   29.9768   42.2685 H   0  0  0  0  0  0  0  0  0  0  0  0
   59.8925   29.7663   44.2895 H   0  0  0  0  0  0  0  0  0  0  0  0
   58.9035   25.9846   45.8741 H   0  0  0  0  0  0  0  0  0  0  0  0
   55.7785   28.8553   45.0775 H   0  0  0  0  0  0  0  0  0  0  0  0
   57.5027   33.1509   43.1041 H   0  0  0  0  0  0  0  0  0  0  0  0
   57.8805   35.3171   44.3246 H   0  0  0  0  0  0  0  0  0  0  0  0
   58.3200   35.2470   46.6920 H   0  0  0  0  0  0  0  0  0  0  0  0
   59.4928   33.5587   50.8941 H   0  0  0  0  0  0  0  0  0  0  0  0
  1  2  1  0
  2  3  1  0
  2  4  1  0
  4  5  1  0
  5  6  2  0
  6  7  1  0
  7  8  2  0
  8  9  1  0
  9 10  2  0
 10 11  1  0
 11 12  1  0
 11 13  1  0
 13 14  2  0
 14 15  1  0
 15 16  2  0
 16 17  1  0
 17 18  1  0
 18 19  3  0
 17 20  2  0
 10 21  1  0
 21 22  2  0
 22 23  1  0
  6 24  1  0
 24 25  2  0
 25  4  1  0
 23  8  1  0
 20 13  1  0
  1 26  1  0
  1 27  1  0
  1 28  1  0
  2 29  1  0
  3 30  1  0
  3 31  1  0
  3 32  1  0
  5 33  1  0
 12 34  1  0
 12 35  1  0
 12 36  1  0
 14 37  1  0
 16 38  1  0
 20 39  1  0
 21 40  1  0
 22 41  1  0
 23 42  1  0
 24 43  1  0
M  END
>  <smiles>  (43) 
CC(C)n1cc(N=c2nc(N(C)c3cncc(C#N)c3)cc[nH]2)cn1

>  <score_type>  (43) 
oracle

>  <origin>  (43) 
adg

>  <m_score__min__energy>  (43) 
-7.6699999999999999

>  <m_primary>  (43) 
energy

$$$$
43:0
     RDKit          3D

 37 38  0  0  0  0  0  0  0  0999 V2000
   55.2030   25.2930   45.6210 C   0  0  0  0  0  0  0  0  0  0  0  0
   55.7170   26.5810   45.9390 O   0  0  0  0  0  0  0  0  0  0  0  0
   57.0750   26.8210   46.1770 C   0  0  0  0  0  0  0  0  0  0  0  0
   57.6800   26.2960   47.2810 N   0  0  0  0  0  0  0  0  0  0  0  0
   58.9950   26.5000   47.5480 C   0  0  0  0  0  0  0  0  0  0  0  0
   59.7710   27.2680   46.6820 C   0  0  0  0  0  0  0  0  0  0  0  0
   59.1830   27.8210   45.5440 C   0  0  0  0  0  0  0  0  0  0  0  0
   57.8200   27.6000   45.2710 C   0  0  0  0  0  0  0  0  0  0  0  0
   57.1830   28.1530   44.1030 N   0  0  0  0  0  0  0  0  0  0  0  0
   56.4150   29.7100   44.0680 S   0  0  0  0  0  0  0  0  0  0  0  0
   56.0830   30.0660   42.6470 O   0  0  0  0  0  0  0  0  0  0  0  0
   55.1440   29.6480   44.8680 O   0  0  0  0  0  0  0  0  0  0  0  0
   57.5020   30.9330   44.7180 C   0  0  0  0  0  0  0  0  0  0  0  0
   58.1000   30.7520   45.9680 C   0  0  0  0  0  0  0  0  0  0  0  0
   58.9510   31.7300   46.4840 C   0  0  0  0  0  0  0  0  0  0  0  0
   59.2070   32.8970   45.7380 C   0  0  0  0  0  0  0  0  0  0  0  0
   60.0810   33.9420   46.2300 N   0  0  0  0  0  0  0  0  0  0  0  0
   59.6640   35.3500   46.2260 C   0  0  0  0  0  0  0  0  0  0  0  0
   61.4080   33.5780   46.7400 C   0  0  0  0  0  0  0  0  0  0  0  0
   58.6120   33.0390   44.5190 N   0  0  0  0  0  0  0  0  0  0  0  0
   57.7800   32.0990   43.9990 C   0  0  0  0  0  0  0  0  0  0  0  0
   54.9846   24.7458   46.5499 H   0  0  0  0  0  0  0  0  0  0  0  0
   54.2793   25.4016   45.0336 H   0  0  0  0  0  0  0  0  0  0  0  0
   55.9477   24.7358   45.0336 H   0  0  0  0  0  0  0  0  0  0  0  0
   59.4483   26.0591   48.4481 H   0  0  0  0  0  0  0  0  0  0  0  0
   60.8372   27.4367   46.8937 H   0  0  0  0  0  0  0  0  0  0  0  0
   59.7871   28.4322   44.8573 H   0  0  0  0  0  0  0  0  0  0  0  0
   57.2430   27.6430   43.1950 H   0  0  0  0  0  0  0  0  0  0  0  0
   57.8996   29.8376   46.5457 H   0  0  0  0  0  0  0  0  0  0  0  0
   59.4199   31.5902   47.4692 H   0  0  0  0  0  0  0  0  0  0  0  0
   59.5591   35.7043   47.2621 H   0  0  0  0  0  0  0  0  0  0  0  0
   60.4214   35.9553   45.7065 H   0  0  0  0  0  0  0  0  0  0  0  0
   58.6991   35.4452   45.7065 H   0  0  0  0  0  0  0  0  0  0  0  0
   61.3920   33.5824   47.8399 H   0  0  0  0  0  0  0  0  0  0  0  0
   61.6758   32.5732   46.3812 H   0  0  0  0  0  0  0  0  0  0  0  0
   62.1509   34.3055   46.3812 H   0  0  0  0  0  0  0  0  0  0  0  0
   57.3243   32.2559   43.0102 H   0  0  0  0  0  0  0  0  0  0  0  0
  1  2  1  0
  2  3  1  0
  3  4  2  0
  4  5  1  0
  5  6  2  0
  6  7  1  0
  7  8  2  0
  8  9  1  0
  9 10  1  0
 10 11  2  0
 10 12  2  0
 10 13  1  0
 13 14  2  0
 14 15  1  0
 15 16  2  0
 16 17  1  0
 17 18  1  0
 17 19  1  0
 16 20  1  0
 20 21  2  0
  8  3  1  0
 21 13  1  0
  1 22  1  0
  1 23  1  0
  1 24  1  0
  5 25  1  0
  6 26  1  0
  7 27  1  0
  9 28  1  0
 14 29  1  0
 15 30  1  0
 18 31  1  0
 18 32  1  0
 18 33  1  0
 19 34  1  0
 19 35  1  0
 19 36  1  0
 21 37  1  0
M  END
>  <UniqueID>  (44) 
39

>  <SMILES>  (44) 
COc1ncccc1NS(=O)(=O)c1ccc(N(C)C)nc1

>  <Energy>  (44) 
38.689943515793345

>  <Genealogy>  (44) 
COc1ncccc1NS(=O)(=O)c1ccc(N(C)C)nc1 (3D coordinates assigned)
COc1ncccc1NS(=O)(=O)c1ccc(N(C)C)nc1 (optimized conformer: 38.689943515793345 kcal/mol)

>  <smiles>  (44) 
COc1ncccc1NS(=O)(=O)c1ccc(N(C)C)nc1

>  <score_type>  (44) 
oracle

>  <origin>  (44) 
adg

>  <m_score__min__energy>  (44) 
-7.3600000000000003

>  <m_primary>  (44) 
energy

$$$$
44:0
     RDKit          3D

 27 28  0  0  0  0  0  0  0  0999 V2000
   55.7440   28.6130   44.8750 N   0  0  0  0  0  0  0  0  0  0  0  0
   56.4600   29.8510   44.8940 C   0  0  0  0  0  0  0  0  0  0  0  0
   55.9140   30.8790   44.4090 O   0  0  0  0  0  0  0  0  0  0  0  0
   57.8220   29.9380   45.4800 C   0  0  0  0  0  0  0  0  0  0  0  0
   58.3530   31.1980   45.8140 C   0  0  0  0  0  0  0  0  0  0  0  0
   59.6370   31.3100   46.3490 C   0  0  0  0  0  0  0  0  0  0  0  0
   60.4140   30.1700   46.5480 C   0  0  0  0  0  0  0  0  0  0  0  0
   59.9060   28.9120   46.2230 C   0  0  0  0  0  0  0  0  0  0  0  0
   58.6020   28.7780   45.7070 C   0  0  0  0  0  0  0  0  0  0  0  0
   58.0710   27.4830   45.3760 N   0  0  0  0  0  0  0  0  0  0  0  0
   57.5790   26.4950   46.2920 C   0  0  0  0  0  0  0  0  0  0  0  0
   58.1360   26.3310   47.4110 O   0  0  0  0  0  0  0  0  0  0  0  0
   56.3840   25.7020   45.9540 C   0  0  0  0  0  0  0  0  0  0  0  0
   56.4770   24.3500   45.5980 C   0  0  0  0  0  0  0  0  0  0  0  0
   55.3160   23.6440   45.2870 C   0  0  0  0  0  0  0  0  0  0  0  0
   54.0880   24.3020   45.3380 C   0  0  0  0  0  0  0  0  0  0  0  0
   53.0240   23.6890   45.0630 O   0  0  0  0  0  0  0  0  0  0  0  0
   54.0450   25.6130   45.6890 N   0  0  0  0  0  0  0  0  0  0  0  0
   55.1550   26.2900   45.9870 N   0  0  0  0  0  0  0  0  0  0  0  0
   54.7680   28.5800   44.5060 H   0  0  0  0  0  0  0  0  0  0  0  0
   56.1980   27.7180   45.1580 H   0  0  0  0  0  0  0  0  0  0  0  0
   57.7499   32.1035   45.6517 H   0  0  0  0  0  0  0  0  0  0  0  0
   60.0367   32.2999   46.6142 H   0  0  0  0  0  0  0  0  0  0  0  0
   61.4290   30.2624   46.9618 H   0  0  0  0  0  0  0  0  0  0  0  0
   60.5287   28.0174   46.3709 H   0  0  0  0  0  0  0  0  0  0  0  0
   57.4565   23.8506   45.5643 H   0  0  0  0  0  0  0  0  0  0  0  0
   55.3681   22.5820   45.0051 H   0  0  0  0  0  0  0  0  0  0  0  0
  1  2  1  0
  2  3  2  0
  2  4  1  0
  4  5  2  0
  5  6  1  0
  6  7  2  0
  7  8  1  0
  8  9  2  0
  9 10  1  0
 10 11  1  0
 11 12  2  0
 11 13  1  0
 13 14  1  0
 14 15  2  0
 15 16  1  0
 16 17  2  0
 16 18  1  0
 18 19  1  0
  9  4  1  0
 19 13  2  0
  1 20  1  0
  1 21  1  0
  5 22  1  0
  6 23  1  0
  7 24  1  0
  8 25  1  0
 14 26  1  0
 15 27  1  0
M  CHG  2  10  -1  18  -1
M  END
>  <UniqueID>  (45) 
40

>  <SMILES>  (45) 
NC(=O)c1ccccc1[N-]C(=O)c1ccc(=O)[n-]n1

>  <Energy>  (45) 
35.85640623063025

>  <Genealogy>  (45) 
NC(=O)c1ccccc1[N-]C(=O)c1ccc(=O)[n-]n1 (protonated)
NC(=O)c1ccccc1[N-]C(=O)c1ccc(=O)[n-]n1 (3D coordinates assigned)
NC(=O)c1ccccc1[N-]C(=O)c1ccc(=O)[n-]n1 (optimized conformer: 35.85640623063025 kcal/mol)

>  <smiles>  (45) 
NC(=O)c1ccccc1NC(=O)c1ccc(=O)[nH]n1

>  <score_type>  (45) 
oracle

>  <origin>  (45) 
adg

>  <m_score__min__energy>  (45) 
-10.82

>  <m_primary>  (45) 
energy

$$$$
45:0
     RDKit          3D

 46 48  0  0  1  0  0  0  0  0999 V2000
   58.1370   32.3680   51.6240 C   0  0  0  0  0  0  0  0  0  0  0  0
   58.3000   31.1730   50.7530 C   0  0  0  0  0  0  0  0  0  0  0  0
   57.5700   30.1400   50.9070 O   0  0  0  0  0  0  0  0  0  0  0  0
   59.3080   31.2460   49.7480 N   0  0  0  0  0  0  0  0  0  0  0  0
   59.5830   30.1870   48.8420 C   0  0  0  0  0  0  0  0  0  0  0  0
   59.9230   30.4260   47.5420 C   0  0  0  0  0  0  0  0  0  0  0  0
   60.1940   29.3850   46.6460 C   0  0  0  0  0  0  0  0  0  0  0  0
   60.1160   28.0790   47.0850 C   0  0  0  0  0  0  0  0  0  0  0  0
   60.3980   26.9740   46.1460 C   0  0  0  0  0  0  0  0  0  0  0  0
   58.8270   26.2000   45.6980 S   0  0  0  0  0  0  0  0  0  0  0  0
   57.6550   27.4780   45.3470 C   0  0  0  0  0  0  0  0  0  0  0  0
   56.4200   27.7410   45.6390 N   0  0  0  0  0  0  0  0  0  0  0  0
   55.8070   28.7820   45.2250 N   0  0  0  0  0  0  0  0  0  0  0  0
   56.4320   29.6530   44.4610 C   0  0  0  0  0  0  0  0  0  0  0  0
   56.1070   30.7510   43.9080 N   0  0  0  0  0  0  0  0  0  0  0  0
   57.0110   31.3730   43.0060 C   0  0  0  0  0  0  0  0  0  0  0  0
   56.8770   31.2000   41.7730 O   0  0  0  0  0  0  0  0  0  0  0  0
   58.0860   32.2150   43.6100 C   0  0  0  0  0  0  0  0  0  0  0  0
   57.5120   33.2100   44.4210 O   0  0  0  0  0  0  0  0  0  0  0  0
   58.2040   33.6830   45.5130 C   0  0  0  0  0  0  0  0  0  0  0  0
   59.1770   34.6510   45.4760 C   0  0  0  0  0  0  0  0  0  0  0  0
   59.8270   35.0730   46.6410 C   0  0  0  0  0  0  0  0  0  0  0  0
   59.5030   34.5200   47.8730 C   0  0  0  0  0  0  0  0  0  0  0  0
   58.5240   33.5490   47.8960 C   0  0  0  0  0  0  0  0  0  0  0  0
   57.8720   33.1210   46.7480 C   0  0  0  0  0  0  0  0  0  0  0  0
   58.0830   28.9720   44.2740 S   0  0  0  0  0  0  0  0  0  0  0  0
   59.7680   27.8330   48.4140 C   0  0  0  0  0  0  0  0  0  0  0  0
   59.5070   28.8620   49.2770 C   0  0  0  0  0  0  0  0  0  0  0  0
   58.1789   32.0609   52.6794 H   0  0  0  0  0  0  0  0  0  0  0  0
   58.9457   33.0847   51.4183 H   0  0  0  0  0  0  0  0  0  0  0  0
   57.1659   32.8420   51.4183 H   0  0  0  0  0  0  0  0  0  0  0  0
   59.9030   32.1200   49.6410 H   0  0  0  0  0  0  0  0  0  0  0  0
   59.9859   31.4657   47.1883 H   0  0  0  0  0  0  0  0  0  0  0  0
   60.4662   29.6057   45.6033 H   0  0  0  0  0  0  0  0  0  0  0  0
   60.8898   27.3678   45.2443 H   0  0  0  0  0  0  0  0  0  0  0  0
   61.0650   26.2363   46.6161 H   0  0  0  0  0  0  0  0  0  0  0  0
   54.7700   28.9600   45.4980 H   0  0  0  0  0  0  0  0  0  0  0  0
   58.7461   31.5817   44.2209 H   0  0  0  0  0  0  0  0  0  0  0  0
   58.6684   32.6915   42.8076 H   0  0  0  0  0  0  0  0  0  0  0  0
   59.4509   35.1036   44.5116 H   0  0  0  0  0  0  0  0  0  0  0  0
   60.6026   35.8507   46.5804 H   0  0  0  0  0  0  0  0  0  0  0  0
   60.0078   34.8440   48.7950 H   0  0  0  0  0  0  0  0  0  0  0  0
   58.2496   33.0967   48.8604 H   0  0  0  0  0  0  0  0  0  0  0  0
   57.0972   32.3426   46.8104 H   0  0  0  0  0  0  0  0  0  0  0  0
   59.7025   26.7954   48.7733 H   0  0  0  0  0  0  0  0  0  0  0  0
   59.2355   28.6443   50.3205 H   0  0  0  0  0  0  0  0  0  0  0  0
  1  2  1  0
  2  3  2  0
  2  4  1  0
  4  5  1  0
  5  6  2  0
  6  7  1  0
  7  8  2  0
  8  9  1  0
  9 10  1  0
 10 11  1  0
 11 12  2  0
 12 13  1  0
 13 14  1  0
 14 15  2  0
 15 16  1  0
 16 17  2  0
 16 18  1  0
 18 19  1  0
 19 20  1  0
 20 21  2  0
 21 22  1  0
 22 23  2  0
 23 24  1  0
 24 25  2  0
 14 26  1  0
  8 27  1  0
 27 28  2  0
 28  5  1  0
 26 11  1  0
 25 20  1  0
  1 29  1  0
  1 30  1  0
  1 31  1  0
  4 32  1  0
  6 33  1  0
  7 34  1  0
  9 35  1  0
  9 36  1  0
 13 37  1  0
 18 38  1  0
 18 39  1  0
 21 40  1  0
 22 41  1  0
 23 42  1  0
 24 43  1  0
 25 44  1  0
 27 45  1  0
 28 46  1  0
M  END
>  <smiles>  (46) 
CC(=O)Nc1ccc(CSc2n[nH]c(=NC(=O)COc3ccccc3)s2)cc1

>  <score_type>  (46) 
oracle

>  <origin>  (46) 
adg

>  <m_score__min__energy>  (46) 
-10.039999999999999

>  <m_primary>  (46) 
energy

$$$$
46:0
     RDKit          3D

 48 50  0  0  0  0  0  0  0  0999 V2000
   56.0700   30.7850   44.8040 O   0  0  0  0  0  0  0  0  0  0  0  0
   57.0680   30.3000   44.2050 C   0  0  0  0  0  0  0  0  0  0  0  0
   57.0080   28.8920   43.7000 C   0  0  0  0  0  0  0  0  0  0  0  0
   57.6880   27.9760   44.6800 C   0  0  0  0  0  0  0  0  0  0  0  0
   57.7810   26.6010   44.4140 C   0  0  0  0  0  0  0  0  0  0  0  0
   58.4420   25.7560   45.3070 C   0  0  0  0  0  0  0  0  0  0  0  0
   59.0340   26.2770   46.4610 C   0  0  0  0  0  0  0  0  0  0  0  0
   58.9880   27.6570   46.7230 C   0  0  0  0  0  0  0  0  0  0  0  0
   59.5930   28.2210   47.9840 C   0  0  0  0  0  0  0  0  0  0  0  0
   58.6410   28.9740   48.6480 F   0  0  0  0  0  0  0  0  0  0  0  0
   60.0260   27.2050   48.8190 F   0  0  0  0  0  0  0  0  0  0  0  0
   60.6770   29.0270   47.6830 F   0  0  0  0  0  0  0  0  0  0  0  0
   58.2940   28.4980   45.8350 C   0  0  0  0  0  0  0  0  0  0  0  0
   58.2620   31.0770   44.0280 N   0  0  0  0  0  0  0  0  0  0  0  0
   58.5580   32.2610   44.7850 C   0  0  0  0  0  0  0  0  0  0  0  0
   58.4940   33.5150   44.1620 C   0  0  0  0  0  0  0  0  0  0  0  0
   58.7900   34.6750   44.8800 C   0  0  0  0  0  0  0  0  0  0  0  0
   59.1710   34.5930   46.2220 C   0  0  0  0  0  0  0  0  0  0  0  0
   59.2740   33.3450   46.8470 C   0  0  0  0  0  0  0  0  0  0  0  0
   59.7630   33.2400   48.5370 S   0  0  0  0  0  0  0  0  0  0  0  0
   58.9630   32.1590   49.2100 O   0  0  0  0  0  0  0  0  0  0  0  0
   59.4780   34.5450   49.2290 O   0  0  0  0  0  0  0  0  0  0  0  0
   61.4660   32.8620   48.6450 N   0  0  0  0  0  0  0  0  0  0  0  0
   61.7650   31.6470   47.8590 C   0  0  0  0  0  0  0  0  0  0  0  0
   63.2580   31.5880   47.4960 C   0  0  0  0  0  0  0  0  0  0  0  0
   63.7140   32.6930   46.7240 O   0  0  0  0  0  0  0  0  0  0  0  0
   62.9010   33.8510   46.8440 C   0  0  0  0  0  0  0  0  0  0  0  0
   62.2950   34.0220   48.2490 C   0  0  0  0  0  0  0  0  0  0  0  0
   58.9700   32.1810   46.1280 C   0  0  0  0  0  0  0  0  0  0  0  0
   55.9569   28.5890   43.5840 H   0  0  0  0  0  0  0  0  0  0  0  0
   57.5180   28.8304   42.7273 H   0  0  0  0  0  0  0  0  0  0  0  0
   57.3315   26.1880   43.4989 H   0  0  0  0  0  0  0  0  0  0  0  0
   58.4972   24.6767   45.1019 H   0  0  0  0  0  0  0  0  0  0  0  0
   59.5390   25.6028   47.1684 H   0  0  0  0  0  0  0  0  0  0  0  0
   58.2249   29.5752   46.0468 H   0  0  0  0  0  0  0  0  0  0  0  0
   58.9280   30.7950   43.2720 H   0  0  0  0  0  0  0  0  0  0  0  0
   58.2091   33.5854   43.1019 H   0  0  0  0  0  0  0  0  0  0  0  0
   58.7231   35.6565   44.3879 H   0  0  0  0  0  0  0  0  0  0  0  0
   59.3902   35.5105   46.7878 H   0  0  0  0  0  0  0  0  0  0  0  0
   61.5025   30.7591   48.4529 H   0  0  0  0  0  0  0  0  0  0  0  0
   61.1761   31.6729   46.9303 H   0  0  0  0  0  0  0  0  0  0  0  0
   63.8391   31.5559   48.4294 H   0  0  0  0  0  0  0  0  0  0  0  0
   63.3977   30.6899   46.8763 H   0  0  0  0  0  0  0  0  0  0  0  0
   63.5156   34.7349   46.6181 H   0  0  0  0  0  0  0  0  0  0  0  0
   62.0648   33.7387   46.1382 H   0  0  0  0  0  0  0  0  0  0  0  0
   63.1126   34.1377   48.9758 H   0  0  0  0  0  0  0  0  0  0  0  0
   61.6464   34.9103   48.2313 H   0  0  0  0  0  0  0  0  0  0  0  0
   59.0540   31.1990   46.6165 H   0  0  0  0  0  0  0  0  0  0  0  0
  1  2  2  0
  2  3  1  0
  3  4  1  0
  4  5  2  0
  5  6  1  0
  6  7  2  0
  7  8  1  0
  8  9  1  0
  9 10  1  0
  9 11  1  0
  9 12  1  0
  8 13  2  0
  2 14  1  0
 14 15  1  0
 15 16  2  0
 16 17  1  0
 17 18  2  0
 18 19  1  0
 19 20  1  0
 20 21  2  0
 20 22  2  0
 20 23  1  0
 23 24  1  0
 24 25  1  0
 25 26  1  0
 26 27  1  0
 27 28  1  0
 19 29  2  0
 13  4  1  0
 29 15  1  0
 28 23  1  0
  3 30  1  0
  3 31  1  0
  5 32  1  0
  6 33  1  0
  7 34  1  0
 13 35  1  0
 14 36  1  0
 16 37  1  0
 17 38  1  0
 18 39  1  0
 24 40  1  0
 24 41  1  0
 25 42  1  0
 25 43  1  0
 27 44  1  0
 27 45  1  0
 28 46  1  0
 28 47  1  0
 29 48  1  0
M  END
>  <UniqueID>  (47) 
41

>  <SMILES>  (47) 
O=C(Cc1cccc(C(F)(F)F)c1)Nc1cccc(S(=O)(=O)N2CCOCC2)c1

>  <Energy>  (47) 
62.68495566009508

>  <Genealogy>  (47) 
O=C(Cc1cccc(C(F)(F)F)c1)Nc1cccc(S(=O)(=O)N2CCOCC2)c1 (3D coordinates assigned)
O=C(Cc1cccc(C(F)(F)F)c1)Nc1cccc(S(=O)(=O)N2CCOCC2)c1 (nonaromatic ring conformer: 62.68495566009508 kcal/mol)

>  <smiles>  (47) 
O=C(Cc1cccc(C(F)(F)F)c1)Nc1cccc(S(=O)(=O)N2CCOCC2)c1

>  <score_type>  (47) 
oracle

>  <origin>  (47) 
adg

>  <m_score__min__energy>  (47) 
-9.7699999999999996

>  <m_primary>  (47) 
energy

$$$$
47:0
     RDKit          3D

 39 40  0  0  0  0  0  0  0  0999 V2000
   56.6421   27.8065   46.5197 H   0  0  0  0  0  0  0  0  0  0  0  0
   57.2720   26.9120   46.6340 C   0  0  0  0  0  0  0  0  0  0  0  0
   58.3100   26.9860   47.4180 N   0  0  0  0  0  0  0  0  0  0  0  0
   59.6650   27.3980   47.0480 C   0  0  0  0  0  0  0  0  0  0  0  0
   60.0283   28.1202   47.7939 H   0  0  0  0  0  0  0  0  0  0  0  0
   60.2888   26.4925   47.0175 H   0  0  0  0  0  0  0  0  0  0  0  0
   59.7330   28.0560   45.6500 C   0  0  0  0  0  0  0  0  0  0  0  0
   60.6549   28.6542   45.6034 H   0  0  0  0  0  0  0  0  0  0  0  0
   59.6998   27.2265   44.9283 H   0  0  0  0  0  0  0  0  0  0  0  0
   58.5980   28.9420   45.2960 N   0  0  0  0  0  0  0  0  0  0  0  0
   58.8790   30.3790   45.4810 C   0  0  0  0  0  0  0  0  0  0  0  0
   59.0323   30.5789   46.5518 H   0  0  0  0  0  0  0  0  0  0  0  0
   59.7804   30.6329   44.9039 H   0  0  0  0  0  0  0  0  0  0  0  0
   57.7120   31.2510   44.9690 C   0  0  0  0  0  0  0  0  0  0  0  0
   57.5569   32.0866   45.6674 H   0  0  0  0  0  0  0  0  0  0  0  0
   57.9721   31.6218   43.9666 H   0  0  0  0  0  0  0  0  0  0  0  0
   56.4680   30.4780   44.8660 N   0  0  0  0  0  0  0  0  0  0  0  0
   56.2400   30.0840   45.8100 H   0  0  0  0  0  0  0  0  0  0  0  0
   56.6040   29.3680   43.9060 C   0  0  0  0  0  0  0  0  0  0  0  0
   55.8144   28.6296   44.1092 H   0  0  0  0  0  0  0  0  0  0  0  0
   56.5168   29.7934   42.8954 H   0  0  0  0  0  0  0  0  0  0  0  0
   57.9720   28.6620   43.9940 C   0  0  0  0  0  0  0  0  0  0  0  0
   57.8300   27.5768   43.8835 H   0  0  0  0  0  0  0  0  0  0  0  0
   58.6244   29.0356   43.1910 H   0  0  0  0  0  0  0  0  0  0  0  0
   56.8950   25.6940   45.8910 C   0  0  0  0  0  0  0  0  0  0  0  0
   57.8680   24.7510   45.5240 C   0  0  0  0  0  0  0  0  0  0  0  0
   58.9235   24.9263   45.7791 H   0  0  0  0  0  0  0  0  0  0  0  0
   57.5030   23.5920   44.8370 C   0  0  0  0  0  0  0  0  0  0  0  0
   58.2760   22.8681   44.5398 H   0  0  0  0  0  0  0  0  0  0  0  0
   56.1620   23.3430   44.5230 C   0  0  0  0  0  0  0  0  0  0  0  0
   55.8470   22.1650   43.8300 O   0  0  0  0  0  0  0  0  0  0  0  0
   56.7990   21.3490   43.1550 C   0  0  0  0  0  0  0  0  0  0  0  0
   57.4174   20.8190   43.8944 H   0  0  0  0  0  0  0  0  0  0  0  0
   56.2730   20.6169   42.5246 H   0  0  0  0  0  0  0  0  0  0  0  0
   57.4420   21.9808   42.5246 H   0  0  0  0  0  0  0  0  0  0  0  0
   55.1810   24.2750   44.9140 C   0  0  0  0  0  0  0  0  0  0  0  0
   54.1230   24.0868   44.6788 H   0  0  0  0  0  0  0  0  0  0  0  0
   55.5450   25.4390   45.6000 C   0  0  0  0  0  0  0  0  0  0  0  0
   54.5590   26.3420   45.9810 O   0  0  0  0  0  0  0  0  0  0  0  0
  1  2  1  0
  2  3  2  0
  3  4  1  0
  4  5  1  0
  4  6  1  0
  4  7  1  0
  7  8  1  0
  7  9  1  0
  7 10  1  0
 10 11  1  0
 11 12  1  0
 11 13  1  0
 11 14  1  0
 14 15  1  0
 14 16  1  0
 14 17  1  0
 17 18  1  0
 17 19  1  0
 19 20  1  0
 19 21  1  0
 19 22  1  0
 22 23  1  0
 22 24  1  0
  2 25  1  0
 25 26  2  0
 26 27  1  0
 26 28  1  0
 28 29  1  0
 28 30  2  0
 30 31  1  0
 31 32  1  0
 32 33  1  0
 32 34  1  0
 32 35  1  0
 30 36  1  0
 36 37  1  0
 36 38  2  0
 38 39  1  0
 22 10  1  0
 38 25  1  0
M  CHG  1  39  -1
M  END
>  <UniqueID>  (48) 
42

>  <SMILES>  (48) 
COc1ccc(/C=N\CCN2CCNCC2)c([O-])c1

>  <Energy>  (48) 
55.22034757673919

>  <Genealogy>  (48) 
COc1ccc(C=NCCN2CCNCC2)c([O-])c1 (protonated)
COc1ccc(/C=N\CCN2CCNCC2)c([O-])c1 (cis-trans isomerization)
COc1ccc(/C=N\CCN2CCNCC2)c([O-])c1 (3D coordinates assigned)
COc1ccc(/C=N\CCN2CCNCC2)c([O-])c1 (nonaromatic ring conformer: 55.22034757673919 kcal/mol)

>  <smiles>  (48) 
COc1ccc(C=NCCN2CCNCC2)c(O)c1

>  <score_type>  (48) 
oracle

>  <origin>  (48) 
adg

>  <m_score__min__energy>  (48) 
-10.41

>  <m_primary>  (48) 
energy

$$$$
48:0
     RDKit          3D

 56 58  0  0  1  0  0  0  0  0999 V2000
   59.5720   35.1210   45.4870 C   0  0  0  0  0  0  0  0  0  0  0  0
   58.2220   34.5790   45.1250 C   0  0  0  0  0  0  0  0  0  0  0  0
   58.1680   33.0880   45.1390 C   0  0  0  0  0  0  0  0  0  0  0  0
   58.1180   32.3600   46.3060 C   0  0  0  0  0  0  0  0  0  0  0  0
   58.1240   33.0670   47.6210 C   0  0  0  0  0  0  0  0  0  0  0  0
   58.0690   31.0030   46.3100 N   0  0  0  0  0  0  0  0  0  0  0  0
   58.0690   30.3930   45.1200 C   0  0  0  0  0  0  0  0  0  0  0  0
   58.0220   28.9680   44.9720 N   0  0  0  0  0  0  0  0  0  0  0  0
   57.9020   28.3450   43.8130 N   0  0  0  0  0  0  0  0  0  0  0  0
   57.8860   26.9990   44.0080 C   0  0  0  0  0  0  0  0  0  0  0  0
   57.7610   25.9570   42.9330 C   0  0  0  0  0  0  0  0  0  0  0  0
   58.0030   26.8190   45.3670 C   0  0  0  0  0  0  0  0  0  0  0  0
   58.0870   28.0550   45.9560 C   0  0  0  0  0  0  0  0  0  0  0  0
   58.2070   28.3900   47.1960 N   0  0  0  0  0  0  0  0  0  0  0  0
   59.4990   28.3080   47.7770 C   0  0  0  0  0  0  0  0  0  0  0  0
   59.9050   27.1520   48.1110 O   0  0  0  0  0  0  0  0  0  0  0  0
   60.3730   29.4250   48.0140 C   0  0  0  0  0  0  0  0  0  0  0  0
   60.8460   30.1070   46.8870 C   0  0  0  0  0  0  0  0  0  0  0  0
   61.6890   31.1940   47.0020 C   0  0  0  0  0  0  0  0  0  0  0  0
   62.0880   31.6380   48.2630 C   0  0  0  0  0  0  0  0  0  0  0  0
   62.9850   32.8070   48.3020 C   0  0  0  0  0  0  0  0  0  0  0  0
   63.5200   33.1440   46.9140 C   0  0  0  0  0  0  0  0  0  0  0  0
   64.1990   32.5690   49.1910 C   0  0  0  0  0  0  0  0  0  0  0  0
   62.2490   34.0020   48.8680 C   0  0  0  0  0  0  0  0  0  0  0  0
   61.6280   30.9730   49.3800 C   0  0  0  0  0  0  0  0  0  0  0  0
   60.7730   29.8720   49.2550 C   0  0  0  0  0  0  0  0  0  0  0  0
   58.1180   31.0930   43.9580 N   0  0  0  0  0  0  0  0  0  0  0  0
   58.1680   32.4330   43.9230 C   0  0  0  0  0  0  0  0  0  0  0  0
   58.2130   33.0590   42.8150 O   0  0  0  0  0  0  0  0  0  0  0  0
   59.6698   35.1603   46.5819 H   0  0  0  0  0  0  0  0  0  0  0  0
   60.3530   34.4667   45.0723 H   0  0  0  0  0  0  0  0  0  0  0  0
   59.6838   36.1337   45.0723 H   0  0  0  0  0  0  0  0  0  0  0  0
   57.4855   34.9630   45.8462 H   0  0  0  0  0  0  0  0  0  0  0  0
   58.0013   34.9060   44.0982 H   0  0  0  0  0  0  0  0  0  0  0  0
   58.1177   32.3272   48.4351 H   0  0  0  0  0  0  0  0  0  0  0  0
   59.0275   33.6897   47.6984 H   0  0  0  0  0  0  0  0  0  0  0  0
   57.2312   33.7050   47.6984 H   0  0  0  0  0  0  0  0  0  0  0  0
   58.0310   30.4480   47.1690 H   0  0  0  0  0  0  0  0  0  0  0  0
   57.8310   28.8110   42.8820 H   0  0  0  0  0  0  0  0  0  0  0  0
   57.6421   24.9659   43.3951 H   0  0  0  0  0  0  0  0  0  0  0  0
   56.8829   26.1781   42.3084 H   0  0  0  0  0  0  0  0  0  0  0  0
   58.6664   25.9641   42.3084 H   0  0  0  0  0  0  0  0  0  0  0  0
   58.0253   25.8518   45.8904 H   0  0  0  0  0  0  0  0  0  0  0  0
   60.5388   29.7689   45.8863 H   0  0  0  0  0  0  0  0  0  0  0  0
   62.0464   31.7104   46.0989 H   0  0  0  0  0  0  0  0  0  0  0  0
   64.4472   33.7280   47.0103 H   0  0  0  0  0  0  0  0  0  0  0  0
   63.7280   32.2136   46.3654 H   0  0  0  0  0  0  0  0  0  0  0  0
   62.7706   33.7335   46.3654 H   0  0  0  0  0  0  0  0  0  0  0  0
   63.8973   32.6281   50.2472 H   0  0  0  0  0  0  0  0  0  0  0  0
   64.6154   31.5721   48.9839 H   0  0  0  0  0  0  0  0  0  0  0  0
   64.9609   33.3349   48.9839 H   0  0  0  0  0  0  0  0  0  0  0  0
   62.2741   33.9613   49.9670 H   0  0  0  0  0  0  0  0  0  0  0  0
   62.7337   34.9277   48.5242 H   0  0  0  0  0  0  0  0  0  0  0  0
   61.2042   33.9857   48.5242 H   0  0  0  0  0  0  0  0  0  0  0  0
   61.9364   31.3115   50.3801 H   0  0  0  0  0  0  0  0  0  0  0  0
   60.4156   29.3568   50.1588 H   0  0  0  0  0  0  0  0  0  0  0  0
  1  2  1  0
  2  3  1  0
  3  4  2  0
  4  5  1  0
  4  6  1  0
  6  7  1  0
  7  8  1  0
  8  9  1  0
  9 10  1  0
 10 11  1  0
 10 12  2  0
 12 13  1  0
 13 14  2  0
 14 15  1  0
 15 16  2  0
 15 17  1  0
 17 18  2  0
 18 19  1  0
 19 20  2  0
 20 21  1  0
 21 22  1  0
 21 23  1  0
 21 24  1  0
 20 25  1  0
 25 26  2  0
  7 27  2  0
 27 28  1  0
 28 29  2  0
 28  3  1  0
 13  8  1  0
 26 17  1  0
  1 30  1  0
  1 31  1  0
  1 32  1  0
  2 33  1  0
  2 34  1  0
  5 35  1  0
  5 36  1  0
  5 37  1  0
  6 38  1  0
  9 39  1  0
 11 40  1  0
 11 41  1  0
 11 42  1  0
 12 43  1  0
 18 44  1  0
 19 45  1  0
 22 46  1  0
 22 47  1  0
 22 48  1  0
 23 49  1  0
 23 50  1  0
 23 51  1  0
 24 52  1  0
 24 53  1  0
 24 54  1  0
 25 55  1  0
 26 56  1  0
M  END
>  <smiles>  (49) 
CCc1c(C)[nH]c(-n2[nH]c(C)cc2=NC(=O)c2ccc(C(C)(C)C)cc2)nc1=O

>  <score_type>  (49) 
oracle

>  <origin>  (49) 
adg

>  <m_score__min__energy>  (49) 
-8.9700000000000006

>  <m_primary>  (49) 
energy

$$$$
49:0
     RDKit          3D

 35 37  0  0  0  0  0  0  0  0999 V2000
   57.3410   33.9380   45.3610 C   0  0  0  0  0  0  0  0  0  0  0  0
   57.3240   33.4340   46.6490 C   0  0  0  0  0  0  0  0  0  0  0  0
   58.4920   33.5490   47.3700 C   0  0  0  0  0  0  0  0  0  0  0  0
   59.6420   34.1250   46.8890 C   0  0  0  0  0  0  0  0  0  0  0  0
   60.8550   34.2000   47.7530 C   0  0  0  0  0  0  0  0  0  0  0  0
   62.3190   33.6150   46.8740 S   0  0  0  0  0  0  0  0  0  0  0  0
   62.6090   31.8870   47.3290 C   0  0  0  0  0  0  0  0  0  0  0  0
   61.3080   31.2440   47.7690 C   0  0  0  0  0  0  0  0  0  0  0  0
   61.0740   31.1030   49.1550 C   0  0  0  0  0  0  0  0  0  0  0  0
   59.4390   30.3020   49.2030 S   0  0  0  0  0  0  0  0  0  0  0  0
   59.2880   30.2630   47.3460 C   0  0  0  0  0  0  0  0  0  0  0  0
   58.1400   29.7150   46.6890 N   0  0  0  0  0  0  0  0  0  0  0  0
   57.7730   30.1130   45.5280 C   0  0  0  0  0  0  0  0  0  0  0  0
   56.5180   29.7380   45.1380 N   0  0  0  0  0  0  0  0  0  0  0  0
   55.9930   30.0750   43.9570 C   0  0  0  0  0  0  0  0  0  0  0  0
   56.7950   30.8460   43.1100 C   0  0  0  0  0  0  0  0  0  0  0  0
   58.0630   31.2280   43.4980 C   0  0  0  0  0  0  0  0  0  0  0  0
   58.5310   30.8550   44.7020 N   0  0  0  0  0  0  0  0  0  0  0  0
   60.4110   30.8200   46.9560 N   0  0  0  0  0  0  0  0  0  0  0  0
   59.6570   34.6330   45.5900 C   0  0  0  0  0  0  0  0  0  0  0  0
   58.4840   34.5150   44.8690 C   0  0  0  0  0  0  0  0  0  0  0  0
   56.4401   33.8762   44.7328 H   0  0  0  0  0  0  0  0  0  0  0  0
   56.4246   32.9657   47.0753 H   0  0  0  0  0  0  0  0  0  0  0  0
   58.5043   33.1542   48.3966 H   0  0  0  0  0  0  0  0  0  0  0  0
   61.0136   35.2446   48.0590 H   0  0  0  0  0  0  0  0  0  0  0  0
   60.6968   33.5583   48.6323 H   0  0  0  0  0  0  0  0  0  0  0  0
   63.0091   31.3433   46.4605 H   0  0  0  0  0  0  0  0  0  0  0  0
   63.3313   31.8469   48.1577 H   0  0  0  0  0  0  0  0  0  0  0  0
   61.7181   31.4021   49.9950 H   0  0  0  0  0  0  0  0  0  0  0  0
   54.9798   29.7615   43.6651 H   0  0  0  0  0  0  0  0  0  0  0  0
   56.4116   31.1509   42.1251 H   0  0  0  0  0  0  0  0  0  0  0  0
   58.6876   31.8345   42.8257 H   0  0  0  0  0  0  0  0  0  0  0  0
   59.4800   31.1120   45.0510 H   0  0  0  0  0  0  0  0  0  0  0  0
   60.5550   35.1027   45.1622 H   0  0  0  0  0  0  0  0  0  0  0  0
   58.4659   34.9064   43.8412 H   0  0  0  0  0  0  0  0  0  0  0  0
  1  2  2  0
  2  3  1  0
  3  4  2  0
  4  5  1  0
  5  6  1  0
  6  7  1  0
  7  8  1  0
  8  9  2  0
  9 10  1  0
 10 11  1  0
 11 12  1  0
 12 13  2  3
 13 14  1  0
 14 15  2  0
 15 16  1  0
 16 17  2  0
 17 18  1  0
 11 19  2  0
  4 20  1  0
 20 21  2  0
 21  1  1  0
 19  8  1  0
 18 13  1  0
  1 22  1  0
  2 23  1  0
  3 24  1  0
  5 25  1  0
  5 26  1  0
  7 27  1  0
  7 28  1  0
  9 29  1  0
 15 30  1  0
 16 31  1  0
 17 32  1  0
 18 33  1  0
 20 34  1  0
 21 35  1  0
M  END
>  <smiles>  (50) 
c1ccc(CSCc2csc(N=c3nccc[nH]3)n2)cc1

>  <score_type>  (50) 
oracle

>  <origin>  (50) 
adg

>  <m_score__min__energy>  (50) 
-6.75

>  <m_primary>  (50) 
energy

$$$$
50:0
     RDKit          3D

 39 40  0  0  0  0  0  0  0  0999 V2000
   54.6390   24.8620   45.6040 C   0  0  0  0  0  0  0  0  0  0  0  0
   55.3250   26.0100   46.0560 O   0  0  0  0  0  0  0  0  0  0  0  0
   56.7100   25.8960   45.7880 C   0  0  0  0  0  0  0  0  0  0  0  0
   57.5300   26.1770   47.0500 C   0  0  0  0  0  0  0  0  0  0  0  0
   57.7760   27.5740   47.1920 O   0  0  0  0  0  0  0  0  0  0  0  0
   59.0600   28.1290   47.2640 C   0  0  0  0  0  0  0  0  0  0  0  0
   59.9620   27.5740   47.9510 O   0  0  0  0  0  0  0  0  0  0  0  0
   59.3700   29.3850   46.5000 C   0  0  1  0  0  0  0  0  0  0  0  0
   59.7940   29.0020   45.0940 C   0  0  0  0  0  0  0  0  0  0  0  0
   61.2070   28.5900   44.8220 C   0  0  0  0  0  0  0  0  0  0  0  0
   58.9220   28.9110   44.1320 N   0  0  0  0  0  0  0  0  0  0  0  0
   57.5560   29.2880   44.3080 C   0  0  0  0  0  0  0  0  0  0  0  0
   56.7160   29.0500   43.4020 O   0  0  0  0  0  0  0  0  0  0  0  0
   57.1570   29.9630   45.5030 N   0  0  0  0  0  0  0  0  0  0  0  0
   58.1490   30.3480   46.5110 C   0  0  2  0  0  0  0  0  0  0  0  0
   58.5800   31.7910   46.3190 C   0  0  0  0  0  0  0  0  0  0  0  0
   59.7360   32.3060   46.9410 C   0  0  0  0  0  0  0  0  0  0  0  0
   60.0900   33.6480   46.7780 C   0  0  0  0  0  0  0  0  0  0  0  0
   59.2950   34.4950   46.0030 C   0  0  0  0  0  0  0  0  0  0  0  0
   59.6400   35.7970   45.8480 F   0  0  0  0  0  0  0  0  0  0  0  0
   58.1380   34.0020   45.3950 C   0  0  0  0  0  0  0  0  0  0  0  0
   57.7790   32.6600   45.5550 C   0  0  0  0  0  0  0  0  0  0  0  0
   54.2905   24.2788   46.4691 H   0  0  0  0  0  0  0  0  0  0  0  0
   53.7750   25.1670   44.9954 H   0  0  0  0  0  0  0  0  0  0  0  0
   55.3170   24.2456   44.9954 H   0  0  0  0  0  0  0  0  0  0  0  0
   56.9270   24.8767   45.4358 H   0  0  0  0  0  0  0  0  0  0  0  0
   56.9830   26.6321   45.0175 H   0  0  0  0  0  0  0  0  0  0  0  0
   56.9746   25.8173   47.9287 H   0  0  0  0  0  0  0  0  0  0  0  0
   58.4948   25.6552   46.9676 H   0  0  0  0  0  0  0  0  0  0  0  0
   60.1976   29.9301   46.9775 H   0  0  0  0  0  0  0  0  0  0  0  0
   61.7341   28.4363   45.7752 H   0  0  0  0  0  0  0  0  0  0  0  0
   61.2113   27.6532   44.2455 H   0  0  0  0  0  0  0  0  0  0  0  0
   61.7141   29.3777   44.2455 H   0  0  0  0  0  0  0  0  0  0  0  0
   56.1690   30.2850   45.6080 H   0  0  0  0  0  0  0  0  0  0  0  0
   57.6762   30.2654   47.5008 H   0  0  0  0  0  0  0  0  0  0  0  0
   60.3635   31.6468   47.5588 H   0  0  0  0  0  0  0  0  0  0  0  0
   60.9976   34.0383   47.2616 H   0  0  0  0  0  0  0  0  0  0  0  0
   57.5084   34.6705   44.7894 H   0  0  0  0  0  0  0  0  0  0  0  0
   56.8626   32.2803   45.0796 H   0  0  0  0  0  0  0  0  0  0  0  0
  1  2  1  0
  2  3  1  0
  3  4  1  0
  4  5  1  0
  5  6  1  0
  6  7  2  0
  6  8  1  0
  8  9  1  0
  9 10  1  0
  9 11  2  0
 11 12  1  0
 12 13  2  0
 12 14  1  0
 14 15  1  0
 15 16  1  0
 16 17  2  0
 17 18  1  0
 18 19  2  0
 19 20  1  0
 19 21  1  0
 21 22  2  0
 15  8  1  0
 22 16  1  0
  1 23  1  0
  1 24  1  0
  1 25  1  0
  3 26  1  0
  3 27  1  0
  4 28  1  0
  4 29  1  0
  8 30  1  1
 10 31  1  0
 10 32  1  0
 10 33  1  0
 14 34  1  0
 15 35  1  1
 17 36  1  0
 18 37  1  0
 21 38  1  0
 22 39  1  0
M  END
>  <UniqueID>  (51) 
43

>  <SMILES>  (51) 
COCCOC(=O)[C@H]1C(C)=NC(=O)N[C@@H]1c1ccc(F)cc1

>  <Energy>  (51) 
34.92787684968971

>  <Genealogy>  (51) 
COCCOC(=O)[C@H]1C(C)=NC(=O)N[C@@H]1c1ccc(F)cc1 (chirality)
COCCOC(=O)[C@H]1C(C)=NC(=O)N[C@@H]1c1ccc(F)cc1 (3D coordinates assigned)
COCCOC(=O)[C@H]1C(C)=NC(=O)N[C@@H]1c1ccc(F)cc1 (nonaromatic ring conformer: 34.92787684968971 kcal/mol)

>  <smiles>  (51) 
COCCOC(=O)C1C(C)=NC(=O)NC1c1ccc(F)cc1

>  <score_type>  (51) 
oracle

>  <origin>  (51) 
adg

>  <m_score__min__energy>  (51) 
-6.4199999999999999

>  <m_primary>  (51) 
energy

$$$$
51:0
     RDKit          3D

 52 53  0  0  0  0  0  0  0  0999 V2000
   58.2488   33.4765   42.9893 H   0  0  0  0  0  0  0  0  0  0  0  0
   57.8680   33.0370   43.9230 C   0  0  0  0  0  0  0  0  0  0  0  0
   57.6840   31.7550   44.0060 N   0  0  0  0  0  0  0  0  0  0  0  0
   57.0040   30.9780   43.0150 C   0  0  0  0  0  0  0  0  0  0  0  0
   56.9000   31.3900   41.8300 O   0  0  0  0  0  0  0  0  0  0  0  0
   56.3450   29.7020   43.4200 C   0  0  0  0  0  0  0  0  0  0  0  0
   55.3588   29.6263   42.9387 H   0  0  0  0  0  0  0  0  0  0  0  0
   56.9629   28.8470   43.1083 H   0  0  0  0  0  0  0  0  0  0  0  0
   56.1850   29.6950   44.8670 N   0  0  0  0  0  0  0  0  0  0  0  0
   57.2470   29.4040   45.7750 C   0  0  0  0  0  0  0  0  0  0  0  0
   57.9390   30.3340   46.2650 O   0  0  0  0  0  0  0  0  0  0  0  0
   57.5500   27.9810   46.1250 C   0  0  0  0  0  0  0  0  0  0  0  0
   58.6333   27.8661   46.2778 H   0  0  0  0  0  0  0  0  0  0  0  0
   57.0129   27.7136   47.0470 H   0  0  0  0  0  0  0  0  0  0  0  0
   57.1160   27.0950   45.0410 N   0  0  0  0  0  0  0  0  0  0  0  0
   56.4340   27.6180   44.4460 H   0  0  0  0  0  0  0  0  0  0  0  0
   56.2640   25.7380   45.7100 S   0  0  0  0  0  0  0  0  0  0  0  0
   54.7840   25.9870   45.6390 O   0  0  0  0  0  0  0  0  0  0  0  0
   56.6570   25.5400   47.1450 O   0  0  0  0  0  0  0  0  0  0  0  0
   56.6750   24.2850   44.8050 C   0  0  0  0  0  0  0  0  0  0  0  0
   55.9030   23.8770   43.7070 C   0  0  0  0  0  0  0  0  0  0  0  0
   55.0379   24.4785   43.3911 H   0  0  0  0  0  0  0  0  0  0  0  0
   56.2300   22.7080   43.0130 C   0  0  0  0  0  0  0  0  0  0  0  0
   55.6225   22.3918   42.1522 H   0  0  0  0  0  0  0  0  0  0  0  0
   57.3280   21.9410   43.4120 C   0  0  0  0  0  0  0  0  0  0  0  0
   57.5827   21.0198   42.8674 H   0  0  0  0  0  0  0  0  0  0  0  0
   58.1030   22.3450   44.5040 C   0  0  0  0  0  0  0  0  0  0  0  0
   58.9688   21.7427   44.8163 H   0  0  0  0  0  0  0  0  0  0  0  0
   57.7780   23.5140   45.1990 C   0  0  0  0  0  0  0  0  0  0  0  0
   58.3893   23.8297   46.0573 H   0  0  0  0  0  0  0  0  0  0  0  0
   57.5640   33.9200   45.0930 C   0  0  0  0  0  0  0  0  0  0  0  0
   56.5792   33.6487   45.5011 H   0  0  0  0  0  0  0  0  0  0  0  0
   57.5670   34.9654   44.7508 H   0  0  0  0  0  0  0  0  0  0  0  0
   58.6050   33.7680   46.1760 C   0  0  0  0  0  0  0  0  0  0  0  0
   58.2460   33.2570   47.4300 C   0  0  0  0  0  0  0  0  0  0  0  0
   57.1931   33.0208   47.6434 H   0  0  0  0  0  0  0  0  0  0  0  0
   59.2170   33.0460   48.4100 C   0  0  0  0  0  0  0  0  0  0  0  0
   58.9262   32.6348   49.3879 H   0  0  0  0  0  0  0  0  0  0  0  0
   60.5660   33.3560   48.1550 C   0  0  0  0  0  0  0  0  0  0  0  0
   61.5720   33.1450   49.1090 O   0  0  0  0  0  0  0  0  0  0  0  0
   62.1440   34.1690   49.9140 C   0  0  0  0  0  0  0  0  0  0  0  0
   62.0052   33.9206   50.9766 H   0  0  0  0  0  0  0  0  0  0  0  0
   63.2186   34.2511   49.6939 H   0  0  0  0  0  0  0  0  0  0  0  0
   61.6504   35.1271   49.6939 H   0  0  0  0  0  0  0  0  0  0  0  0
   60.9320   33.8840   46.9090 C   0  0  0  0  0  0  0  0  0  0  0  0
   62.2840   34.1900   46.6880 O   0  0  0  0  0  0  0  0  0  0  0  0
   63.3480   33.2480   46.7590 C   0  0  0  0  0  0  0  0  0  0  0  0
   63.5834   33.0396   47.8131 H   0  0  0  0  0  0  0  0  0  0  0  0
   63.0462   32.3156   46.2594 H   0  0  0  0  0  0  0  0  0  0  0  0
   64.2369   33.6606   46.2594 H   0  0  0  0  0  0  0  0  0  0  0  0
   59.9490   34.0810   45.9200 C   0  0  0  0  0  0  0  0  0  0  0  0
   60.2372   34.4839   44.9378 H   0  0  0  0  0  0  0  0  0  0  0  0
  1  2  1  0
  2  3  2  0
  3  4  1  0
  4  5  2  0
  4  6  1  0
  6  7  1  0
  6  8  1  0
  6  9  1  0
  9 10  1  0
 10 11  2  0
 10 12  1  0
 12 13  1  0
 12 14  1  0
 12 15  1  0
 15 16  1  0
 15 17  1  0
 17 18  2  0
 17 19  2  0
 17 20  1  0
 20 21  2  0
 21 22  1  0
 21 23  1  0
 23 24  1  0
 23 25  2  0
 25 26  1  0
 25 27  1  0
 27 28  1  0
 27 29  2  0
 29 30  1  0
  2 31  1  0
 31 32  1  0
 31 33  1  0
 31 34  1  0
 34 35  2  0
 35 36  1  0
 35 37  1  0
 37 38  1  0
 37 39  2  0
 39 40  1  0
 40 41  1  0
 41 42  1  0
 41 43  1  0
 41 44  1  0
 39 45  1  0
 45 46  1  0
 46 47  1  0
 47 48  1  0
 47 49  1  0
 47 50  1  0
 45 51  2  0
 51 52  1  0
 29 20  1  0
 51 34  1  0
M  CHG  1   9  -1
M  END
>  <UniqueID>  (52) 
44

>  <SMILES>  (52) 
COc1ccc(C/C=N/C(=O)C[N-]C(=O)CNS(=O)(=O)c2ccccc2)cc1OC

>  <Energy>  (52) 
38.80583061181401

>  <Genealogy>  (52) 
COc1ccc(CC=NC(=O)C[N-]C(=O)CNS(=O)(=O)c2ccccc2)cc1OC (protonated)
COc1ccc(C/C=N/C(=O)C[N-]C(=O)CNS(=O)(=O)c2ccccc2)cc1OC (cis-trans isomerization)
COc1ccc(C/C=N/C(=O)C[N-]C(=O)CNS(=O)(=O)c2ccccc2)cc1OC (3D coordinates assigned)
COc1ccc(C/C=N/C(=O)C[N-]C(=O)CNS(=O)(=O)c2ccccc2)cc1OC (optimized conformer: 38.80583061181401 kcal/mol)

>  <smiles>  (52) 
COc1ccc(CC=NC(=O)CNC(=O)CNS(=O)(=O)c2ccccc2)cc1OC

>  <score_type>  (52) 
oracle

>  <origin>  (52) 
adg

>  <m_score__min__energy>  (52) 
-10.74

>  <m_primary>  (52) 
energy

$$$$
52:0
     RDKit          3D

 30 31  0  0  0  0  0  0  0  0999 V2000
   57.9130   32.5720   43.2490 O   0  0  0  0  0  0  0  0  0  0  0  0
   57.6510   32.3960   44.4700 C   0  0  0  0  0  0  0  0  0  0  0  0
   56.6250   31.4720   44.8430 N   0  0  0  0  0  0  0  0  0  0  0  0
   56.4560   29.9190   44.0970 S   0  0  0  0  0  0  0  0  0  0  0  0
   55.9030   30.0950   42.7100 O   0  0  0  0  0  0  0  0  0  0  0  0
   55.5100   29.0890   44.9190 O   0  0  0  0  0  0  0  0  0  0  0  0
   58.0060   29.1410   44.0330 N   0  0  0  0  0  0  0  0  0  0  0  0
   58.6590   28.5480   45.1700 C   0  0  0  0  0  0  0  0  0  0  0  0
   59.7460   29.1710   45.8160 C   0  0  0  0  0  0  0  0  0  0  0  0
   60.3550   28.5630   46.9180 C   0  0  0  0  0  0  0  0  0  0  0  0
   59.8910   27.3320   47.3870 C   0  0  0  0  0  0  0  0  0  0  0  0
   60.4850   26.7450   48.4550 F   0  0  0  0  0  0  0  0  0  0  0  0
   58.8160   26.7050   46.7530 C   0  0  0  0  0  0  0  0  0  0  0  0
   58.2030   27.3090   45.6510 C   0  0  0  0  0  0  0  0  0  0  0  0
   58.4000   33.1420   45.5140 C   0  0  0  0  0  0  0  0  0  0  0  0
   58.9100   34.4250   45.2340 C   0  0  0  0  0  0  0  0  0  0  0  0
   59.6160   35.1380   46.2070 C   0  0  0  0  0  0  0  0  0  0  0  0
   59.8240   34.5840   47.4700 C   0  0  0  0  0  0  0  0  0  0  0  0
   59.3260   33.3130   47.7640 C   0  0  0  0  0  0  0  0  0  0  0  0
   58.6180   32.5910   46.7980 C   0  0  0  0  0  0  0  0  0  0  0  0
   58.1500   31.3590   47.1240 F   0  0  0  0  0  0  0  0  0  0  0  0
   58.4740   29.0980   43.1000 H   0  0  0  0  0  0  0  0  0  0  0  0
   60.1169   30.1402   45.4514 H   0  0  0  0  0  0  0  0  0  0  0  0
   61.2023   29.0558   47.4172 H   0  0  0  0  0  0  0  0  0  0  0  0
   58.4511   25.7348   47.1211 H   0  0  0  0  0  0  0  0  0  0  0  0
   57.3566   26.8100   45.1564 H   0  0  0  0  0  0  0  0  0  0  0  0
   58.7511   34.8697   44.2405 H   0  0  0  0  0  0  0  0  0  0  0  0
   60.0088   36.1392   45.9760 H   0  0  0  0  0  0  0  0  0  0  0  0
   60.3798   35.1477   48.2337 H   0  0  0  0  0  0  0  0  0  0  0  0
   59.4914   32.8775   48.7605 H   0  0  0  0  0  0  0  0  0  0  0  0
  1  2  2  0
  2  3  1  0
  3  4  1  0
  4  5  2  0
  4  6  2  0
  4  7  1  0
  7  8  1  0
  8  9  2  0
  9 10  1  0
 10 11  2  0
 11 12  1  0
 11 13  1  0
 13 14  2  0
  2 15  1  0
 15 16  2  0
 16 17  1  0
 17 18  2  0
 18 19  1  0
 19 20  2  0
 20 21  1  0
 14  8  1  0
 20 15  1  0
  7 22  1  0
  9 23  1  0
 10 24  1  0
 13 25  1  0
 14 26  1  0
 16 27  1  0
 17 28  1  0
 18 29  1  0
 19 30  1  0
M  CHG  1   3  -1
M  END
>  <UniqueID>  (53) 
45

>  <SMILES>  (53) 
O=C([N-]S(=O)(=O)Nc1ccc(F)cc1)c1ccccc1F

>  <Energy>  (53) 
36.19803220170611

>  <Genealogy>  (53) 
O=C([N-]S(=O)(=O)Nc1ccc(F)cc1)c1ccccc1F (protonated)
O=C([N-]S(=O)(=O)Nc1ccc(F)cc1)c1ccccc1F (3D coordinates assigned)
O=C([N-]S(=O)(=O)Nc1ccc(F)cc1)c1ccccc1F (optimized conformer: 36.19803220170611 kcal/mol)

>  <smiles>  (53) 
O=C(NS(=O)(=O)Nc1ccc(F)cc1)c1ccccc1F

>  <score_type>  (53) 
oracle

>  <origin>  (53) 
adg

>  <m_score__min__energy>  (53) 
-9.0600000000000005

>  <m_primary>  (53) 
energy

$$$$
53:0
     RDKit          3D

 38 42  0  0  0  0  0  0  0  0999 V2000
   59.0232   26.8786   44.6148 H   0  0  0  0  0  0  0  0  0  0  0  0
   58.1350   27.1920   45.1830 C   0  0  0  0  0  0  0  0  0  0  0  0
   57.4700   26.1910   46.0350 C   0  0  0  0  0  0  0  0  0  0  0  0
   58.0940   25.1020   46.5140 N   0  0  0  0  0  0  0  0  0  0  0  0
   57.1120   24.4350   47.1590 C   0  0  0  0  0  0  0  0  0  0  0  0
   57.3130   23.3490   47.7620 O   0  0  0  0  0  0  0  0  0  0  0  0
   55.8970   25.0210   47.1000 N   0  0  0  0  0  0  0  0  0  0  0  0
   56.1360   26.1250   46.3750 C   0  0  0  0  0  0  0  0  0  0  0  0
   55.1440   27.0190   45.9910 O   0  0  0  0  0  0  0  0  0  0  0  0
   57.7230   28.4630   45.0580 C   0  0  0  0  0  0  0  0  0  0  0  0
   56.7010   28.9840   44.2710 C   0  0  0  0  0  0  0  0  0  0  0  0
   56.0710   28.4053   43.5794 H   0  0  0  0  0  0  0  0  0  0  0  0
   56.6050   30.3140   44.4910 N   0  0  0  0  0  0  0  0  0  0  0  0
   55.9060   30.9240   44.0250 H   0  0  0  0  0  0  0  0  0  0  0  0
   57.5180   30.6600   45.3930 N   0  0  0  0  0  0  0  0  0  0  0  0
   57.8250   31.8760   45.9520 C   0  0  0  0  0  0  0  0  0  0  0  0
   57.2260   32.9980   45.6590 N   0  0  0  0  0  0  0  0  0  0  0  0
   57.7850   34.2330   45.1260 C   0  0  0  0  0  0  0  0  0  0  0  0
   56.8662   34.6335   44.6727 H   0  0  0  0  0  0  0  0  0  0  0  0
   59.2300   34.1210   44.6690 C   0  0  0  0  0  0  0  0  0  0  0  0
   59.7238   33.1385   44.6419 H   0  0  0  0  0  0  0  0  0  0  0  0
   59.7882   34.4261   43.7716 H   0  0  0  0  0  0  0  0  0  0  0  0
   58.9020   34.7700   46.0030 C   0  0  0  0  0  0  0  0  0  0  0  0
   59.1588   34.2574   46.9418 H   0  0  0  0  0  0  0  0  0  0  0  0
   59.1248   35.7400   46.4715 H   0  0  0  0  0  0  0  0  0  0  0  0
   58.8290   31.9140   46.8710 N   0  0  0  0  0  0  0  0  0  0  0  0
   59.5070   30.7870   47.2380 C   0  0  0  0  0  0  0  0  0  0  0  0
   60.4700   30.8860   48.1060 N   0  0  0  0  0  0  0  0  0  0  0  0
   61.6160   31.7530   48.0510 C   0  0  0  0  0  0  0  0  0  0  0  0
   61.8210   32.7540   47.1000 C   0  0  0  0  0  0  0  0  0  0  0  0
   61.1224   33.0421   46.3007 H   0  0  0  0  0  0  0  0  0  0  0  0
   63.3260   33.4400   47.3950 S   0  0  0  0  0  0  0  0  0  0  0  0
   63.7340   32.4790   48.7110 C   0  0  0  0  0  0  0  0  0  0  0  0
   64.6651   32.5420   49.2932 H   0  0  0  0  0  0  0  0  0  0  0  0
   62.6910   31.5920   48.9350 C   0  0  0  0  0  0  0  0  0  0  0  0
   62.7066   30.8337   49.7317 H   0  0  0  0  0  0  0  0  0  0  0  0
   59.1940   29.5940   46.6610 N   0  0  0  0  0  0  0  0  0  0  0  0
   58.1960   29.5590   45.7480 C   0  0  0  0  0  0  0  0  0  0  0  0
  1  2  1  0
  2  3  1  0
  3  4  1  0
  4  5  1  0
  5  6  2  0
  5  7  1  0
  7  8  1  0
  8  9  1  0
  2 10  2  0
 10 11  1  0
 11 12  1  0
 11 13  2  0
 13 14  1  0
 13 15  1  0
 15 16  1  0
 16 17  2  3
 17 18  1  0
 18 19  1  0
 18 20  1  0
 20 21  1  0
 20 22  1  0
 20 23  1  0
 23 24  1  0
 23 25  1  0
 16 26  1  0
 26 27  1  0
 27 28  2  3
 28 29  1  0
 29 30  2  0
 30 31  1  0
 30 32  1  0
 32 33  1  0
 33 34  1  0
 33 35  2  0
 35 36  1  0
 27 37  1  0
 37 38  2  0
  8  3  2  0
 38 10  1  0
 38 15  1  0
 23 18  1  0
 35 29  1  0
M  CHG  5   4  -1   7  -1   9  -1  13   1  26  -1
M  END
>  <UniqueID>  (54) 
46

>  <SMILES>  (54) 
O=c1[n-]c([O-])c(/C=c2\c[nH+]n3c(=NC4CC4)[n-]c(=Nc4ccsc4)nc23)[n-]1

>  <Energy>  (54) 
420.2131956695921

>  <Genealogy>  (54) 
O=c1[n-]c([O-])c(C=c2c[nH+]n3c(=NC4CC4)[n-]c(=Nc4ccsc4)nc23)[n-]1 (protonated)
O=c1[n-]c([O-])c(/C=c2\c[nH+]n3c(=NC4CC4)[n-]c(=Nc4ccsc4)nc23)[n-]1 (cis-trans isomerization)
O=c1[n-]c([O-])c(/C=c2\c[nH+]n3c(=NC4CC4)[n-]c(=Nc4ccsc4)nc23)[n-]1 (3D coordinates assigned)
O=c1[n-]c([O-])c(/C=c2\c[nH+]n3c(=NC4CC4)[n-]c(=Nc4ccsc4)nc23)[n-]1 (nonaromatic ring conformer: 420.2131956695921 kcal/mol)

>  <smiles>  (54) 
O=c1[nH]c(O)c(C=c2cnn3c(=NC4CC4)[nH]c(=Nc4ccsc4)nc23)[nH]1

>  <score_type>  (54) 
oracle

>  <origin>  (54) 
adg

>  <m_score__min__energy>  (54) 
-15.52

>  <m_primary>  (54) 
energy

$$$$
54:0
     RDKit          3D

 60 63  0  0  0  0  0  0  0  0999 V2000
   59.2390   34.5780   44.6000 C   0  0  0  0  0  0  0  0  0  0  0  0
   59.1500   33.6330   45.7620 C   0  0  0  0  0  0  0  0  0  0  0  0
   59.5530   34.0450   47.0410 C   0  0  0  0  0  0  0  0  0  0  0  0
   59.4470   33.1740   48.1340 C   0  0  0  0  0  0  0  0  0  0  0  0
   59.9320   33.6030   49.4890 C   0  0  0  0  0  0  0  0  0  0  0  0
   58.9480   31.8780   47.9400 C   0  0  0  0  0  0  0  0  0  0  0  0
   58.5100   31.4640   46.6740 C   0  0  0  0  0  0  0  0  0  0  0  0
   58.0350   30.1180   46.4980 N   0  0  0  0  0  0  0  0  0  0  0  0
   57.2340   29.6950   45.3840 C   0  0  0  0  0  0  0  0  0  0  0  0
   56.4170   30.5010   44.8620 O   0  0  0  0  0  0  0  0  0  0  0  0
   57.3390   28.3140   44.8630 C   0  0  0  0  0  0  0  0  0  0  0  0
   57.7940   28.0780   43.5530 C   0  0  0  0  0  0  0  0  0  0  0  0
   57.9350   26.7690   43.0740 C   0  0  0  0  0  0  0  0  0  0  0  0
   57.6290   25.6780   43.8920 C   0  0  0  0  0  0  0  0  0  0  0  0
   57.8340   24.3820   43.3870 O   0  0  0  0  0  0  0  0  0  0  0  0
   57.4120   23.2010   44.0120 C   0  0  0  0  0  0  0  0  0  0  0  0
   56.8090   22.1620   43.2860 C   0  0  0  0  0  0  0  0  0  0  0  0
   56.3970   20.9990   43.9420 C   0  0  0  0  0  0  0  0  0  0  0  0
   56.5890   20.8620   45.3200 C   0  0  0  0  0  0  0  0  0  0  0  0
   57.2200   21.8840   46.0510 C   0  0  0  0  0  0  0  0  0  0  0  0
   57.3920   21.8050   47.4730 N   0  0  0  0  0  0  0  0  0  0  0  0
   56.8430   22.7000   48.4450 C   0  0  0  0  0  0  0  0  0  0  0  0
   57.1880   22.6180   49.6560 O   0  0  0  0  0  0  0  0  0  0  0  0
   55.8940   23.6830   48.0220 N   0  0  0  0  0  0  0  0  0  0  0  0
   54.7350   23.4490   47.2040 C   0  0  0  0  0  0  0  0  0  0  0  0
   54.5810   24.0870   45.9590 C   0  0  0  0  0  0  0  0  0  0  0  0
   53.4540   23.8410   45.1730 C   0  0  0  0  0  0  0  0  0  0  0  0
   52.4750   22.9510   45.6150 C   0  0  0  0  0  0  0  0  0  0  0  0
   52.6240   22.2940   46.8370 C   0  0  0  0  0  0  0  0  0  0  0  0
   53.7570   22.5280   47.6340 C   0  0  0  0  0  0  0  0  0  0  0  0
   53.9010   21.8270   48.9570 C   0  0  0  0  0  0  0  0  0  0  0  0
   57.6280   23.0490   45.3880 C   0  0  0  0  0  0  0  0  0  0  0  0
   57.1860   25.9080   45.2060 C   0  0  0  0  0  0  0  0  0  0  0  0
   57.0350   27.2130   45.6840 C   0  0  0  0  0  0  0  0  0  0  0  0
   58.6150   32.3510   45.5870 C   0  0  0  0  0  0  0  0  0  0  0  0
   59.3361   35.6086   44.9721 H   0  0  0  0  0  0  0  0  0  0  0  0
   60.1173   34.3249   43.9880 H   0  0  0  0  0  0  0  0  0  0  0  0
   58.3289   34.4933   43.9880 H   0  0  0  0  0  0  0  0  0  0  0  0
   59.9549   35.0585   47.1871 H   0  0  0  0  0  0  0  0  0  0  0  0
   59.3495   33.0878   50.2670 H   0  0  0  0  0  0  0  0  0  0  0  0
   60.9959   33.3450   49.5963 H   0  0  0  0  0  0  0  0  0  0  0  0
   59.8058   34.6905   49.5963 H   0  0  0  0  0  0  0  0  0  0  0  0
   58.8997   31.1798   48.7887 H   0  0  0  0  0  0  0  0  0  0  0  0
   58.2470   29.4160   47.2420 H   0  0  0  0  0  0  0  0  0  0  0  0
   58.0410   28.9278   42.8997 H   0  0  0  0  0  0  0  0  0  0  0  0
   58.2891   26.5987   42.0466 H   0  0  0  0  0  0  0  0  0  0  0  0
   56.6608   22.2633   42.2007 H   0  0  0  0  0  0  0  0  0  0  0  0
   55.9198   20.1882   43.3720 H   0  0  0  0  0  0  0  0  0  0  0  0
   56.2454   19.9521   45.8338 H   0  0  0  0  0  0  0  0  0  0  0  0
   55.3539   24.7841   45.6030 H   0  0  0  0  0  0  0  0  0  0  0  0
   53.3378   24.3493   44.2044 H   0  0  0  0  0  0  0  0  0  0  0  0
   51.5829   22.7666   44.9984 H   0  0  0  0  0  0  0  0  0  0  0  0
   51.8508   21.5897   47.1778 H   0  0  0  0  0  0  0  0  0  0  0  0
   53.7526   22.5497   49.7729 H   0  0  0  0  0  0  0  0  0  0  0  0
   53.1481   21.0286   49.0328 H   0  0  0  0  0  0  0  0  0  0  0  0
   54.9077   21.3901   49.0328 H   0  0  0  0  0  0  0  0  0  0  0  0
   58.1229   23.8523   45.9535 H   0  0  0  0  0  0  0  0  0  0  0  0
   56.9567   25.0556   45.8624 H   0  0  0  0  0  0  0  0  0  0  0  0
   56.6757   27.3802   46.7101 H   0  0  0  0  0  0  0  0  0  0  0  0
   58.2736   32.0344   44.5904 H   0  0  0  0  0  0  0  0  0  0  0  0
  1  2  1  0
  2  3  2  0
  3  4  1  0
  4  5  1  0
  4  6  2  0
  6  7  1  0
  7  8  1  0
  8  9  1  0
  9 10  2  0
  9 11  1  0
 11 12  2  0
 12 13  1  0
 13 14  2  0
 14 15  1  0
 15 16  1  0
 16 17  2  0
 17 18  1  0
 18 19  2  0
 19 20  1  0
 20 21  1  0
 21 22  1  0
 22 23  2  0
 22 24  1  0
 24 25  1  0
 25 26  2  0
 26 27  1  0
 27 28  2  0
 28 29  1  0
 29 30  2  0
 30 31  1  0
 20 32  2  0
 14 33  1  0
 33 34  2  0
  7 35  2  0
 35  2  1  0
 34 11  1  0
 32 16  1  0
 30 25  1  0
  1 36  1  0
  1 37  1  0
  1 38  1  0
  3 39  1  0
  5 40  1  0
  5 41  1  0
  5 42  1  0
  6 43  1  0
  8 44  1  0
 12 45  1  0
 13 46  1  0
 17 47  1  0
 18 48  1  0
 19 49  1  0
 26 50  1  0
 27 51  1  0
 28 52  1  0
 29 53  1  0
 31 54  1  0
 31 55  1  0
 31 56  1  0
 32 57  1  0
 33 58  1  0
 34 59  1  0
 35 60  1  0
M  CHG  2  21  -1  24  -1
M  END
>  <UniqueID>  (55) 
47

>  <SMILES>  (55) 
Cc1cc(C)cc(NC(=O)c2ccc(Oc3cccc([N-]C(=O)[N-]c4ccccc4C)c3)cc2)c1

>  <Energy>  (55) 
82.96676655762708

>  <Genealogy>  (55) 
Cc1cc(C)cc(NC(=O)c2ccc(Oc3cccc([N-]C(=O)[N-]c4ccccc4C)c3)cc2)c1 (protonated)
Cc1cc(C)cc(NC(=O)c2ccc(Oc3cccc([N-]C(=O)[N-]c4ccccc4C)c3)cc2)c1 (3D coordinates assigned)
Cc1cc(C)cc(NC(=O)c2ccc(Oc3cccc([N-]C(=O)[N-]c4ccccc4C)c3)cc2)c1 (optimized conformer: 82.96676655762708 kcal/mol)

>  <smiles>  (55) 
Cc1cc(C)cc(NC(=O)c2ccc(Oc3cccc(NC(=O)Nc4ccccc4C)c3)cc2)c1

>  <score_type>  (55) 
oracle

>  <origin>  (55) 
adg

>  <m_score__min__energy>  (55) 
-13.109999999999999

>  <m_primary>  (55) 
energy

$$$$
55:0
     RDKit          3D

 56 59  0  0  0  0  0  0  0  0999 V2000
   61.1230   29.3700   45.3620 O   0  0  0  0  0  0  0  0  0  0  0  0
   60.1900   29.5500   46.1920 C   0  0  0  0  0  0  0  0  0  0  0  0
   60.2350   30.6780   47.0850 N   0  0  0  0  0  0  0  0  0  0  0  0
   61.3180   31.6200   47.1060 C   0  0  0  0  0  0  0  0  0  0  0  0
   62.6060   31.2130   47.4950 C   0  0  0  0  0  0  0  0  0  0  0  0
   63.6430   32.1440   47.5970 C   0  0  0  0  0  0  0  0  0  0  0  0
   63.4020   33.4920   47.3270 C   0  0  0  0  0  0  0  0  0  0  0  0
   62.1240   33.9120   46.9520 C   0  0  0  0  0  0  0  0  0  0  0  0
   61.0780   32.9850   46.8360 C   0  0  0  0  0  0  0  0  0  0  0  0
   59.7840   33.4420   46.4100 N   0  0  0  0  0  0  0  0  0  0  0  0
   58.6480   33.4310   47.3340 C   0  0  0  0  0  0  0  0  0  0  0  0
   57.3600   33.1560   46.5520 C   0  0  0  0  0  0  0  0  0  0  0  0
   57.2340   34.0510   45.4620 O   0  0  0  0  0  0  0  0  0  0  0  0
   58.2710   33.8210   44.5270 C   0  0  0  0  0  0  0  0  0  0  0  0
   59.6390   34.1460   45.1360 C   0  0  0  0  0  0  0  0  0  0  0  0
   59.0590   28.5900   46.2220 C   0  0  0  0  0  0  0  0  0  0  0  0
   59.1090   27.4810   47.0830 C   0  0  0  0  0  0  0  0  0  0  0  0
   58.0530   26.5670   47.1230 C   0  0  0  0  0  0  0  0  0  0  0  0
   56.9330   26.7310   46.3020 C   0  0  0  0  0  0  0  0  0  0  0  0
   55.8840   25.7560   46.3830 N   0  0  0  0  0  0  0  0  0  0  0  0
   56.0320   24.0520   46.7000 S   0  0  0  0  0  0  0  0  0  0  0  0
   54.9340   23.5830   47.6120 O   0  0  0  0  0  0  0  0  0  0  0  0
   57.3400   23.8200   47.4020 O   0  0  0  0  0  0  0  0  0  0  0  0
   56.0190   23.1310   45.2160 N   0  0  0  0  0  0  0  0  0  0  0  0
   56.2890   24.0010   44.0630 C   0  0  0  0  0  0  0  0  0  0  0  0
   56.2820   23.1700   42.7610 C   0  0  0  0  0  0  0  0  0  0  0  0
   56.1840   21.7780   43.0130 O   0  0  0  0  0  0  0  0  0  0  0  0
   57.2020   21.3830   43.9110 C   0  0  0  0  0  0  0  0  0  0  0  0
   57.0230   22.0560   45.2860 C   0  0  0  0  0  0  0  0  0  0  0  0
   56.8860   27.8300   45.4250 C   0  0  0  0  0  0  0  0  0  0  0  0
   57.9410   28.7480   45.3860 C   0  0  0  0  0  0  0  0  0  0  0  0
   59.4410   30.8500   47.7390 H   0  0  0  0  0  0  0  0  0  0  0  0
   62.7990   30.1539   47.7208 H   0  0  0  0  0  0  0  0  0  0  0  0
   64.6505   31.8141   47.8904 H   0  0  0  0  0  0  0  0  0  0  0  0
   64.2190   34.2239   47.4096 H   0  0  0  0  0  0  0  0  0  0  0  0
   61.9367   34.9762   46.7464 H   0  0  0  0  0  0  0  0  0  0  0  0
   58.7953   32.6433   48.0876 H   0  0  0  0  0  0  0  0  0  0  0  0
   58.5724   34.4070   47.8357 H   0  0  0  0  0  0  0  0  0  0  0  0
   57.3825   32.1243   46.1710 H   0  0  0  0  0  0  0  0  0  0  0  0
   56.5014   33.2964   47.2252 H   0  0  0  0  0  0  0  0  0  0  0  0
   58.2540   32.7639   44.2233 H   0  0  0  0  0  0  0  0  0  0  0  0
   58.1101   34.4738   43.6564 H   0  0  0  0  0  0  0  0  0  0  0  0
   60.4334   33.8241   44.4465 H   0  0  0  0  0  0  0  0  0  0  0  0
   59.7176   35.2302   45.3046 H   0  0  0  0  0  0  0  0  0  0  0  0
   59.9857   27.3312   47.7302 H   0  0  0  0  0  0  0  0  0  0  0  0
   58.1033   25.7082   47.8085 H   0  0  0  0  0  0  0  0  0  0  0  0
   55.5127   24.7781   44.0033 H   0  0  0  0  0  0  0  0  0  0  0  0
   57.2767   24.4690   44.1873 H   0  0  0  0  0  0  0  0  0  0  0  0
   55.4230   23.4801   42.1478 H   0  0  0  0  0  0  0  0  0  0  0  0
   57.2334   23.3521   42.2398 H   0  0  0  0  0  0  0  0  0  0  0  0
   57.1646   20.2910   44.0382 H   0  0  0  0  0  0  0  0  0  0  0  0
   58.1726   21.6916   43.4954 H   0  0  0  0  0  0  0  0  0  0  0  0
   56.6937   21.3021   46.0162 H   0  0  0  0  0  0  0  0  0  0  0  0
   57.9852   22.4920   45.5928 H   0  0  0  0  0  0  0  0  0  0  0  0
   56.0156   27.9682   44.7668 H   0  0  0  0  0  0  0  0  0  0  0  0
   57.8947   29.6018   44.6940 H   0  0  0  0  0  0  0  0  0  0  0  0
  1  2  2  0
  2  3  1  0
  3  4  1  0
  4  5  2  0
  5  6  1  0
  6  7  2  0
  7  8  1  0
  8  9  2  0
  9 10  1  0
 10 11  1  0
 11 12  1  0
 12 13  1  0
 13 14  1  0
 14 15  1  0
  2 16  1  0
 16 17  2  0
 17 18  1  0
 18 19  2  0
 19 20  1  0
 20 21  1  0
 21 22  2  0
 21 23  2  0
 21 24  1  0
 24 25  1  0
 25 26  1  0
 26 27  1  0
 27 28  1  0
 28 29  1  0
 19 30  1  0
 30 31  2  0
  9  4  1  0
 15 10  1  0
 31 16  1  0
 29 24  1  0
  3 32  1  0
  5 33  1  0
  6 34  1  0
  7 35  1  0
  8 36  1  0
 11 37  1  0
 11 38  1  0
 12 39  1  0
 12 40  1  0
 14 41  1  0
 14 42  1  0
 15 43  1  0
 15 44  1  0
 17 45  1  0
 18 46  1  0
 25 47  1  0
 25 48  1  0
 26 49  1  0
 26 50  1  0
 28 51  1  0
 28 52  1  0
 29 53  1  0
 29 54  1  0
 30 55  1  0
 31 56  1  0
M  CHG  1  20  -1
M  END
>  <UniqueID>  (56) 
48

>  <SMILES>  (56) 
O=C(Nc1ccccc1N1CCOCC1)c1ccc([N-]S(=O)(=O)N2CCOCC2)cc1

>  <Energy>  (56) 
81.38171439117401

>  <Genealogy>  (56) 
O=C(Nc1ccccc1N1CCOCC1)c1ccc([N-]S(=O)(=O)N2CCOCC2)cc1 (protonated)
O=C(Nc1ccccc1N1CCOCC1)c1ccc([N-]S(=O)(=O)N2CCOCC2)cc1 (3D coordinates assigned)
O=C(Nc1ccccc1N1CCOCC1)c1ccc([N-]S(=O)(=O)N2CCOCC2)cc1 (nonaromatic ring conformer: 81.38171439117401 kcal/mol)

>  <smiles>  (56) 
O=C(Nc1ccccc1N1CCOCC1)c1ccc(NS(=O)(=O)N2CCOCC2)cc1

>  <score_type>  (56) 
oracle

>  <origin>  (56) 
adg

>  <m_score__min__energy>  (56) 
-11.41

>  <m_primary>  (56) 
energy

$$$$
56:0
     RDKit          3D

 45 47  0  0  0  0  0  0  0  0999 V2000
   57.6250   31.1940   43.3810 C   0  0  0  0  0  0  0  0  0  0  0  0
   58.0240   32.2370   44.3880 C   0  0  0  0  0  0  0  0  0  0  0  0
   58.5360   33.4660   43.9370 C   0  0  0  0  0  0  0  0  0  0  0  0
   58.8870   34.4640   44.8500 C   0  0  0  0  0  0  0  0  0  0  0  0
   58.7320   34.2450   46.2190 C   0  0  0  0  0  0  0  0  0  0  0  0
   58.2420   33.0210   46.6820 C   0  0  0  0  0  0  0  0  0  0  0  0
   57.9110   32.0050   45.7790 C   0  0  0  0  0  0  0  0  0  0  0  0
   57.4480   30.7850   46.2870 O   0  0  0  0  0  0  0  0  0  0  0  0
   58.1030   29.5540   46.1210 C   0  0  0  0  0  0  0  0  0  0  0  0
   57.3990   28.3830   45.7790 C   0  0  0  0  0  0  0  0  0  0  0  0
   58.0760   27.1660   45.6220 C   0  0  0  0  0  0  0  0  0  0  0  0
   57.3210   25.9250   45.2300 C   0  0  0  0  0  0  0  0  0  0  0  0
   56.1000   25.7770   46.0780 C   0  0  0  0  0  0  0  0  0  0  0  0
   55.9740   24.7810   46.8380 O   0  0  0  0  0  0  0  0  0  0  0  0
   55.0770   26.7130   45.9930 O   0  0  0  0  0  0  0  0  0  0  0  0
   59.4670   27.1270   45.7780 C   0  0  0  0  0  0  0  0  0  0  0  0
   60.1730   28.2870   46.1050 C   0  0  0  0  0  0  0  0  0  0  0  0
   59.4970   29.5090   46.2740 C   0  0  0  0  0  0  0  0  0  0  0  0
   60.1670   30.7010   46.6000 O   0  0  0  0  0  0  0  0  0  0  0  0
   60.5380   31.1070   47.9180 C   0  0  0  0  0  0  0  0  0  0  0  0
   61.7870   31.9480   47.8860 C   0  0  0  0  0  0  0  0  0  0  0  0
   61.9170   33.0000   46.9630 C   0  0  0  0  0  0  0  0  0  0  0  0
   63.0830   33.7720   46.9350 C   0  0  0  0  0  0  0  0  0  0  0  0
   64.1300   33.4930   47.8180 C   0  0  0  0  0  0  0  0  0  0  0  0
   64.0140   32.4400   48.7300 C   0  0  0  0  0  0  0  0  0  0  0  0
   62.8480   31.6660   48.7610 C   0  0  0  0  0  0  0  0  0  0  0  0
   57.2796   30.2910   43.9056 H   0  0  0  0  0  0  0  0  0  0  0  0
   56.8129   31.5849   42.7504 H   0  0  0  0  0  0  0  0  0  0  0  0
   58.4906   30.9431   42.7504 H   0  0  0  0  0  0  0  0  0  0  0  0
   58.6611   33.6433   42.8586 H   0  0  0  0  0  0  0  0  0  0  0  0
   59.2860   35.4234   44.4888 H   0  0  0  0  0  0  0  0  0  0  0  0
   58.9959   35.0371   46.9352 H   0  0  0  0  0  0  0  0  0  0  0  0
   58.1159   32.8555   47.7621 H   0  0  0  0  0  0  0  0  0  0  0  0
   56.3094   28.4240   45.6340 H   0  0  0  0  0  0  0  0  0  0  0  0
   57.0234   25.9987   44.1736 H   0  0  0  0  0  0  0  0  0  0  0  0
   57.9691   25.0483   45.3762 H   0  0  0  0  0  0  0  0  0  0  0  0
   60.0065   26.1780   45.6423 H   0  0  0  0  0  0  0  0  0  0  0  0
   61.2649   28.2447   46.2312 H   0  0  0  0  0  0  0  0  0  0  0  0
   59.7188   31.6942   48.3586 H   0  0  0  0  0  0  0  0  0  0  0  0
   60.7327   30.2087   48.5223 H   0  0  0  0  0  0  0  0  0  0  0  0
   61.0990   33.2169   46.2603 H   0  0  0  0  0  0  0  0  0  0  0  0
   63.1762   34.6001   46.2169 H   0  0  0  0  0  0  0  0  0  0  0  0
   65.0456   34.1023   47.7952 H   0  0  0  0  0  0  0  0  0  0  0  0
   64.8390   32.2196   49.4234 H   0  0  0  0  0  0  0  0  0  0  0  0
   62.7627   30.8330   49.4743 H   0  0  0  0  0  0  0  0  0  0  0  0
  1  2  1  0
  2  3  2  0
  3  4  1  0
  4  5  2  0
  5  6  1  0
  6  7  2  0
  7  8  1  0
  8  9  1  0
  9 10  2  0
 10 11  1  0
 11 12  1  0
 12 13  1  0
 13 14  2  0
 13 15  1  0
 11 16  2  0
 16 17  1  0
 17 18  2  0
 18 19  1  0
 19 20  1  0
 20 21  1  0
 21 22  2  0
 22 23  1  0
 23 24  2  0
 24 25  1  0
 25 26  2  0
  7  2  1  0
 18  9  1  0
 26 21  1  0
  1 27  1  0
  1 28  1  0
  1 29  1  0
  3 30  1  0
  4 31  1  0
  5 32  1  0
  6 33  1  0
 10 34  1  0
 12 35  1  0
 12 36  1  0
 16 37  1  0
 17 38  1  0
 20 39  1  0
 20 40  1  0
 22 41  1  0
 23 42  1  0
 24 43  1  0
 25 44  1  0
 26 45  1  0
M  CHG  1  15  -1
M  END
>  <UniqueID>  (57) 
49

>  <SMILES>  (57) 
Cc1ccccc1Oc1cc(CC(=O)[O-])ccc1OCc1ccccc1

>  <Energy>  (57) 
53.166200756836645

>  <Genealogy>  (57) 
Cc1ccccc1Oc1cc(CC(=O)[O-])ccc1OCc1ccccc1 (protonated)
Cc1ccccc1Oc1cc(CC(=O)[O-])ccc1OCc1ccccc1 (3D coordinates assigned)
Cc1ccccc1Oc1cc(CC(=O)[O-])ccc1OCc1ccccc1 (optimized conformer: 53.166200756836645 kcal/mol)

>  <smiles>  (57) 
Cc1ccccc1Oc1cc(CC(=O)O)ccc1OCc1ccccc1

>  <score_type>  (57) 
oracle

>  <origin>  (57) 
adg

>  <m_score__min__energy>  (57) 
-11.44

>  <m_primary>  (57) 
energy

$$$$
57:0
     RDKit          3D

 34 35  0  0  0  0  0  0  0  0999 V2000
   55.0660   26.3340   45.9890 N   0  0  0  0  0  0  0  0  0  0  0  0
   56.0150   24.8890   45.9490 S   0  0  0  0  0  0  0  0  0  0  0  0
   55.4260   23.9410   44.9440 O   0  0  0  0  0  0  0  0  0  0  0  0
   56.0000   24.2410   47.3050 O   0  0  0  0  0  0  0  0  0  0  0  0
   57.6960   25.2670   45.4760 C   0  0  0  0  0  0  0  0  0  0  0  0
   57.8010   26.6790   44.8970 C   0  0  0  0  0  0  0  0  0  0  0  0
   57.1480   27.6470   45.7760 N   0  0  0  0  0  0  0  0  0  0  0  0
   56.6750   28.9450   45.3860 C   0  0  0  0  0  0  0  0  0  0  0  0
   55.5150   29.0480   44.9080 O   0  0  0  0  0  0  0  0  0  0  0  0
   57.4820   30.1640   45.5610 C   0  0  0  0  0  0  0  0  0  0  0  0
   58.7160   30.1290   46.2220 C   0  0  0  0  0  0  0  0  0  0  0  0
   59.4470   31.3070   46.3720 C   0  0  0  0  0  0  0  0  0  0  0  0
   58.9520   32.5170   45.8620 C   0  0  0  0  0  0  0  0  0  0  0  0
   59.7320   33.7670   46.0160 C   0  0  0  0  0  0  0  0  0  0  0  0
   59.2670   34.8410   45.5470 O   0  0  0  0  0  0  0  0  0  0  0  0
   61.0140   33.7790   46.6660 N   0  0  0  0  0  0  0  0  0  0  0  0
   61.2210   33.8140   47.9970 C   0  0  0  0  0  0  0  0  0  0  0  0
   62.5790   33.8690   48.2240 C   0  0  0  0  0  0  0  0  0  0  0  0
   63.1470   33.8760   46.9650 C   0  0  0  0  0  0  0  0  0  0  0  0
   62.1760   33.8280   46.0320 N   0  0  0  0  0  0  0  0  0  0  0  0
   57.7340   32.4960   45.1650 C   0  0  0  0  0  0  0  0  0  0  0  0
   57.0390   31.3350   45.0320 N   0  0  0  0  0  0  0  0  0  0  0  0
   55.3900   26.9000   46.8040 H   0  0  0  0  0  0  0  0  0  0  0  0
   55.2980   26.8800   45.1280 H   0  0  0  0  0  0  0  0  0  0  0  0
   58.3438   25.1929   46.3619 H   0  0  0  0  0  0  0  0  0  0  0  0
   58.0118   24.5489   44.7049 H   0  0  0  0  0  0  0  0  0  0  0  0
   58.8623   26.9473   44.7894 H   0  0  0  0  0  0  0  0  0  0  0  0
   57.3017   26.6977   43.9170 H   0  0  0  0  0  0  0  0  0  0  0  0
   59.1055   29.1802   46.6196 H   0  0  0  0  0  0  0  0  0  0  0  0
   60.4159   31.2877   46.8924 H   0  0  0  0  0  0  0  0  0  0  0  0
   60.4391   33.8009   48.7706 H   0  0  0  0  0  0  0  0  0  0  0  0
   63.0966   33.9004   49.1941 H   0  0  0  0  0  0  0  0  0  0  0  0
   64.2263   33.9148   46.7561 H   0  0  0  0  0  0  0  0  0  0  0  0
   57.3397   33.4234   44.7241 H   0  0  0  0  0  0  0  0  0  0  0  0
  1  2  1  0
  2  3  2  0
  2  4  2  0
  2  5  1  0
  5  6  1  0
  6  7  1  0
  7  8  1  0
  8  9  2  0
  8 10  1  0
 10 11  2  0
 11 12  1  0
 12 13  2  0
 13 14  1  0
 14 15  2  0
 14 16  1  0
 16 17  1  0
 17 18  2  0
 18 19  1  0
 19 20  2  0
 13 21  1  0
 21 22  2  0
 22 10  1  0
 20 16  1  0
  1 23  1  0
  1 24  1  0
  5 25  1  0
  5 26  1  0
  6 27  1  0
  6 28  1  0
 11 29  1  0
 12 30  1  0
 17 31  1  0
 18 32  1  0
 19 33  1  0
 21 34  1  0
M  CHG  1   7  -1
M  END
>  <UniqueID>  (58) 
50

>  <SMILES>  (58) 
NS(=O)(=O)CC[N-]C(=O)c1ccc(C(=O)n2cccn2)cn1

>  <Energy>  (58) 
63.25481106889523

>  <Genealogy>  (58) 
NS(=O)(=O)CC[N-]C(=O)c1ccc(C(=O)n2cccn2)cn1 (protonated)
NS(=O)(=O)CC[N-]C(=O)c1ccc(C(=O)n2cccn2)cn1 (3D coordinates assigned)
NS(=O)(=O)CC[N-]C(=O)c1ccc(C(=O)n2cccn2)cn1 (optimized conformer: 63.25481106889523 kcal/mol)

>  <smiles>  (58) 
NS(=O)(=O)CCNC(=O)c1ccc(C(=O)n2cccn2)cn1

>  <score_type>  (58) 
oracle

>  <origin>  (58) 
adg

>  <m_score__min__energy>  (58) 
-9.3399999999999999

>  <m_primary>  (58) 
energy

$$$$
58:0
     RDKit          3D

 46 49  0  0  0  0  0  0  0  0999 V2000
   59.6726   27.5193   48.6959 H   0  0  0  0  0  0  0  0  0  0  0  0
   59.6070   28.1470   47.7950 C   0  0  0  0  0  0  0  0  0  0  0  0
   59.1840   29.4740   47.9040 C   0  0  0  0  0  0  0  0  0  0  0  0
   58.9384   29.8891   48.8926 H   0  0  0  0  0  0  0  0  0  0  0  0
   59.0700   30.2820   46.7610 C   0  0  0  0  0  0  0  0  0  0  0  0
   58.6490   31.6560   46.8740 N   0  0  0  0  0  0  0  0  0  0  0  0
   58.4890   32.2980   48.1810 C   0  0  0  0  0  0  0  0  0  0  0  0
   58.8122   31.6020   48.9691 H   0  0  0  0  0  0  0  0  0  0  0  0
   57.4307   32.5625   48.3224 H   0  0  0  0  0  0  0  0  0  0  0  0
   59.3400   33.5800   48.2550 C   0  0  0  0  0  0  0  0  0  0  0  0
   60.3401   33.3108   48.6256 H   0  0  0  0  0  0  0  0  0  0  0  0
   58.8133   34.2743   48.9262 H   0  0  0  0  0  0  0  0  0  0  0  0
   59.4960   34.2760   46.9510 N   0  0  0  0  0  0  0  0  0  0  0  0
   60.8380   34.0710   46.3760 C   0  0  0  0  0  0  0  0  0  0  0  0
   61.5716   33.9589   47.1880 H   0  0  0  0  0  0  0  0  0  0  0  0
   60.8362   33.1627   45.7555 H   0  0  0  0  0  0  0  0  0  0  0  0
   61.1075   34.9384   45.7555 H   0  0  0  0  0  0  0  0  0  0  0  0
   58.4280   33.9510   45.9810 C   0  0  0  0  0  0  0  0  0  0  0  0
   58.6146   34.5028   45.0479 H   0  0  0  0  0  0  0  0  0  0  0  0
   57.4638   34.2394   46.4249 H   0  0  0  0  0  0  0  0  0  0  0  0
   58.3790   32.4460   45.6680 C   0  0  0  0  0  0  0  0  0  0  0  0
   59.1362   32.2110   44.9055 H   0  0  0  0  0  0  0  0  0  0  0  0
   57.3740   32.1944   45.2984 H   0  0  0  0  0  0  0  0  0  0  0  0
   59.3900   29.7370   45.5060 C   0  0  0  0  0  0  0  0  0  0  0  0
   59.3071   30.3593   44.6028 H   0  0  0  0  0  0  0  0  0  0  0  0
   59.8130   28.4090   45.3980 C   0  0  0  0  0  0  0  0  0  0  0  0
   60.0415   27.9865   44.4084 H   0  0  0  0  0  0  0  0  0  0  0  0
   59.9480   27.6100   46.5480 C   0  0  0  0  0  0  0  0  0  0  0  0
   60.3470   26.2300   46.4770 N   0  0  0  0  0  0  0  0  0  0  0  0
   59.6380   25.2330   46.0330 C   0  0  0  0  0  0  0  0  0  0  0  0
   58.2870   25.3590   45.9750 N   0  0  0  0  0  0  0  0  0  0  0  0
   57.4890   24.3440   45.5430 C   0  0  0  0  0  0  0  0  0  0  0  0
   56.0810   24.4920   45.4810 C   0  0  0  0  0  0  0  0  0  0  0  0
   55.3970   25.7530   45.8800 C   0  0  0  0  0  0  0  0  0  0  0  0
   56.0380   26.6650   46.4650 O   0  0  0  0  0  0  0  0  0  0  0  0
   54.0470   25.9540   45.6180 O   0  0  0  0  0  0  0  0  0  0  0  0
   55.3080   23.4050   45.0260 C   0  0  0  0  0  0  0  0  0  0  0  0
   54.2137   23.5030   44.9725 H   0  0  0  0  0  0  0  0  0  0  0  0
   55.9110   22.2050   44.6420 C   0  0  0  0  0  0  0  0  0  0  0  0
   55.2896   21.3692   44.2880 H   0  0  0  0  0  0  0  0  0  0  0  0
   57.2960   22.0610   44.7050 C   0  0  0  0  0  0  0  0  0  0  0  0
   57.7660   21.1131   44.4040 H   0  0  0  0  0  0  0  0  0  0  0  0
   58.0870   23.1250   45.1520 C   0  0  0  0  0  0  0  0  0  0  0  0
   59.4780   23.0090   45.2300 C   0  0  0  0  0  0  0  0  0  0  0  0
   59.9702   22.0701   44.9364 H   0  0  0  0  0  0  0  0  0  0  0  0
   60.2200   24.0580   45.6690 N   0  0  0  0  0  0  0  0  0  0  0  0
  1  2  1  0
  2  3  2  0
  3  4  1  0
  3  5  1  0
  5  6  1  0
  6  7  1  0
  7  8  1  0
  7  9  1  0
  7 10  1  0
 10 11  1  0
 10 12  1  0
 10 13  1  0
 13 14  1  0
 14 15  1  0
 14 16  1  0
 14 17  1  0
 13 18  1  0
 18 19  1  0
 18 20  1  0
 18 21  1  0
 21 22  1  0
 21 23  1  0
  5 24  2  0
 24 25  1  0
 24 26  1  0
 26 27  1  0
 26 28  2  0
 28 29  1  0
 29 30  2  0
 30 31  1  0
 31 32  2  0
 32 33  1  0
 33 34  1  0
 34 35  2  0
 34 36  1  0
 33 37  2  0
 37 38  1  0
 37 39  1  0
 39 40  1  0
 39 41  2  0
 41 42  1  0
 41 43  1  0
 43 44  2  0
 44 45  1  0
 44 46  1  0
 28  2  1  0
 46 30  1  0
 21  6  1  0
 43 32  1  0
M  CHG  2  36  -1  46  -1
M  END
>  <UniqueID>  (59) 
51

>  <SMILES>  (59) 
CN1CCN(c2ccc(/N=c3/nc4c(C(=O)[O-])cccc4c[n-]3)cc2)CC1

>  <Energy>  (59) 
73.8264883507457

>  <Genealogy>  (59) 
CN1CCN(c2ccc(N=c3nc4c(C(=O)[O-])cccc4c[n-]3)cc2)CC1 (protonated)
CN1CCN(c2ccc(/N=c3/nc4c(C(=O)[O-])cccc4c[n-]3)cc2)CC1 (cis-trans isomerization)
CN1CCN(c2ccc(/N=c3/nc4c(C(=O)[O-])cccc4c[n-]3)cc2)CC1 (3D coordinates assigned)
CN1CCN(c2ccc(/N=c3/nc4c(C(=O)[O-])cccc4c[n-]3)cc2)CC1 (nonaromatic ring conformer: 73.8264883507457 kcal/mol)

>  <smiles>  (59) 
CN1CCN(c2ccc(N=c3nc4c(C(=O)O)cccc4c[nH]3)cc2)CC1

>  <score_type>  (59) 
oracle

>  <origin>  (59) 
adg

>  <m_score__min__energy>  (59) 
-11.85

>  <m_primary>  (59) 
energy

$$$$
59:0
     RDKit          3D

 76 79  0  0  0  0  0  0  0  0999 V2000
   58.8368   32.3607   48.4618 H   0  0  0  0  0  0  0  0  0  0  0  0
   59.4960   31.5410   48.1400 C   0  0  0  0  0  0  0  0  0  0  0  0
   60.5550   31.7910   47.1460 C   0  0  0  0  0  0  0  0  0  0  0  0
   60.6960   30.9410   46.2440 O   0  0  0  0  0  0  0  0  0  0  0  0
   61.0730   33.1640   46.9190 C   0  0  0  0  0  0  0  0  0  0  0  0
   61.8411   33.5719   47.5925 H   0  0  0  0  0  0  0  0  0  0  0  0
   60.6170   33.9150   45.9030 C   0  0  0  0  0  0  0  0  0  0  0  0
   61.3001   34.6108   45.3939 H   0  0  0  0  0  0  0  0  0  0  0  0
   59.2310   33.8210   45.4660 C   0  0  0  0  0  0  0  0  0  0  0  0
   58.2190   33.7610   46.4310 C   0  0  0  0  0  0  0  0  0  0  0  0
   58.3723   34.2224   47.4177 H   0  0  0  0  0  0  0  0  0  0  0  0
   57.0190   33.1180   46.1430 C   0  0  0  0  0  0  0  0  0  0  0  0
   56.2118   33.0893   46.8898 H   0  0  0  0  0  0  0  0  0  0  0  0
   56.8490   32.5120   44.9030 C   0  0  0  0  0  0  0  0  0  0  0  0
   55.9430   31.4670   44.7820 O   0  0  0  0  0  0  0  0  0  0  0  0
   56.4400   30.1830   44.6010 C   0  0  0  0  0  0  0  0  0  0  0  0
   55.7070   29.1840   44.8450 O   0  0  0  0  0  0  0  0  0  0  0  0
   57.8060   29.9830   44.1790 N   0  0  0  0  0  0  0  0  0  0  0  0
   58.0420   30.3970   43.2510 H   0  0  0  0  0  0  0  0  0  0  0  0
   58.4230   28.7450   44.5390 C   0  0  0  0  0  0  0  0  0  0  0  0
   59.0390   28.6110   45.8050 C   0  0  0  0  0  0  0  0  0  0  0  0
   59.3580   29.5065   46.3584 H   0  0  0  0  0  0  0  0  0  0  0  0
   59.2430   27.3410   46.3540 C   0  0  0  0  0  0  0  0  0  0  0  0
   59.7020   27.2379   47.3483 H   0  0  0  0  0  0  0  0  0  0  0  0
   58.8600   26.1950   45.6320 C   0  0  0  0  0  0  0  0  0  0  0  0
   58.9360   24.9490   46.2890 O   0  0  0  0  0  0  0  0  0  0  0  0
   58.6030   23.7190   45.6720 C   0  0  0  0  0  0  0  0  0  0  0  0
   58.3987   22.9642   46.4456 H   0  0  0  0  0  0  0  0  0  0  0  0
   57.7089   23.8533   45.0455 H   0  0  0  0  0  0  0  0  0  0  0  0
   59.4427   23.3839   45.0455 H   0  0  0  0  0  0  0  0  0  0  0  0
   58.3510   26.3270   44.3310 C   0  0  0  0  0  0  0  0  0  0  0  0
   58.1428   25.4304   43.7287 H   0  0  0  0  0  0  0  0  0  0  0  0
   58.1070   27.6040   43.7970 C   0  0  0  0  0  0  0  0  0  0  0  0
   57.6668   27.7053   42.7940 H   0  0  0  0  0  0  0  0  0  0  0  0
   57.7370   32.7780   43.8430 C   0  0  0  0  0  0  0  0  0  0  0  0
   57.4460   32.1670   42.6000 O   0  0  0  0  0  0  0  0  0  0  0  0
   58.1480   32.3660   41.3640 C   0  0  0  0  0  0  0  0  0  0  0  0
   59.1866   32.6604   41.5755 H   0  0  0  0  0  0  0  0  0  0  0  0
   58.1427   31.4310   40.7846 H   0  0  0  0  0  0  0  0  0  0  0  0
   57.6528   33.1591   40.7846 H   0  0  0  0  0  0  0  0  0  0  0  0
   58.9260   33.4660   44.1240 C   0  0  0  0  0  0  0  0  0  0  0  0
   59.6184   33.7294   43.3109 H   0  0  0  0  0  0  0  0  0  0  0  0
   59.3370   30.2990   48.6560 C   0  0  0  0  0  0  0  0  0  0  0  0
   58.6342   29.6330   48.1339 H   0  0  0  0  0  0  0  0  0  0  0  0
   60.0170   29.7440   49.8580 C   0  0  0  0  0  0  0  0  0  0  0  0
   60.6280   28.4750   49.8570 C   0  0  0  0  0  0  0  0  0  0  0  0
   60.4387   27.7779   49.0274 H   0  0  0  0  0  0  0  0  0  0  0  0
   61.4730   28.0960   50.9030 C   0  0  0  0  0  0  0  0  0  0  0  0
   61.9336   27.0971   50.8938 H   0  0  0  0  0  0  0  0  0  0  0  0
   61.7410   28.9690   51.9610 C   0  0  0  0  0  0  0  0  0  0  0  0
   62.7880   28.7450   52.8630 O   0  0  0  0  0  0  0  0  0  0  0  0
   63.8670   29.6350   53.0930 C   0  0  0  0  0  0  0  0  0  0  0  0
   63.4798   30.6455   53.2904 H   0  0  0  0  0  0  0  0  0  0  0  0
   64.4514   29.3042   53.9643 H   0  0  0  0  0  0  0  0  0  0  0  0
   64.7270   29.6540   51.8760 C   0  0  0  0  0  0  0  0  0  0  0  0
   64.9870   28.5880   51.2570 O   0  0  0  0  0  0  0  0  0  0  0  0
   65.3160   30.8880   51.4590 N   0  0  0  0  0  0  0  0  0  0  0  0
   64.5080   31.8970   50.8280 C   0  0  0  0  0  0  0  0  0  0  0  0
   63.7790   32.7880   51.6120 C   0  0  0  0  0  0  0  0  0  0  0  0
   63.8585   32.7427   52.7082 H   0  0  0  0  0  0  0  0  0  0  0  0
   62.9430   33.7440   51.0120 C   0  0  0  0  0  0  0  0  0  0  0  0
   62.3279   34.4074   51.6377 H   0  0  0  0  0  0  0  0  0  0  0  0
   62.8930   33.8520   49.6170 C   0  0  0  0  0  0  0  0  0  0  0  0
   62.1150   34.7830   49.0200 F   0  0  0  0  0  0  0  0  0  0  0  0
   63.6450   32.9690   48.8190 C   0  0  0  0  0  0  0  0  0  0  0  0
   63.6089   33.0505   47.7226 H   0  0  0  0  0  0  0  0  0  0  0  0
   64.4340   31.9930   49.4200 C   0  0  0  0  0  0  0  0  0  0  0  0
   65.0045   31.2908   48.7943 H   0  0  0  0  0  0  0  0  0  0  0  0
   61.0430   30.1990   52.0490 C   0  0  0  0  0  0  0  0  0  0  0  0
   61.2840   31.1630   53.0390 O   0  0  0  0  0  0  0  0  0  0  0  0
   60.5840   32.3940   53.2340 C   0  0  0  0  0  0  0  0  0  0  0  0
   60.4744   32.5868   54.3114 H   0  0  0  0  0  0  0  0  0  0  0  0
   61.1502   33.2152   52.7703 H   0  0  0  0  0  0  0  0  0  0  0  0
   59.5887   32.3273   52.7703 H   0  0  0  0  0  0  0  0  0  0  0  0
   60.2150   30.5760   50.9760 C   0  0  0  0  0  0  0  0  0  0  0  0
   59.7067   31.5509   51.0118 H   0  0  0  0  0  0  0  0  0  0  0  0
  1  2  1  0
  2  3  1  0
  3  4  2  0
  3  5  1  0
  5  6  1  0
  5  7  2  0
  7  8  1  0
  7  9  1  0
  9 10  2  0
 10 11  1  0
 10 12  1  0
 12 13  1  0
 12 14  2  0
 14 15  1  0
 15 16  1  0
 16 17  2  0
 16 18  1  0
 18 19  1  0
 18 20  1  0
 20 21  2  0
 21 22  1  0
 21 23  1  0
 23 24  1  0
 23 25  2  0
 25 26  1  0
 26 27  1  0
 27 28  1  0
 27 29  1  0
 27 30  1  0
 25 31  1  0
 31 32  1  0
 31 33  2  0
 33 34  1  0
 14 35  1  0
 35 36  1  0
 36 37  1  0
 37 38  1  0
 37 39  1  0
 37 40  1  0
 35 41  2  0
 41 42  1  0
  2 43  2  3
 43 44  1  0
 43 45  1  0
 45 46  2  0
 46 47  1  0
 46 48  1  0
 48 49  1  0
 48 50  2  0
 50 51  1  0
 51 52  1  0
 52 53  1  0
 52 54  1  0
 52 55  1  0
 55 56  2  0
 55 57  1  0
 57 58  1  0
 58 59  2  0
 59 60  1  0
 59 61  1  0
 61 62  1  0
 61 63  2  0
 63 64  1  0
 63 65  1  0
 65 66  1  0
 65 67  2  0
 67 68  1  0
 50 69  1  0
 69 70  1  0
 70 71  1  0
 71 72  1  0
 71 73  1  0
 71 74  1  0
 69 75  2  0
 75 76  1  0
 41  9  1  0
 75 45  1  0
 33 20  1  0
 67 58  1  0
M  CHG  1  57  -1
M  END
>  <UniqueID>  (60) 
52

>  <SMILES>  (60) 
COc1ccc(NC(=O)Oc2ccc(/C=C\C(=O)C=Cc3ccc(OCC(=O)[N-]c4ccc(F)cc4)c(OC)c3)cc2OC)cc1

>  <Energy>  (60) 
162.25106895342543

>  <Genealogy>  (60) 
COc1ccc(NC(=O)Oc2ccc(C=CC(=O)C=Cc3ccc(OCC(=O)[N-]c4ccc(F)cc4)c(OC)c3)cc2OC)cc1 (protonated)
COc1ccc(NC(=O)Oc2ccc(/C=C\C(=O)C=Cc3ccc(OCC(=O)[N-]c4ccc(F)cc4)c(OC)c3)cc2OC)cc1 (cis-trans isomerization)
COc1ccc(NC(=O)Oc2ccc(/C=C\C(=O)C=Cc3ccc(OCC(=O)[N-]c4ccc(F)cc4)c(OC)c3)cc2OC)cc1 (3D coordinates assigned)
COc1ccc(NC(=O)Oc2ccc(/C=C\C(=O)C=Cc3ccc(OCC(=O)[N-]c4ccc(F)cc4)c(OC)c3)cc2OC)cc1 (optimized conformer: 162.25106895342543 kcal/mol)

>  <smiles>  (60) 
COc1ccc(NC(=O)Oc2ccc(C=CC(=O)C=Cc3ccc(OCC(=O)Nc4ccc(F)cc4)c(OC)c3)cc2OC)cc1

>  <score_type>  (60) 
oracle

>  <origin>  (60) 
adg

>  <m_score__min__energy>  (60) 
-10.19

>  <m_primary>  (60) 
energy

$$$$
60:0
     RDKit          3D

 62 65  0  0  0  0  0  0  0  0999 V2000
   57.2539   20.7395   45.0476 H   0  0  0  0  0  0  0  0  0  0  0  0
   57.0570   21.6980   44.5450 C   0  0  0  0  0  0  0  0  0  0  0  0
   56.2510   21.7380   43.4500 N   0  0  0  0  0  0  0  0  0  0  0  0
   55.9820   22.9050   42.8030 C   0  0  0  0  0  0  0  0  0  0  0  0
   55.3311   22.9037   41.9163 H   0  0  0  0  0  0  0  0  0  0  0  0
   56.5310   24.1040   43.2630 C   0  0  0  0  0  0  0  0  0  0  0  0
   56.3037   25.0506   42.7509 H   0  0  0  0  0  0  0  0  0  0  0  0
   57.3750   24.0910   44.3840 C   0  0  0  0  0  0  0  0  0  0  0  0
   57.9530   25.3780   44.9190 C   0  0  0  0  0  0  0  0  0  0  0  0
   58.4474   25.9076   44.0913 H   0  0  0  0  0  0  0  0  0  0  0  0
   58.6550   25.1071   45.7214 H   0  0  0  0  0  0  0  0  0  0  0  0
   56.9430   26.2790   45.5130 N   0  0  0  0  0  0  0  0  0  0  0  0
   57.3560   27.6170   45.8600 C   0  0  0  0  0  0  0  0  0  0  0  0
   56.9210   28.6820   45.1370 N   0  0  0  0  0  0  0  0  0  0  0  0
   57.2870   29.9470   45.4770 C   0  0  0  0  0  0  0  0  0  0  0  0
   56.8540   30.9710   44.8070 N   0  0  0  0  0  0  0  0  0  0  0  0
   57.7090   31.8400   43.9990 C   0  0  0  0  0  0  0  0  0  0  0  0
   58.7392   31.4548   44.0180 H   0  0  0  0  0  0  0  0  0  0  0  0
   57.3307   31.8539   42.9662 H   0  0  0  0  0  0  0  0  0  0  0  0
   57.6930   33.2740   44.5570 C   0  0  0  0  0  0  0  0  0  0  0  0
   57.0954   33.9090   43.8864 H   0  0  0  0  0  0  0  0  0  0  0  0
   57.0030   33.3180   45.9480 C   0  0  0  0  0  0  0  0  0  0  0  0
   56.4581   34.2686   46.0449 H   0  0  0  0  0  0  0  0  0  0  0  0
   56.3181   32.4600   46.0164 H   0  0  0  0  0  0  0  0  0  0  0  0
   58.0180   33.2090   47.0930 C   0  0  0  0  0  0  0  0  0  0  0  0
   57.4775   33.2239   48.0509 H   0  0  0  0  0  0  0  0  0  0  0  0
   58.5749   32.2686   46.9688 H   0  0  0  0  0  0  0  0  0  0  0  0
   59.0300   34.3730   47.0720 C   0  0  0  0  0  0  0  0  0  0  0  0
   58.6464   35.1800   47.7136 H   0  0  0  0  0  0  0  0  0  0  0  0
   59.9898   33.9749   47.4330 H   0  0  0  0  0  0  0  0  0  0  0  0
   59.2770   34.9460   45.6610 C   0  0  0  0  0  0  0  0  0  0  0  0
   58.5491   35.7480   45.4686 H   0  0  0  0  0  0  0  0  0  0  0  0
   60.3060   35.3328   45.6212 H   0  0  0  0  0  0  0  0  0  0  0  0
   59.1270   33.8690   44.5830 C   0  0  0  0  0  0  0  0  0  0  0  0
   59.3451   34.3151   43.6014 H   0  0  0  0  0  0  0  0  0  0  0  0
   59.8304   33.0552   44.8129 H   0  0  0  0  0  0  0  0  0  0  0  0
   58.1010   30.1450   46.5450 N   0  0  0  0  0  0  0  0  0  0  0  0
   58.5430   29.0910   47.2740 C   0  0  0  0  0  0  0  0  0  0  0  0
   59.3230   29.3000   48.2910 N   0  0  0  0  0  0  0  0  0  0  0  0
   59.3990   30.5650   49.0150 C   0  0  0  0  0  0  0  0  0  0  0  0
   58.5068   31.1690   48.7933 H   0  0  0  0  0  0  0  0  0  0  0  0
   59.4474   30.3676   50.0961 H   0  0  0  0  0  0  0  0  0  0  0  0
   60.6280   31.3110   48.5860 C   0  0  0  0  0  0  0  0  0  0  0  0
   60.9490   32.5490   49.1660 C   0  0  0  0  0  0  0  0  0  0  0  0
   60.3112   32.9641   49.9603 H   0  0  0  0  0  0  0  0  0  0  0  0
   62.0770   33.2560   48.7370 C   0  0  0  0  0  0  0  0  0  0  0  0
   62.3292   34.2200   49.2030 H   0  0  0  0  0  0  0  0  0  0  0  0
   62.8880   32.7410   47.7150 C   0  0  0  0  0  0  0  0  0  0  0  0
   64.0360   33.4690   47.2710 N   0  0  0  0  0  0  0  0  0  0  0  0
   64.8850   32.9700   46.9250 H   0  0  0  0  0  0  0  0  0  0  0  0
   64.0410   34.5130   47.2800 H   0  0  0  0  0  0  0  0  0  0  0  0
   62.5590   31.5130   47.1250 C   0  0  0  0  0  0  0  0  0  0  0  0
   63.1898   31.1053   46.3214 H   0  0  0  0  0  0  0  0  0  0  0  0
   61.4330   30.8040   47.5530 C   0  0  0  0  0  0  0  0  0  0  0  0
   61.1764   29.8452   47.0788 H   0  0  0  0  0  0  0  0  0  0  0  0
   58.1650   27.8300   46.9320 N   0  0  0  0  0  0  0  0  0  0  0  0
   55.6550   25.7720   46.0140 C   0  0  0  0  0  0  0  0  0  0  0  0
   55.6626   25.7750   47.1140 H   0  0  0  0  0  0  0  0  0  0  0  0
   54.8410   26.4168   45.6512 H   0  0  0  0  0  0  0  0  0  0  0  0
   55.4989   24.7453   45.6512 H   0  0  0  0  0  0  0  0  0  0  0  0
   57.6350   22.8730   45.0320 C   0  0  0  0  0  0  0  0  0  0  0  0
   58.2887   22.8440   45.9162 H   0  0  0  0  0  0  0  0  0  0  0  0
  1  2  1  0
  2  3  2  0
  3  4  1  0
  4  5  1  0
  4  6  2  0
  6  7  1  0
  6  8  1  0
  8  9  1  0
  9 10  1  0
  9 11  1  0
  9 12  1  0
 12 13  1  0
 13 14  2  0
 14 15  1  0
 15 16  2  0
 16 17  1  0
 17 18  1  0
 17 19  1  0
 17 20  1  0
 20 21  1  0
 20 22  1  0
 22 23  1  0
 22 24  1  0
 22 25  1  0
 25 26  1  0
 25 27  1  0
 25 28  1  0
 28 29  1  0
 28 30  1  0
 28 31  1  0
 31 32  1  0
 31 33  1  0
 31 34  1  0
 34 35  1  0
 34 36  1  0
 15 37  1  0
 37 38  1  0
 38 39  2  0
 39 40  1  0
 40 41  1  0
 40 42  1  0
 40 43  1  0
 43 44  2  0
 44 45  1  0
 44 46  1  0
 46 47  1  0
 46 48  2  0
 48 49  1  0
 49 50  1  0
 49 51  1  0
 48 52  1  0
 52 53  1  0
 52 54  2  0
 54 55  1  0
 38 56  1  0
 12 57  1  0
 57 58  1  0
 57 59  1  0
 57 60  1  0
  8 61  2  0
 61 62  1  0
 61  2  1  0
 56 13  1  0
 34 20  1  0
 54 43  1  0
M  CHG  2  37  -1  56  -1
M  END
>  <UniqueID>  (61) 
53

>  <SMILES>  (61) 
CN(Cc1ccncc1)c1n/c(=N\CC2CCCCC2)[n-]/c(=N/Cc2ccc(N)cc2)[n-]1

>  <Energy>  (61) 
65.8833611639333

>  <Genealogy>  (61) 
CN(Cc1ccncc1)c1nc(=NCC2CCCCC2)[n-]c(=NCc2ccc(N)cc2)[n-]1 (protonated)
CN(Cc1ccncc1)c1n/c(=N\CC2CCCCC2)[n-]/c(=N/Cc2ccc(N)cc2)[n-]1 (cis-trans isomerization)
CN(Cc1ccncc1)c1n/c(=N\CC2CCCCC2)[n-]/c(=N/Cc2ccc(N)cc2)[n-]1 (3D coordinates assigned)
CN(Cc1ccncc1)c1n/c(=N\CC2CCCCC2)[n-]/c(=N/Cc2ccc(N)cc2)[n-]1 (nonaromatic ring conformer: 65.8833611639333 kcal/mol)

>  <smiles>  (61) 
CN(Cc1ccncc1)c1nc(=NCC2CCCCC2)[nH]c(=NCc2ccc(N)cc2)[nH]1

>  <score_type>  (61) 
oracle

>  <origin>  (61) 
adg

>  <m_score__min__energy>  (61) 
-12.51

>  <m_primary>  (61) 
energy

$$$$
61:0
     RDKit          3D

 61 65  0  0  1  0  0  0  0  0999 V2000
   56.3500   29.7010   42.6650 C   0  0  0  0  0  0  0  0  0  0  0  0
   55.6380   30.1580   43.9320 C   0  0  0  0  0  0  0  0  0  0  0  0
   56.3850   31.2940   44.4750 N   0  0  0  0  0  0  0  0  0  0  0  0
   57.3950   31.2060   45.2380 C   0  0  0  0  0  0  0  0  0  0  0  0
   57.8690   30.0000   45.5820 N   0  0  0  0  0  0  0  0  0  0  0  0
   58.9180   29.8430   46.3710 C   0  0  0  0  0  0  0  0  0  0  0  0
   59.4790   28.6090   46.7780 N   0  0  0  0  0  0  0  0  0  0  0  0
   60.5210   28.4480   47.7550 C   0  0  0  0  0  0  0  0  0  0  0  0
   60.4380   27.1620   48.5140 C   0  0  0  0  0  0  0  0  0  0  0  0
   59.3080   26.3740   48.2350 O   0  0  0  0  0  0  0  0  0  0  0  0
   58.8820   26.2520   46.9310 C   0  0  0  0  0  0  0  0  0  0  0  0
   58.3960   25.0890   46.3700 C   0  0  0  0  0  0  0  0  0  0  0  0
   57.9790   25.0330   45.0350 C   0  0  0  0  0  0  0  0  0  0  0  0
   57.4710   23.8390   44.4530 N   0  0  0  0  0  0  0  0  0  0  0  0
   58.2440   22.6420   44.5880 C   0  0  0  0  0  0  0  0  0  0  0  0
   57.4700   21.4020   44.3210 C   0  0  0  0  0  0  0  0  0  0  0  0
   56.4650   21.4850   43.3140 N   0  0  0  0  0  0  0  0  0  0  0  0
   56.2780   22.7630   42.7110 C   0  0  0  0  0  0  0  0  0  0  0  0
   56.1990   23.8760   43.7430 C   0  0  0  0  0  0  0  0  0  0  0  0
   58.0790   26.2010   44.3030 C   0  0  0  0  0  0  0  0  0  0  0  0
   58.5660   27.3840   44.8480 C   0  0  0  0  0  0  0  0  0  0  0  0
   58.9660   27.4140   46.1520 C   0  0  0  0  0  0  0  0  0  0  0  0
   59.5090   30.9890   46.8280 N   0  0  0  0  0  0  0  0  0  0  0  0
   59.0320   32.2090   46.4820 C   0  0  0  0  0  0  0  0  0  0  0  0
   59.5880   33.3050   46.9160 N   0  0  0  0  0  0  0  0  0  0  0  0
   60.9070   33.1970   47.4830 C   0  0  0  0  0  0  0  0  0  0  0  0
   61.0420   32.8550   48.8010 C   0  0  0  0  0  0  0  0  0  0  0  0
   62.2750   32.7280   49.4320 C   0  0  0  0  0  0  0  0  0  0  0  0
   63.3900   32.9660   48.6580 C   0  0  0  0  0  0  0  0  0  0  0  0
   64.6780   32.8430   49.2810 C   0  0  0  0  0  0  0  0  0  0  0  0
   65.7200   32.7620   49.7840 N   0  0  0  0  0  0  0  0  0  0  0  0
   63.2540   33.3100   47.3280 C   0  0  0  0  0  0  0  0  0  0  0  0
   62.0270   33.4350   46.7040 C   0  0  0  0  0  0  0  0  0  0  0  0
   57.9690   32.3400   45.6830 N   0  0  0  0  0  0  0  0  0  0  0  0
   57.2472   29.1251   42.9360 H   0  0  0  0  0  0  0  0  0  0  0  0
   55.6733   29.0681   42.0721 H   0  0  0  0  0  0  0  0  0  0  0  0
   56.6436   30.5798   42.0721 H   0  0  0  0  0  0  0  0  0  0  0  0
   54.6090   30.4652   43.6938 H   0  0  0  0  0  0  0  0  0  0  0  0
   55.5924   29.3397   44.6657 H   0  0  0  0  0  0  0  0  0  0  0  0
   61.4911   28.4843   47.2377 H   0  0  0  0  0  0  0  0  0  0  0  0
   60.4055   29.2616   48.4862 H   0  0  0  0  0  0  0  0  0  0  0  0
   61.3335   26.5687   48.2771 H   0  0  0  0  0  0  0  0  0  0  0  0
   60.3624   27.4388   49.5759 H   0  0  0  0  0  0  0  0  0  0  0  0
   58.3346   24.1814   46.9884 H   0  0  0  0  0  0  0  0  0  0  0  0
   59.0833   22.6879   43.8784 H   0  0  0  0  0  0  0  0  0  0  0  0
   58.5829   22.5925   45.6333 H   0  0  0  0  0  0  0  0  0  0  0  0
   58.1833   20.6214   44.0179 H   0  0  0  0  0  0  0  0  0  0  0  0
   56.9297   21.1889   45.2551 H   0  0  0  0  0  0  0  0  0  0  0  0
   56.3510   20.6830   42.6920 H   0  0  0  0  0  0  0  0  0  0  0  0
   57.1233   22.9641   42.0365 H   0  0  0  0  0  0  0  0  0  0  0  0
   55.3253   22.7422   42.1616 H   0  0  0  0  0  0  0  0  0  0  0  0
   56.0625   24.8494   43.2491 H   0  0  0  0  0  0  0  0  0  0  0  0
   55.3467   23.7406   44.4250 H   0  0  0  0  0  0  0  0  0  0  0  0
   57.7615   26.1946   43.2498 H   0  0  0  0  0  0  0  0  0  0  0  0
   58.6285   28.2920   44.2302 H   0  0  0  0  0  0  0  0  0  0  0  0
   60.3360   30.9870   47.4490 H   0  0  0  0  0  0  0  0  0  0  0  0
   60.1313   32.6716   49.3900 H   0  0  0  0  0  0  0  0  0  0  0  0
   62.3559   32.4519   50.4937 H   0  0  0  0  0  0  0  0  0  0  0  0
   64.1640   33.4930   46.7377 H   0  0  0  0  0  0  0  0  0  0  0  0
   61.9443   33.7097   45.6421 H   0  0  0  0  0  0  0  0  0  0  0  0
   57.6180   33.2920   45.4270 H   0  0  0  0  0  0  0  0  0  0  0  0
  1  2  1  0
  2  3  1  0
  3  4  2  0
  4  5  1  0
  5  6  2  0
  6  7  1  0
  7  8  1  0
  8  9  1  0
  9 10  1  0
 10 11  1  0
 11 12  2  0
 12 13  1  0
 13 14  1  0
 14 15  1  0
 15 16  1  0
 16 17  1  0
 17 18  1  0
 18 19  1  0
 13 20  2  0
 20 21  1  0
 21 22  2  0
  6 23  1  0
 23 24  1  0
 24 25  2  0
 25 26  1  0
 26 27  2  0
 27 28  1  0
 28 29  2  0
 29 30  1  0
 30 31  3  0
 29 32  1  0
 32 33  2  0
 24 34  1  0
 34  4  1  0
 22  7  1  0
 33 26  1  0
 22 11  1  0
 19 14  1  0
  1 35  1  0
  1 36  1  0
  1 37  1  0
  2 38  1  0
  2 39  1  0
  8 40  1  0
  8 41  1  0
  9 42  1  0
  9 43  1  0
 12 44  1  0
 15 45  1  0
 15 46  1  0
 16 47  1  0
 16 48  1  0
 17 49  1  0
 18 50  1  0
 18 51  1  0
 19 52  1  0
 19 53  1  0
 20 54  1  0
 21 55  1  0
 23 56  1  0
 27 57  1  0
 28 58  1  0
 32 59  1  0
 33 60  1  0
 34 61  1  0
M  END
>  <smiles>  (62) 
CCN=c1nc(N2CCOc3cc(N4CCNCC4)ccc32)[nH]c(=Nc2ccc(C#N)cc2)[nH]1

>  <score_type>  (62) 
oracle

>  <origin>  (62) 
adg

>  <m_score__min__energy>  (62) 
-8.9299999999999997

>  <m_primary>  (62) 
energy

$$$$
62:0
     RDKit          3D

 58 61  0  0  0  0  0  0  0  0999 V2000
   59.2410   33.8800   50.6310 O   0  0  0  0  0  0  0  0  0  0  0  0
   59.0900   32.7720   50.0540 C   0  0  0  0  0  0  0  0  0  0  0  0
   58.2330   31.7780   50.6360 N   0  0  0  0  0  0  0  0  0  0  0  0
   58.0910   31.6220   52.0810 C   0  0  0  0  0  0  0  0  0  0  0  0
   56.8820   30.7770   52.3750 C   0  0  0  0  0  0  0  0  0  0  0  0
   57.0170   29.5210   52.9890 C   0  0  0  0  0  0  0  0  0  0  0  0
   55.8910   28.7230   53.2110 C   0  0  0  0  0  0  0  0  0  0  0  0
   54.6280   29.1640   52.8060 C   0  0  0  0  0  0  0  0  0  0  0  0
   54.4860   30.4110   52.1910 C   0  0  0  0  0  0  0  0  0  0  0  0
   55.6080   31.2150   51.9740 C   0  0  0  0  0  0  0  0  0  0  0  0
   59.8880   32.4810   48.7960 C   0  0  2  0  0  0  0  0  0  0  0  0
   59.3320   33.0950   47.5020 C   0  0  0  0  0  0  0  0  0  0  0  0
   57.9360   33.2200   47.2950 C   0  0  0  0  0  0  0  0  0  0  0  0
   57.4280   33.7930   46.1290 C   0  0  0  0  0  0  0  0  0  0  0  0
   58.2930   34.2920   45.1600 C   0  0  0  0  0  0  0  0  0  0  0  0
   59.6710   34.2440   45.3670 C   0  0  0  0  0  0  0  0  0  0  0  0
   60.1970   33.6790   46.5360 C   0  0  0  0  0  0  0  0  0  0  0  0
   62.0970   33.8250   46.7700 Br  0  0  0  0  0  0  0  0  0  0  0  0
   60.1030   31.0160   48.7080 N   0  0  0  0  0  0  0  0  0  0  0  0
   59.2630   30.1670   47.8850 C   0  0  0  0  0  0  0  0  0  0  0  0
   58.2140   29.6570   48.3640 O   0  0  0  0  0  0  0  0  0  0  0  0
   59.6330   29.8650   46.4530 C   0  0  0  0  0  0  0  0  0  0  0  0
   58.4640   30.0510   45.5190 C   0  0  0  0  0  0  0  0  0  0  0  0
   58.4880   31.0610   44.5420 C   0  0  0  0  0  0  0  0  0  0  0  0
   57.4170   31.2070   43.6550 C   0  0  0  0  0  0  0  0  0  0  0  0
   56.3190   30.3430   43.7290 C   0  0  0  0  0  0  0  0  0  0  0  0
   56.2930   29.3300   44.6920 C   0  0  0  0  0  0  0  0  0  0  0  0
   57.3610   29.1830   45.5840 C   0  0  0  0  0  0  0  0  0  0  0  0
   60.9820   30.4040   49.6780 C   0  0  0  0  0  0  0  0  0  0  0  0
   60.6650   29.1670   50.2640 C   0  0  0  0  0  0  0  0  0  0  0  0
   61.5390   28.6000   51.1940 C   0  0  0  0  0  0  0  0  0  0  0  0
   62.7190   29.2650   51.5350 C   0  0  0  0  0  0  0  0  0  0  0  0
   63.0060   30.4930   50.9350 C   0  0  0  0  0  0  0  0  0  0  0  0
   62.1420   31.0290   50.0320 N   0  0  0  0  0  0  0  0  0  0  0  0
   57.8550   31.0140   50.0380 H   0  0  0  0  0  0  0  0  0  0  0  0
   58.9885   31.1328   52.4874 H   0  0  0  0  0  0  0  0  0  0  0  0
   57.9709   32.6109   52.5476 H   0  0  0  0  0  0  0  0  0  0  0  0
   58.0113   29.1644   53.2959 H   0  0  0  0  0  0  0  0  0  0  0  0
   55.9991   27.7463   53.7053 H   0  0  0  0  0  0  0  0  0  0  0  0
   53.7451   28.5291   52.9714 H   0  0  0  0  0  0  0  0  0  0  0  0
   53.4908   30.7595   51.8778 H   0  0  0  0  0  0  0  0  0  0  0  0
   55.4938   32.1948   51.4873 H   0  0  0  0  0  0  0  0  0  0  0  0
   60.8549   32.9970   48.8907 H   0  0  0  0  0  0  0  0  0  0  0  0
   57.2407   32.8590   48.0671 H   0  0  0  0  0  0  0  0  0  0  0  0
   56.3403   33.8505   45.9751 H   0  0  0  0  0  0  0  0  0  0  0  0
   57.8902   34.7238   44.2319 H   0  0  0  0  0  0  0  0  0  0  0  0
   60.3512   34.6534   44.6056 H   0  0  0  0  0  0  0  0  0  0  0  0
   60.4449   30.5405   46.1454 H   0  0  0  0  0  0  0  0  0  0  0  0
   59.9498   28.8131   46.3973 H   0  0  0  0  0  0  0  0  0  0  0  0
   59.3519   31.7387   44.4749 H   0  0  0  0  0  0  0  0  0  0  0  0
   57.4378   32.0036   42.8967 H   0  0  0  0  0  0  0  0  0  0  0  0
   55.4775   30.4607   43.0305 H   0  0  0  0  0  0  0  0  0  0  0  0
   55.4320   28.6477   44.7486 H   0  0  0  0  0  0  0  0  0  0  0  0
   57.3370   28.3841   46.3397 H   0  0  0  0  0  0  0  0  0  0  0  0
   59.7340   28.6482   49.9919 H   0  0  0  0  0  0  0  0  0  0  0  0
   61.2986   27.6316   51.6571 H   0  0  0  0  0  0  0  0  0  0  0  0
   63.4135   28.8270   52.2670 H   0  0  0  0  0  0  0  0  0  0  0  0
   63.9322   31.0274   51.1932 H   0  0  0  0  0  0  0  0  0  0  0  0
  1  2  2  0
  2  3  1  0
  3  4  1  0
  4  5  1  0
  5  6  2  0
  6  7  1  0
  7  8  2  0
  8  9  1  0
  9 10  2  0
  2 11  1  0
 11 12  1  0
 12 13  2  0
 13 14  1  0
 14 15  2  0
 15 16  1  0
 16 17  2  0
 17 18  1  0
 11 19  1  0
 19 20  1  0
 20 21  2  0
 20 22  1  0
 22 23  1  0
 23 24  2  0
 24 25  1  0
 25 26  2  0
 26 27  1  0
 27 28  2  0
 19 29  1  0
 29 30  2  0
 30 31  1  0
 31 32  2  0
 32 33  1  0
 33 34  2  0
 10  5  1  0
 17 12  1  0
 28 23  1  0
 34 29  1  0
  3 35  1  0
  4 36  1  0
  4 37  1  0
  6 38  1  0
  7 39  1  0
  8 40  1  0
  9 41  1  0
 10 42  1  0
 11 43  1  1
 13 44  1  0
 14 45  1  0
 15 46  1  0
 16 47  1  0
 22 48  1  0
 22 49  1  0
 24 50  1  0
 25 51  1  0
 26 52  1  0
 27 53  1  0
 28 54  1  0
 30 55  1  0
 31 56  1  0
 32 57  1  0
 33 58  1  0
M  END
>  <UniqueID>  (63) 
54

>  <SMILES>  (63) 
O=C(NCc1ccccc1)[C@H](c1ccccc1Br)N(C(=O)Cc1ccccc1)c1ccccn1

>  <Energy>  (63) 
71.75033396385155

>  <Genealogy>  (63) 
O=C(NCc1ccccc1)[C@H](c1ccccc1Br)N(C(=O)Cc1ccccc1)c1ccccn1 (chirality)
O=C(NCc1ccccc1)[C@H](c1ccccc1Br)N(C(=O)Cc1ccccc1)c1ccccn1 (3D coordinates assigned)
O=C(NCc1ccccc1)[C@H](c1ccccc1Br)N(C(=O)Cc1ccccc1)c1ccccn1 (optimized conformer: 71.75033396385155 kcal/mol)

>  <smiles>  (63) 
O=C(NCc1ccccc1)C(c1ccccc1Br)N(C(=O)Cc1ccccc1)c1ccccn1

>  <score_type>  (63) 
oracle

>  <origin>  (63) 
adg

>  <m_score__min__energy>  (63) 
-8.9299999999999997

>  <m_primary>  (63) 
energy

$$$$
63:0
     RDKit          3D

 34 36  0  0  0  0  0  0  0  0999 V2000
   60.6550   27.4040   46.6520 O   0  0  0  0  0  0  0  0  0  0  0  0
   59.8970   28.4090   46.6290 C   0  0  0  0  0  0  0  0  0  0  0  0
   60.3980   29.6740   47.0790 N   0  0  0  0  0  0  0  0  0  0  0  0
   59.7170   30.5530   48.0270 C   0  0  0  0  0  0  0  0  0  0  0  0
   59.5410   31.9330   47.4490 C   0  0  0  0  0  0  0  0  0  0  0  0
   60.6510   32.6430   46.9650 C   0  0  0  0  0  0  0  0  0  0  0  0
   60.4840   33.9040   46.3850 C   0  0  0  0  0  0  0  0  0  0  0  0
   59.2080   34.4680   46.2900 C   0  0  0  0  0  0  0  0  0  0  0  0
   58.0990   33.7740   46.7830 C   0  0  0  0  0  0  0  0  0  0  0  0
   58.2630   32.5140   47.3650 C   0  0  0  0  0  0  0  0  0  0  0  0
   58.5190   28.2620   46.1190 C   0  0  0  0  0  0  0  0  0  0  0  0
   57.7320   27.1630   46.5250 C   0  0  0  0  0  0  0  0  0  0  0  0
   58.2360   26.1690   47.3690 O   0  0  0  0  0  0  0  0  0  0  0  0
   56.4120   27.0600   46.0730 C   0  0  0  0  0  0  0  0  0  0  0  0
   55.6950   26.0850   46.4260 O   0  0  0  0  0  0  0  0  0  0  0  0
   55.8910   28.0080   45.2540 N   0  0  0  0  0  0  0  0  0  0  0  0
   56.6140   29.0790   44.8380 C   0  0  0  0  0  0  0  0  0  0  0  0
   56.0170   30.0380   44.0120 C   0  0  0  0  0  0  0  0  0  0  0  0
   56.7420   31.1550   43.5960 C   0  0  0  0  0  0  0  0  0  0  0  0
   58.0690   31.3190   43.9990 C   0  0  0  0  0  0  0  0  0  0  0  0
   58.6780   30.3670   44.8210 C   0  0  0  0  0  0  0  0  0  0  0  0
   57.9580   29.2340   45.2540 C   0  0  0  0  0  0  0  0  0  0  0  0
   58.7283   30.1322   48.2622 H   0  0  0  0  0  0  0  0  0  0  0  0
   60.3287   30.6288   48.9381 H   0  0  0  0  0  0  0  0  0  0  0  0
   61.6571   32.2051   47.0425 H   0  0  0  0  0  0  0  0  0  0  0  0
   61.3573   34.4531   46.0030 H   0  0  0  0  0  0  0  0  0  0  0  0
   59.0768   35.4574   45.8275 H   0  0  0  0  0  0  0  0  0  0  0  0
   57.0960   34.2203   46.7127 H   0  0  0  0  0  0  0  0  0  0  0  0
   57.3890   31.9746   47.7589 H   0  0  0  0  0  0  0  0  0  0  0  0
   59.2100   26.1170   47.6380 H   0  0  0  0  0  0  0  0  0  0  0  0
   54.9730   29.9107   43.6898 H   0  0  0  0  0  0  0  0  0  0  0  0
   56.2675   31.9079   42.9494 H   0  0  0  0  0  0  0  0  0  0  0  0
   58.6371   32.2009   43.6681 H   0  0  0  0  0  0  0  0  0  0  0  0
   59.7245   30.5019   45.1320 H   0  0  0  0  0  0  0  0  0  0  0  0
  1  2  2  0
  2  3  1  0
  3  4  1  0
  4  5  1  0
  5  6  2  0
  6  7  1  0
  7  8  2  0
  8  9  1  0
  9 10  2  0
  2 11  1  0
 11 12  2  0
 12 13  1  0
 12 14  1  0
 14 15  2  0
 14 16  1  0
 16 17  1  0
 17 18  2  0
 18 19  1  0
 19 20  2  0
 20 21  1  0
 21 22  2  0
 10  5  1  0
 22 11  1  0
 22 17  1  0
  4 23  1  0
  4 24  1  0
  6 25  1  0
  7 26  1  0
  8 27  1  0
  9 28  1  0
 10 29  1  0
 13 30  1  0
 18 31  1  0
 19 32  1  0
 20 33  1  0
 21 34  1  0
M  CHG  2   3  -1  16  -1
M  END
>  <UniqueID>  (64) 
55

>  <SMILES>  (64) 
O=C([N-]Cc1ccccc1)c1c(O)c(=O)[n-]c2ccccc12

>  <Energy>  (64) 
44.05160401460203

>  <Genealogy>  (64) 
O=C([N-]Cc1ccccc1)c1c(O)c(=O)[n-]c2ccccc12 (protonated)
O=C([N-]Cc1ccccc1)c1c(O)c(=O)[n-]c2ccccc12 (3D coordinates assigned)
O=C([N-]Cc1ccccc1)c1c(O)c(=O)[n-]c2ccccc12 (optimized conformer: 44.05160401460203 kcal/mol)

>  <smiles>  (64) 
O=C(NCc1ccccc1)c1c(O)c(=O)[nH]c2ccccc12

>  <score_type>  (64) 
oracle

>  <origin>  (64) 
adg

>  <m_score__min__energy>  (64) 
-10.98

>  <m_primary>  (64) 
energy

$$$$
64:0
     RDKit          3D

 38 40  0  0  0  0  0  0  0  0999 V2000
   61.2060   29.3360   45.5510 C   0  0  0  0  0  0  0  0  0  0  0  0
   60.1070   28.3360   45.7630 C   0  0  0  0  0  0  0  0  0  0  0  0
   60.4240   27.0140   45.7990 N   0  0  0  0  0  0  0  0  0  0  0  0
   59.4930   26.0450   45.9950 C   0  0  0  0  0  0  0  0  0  0  0  0
   59.8520   24.8380   46.0220 O   0  0  0  0  0  0  0  0  0  0  0  0
   58.1430   26.3900   46.1790 C   0  0  0  0  0  0  0  0  0  0  0  0
   57.1490   25.3680   46.3720 N   0  0  0  0  0  0  0  0  0  0  0  0
   55.7530   25.5570   46.0880 C   0  0  0  0  0  0  0  0  0  0  0  0
   55.2860   26.7210   45.9480 O   0  0  0  0  0  0  0  0  0  0  0  0
   54.8350   24.4100   45.9960 C   0  0  0  0  0  0  0  0  0  0  0  0
   55.1540   23.0770   46.1880 C   0  0  0  0  0  0  0  0  0  0  0  0
   53.9820   22.3790   45.9900 C   0  0  0  0  0  0  0  0  0  0  0  0
   53.0260   23.3270   45.6900 C   0  0  0  0  0  0  0  0  0  0  0  0
   51.1910   22.9720   45.3120 Br  0  0  0  0  0  0  0  0  0  0  0  0
   53.5600   24.5250   45.7000 O   0  0  0  0  0  0  0  0  0  0  0  0
   57.7860   27.7460   46.1140 C   0  0  0  0  0  0  0  0  0  0  0  0
   58.7620   28.7310   45.9120 C   0  0  0  0  0  0  0  0  0  0  0  0
   58.3500   30.1520   45.8430 C   0  0  0  0  0  0  0  0  0  0  0  0
   59.0900   31.0900   46.5820 C   0  0  0  0  0  0  0  0  0  0  0  0
   58.7900   32.4510   46.5040 C   0  0  0  0  0  0  0  0  0  0  0  0
   57.7550   32.8910   45.6820 C   0  0  0  0  0  0  0  0  0  0  0  0
   57.0100   31.9730   44.9380 C   0  0  0  0  0  0  0  0  0  0  0  0
   57.2860   30.5930   45.0090 C   0  0  0  0  0  0  0  0  0  0  0  0
   56.4380   29.6550   44.2280 C   0  0  0  0  0  0  0  0  0  0  0  0
   55.1880   29.2090   44.7530 N   0  0  0  0  0  0  0  0  0  0  0  0
   56.8180   29.2230   43.1070 O   0  0  0  0  0  0  0  0  0  0  0  0
   61.5828   29.6789   46.5259 H   0  0  0  0  0  0  0  0  0  0  0  0
   62.0248   28.8667   44.9859 H   0  0  0  0  0  0  0  0  0  0  0  0
   60.8159   30.1953   44.9859 H   0  0  0  0  0  0  0  0  0  0  0  0
   57.4440   24.4750   46.8260 H   0  0  0  0  0  0  0  0  0  0  0  0
   56.1391   22.6607   46.4454 H   0  0  0  0  0  0  0  0  0  0  0  0
   53.8387   21.2905   46.0573 H   0  0  0  0  0  0  0  0  0  0  0  0
   56.7310   28.0379   46.2226 H   0  0  0  0  0  0  0  0  0  0  0  0
   59.9128   30.7490   47.2276 H   0  0  0  0  0  0  0  0  0  0  0  0
   59.3712   33.1765   47.0920 H   0  0  0  0  0  0  0  0  0  0  0  0
   57.5237   33.9645   45.6186 H   0  0  0  0  0  0  0  0  0  0  0  0
   56.1978   32.3318   44.2887 H   0  0  0  0  0  0  0  0  0  0  0  0
   55.1460   28.6450   45.6310 H   0  0  0  0  0  0  0  0  0  0  0  0
  1  2  1  0
  2  3  1  0
  3  4  1  0
  4  5  2  0
  4  6  1  0
  6  7  1  0
  7  8  1  0
  8  9  2  0
  8 10  1  0
 10 11  2  0
 11 12  1  0
 12 13  2  0
 13 14  1  0
 13 15  1  0
  6 16  2  0
 16 17  1  0
 17 18  1  0
 18 19  2  0
 19 20  1  0
 20 21  2  0
 21 22  1  0
 22 23  2  0
 23 24  1  0
 24 25  1  0
 24 26  2  0
 17  2  2  0
 23 18  1  0
 15 10  1  0
  1 27  1  0
  1 28  1  0
  1 29  1  0
  7 30  1  0
 11 31  1  0
 12 32  1  0
 16 33  1  0
 19 34  1  0
 20 35  1  0
 21 36  1  0
 22 37  1  0
 25 38  1  0
M  CHG  2   3  -1  25  -1
M  END
>  <UniqueID>  (65) 
56

>  <SMILES>  (65) 
Cc1[n-]c(=O)c(NC(=O)c2ccc(Br)o2)cc1-c1ccccc1C([NH-])=O

>  <Energy>  (65) 
81.08599936782996

>  <Genealogy>  (65) 
Cc1[n-]c(=O)c(NC(=O)c2ccc(Br)o2)cc1-c1ccccc1C([NH-])=O (protonated)
Cc1[n-]c(=O)c(NC(=O)c2ccc(Br)o2)cc1-c1ccccc1C([NH-])=O (3D coordinates assigned)
Cc1[n-]c(=O)c(NC(=O)c2ccc(Br)o2)cc1-c1ccccc1C([NH-])=O (optimized conformer: 81.08599936782996 kcal/mol)

>  <smiles>  (65) 
Cc1[nH]c(=O)c(NC(=O)c2ccc(Br)o2)cc1-c1ccccc1C(N)=O

>  <score_type>  (65) 
oracle

>  <origin>  (65) 
adg

>  <m_score__min__energy>  (65) 
-12.66

>  <m_primary>  (65) 
energy

$$$$
65:0
     RDKit          3D

 41 43  0  0  0  0  0  0  0  0999 V2000
   54.3690   30.0240   44.1500 H   0  0  0  0  0  0  0  0  0  0  0  0
   55.1360   29.3460   44.3620 N   0  0  0  0  0  0  0  0  0  0  0  0
   56.2710   29.7150   44.8660 C   0  0  0  0  0  0  0  0  0  0  0  0
   56.6350   31.0220   44.7980 N   0  0  0  0  0  0  0  0  0  0  0  0
   57.8100   31.4730   45.3150 C   0  0  0  0  0  0  0  0  0  0  0  0
   58.1760   32.9200   45.1690 C   0  0  0  0  0  0  0  0  0  0  0  0
   58.6716   33.0741   44.1991 H   0  0  0  0  0  0  0  0  0  0  0  0
   57.2623   33.5302   45.2230 H   0  0  0  0  0  0  0  0  0  0  0  0
   59.1060   33.3290   46.2720 C   0  0  0  0  0  0  0  0  0  0  0  0
   60.4510   33.3160   46.0570 N   0  0  0  0  0  0  0  0  0  0  0  0
   61.3380   33.7090   47.0110 C   0  0  0  0  0  0  0  0  0  0  0  0
   62.8040   33.6920   46.7140 C   0  0  0  0  0  0  0  0  0  0  0  0
   63.3692   33.6854   47.6576 H   0  0  0  0  0  0  0  0  0  0  0  0
   63.0500   32.7909   46.1330 H   0  0  0  0  0  0  0  0  0  0  0  0
   63.0708   34.5871   46.1330 H   0  0  0  0  0  0  0  0  0  0  0  0
   60.8700   34.1650   48.2500 C   0  0  0  0  0  0  0  0  0  0  0  0
   61.5780   34.4943   49.0248 H   0  0  0  0  0  0  0  0  0  0  0  0
   59.4950   34.1970   48.4910 C   0  0  0  0  0  0  0  0  0  0  0  0
   59.1141   34.5500   49.4607 H   0  0  0  0  0  0  0  0  0  0  0  0
   58.6050   33.7810   47.5010 C   0  0  0  0  0  0  0  0  0  0  0  0
   57.5204   33.8073   47.6827 H   0  0  0  0  0  0  0  0  0  0  0  0
   58.6930   30.5700   45.9230 C   0  0  0  0  0  0  0  0  0  0  0  0
   59.6505   30.9262   46.3308 H   0  0  0  0  0  0  0  0  0  0  0  0
   58.3540   29.2100   46.0110 C   0  0  0  0  0  0  0  0  0  0  0  0
   59.2550   28.2640   46.6320 N   0  0  0  0  0  0  0  0  0  0  0  0
   59.3380   26.8800   46.1470 C   0  0  0  0  0  0  0  0  0  0  0  0
   58.5727   26.2713   46.6508 H   0  0  0  0  0  0  0  0  0  0  0  0
   59.1693   26.8684   45.0601 H   0  0  0  0  0  0  0  0  0  0  0  0
   60.7250   26.3000   46.4460 C   0  0  0  0  0  0  0  0  0  0  0  0
   60.7457   25.2505   46.1173 H   0  0  0  0  0  0  0  0  0  0  0  0
   61.4635   26.9107   45.9059 H   0  0  0  0  0  0  0  0  0  0  0  0
   61.0680   26.3520   47.8800 N   0  0  0  0  0  0  0  0  0  0  0  0
   62.1090   26.4330   47.9590 H   0  0  0  0  0  0  0  0  0  0  0  0
   60.4500   27.4640   48.6310 C   0  0  0  0  0  0  0  0  0  0  0  0
   59.5202   27.1003   49.0927 H   0  0  0  0  0  0  0  0  0  0  0  0
   61.1805   27.7976   49.3827 H   0  0  0  0  0  0  0  0  0  0  0  0
   60.1160   28.6750   47.7490 C   0  0  0  0  0  0  0  0  0  0  0  0
   59.5927   29.4313   48.3525 H   0  0  0  0  0  0  0  0  0  0  0  0
   61.0495   29.0965   47.3478 H   0  0  0  0  0  0  0  0  0  0  0  0
   57.1260   28.7840   45.4760 C   0  0  0  0  0  0  0  0  0  0  0  0
   56.8361   27.7246   45.5352 H   0  0  0  0  0  0  0  0  0  0  0  0
  1  2  1  0
  2  3  2  0
  3  4  1  0
  4  5  1  0
  5  6  1  0
  6  7  1  0
  6  8  1  0
  6  9  1  0
  9 10  2  0
 10 11  1  0
 11 12  1  0
 12 13  1  0
 12 14  1  0
 12 15  1  0
 11 16  2  0
 16 17  1  0
 16 18  1  0
 18 19  1  0
 18 20  2  0
 20 21  1  0
  5 22  2  0
 22 23  1  0
 22 24  1  0
 24 25  1  0
 25 26  1  0
 26 27  1  0
 26 28  1  0
 26 29  1  0
 29 30  1  0
 29 31  1  0
 29 32  1  0
 32 33  1  0
 32 34  1  0
 34 35  1  0
 34 36  1  0
 34 37  1  0
 37 38  1  0
 37 39  1  0
 24 40  2  0
 40 41  1  0
 40  3  1  0
 20  9  1  0
 37 25  1  0
M  CHG  1   4  -1
M  END
>  <UniqueID>  (66) 
57

>  <SMILES>  (66) 
[H]/N=c1\cc(N2CCNCC2)cc(Cc2cccc(C)n2)[n-]1

>  <Energy>  (66) 
47.75601912694305

>  <Genealogy>  (66) 
Cc1cccc(Cc2cc(N3CCNCC3)cc(=N)[n-]2)n1 (protonated)
[H]/N=c1\cc(N2CCNCC2)cc(Cc2cccc(C)n2)[n-]1 (cis-trans isomerization)
[H]/N=c1\cc(N2CCNCC2)cc(Cc2cccc(C)n2)[n-]1 (3D coordinates assigned)
[H]/N=c1\cc(N2CCNCC2)cc(Cc2cccc(C)n2)[n-]1 (nonaromatic ring conformer: 47.75601912694305 kcal/mol)

>  <smiles>  (66) 
Cc1cccc(Cc2cc(N3CCNCC3)cc(=N)[nH]2)n1

>  <score_type>  (66) 
oracle

>  <origin>  (66) 
adg

>  <m_score__min__energy>  (66) 
-9.1400000000000006

>  <m_primary>  (66) 
energy

$$$$
66:0
     RDKit          3D

 30 32  0  0  0  0  0  0  0  0999 V2000
   60.6610   27.6860   46.0180 F   0  0  0  0  0  0  0  0  0  0  0  0
   59.5850   28.1170   45.3150 C   0  0  0  0  0  0  0  0  0  0  0  0
   58.8980   27.2210   44.4670 C   0  0  0  0  0  0  0  0  0  0  0  0
   57.7690   27.6470   43.7440 C   0  0  0  0  0  0  0  0  0  0  0  0
   57.3670   28.9750   43.8870 C   0  0  0  0  0  0  0  0  0  0  0  0
   56.3060   29.5650   43.3120 N   0  0  0  0  0  0  0  0  0  0  0  0
   56.2980   30.8410   43.7600 C   0  0  0  0  0  0  0  0  0  0  0  0
   57.3710   31.0640   44.6210 C   0  0  0  0  0  0  0  0  0  0  0  0
   57.6980   32.3400   45.2940 C   0  0  0  0  0  0  0  0  0  0  0  0
   58.0870   32.3650   46.5760 C   0  0  0  0  0  0  0  0  0  0  0  0
   58.4270   33.6760   47.2220 C   0  0  0  0  0  0  0  0  0  0  0  0
   59.3290   34.5120   46.2980 C   0  0  0  0  0  0  0  0  0  0  0  0
   58.8730   34.5090   44.8140 C   0  0  0  0  0  0  0  0  0  0  0  0
   57.6260   33.6470   44.5410 C   0  0  0  0  0  0  0  0  0  0  0  0
   58.0440   29.8530   44.6960 C   0  0  0  0  0  0  0  0  0  0  0  0
   59.1540   29.4510   45.4410 C   0  0  0  0  0  0  0  0  0  0  0  0
   59.2481   26.1826   44.3711 H   0  0  0  0  0  0  0  0  0  0  0  0
   57.2210   26.9553   43.0872 H   0  0  0  0  0  0  0  0  0  0  0  0
   55.6190   29.1300   42.6560 H   0  0  0  0  0  0  0  0  0  0  0  0
   55.5489   31.5975   43.4833 H   0  0  0  0  0  0  0  0  0  0  0  0
   58.1567   31.4301   47.1514 H   0  0  0  0  0  0  0  0  0  0  0  0
   57.4995   34.2322   47.4230 H   0  0  0  0  0  0  0  0  0  0  0  0
   58.9629   33.4815   48.1627 H   0  0  0  0  0  0  0  0  0  0  0  0
   59.3292   35.5509   46.6595 H   0  0  0  0  0  0  0  0  0  0  0  0
   60.3304   34.0578   46.3283 H   0  0  0  0  0  0  0  0  0  0  0  0
   58.6482   35.5448   44.5196 H   0  0  0  0  0  0  0  0  0  0  0  0
   59.6957   34.0705   44.2302 H   0  0  0  0  0  0  0  0  0  0  0  0
   56.7299   34.1984   44.8619 H   0  0  0  0  0  0  0  0  0  0  0  0
   57.5785   33.4294   43.4638 H   0  0  0  0  0  0  0  0  0  0  0  0
   59.6757   30.1550   46.1060 H   0  0  0  0  0  0  0  0  0  0  0  0
  1  2  1  0
  2  3  2  0
  3  4  1  0
  4  5  2  0
  5  6  1  0
  6  7  1  0
  7  8  2  0
  8  9  1  0
  9 10  2  0
 10 11  1  0
 11 12  1  0
 12 13  1  0
 13 14  1  0
  8 15  1  0
 15 16  2  0
 16  2  1  0
 15  5  1  0
 14  9  1  0
  3 17  1  0
  4 18  1  0
  6 19  1  0
  7 20  1  0
 10 21  1  0
 11 22  1  0
 11 23  1  0
 12 24  1  0
 12 25  1  0
 13 26  1  0
 13 27  1  0
 14 28  1  0
 14 29  1  0
 16 30  1  0
M  END
>  <UniqueID>  (67) 
58

>  <SMILES>  (67) 
Fc1ccc2[nH]cc(C3=CCCCC3)c2c1

>  <Energy>  (67) 
70.6205855795466

>  <Genealogy>  (67) 
Fc1ccc2[nH]cc(C3=CCCCC3)c2c1 (3D coordinates assigned)
Fc1ccc2[nH]cc(C3=CCCCC3)c2c1 (nonaromatic ring conformer: 70.6205855795466 kcal/mol)

>  <smiles>  (67) 
Fc1ccc2[nH]cc(C3=CCCCC3)c2c1

>  <score_type>  (67) 
oracle

>  <origin>  (67) 
adg

>  <m_score__min__energy>  (67) 
-6.7800000000000002

>  <m_primary>  (67) 
energy

$$$$
67:0
     RDKit          3D

 39 41  0  0  0  0  0  0  0  0999 V2000
   59.6190   28.1300   44.8180 C   0  0  0  0  0  0  0  0  0  0  0  0
   58.2970   28.3750   44.2320 N   0  0  0  0  0  0  0  0  0  0  0  0
   57.7810   27.4920   43.1830 C   0  0  0  0  0  0  0  0  0  0  0  0
   57.4260   29.3800   44.7890 C   0  0  0  0  0  0  0  0  0  0  0  0
   56.1770   29.2070   44.7610 O   0  0  0  0  0  0  0  0  0  0  0  0
   57.9580   30.6140   45.4070 C   0  0  0  0  0  0  0  0  0  0  0  0
   58.4150   30.6080   46.7510 C   0  0  0  0  0  0  0  0  0  0  0  0
   58.9380   31.7740   47.3390 C   0  0  0  0  0  0  0  0  0  0  0  0
   59.0020   32.9250   46.5540 C   0  0  0  0  0  0  0  0  0  0  0  0
   58.5780   32.9310   45.2530 C   0  0  0  0  0  0  0  0  0  0  0  0
   58.0570   31.7960   44.6390 C   0  0  0  0  0  0  0  0  0  0  0  0
   58.7650   34.1510   44.7190 N   0  0  0  0  0  0  0  0  0  0  0  0
   59.3120   34.8650   45.7310 C   0  0  0  0  0  0  0  0  0  0  0  0
   59.6460   36.0740   45.6140 O   0  0  0  0  0  0  0  0  0  0  0  0
   59.4660   34.1490   46.8740 N   0  0  0  0  0  0  0  0  0  0  0  0
   60.0890   34.5860   48.1250 C   0  0  0  0  0  0  0  0  0  0  0  0
   61.5010   34.0690   48.2100 C   0  0  0  0  0  0  0  0  0  0  0  0
   62.2280   33.8120   47.0360 C   0  0  0  0  0  0  0  0  0  0  0  0
   63.5300   33.3060   47.1090 C   0  0  0  0  0  0  0  0  0  0  0  0
   64.1130   33.0500   48.3530 C   0  0  0  0  0  0  0  0  0  0  0  0
   63.3960   33.3030   49.5260 C   0  0  0  0  0  0  0  0  0  0  0  0
   62.0950   33.8080   49.4570 C   0  0  0  0  0  0  0  0  0  0  0  0
   59.5421   28.1443   45.9152 H   0  0  0  0  0  0  0  0  0  0  0  0
   59.9896   27.1479   44.4891 H   0  0  0  0  0  0  0  0  0  0  0  0
   60.3169   28.9141   44.4891 H   0  0  0  0  0  0  0  0  0  0  0  0
   57.2772   26.6299   43.6444 H   0  0  0  0  0  0  0  0  0  0  0  0
   57.0637   28.0447   42.5585 H   0  0  0  0  0  0  0  0  0  0  0  0
   58.6146   27.1384   42.5585 H   0  0  0  0  0  0  0  0  0  0  0  0
   58.3595   29.6804   47.3397 H   0  0  0  0  0  0  0  0  0  0  0  0
   59.2848   31.7778   48.3829 H   0  0  0  0  0  0  0  0  0  0  0  0
   57.7323   31.8183   43.5883 H   0  0  0  0  0  0  0  0  0  0  0  0
   58.5500   34.4680   43.7480 H   0  0  0  0  0  0  0  0  0  0  0  0
   60.1017   35.6854   48.1602 H   0  0  0  0  0  0  0  0  0  0  0  0
   59.5098   34.1903   48.9723 H   0  0  0  0  0  0  0  0  0  0  0  0
   61.7715   34.0095   46.0549 H   0  0  0  0  0  0  0  0  0  0  0  0
   64.0956   33.1094   46.1863 H   0  0  0  0  0  0  0  0  0  0  0  0
   65.1359   32.6495   48.4091 H   0  0  0  0  0  0  0  0  0  0  0  0
   63.8567   33.1042   50.5049 H   0  0  0  0  0  0  0  0  0  0  0  0
   61.5332   34.0022   50.3825 H   0  0  0  0  0  0  0  0  0  0  0  0
  1  2  1  0
  2  3  1  0
  2  4  1  0
  4  5  2  0
  4  6  1  0
  6  7  2  0
  7  8  1  0
  8  9  2  0
  9 10  1  0
 10 11  2  0
 10 12  1  0
 12 13  1  0
 13 14  2  0
 13 15  1  0
 15 16  1  0
 16 17  1  0
 17 18  2  0
 18 19  1  0
 19 20  2  0
 20 21  1  0
 21 22  2  0
 11  6  1  0
 22 17  1  0
 15  9  1  0
  1 23  1  0
  1 24  1  0
  1 25  1  0
  3 26  1  0
  3 27  1  0
  3 28  1  0
  7 29  1  0
  8 30  1  0
 11 31  1  0
 12 32  1  0
 16 33  1  0
 16 34  1  0
 18 35  1  0
 19 36  1  0
 20 37  1  0
 21 38  1  0
 22 39  1  0
M  END
>  <UniqueID>  (68) 
59

>  <SMILES>  (68) 
CN(C)C(=O)c1ccc2c(c1)[nH]c(=O)n2Cc1ccccc1

>  <Energy>  (68) 
82.9311552978195

>  <Genealogy>  (68) 
CN(C)C(=O)c1ccc2c(c1)[nH]c(=O)n2Cc1ccccc1 (3D coordinates assigned)
CN(C)C(=O)c1ccc2c(c1)[nH]c(=O)n2Cc1ccccc1 (optimized conformer: 82.9311552978195 kcal/mol)

>  <smiles>  (68) 
CN(C)C(=O)c1ccc2c(c1)[nH]c(=O)n2Cc1ccccc1

>  <score_type>  (68) 
oracle

>  <origin>  (68) 
adg

>  <m_score__min__energy>  (68) 
-7.5700000000000003

>  <m_primary>  (68) 
energy

$$$$
68:0
     RDKit          3D

 40 42  0  0  0  0  0  0  0  0999 V2000
   59.9310   27.6980   45.5320 C   0  0  0  0  0  0  0  0  0  0  0  0
   58.6250   27.1370   46.0070 C   0  0  0  0  0  0  0  0  0  0  0  0
   58.4910   26.1660   46.9870 C   0  0  0  0  0  0  0  0  0  0  0  0
   57.1390   25.9020   47.1010 C   0  0  0  0  0  0  0  0  0  0  0  0
   56.5150   26.7190   46.1840 C   0  0  0  0  0  0  0  0  0  0  0  0
   55.1440   26.7540   45.9560 O   0  0  0  0  0  0  0  0  0  0  0  0
   57.4100   27.4780   45.5200 N   0  0  0  0  0  0  0  0  0  0  0  0
   57.1090   28.4030   44.4260 C   0  0  0  0  0  0  0  0  0  0  0  0
   56.5750   29.6870   44.9750 C   0  0  0  0  0  0  0  0  0  0  0  0
   55.4690   30.1300   44.5630 O   0  0  0  0  0  0  0  0  0  0  0  0
   57.3810   30.4490   45.8790 N   0  0  0  0  0  0  0  0  0  0  0  0
   57.8440   31.7950   45.7010 C   0  0  0  0  0  0  0  0  0  0  0  0
   57.0220   32.7960   45.1500 C   0  0  0  0  0  0  0  0  0  0  0  0
   57.4990   34.1020   45.0120 C   0  0  0  0  0  0  0  0  0  0  0  0
   58.7920   34.4220   45.4250 C   0  0  0  0  0  0  0  0  0  0  0  0
   59.6080   33.4410   45.9940 C   0  0  0  0  0  0  0  0  0  0  0  0
   59.1310   32.1270   46.1560 C   0  0  0  0  0  0  0  0  0  0  0  0
   59.9330   31.1180   46.7110 O   0  0  0  0  0  0  0  0  0  0  0  0
   59.7300   30.5040   47.9550 C   0  0  0  0  0  0  0  0  0  0  0  0
   58.9030   31.1400   48.8900 C   0  0  0  0  0  0  0  0  0  0  0  0
   58.6890   30.5700   50.1490 C   0  0  0  0  0  0  0  0  0  0  0  0
   59.3120   29.3650   50.4860 C   0  0  0  0  0  0  0  0  0  0  0  0
   60.1550   28.7330   49.5680 C   0  0  0  0  0  0  0  0  0  0  0  0
   60.3700   29.3010   48.3080 C   0  0  0  0  0  0  0  0  0  0  0  0
   60.5525   27.9650   46.3994 H   0  0  0  0  0  0  0  0  0  0  0  0
   60.4540   26.9452   44.9240 H   0  0  0  0  0  0  0  0  0  0  0  0
   59.7450   28.5956   44.9240 H   0  0  0  0  0  0  0  0  0  0  0  0
   59.3028   25.6967   47.5622 H   0  0  0  0  0  0  0  0  0  0  0  0
   56.6593   25.1858   47.7844 H   0  0  0  0  0  0  0  0  0  0  0  0
   58.0280   28.6046   43.8561 H   0  0  0  0  0  0  0  0  0  0  0  0
   56.3536   27.9498   43.7672 H   0  0  0  0  0  0  0  0  0  0  0  0
   56.0000   32.5491   44.8268 H   0  0  0  0  0  0  0  0  0  0  0  0
   56.8535   34.8792   44.5768 H   0  0  0  0  0  0  0  0  0  0  0  0
   59.1698   35.4478   45.3026 H   0  0  0  0  0  0  0  0  0  0  0  0
   60.6280   33.6969   46.3168 H   0  0  0  0  0  0  0  0  0  0  0  0
   58.4190   32.0936   48.6323 H   0  0  0  0  0  0  0  0  0  0  0  0
   58.0302   31.0701   50.8742 H   0  0  0  0  0  0  0  0  0  0  0  0
   59.1386   28.9140   51.4742 H   0  0  0  0  0  0  0  0  0  0  0  0
   60.6499   27.7880   49.8365 H   0  0  0  0  0  0  0  0  0  0  0  0
   61.0413   28.8061   47.5908 H   0  0  0  0  0  0  0  0  0  0  0  0
  1  2  1  0
  2  3  2  0
  3  4  1  0
  4  5  2  0
  5  6  1  0
  5  7  1  0
  7  8  1  0
  8  9  1  0
  9 10  2  0
  9 11  1  0
 11 12  1  0
 12 13  2  0
 13 14  1  0
 14 15  2  0
 15 16  1  0
 16 17  2  0
 17 18  1  0
 18 19  1  0
 19 20  2  0
 20 21  1  0
 21 22  2  0
 22 23  1  0
 23 24  2  0
  7  2  1  0
 17 12  1  0
 24 19  1  0
  1 25  1  0
  1 26  1  0
  1 27  1  0
  3 28  1  0
  4 29  1  0
  8 30  1  0
  8 31  1  0
 13 32  1  0
 14 33  1  0
 15 34  1  0
 16 35  1  0
 20 36  1  0
 21 37  1  0
 22 38  1  0
 23 39  1  0
 24 40  1  0
M  CHG  2   6  -1  11  -1
M  END
>  <UniqueID>  (69) 
60

>  <SMILES>  (69) 
Cc1ccc([O-])n1CC(=O)[N-]c1ccccc1Oc1ccccc1

>  <Energy>  (69) 
75.85774671297948

>  <Genealogy>  (69) 
Cc1ccc([O-])n1CC(=O)[N-]c1ccccc1Oc1ccccc1 (protonated)
Cc1ccc([O-])n1CC(=O)[N-]c1ccccc1Oc1ccccc1 (3D coordinates assigned)
Cc1ccc([O-])n1CC(=O)[N-]c1ccccc1Oc1ccccc1 (optimized conformer: 75.85774671297948 kcal/mol)

>  <smiles>  (69) 
Cc1ccc(O)n1CC(=O)Nc1ccccc1Oc1ccccc1

>  <score_type>  (69) 
oracle

>  <origin>  (69) 
adg

>  <m_score__min__energy>  (69) 
-12.949999999999999

>  <m_primary>  (69) 
energy

$$$$
69:0
     RDKit          3D

 60 63  0  0  0  0  0  0  0  0999 V2000
   58.1040   32.0540   42.6720 C   0  0  0  0  0  0  0  0  0  0  0  0
   58.1820   31.3090   43.9370 N   0  0  0  0  0  0  0  0  0  0  0  0
   57.5530   29.9850   43.8000 C   0  0  0  0  0  0  0  0  0  0  0  0
   57.5430   32.0620   44.9970 C   0  0  0  0  0  0  0  0  0  0  0  0
   56.2940   31.9670   45.1680 O   0  0  0  0  0  0  0  0  0  0  0  0
   58.3220   32.9460   45.9000 C   0  0  0  0  0  0  0  0  0  0  0  0
   58.9880   34.0870   45.4130 C   0  0  0  0  0  0  0  0  0  0  0  0
   59.7370   34.8880   46.2790 C   0  0  0  0  0  0  0  0  0  0  0  0
   59.8470   34.5570   47.6300 C   0  0  0  0  0  0  0  0  0  0  0  0
   59.1900   33.4220   48.1300 C   0  0  0  0  0  0  0  0  0  0  0  0
   59.3240   33.0480   49.5540 C   0  0  0  0  0  0  0  0  0  0  0  0
   58.1830   32.5930   50.2340 C   0  0  0  0  0  0  0  0  0  0  0  0
   58.2460   32.2670   51.5900 C   0  0  0  0  0  0  0  0  0  0  0  0
   56.8070   31.7200   52.4300 Cl  0  0  0  0  0  0  0  0  0  0  0  0
   59.4520   32.3910   52.2820 C   0  0  0  0  0  0  0  0  0  0  0  0
   60.6000   32.8260   51.6180 C   0  0  0  0  0  0  0  0  0  0  0  0
   60.5640   33.1360   50.2460 C   0  0  0  0  0  0  0  0  0  0  0  0
   61.8450   33.5770   49.5670 C   0  0  0  0  0  0  0  0  0  0  0  0
   62.4620   32.4700   48.8340 N   0  0  0  0  0  0  0  0  0  0  0  0
   61.7460   31.3210   48.3380 C   0  0  0  0  0  0  0  0  0  0  0  0
   61.3050   30.2930   49.1910 C   0  0  0  0  0  0  0  0  0  0  0  0
   60.6080   29.1960   48.6780 C   0  0  0  0  0  0  0  0  0  0  0  0
   60.3320   29.1030   47.3040 C   0  0  0  0  0  0  0  0  0  0  0  0
   59.5810   27.9440   46.7620 C   0  0  0  0  0  0  0  0  0  0  0  0
   60.2340   26.7290   46.5120 C   0  0  0  0  0  0  0  0  0  0  0  0
   59.5270   25.6400   46.0070 C   0  0  0  0  0  0  0  0  0  0  0  0
   58.1550   25.7350   45.7470 C   0  0  0  0  0  0  0  0  0  0  0  0
   57.3690   24.3020   45.0820 Cl  0  0  0  0  0  0  0  0  0  0  0  0
   57.4710   26.9510   46.0000 C   0  0  0  0  0  0  0  0  0  0  0  0
   56.0130   27.1250   45.7650 C   0  0  0  0  0  0  0  0  0  0  0  0
   55.1900   26.2140   46.0430 O   0  0  0  0  0  0  0  0  0  0  0  0
   55.5270   28.3200   45.2420 O   0  0  0  0  0  0  0  0  0  0  0  0
   58.2050   28.0450   46.5010 C   0  0  0  0  0  0  0  0  0  0  0  0
   60.7730   30.1280   46.4520 C   0  0  0  0  0  0  0  0  0  0  0  0
   61.4740   31.2230   46.9650 C   0  0  0  0  0  0  0  0  0  0  0  0
   58.4080   32.6380   47.2690 C   0  0  0  0  0  0  0  0  0  0  0  0
   57.9916   33.1273   42.8849 H   0  0  0  0  0  0  0  0  0  0  0  0
   59.0243   31.8896   42.0923 H   0  0  0  0  0  0  0  0  0  0  0  0
   57.2377   31.7025   42.0923 H   0  0  0  0  0  0  0  0  0  0  0  0
   59.1910   31.1420   44.1640 H   0  0  0  0  0  0  0  0  0  0  0  0
   57.3549   29.5681   44.7985 H   0  0  0  0  0  0  0  0  0  0  0  0
   56.6058   30.0842   43.2496 H   0  0  0  0  0  0  0  0  0  0  0  0
   58.2283   29.3134   43.2496 H   0  0  0  0  0  0  0  0  0  0  0  0
   58.9184   34.3488   44.3469 H   0  0  0  0  0  0  0  0  0  0  0  0
   60.2431   35.7852   45.8932 H   0  0  0  0  0  0  0  0  0  0  0  0
   60.4486   35.1855   48.3031 H   0  0  0  0  0  0  0  0  0  0  0  0
   57.2304   32.4924   49.6932 H   0  0  0  0  0  0  0  0  0  0  0  0
   59.4977   32.1453   53.3532 H   0  0  0  0  0  0  0  0  0  0  0  0
   61.5438   32.9277   52.1737 H   0  0  0  0  0  0  0  0  0  0  0  0
   61.6165   34.3907   48.8630 H   0  0  0  0  0  0  0  0  0  0  0  0
   62.5493   33.9197   50.3393 H   0  0  0  0  0  0  0  0  0  0  0  0
   63.4850   32.5430   48.6360 H   0  0  0  0  0  0  0  0  0  0  0  0
   61.5104   30.3532   50.2700 H   0  0  0  0  0  0  0  0  0  0  0  0
   60.2724   28.3979   49.3565 H   0  0  0  0  0  0  0  0  0  0  0  0
   61.3109   26.6349   46.7158 H   0  0  0  0  0  0  0  0  0  0  0  0
   60.0533   24.6943   45.8103 H   0  0  0  0  0  0  0  0  0  0  0  0
   57.6892   28.9977   46.6915 H   0  0  0  0  0  0  0  0  0  0  0  0
   60.5654   30.0689   45.3734 H   0  0  0  0  0  0  0  0  0  0  0  0
   61.8163   32.0168   46.2847 H   0  0  0  0  0  0  0  0  0  0  0  0
   57.8568   31.7740   47.6687 H   0  0  0  0  0  0  0  0  0  0  0  0
  1  2  1  0
  2  3  1  0
  2  4  1  0
  4  5  2  0
  4  6  1  0
  6  7  2  0
  7  8  1  0
  8  9  2  0
  9 10  1  0
 10 11  1  0
 11 12  2  0
 12 13  1  0
 13 14  1  0
 13 15  2  0
 15 16  1  0
 16 17  2  0
 17 18  1  0
 18 19  1  0
 19 20  1  0
 20 21  2  0
 21 22  1  0
 22 23  2  0
 23 24  1  0
 24 25  2  0
 25 26  1  0
 26 27  2  0
 27 28  1  0
 27 29  1  0
 29 30  1  0
 30 31  2  0
 30 32  1  0
 29 33  2  0
 23 34  1  0
 34 35  2  0
 10 36  2  0
 36  6  1  0
 17 11  1  0
 35 20  1  0
 33 24  1  0
  1 37  1  0
  1 38  1  0
  1 39  1  0
  2 40  1  0
  3 41  1  0
  3 42  1  0
  3 43  1  0
  7 44  1  0
  8 45  1  0
  9 46  1  0
 12 47  1  0
 15 48  1  0
 16 49  1  0
 18 50  1  0
 18 51  1  0
 19 52  1  0
 21 53  1  0
 22 54  1  0
 25 55  1  0
 26 56  1  0
 33 57  1  0
 34 58  1  0
 35 59  1  0
 36 60  1  0
M  CHG  2   2   1  32  -1
M  END
>  <UniqueID>  (70) 
61

>  <SMILES>  (70) 
C[NH+](C)C(=O)c1cccc(-c2cc(Cl)ccc2CNc2ccc(-c3ccc(Cl)c(C(=O)[O-])c3)cc2)c1

>  <Energy>  (70) 
84.71224179972444

>  <Genealogy>  (70) 
C[NH+](C)C(=O)c1cccc(-c2cc(Cl)ccc2CNc2ccc(-c3ccc(Cl)c(C(=O)[O-])c3)cc2)c1 (protonated)
C[NH+](C)C(=O)c1cccc(-c2cc(Cl)ccc2CNc2ccc(-c3ccc(Cl)c(C(=O)[O-])c3)cc2)c1 (3D coordinates assigned)
C[NH+](C)C(=O)c1cccc(-c2cc(Cl)ccc2CNc2ccc(-c3ccc(Cl)c(C(=O)[O-])c3)cc2)c1 (optimized conformer: 84.71224179972444 kcal/mol)

>  <smiles>  (70) 
CN(C)C(=O)c1cccc(-c2cc(Cl)ccc2CNc2ccc(-c3ccc(Cl)c(C(=O)O)c3)cc2)c1

>  <score_type>  (70) 
oracle

>  <origin>  (70) 
adg

>  <m_score__min__energy>  (70) 
-13.23

>  <m_primary>  (70) 
energy

$$$$
70:0
     RDKit          3D

 21 21  0  0  0  0  0  0  0  0999 V2000
   58.1609   27.1593   46.3695 H   0  0  0  0  0  0  0  0  0  0  0  0
   57.1600   27.1860   45.9140 C   0  0  0  0  0  0  0  0  0  0  0  0
   56.1390   26.2370   46.3810 C   0  0  0  0  0  0  0  0  0  0  0  0
   56.4680   25.3010   47.1550 O   0  0  0  0  0  0  0  0  0  0  0  0
   54.8140   26.3540   45.9770 O   0  0  0  0  0  0  0  0  0  0  0  0
   56.9090   28.0810   44.9520 C   0  0  0  0  0  0  0  0  0  0  0  0
   56.8647   27.7360   43.9084 H   0  0  0  0  0  0  0  0  0  0  0  0
   56.6890   29.5140   45.2350 C   0  0  0  0  0  0  0  0  0  0  0  0
   55.6150   30.0460   44.8510 O   0  0  0  0  0  0  0  0  0  0  0  0
   57.6310   30.3130   45.9650 N   0  0  0  0  0  0  0  0  0  0  0  0
   57.9470   31.6910   45.7160 C   0  0  0  0  0  0  0  0  0  0  0  0
   57.9920   32.1470   44.3930 C   0  0  0  0  0  0  0  0  0  0  0  0
   57.7746   31.4534   43.5674 H   0  0  0  0  0  0  0  0  0  0  0  0
   58.3120   33.4800   44.1160 C   0  0  0  0  0  0  0  0  0  0  0  0
   58.3340   33.8349   43.0751 H   0  0  0  0  0  0  0  0  0  0  0  0
   58.6040   34.3620   45.1610 C   0  0  0  0  0  0  0  0  0  0  0  0
   58.8503   35.4115   44.9422 H   0  0  0  0  0  0  0  0  0  0  0  0
   58.5830   33.9100   46.4840 C   0  0  0  0  0  0  0  0  0  0  0  0
   58.8800   34.7610   47.4950 F   0  0  0  0  0  0  0  0  0  0  0  0
   58.2630   32.5770   46.7630 C   0  0  0  0  0  0  0  0  0  0  0  0
   58.2583   32.2203   47.8036 H   0  0  0  0  0  0  0  0  0  0  0  0
  1  2  1  0
  2  3  1  0
  3  4  2  0
  3  5  1  0
  2  6  2  0
  6  7  1  0
  6  8  1  0
  8  9  2  0
  8 10  1  0
 10 11  1  0
 11 12  2  0
 12 13  1  0
 12 14  1  0
 14 15  1  0
 14 16  2  0
 16 17  1  0
 16 18  1  0
 18 19  1  0
 18 20  2  0
 20 21  1  0
 20 11  1  0
M  CHG  2   5  -1  10  -1
M  END
>  <UniqueID>  (71) 
62

>  <SMILES>  (71) 
O=C([O-])/C=C/C(=O)[N-]c1cccc(F)c1

>  <Energy>  (71) 
23.713573904816037

>  <Genealogy>  (71) 
O=C([O-])C=CC(=O)[N-]c1cccc(F)c1 (protonated)
O=C([O-])/C=C/C(=O)[N-]c1cccc(F)c1 (cis-trans isomerization)
O=C([O-])/C=C/C(=O)[N-]c1cccc(F)c1 (3D coordinates assigned)
O=C([O-])/C=C/C(=O)[N-]c1cccc(F)c1 (optimized conformer: 23.713573904816037 kcal/mol)

>  <smiles>  (71) 
O=C(O)C=CC(=O)Nc1cccc(F)c1

>  <score_type>  (71) 
oracle

>  <origin>  (71) 
adg

>  <m_score__min__energy>  (71) 
-10.24

>  <m_primary>  (71) 
energy

$$$$
71:0
     RDKit          3D

 65 68  0  0  0  0  0  0  0  0999 V2000
   54.0020   22.9390   46.5380 C   0  0  0  0  0  0  0  0  0  0  0  0
   53.7060   23.0320   45.1000 N   0  0  0  0  0  0  0  0  0  0  0  0
   52.6840   24.0710   44.8800 C   0  0  0  0  0  0  0  0  0  0  0  0
   54.9400   23.3370   44.3430 C   0  0  0  0  0  0  0  0  0  0  0  0
   56.1040   23.6270   45.2990 C   0  0  0  0  0  0  0  0  0  0  0  0
   57.1850   24.3230   44.5970 N   0  0  0  0  0  0  0  0  0  0  0  0
   57.3770   25.7520   44.6050 C   0  0  0  0  0  0  0  0  0  0  0  0
   57.1170   26.5330   45.7480 C   0  0  0  0  0  0  0  0  0  0  0  0
   57.3180   27.9160   45.7210 C   0  0  0  0  0  0  0  0  0  0  0  0
   57.7620   28.5520   44.5490 C   0  0  0  0  0  0  0  0  0  0  0  0
   57.9920   30.0180   44.5150 C   0  0  0  0  0  0  0  0  0  0  0  0
   57.8950   30.6270   43.4150 O   0  0  0  0  0  0  0  0  0  0  0  0
   58.3420   30.7900   45.7320 C   0  0  0  0  0  0  0  0  0  0  0  0
   57.7620   32.0460   45.9580 C   0  0  0  0  0  0  0  0  0  0  0  0
   58.0950   32.7870   47.0960 C   0  0  0  0  0  0  0  0  0  0  0  0
   59.0040   32.2780   48.0410 C   0  0  0  0  0  0  0  0  0  0  0  0
   59.3540   33.0590   49.2050 N   0  0  0  0  0  0  0  0  0  0  0  0
   60.2420   34.2300   49.0930 C   0  0  0  0  0  0  0  0  0  0  0  0
   61.5880   33.8430   48.5270 C   0  0  0  0  0  0  0  0  0  0  0  0
   62.6630   33.5410   49.3820 C   0  0  0  0  0  0  0  0  0  0  0  0
   63.9050   33.1770   48.8540 C   0  0  0  0  0  0  0  0  0  0  0  0
   64.0910   33.1270   47.4710 C   0  0  0  0  0  0  0  0  0  0  0  0
   63.0370   33.4490   46.6120 C   0  0  0  0  0  0  0  0  0  0  0  0
   61.7930   33.8100   47.1360 C   0  0  0  0  0  0  0  0  0  0  0  0
   58.8090   32.6910   50.4880 C   0  0  0  0  0  0  0  0  0  0  0  0
   58.0810   31.4960   50.6230 C   0  0  0  0  0  0  0  0  0  0  0  0
   57.5500   31.1300   51.8620 C   0  0  0  0  0  0  0  0  0  0  0  0
   57.7480   31.9480   52.9780 C   0  0  0  0  0  0  0  0  0  0  0  0
   57.2350   31.5910   54.1820 F   0  0  0  0  0  0  0  0  0  0  0  0
   58.4750   33.1360   52.8530 C   0  0  0  0  0  0  0  0  0  0  0  0
   59.0070   33.5070   51.6140 C   0  0  0  0  0  0  0  0  0  0  0  0
   59.5640   31.0080   47.8240 C   0  0  0  0  0  0  0  0  0  0  0  0
   59.2320   30.2700   46.6860 C   0  0  0  0  0  0  0  0  0  0  0  0
   58.0280   27.7720   43.4130 C   0  0  0  0  0  0  0  0  0  0  0  0
   57.8310   26.3880   43.4400 C   0  0  0  0  0  0  0  0  0  0  0  0
   53.1086   23.2197   47.1151 H   0  0  0  0  0  0  0  0  0  0  0  0
   54.2901   21.9070   46.7871 H   0  0  0  0  0  0  0  0  0  0  0  0
   54.8286   23.6207   46.7871 H   0  0  0  0  0  0  0  0  0  0  0  0
   52.3212   24.4398   45.8507 H   0  0  0  0  0  0  0  0  0  0  0  0
   53.1243   24.9041   44.3125 H   0  0  0  0  0  0  0  0  0  0  0  0
   51.8437   23.6445   44.3125 H   0  0  0  0  0  0  0  0  0  0  0  0
   55.1982   22.4748   43.7106 H   0  0  0  0  0  0  0  0  0  0  0  0
   54.7628   24.2267   43.7209 H   0  0  0  0  0  0  0  0  0  0  0  0
   55.7447   24.2575   46.1256 H   0  0  0  0  0  0  0  0  0  0  0  0
   56.4897   22.6733   45.6885 H   0  0  0  0  0  0  0  0  0  0  0  0
   57.8500   23.7350   44.0460 H   0  0  0  0  0  0  0  0  0  0  0  0
   56.7534   26.0515   46.6678 H   0  0  0  0  0  0  0  0  0  0  0  0
   57.1269   28.5121   46.6255 H   0  0  0  0  0  0  0  0  0  0  0  0
   57.0394   32.4517   45.2346 H   0  0  0  0  0  0  0  0  0  0  0  0
   57.6420   33.7769   47.2537 H   0  0  0  0  0  0  0  0  0  0  0  0
   59.7742   34.9729   48.4302 H   0  0  0  0  0  0  0  0  0  0  0  0
   60.3945   34.6488   50.0986 H   0  0  0  0  0  0  0  0  0  0  0  0
   62.5257   33.5915   50.4722 H   0  0  0  0  0  0  0  0  0  0  0  0
   64.7374   32.9295   49.5292 H   0  0  0  0  0  0  0  0  0  0  0  0
   65.0674   32.8341   47.0577 H   0  0  0  0  0  0  0  0  0  0  0  0
   63.1867   33.4183   45.5227 H   0  0  0  0  0  0  0  0  0  0  0  0
   60.9684   34.0701   46.4560 H   0  0  0  0  0  0  0  0  0  0  0  0
   57.9288   30.8460   49.7487 H   0  0  0  0  0  0  0  0  0  0  0  0
   56.9754   30.1971   51.9596 H   0  0  0  0  0  0  0  0  0  0  0  0
   58.6288   33.7802   53.7313 H   0  0  0  0  0  0  0  0  0  0  0  0
   59.5819   34.4402   51.5210 H   0  0  0  0  0  0  0  0  0  0  0  0
   60.2703   30.5912   48.5571 H   0  0  0  0  0  0  0  0  0  0  0  0
   59.6713   29.2728   46.5354 H   0  0  0  0  0  0  0  0  0  0  0  0
   58.3943   28.2532   42.4942 H   0  0  0  0  0  0  0  0  0  0  0  0
   58.0341   25.7917   42.5383 H   0  0  0  0  0  0  0  0  0  0  0  0
  1  2  1  0
  2  3  1  0
  2  4  1  0
  4  5  1  0
  5  6  1  0
  6  7  1  0
  7  8  2  0
  8  9  1  0
  9 10  2  0
 10 11  1  0
 11 12  2  0
 11 13  1  0
 13 14  2  0
 14 15  1  0
 15 16  2  0
 16 17  1  0
 17 18  1  0
 18 19  1  0
 19 20  2  0
 20 21  1  0
 21 22  2  0
 22 23  1  0
 23 24  2  0
 17 25  1  0
 25 26  2  0
 26 27  1  0
 27 28  2  0
 28 29  1  0
 28 30  1  0
 30 31  2  0
 16 32  1  0
 32 33  2  0
 10 34  1  0
 34 35  2  0
 35  7  1  0
 33 13  1  0
 24 19  1  0
 31 25  1  0
  1 36  1  0
  1 37  1  0
  1 38  1  0
  3 39  1  0
  3 40  1  0
  3 41  1  0
  4 42  1  0
  4 43  1  0
  5 44  1  0
  5 45  1  0
  6 46  1  0
  8 47  1  0
  9 48  1  0
 14 49  1  0
 15 50  1  0
 18 51  1  0
 18 52  1  0
 20 53  1  0
 21 54  1  0
 22 55  1  0
 23 56  1  0
 24 57  1  0
 26 58  1  0
 27 59  1  0
 30 60  1  0
 31 61  1  0
 32 62  1  0
 33 63  1  0
 34 64  1  0
 35 65  1  0
M  END
>  <UniqueID>  (72) 
63

>  <SMILES>  (72) 
CN(C)CCNc1ccc(C(=O)c2ccc(N(Cc3ccccc3)c3ccc(F)cc3)cc2)cc1

>  <Energy>  (72) 
82.27346193306848

>  <Genealogy>  (72) 
CN(C)CCNc1ccc(C(=O)c2ccc(N(Cc3ccccc3)c3ccc(F)cc3)cc2)cc1 (3D coordinates assigned)
CN(C)CCNc1ccc(C(=O)c2ccc(N(Cc3ccccc3)c3ccc(F)cc3)cc2)cc1 (optimized conformer: 82.27346193306848 kcal/mol)

>  <smiles>  (72) 
CN(C)CCNc1ccc(C(=O)c2ccc(N(Cc3ccccc3)c3ccc(F)cc3)cc2)cc1

>  <score_type>  (72) 
oracle

>  <origin>  (72) 
adg

>  <m_score__min__energy>  (72) 
-8.9900000000000002

>  <m_primary>  (72) 
energy

$$$$
72:0
     RDKit          3D

 50 53  0  0  1  0  0  0  0  0999 V2000
   63.1920   34.2260   50.1680 C   0  0  0  0  0  0  0  0  0  0  0  0
   62.2790   33.8220   49.0480 C   0  0  0  0  0  0  0  0  0  0  0  0
   62.6170   33.8710   47.7890 C   0  0  0  0  0  0  0  0  0  0  0  0
   61.8190   33.5080   46.6100 C   0  0  0  0  0  0  0  0  0  0  0  0
   60.5270   32.9370   46.9890 C   0  0  2  0  0  0  0  0  0  0  0  0
   59.4320   33.1820   46.0800 N   0  0  0  0  0  0  0  0  0  0  0  0
   58.8780   32.2860   45.3380 C   0  0  0  0  0  0  0  0  0  0  0  0
   58.7600   30.9750   45.8260 C   0  0  0  0  0  0  0  0  0  0  0  0
   58.1800   29.9930   45.0780 C   0  0  0  0  0  0  0  0  0  0  0  0
   58.0160   28.6050   45.4060 C   0  0  0  0  0  0  0  0  0  0  0  0
   56.7060   28.1490   45.5870 C   0  0  0  0  0  0  0  0  0  0  0  0
   56.4080   26.8520   45.9290 C   0  0  0  0  0  0  0  0  0  0  0  0
   55.1070   26.4480   46.0960 O   0  0  0  0  0  0  0  0  0  0  0  0
   57.4040   25.9210   46.1130 C   0  0  0  0  0  0  0  0  0  0  0  0
   58.6960   26.3510   45.9410 C   0  0  0  0  0  0  0  0  0  0  0  0
   59.0020   27.6760   45.5920 C   0  0  0  0  0  0  0  0  0  0  0  0
   60.4330   28.0070   45.4900 C   0  0  0  0  0  0  0  0  0  0  0  0
   57.7400   30.3880   43.8460 N   0  0  0  0  0  0  0  0  0  0  0  0
   57.8620   31.6480   43.3930 C   0  0  0  0  0  0  0  0  0  0  0  0
   57.3530   31.9660   42.0510 C   0  0  0  0  0  0  0  0  0  0  0  0
   58.4290   32.6280   44.1180 N   0  0  0  0  0  0  0  0  0  0  0  0
   60.1400   32.9380   48.4040 C   0  0  0  0  0  0  0  0  0  0  0  0
   58.8820   32.4950   48.7370 C   0  0  0  0  0  0  0  0  0  0  0  0
   58.4840   32.4550   50.0530 C   0  0  0  0  0  0  0  0  0  0  0  0
   59.2970   32.8450   51.0840 C   0  0  0  0  0  0  0  0  0  0  0  0
   60.5800   33.2980   50.7670 C   0  0  0  0  0  0  0  0  0  0  0  0
   60.9630   33.3330   49.4410 C   0  0  0  0  0  0  0  0  0  0  0  0
   62.7072   34.0115   51.1318 H   0  0  0  0  0  0  0  0  0  0  0  0
   64.1325   33.6600   50.0967 H   0  0  0  0  0  0  0  0  0  0  0  0
   63.4057   35.3027   50.0967 H   0  0  0  0  0  0  0  0  0  0  0  0
   63.6353   34.2323   47.5826 H   0  0  0  0  0  0  0  0  0  0  0  0
   61.6467   34.4098   46.0042 H   0  0  0  0  0  0  0  0  0  0  0  0
   62.3752   32.7507   46.0381 H   0  0  0  0  0  0  0  0  0  0  0  0
   60.7888   31.8783   46.8456 H   0  0  0  0  0  0  0  0  0  0  0  0
   59.1420   30.7355   46.8293 H   0  0  0  0  0  0  0  0  0  0  0  0
   55.8780   28.8600   45.4495 H   0  0  0  0  0  0  0  0  0  0  0  0
   54.3790   27.0960   46.3570 H   0  0  0  0  0  0  0  0  0  0  0  0
   57.1754   24.8801   46.3854 H   0  0  0  0  0  0  0  0  0  0  0  0
   59.5185   25.6342   46.0812 H   0  0  0  0  0  0  0  0  0  0  0  0
   60.8594   28.1056   46.4992 H   0  0  0  0  0  0  0  0  0  0  0  0
   60.9568   27.2063   44.9473 H   0  0  0  0  0  0  0  0  0  0  0  0
   60.5520   28.9564   44.9473 H   0  0  0  0  0  0  0  0  0  0  0  0
   56.4231   32.5469   42.1397 H   0  0  0  0  0  0  0  0  0  0  0  0
   58.1034   32.5562   41.5046 H   0  0  0  0  0  0  0  0  0  0  0  0
   57.1516   31.0328   41.5046 H   0  0  0  0  0  0  0  0  0  0  0  0
   58.5220   33.5940   43.7710 H   0  0  0  0  0  0  0  0  0  0  0  0
   58.1895   32.1706   47.9463 H   0  0  0  0  0  0  0  0  0  0  0  0
   57.4713   32.0950   50.2871 H   0  0  0  0  0  0  0  0  0  0  0  0
   58.9511   32.8029   52.1273 H   0  0  0  0  0  0  0  0  0  0  0  0
   61.2720   33.6207   51.5589 H   0  0  0  0  0  0  0  0  0  0  0  0
  1  2  1  0
  2  3  2  0
  3  4  1  0
  4  5  1  0
  5  6  1  0
  6  7  2  0
  7  8  1  0
  8  9  2  0
  9 10  1  0
 10 11  2  0
 11 12  1  0
 12 13  1  0
 12 14  2  0
 14 15  1  0
 15 16  2  0
 16 17  1  0
  9 18  1  0
 18 19  2  0
 19 20  1  0
 19 21  1  0
  5 22  1  0
 22 23  2  0
 23 24  1  0
 24 25  2  0
 25 26  1  0
 26 27  2  0
 27  2  1  0
 21  7  1  0
 27 22  1  0
 16 10  1  0
  1 28  1  0
  1 29  1  0
  1 30  1  0
  3 31  1  0
  4 32  1  0
  4 33  1  0
  5 34  1  6
  8 35  1  0
 11 36  1  0
 13 37  1  0
 14 38  1  0
 15 39  1  0
 17 40  1  0
 17 41  1  0
 17 42  1  0
 20 43  1  0
 20 44  1  0
 20 45  1  0
 21 46  1  0
 23 47  1  0
 24 48  1  0
 25 49  1  0
 26 50  1  0
M  END
>  <smiles>  (73) 
CC1=CCC(N=c2cc(-c3cc(O)ccc3C)nc(C)[nH]2)c2ccccc21

>  <score_type>  (73) 
oracle

>  <origin>  (73) 
adg

>  <m_score__min__energy>  (73) 
-10.44

>  <m_primary>  (73) 
energy

$$$$
73:0
     RDKit          3D

 53 56  0  0  0  0  0  0  0  0999 V2000
   54.4200   25.9780   45.6240 O   0  0  0  0  0  0  0  0  0  0  0  0
   55.5980   25.7950   46.0270 C   0  0  0  0  0  0  0  0  0  0  0  0
   56.6120   26.6840   45.6620 C   0  0  0  0  0  0  0  0  0  0  0  0
   57.9160   26.4440   46.1220 C   0  0  0  0  0  0  0  0  0  0  0  0
   59.0020   27.3380   45.8270 N   0  0  0  0  0  0  0  0  0  0  0  0
   59.4060   28.4600   46.6350 C   0  0  0  0  0  0  0  0  0  0  0  0
   60.4480   29.2850   46.1880 C   0  0  0  0  0  0  0  0  0  0  0  0
   60.8320   30.4070   46.9260 C   0  0  0  0  0  0  0  0  0  0  0  0
   60.1930   30.7090   48.1360 C   0  0  0  0  0  0  0  0  0  0  0  0
   60.7060   32.1030   49.0910 S   0  0  0  0  0  0  0  0  0  0  0  0
   62.1240   31.8820   49.5420 O   0  0  0  0  0  0  0  0  0  0  0  0
   59.8450   32.1950   50.3220 O   0  0  0  0  0  0  0  0  0  0  0  0
   60.6290   33.6120   48.2020 N   0  0  0  0  0  0  0  0  0  0  0  0
   61.3480   33.5750   46.9060 C   0  0  0  0  0  0  0  0  0  0  0  0
   60.4520   33.8590   45.6870 C   0  0  0  0  0  0  0  0  0  0  0  0
   59.1200   33.1220   45.8340 C   0  0  0  0  0  0  0  0  0  0  0  0
   58.2640   33.2430   44.5560 C   0  0  0  0  0  0  0  0  0  0  0  0
   57.6240   31.9220   44.2070 C   0  0  0  0  0  0  0  0  0  0  0  0
   57.4200   30.9410   45.1920 C   0  0  0  0  0  0  0  0  0  0  0  0
   56.8900   29.6940   44.8440 C   0  0  0  0  0  0  0  0  0  0  0  0
   56.5650   29.4180   43.5130 C   0  0  0  0  0  0  0  0  0  0  0  0
   56.7660   30.3880   42.5280 C   0  0  0  0  0  0  0  0  0  0  0  0
   57.2940   31.6350   42.8730 C   0  0  0  0  0  0  0  0  0  0  0  0
   58.3610   33.6320   47.0810 C   0  0  0  0  0  0  0  0  0  0  0  0
   59.2820   34.2130   48.1730 C   0  0  0  0  0  0  0  0  0  0  0  0
   59.1270   29.9100   48.5680 C   0  0  0  0  0  0  0  0  0  0  0  0
   58.7240   28.8020   47.8160 C   0  0  0  0  0  0  0  0  0  0  0  0
   58.1430   25.3770   46.9340 N   0  0  0  0  0  0  0  0  0  0  0  0
   57.1440   24.5230   47.2790 C   0  0  0  0  0  0  0  0  0  0  0  0
   57.3890   23.5390   48.0230 O   0  0  0  0  0  0  0  0  0  0  0  0
   55.8820   24.7340   46.8240 N   0  0  0  0  0  0  0  0  0  0  0  0
   56.3927   27.5548   45.0267 H   0  0  0  0  0  0  0  0  0  0  0  0
   59.5340   27.1600   44.9460 H   0  0  0  0  0  0  0  0  0  0  0  0
   60.9674   29.0466   45.2481 H   0  0  0  0  0  0  0  0  0  0  0  0
   61.6392   31.0561   46.5559 H   0  0  0  0  0  0  0  0  0  0  0  0
   62.1473   34.3303   46.9317 H   0  0  0  0  0  0  0  0  0  0  0  0
   61.7363   32.5529   46.7855 H   0  0  0  0  0  0  0  0  0  0  0  0
   60.2641   34.9406   45.6171 H   0  0  0  0  0  0  0  0  0  0  0  0
   60.9598   33.5090   44.7762 H   0  0  0  0  0  0  0  0  0  0  0  0
   59.3301   32.0516   45.9759 H   0  0  0  0  0  0  0  0  0  0  0  0
   57.4757   33.9923   44.7206 H   0  0  0  0  0  0  0  0  0  0  0  0
   58.9168   33.5468   43.7244 H   0  0  0  0  0  0  0  0  0  0  0  0
   57.6778   31.1542   46.2399 H   0  0  0  0  0  0  0  0  0  0  0  0
   56.7289   28.9299   45.6187 H   0  0  0  0  0  0  0  0  0  0  0  0
   56.1506   28.4361   43.2408 H   0  0  0  0  0  0  0  0  0  0  0  0
   56.5087   30.1702   41.4809 H   0  0  0  0  0  0  0  0  0  0  0  0
   57.4520   32.3962   42.0948 H   0  0  0  0  0  0  0  0  0  0  0  0
   57.6601   34.4181   46.7635 H   0  0  0  0  0  0  0  0  0  0  0  0
   57.8475   32.7647   47.5217 H   0  0  0  0  0  0  0  0  0  0  0  0
   59.3888   35.2936   47.9969 H   0  0  0  0  0  0  0  0  0  0  0  0
   58.8110   33.9869   49.1410 H   0  0  0  0  0  0  0  0  0  0  0  0
   58.6038   30.1553   49.5040 H   0  0  0  0  0  0  0  0  0  0  0  0
   57.8695   28.1952   48.1500 H   0  0  0  0  0  0  0  0  0  0  0  0
  1  2  2  0
  2  3  1  0
  3  4  2  0
  4  5  1  0
  5  6  1  0
  6  7  2  0
  7  8  1  0
  8  9  2  0
  9 10  1  0
 10 11  2  0
 10 12  2  0
 10 13  1  0
 13 14  1  0
 14 15  1  0
 15 16  1  0
 16 17  1  0
 17 18  1  0
 18 19  2  0
 19 20  1  0
 20 21  2  0
 21 22  1  0
 22 23  2  0
 16 24  1  0
 24 25  1  0
  9 26  1  0
 26 27  2  0
  4 28  1  0
 28 29  1  0
 29 30  2  0
 29 31  1  0
 31  2  1  0
 27  6  1  0
 25 13  1  0
 23 18  1  0
  3 32  1  0
  5 33  1  0
  7 34  1  0
  8 35  1  0
 14 36  1  0
 14 37  1  0
 15 38  1  0
 15 39  1  0
 16 40  1  0
 17 41  1  0
 17 42  1  0
 19 43  1  0
 20 44  1  0
 21 45  1  0
 22 46  1  0
 23 47  1  0
 24 48  1  0
 24 49  1  0
 25 50  1  0
 25 51  1  0
 26 52  1  0
 27 53  1  0
M  CHG  2  28  -1  31  -1
M  END
>  <UniqueID>  (74) 
64

>  <SMILES>  (74) 
O=c1cc(Nc2ccc(S(=O)(=O)N3CCC(Cc4ccccc4)CC3)cc2)[n-]c(=O)[n-]1

>  <Energy>  (74) 
65.86890501944909

>  <Genealogy>  (74) 
O=c1cc(Nc2ccc(S(=O)(=O)N3CCC(Cc4ccccc4)CC3)cc2)[n-]c(=O)[n-]1 (protonated)
O=c1cc(Nc2ccc(S(=O)(=O)N3CCC(Cc4ccccc4)CC3)cc2)[n-]c(=O)[n-]1 (3D coordinates assigned)
O=c1cc(Nc2ccc(S(=O)(=O)N3CCC(Cc4ccccc4)CC3)cc2)[n-]c(=O)[n-]1 (nonaromatic ring conformer: 65.86890501944909 kcal/mol)

>  <smiles>  (74) 
O=c1cc(Nc2ccc(S(=O)(=O)N3CCC(Cc4ccccc4)CC3)cc2)[nH]c(=O)[nH]1

>  <score_type>  (74) 
oracle

>  <origin>  (74) 
adg

>  <m_score__min__energy>  (74) 
-13.119999999999999

>  <m_primary>  (74) 
energy

$$$$
74:0
     RDKit          3D

 53 55  0  0  0  0  0  0  0  0999 V2000
   55.6990   29.4520   45.1210 O   0  0  0  0  0  0  0  0  0  0  0  0
   56.5950   30.0530   44.4730 C   0  0  0  0  0  0  0  0  0  0  0  0
   56.6260   31.4830   44.4940 N   0  0  0  0  0  0  0  0  0  0  0  0
   57.6120   32.2650   45.1760 C   0  0  0  0  0  0  0  0  0  0  0  0
   58.4450   33.1100   44.4370 C   0  0  0  0  0  0  0  0  0  0  0  0
   59.4530   33.8410   45.0700 C   0  0  0  0  0  0  0  0  0  0  0  0
   59.6680   33.7000   46.4560 C   0  0  0  0  0  0  0  0  0  0  0  0
   60.6980   34.3650   47.1370 O   0  0  0  0  0  0  0  0  0  0  0  0
   61.9660   33.8040   47.4740 C   0  0  0  0  0  0  0  0  0  0  0  0
   61.8370   32.4330   47.5600 F   0  0  0  0  0  0  0  0  0  0  0  0
   62.3890   34.2950   48.6910 F   0  0  0  0  0  0  0  0  0  0  0  0
   62.9000   34.0970   46.4970 F   0  0  0  0  0  0  0  0  0  0  0  0
   58.8370   32.8480   47.1910 C   0  0  0  0  0  0  0  0  0  0  0  0
   57.8110   32.1370   46.5620 C   0  0  0  0  0  0  0  0  0  0  0  0
   57.6220   29.3100   43.7960 N   0  0  0  0  0  0  0  0  0  0  0  0
   57.7320   27.8550   43.9090 C   0  0  0  0  0  0  0  0  0  0  0  0
   58.9920   27.4440   44.7050 C   0  0  1  0  0  0  0  0  0  0  0  0
   60.0180   28.6230   44.8090 C   0  0  0  0  0  0  0  0  0  0  0  0
   60.1440   29.2400   46.2170 C   0  0  0  0  0  0  0  0  0  0  0  0
   58.7890   29.3060   46.9240 C   0  0  0  0  0  0  0  0  0  0  0  0
   58.1760   27.9090   47.1430 C   0  0  0  0  0  0  0  0  0  0  0  0
   58.6780   26.8530   46.1140 C   0  0  1  0  0  0  0  0  0  0  0  0
   57.8630   25.6010   46.0500 N   0  0  0  0  0  0  0  0  0  0  0  0
   56.4100   25.8940   46.0370 C   0  0  0  0  0  0  0  0  0  0  0  0
   55.5670   24.6240   45.9170 C   0  0  0  0  0  0  0  0  0  0  0  0
   55.7230   23.8320   44.2710 S   0  0  0  0  0  0  0  0  0  0  0  0
   57.3750   24.4840   43.8340 C   0  0  0  0  0  0  0  0  0  0  0  0
   58.2860   24.5650   45.0660 C   0  0  0  0  0  0  0  0  0  0  0  0
   58.3057   33.1999   43.3496 H   0  0  0  0  0  0  0  0  0  0  0  0
   60.0811   34.5290   44.4850 H   0  0  0  0  0  0  0  0  0  0  0  0
   58.9924   32.7365   48.2742 H   0  0  0  0  0  0  0  0  0  0  0  0
   57.1585   31.4766   47.1520 H   0  0  0  0  0  0  0  0  0  0  0  0
   58.4340   29.8300   43.3960 H   0  0  0  0  0  0  0  0  0  0  0  0
   56.8409   27.4678   44.4248 H   0  0  0  0  0  0  0  0  0  0  0  0
   57.8105   27.4343   42.8957 H   0  0  0  0  0  0  0  0  0  0  0  0
   59.4520   26.6296   44.1260 H   0  0  0  0  0  0  0  0  0  0  0  0
   61.0068   28.2451   44.5099 H   0  0  0  0  0  0  0  0  0  0  0  0
   59.6448   29.4211   44.1504 H   0  0  0  0  0  0  0  0  0  0  0  0
   60.8304   28.6243   46.8168 H   0  0  0  0  0  0  0  0  0  0  0  0
   60.5282   30.2653   46.1112 H   0  0  0  0  0  0  0  0  0  0  0  0
   58.9234   29.7908   47.9022 H   0  0  0  0  0  0  0  0  0  0  0  0
   58.1022   29.8787   46.2834 H   0  0  0  0  0  0  0  0  0  0  0  0
   58.4400   27.5655   48.1541 H   0  0  0  0  0  0  0  0  0  0  0  0
   57.0881   28.0040   47.0111 H   0  0  0  0  0  0  0  0  0  0  0  0
   59.6456   26.5340   46.5287 H   0  0  0  0  0  0  0  0  0  0  0  0
   56.1439   26.4091   46.9718 H   0  0  0  0  0  0  0  0  0  0  0  0
   56.1998   26.5236   45.1599 H   0  0  0  0  0  0  0  0  0  0  0  0
   55.8952   23.9086   46.6854 H   0  0  0  0  0  0  0  0  0  0  0  0
   54.5130   24.9079   46.0532 H   0  0  0  0  0  0  0  0  0  0  0  0
   57.8373   23.8190   43.0896 H   0  0  0  0  0  0  0  0  0  0  0  0
   57.2514   25.4981   43.4263 H   0  0  0  0  0  0  0  0  0  0  0  0
   58.2816   23.5859   45.5674 H   0  0  0  0  0  0  0  0  0  0  0  0
   59.2880   24.8464   44.7100 H   0  0  0  0  0  0  0  0  0  0  0  0
  1  2  2  0
  2  3  1  0
  3  4  1  0
  4  5  2  0
  5  6  1  0
  6  7  2  0
  7  8  1  0
  8  9  1  0
  9 10  1  0
  9 11  1  0
  9 12  1  0
  7 13  1  0
 13 14  2  0
  2 15  1  0
 15 16  1  0
 16 17  1  0
 17 18  1  0
 18 19  1  0
 19 20  1  0
 20 21  1  0
 21 22  1  0
 22 23  1  0
 23 24  1  0
 24 25  1  0
 25 26  1  0
 26 27  1  0
 27 28  1  0
 14  4  1  0
 22 17  1  0
 28 23  1  0
  5 29  1  0
  6 30  1  0
 13 31  1  0
 14 32  1  0
 15 33  1  0
 16 34  1  0
 16 35  1  0
 17 36  1  6
 18 37  1  0
 18 38  1  0
 19 39  1  0
 19 40  1  0
 20 41  1  0
 20 42  1  0
 21 43  1  0
 21 44  1  0
 22 45  1  1
 24 46  1  0
 24 47  1  0
 25 48  1  0
 25 49  1  0
 27 50  1  0
 27 51  1  0
 28 52  1  0
 28 53  1  0
M  CHG  1   3  -1
M  END
>  <UniqueID>  (75) 
65

>  <SMILES>  (75) 
O=C([N-]c1ccc(OC(F)(F)F)cc1)NC[C@H]1CCCC[C@H]1N1CCSCC1

>  <Energy>  (75) 
75.84130201027969

>  <Genealogy>  (75) 
O=C([N-]c1ccc(OC(F)(F)F)cc1)NCC1CCCCC1N1CCSCC1 (protonated)
O=C([N-]c1ccc(OC(F)(F)F)cc1)NC[C@H]1CCCC[C@H]1N1CCSCC1 (chirality)
O=C([N-]c1ccc(OC(F)(F)F)cc1)NC[C@H]1CCCC[C@H]1N1CCSCC1 (3D coordinates assigned)
O=C([N-]c1ccc(OC(F)(F)F)cc1)NC[C@H]1CCCC[C@H]1N1CCSCC1 (nonaromatic ring conformer: 75.84130201027969 kcal/mol)

>  <smiles>  (75) 
O=C(NCC1CCCCC1N1CCSCC1)Nc1ccc(OC(F)(F)F)cc1

>  <score_type>  (75) 
oracle

>  <origin>  (75) 
adg

>  <m_score__min__energy>  (75) 
-9.8499999999999996

>  <m_primary>  (75) 
energy

$$$$
75:0
     RDKit          3D

 36 38  0  0  0  0  0  0  0  0999 V2000
   57.1020   28.2150   43.8730 N   0  0  0  0  0  0  0  0  0  0  0  0
   58.3050   29.0490   44.0280 C   0  0  2  0  0  0  0  0  0  0  0  0
   59.5510   28.1730   44.3010 C   0  0  0  0  0  0  0  0  0  0  0  0
   59.6030   27.7390   45.7340 C   0  0  0  0  0  0  0  0  0  0  0  0
   60.5870   26.5370   46.3740 S   0  0  0  0  0  0  0  0  0  0  0  0
   60.1420   26.7850   47.9800 C   0  0  0  0  0  0  0  0  0  0  0  0
   59.2250   27.8290   48.0300 C   0  0  0  0  0  0  0  0  0  0  0  0
   58.9420   28.3780   46.7720 C   0  0  0  0  0  0  0  0  0  0  0  0
   57.9480   29.4800   46.5370 C   0  0  0  0  0  0  0  0  0  0  0  0
   58.1320   30.1220   45.1450 C   0  0  2  0  0  0  0  0  0  0  0  0
   57.0030   30.9390   44.8730 O   0  0  0  0  0  0  0  0  0  0  0  0
   57.3690   32.1230   44.1910 C   0  0  0  0  0  0  0  0  0  0  0  0
   58.0410   33.0860   45.1350 C   0  0  0  0  0  0  0  0  0  0  0  0
   58.8990   34.0860   44.6460 C   0  0  0  0  0  0  0  0  0  0  0  0
   59.5360   34.9620   45.5320 C   0  0  0  0  0  0  0  0  0  0  0  0
   59.3250   34.8410   46.9080 C   0  0  0  0  0  0  0  0  0  0  0  0
   58.4760   33.8460   47.4020 C   0  0  0  0  0  0  0  0  0  0  0  0
   57.8370   32.9700   46.5190 C   0  0  0  0  0  0  0  0  0  0  0  0
   56.2530   28.7820   44.1010 H   0  0  0  0  0  0  0  0  0  0  0  0
   57.0110   27.8580   42.8950 H   0  0  0  0  0  0  0  0  0  0  0  0
   57.1340   27.4060   44.5340 H   0  0  0  0  0  0  0  0  0  0  0  0
   58.4533   29.5843   43.0786 H   0  0  0  0  0  0  0  0  0  0  0  0
   59.5115   27.2820   43.6572 H   0  0  0  0  0  0  0  0  0  0  0  0
   60.4503   28.7681   44.0838 H   0  0  0  0  0  0  0  0  0  0  0  0
   60.5147   26.2160   48.8445 H   0  0  0  0  0  0  0  0  0  0  0  0
   58.7674   28.1881   48.9636 H   0  0  0  0  0  0  0  0  0  0  0  0
   56.9316   29.0654   46.6077 H   0  0  0  0  0  0  0  0  0  0  0  0
   58.1083   30.2571   47.2989 H   0  0  0  0  0  0  0  0  0  0  0  0
   59.0507   30.7269   45.1526 H   0  0  0  0  0  0  0  0  0  0  0  0
   58.0626   31.8717   43.3750 H   0  0  0  0  0  0  0  0  0  0  0  0
   56.4627   32.5955   43.7844 H   0  0  0  0  0  0  0  0  0  0  0  0
   59.0703   34.1803   43.5635 H   0  0  0  0  0  0  0  0  0  0  0  0
   60.2032   35.7463   45.1451 H   0  0  0  0  0  0  0  0  0  0  0  0
   59.8275   35.5294   47.6034 H   0  0  0  0  0  0  0  0  0  0  0  0
   58.3107   33.7523   48.4855 H   0  0  0  0  0  0  0  0  0  0  0  0
   57.1715   32.1866   46.9106 H   0  0  0  0  0  0  0  0  0  0  0  0
  1  2  1  0
  2  3  1  0
  3  4  1  0
  4  5  1  0
  5  6  1  0
  6  7  2  0
  7  8  1  0
  8  9  1  0
  9 10  1  0
 10 11  1  0
 11 12  1  0
 12 13  1  0
 13 14  2  0
 14 15  1  0
 15 16  2  0
 16 17  1  0
 17 18  2  0
 10  2  1  0
 18 13  1  0
  8  4  2  0
  1 19  1  0
  1 20  1  0
  1 21  1  0
  2 22  1  6
  3 23  1  0
  3 24  1  0
  6 25  1  0
  7 26  1  0
  9 27  1  0
  9 28  1  0
 10 29  1  1
 12 30  1  0
 12 31  1  0
 14 32  1  0
 15 33  1  0
 16 34  1  0
 17 35  1  0
 18 36  1  0
M  CHG  1   1   1
M  END
>  <UniqueID>  (76) 
66

>  <SMILES>  (76) 
[NH3+][C@@H]1Cc2sccc2C[C@@H]1OCc1ccccc1

>  <Energy>  (76) 
66.53137080195104

>  <Genealogy>  (76) 
[NH3+]C1Cc2sccc2CC1OCc1ccccc1 (protonated)
[NH3+][C@@H]1Cc2sccc2C[C@@H]1OCc1ccccc1 (chirality)
[NH3+][C@@H]1Cc2sccc2C[C@@H]1OCc1ccccc1 (3D coordinates assigned)
[NH3+][C@@H]1Cc2sccc2C[C@@H]1OCc1ccccc1 (nonaromatic ring conformer: 66.53137080195104 kcal/mol)

>  <smiles>  (76) 
NC1Cc2sccc2CC1OCc1ccccc1

>  <score_type>  (76) 
oracle

>  <origin>  (76) 
adg

>  <m_score__min__energy>  (76) 
-5.4900000000000002

>  <m_primary>  (76) 
energy

$$$$
76:0
     RDKit          3D

 46 48  0  0  0  0  0  0  0  0999 V2000
   59.2670   30.2380   48.1200 C   0  0  0  0  0  0  0  0  0  0  0  0
   58.5030   30.9560   47.1020 N   0  0  0  0  0  0  0  0  0  0  0  0
   58.8060   32.3070   46.6960 C   0  0  0  0  0  0  0  0  0  0  0  0
   59.5380   33.1530   47.5530 C   0  0  0  0  0  0  0  0  0  0  0  0
   59.7610   34.4890   47.2170 C   0  0  0  0  0  0  0  0  0  0  0  0
   59.2560   35.0040   46.0260 C   0  0  0  0  0  0  0  0  0  0  0  0
   58.5400   34.1810   45.1560 C   0  0  0  0  0  0  0  0  0  0  0  0
   58.3190   32.8270   45.4670 C   0  0  0  0  0  0  0  0  0  0  0  0
   57.6310   31.9810   44.4650 C   0  0  0  0  0  0  0  0  0  0  0  0
   57.8850   32.1150   43.2370 O   0  0  0  0  0  0  0  0  0  0  0  0
   56.6330   31.0480   44.8880 N   0  0  0  0  0  0  0  0  0  0  0  0
   56.7090   29.3640   44.4890 S   0  0  0  0  0  0  0  0  0  0  0  0
   55.6190   28.6490   45.2390 O   0  0  0  0  0  0  0  0  0  0  0  0
   56.4850   29.2010   43.0130 O   0  0  0  0  0  0  0  0  0  0  0  0
   58.2980   28.7070   44.9140 C   0  0  0  0  0  0  0  0  0  0  0  0
   59.4460   29.3870   44.4760 C   0  0  0  0  0  0  0  0  0  0  0  0
   60.7180   28.9410   44.8390 C   0  0  0  0  0  0  0  0  0  0  0  0
   60.8600   27.8070   45.6390 C   0  0  0  0  0  0  0  0  0  0  0  0
   59.7310   27.1100   46.0680 C   0  0  0  0  0  0  0  0  0  0  0  0
   58.4430   27.5420   45.7070 C   0  0  0  0  0  0  0  0  0  0  0  0
   57.2810   26.7390   46.1480 C   0  0  0  0  0  0  0  0  0  0  0  0
   56.8920   26.8290   47.3420 O   0  0  0  0  0  0  0  0  0  0  0  0
   56.5290   25.9220   45.2370 N   0  0  0  0  0  0  0  0  0  0  0  0
   56.5020   24.6220   45.2190 C   0  0  0  0  0  0  0  0  0  0  0  0
   56.4270   23.8750   44.0940 N   0  0  0  0  0  0  0  0  0  0  0  0
   56.4450   22.5660   44.3390 N   0  0  0  0  0  0  0  0  0  0  0  0
   56.5440   22.2740   45.6540 C   0  0  0  0  0  0  0  0  0  0  0  0
   56.5790   20.6400   46.2830 S   0  0  0  0  0  0  0  0  0  0  0  0
   56.7040   19.5200   44.9720 N   0  0  0  0  0  0  0  0  0  0  0  0
   55.3210   20.3710   47.0600 O   0  0  0  0  0  0  0  0  0  0  0  0
   57.7610   20.4840   47.1970 O   0  0  0  0  0  0  0  0  0  0  0  0
   56.6120   23.6690   46.6000 S   0  0  0  0  0  0  0  0  0  0  0  0
   58.9322   30.5526   49.1195 H   0  0  0  0  0  0  0  0  0  0  0  0
   59.1068   29.1560   48.0034 H   0  0  0  0  0  0  0  0  0  0  0  0
   60.3370   30.4650   48.0034 H   0  0  0  0  0  0  0  0  0  0  0  0
   57.7080   30.4460   46.6580 H   0  0  0  0  0  0  0  0  0  0  0  0
   59.9381   32.7558   48.4975 H   0  0  0  0  0  0  0  0  0  0  0  0
   60.3369   35.1366   47.8945 H   0  0  0  0  0  0  0  0  0  0  0  0
   59.4217   36.0610   45.7706 H   0  0  0  0  0  0  0  0  0  0  0  0
   58.1442   34.5953   44.2170 H   0  0  0  0  0  0  0  0  0  0  0  0
   59.3419   30.2792   43.8411 H   0  0  0  0  0  0  0  0  0  0  0  0
   61.6098   29.4846   44.4937 H   0  0  0  0  0  0  0  0  0  0  0  0
   61.8629   27.4625   45.9315 H   0  0  0  0  0  0  0  0  0  0  0  0
   59.8494   26.2138   46.6947 H   0  0  0  0  0  0  0  0  0  0  0  0
   56.9830   20.0670   44.1280 H   0  0  0  0  0  0  0  0  0  0  0  0
   57.4980   18.8780   45.1930 H   0  0  0  0  0  0  0  0  0  0  0  0
  1  2  1  0
  2  3  1  0
  3  4  2  0
  4  5  1  0
  5  6  2  0
  6  7  1  0
  7  8  2  0
  8  9  1  0
  9 10  2  0
  9 11  1  0
 11 12  1  0
 12 13  2  0
 12 14  2  0
 12 15  1  0
 15 16  2  0
 16 17  1  0
 17 18  2  0
 18 19  1  0
 19 20  2  0
 20 21  1  0
 21 22  2  0
 21 23  1  0
 23 24  2  3
 24 25  1  0
 25 26  1  0
 26 27  2  0
 27 28  1  0
 28 29  1  0
 28 30  2  0
 28 31  2  0
 27 32  1  0
  8  3  1  0
 20 15  1  0
 32 24  1  0
  1 33  1  0
  1 34  1  0
  1 35  1  0
  2 36  1  0
  4 37  1  0
  5 38  1  0
  6 39  1  0
  7 40  1  0
 16 41  1  0
 17 42  1  0
 18 43  1  0
 19 44  1  0
 29 45  1  0
 29 46  1  0
M  CHG  2  11  -1  25  -1
M  END
>  <UniqueID>  (77) 
67

>  <SMILES>  (77) 
CNc1ccccc1C(=O)[N-]S(=O)(=O)c1ccccc1C(=O)N=c1[n-]nc(S(N)(=O)=O)s1

>  <Energy>  (77) 
98.62143642259474

>  <Genealogy>  (77) 
CNc1ccccc1C(=O)[N-]S(=O)(=O)c1ccccc1C(=O)N=c1[n-]nc(S(N)(=O)=O)s1 (protonated)
CNc1ccccc1C(=O)[N-]S(=O)(=O)c1ccccc1C(=O)N=c1[n-]nc(S(N)(=O)=O)s1 (3D coordinates assigned)
CNc1ccccc1C(=O)[N-]S(=O)(=O)c1ccccc1C(=O)N=c1[n-]nc(S(N)(=O)=O)s1 (optimized conformer: 98.62143642259474 kcal/mol)

>  <smiles>  (77) 
CNc1ccccc1C(=O)NS(=O)(=O)c1ccccc1C(=O)N=c1[nH]nc(S(N)(=O)=O)s1

>  <score_type>  (77) 
oracle

>  <origin>  (77) 
adg

>  <m_score__min__energy>  (77) 
-12.08

>  <m_primary>  (77) 
energy

$$$$
77:0
     RDKit          3D

 59 64  0  0  0  0  0  0  0  0999 V2000
   58.2044   33.5185   52.1709 H   0  0  0  0  0  0  0  0  0  0  0  0
   58.8970   33.0840   51.4350 C   0  0  0  0  0  0  0  0  0  0  0  0
   59.0300   31.6940   51.3370 C   0  0  0  0  0  0  0  0  0  0  0  0
   58.4369   31.0376   51.9907 H   0  0  0  0  0  0  0  0  0  0  0  0
   59.9170   31.1390   50.4080 C   0  0  0  0  0  0  0  0  0  0  0  0
   60.0250   30.0466   50.3373 H   0  0  0  0  0  0  0  0  0  0  0  0
   60.6720   31.9760   49.5630 C   0  0  0  0  0  0  0  0  0  0  0  0
   61.6650   31.3780   48.5980 C   0  0  0  0  0  0  0  0  0  0  0  0
   61.8371   30.3262   48.8701 H   0  0  0  0  0  0  0  0  0  0  0  0
   62.5966   31.9595   48.6610 H   0  0  0  0  0  0  0  0  0  0  0  0
   61.1570   31.4410   47.1430 C   0  0  2  0  0  0  0  0  0  0  0  0
   62.0203   31.0876   46.5600 H   0  0  0  0  0  0  0  0  0  0  0  0
   60.7190   32.8060   46.7220 C   0  0  0  0  0  0  0  0  0  0  0  0
   61.4690   33.8180   46.7160 O   0  0  0  0  0  0  0  0  0  0  0  0
   59.3850   32.8570   46.2530 N   0  0  0  0  0  0  0  0  0  0  0  0
   58.8190   31.5200   46.3260 C   0  0  2  0  0  0  0  0  0  0  0  0
   58.0420   31.0190   45.1360 C   0  0  0  0  0  0  0  0  0  0  0  0
   58.1100   31.7120   43.9160 C   0  0  0  0  0  0  0  0  0  0  0  0
   58.7257   32.6200   43.8352 H   0  0  0  0  0  0  0  0  0  0  0  0
   57.3980   31.2520   42.8040 C   0  0  0  0  0  0  0  0  0  0  0  0
   57.4656   31.7904   41.8472 H   0  0  0  0  0  0  0  0  0  0  0  0
   56.6000   30.1080   42.9070 C   0  0  0  0  0  0  0  0  0  0  0  0
   56.0454   29.7428   42.0301 H   0  0  0  0  0  0  0  0  0  0  0  0
   56.5080   29.4290   44.1260 C   0  0  0  0  0  0  0  0  0  0  0  0
   55.8736   28.5343   44.2092 H   0  0  0  0  0  0  0  0  0  0  0  0
   57.2210   29.8850   45.2400 C   0  0  0  0  0  0  0  0  0  0  0  0
   57.1381   29.3537   46.1996 H   0  0  0  0  0  0  0  0  0  0  0  0
   58.6030   30.9550   47.7270 C   0  0  0  0  0  0  0  0  0  0  0  0
   58.6665   31.6180   48.6024 H   0  0  0  0  0  0  0  0  0  0  0  0
   57.8028   30.3817   48.2180 H   0  0  0  0  0  0  0  0  0  0  0  0
   59.8790   30.5900   46.9440 C   0  0  2  0  0  0  0  0  0  0  0  0
   59.9850   29.1820   46.3910 C   0  0  0  0  0  0  0  0  0  0  0  0
   60.5770   28.9930   45.2950 O   0  0  0  0  0  0  0  0  0  0  0  0
   59.3740   28.0850   47.0920 N   0  0  0  0  0  0  0  0  0  0  0  0
   58.7330   27.0800   46.5770 C   0  0  0  0  0  0  0  0  0  0  0  0
   59.4360   26.0500   46.0430 N   0  0  0  0  0  0  0  0  0  0  0  0
   58.8170   25.0040   45.4950 N   0  0  0  0  0  0  0  0  0  0  0  0
   57.4640   24.9330   45.4430 C   0  0  0  0  0  0  0  0  0  0  0  0
   56.8350   23.7840   44.8410 N   0  0  0  0  0  0  0  0  0  0  0  0
   57.2620   22.4290   45.2060 C   0  0  0  0  0  0  0  0  0  0  0  0
   58.2543   22.4715   45.6787 H   0  0  0  0  0  0  0  0  0  0  0  0
   56.5397   21.9931   45.9119 H   0  0  0  0  0  0  0  0  0  0  0  0
   57.3330   21.5620   43.9440 C   0  0  0  0  0  0  0  0  0  0  0  0
   58.1492   21.9250   43.3021 H   0  0  0  0  0  0  0  0  0  0  0  0
   57.5163   20.5190   44.2415 H   0  0  0  0  0  0  0  0  0  0  0  0
   56.1120   21.6230   43.2240 O   0  0  0  0  0  0  0  0  0  0  0  0
   55.8940   22.9400   42.7470 C   0  0  0  0  0  0  0  0  0  0  0  0
   56.7613   23.2543   42.1478 H   0  0  0  0  0  0  0  0  0  0  0  0
   54.9811   22.9450   42.1333 H   0  0  0  0  0  0  0  0  0  0  0  0
   55.7070   23.9190   43.9110 C   0  0  0  0  0  0  0  0  0  0  0  0
   55.6703   24.9480   43.5240 H   0  0  0  0  0  0  0  0  0  0  0  0
   54.7665   23.6944   44.4355 H   0  0  0  0  0  0  0  0  0  0  0  0
   56.7200   25.9860   46.0000 C   0  0  0  0  0  0  0  0  0  0  0  0
   55.4580   25.9640   46.0060 O   0  0  0  0  0  0  0  0  0  0  0  0
   57.3740   27.0370   46.5550 N   0  0  0  0  0  0  0  0  0  0  0  0
   60.5270   33.3710   49.6650 C   0  0  0  0  0  0  0  0  0  0  0  0
   61.1111   34.0318   49.0076 H   0  0  0  0  0  0  0  0  0  0  0  0
   59.6430   33.9220   50.5990 C   0  0  0  0  0  0  0  0  0  0  0  0
   59.5345   35.0139   50.6761 H   0  0  0  0  0  0  0  0  0  0  0  0
  1  2  1  0
  2  3  2  0
  3  4  1  0
  3  5  1  0
  5  6  1  0
  5  7  2  0
  7  8  1  0
  8  9  1  0
  8 10  1  0
  8 11  1  0
 11 12  1  6
 11 13  1  0
 13 14  2  0
 13 15  1  0
 15 16  1  0
 16 17  1  6
 17 18  2  0
 18 19  1  0
 18 20  1  0
 20 21  1  0
 20 22  2  0
 22 23  1  0
 22 24  1  0
 24 25  1  0
 24 26  2  0
 26 27  1  0
 16 28  1  0
 28 29  1  0
 28 30  1  0
 28 31  1  0
 31 32  1  6
 32 33  2  0
 32 34  1  0
 34 35  2  0
 35 36  1  0
 36 37  1  0
 37 38  2  0
 38 39  1  0
 39 40  1  0
 40 41  1  0
 40 42  1  0
 40 43  1  0
 43 44  1  0
 43 45  1  0
 43 46  1  0
 46 47  1  0
 47 48  1  0
 47 49  1  0
 47 50  1  0
 50 51  1  0
 50 52  1  0
 38 53  1  0
 53 54  2  0
 53 55  1  0
  7 56  1  0
 56 57  1  0
 56 58  2  0
 58 59  1  0
 58  2  1  0
 31 11  1  0
 55 35  1  0
 31 16  1  0
 50 39  1  0
 26 17  1  0
M  CHG  3  15  -1  36  -1  55  -1
M  END
>  <UniqueID>  (78) 
68

>  <SMILES>  (78) 
O=C1[N-][C@]2(c3ccccc3)C[C@]2(C(=O)/N=c2/[n-]nc(N3CCOCC3)c(=O)[n-]2)C1Cc1ccccc1

>  <Energy>  (78) 
359.0946823123808

>  <Genealogy>  (78) 
O=C1[N-]C2(c3ccccc3)CC2(C(=O)N=c2[n-]nc(N3CCOCC3)c(=O)[n-]2)C1Cc1ccccc1 (protonated)
O=C1[N-][C@]2(c3ccccc3)C[C@]2(C(=O)N=c2[n-]nc(N3CCOCC3)c(=O)[n-]2)C1Cc1ccccc1 (chirality)
O=C1[N-][C@]2(c3ccccc3)C[C@]2(C(=O)/N=c2/[n-]nc(N3CCOCC3)c(=O)[n-]2)C1Cc1ccccc1 (cis-trans isomerization)
O=C1[N-][C@]2(c3ccccc3)C[C@]2(C(=O)/N=c2/[n-]nc(N3CCOCC3)c(=O)[n-]2)C1Cc1ccccc1 (3D coordinates assigned)
O=C1[N-][C@]2(c3ccccc3)C[C@]2(C(=O)/N=c2/[n-]nc(N3CCOCC3)c(=O)[n-]2)C1Cc1ccccc1 (nonaromatic ring conformer: 359.0946823123808 kcal/mol)

>  <smiles>  (78) 
O=C1NC2(c3ccccc3)CC2(C(=O)N=c2[nH]nc(N3CCOCC3)c(=O)[nH]2)C1Cc1ccccc1

>  <score_type>  (78) 
oracle

>  <origin>  (78) 
adg

>  <m_score__min__energy>  (78) 
-12.93

>  <m_primary>  (78) 
energy

$$$$
78:0
     RDKit          3D

 45 47  0  0  0  0  0  0  0  0999 V2000
   63.5980   34.0810   46.9530 C   0  0  0  0  0  0  0  0  0  0  0  0
   62.5740   33.1880   47.5690 C   0  0  0  0  0  0  0  0  0  0  0  0
   62.3520   31.9140   47.1810 N   0  0  0  0  0  0  0  0  0  0  0  0
   61.4130   31.2920   47.9450 C   0  0  0  0  0  0  0  0  0  0  0  0
   60.9890   29.8740   47.6890 C   0  0  0  0  0  0  0  0  0  0  0  0
   59.7680   29.8350   46.8560 N   0  0  0  0  0  0  0  0  0  0  0  0
   58.6160   29.3170   47.6360 C   0  0  0  0  0  0  0  0  0  0  0  0
   58.1780   27.8890   47.2340 C   0  0  0  0  0  0  0  0  0  0  0  0
   57.4160   27.8100   45.9040 C   0  0  0  0  0  0  0  0  0  0  0  0
   57.5650   29.0740   45.1700 N   0  0  0  0  0  0  0  0  0  0  0  0
   56.3980   29.8460   44.8110 C   0  0  0  0  0  0  0  0  0  0  0  0
   55.2550   29.3150   44.8380 O   0  0  0  0  0  0  0  0  0  0  0  0
   56.5320   31.2360   44.4760 N   0  0  0  0  0  0  0  0  0  0  0  0
   57.4840   32.1600   45.0190 C   0  0  0  0  0  0  0  0  0  0  0  0
   57.7030   32.2830   46.4040 C   0  0  0  0  0  0  0  0  0  0  0  0
   58.6240   33.2150   46.8910 C   0  0  0  0  0  0  0  0  0  0  0  0
   59.3240   34.0390   46.0040 C   0  0  0  0  0  0  0  0  0  0  0  0
   59.0940   33.9390   44.6300 C   0  0  0  0  0  0  0  0  0  0  0  0
   58.1720   33.0090   44.1400 C   0  0  0  0  0  0  0  0  0  0  0  0
   58.8830   29.3970   44.6080 C   0  0  0  0  0  0  0  0  0  0  0  0
   59.9910   29.0640   45.6100 C   0  0  0  0  0  0  0  0  0  0  0  0
   60.8870   32.0730   48.9720 C   0  0  0  0  0  0  0  0  0  0  0  0
   61.6320   33.5810   48.9040 S   0  0  0  0  0  0  0  0  0  0  0  0
   64.1724   34.5819   47.7461 H   0  0  0  0  0  0  0  0  0  0  0  0
   64.2786   33.4829   46.3293 H   0  0  0  0  0  0  0  0  0  0  0  0
   63.0980   34.8367   46.3293 H   0  0  0  0  0  0  0  0  0  0  0  0
   62.8480   31.4560   46.3820 H   0  0  0  0  0  0  0  0  0  0  0  0
   61.7991   29.3437   47.1670 H   0  0  0  0  0  0  0  0  0  0  0  0
   60.7745   29.3899   48.6532 H   0  0  0  0  0  0  0  0  0  0  0  0
   58.8947   29.3071   48.7001 H   0  0  0  0  0  0  0  0  0  0  0  0
   57.7649   29.9823   47.4284 H   0  0  0  0  0  0  0  0  0  0  0  0
   59.0789   27.2632   47.1520 H   0  0  0  0  0  0  0  0  0  0  0  0
   57.4843   27.5422   48.0141 H   0  0  0  0  0  0  0  0  0  0  0  0
   57.8220   26.9861   45.2988 H   0  0  0  0  0  0  0  0  0  0  0  0
   56.3497   27.6305   46.1061 H   0  0  0  0  0  0  0  0  0  0  0  0
   57.1474   31.6434   47.1056 H   0  0  0  0  0  0  0  0  0  0  0  0
   58.7984   33.3004   47.9737 H   0  0  0  0  0  0  0  0  0  0  0  0
   60.0553   34.7654   46.3882 H   0  0  0  0  0  0  0  0  0  0  0  0
   59.6387   34.5925   43.9327 H   0  0  0  0  0  0  0  0  0  0  0  0
   57.9851   32.9429   43.0580 H   0  0  0  0  0  0  0  0  0  0  0  0
   59.0379   28.8117   43.6896 H   0  0  0  0  0  0  0  0  0  0  0  0
   58.9191   30.4732   44.3833 H   0  0  0  0  0  0  0  0  0  0  0  0
   59.9724   27.9874   45.8350 H   0  0  0  0  0  0  0  0  0  0  0  0
   60.9690   29.3284   45.1814 H   0  0  0  0  0  0  0  0  0  0  0  0
   60.1217   31.7601   49.6975 H   0  0  0  0  0  0  0  0  0  0  0  0
  1  2  1  0
  2  3  2  0
  3  4  1  0
  4  5  1  0
  5  6  1  0
  6  7  1  0
  7  8  1  0
  8  9  1  0
  9 10  1  0
 10 11  1  0
 11 12  2  0
 11 13  1  0
 13 14  1  0
 14 15  2  0
 15 16  1  0
 16 17  2  0
 17 18  1  0
 18 19  2  0
 10 20  1  0
 20 21  1  0
  4 22  2  0
 22 23  1  0
 23  2  1  0
 21  6  1  0
 19 14  1  0
  1 24  1  0
  1 25  1  0
  1 26  1  0
  3 27  1  0
  5 28  1  0
  5 29  1  0
  7 30  1  0
  7 31  1  0
  8 32  1  0
  8 33  1  0
  9 34  1  0
  9 35  1  0
 15 36  1  0
 16 37  1  0
 17 38  1  0
 18 39  1  0
 19 40  1  0
 20 41  1  0
 20 42  1  0
 21 43  1  0
 21 44  1  0
 22 45  1  0
M  CHG  2   3   1  13  -1
M  END
>  <UniqueID>  (79) 
69

>  <SMILES>  (79) 
Cc1[nH+]c(CN2CCCN(C(=O)[N-]c3ccccc3)CC2)cs1

>  <Energy>  (79) 
82.99772283463545

>  <Genealogy>  (79) 
Cc1[nH+]c(CN2CCCN(C(=O)[N-]c3ccccc3)CC2)cs1 (protonated)
Cc1[nH+]c(CN2CCCN(C(=O)[N-]c3ccccc3)CC2)cs1 (3D coordinates assigned)
Cc1[nH+]c(CN2CCCN(C(=O)[N-]c3ccccc3)CC2)cs1 (nonaromatic ring conformer: 82.99772283463545 kcal/mol)

>  <smiles>  (79) 
Cc1nc(CN2CCCN(C(=O)Nc3ccccc3)CC2)cs1

>  <score_type>  (79) 
oracle

>  <origin>  (79) 
adg

>  <m_score__min__energy>  (79) 
-6.2400000000000002

>  <m_primary>  (79) 
energy

$$$$
79:0
     RDKit          3D

 36 38  0  0  0  0  0  0  0  0999 V2000
   55.2180   26.6940   46.0350 N   0  0  0  0  0  0  0  0  0  0  0  0
   56.9010   27.0010   45.7940 S   0  0  0  0  0  0  0  0  0  0  0  0
   57.6010   26.9760   47.1250 O   0  0  0  0  0  0  0  0  0  0  0  0
   57.4920   25.9310   44.9180 O   0  0  0  0  0  0  0  0  0  0  0  0
   57.1110   28.5700   45.0260 C   0  0  0  0  0  0  0  0  0  0  0  0
   56.0070   29.3890   44.7520 C   0  0  0  0  0  0  0  0  0  0  0  0
   56.1910   30.6480   44.1730 C   0  0  0  0  0  0  0  0  0  0  0  0
   57.4830   31.1050   43.8680 C   0  0  0  0  0  0  0  0  0  0  0  0
   57.6940   32.5060   43.3500 C   0  0  0  0  0  0  0  0  0  0  0  0
   57.5690   33.4950   44.4220 N   0  0  0  0  0  0  0  0  0  0  0  0
   58.6160   33.8860   45.3230 C   0  0  0  0  0  0  0  0  0  0  0  0
   58.9490   35.0990   45.3840 O   0  0  0  0  0  0  0  0  0  0  0  0
   59.2610   32.9200   46.2240 C   0  0  0  0  0  0  0  0  0  0  0  0
   60.6240   33.0720   46.5820 C   0  0  0  0  0  0  0  0  0  0  0  0
   61.2720   32.0940   47.3580 C   0  0  0  0  0  0  0  0  0  0  0  0
   60.5320   30.9810   47.7510 C   0  0  0  0  0  0  0  0  0  0  0  0
   60.9050   29.8670   48.4610 C   0  0  0  0  0  0  0  0  0  0  0  0
   59.7530   29.0950   48.5110 C   0  0  0  0  0  0  0  0  0  0  0  0
   59.6730   27.8550   49.1360 O   0  0  0  0  0  0  0  0  0  0  0  0
   58.7050   29.6740   47.8780 N   0  0  0  0  0  0  0  0  0  0  0  0
   59.2090   30.8350   47.4200 C   0  0  0  0  0  0  0  0  0  0  0  0
   58.5370   31.7930   46.6670 C   0  0  0  0  0  0  0  0  0  0  0  0
   58.5820   30.2620   44.1000 C   0  0  0  0  0  0  0  0  0  0  0  0
   58.3960   29.0060   44.6840 C   0  0  0  0  0  0  0  0  0  0  0  0
   54.7640   26.7280   45.0940 H   0  0  0  0  0  0  0  0  0  0  0  0
   54.9922   29.0398   44.9934 H   0  0  0  0  0  0  0  0  0  0  0  0
   55.3198   31.2833   43.9554 H   0  0  0  0  0  0  0  0  0  0  0  0
   58.7004   32.5780   42.9119 H   0  0  0  0  0  0  0  0  0  0  0  0
   56.9236   32.7156   42.5933 H   0  0  0  0  0  0  0  0  0  0  0  0
   61.1794   33.9617   46.2504 H   0  0  0  0  0  0  0  0  0  0  0  0
   62.3281   32.2044   47.6451 H   0  0  0  0  0  0  0  0  0  0  0  0
   61.8911   29.6386   48.8916 H   0  0  0  0  0  0  0  0  0  0  0  0
   59.0970   27.1190   48.7470 H   0  0  0  0  0  0  0  0  0  0  0  0
   57.4707   31.6749   46.4239 H   0  0  0  0  0  0  0  0  0  0  0  0
   59.5936   30.5917   43.8208 H   0  0  0  0  0  0  0  0  0  0  0  0
   59.2635   28.3573   44.8757 H   0  0  0  0  0  0  0  0  0  0  0  0
  1  2  1  0
  2  3  2  0
  2  4  2  0
  2  5  1  0
  5  6  2  0
  6  7  1  0
  7  8  2  0
  8  9  1  0
  9 10  1  0
 10 11  1  0
 11 12  2  0
 11 13  1  0
 13 14  2  0
 14 15  1  0
 15 16  2  0
 16 17  1  0
 17 18  2  0
 18 19  1  0
 18 20  1  0
 20 21  1  0
 21 22  2  0
  8 23  1  0
 23 24  2  0
 24  5  1  0
 22 13  1  0
 21 16  1  0
  1 25  1  0
  6 26  1  0
  7 27  1  0
  9 28  1  0
  9 29  1  0
 14 30  1  0
 15 31  1  0
 17 32  1  0
 19 33  1  0
 22 34  1  0
 23 35  1  0
 24 36  1  0
M  CHG  3   1  -1  10  -1  20  -1
M  END
>  <UniqueID>  (80) 
70

>  <SMILES>  (80) 
[NH-]S(=O)(=O)c1ccc(C[N-]C(=O)c2ccc3cc(O)[n-]c3c2)cc1

>  <Energy>  (80) 
70.81284381735591

>  <Genealogy>  (80) 
[NH-]S(=O)(=O)c1ccc(C[N-]C(=O)c2ccc3cc(O)[n-]c3c2)cc1 (protonated)
[NH-]S(=O)(=O)c1ccc(C[N-]C(=O)c2ccc3cc(O)[n-]c3c2)cc1 (3D coordinates assigned)
[NH-]S(=O)(=O)c1ccc(C[N-]C(=O)c2ccc3cc(O)[n-]c3c2)cc1 (optimized conformer: 70.81284381735591 kcal/mol)

>  <smiles>  (80) 
NS(=O)(=O)c1ccc(CNC(=O)c2ccc3cc(O)[nH]c3c2)cc1

>  <score_type>  (80) 
oracle

>  <origin>  (80) 
adg

>  <m_score__min__energy>  (80) 
-12.529999999999999

>  <m_primary>  (80) 
energy

$$$$
80:0
     RDKit          3D

 71 75  0  0  0  0  0  0  0  0999 V2000
   59.0127   35.6719   44.1107 H   0  0  0  0  0  0  0  0  0  0  0  0
   58.7870   34.9630   44.9210 C   0  0  0  0  0  0  0  0  0  0  0  0
   59.7370   34.8520   46.0460 C   0  0  0  0  0  0  0  0  0  0  0  0
   59.5280   35.5490   47.0750 O   0  0  0  0  0  0  0  0  0  0  0  0
   60.9180   34.0340   45.9580 N   0  0  0  0  0  0  0  0  0  0  0  0
   61.3090   33.8400   45.0100 H   0  0  0  0  0  0  0  0  0  0  0  0
   61.7060   33.6310   47.0940 C   0  0  0  0  0  0  0  0  0  0  0  0
   63.0420   33.2130   46.9550 C   0  0  0  0  0  0  0  0  0  0  0  0
   63.5101   33.1992   45.9597 H   0  0  0  0  0  0  0  0  0  0  0  0
   63.7780   32.8150   48.0750 C   0  0  0  0  0  0  0  0  0  0  0  0
   64.8149   32.4683   47.9542 H   0  0  0  0  0  0  0  0  0  0  0  0
   63.2000   32.8560   49.3510 C   0  0  0  0  0  0  0  0  0  0  0  0
   64.0920   32.2970   50.7600 S   0  0  0  0  0  0  0  0  0  0  0  0
   64.7400   33.4740   51.4350 O   0  0  0  0  0  0  0  0  0  0  0  0
   65.1620   31.3180   50.3670 O   0  0  0  0  0  0  0  0  0  0  0  0
   62.9820   31.5480   51.8540 N   0  0  0  0  0  0  0  0  0  0  0  0
   62.9460   30.1290   52.0080 C   0  0  0  0  0  0  0  0  0  0  0  0
   63.9230   29.4890   52.7820 C   0  0  0  0  0  0  0  0  0  0  0  0
   64.7066   30.0832   53.2748 H   0  0  0  0  0  0  0  0  0  0  0  0
   63.9070   28.1000   52.9310 C   0  0  0  0  0  0  0  0  0  0  0  0
   64.6782   27.6034   53.5381 H   0  0  0  0  0  0  0  0  0  0  0  0
   62.9130   27.3420   52.3100 C   0  0  0  0  0  0  0  0  0  0  0  0
   62.8970   26.2492   52.4346 H   0  0  0  0  0  0  0  0  0  0  0  0
   61.9380   27.9700   51.5300 C   0  0  0  0  0  0  0  0  0  0  0  0
   61.1555   27.3684   51.0445 H   0  0  0  0  0  0  0  0  0  0  0  0
   61.9510   29.3660   51.3620 C   0  0  0  0  0  0  0  0  0  0  0  0
   60.9370   30.0150   50.5000 C   0  0  0  0  0  0  0  0  0  0  0  0
   60.2550   30.9620   50.9810 O   0  0  0  0  0  0  0  0  0  0  0  0
   60.7150   29.6010   49.0890 C   0  0  0  0  0  0  0  0  0  0  0  0
   61.1080   30.4500   48.0370 C   0  0  0  0  0  0  0  0  0  0  0  0
   61.5550   31.4292   48.2634 H   0  0  0  0  0  0  0  0  0  0  0  0
   60.9340   30.0570   46.7060 C   0  0  0  0  0  0  0  0  0  0  0  0
   61.2421   30.7285   45.8910 H   0  0  0  0  0  0  0  0  0  0  0  0
   60.3700   28.8140   46.4090 C   0  0  0  0  0  0  0  0  0  0  0  0
   60.2320   28.5082   45.3614 H   0  0  0  0  0  0  0  0  0  0  0  0
   59.9820   27.9610   47.4420 C   0  0  0  0  0  0  0  0  0  0  0  0
   59.5339   26.9842   47.2075 H   0  0  0  0  0  0  0  0  0  0  0  0
   60.1610   28.3440   48.7750 C   0  0  0  0  0  0  0  0  0  0  0  0
   59.8672   27.6592   49.5841 H   0  0  0  0  0  0  0  0  0  0  0  0
   61.8800   33.2980   49.4960 C   0  0  0  0  0  0  0  0  0  0  0  0
   61.4227   33.3371   50.4957 H   0  0  0  0  0  0  0  0  0  0  0  0
   61.1400   33.6900   48.3770 C   0  0  0  0  0  0  0  0  0  0  0  0
   60.1072   34.0471   48.5027 H   0  0  0  0  0  0  0  0  0  0  0  0
   57.6610   34.2380   44.8430 C   0  0  0  0  0  0  0  0  0  0  0  0
   56.7042   34.7807   44.8473 H   0  0  0  0  0  0  0  0  0  0  0  0
   57.6110   32.7530   44.7510 C   0  0  0  0  0  0  0  0  0  0  0  0
   57.3790   32.0560   43.5470 C   0  0  0  0  0  0  0  0  0  0  0  0
   57.2125   32.6167   42.6154 H   0  0  0  0  0  0  0  0  0  0  0  0
   57.3590   30.6580   43.5280 C   0  0  0  0  0  0  0  0  0  0  0  0
   57.1816   30.1289   42.5801 H   0  0  0  0  0  0  0  0  0  0  0  0
   57.5630   29.9230   44.7060 C   0  0  0  0  0  0  0  0  0  0  0  0
   57.5550   28.4400   44.6680 C   0  0  0  0  0  0  0  0  0  0  0  0
   58.3330   27.8380   43.8800 O   0  0  0  0  0  0  0  0  0  0  0  0
   56.7270   27.6600   45.5420 N   0  0  0  0  0  0  0  0  0  0  0  0
   56.8820   26.2620   45.8330 C   0  0  0  0  0  0  0  0  0  0  0  0
   58.1570   25.7050   46.0490 C   0  0  0  0  0  0  0  0  0  0  0  0
   59.0507   26.3427   45.9810 H   0  0  0  0  0  0  0  0  0  0  0  0
   58.2940   24.3480   46.3490 C   0  0  0  0  0  0  0  0  0  0  0  0
   59.2945   23.9183   46.5052 H   0  0  0  0  0  0  0  0  0  0  0  0
   57.1630   23.5360   46.4510 C   0  0  0  0  0  0  0  0  0  0  0  0
   57.2735   22.4661   46.6812 H   0  0  0  0  0  0  0  0  0  0  0  0
   55.8920   24.0810   46.2610 C   0  0  0  0  0  0  0  0  0  0  0  0
   55.0034   23.4388   46.3501 H   0  0  0  0  0  0  0  0  0  0  0  0
   55.7400   25.4430   45.9570 C   0  0  0  0  0  0  0  0  0  0  0  0
   54.4250   25.9800   45.7670 N   0  0  0  0  0  0  0  0  0  0  0  0
   53.6280   25.6630   46.3640 H   0  0  0  0  0  0  0  0  0  0  0  0
   54.2300   26.7050   45.0410 H   0  0  0  0  0  0  0  0  0  0  0  0
   57.8100   30.6130   45.9020 C   0  0  0  0  0  0  0  0  0  0  0  0
   57.9918   30.0498   46.8292 H   0  0  0  0  0  0  0  0  0  0  0  0
   57.8270   32.0100   45.9250 C   0  0  0  0  0  0  0  0  0  0  0  0
   58.0117   32.5352   46.8737 H   0  0  0  0  0  0  0  0  0  0  0  0
  1  2  1  0
  2  3  1  0
  3  4  2  0
  3  5  1  0
  5  6  1  0
  5  7  1  0
  7  8  2  0
  8  9  1  0
  8 10  1  0
 10 11  1  0
 10 12  2  0
 12 13  1  0
 13 14  2  0
 13 15  2  0
 13 16  1  0
 16 17  1  0
 17 18  2  0
 18 19  1  0
 18 20  1  0
 20 21  1  0
 20 22  2  0
 22 23  1  0
 22 24  1  0
 24 25  1  0
 24 26  2  0
 26 27  1  0
 27 28  2  0
 27 29  1  0
 29 30  2  0
 30 31  1  0
 30 32  1  0
 32 33  1  0
 32 34  2  0
 34 35  1  0
 34 36  1  0
 36 37  1  0
 36 38  2  0
 38 39  1  0
 12 40  1  0
 40 41  1  0
 40 42  2  0
 42 43  1  0
  2 44  2  0
 44 45  1  0
 44 46  1  0
 46 47  2  0
 47 48  1  0
 47 49  1  0
 49 50  1  0
 49 51  2  0
 51 52  1  0
 52 53  2  0
 52 54  1  0
 54 55  1  0
 55 56  2  0
 56 57  1  0
 56 58  1  0
 58 59  1  0
 58 60  2  0
 60 61  1  0
 60 62  1  0
 62 63  1  0
 62 64  2  0
 64 65  1  0
 65 66  1  0
 65 67  1  0
 51 68  1  0
 68 69  1  0
 68 70  2  0
 70 71  1  0
 42  7  1  0
 70 46  1  0
 26 17  1  0
 38 29  1  0
 64 55  1  0
M  CHG  2  16  -1  54  -1
M  END
>  <UniqueID>  (81) 
71

>  <SMILES>  (81) 
Nc1ccccc1[N-]C(=O)c1ccc(/C=C/C(=O)Nc2ccc(S(=O)(=O)[N-]c3ccccc3C(=O)c3ccccc3)cc2)cc1

>  <Energy>  (81) 
102.50844981711678

>  <Genealogy>  (81) 
Nc1ccccc1[N-]C(=O)c1ccc(C=CC(=O)Nc2ccc(S(=O)(=O)[N-]c3ccccc3C(=O)c3ccccc3)cc2)cc1 (protonated)
Nc1ccccc1[N-]C(=O)c1ccc(/C=C/C(=O)Nc2ccc(S(=O)(=O)[N-]c3ccccc3C(=O)c3ccccc3)cc2)cc1 (cis-trans isomerization)
Nc1ccccc1[N-]C(=O)c1ccc(/C=C/C(=O)Nc2ccc(S(=O)(=O)[N-]c3ccccc3C(=O)c3ccccc3)cc2)cc1 (3D coordinates assigned)
Nc1ccccc1[N-]C(=O)c1ccc(/C=C/C(=O)Nc2ccc(S(=O)(=O)[N-]c3ccccc3C(=O)c3ccccc3)cc2)cc1 (optimized conformer: 102.50844981711678 kcal/mol)

>  <smiles>  (81) 
Nc1ccccc1NC(=O)c1ccc(C=CC(=O)Nc2ccc(S(=O)(=O)Nc3ccccc3C(=O)c3ccccc3)cc2)cc1

>  <score_type>  (81) 
oracle

>  <origin>  (81) 
adg

>  <m_score__min__energy>  (81) 
-13.26

>  <m_primary>  (81) 
energy

$$$$
81:0
     RDKit          3D

 34 36  0  0  0  0  0  0  0  0999 V2000
   58.9060   34.8140   45.0330 C   0  0  0  0  0  0  0  0  0  0  0  0
   58.3430   33.4430   44.8230 C   0  0  0  0  0  0  0  0  0  0  0  0
   57.9890   32.9870   43.5930 N   0  0  0  0  0  0  0  0  0  0  0  0
   57.5950   31.7250   43.8400 C   0  0  0  0  0  0  0  0  0  0  0  0
   57.1360   30.7890   42.9180 C   0  0  0  0  0  0  0  0  0  0  0  0
   56.7930   29.5110   43.3950 C   0  0  0  0  0  0  0  0  0  0  0  0
   56.9170   29.1990   44.7710 C   0  0  0  0  0  0  0  0  0  0  0  0
   56.5670   27.8950   45.2430 N   0  0  0  0  0  0  0  0  0  0  0  0
   57.3880   30.1740   45.6770 C   0  0  0  0  0  0  0  0  0  0  0  0
   57.7170   31.4330   45.1670 C   0  0  0  0  0  0  0  0  0  0  0  0
   58.1890   32.5170   45.8090 N   0  0  0  0  0  0  0  0  0  0  0  0
   58.5430   32.6460   47.2270 C   0  0  0  0  0  0  0  0  0  0  0  0
   60.0380   32.6710   47.3950 C   0  0  0  0  0  0  0  0  0  0  0  0
   60.7980   31.5200   47.1300 C   0  0  0  0  0  0  0  0  0  0  0  0
   62.1890   31.5450   47.2680 C   0  0  0  0  0  0  0  0  0  0  0  0
   62.8360   32.7230   47.6680 C   0  0  0  0  0  0  0  0  0  0  0  0
   64.2210   32.7610   47.8060 O   0  0  0  0  0  0  0  0  0  0  0  0
   62.0840   33.8710   47.9320 C   0  0  0  0  0  0  0  0  0  0  0  0
   60.6920   33.8480   47.7970 C   0  0  0  0  0  0  0  0  0  0  0  0
   58.9886   35.0152   46.1113 H   0  0  0  0  0  0  0  0  0  0  0  0
   59.9024   34.8759   44.5710 H   0  0  0  0  0  0  0  0  0  0  0  0
   58.2407   35.5583   44.5710 H   0  0  0  0  0  0  0  0  0  0  0  0
   57.0444   31.0404   41.8510 H   0  0  0  0  0  0  0  0  0  0  0  0
   56.4254   28.7475   42.6936 H   0  0  0  0  0  0  0  0  0  0  0  0
   56.4840   27.0920   44.5790 H   0  0  0  0  0  0  0  0  0  0  0  0
   56.3900   27.7230   46.2580 H   0  0  0  0  0  0  0  0  0  0  0  0
   57.4926   29.9502   46.7489 H   0  0  0  0  0  0  0  0  0  0  0  0
   58.1182   33.5803   47.6229 H   0  0  0  0  0  0  0  0  0  0  0  0
   58.1370   31.7834   47.7757 H   0  0  0  0  0  0  0  0  0  0  0  0
   60.2962   30.5941   46.8122 H   0  0  0  0  0  0  0  0  0  0  0  0
   62.7772   30.6385   47.0623 H   0  0  0  0  0  0  0  0  0  0  0  0
   64.8350   32.3650   47.1030 H   0  0  0  0  0  0  0  0  0  0  0  0
   62.5887   34.7962   48.2472 H   0  0  0  0  0  0  0  0  0  0  0  0
   60.1066   34.7554   48.0065 H   0  0  0  0  0  0  0  0  0  0  0  0
  1  2  1  0
  2  3  2  0
  3  4  1  0
  4  5  2  0
  5  6  1  0
  6  7  2  0
  7  8  1  0
  7  9  1  0
  9 10  2  0
 10 11  1  0
 11 12  1  0
 12 13  1  0
 13 14  2  0
 14 15  1  0
 15 16  2  0
 16 17  1  0
 16 18  1  0
 18 19  2  0
 11  2  1  0
 19 13  1  0
 10  4  1  0
  1 20  1  0
  1 21  1  0
  1 22  1  0
  5 23  1  0
  6 24  1  0
  8 25  1  0
  8 26  1  0
  9 27  1  0
 12 28  1  0
 12 29  1  0
 14 30  1  0
 15 31  1  0
 17 32  1  0
 18 33  1  0
 19 34  1  0
M  END
>  <UniqueID>  (82) 
72

>  <SMILES>  (82) 
Cc1nc2ccc(N)cc2n1Cc1ccc(O)cc1

>  <Energy>  (82) 
69.80415069683265

>  <Genealogy>  (82) 
Cc1nc2ccc(N)cc2n1Cc1ccc(O)cc1 (3D coordinates assigned)
Cc1nc2ccc(N)cc2n1Cc1ccc(O)cc1 (optimized conformer: 69.80415069683265 kcal/mol)

>  <smiles>  (82) 
Cc1nc2ccc(N)cc2n1Cc1ccc(O)cc1

>  <score_type>  (82) 
oracle

>  <origin>  (82) 
adg

>  <m_score__min__energy>  (82) 
-6.71

>  <m_primary>  (82) 
energy

$$$$
82:0
     RDKit          3D

 33 34  0  0  0  0  0  0  0  0999 V2000
   57.1708   25.7376   45.1072 H   0  0  0  0  0  0  0  0  0  0  0  0
   56.6850   26.5820   45.6180 C   0  0  0  0  0  0  0  0  0  0  0  0
   55.6190   26.3650   46.3290 N   0  0  0  0  0  0  0  0  0  0  0  0
   54.4080   25.9140   45.8240 O   0  0  0  0  0  0  0  0  0  0  0  0
   54.1160   24.5410   45.5760 C   0  0  0  0  0  0  0  0  0  0  0  0
   54.0034   24.0113   46.5335 H   0  0  0  0  0  0  0  0  0  0  0  0
   53.1812   24.4629   45.0016 H   0  0  0  0  0  0  0  0  0  0  0  0
   54.9382   24.0892   45.0016 H   0  0  0  0  0  0  0  0  0  0  0  0
   57.2620   27.9410   45.4790 C   0  0  0  0  0  0  0  0  0  0  0  0
   58.6330   28.1110   45.6940 C   0  0  0  0  0  0  0  0  0  0  0  0
   59.2469   27.2400   45.9670 H   0  0  0  0  0  0  0  0  0  0  0  0
   59.2430   29.3690   45.5690 C   0  0  0  0  0  0  0  0  0  0  0  0
   60.7480   29.4180   45.6810 C   0  0  0  0  0  0  0  0  0  0  0  0
   61.0366   29.4274   46.7424 H   0  0  0  0  0  0  0  0  0  0  0  0
   61.1811   28.5335   45.1911 H   0  0  0  0  0  0  0  0  0  0  0  0
   61.1227   30.3288   45.1911 H   0  0  0  0  0  0  0  0  0  0  0  0
   58.4160   30.4970   45.2790 C   0  0  0  0  0  0  0  0  0  0  0  0
   58.8410   31.7340   45.2240 N   0  0  0  0  0  0  0  0  0  0  0  0
   59.0280   32.6910   46.2720 C   0  0  0  0  0  0  0  0  0  0  0  0
   59.0470   32.2630   47.6070 C   0  0  0  0  0  0  0  0  0  0  0  0
   58.8650   31.2051   47.8474 H   0  0  0  0  0  0  0  0  0  0  0  0
   59.2970   33.1790   48.6330 C   0  0  0  0  0  0  0  0  0  0  0  0
   59.2883   32.8454   49.6812 H   0  0  0  0  0  0  0  0  0  0  0  0
   59.5580   34.5180   48.3290 C   0  0  0  0  0  0  0  0  0  0  0  0
   59.7461   35.2391   49.1381 H   0  0  0  0  0  0  0  0  0  0  0  0
   59.5800   34.9410   46.9960 C   0  0  0  0  0  0  0  0  0  0  0  0
   59.7946   35.9928   46.7561 H   0  0  0  0  0  0  0  0  0  0  0  0
   59.3290   34.0260   45.9680 C   0  0  0  0  0  0  0  0  0  0  0  0
   59.3679   34.3547   44.9190 H   0  0  0  0  0  0  0  0  0  0  0  0
   57.0910   30.2870   45.0280 N   0  0  0  0  0  0  0  0  0  0  0  0
   56.4860   31.1040   44.7800 H   0  0  0  0  0  0  0  0  0  0  0  0
   56.5000   29.0660   45.1230 C   0  0  0  0  0  0  0  0  0  0  0  0
   55.1360   28.9580   44.8680 O   0  0  0  0  0  0  0  0  0  0  0  0
  1  2  1  0
  2  3  2  0
  3  4  1  0
  4  5  1  0
  5  6  1  0
  5  7  1  0
  5  8  1  0
  2  9  1  0
  9 10  1  0
 10 11  1  0
 10 12  2  0
 12 13  1  0
 13 14  1  0
 13 15  1  0
 13 16  1  0
 12 17  1  0
 17 18  2  0
 18 19  1  0
 19 20  2  0
 20 21  1  0
 20 22  1  0
 22 23  1  0
 22 24  2  0
 24 25  1  0
 24 26  1  0
 26 27  1  0
 26 28  2  0
 28 29  1  0
 17 30  1  0
 30 31  1  0
 30 32  1  0
 32 33  1  0
 32  9  2  0
 28 19  1  0
M  CHG  1  33  -1
M  END
>  <UniqueID>  (83) 
73

>  <SMILES>  (83) 
CO/N=C/c1cc(C)/c(=N\c2ccccc2)[nH]c1[O-]

>  <Energy>  (83) 
53.246448384543385

>  <Genealogy>  (83) 
CON=Cc1cc(C)c(=Nc2ccccc2)[nH]c1[O-] (protonated)
CO/N=C/c1cc(C)/c(=N\c2ccccc2)[nH]c1[O-] (cis-trans isomerization)
CO/N=C/c1cc(C)/c(=N\c2ccccc2)[nH]c1[O-] (3D coordinates assigned)
CO/N=C/c1cc(C)/c(=N\c2ccccc2)[nH]c1[O-] (optimized conformer: 53.246448384543385 kcal/mol)

>  <smiles>  (83) 
CON=Cc1cc(C)c(=Nc2ccccc2)[nH]c1O

>  <score_type>  (83) 
oracle

>  <origin>  (83) 
adg

>  <m_score__min__energy>  (83) 
-10.960000000000001

>  <m_primary>  (83) 
energy

$$$$
83:0
     RDKit          3D

 71 75  0  0  0  0  0  0  0  0999 V2000
   59.6780   32.3850   53.0940 C   0  0  0  0  0  0  0  0  0  0  0  0
   58.7230   31.6130   52.3040 N   0  0  0  0  0  0  0  0  0  0  0  0
   57.6950   32.1350   51.6610 N   0  0  0  0  0  0  0  0  0  0  0  0
   57.0550   31.1640   51.0250 N   0  0  0  0  0  0  0  0  0  0  0  0
   57.6610   30.0030   51.2410 N   0  0  0  0  0  0  0  0  0  0  0  0
   58.7110   30.2950   52.0330 C   0  0  0  0  0  0  0  0  0  0  0  0
   59.6950   29.2920   52.5040 C   0  0  0  0  0  0  0  0  0  0  0  0
   59.7570   28.9700   53.8710 C   0  0  0  0  0  0  0  0  0  0  0  0
   60.7190   28.0760   54.3470 C   0  0  0  0  0  0  0  0  0  0  0  0
   61.6390   27.5040   53.4670 C   0  0  0  0  0  0  0  0  0  0  0  0
   61.6010   27.8220   52.1090 C   0  0  0  0  0  0  0  0  0  0  0  0
   60.6290   28.7070   51.6130 C   0  0  0  0  0  0  0  0  0  0  0  0
   60.5800   28.9670   50.1590 C   0  0  0  0  0  0  0  0  0  0  0  0
   61.1650   30.1280   49.6330 C   0  0  0  0  0  0  0  0  0  0  0  0
   61.1230   30.3770   48.2590 C   0  0  0  0  0  0  0  0  0  0  0  0
   60.5210   29.4530   47.3910 C   0  0  0  0  0  0  0  0  0  0  0  0
   60.4470   29.7320   45.9180 C   0  0  0  0  0  0  0  0  0  0  0  0
   59.0970   30.1850   45.5670 N   0  0  0  0  0  0  0  0  0  0  0  0
   58.1480   29.2320   45.0730 C   0  0  0  0  0  0  0  0  0  0  0  0
   58.5730   28.1780   44.5170 O   0  0  0  0  0  0  0  0  0  0  0  0
   56.6710   29.4310   45.2970 C   0  0  2  0  0  0  0  0  0  0  0  0
   55.9850   28.1410   45.2160 N   0  0  0  0  0  0  0  0  0  0  0  0
   56.1530   27.0160   46.0900 C   0  0  0  0  0  0  0  0  0  0  0  0
   55.1410   26.3190   46.3660 O   0  0  0  0  0  0  0  0  0  0  0  0
   57.4930   26.6150   46.6700 C   0  0  0  0  0  0  0  0  0  0  0  0
   58.2630   25.5460   45.8380 C   0  0  0  0  0  0  0  0  0  0  0  0
   57.7950   24.1260   46.2050 C   0  0  0  0  0  0  0  0  0  0  0  0
   59.7870   25.6420   46.0640 C   0  0  0  0  0  0  0  0  0  0  0  0
   57.9950   25.7590   44.4090 N   0  0  0  0  0  0  0  0  0  0  0  0
   56.0800   30.4030   44.2580 C   0  0  0  0  0  0  0  0  0  0  0  0
   57.1440   31.3520   43.6960 C   0  0  0  0  0  0  0  0  0  0  0  0
   57.8070   32.1600   44.7870 C   0  0  0  0  0  0  0  0  0  0  0  0
   57.4830   33.5220   44.9300 C   0  0  0  0  0  0  0  0  0  0  0  0
   58.0850   34.2920   45.9260 C   0  0  0  0  0  0  0  0  0  0  0  0
   59.0290   33.7190   46.7760 C   0  0  0  0  0  0  0  0  0  0  0  0
   59.3530   32.3690   46.6530 C   0  0  0  0  0  0  0  0  0  0  0  0
   58.7410   31.5740   45.6720 C   0  0  0  0  0  0  0  0  0  0  0  0
   59.9280   28.2970   47.9210 C   0  0  0  0  0  0  0  0  0  0  0  0
   59.9510   28.0580   49.2960 C   0  0  0  0  0  0  0  0  0  0  0  0
   59.4815   32.2261   54.1646 H   0  0  0  0  0  0  0  0  0  0  0  0
   60.7006   32.0568   52.8563 H   0  0  0  0  0  0  0  0  0  0  0  0
   59.5714   33.4537   52.8563 H   0  0  0  0  0  0  0  0  0  0  0  0
   59.0420   29.4259   54.5717 H   0  0  0  0  0  0  0  0  0  0  0  0
   60.7515   27.8225   55.4169 H   0  0  0  0  0  0  0  0  0  0  0  0
   62.3958   26.8008   53.8449 H   0  0  0  0  0  0  0  0  0  0  0  0
   62.3365   27.3771   51.4226 H   0  0  0  0  0  0  0  0  0  0  0  0
   61.6588   30.8454   50.3049 H   0  0  0  0  0  0  0  0  0  0  0  0
   61.5635   31.3008   47.8559 H   0  0  0  0  0  0  0  0  0  0  0  0
   61.1745   30.5148   45.6573 H   0  0  0  0  0  0  0  0  0  0  0  0
   60.6783   28.8119   45.3613 H   0  0  0  0  0  0  0  0  0  0  0  0
   56.5258   29.8665   46.2966 H   0  0  0  0  0  0  0  0  0  0  0  0
   58.1212   27.5154   46.7381 H   0  0  0  0  0  0  0  0  0  0  0  0
   57.2863   26.1598   47.6498 H   0  0  0  0  0  0  0  0  0  0  0  0
   57.7609   24.0226   47.2996 H   0  0  0  0  0  0  0  0  0  0  0  0
   56.7918   23.9515   45.7888 H   0  0  0  0  0  0  0  0  0  0  0  0
   58.4979   23.3893   45.7888 H   0  0  0  0  0  0  0  0  0  0  0  0
   59.9975   25.6553   47.1436 H   0  0  0  0  0  0  0  0  0  0  0  0
   60.2812   24.7732   45.6047 H   0  0  0  0  0  0  0  0  0  0  0  0
   60.1683   26.5659   45.6047 H   0  0  0  0  0  0  0  0  0  0  0  0
   58.8570   26.1380   43.9450 H   0  0  0  0  0  0  0  0  0  0  0  0
   57.2460   26.4810   44.2970 H   0  0  0  0  0  0  0  0  0  0  0  0
   55.6495   29.8205   43.4301 H   0  0  0  0  0  0  0  0  0  0  0  0
   55.3101   31.0099   44.7570 H   0  0  0  0  0  0  0  0  0  0  0  0
   57.9108   30.7593   43.1758 H   0  0  0  0  0  0  0  0  0  0  0  0
   56.6489   32.0507   43.0056 H   0  0  0  0  0  0  0  0  0  0  0  0
   56.7499   33.9830   44.2517 H   0  0  0  0  0  0  0  0  0  0  0  0
   57.8142   35.3520   46.0402 H   0  0  0  0  0  0  0  0  0  0  0  0
   59.5194   34.3333   47.5455 H   0  0  0  0  0  0  0  0  0  0  0  0
   60.0952   31.9227   47.3311 H   0  0  0  0  0  0  0  0  0  0  0  0
   59.4420   27.5746   47.2487 H   0  0  0  0  0  0  0  0  0  0  0  0
   59.4745   27.1543   49.7038 H   0  0  0  0  0  0  0  0  0  0  0  0
  1  2  1  0
  2  3  1  0
  3  4  2  0
  4  5  1  0
  5  6  2  0
  6  7  1  0
  7  8  2  0
  8  9  1  0
  9 10  2  0
 10 11  1  0
 11 12  2  0
 12 13  1  0
 13 14  2  0
 14 15  1  0
 15 16  2  0
 16 17  1  0
 17 18  1  0
 18 19  1  0
 19 20  2  0
 19 21  1  0
 21 22  1  0
 22 23  1  0
 23 24  2  0
 23 25  1  0
 25 26  1  0
 26 27  1  0
 26 28  1  0
 26 29  1  0
 21 30  1  0
 30 31  1  0
 31 32  1  0
 32 33  2  0
 33 34  1  0
 34 35  2  0
 35 36  1  0
 36 37  2  0
 16 38  1  0
 38 39  2  0
  6  2  1  0
 12  7  1  0
 39 13  1  0
 37 18  1  0
 37 32  1  0
  1 40  1  0
  1 41  1  0
  1 42  1  0
  8 43  1  0
  9 44  1  0
 10 45  1  0
 11 46  1  0
 14 47  1  0
 15 48  1  0
 17 49  1  0
 17 50  1  0
 21 51  1  1
 25 52  1  0
 25 53  1  0
 27 54  1  0
 27 55  1  0
 27 56  1  0
 28 57  1  0
 28 58  1  0
 28 59  1  0
 29 60  1  0
 29 61  1  0
 30 62  1  0
 30 63  1  0
 31 64  1  0
 31 65  1  0
 33 66  1  0
 34 67  1  0
 35 68  1  0
 36 69  1  0
 38 70  1  0
 39 71  1  0
M  CHG  1  22  -1
M  END
>  <UniqueID>  (84) 
74

>  <SMILES>  (84) 
Cn1nnnc1-c1ccccc1-c1ccc(CN2C(=O)[C@H]([N-]C(=O)CC(C)(C)N)CCc3ccccc32)cc1

>  <Energy>  (84) 
133.44588570828742

>  <Genealogy>  (84) 
Cn1nnnc1-c1ccccc1-c1ccc(CN2C(=O)C([N-]C(=O)CC(C)(C)N)CCc3ccccc32)cc1 (protonated)
Cn1nnnc1-c1ccccc1-c1ccc(CN2C(=O)[C@H]([N-]C(=O)CC(C)(C)N)CCc3ccccc32)cc1 (chirality)
Cn1nnnc1-c1ccccc1-c1ccc(CN2C(=O)[C@H]([N-]C(=O)CC(C)(C)N)CCc3ccccc32)cc1 (3D coordinates assigned)
Cn1nnnc1-c1ccccc1-c1ccc(CN2C(=O)[C@H]([N-]C(=O)CC(C)(C)N)CCc3ccccc32)cc1 (nonaromatic ring conformer: 133.44588570828742 kcal/mol)

>  <smiles>  (84) 
Cn1nnnc1-c1ccccc1-c1ccc(CN2C(=O)C(NC(=O)CC(C)(C)N)CCc3ccccc32)cc1

>  <score_type>  (84) 
oracle

>  <origin>  (84) 
adg

>  <m_score__min__energy>  (84) 
-9.7699999999999996

>  <m_primary>  (84) 
energy

$$$$
84:0
     RDKit          3D

 51 53  0  0  0  0  0  0  0  0999 V2000
   56.2690   29.8410   42.6100 C   0  0  0  0  0  0  0  0  0  0  0  0
   56.3110   29.7110   44.1040 C   0  0  0  0  0  0  0  0  0  0  0  0
   55.2180   29.6970   44.7370 O   0  0  0  0  0  0  0  0  0  0  0  0
   57.5600   29.6090   44.8270 N   0  0  0  0  0  0  0  0  0  0  0  0
   58.2160   28.3220   45.1000 C   0  0  0  0  0  0  0  0  0  0  0  0
   57.4780   27.5510   46.1610 C   0  0  0  0  0  0  0  0  0  0  0  0
   56.3310   27.0990   45.9110 O   0  0  0  0  0  0  0  0  0  0  0  0
   58.1130   27.1700   47.3890 N   0  0  0  0  0  0  0  0  0  0  0  0
   58.9580   28.0020   48.1940 C   0  0  0  0  0  0  0  0  0  0  0  0
   58.5570   29.2940   48.5820 C   0  0  0  0  0  0  0  0  0  0  0  0
   59.3760   30.0650   49.4100 C   0  0  0  0  0  0  0  0  0  0  0  0
   60.5940   29.5510   49.8680 C   0  0  0  0  0  0  0  0  0  0  0  0
   61.6150   30.5200   50.9150 Cl  0  0  0  0  0  0  0  0  0  0  0  0
   60.9870   28.2570   49.5060 C   0  0  0  0  0  0  0  0  0  0  0  0
   60.1660   27.4830   48.6810 C   0  0  0  0  0  0  0  0  0  0  0  0
   58.1830   30.8050   45.3180 C   0  0  0  0  0  0  0  0  0  0  0  0
   59.4270   30.7330   45.9550 C   0  0  0  0  0  0  0  0  0  0  0  0
   60.0090   31.8850   46.4900 C   0  0  0  0  0  0  0  0  0  0  0  0
   59.3530   33.1180   46.3900 C   0  0  0  0  0  0  0  0  0  0  0  0
   60.0490   34.5420   47.1560 S   0  0  0  0  0  0  0  0  0  0  0  0
   59.2660   34.8960   48.3930 O   0  0  0  0  0  0  0  0  0  0  0  0
   59.9780   35.6960   46.1930 O   0  0  0  0  0  0  0  0  0  0  0  0
   61.7150   34.2220   47.5680 N   0  0  0  0  0  0  0  0  0  0  0  0
   62.4510   33.7660   46.3730 C   0  0  0  0  0  0  0  0  0  0  0  0
   63.7770   33.0890   46.7590 C   0  0  0  0  0  0  0  0  0  0  0  0
   64.1720   33.4770   48.0560 O   0  0  0  0  0  0  0  0  0  0  0  0
   63.2640   32.9540   49.0110 C   0  0  0  0  0  0  0  0  0  0  0  0
   61.7880   33.2160   48.6360 C   0  0  0  0  0  0  0  0  0  0  0  0
   58.1130   33.1930   45.7390 C   0  0  0  0  0  0  0  0  0  0  0  0
   57.5330   32.0410   45.2000 C   0  0  0  0  0  0  0  0  0  0  0  0
   55.9412   30.8555   42.3393 H   0  0  0  0  0  0  0  0  0  0  0  0
   57.2721   29.6575   42.1976 H   0  0  0  0  0  0  0  0  0  0  0  0
   55.5628   29.1053   42.1976 H   0  0  0  0  0  0  0  0  0  0  0  0
   58.2393   27.7274   44.1748 H   0  0  0  0  0  0  0  0  0  0  0  0
   59.2368   28.5198   45.4588 H   0  0  0  0  0  0  0  0  0  0  0  0
   57.5955   29.6979   48.2321 H   0  0  0  0  0  0  0  0  0  0  0  0
   59.0629   31.0781   49.7025 H   0  0  0  0  0  0  0  0  0  0  0  0
   61.9415   27.8496   49.8707 H   0  0  0  0  0  0  0  0  0  0  0  0
   60.4695   26.4604   48.4122 H   0  0  0  0  0  0  0  0  0  0  0  0
   59.9477   29.7673   46.0347 H   0  0  0  0  0  0  0  0  0  0  0  0
   60.9860   31.8231   46.9916 H   0  0  0  0  0  0  0  0  0  0  0  0
   61.8283   33.0463   45.8214 H   0  0  0  0  0  0  0  0  0  0  0  0
   62.6773   34.6429   45.7486 H   0  0  0  0  0  0  0  0  0  0  0  0
   63.6469   31.9971   46.7320 H   0  0  0  0  0  0  0  0  0  0  0  0
   64.5542   33.3969   46.0441 H   0  0  0  0  0  0  0  0  0  0  0  0
   63.4203   31.8678   49.0873 H   0  0  0  0  0  0  0  0  0  0  0  0
   63.4590   33.4611   49.9675 H   0  0  0  0  0  0  0  0  0  0  0  0
   61.3285   32.2795   48.2871 H   0  0  0  0  0  0  0  0  0  0  0  0
   61.2497   33.5870   49.5207 H   0  0  0  0  0  0  0  0  0  0  0  0
   57.5960   34.1600   45.6524 H   0  0  0  0  0  0  0  0  0  0  0  0
   56.5646   32.1047   44.6822 H   0  0  0  0  0  0  0  0  0  0  0  0
  1  2  1  0
  2  3  2  0
  2  4  1  0
  4  5  1  0
  5  6  1  0
  6  7  2  0
  6  8  1  0
  8  9  1  0
  9 10  2  0
 10 11  1  0
 11 12  2  0
 12 13  1  0
 12 14  1  0
 14 15  2  0
  4 16  1  0
 16 17  2  0
 17 18  1  0
 18 19  2  0
 19 20  1  0
 20 21  2  0
 20 22  2  0
 20 23  1  0
 23 24  1  0
 24 25  1  0
 25 26  1  0
 26 27  1  0
 27 28  1  0
 19 29  1  0
 29 30  2  0
 15  9  1  0
 30 16  1  0
 28 23  1  0
  1 31  1  0
  1 32  1  0
  1 33  1  0
  5 34  1  0
  5 35  1  0
 10 36  1  0
 11 37  1  0
 14 38  1  0
 15 39  1  0
 17 40  1  0
 18 41  1  0
 24 42  1  0
 24 43  1  0
 25 44  1  0
 25 45  1  0
 27 46  1  0
 27 47  1  0
 28 48  1  0
 28 49  1  0
 29 50  1  0
 30 51  1  0
M  CHG  1   8  -1
M  END
>  <UniqueID>  (85) 
75

>  <SMILES>  (85) 
CC(=O)N(CC(=O)[N-]c1ccc(Cl)cc1)c1ccc(S(=O)(=O)N2CCOCC2)cc1

>  <Energy>  (85) 
68.54772529837008

>  <Genealogy>  (85) 
CC(=O)N(CC(=O)[N-]c1ccc(Cl)cc1)c1ccc(S(=O)(=O)N2CCOCC2)cc1 (protonated)
CC(=O)N(CC(=O)[N-]c1ccc(Cl)cc1)c1ccc(S(=O)(=O)N2CCOCC2)cc1 (3D coordinates assigned)
CC(=O)N(CC(=O)[N-]c1ccc(Cl)cc1)c1ccc(S(=O)(=O)N2CCOCC2)cc1 (nonaromatic ring conformer: 68.54772529837008 kcal/mol)

>  <smiles>  (85) 
CC(=O)N(CC(=O)Nc1ccc(Cl)cc1)c1ccc(S(=O)(=O)N2CCOCC2)cc1

>  <score_type>  (85) 
oracle

>  <origin>  (85) 
adg

>  <m_score__min__energy>  (85) 
-11.140000000000001

>  <m_primary>  (85) 
energy

$$$$
85:0
     RDKit          3D

 39 42  0  0  0  0  0  0  0  0999 V2000
   59.4260   35.2860   46.6280 C   0  0  0  0  0  0  0  0  0  0  0  0
   58.8370   34.3750   47.5100 C   0  0  0  0  0  0  0  0  0  0  0  0
   58.3410   33.1580   47.0330 C   0  0  0  0  0  0  0  0  0  0  0  0
   58.4390   32.8400   45.6690 C   0  0  0  0  0  0  0  0  0  0  0  0
   57.9020   31.5590   45.1610 C   0  0  0  0  0  0  0  0  0  0  0  0
   57.0760   31.5920   44.0230 C   0  0  0  0  0  0  0  0  0  0  0  0
   56.6020   30.4110   43.4530 C   0  0  0  0  0  0  0  0  0  0  0  0
   56.9470   29.1800   44.0090 C   0  0  0  0  0  0  0  0  0  0  0  0
   57.7530   29.1270   45.1470 C   0  0  0  0  0  0  0  0  0  0  0  0
   58.2300   30.3070   45.7470 C   0  0  0  0  0  0  0  0  0  0  0  0
   59.0170   30.1990   47.0020 C   0  0  0  0  0  0  0  0  0  0  0  0
   60.1830   30.8520   47.2060 N   0  0  0  0  0  0  0  0  0  0  0  0
   60.5370   30.4630   48.4450 C   0  0  0  0  0  0  0  0  0  0  0  0
   61.8140   30.8600   49.1130 C   0  0  0  0  0  0  0  0  0  0  0  0
   62.4970   31.8730   48.3140 N   0  0  0  0  0  0  0  0  0  0  0  0
   62.1750   33.1770   48.2150 C   0  0  0  0  0  0  0  0  0  0  0  0
   63.1270   33.7950   47.4330 C   0  0  0  0  0  0  0  0  0  0  0  0
   64.0400   32.8770   47.0620 N   0  0  0  0  0  0  0  0  0  0  0  0
   63.6390   31.7180   47.6160 C   0  0  0  0  0  0  0  0  0  0  0  0
   59.6050   29.5810   48.9380 C   0  0  0  0  0  0  0  0  0  0  0  0
   58.6780   29.4430   48.0240 O   0  0  0  0  0  0  0  0  0  0  0  0
   59.0200   33.7680   44.7860 C   0  0  0  0  0  0  0  0  0  0  0  0
   59.5150   34.9830   45.2660 C   0  0  0  0  0  0  0  0  0  0  0  0
   59.8194   36.2413   47.0057 H   0  0  0  0  0  0  0  0  0  0  0  0
   58.7637   34.6161   48.5807 H   0  0  0  0  0  0  0  0  0  0  0  0
   57.8722   32.4469   47.7291 H   0  0  0  0  0  0  0  0  0  0  0  0
   56.8011   32.5597   43.5780 H   0  0  0  0  0  0  0  0  0  0  0  0
   55.9554   30.4507   42.5640 H   0  0  0  0  0  0  0  0  0  0  0  0
   56.5833   28.2489   43.5499 H   0  0  0  0  0  0  0  0  0  0  0  0
   58.0185   28.1513   45.5800 H   0  0  0  0  0  0  0  0  0  0  0  0
   61.5926   31.2694   50.1097 H   0  0  0  0  0  0  0  0  0  0  0  0
   62.4624   29.9767   49.2102 H   0  0  0  0  0  0  0  0  0  0  0  0
   61.3039   33.6640   48.6777 H   0  0  0  0  0  0  0  0  0  0  0  0
   63.1391   34.8600   47.1579 H   0  0  0  0  0  0  0  0  0  0  0  0
   64.8910   33.0350   46.4770 H   0  0  0  0  0  0  0  0  0  0  0  0
   64.1762   30.7637   47.5120 H   0  0  0  0  0  0  0  0  0  0  0  0
   59.6329   29.0834   49.9186 H   0  0  0  0  0  0  0  0  0  0  0  0
   59.0849   33.5360   43.7127 H   0  0  0  0  0  0  0  0  0  0  0  0
   59.9751   35.7018   44.5719 H   0  0  0  0  0  0  0  0  0  0  0  0
  1  2  2  0
  2  3  1  0
  3  4  2  0
  4  5  1  0
  5  6  2  0
  6  7  1  0
  7  8  2  0
  8  9  1  0
  9 10  2  0
 10 11  1  0
 11 12  2  0
 12 13  1  0
 13 14  1  0
 14 15  1  0
 15 16  1  0
 16 17  2  0
 17 18  1  0
 18 19  2  0
 13 20  2  0
 20 21  1  0
  4 22  1  0
 22 23  2  0
 23  1  1  0
 10  5  1  0
 21 11  1  0
 19 15  1  0
  1 24  1  0
  2 25  1  0
  3 26  1  0
  6 27  1  0
  7 28  1  0
  8 29  1  0
  9 30  1  0
 14 31  1  0
 14 32  1  0
 16 33  1  0
 17 34  1  0
 18 35  1  0
 19 36  1  0
 20 37  1  0
 22 38  1  0
 23 39  1  0
M  CHG  1  18   1
M  END
>  <UniqueID>  (86) 
76

>  <SMILES>  (86) 
c1ccc(-c2ccccc2-c2nc(Cn3cc[nH+]c3)co2)cc1

>  <Energy>  (86) 
110.41787530630657

>  <Genealogy>  (86) 
c1ccc(-c2ccccc2-c2nc(Cn3cc[nH+]c3)co2)cc1 (protonated)
c1ccc(-c2ccccc2-c2nc(Cn3cc[nH+]c3)co2)cc1 (3D coordinates assigned)
c1ccc(-c2ccccc2-c2nc(Cn3cc[nH+]c3)co2)cc1 (optimized conformer: 110.41787530630657 kcal/mol)

>  <smiles>  (86) 
c1ccc(-c2ccccc2-c2nc(Cn3ccnc3)co2)cc1

>  <score_type>  (86) 
oracle

>  <origin>  (86) 
adg

>  <m_score__min__energy>  (86) 
-6.4000000000000004

>  <m_primary>  (86) 
energy

$$$$
86:0
     RDKit          3D

 47 49  0  0  0  0  0  0  0  0999 V2000
   62.6350   34.0790   50.1140 C   0  0  0  0  0  0  0  0  0  0  0  0
   62.8140   33.3840   48.8410 N   0  0  0  0  0  0  0  0  0  0  0  0
   63.4190   33.8980   47.7500 C   0  0  0  0  0  0  0  0  0  0  0  0
   63.5000   32.9390   46.7600 C   0  0  0  0  0  0  0  0  0  0  0  0
   62.9300   31.7890   47.2730 C   0  0  0  0  0  0  0  0  0  0  0  0
   62.5150   32.0960   48.5570 C   0  0  0  0  0  0  0  0  0  0  0  0
   61.8140   31.1400   49.4800 C   0  0  0  0  0  0  0  0  0  0  0  0
   60.3830   30.8530   49.0210 C   0  0  0  0  0  0  0  0  0  0  0  0
   59.4450   31.8350   49.5610 N   0  0  0  0  0  0  0  0  0  0  0  0
   59.3500   33.1880   49.0970 C   0  0  0  0  0  0  0  0  0  0  0  0
   59.4690   34.1400   49.9170 O   0  0  0  0  0  0  0  0  0  0  0  0
   59.0880   33.4680   47.6660 C   0  0  0  0  0  0  0  0  0  0  0  0
   59.9360   34.3240   46.9410 C   0  0  0  0  0  0  0  0  0  0  0  0
   59.7250   34.5400   45.5780 C   0  0  0  0  0  0  0  0  0  0  0  0
   58.6700   33.9020   44.9200 C   0  0  0  0  0  0  0  0  0  0  0  0
   57.7990   33.0600   45.6260 C   0  0  0  0  0  0  0  0  0  0  0  0
   56.7370   32.4000   44.9180 N   0  0  0  0  0  0  0  0  0  0  0  0
   56.8430   30.7680   44.3340 S   0  0  0  0  0  0  0  0  0  0  0  0
   55.5250   30.0840   44.5520 O   0  0  0  0  0  0  0  0  0  0  0  0
   57.1510   30.7760   42.8620 O   0  0  0  0  0  0  0  0  0  0  0  0
   58.0830   29.8880   45.2250 C   0  0  0  0  0  0  0  0  0  0  0  0
   59.4380   30.0740   44.9080 C   0  0  0  0  0  0  0  0  0  0  0  0
   60.4300   29.4320   45.6550 C   0  0  0  0  0  0  0  0  0  0  0  0
   60.0730   28.6020   46.7210 C   0  0  0  0  0  0  0  0  0  0  0  0
   58.7240   28.4060   47.0340 C   0  0  0  0  0  0  0  0  0  0  0  0
   57.7290   29.0470   46.2890 C   0  0  0  0  0  0  0  0  0  0  0  0
   58.0110   32.8510   47.0020 C   0  0  0  0  0  0  0  0  0  0  0  0
   62.8154   33.3785   50.9427 H   0  0  0  0  0  0  0  0  0  0  0  0
   63.3472   34.9148   50.1787 H   0  0  0  0  0  0  0  0  0  0  0  0
   61.6077   34.4668   50.1787 H   0  0  0  0  0  0  0  0  0  0  0  0
   63.7926   34.9289   47.6622 H   0  0  0  0  0  0  0  0  0  0  0  0
   63.9341   33.0656   45.7572 H   0  0  0  0  0  0  0  0  0  0  0  0
   62.8266   30.8207   46.7615 H   0  0  0  0  0  0  0  0  0  0  0  0
   62.3756   30.1946   49.5069 H   0  0  0  0  0  0  0  0  0  0  0  0
   61.7671   31.6006   50.4778 H   0  0  0  0  0  0  0  0  0  0  0  0
   60.3453   30.8880   47.9222 H   0  0  0  0  0  0  0  0  0  0  0  0
   60.0935   29.8576   49.3888 H   0  0  0  0  0  0  0  0  0  0  0  0
   60.7710   34.8266   47.4511 H   0  0  0  0  0  0  0  0  0  0  0  0
   60.3913   35.2145   45.0202 H   0  0  0  0  0  0  0  0  0  0  0  0
   58.5220   34.0613   43.8417 H   0  0  0  0  0  0  0  0  0  0  0  0
   55.7890   32.8420   44.9080 H   0  0  0  0  0  0  0  0  0  0  0  0
   59.7200   30.7271   44.0690 H   0  0  0  0  0  0  0  0  0  0  0  0
   61.4907   29.5801   45.4039 H   0  0  0  0  0  0  0  0  0  0  0  0
   60.8532   28.1026   47.3142 H   0  0  0  0  0  0  0  0  0  0  0  0
   58.4449   27.7459   47.8684 H   0  0  0  0  0  0  0  0  0  0  0  0
   56.6689   28.8912   46.5380 H   0  0  0  0  0  0  0  0  0  0  0  0
   57.3274   32.1982   47.5646 H   0  0  0  0  0  0  0  0  0  0  0  0
  1  2  1  0
  2  3  1  0
  3  4  2  0
  4  5  1  0
  5  6  2  0
  6  7  1  0
  7  8  1  0
  8  9  1  0
  9 10  1  0
 10 11  2  0
 10 12  1  0
 12 13  2  0
 13 14  1  0
 14 15  2  0
 15 16  1  0
 16 17  1  0
 17 18  1  0
 18 19  2  0
 18 20  2  0
 18 21  1  0
 21 22  2  0
 22 23  1  0
 23 24  2  0
 24 25  1  0
 25 26  2  0
 16 27  2  0
  6  2  1  0
 27 12  1  0
 26 21  1  0
  1 28  1  0
  1 29  1  0
  1 30  1  0
  3 31  1  0
  4 32  1  0
  5 33  1  0
  7 34  1  0
  7 35  1  0
  8 36  1  0
  8 37  1  0
 13 38  1  0
 14 39  1  0
 15 40  1  0
 17 41  1  0
 22 42  1  0
 23 43  1  0
 24 44  1  0
 25 45  1  0
 26 46  1  0
 27 47  1  0
M  CHG  1   9  -1
M  END
>  <UniqueID>  (87) 
77

>  <SMILES>  (87) 
Cn1cccc1CC[N-]C(=O)c1cccc(NS(=O)(=O)c2ccccc2)c1

>  <Energy>  (87) 
73.57378130820999

>  <Genealogy>  (87) 
Cn1cccc1CC[N-]C(=O)c1cccc(NS(=O)(=O)c2ccccc2)c1 (protonated)
Cn1cccc1CC[N-]C(=O)c1cccc(NS(=O)(=O)c2ccccc2)c1 (3D coordinates assigned)
Cn1cccc1CC[N-]C(=O)c1cccc(NS(=O)(=O)c2ccccc2)c1 (optimized conformer: 73.57378130820999 kcal/mol)

>  <smiles>  (87) 
Cn1cccc1CCNC(=O)c1cccc(NS(=O)(=O)c2ccccc2)c1

>  <score_type>  (87) 
oracle

>  <origin>  (87) 
adg

>  <m_score__min__energy>  (87) 
-11.779999999999999

>  <m_primary>  (87) 
energy

$$$$
87:0
     RDKit          3D

 33 35  0  0  0  0  0  0  0  0999 V2000
   60.3240   27.1810   48.8620 H   0  0  0  0  0  0  0  0  0  0  0  0
   60.0050   26.3380   48.3320 N   0  0  0  0  0  0  0  0  0  0  0  0
   59.3420   26.4430   47.2240 C   0  0  0  0  0  0  0  0  0  0  0  0
   58.9690   25.3170   46.5570 N   0  0  0  0  0  0  0  0  0  0  0  0
   58.2690   25.3500   45.3920 C   0  0  0  0  0  0  0  0  0  0  0  0
   57.8960   24.0700   44.7330 C   0  0  0  0  0  0  0  0  0  0  0  0
   58.5390   22.8600   45.0610 C   0  0  0  0  0  0  0  0  0  0  0  0
   59.3405   22.8541   45.8144 H   0  0  0  0  0  0  0  0  0  0  0  0
   58.1650   21.6660   44.4350 C   0  0  0  0  0  0  0  0  0  0  0  0
   58.6754   20.7268   44.6947 H   0  0  0  0  0  0  0  0  0  0  0  0
   57.1460   21.6640   43.4820 C   0  0  0  0  0  0  0  0  0  0  0  0
   56.8575   20.7249   42.9873 H   0  0  0  0  0  0  0  0  0  0  0  0
   56.4920   22.8550   43.1560 C   0  0  0  0  0  0  0  0  0  0  0  0
   55.6859   22.8514   42.4076 H   0  0  0  0  0  0  0  0  0  0  0  0
   56.8600   24.0510   43.7790 C   0  0  0  0  0  0  0  0  0  0  0  0
   56.3368   24.9839   43.5224 H   0  0  0  0  0  0  0  0  0  0  0  0
   57.9010   26.5920   44.8510 C   0  0  0  0  0  0  0  0  0  0  0  0
   57.3185   26.6350   43.9189 H   0  0  0  0  0  0  0  0  0  0  0  0
   58.2760   27.7780   45.4990 C   0  0  0  0  0  0  0  0  0  0  0  0
   57.8770   29.0730   44.9030 C   0  0  0  0  0  0  0  0  0  0  0  0
   58.8660   29.9710   44.4690 C   0  0  0  0  0  0  0  0  0  0  0  0
   59.9288   29.7073   44.5739 H   0  0  0  0  0  0  0  0  0  0  0  0
   58.5060   31.1990   43.9040 C   0  0  0  0  0  0  0  0  0  0  0  0
   59.2852   31.8952   43.5602 H   0  0  0  0  0  0  0  0  0  0  0  0
   57.1580   31.5420   43.7760 C   0  0  0  0  0  0  0  0  0  0  0  0
   56.8762   32.5065   43.3284 H   0  0  0  0  0  0  0  0  0  0  0  0
   56.1680   30.6610   44.2160 C   0  0  0  0  0  0  0  0  0  0  0  0
   55.1073   30.9344   44.1156 H   0  0  0  0  0  0  0  0  0  0  0  0
   56.5200   29.4320   44.7840 C   0  0  0  0  0  0  0  0  0  0  0  0
   55.5200   28.5800   45.2410 O   0  0  0  0  0  0  0  0  0  0  0  0
   59.0020   27.7060   46.7070 C   0  0  0  0  0  0  0  0  0  0  0  0
   59.3550   28.9090   47.4340 C   0  0  0  0  0  0  0  0  0  0  0  0
   59.6370   29.8700   48.0140 N   0  0  0  0  0  0  0  0  0  0  0  0
  1  2  1  0
  2  3  2  0
  3  4  1  0
  4  5  1  0
  5  6  1  0
  6  7  2  0
  7  8  1  0
  7  9  1  0
  9 10  1  0
  9 11  2  0
 11 12  1  0
 11 13  1  0
 13 14  1  0
 13 15  2  0
 15 16  1  0
  5 17  2  0
 17 18  1  0
 17 19  1  0
 19 20  1  0
 20 21  2  0
 21 22  1  0
 21 23  1  0
 23 24  1  0
 23 25  2  0
 25 26  1  0
 25 27  1  0
 27 28  1  0
 27 29  2  0
 29 30  1  0
 19 31  2  0
 31 32  1  0
 32 33  3  0
 31  3  1  0
 15  6  1  0
 29 20  1  0
M  CHG  2   4  -1  30  -1
M  END
>  <UniqueID>  (88) 
78

>  <SMILES>  (88) 
[H]/N=c1\[n-]c(-c2ccccc2)cc(-c2ccccc2[O-])c1C#N

>  <Energy>  (88) 
49.64583821452779

>  <Genealogy>  (88) 
N#Cc1c(-c2ccccc2[O-])cc(-c2ccccc2)[n-]c1=N (protonated)
[H]/N=c1\[n-]c(-c2ccccc2)cc(-c2ccccc2[O-])c1C#N (cis-trans isomerization)
[H]/N=c1\[n-]c(-c2ccccc2)cc(-c2ccccc2[O-])c1C#N (3D coordinates assigned)
[H]/N=c1\[n-]c(-c2ccccc2)cc(-c2ccccc2[O-])c1C#N (optimized conformer: 49.64583821452779 kcal/mol)

>  <smiles>  (88) 
N#Cc1c(-c2ccccc2O)cc(-c2ccccc2)[nH]c1=N

>  <score_type>  (88) 
oracle

>  <origin>  (88) 
adg

>  <m_score__min__energy>  (88) 
-11.44

>  <m_primary>  (88) 
energy

$$$$
88:0
     RDKit          3D

 37 38  0  0  0  0  0  0  0  0999 V2000
   58.7610   27.2065   42.9469 H   0  0  0  0  0  0  0  0  0  0  0  0
   58.2670   27.7800   43.7450 C   0  0  0  0  0  0  0  0  0  0  0  0
   57.4110   28.7440   43.3880 C   0  0  0  0  0  0  0  0  0  0  0  0
   57.3193   28.9755   42.3166 H   0  0  0  0  0  0  0  0  0  0  0  0
   56.4190   29.6700   44.5150 S   0  0  0  0  0  0  0  0  0  0  0  0
   55.5490   30.6260   43.7530 O   0  0  0  0  0  0  0  0  0  0  0  0
   55.5230   28.7090   45.2430 O   0  0  0  0  0  0  0  0  0  0  0  0
   57.4080   30.4730   45.6990 N   0  0  0  0  0  0  0  0  0  0  0  0
   57.8810   31.8310   45.7050 C   0  0  0  0  0  0  0  0  0  0  0  0
   57.3310   32.8240   44.8720 C   0  0  0  0  0  0  0  0  0  0  0  0
   56.4948   32.5733   44.2027 H   0  0  0  0  0  0  0  0  0  0  0  0
   57.8390   34.1250   44.8890 C   0  0  0  0  0  0  0  0  0  0  0  0
   57.4027   34.8922   44.2324 H   0  0  0  0  0  0  0  0  0  0  0  0
   58.8970   34.4550   45.7350 C   0  0  0  0  0  0  0  0  0  0  0  0
   59.2904   35.4821   45.7508 H   0  0  0  0  0  0  0  0  0  0  0  0
   59.4560   33.4790   46.5620 C   0  0  0  0  0  0  0  0  0  0  0  0
   60.2866   33.7414   47.2337 H   0  0  0  0  0  0  0  0  0  0  0  0
   58.9650   32.1680   46.5410 C   0  0  0  0  0  0  0  0  0  0  0  0
   59.6990   30.9470   47.6420 S   0  0  0  0  0  0  0  0  0  0  0  0
   61.4280   31.2890   47.1590 C   0  0  0  0  0  0  0  0  0  0  0  0
   61.4428   32.1396   46.4617 H   0  0  0  0  0  0  0  0  0  0  0  0
   61.8387   30.3860   46.6838 H   0  0  0  0  0  0  0  0  0  0  0  0
   62.2890   31.6260   48.3690 C   0  0  0  0  0  0  0  0  0  0  0  0
   61.7289   31.4068   49.2900 H   0  0  0  0  0  0  0  0  0  0  0  0
   63.2074   31.0210   48.3455 H   0  0  0  0  0  0  0  0  0  0  0  0
   62.5526   32.6937   48.3455 H   0  0  0  0  0  0  0  0  0  0  0  0
   58.5880   27.4400   45.1400 C   0  0  0  0  0  0  0  0  0  0  0  0
   57.7090   26.6160   45.8580 C   0  0  0  0  0  0  0  0  0  0  0  0
   56.7826   26.2593   45.3842 H   0  0  0  0  0  0  0  0  0  0  0  0
   58.0050   26.2460   47.1730 C   0  0  0  0  0  0  0  0  0  0  0  0
   57.3011   25.6186   47.7395 H   0  0  0  0  0  0  0  0  0  0  0  0
   59.1950   26.6730   47.7680 C   0  0  0  0  0  0  0  0  0  0  0  0
   59.4260   26.3840   48.8039 H   0  0  0  0  0  0  0  0  0  0  0  0
   60.0920   27.4670   47.0480 C   0  0  0  0  0  0  0  0  0  0  0  0
   61.0334   27.7916   47.5153 H   0  0  0  0  0  0  0  0  0  0  0  0
   59.7970   27.8510   45.7340 C   0  0  0  0  0  0  0  0  0  0  0  0
   60.9580   28.8420   44.8580 Cl  0  0  0  0  0  0  0  0  0  0  0  0
  1  2  1  0
  2  3  2  0
  3  4  1  0
  3  5  1  0
  5  6  2  0
  5  7  2  0
  5  8  1  0
  8  9  1  0
  9 10  2  0
 10 11  1  0
 10 12  1  0
 12 13  1  0
 12 14  2  0
 14 15  1  0
 14 16  1  0
 16 17  1  0
 16 18  2  0
 18 19  1  0
 19 20  1  0
 20 21  1  0
 20 22  1  0
 20 23  1  0
 23 24  1  0
 23 25  1  0
 23 26  1  0
  2 27  1  0
 27 28  2  0
 28 29  1  0
 28 30  1  0
 30 31  1  0
 30 32  2  0
 32 33  1  0
 32 34  1  0
 34 35  1  0
 34 36  2  0
 36 37  1  0
 18  9  1  0
 36 27  1  0
M  CHG  1   8  -1
M  END
>  <UniqueID>  (89) 
79

>  <SMILES>  (89) 
CCSc1ccccc1[N-]S(=O)(=O)/C=C\c1ccccc1Cl

>  <Energy>  (89) 
43.19090921052799

>  <Genealogy>  (89) 
CCSc1ccccc1[N-]S(=O)(=O)C=Cc1ccccc1Cl (protonated)
CCSc1ccccc1[N-]S(=O)(=O)/C=C\c1ccccc1Cl (cis-trans isomerization)
CCSc1ccccc1[N-]S(=O)(=O)/C=C\c1ccccc1Cl (3D coordinates assigned)
CCSc1ccccc1[N-]S(=O)(=O)/C=C\c1ccccc1Cl (optimized conformer: 43.19090921052799 kcal/mol)

>  <smiles>  (89) 
CCSc1ccccc1NS(=O)(=O)C=Cc1ccccc1Cl

>  <score_type>  (89) 
oracle

>  <origin>  (89) 
adg

>  <m_score__min__energy>  (89) 
-9.6400000000000006

>  <m_primary>  (89) 
energy

$$$$
89:0
     RDKit          3D

 68 71  0  0  0  0  0  0  0  0999 V2000
   51.0460   22.7070   45.1620 C   0  0  0  0  0  0  0  0  0  0  0  0
   52.3960   22.2190   45.4100 N   0  0  0  0  0  0  0  0  0  0  0  0
   53.5430   23.0670   45.5420 C   0  0  0  0  0  0  0  0  0  0  0  0
   54.1750   23.0680   46.6310 O   0  0  0  0  0  0  0  0  0  0  0  0
   53.9610   23.9920   44.4330 C   0  0  0  0  0  0  0  0  0  0  0  0
   54.6530   23.2530   43.3790 N   0  0  0  0  0  0  0  0  0  0  0  0
   55.9670   22.6900   43.4950 C   0  0  0  0  0  0  0  0  0  0  0  0
   56.2110   21.6050   42.9000 O   0  0  0  0  0  0  0  0  0  0  0  0
   57.0520   23.3530   44.2510 C   0  0  0  0  0  0  0  0  0  0  0  0
   58.0610   22.6080   44.8810 C   0  0  0  0  0  0  0  0  0  0  0  0
   59.0840   23.2550   45.5830 C   0  0  0  0  0  0  0  0  0  0  0  0
   59.1260   24.6490   45.6360 C   0  0  0  0  0  0  0  0  0  0  0  0
   58.1530   25.4110   44.9650 C   0  0  0  0  0  0  0  0  0  0  0  0
   58.1540   26.8460   44.9750 N   0  0  0  0  0  0  0  0  0  0  0  0
   58.9120   27.7260   45.8170 C   0  0  0  0  0  0  0  0  0  0  0  0
   59.8130   27.2730   46.5720 O   0  0  0  0  0  0  0  0  0  0  0  0
   58.6850   29.1860   45.7250 C   0  0  0  0  0  0  0  0  0  0  0  0
   58.2680   29.7760   44.5180 C   0  0  0  0  0  0  0  0  0  0  0  0
   57.9410   31.1370   44.4680 C   0  0  0  0  0  0  0  0  0  0  0  0
   58.0580   31.9380   45.6160 C   0  0  0  0  0  0  0  0  0  0  0  0
   57.5800   33.3380   45.6330 C   0  0  0  0  0  0  0  0  0  0  0  0
   56.6080   33.6340   46.3770 O   0  0  0  0  0  0  0  0  0  0  0  0
   58.1750   34.3850   44.8550 N   0  0  0  0  0  0  0  0  0  0  0  0
   59.3920   35.1250   45.1650 C   0  0  0  0  0  0  0  0  0  0  0  0
   59.9400   34.5980   46.4610 C   0  0  0  0  0  0  0  0  0  0  0  0
   59.3310   34.9350   47.6800 C   0  0  0  0  0  0  0  0  0  0  0  0
   59.9310   34.5820   48.8940 C   0  0  0  0  0  0  0  0  0  0  0  0
   61.1490   33.8790   48.9080 C   0  0  0  0  0  0  0  0  0  0  0  0
   61.8380   33.5740   50.1860 C   0  0  0  0  0  0  0  0  0  0  0  0
   63.0730   33.7960   50.2950 O   0  0  0  0  0  0  0  0  0  0  0  0
   61.1260   33.0940   51.3340 N   0  0  0  0  0  0  0  0  0  0  0  0
   59.8070   32.5220   51.3260 C   0  0  0  0  0  0  0  0  0  0  0  0
   59.5910   31.2130   50.8510 C   0  0  0  0  0  0  0  0  0  0  0  0
   58.3130   30.6510   50.8850 C   0  0  0  0  0  0  0  0  0  0  0  0
   57.2440   31.3790   51.4100 C   0  0  0  0  0  0  0  0  0  0  0  0
   57.4480   32.6730   51.8960 C   0  0  0  0  0  0  0  0  0  0  0  0
   58.7280   33.2490   51.8670 C   0  0  0  0  0  0  0  0  0  0  0  0
   58.9150   34.5780   52.3710 N   0  0  0  0  0  0  0  0  0  0  0  0
   61.7530   33.5380   47.6850 C   0  0  0  0  0  0  0  0  0  0  0  0
   61.1540   33.9000   46.4730 C   0  0  0  0  0  0  0  0  0  0  0  0
   58.5110   31.3550   46.8110 C   0  0  0  0  0  0  0  0  0  0  0  0
   58.8190   29.9950   46.8660 C   0  0  0  0  0  0  0  0  0  0  0  0
   57.1140   24.7560   44.2890 C   0  0  0  0  0  0  0  0  0  0  0  0
   50.5402   22.8899   46.1215 H   0  0  0  0  0  0  0  0  0  0  0  0
   51.0946   23.6445   44.5886 H   0  0  0  0  0  0  0  0  0  0  0  0
   50.4839   21.9552   44.5886 H   0  0  0  0  0  0  0  0  0  0  0  0
   53.0681   24.4748   44.0093 H   0  0  0  0  0  0  0  0  0  0  0  0
   54.6455   24.7495   44.8425 H   0  0  0  0  0  0  0  0  0  0  0  0
   58.0475   21.5096   44.8226 H   0  0  0  0  0  0  0  0  0  0  0  0
   59.8573   22.6632   46.0946 H   0  0  0  0  0  0  0  0  0  0  0  0
   59.9220   25.1528   46.2039 H   0  0  0  0  0  0  0  0  0  0  0  0
   58.1982   29.1639   43.6067 H   0  0  0  0  0  0  0  0  0  0  0  0
   57.5906   31.5811   43.5246 H   0  0  0  0  0  0  0  0  0  0  0  0
   60.1303   34.9820   44.3622 H   0  0  0  0  0  0  0  0  0  0  0  0
   59.1735   36.1996   45.2519 H   0  0  0  0  0  0  0  0  0  0  0  0
   58.3757   35.4803   47.6810 H   0  0  0  0  0  0  0  0  0  0  0  0
   59.4470   34.8560   49.8430 H   0  0  0  0  0  0  0  0  0  0  0  0
   60.4340   30.6304   50.4511 H   0  0  0  0  0  0  0  0  0  0  0  0
   58.1488   29.6345   50.4980 H   0  0  0  0  0  0  0  0  0  0  0  0
   56.2389   30.9331   51.4412 H   0  0  0  0  0  0  0  0  0  0  0  0
   56.6007   33.2438   52.3037 H   0  0  0  0  0  0  0  0  0  0  0  0
   59.8130   34.8550   52.8240 H   0  0  0  0  0  0  0  0  0  0  0  0
   58.1900   35.3180   52.2470 H   0  0  0  0  0  0  0  0  0  0  0  0
   62.7027   32.9830   47.6807 H   0  0  0  0  0  0  0  0  0  0  0  0
   61.6404   33.6343   45.5228 H   0  0  0  0  0  0  0  0  0  0  0  0
   58.6240   31.9762   47.7118 H   0  0  0  0  0  0  0  0  0  0  0  0
   59.1695   29.5528   47.8102 H   0  0  0  0  0  0  0  0  0  0  0  0
   56.3377   25.3479   43.7821 H   0  0  0  0  0  0  0  0  0  0  0  0
  1  2  1  0
  2  3  1  0
  3  4  2  0
  3  5  1  0
  5  6  1  0
  6  7  1  0
  7  8  2  0
  7  9  1  0
  9 10  2  0
 10 11  1  0
 11 12  2  0
 12 13  1  0
 13 14  1  0
 14 15  1  0
 15 16  2  0
 15 17  1  0
 17 18  2  0
 18 19  1  0
 19 20  2  0
 20 21  1  0
 21 22  2  0
 21 23  1  0
 23 24  1  0
 24 25  1  0
 25 26  2  0
 26 27  1  0
 27 28  2  0
 28 29  1  0
 29 30  2  0
 29 31  1  0
 31 32  1  0
 32 33  2  0
 33 34  1  0
 34 35  2  0
 35 36  1  0
 36 37  2  0
 37 38  1  0
 28 39  1  0
 39 40  2  0
 20 41  1  0
 41 42  2  0
 13 43  2  0
 43  9  1  0
 42 17  1  0
 40 25  1  0
 37 32  1  0
  1 44  1  0
  1 45  1  0
  1 46  1  0
  5 47  1  0
  5 48  1  0
 10 49  1  0
 11 50  1  0
 12 51  1  0
 18 52  1  0
 19 53  1  0
 24 54  1  0
 24 55  1  0
 26 56  1  0
 27 57  1  0
 33 58  1  0
 34 59  1  0
 35 60  1  0
 36 61  1  0
 38 62  1  0
 38 63  1  0
 39 64  1  0
 40 65  1  0
 41 66  1  0
 42 67  1  0
 43 68  1  0
M  CHG  5   2  -1   6  -1  14  -1  23  -1  31  -1
M  END
>  <UniqueID>  (90) 
80

>  <SMILES>  (90) 
C[N-]C(=O)C[N-]C(=O)c1cccc([N-]C(=O)c2ccc(C(=O)[N-]Cc3ccc(C(=O)[N-]c4ccccc4N)cc3)cc2)c1

>  <Energy>  (90) 
91.1752346681071

>  <Genealogy>  (90) 
C[N-]C(=O)C[N-]C(=O)c1cccc([N-]C(=O)c2ccc(C(=O)[N-]Cc3ccc(C(=O)[N-]c4ccccc4N)cc3)cc2)c1 (protonated)
C[N-]C(=O)C[N-]C(=O)c1cccc([N-]C(=O)c2ccc(C(=O)[N-]Cc3ccc(C(=O)[N-]c4ccccc4N)cc3)cc2)c1 (3D coordinates assigned)
C[N-]C(=O)C[N-]C(=O)c1cccc([N-]C(=O)c2ccc(C(=O)[N-]Cc3ccc(C(=O)[N-]c4ccccc4N)cc3)cc2)c1 (optimized conformer: 91.1752346681071 kcal/mol)

>  <smiles>  (90) 
CNC(=O)CNC(=O)c1cccc(NC(=O)c2ccc(C(=O)NCc3ccc(C(=O)Nc4ccccc4N)cc3)cc2)c1

>  <score_type>  (90) 
oracle

>  <origin>  (90) 
adg

>  <m_score__min__energy>  (90) 
-18.710000000000001

>  <m_primary>  (90) 
energy

$$$$
90:0
     RDKit          3D

 60 63  0  0  0  0  0  0  0  0999 V2000
   64.8790   33.0590   47.6890 H   0  0  0  0  0  0  0  0  0  0  0  0
   64.5110   33.2820   48.6390 N   0  0  0  0  0  0  0  0  0  0  0  0
   63.1550   33.6840   48.8190 C   0  0  0  0  0  0  0  0  0  0  0  0
   62.8960   34.7240   49.4800 O   0  0  0  0  0  0  0  0  0  0  0  0
   62.0710   32.8880   48.2170 C   0  0  0  0  0  0  0  0  0  0  0  0
   60.8900   33.3430   47.6470 C   0  0  0  0  0  0  0  0  0  0  0  0
   60.2470   32.2420   47.1390 C   0  0  0  0  0  0  0  0  0  0  0  0
   60.9580   31.1210   47.3960 N   0  0  0  0  0  0  0  0  0  0  0  0
   60.6390   29.7490   47.0050 C   0  0  0  0  0  0  0  0  0  0  0  0
   60.4962   29.1347   47.9062 H   0  0  0  0  0  0  0  0  0  0  0  0
   59.7156   29.7434   46.4073 H   0  0  0  0  0  0  0  0  0  0  0  0
   61.4652   29.3366   46.4073 H   0  0  0  0  0  0  0  0  0  0  0  0
   62.0700   31.5110   48.0570 C   0  0  0  0  0  0  0  0  0  0  0  0
   62.8595   30.8344   48.4159 H   0  0  0  0  0  0  0  0  0  0  0  0
   58.9960   32.3700   46.3740 C   0  0  0  0  0  0  0  0  0  0  0  0
   58.4830   31.3340   45.6630 N   0  0  0  0  0  0  0  0  0  0  0  0
   57.3570   31.4780   44.9190 C   0  0  0  0  0  0  0  0  0  0  0  0
   56.9040   30.4550   44.2550 N   0  0  0  0  0  0  0  0  0  0  0  0
   57.1700   29.0650   44.5090 C   0  0  0  0  0  0  0  0  0  0  0  0
   58.0850   28.4000   43.6870 C   0  0  0  0  0  0  0  0  0  0  0  0
   58.6165   28.9549   42.8999 H   0  0  0  0  0  0  0  0  0  0  0  0
   58.3280   27.0370   43.8590 C   0  0  0  0  0  0  0  0  0  0  0  0
   59.0735   26.5289   43.2296 H   0  0  0  0  0  0  0  0  0  0  0  0
   57.6280   26.3170   44.8270 C   0  0  0  0  0  0  0  0  0  0  0  0
   57.8333   25.2451   44.9645 H   0  0  0  0  0  0  0  0  0  0  0  0
   56.6660   26.9480   45.6250 C   0  0  0  0  0  0  0  0  0  0  0  0
   55.9430   26.1410   46.5700 N   0  0  0  0  0  0  0  0  0  0  0  0
   55.8400   24.7120   46.6410 C   0  0  0  0  0  0  0  0  0  0  0  0
   54.7520   24.1160   46.4070 O   0  0  0  0  0  0  0  0  0  0  0  0
   57.0540   23.9130   47.0140 C   0  0  0  0  0  0  0  0  0  0  0  0
   57.7786   24.5719   47.5147 H   0  0  0  0  0  0  0  0  0  0  0  0
   57.4895   23.4879   46.0977 H   0  0  0  0  0  0  0  0  0  0  0  0
   56.6860   22.7670   47.9560 C   0  0  0  0  0  0  0  0  0  0  0  0
   55.5965   22.6163   47.9374 H   0  0  0  0  0  0  0  0  0  0  0  0
   57.0115   23.0206   48.9757 H   0  0  0  0  0  0  0  0  0  0  0  0
   57.3510   21.5370   47.5340 N   0  0  0  0  0  0  0  0  0  0  0  0
   57.6660   21.2230   46.1730 C   0  0  0  0  0  0  0  0  0  0  0  0
   58.7610   21.6280   45.6970 O   0  0  0  0  0  0  0  0  0  0  0  0
   56.6940   20.4670   45.3040 C   0  0  0  0  0  0  0  0  0  0  0  0
   56.0525   19.8400   45.9407 H   0  0  0  0  0  0  0  0  0  0  0  0
   57.2619   19.8408   44.6002 H   0  0  0  0  0  0  0  0  0  0  0  0
   55.8600   21.3870   44.5440 N   0  0  0  0  0  0  0  0  0  0  0  0
   56.3540   22.1390   43.4250 C   0  0  0  0  0  0  0  0  0  0  0  0
   56.2230   21.7030   42.2500 O   0  0  0  0  0  0  0  0  0  0  0  0
   56.9890   23.4670   43.6580 C   0  0  0  0  0  0  0  0  0  0  0  0
   57.0753   23.6474   44.7397 H   0  0  0  0  0  0  0  0  0  0  0  0
   57.9905   23.4794   43.2032 H   0  0  0  0  0  0  0  0  0  0  0  0
   56.3699   24.2543   43.2032 H   0  0  0  0  0  0  0  0  0  0  0  0
   56.4530   28.3340   45.4760 C   0  0  0  0  0  0  0  0  0  0  0  0
   55.7226   28.8472   46.1188 H   0  0  0  0  0  0  0  0  0  0  0  0
   56.7100   32.6770   44.9040 N   0  0  0  0  0  0  0  0  0  0  0  0
   57.1840   33.7430   45.5990 C   0  0  0  0  0  0  0  0  0  0  0  0
   56.6396   34.6986   45.5790 H   0  0  0  0  0  0  0  0  0  0  0  0
   58.3640   33.6260   46.3400 C   0  0  0  0  0  0  0  0  0  0  0  0
   58.8710   34.7760   47.1970 C   0  0  0  0  0  0  0  0  0  0  0  0
   58.5988   35.7235   46.7090 H   0  0  0  0  0  0  0  0  0  0  0  0
   58.4063   34.6772   48.1891 H   0  0  0  0  0  0  0  0  0  0  0  0
   60.4050   34.7480   47.3990 C   0  0  0  0  0  0  0  0  0  0  0  0
   60.8942   35.1437   46.4967 H   0  0  0  0  0  0  0  0  0  0  0  0
   60.6552   35.3654   48.2743 H   0  0  0  0  0  0  0  0  0  0  0  0
  1  2  1  0
  2  3  1  0
  3  4  2  0
  3  5  1  0
  5  6  1  0
  6  7  2  0
  7  8  1  0
  8  9  1  0
  9 10  1  0
  9 11  1  0
  9 12  1  0
  8 13  1  0
 13 14  1  0
  7 15  1  0
 15 16  2  0
 16 17  1  0
 17 18  2  0
 18 19  1  0
 19 20  2  0
 20 21  1  0
 20 22  1  0
 22 23  1  0
 22 24  2  0
 24 25  1  0
 24 26  1  0
 26 27  1  0
 27 28  1  0
 28 29  2  0
 28 30  1  0
 30 31  1  0
 30 32  1  0
 30 33  1  0
 33 34  1  0
 33 35  1  0
 33 36  1  0
 36 37  1  0
 37 38  2  0
 37 39  1  0
 39 40  1  0
 39 41  1  0
 39 42  1  0
 42 43  1  0
 43 44  2  0
 43 45  1  0
 45 46  1  0
 45 47  1  0
 45 48  1  0
 26 49  2  0
 49 50  1  0
 17 51  1  0
 51 52  1  0
 52 53  1  0
 52 54  2  0
 54 55  1  0
 55 56  1  0
 55 57  1  0
 55 58  1  0
 58 59  1  0
 58 60  1  0
 13  5  2  0
 54 15  1  0
 58  6  1  0
 49 19  1  0
M  CHG  5   2  -1  27  -1  36  -1  42  -1  51  -1
M  END
>  <UniqueID>  (91) 
81

>  <SMILES>  (91) 
CC(=O)[N-]CC(=O)[N-]CCC(=O)[N-]c1cccc(/N=c2/nc3c(c[n-]2)CCc2c(C([NH-])=O)cn(C)c2-3)c1

>  <Energy>  (91) 
96.65562911339563

>  <Genealogy>  (91) 
CC(=O)[N-]CC(=O)[N-]CCC(=O)[N-]c1cccc(N=c2nc3c(c[n-]2)CCc2c(C([NH-])=O)cn(C)c2-3)c1 (protonated)
CC(=O)[N-]CC(=O)[N-]CCC(=O)[N-]c1cccc(/N=c2/nc3c(c[n-]2)CCc2c(C([NH-])=O)cn(C)c2-3)c1 (cis-trans isomerization)
CC(=O)[N-]CC(=O)[N-]CCC(=O)[N-]c1cccc(/N=c2/nc3c(c[n-]2)CCc2c(C([NH-])=O)cn(C)c2-3)c1 (3D coordinates assigned)
CC(=O)[N-]CC(=O)[N-]CCC(=O)[N-]c1cccc(/N=c2/nc3c(c[n-]2)CCc2c(C([NH-])=O)cn(C)c2-3)c1 (nonaromatic ring conformer: 96.65562911339563 kcal/mol)

>  <smiles>  (91) 
CC(=O)NCC(=O)NCCC(=O)Nc1cccc(N=c2nc3c(c[nH]2)CCc2c(C(N)=O)cn(C)c2-3)c1

>  <score_type>  (91) 
oracle

>  <origin>  (91) 
adg

>  <m_score__min__energy>  (91) 
-19.219999999999999

>  <m_primary>  (91) 
energy

$$$$
91:0
     RDKit          3D

 45 48  0  0  0  0  0  0  0  0999 V2000
   59.3950   34.7120   47.7570 C   0  0  0  0  0  0  0  0  0  0  0  0
   59.8770   34.5330   49.0840 O   0  0  0  0  0  0  0  0  0  0  0  0
   60.2140   33.2920   49.6480 C   0  0  0  0  0  0  0  0  0  0  0  0
   61.2450   32.4910   49.1240 C   0  0  0  0  0  0  0  0  0  0  0  0
   61.5560   31.2690   49.7170 C   0  0  0  0  0  0  0  0  0  0  0  0
   60.8320   30.8200   50.8200 C   0  0  0  0  0  0  0  0  0  0  0  0
   59.7930   31.5960   51.3570 C   0  0  0  0  0  0  0  0  0  0  0  0
   59.5010   32.8570   50.7770 C   0  0  0  0  0  0  0  0  0  0  0  0
   58.5180   33.7130   51.3020 O   0  0  0  0  0  0  0  0  0  0  0  0
   57.5840   33.3380   52.3120 C   0  0  0  0  0  0  0  0  0  0  0  0
   58.2620   33.0790   53.6570 C   0  0  0  0  0  0  0  0  0  0  0  0
   58.9650   31.7200   53.7230 C   0  0  0  0  0  0  0  0  0  0  0  0
   58.9730   31.0630   52.4150 N   0  0  0  0  0  0  0  0  0  0  0  0
   57.9430   29.6860   52.1460 S   0  0  0  0  0  0  0  0  0  0  0  0
   57.8490   29.4180   50.6700 O   0  0  0  0  0  0  0  0  0  0  0  0
   58.5290   28.4780   52.8230 O   0  0  0  0  0  0  0  0  0  0  0  0
   56.3440   30.0010   52.7920 C   0  0  0  0  0  0  0  0  0  0  0  0
   55.8890   29.6310   54.0490 C   0  0  0  0  0  0  0  0  0  0  0  0
   54.5630   30.0130   54.2830 C   0  0  0  0  0  0  0  0  0  0  0  0
   53.9910   30.6900   53.2130 C   0  0  0  0  0  0  0  0  0  0  0  0
   52.5730   31.1570   53.1320 C   0  0  0  0  0  0  0  0  0  0  0  0
   52.1050   31.1310   51.7110 C   0  0  0  0  0  0  0  0  0  0  0  0
   52.2730   29.8250   50.6590 S   0  0  0  0  0  0  0  0  0  0  0  0
   51.4320   30.6050   49.4290 C   0  0  0  0  0  0  0  0  0  0  0  0
   51.2110   30.1070   48.2950 O   0  0  0  0  0  0  0  0  0  0  0  0
   51.0060   31.8340   49.7880 N   0  0  0  0  0  0  0  0  0  0  0  0
   51.3750   32.1240   51.0630 C   0  0  0  0  0  0  0  0  0  0  0  0
   51.0360   33.3300   51.6640 O   0  0  0  0  0  0  0  0  0  0  0  0
   55.1160   30.7940   51.9630 S   0  0  0  0  0  0  0  0  0  0  0  0
   58.3643   35.0948   47.7898 H   0  0  0  0  0  0  0  0  0  0  0  0
   60.0368   35.4317   47.2278 H   0  0  0  0  0  0  0  0  0  0  0  0
   59.4114   33.7478   47.2278 H   0  0  0  0  0  0  0  0  0  0  0  0
   61.8081   32.8309   48.2423 H   0  0  0  0  0  0  0  0  0  0  0  0
   62.3757   30.6566   49.3132 H   0  0  0  0  0  0  0  0  0  0  0  0
   61.0771   29.8485   51.2739 H   0  0  0  0  0  0  0  0  0  0  0  0
   56.8507   34.1486   52.4351 H   0  0  0  0  0  0  0  0  0  0  0  0
   57.0982   32.4041   51.9931 H   0  0  0  0  0  0  0  0  0  0  0  0
   59.0084   33.8682   53.8306 H   0  0  0  0  0  0  0  0  0  0  0  0
   57.4758   33.0796   54.4264 H   0  0  0  0  0  0  0  0  0  0  0  0
   60.0028   31.8689   54.0559 H   0  0  0  0  0  0  0  0  0  0  0  0
   58.4182   31.0795   54.4307 H   0  0  0  0  0  0  0  0  0  0  0  0
   56.5056   29.0938   54.7847 H   0  0  0  0  0  0  0  0  0  0  0  0
   54.0276   29.7988   55.2197 H   0  0  0  0  0  0  0  0  0  0  0  0
   51.9364   30.4948   53.7372 H   0  0  0  0  0  0  0  0  0  0  0  0
   52.5101   32.1867   53.5137 H   0  0  0  0  0  0  0  0  0  0  0  0
  1  2  1  0
  2  3  1  0
  3  4  2  0
  4  5  1  0
  5  6  2  0
  6  7  1  0
  7  8  2  0
  8  9  1  0
  9 10  1  0
 10 11  1  0
 11 12  1  0
 12 13  1  0
 13 14  1  0
 14 15  2  0
 14 16  2  0
 14 17  1  0
 17 18  2  0
 18 19  1  0
 19 20  2  0
 20 21  1  0
 21 22  1  0
 22 23  1  0
 23 24  1  0
 24 25  2  0
 24 26  1  0
 26 27  1  0
 27 28  1  0
 20 29  1  0
  8  3  1  0
 29 17  1  0
 13  7  1  0
 27 22  2  0
  1 30  1  0
  1 31  1  0
  1 32  1  0
  4 33  1  0
  5 34  1  0
  6 35  1  0
 10 36  1  0
 10 37  1  0
 11 38  1  0
 11 39  1  0
 12 40  1  0
 12 41  1  0
 18 42  1  0
 19 43  1  0
 21 44  1  0
 21 45  1  0
M  CHG  2  26  -1  28  -1
M  END
>  <UniqueID>  (92) 
82

>  <SMILES>  (92) 
COc1cccc2c1OCCCN2S(=O)(=O)c1ccc(Cc2sc(=O)[n-]c2[O-])s1

>  <Energy>  (92) 
110.3723958012015

>  <Genealogy>  (92) 
COc1cccc2c1OCCCN2S(=O)(=O)c1ccc(Cc2sc(=O)[n-]c2[O-])s1 (protonated)
COc1cccc2c1OCCCN2S(=O)(=O)c1ccc(Cc2sc(=O)[n-]c2[O-])s1 (3D coordinates assigned)
COc1cccc2c1OCCCN2S(=O)(=O)c1ccc(Cc2sc(=O)[n-]c2[O-])s1 (nonaromatic ring conformer: 110.3723958012015 kcal/mol)

>  <smiles>  (92) 
COc1cccc2c1OCCCN2S(=O)(=O)c1ccc(Cc2sc(=O)[nH]c2O)s1

>  <score_type>  (92) 
oracle

>  <origin>  (92) 
adg

>  <m_score__min__energy>  (92) 
-12.619999999999999

>  <m_primary>  (92) 
energy

$$$$
92:0
     RDKit          3D

 68 71  0  0  0  0  0  0  0  0999 V2000
   57.9089   31.7254   50.6598 H   0  0  0  0  0  0  0  0  0  0  0  0
   58.9160   31.4010   50.3590 C   0  0  0  0  0  0  0  0  0  0  0  0
   59.0810   30.6100   49.2150 C   0  0  0  0  0  0  0  0  0  0  0  0
   58.2014   30.2971   48.6333 H   0  0  0  0  0  0  0  0  0  0  0  0
   60.3660   30.2150   48.8080 C   0  0  0  0  0  0  0  0  0  0  0  0
   60.5640   29.2720   47.6850 C   0  0  0  0  0  0  0  0  0  0  0  0
   61.0180   29.6990   46.5850 O   0  0  0  0  0  0  0  0  0  0  0  0
   60.3110   27.8720   47.8560 N   0  0  0  0  0  0  0  0  0  0  0  0
   59.3780   27.1260   47.0110 C   0  0  0  0  0  0  0  0  0  0  0  0
   58.6524   26.6080   47.6554 H   0  0  0  0  0  0  0  0  0  0  0  0
   59.9612   26.4114   46.4116 H   0  0  0  0  0  0  0  0  0  0  0  0
   58.6130   28.0450   46.0410 C   0  0  0  0  0  0  0  0  0  0  0  0
   58.9632   27.8619   45.0144 H   0  0  0  0  0  0  0  0  0  0  0  0
   58.7970   29.0933   46.3190 H   0  0  0  0  0  0  0  0  0  0  0  0
   57.1790   27.7760   46.1170 N   0  0  0  0  0  0  0  0  0  0  0  0
   56.6250   26.6220   45.8760 C   0  0  0  0  0  0  0  0  0  0  0  0
   55.3580   26.3470   46.2970 N   0  0  0  0  0  0  0  0  0  0  0  0
   54.7570   25.1950   45.9940 N   0  0  0  0  0  0  0  0  0  0  0  0
   55.3750   24.2420   45.2460 C   0  0  0  0  0  0  0  0  0  0  0  0
   54.6610   22.9630   44.9260 C   0  0  0  0  0  0  0  0  0  0  0  0
   54.3785   22.4570   45.8609 H   0  0  0  0  0  0  0  0  0  0  0  0
   53.7561   23.1846   44.3411 H   0  0  0  0  0  0  0  0  0  0  0  0
   55.3246   22.3091   44.3411 H   0  0  0  0  0  0  0  0  0  0  0  0
   56.6890   24.4550   44.8260 C   0  0  0  0  0  0  0  0  0  0  0  0
   57.2207   23.6829   44.2505 H   0  0  0  0  0  0  0  0  0  0  0  0
   57.3210   25.6580   45.1440 C   0  0  0  0  0  0  0  0  0  0  0  0
   58.3560   25.8447   44.8215 H   0  0  0  0  0  0  0  0  0  0  0  0
   61.4790   30.6590   49.5430 C   0  0  0  0  0  0  0  0  0  0  0  0
   62.4924   30.4240   49.1854 H   0  0  0  0  0  0  0  0  0  0  0  0
   61.3180   31.3980   50.7270 C   0  0  0  0  0  0  0  0  0  0  0  0
   62.5170   31.7380   51.5730 C   0  0  0  0  0  0  0  0  0  0  0  0
   62.2174   31.7974   52.6297 H   0  0  0  0  0  0  0  0  0  0  0  0
   63.2850   30.9590   51.4577 H   0  0  0  0  0  0  0  0  0  0  0  0
   63.0530   33.0230   51.1450 N   0  0  0  0  0  0  0  0  0  0  0  0
   63.3480   33.3710   49.7890 C   0  0  0  0  0  0  0  0  0  0  0  0
   64.5460   33.4480   49.4090 O   0  0  0  0  0  0  0  0  0  0  0  0
   62.2390   33.6490   48.8470 C   0  0  0  0  0  0  0  0  0  0  0  0
   61.0240   34.1730   49.3200 C   0  0  0  0  0  0  0  0  0  0  0  0
   60.8810   34.3277   50.3996 H   0  0  0  0  0  0  0  0  0  0  0  0
   59.9970   34.4990   48.4330 C   0  0  0  0  0  0  0  0  0  0  0  0
   59.0515   34.9083   48.8183 H   0  0  0  0  0  0  0  0  0  0  0  0
   60.1630   34.3080   47.0530 C   0  0  0  0  0  0  0  0  0  0  0  0
   59.0770   34.7360   46.0980 C   0  0  0  0  0  0  0  0  0  0  0  0
   58.1116   34.3698   46.4774 H   0  0  0  0  0  0  0  0  0  0  0  0
   59.1035   35.8341   46.0386 H   0  0  0  0  0  0  0  0  0  0  0  0
   59.2850   34.1870   44.6620 C   0  0  0  0  0  0  0  0  0  0  0  0
   58.7281   34.8298   43.9644 H   0  0  0  0  0  0  0  0  0  0  0  0
   60.3697   34.1922   44.4791 H   0  0  0  0  0  0  0  0  0  0  0  0
   58.8320   32.7920   44.4670 N   0  0  0  0  0  0  0  0  0  0  0  0
   57.4670   32.6900   43.9150 C   0  0  0  0  0  0  0  0  0  0  0  0
   56.7800   33.2956   44.5243 H   0  0  0  0  0  0  0  0  0  0  0  0
   57.4647   33.0589   42.8787 H   0  0  0  0  0  0  0  0  0  0  0  0
   57.0080   31.2210   43.9340 C   0  0  0  0  0  0  0  0  0  0  0  0
   55.9784   31.1801   43.5489 H   0  0  0  0  0  0  0  0  0  0  0  0
   57.7280   30.6657   43.3149 H   0  0  0  0  0  0  0  0  0  0  0  0
   57.0250   30.6020   45.2170 O   0  0  0  0  0  0  0  0  0  0  0  0
   57.7780   31.3090   46.1890 C   0  0  0  0  0  0  0  0  0  0  0  0
   57.1630   32.1337   46.5783 H   0  0  0  0  0  0  0  0  0  0  0  0
   58.0511   30.5948   46.9798 H   0  0  0  0  0  0  0  0  0  0  0  0
   59.0850   31.8950   45.6220 C   0  0  0  0  0  0  0  0  0  0  0  0
   59.5911   32.4676   46.4132 H   0  0  0  0  0  0  0  0  0  0  0  0
   59.7117   31.0601   45.2754 H   0  0  0  0  0  0  0  0  0  0  0  0
   61.3770   33.7840   46.5760 C   0  0  0  0  0  0  0  0  0  0  0  0
   61.5217   33.6373   45.4955 H   0  0  0  0  0  0  0  0  0  0  0  0
   62.4020   33.4480   47.4660 C   0  0  0  0  0  0  0  0  0  0  0  0
   63.3417   33.0237   47.0825 H   0  0  0  0  0  0  0  0  0  0  0  0
   60.0280   31.7810   51.1220 C   0  0  0  0  0  0  0  0  0  0  0  0
   59.8888   32.3813   52.0332 H   0  0  0  0  0  0  0  0  0  0  0  0
  1  2  1  0
  2  3  2  0
  3  4  1  0
  3  5  1  0
  5  6  1  0
  6  7  2  0
  6  8  1  0
  8  9  1  0
  9 10  1  0
  9 11  1  0
  9 12  1  0
 12 13  1  0
 12 14  1  0
 12 15  1  0
 15 16  2  0
 16 17  1  0
 17 18  1  0
 18 19  2  0
 19 20  1  0
 20 21  1  0
 20 22  1  0
 20 23  1  0
 19 24  1  0
 24 25  1  0
 24 26  2  0
 26 27  1  0
  5 28  2  0
 28 29  1  0
 28 30  1  0
 30 31  1  0
 31 32  1  0
 31 33  1  0
 31 34  1  0
 34 35  1  0
 35 36  2  0
 35 37  1  0
 37 38  2  0
 38 39  1  0
 38 40  1  0
 40 41  1  0
 40 42  2  0
 42 43  1  0
 43 44  1  0
 43 45  1  0
 43 46  1  0
 46 47  1  0
 46 48  1  0
 46 49  1  0
 49 50  1  0
 50 51  1  0
 50 52  1  0
 50 53  1  0
 53 54  1  0
 53 55  1  0
 53 56  1  0
 56 57  1  0
 57 58  1  0
 57 59  1  0
 57 60  1  0
 60 61  1  0
 60 62  1  0
 42 63  1  0
 63 64  1  0
 63 65  2  0
 65 66  1  0
 30 67  2  0
 67 68  1  0
 67  2  1  0
 26 16  1  0
 65 37  1  0
 60 49  1  0
M  CHG  3   8  -1  17  -1  34  -1
M  END
>  <UniqueID>  (93) 
83

>  <SMILES>  (93) 
Cc1cc/c(=N/CC[N-]C(=O)c2cccc(C[N-]C(=O)c3ccc(CCN4CCOCC4)cc3)c2)[n-]n1

>  <Energy>  (93) 
89.92403804442341

>  <Genealogy>  (93) 
Cc1ccc(=NCC[N-]C(=O)c2cccc(C[N-]C(=O)c3ccc(CCN4CCOCC4)cc3)c2)[n-]n1 (protonated)
Cc1cc/c(=N/CC[N-]C(=O)c2cccc(C[N-]C(=O)c3ccc(CCN4CCOCC4)cc3)c2)[n-]n1 (cis-trans isomerization)
Cc1cc/c(=N/CC[N-]C(=O)c2cccc(C[N-]C(=O)c3ccc(CCN4CCOCC4)cc3)c2)[n-]n1 (3D coordinates assigned)
Cc1cc/c(=N/CC[N-]C(=O)c2cccc(C[N-]C(=O)c3ccc(CCN4CCOCC4)cc3)c2)[n-]n1 (nonaromatic ring conformer: 89.92403804442341 kcal/mol)

>  <smiles>  (93) 
Cc1ccc(=NCCNC(=O)c2cccc(CNC(=O)c3ccc(CCN4CCOCC4)cc3)c2)[nH]n1

>  <score_type>  (93) 
oracle

>  <origin>  (93) 
adg

>  <m_score__min__energy>  (93) 
-14.27

>  <m_primary>  (93) 
energy

$$$$
93:0
     RDKit          3D

 53 57  0  0  0  0  0  0  0  0999 V2000
   63.1243   30.5951   50.2753 H   0  0  0  0  0  0  0  0  0  0  0  0
   62.4130   31.3050   49.8280 C   0  0  0  0  0  0  0  0  0  0  0  0
   61.1750   31.3160   50.2240 N   0  0  0  0  0  0  0  0  0  0  0  0
   60.6200   32.1310   51.2690 C   0  0  0  0  0  0  0  0  0  0  0  0
   61.4350   32.6450   52.3010 C   0  0  0  0  0  0  0  0  0  0  0  0
   62.4650   32.2767   52.4164 H   0  0  0  0  0  0  0  0  0  0  0  0
   60.9460   33.6160   53.1760 C   0  0  0  0  0  0  0  0  0  0  0  0
   61.5732   33.9769   54.0045 H   0  0  0  0  0  0  0  0  0  0  0  0
   59.6640   34.1270   52.9990 C   0  0  0  0  0  0  0  0  0  0  0  0
   59.2919   34.9217   53.6623 H   0  0  0  0  0  0  0  0  0  0  0  0
   58.8510   33.6310   51.9800 C   0  0  0  0  0  0  0  0  0  0  0  0
   57.8583   34.0745   51.8134 H   0  0  0  0  0  0  0  0  0  0  0  0
   59.2830   32.5730   51.1640 C   0  0  0  0  0  0  0  0  0  0  0  0
   58.1590   31.9610   49.8730 S   0  0  0  0  0  0  0  0  0  0  0  0
   58.8700   32.7650   48.3830 C   0  0  0  0  0  0  0  0  0  0  0  0
   59.5470   33.9920   48.5650 C   0  0  0  0  0  0  0  0  0  0  0  0
   59.6475   34.4039   49.5800 H   0  0  0  0  0  0  0  0  0  0  0  0
   60.0890   34.6910   47.4930 C   0  0  0  0  0  0  0  0  0  0  0  0
   60.5813   35.6603   47.6606 H   0  0  0  0  0  0  0  0  0  0  0  0
   60.0090   34.1660   46.2120 C   0  0  0  0  0  0  0  0  0  0  0  0
   60.4010   34.7384   45.3584 H   0  0  0  0  0  0  0  0  0  0  0  0
   59.4340   32.9170   46.0050 C   0  0  0  0  0  0  0  0  0  0  0  0
   59.3902   32.5094   44.9843 H   0  0  0  0  0  0  0  0  0  0  0  0
   58.9050   32.1590   47.0720 C   0  0  0  0  0  0  0  0  0  0  0  0
   58.4440   30.8040   46.7500 N   0  0  1  0  0  0  0  0  0  0  0  0
   57.6930   30.5730   47.4440 H   0  0  0  0  0  0  0  0  0  0  0  0
   57.7380   30.6760   45.4880 C   0  0  0  0  0  0  0  0  0  0  0  0
   57.0160   31.6210   45.0630 O   0  0  0  0  0  0  0  0  0  0  0  0
   57.6540   29.4070   44.8360 N   0  0  0  0  0  0  0  0  0  0  0  0
   58.2140   28.2470   45.4480 C   0  0  0  0  0  0  0  0  0  0  0  0
   57.9110   26.9730   44.9460 C   0  0  0  0  0  0  0  0  0  0  0  0
   57.2670   26.8693   44.0603 H   0  0  0  0  0  0  0  0  0  0  0  0
   58.4280   25.8350   45.5720 C   0  0  0  0  0  0  0  0  0  0  0  0
   58.1867   24.8353   45.1816 H   0  0  0  0  0  0  0  0  0  0  0  0
   59.2530   25.9670   46.6960 C   0  0  0  0  0  0  0  0  0  0  0  0
   59.6540   25.0705   47.1914 H   0  0  0  0  0  0  0  0  0  0  0  0
   59.5680   27.2390   47.1900 C   0  0  0  0  0  0  0  0  0  0  0  0
   60.2303   27.3394   48.0625 H   0  0  0  0  0  0  0  0  0  0  0  0
   59.0410   28.3880   46.5750 C   0  0  0  0  0  0  0  0  0  0  0  0
   59.5010   29.7730   46.9850 C   0  0  1  0  0  0  0  0  0  0  0  0
   59.6908   29.8024   48.0681 H   0  0  0  0  0  0  0  0  0  0  0  0
   60.7980   30.0770   46.2410 C   0  0  0  0  0  0  0  0  0  0  0  0
   61.6020   30.2655   46.9677 H   0  0  0  0  0  0  0  0  0  0  0  0
   61.0685   29.2179   45.6095 H   0  0  0  0  0  0  0  0  0  0  0  0
   60.6585   30.9668   45.6095 H   0  0  0  0  0  0  0  0  0  0  0  0
   62.8670   32.2360   48.7860 C   0  0  0  0  0  0  0  0  0  0  0  0
   63.0490   33.8910   48.9920 S   0  0  0  0  0  0  0  0  0  0  0  0
   63.6340   34.2110   47.4440 C   0  0  0  0  0  0  0  0  0  0  0  0
   63.9204   35.1991   47.0545 H   0  0  0  0  0  0  0  0  0  0  0  0
   63.6920   33.0160   46.7470 C   0  0  0  0  0  0  0  0  0  0  0  0
   64.0418   32.9421   45.7067 H   0  0  0  0  0  0  0  0  0  0  0  0
   63.2630   31.9100   47.4920 C   0  0  0  0  0  0  0  0  0  0  0  0
   63.2412   30.8849   47.0937 H   0  0  0  0  0  0  0  0  0  0  0  0
  1  2  1  0
  2  3  2  0
  3  4  1  0
  4  5  2  0
  5  6  1  0
  5  7  1  0
  7  8  1  0
  7  9  2  0
  9 10  1  0
  9 11  1  0
 11 12  1  0
 11 13  2  0
 13 14  1  0
 14 15  1  0
 15 16  2  0
 16 17  1  0
 16 18  1  0
 18 19  1  0
 18 20  2  0
 20 21  1  0
 20 22  1  0
 22 23  1  0
 22 24  2  0
 24 25  1  0
 25 26  1  1
 25 27  1  0
 27 28  2  0
 27 29  1  0
 29 30  1  0
 30 31  2  0
 31 32  1  0
 31 33  1  0
 33 34  1  0
 33 35  2  0
 35 36  1  0
 35 37  1  0
 37 38  1  0
 37 39  2  0
 39 40  1  0
 40 41  1  1
 40 42  1  0
 42 43  1  0
 42 44  1  0
 42 45  1  0
  2 46  1  0
 46 47  1  0
 47 48  1  0
 48 49  1  0
 48 50  2  0
 50 51  1  0
 50 52  1  0
 52 53  1  0
 13  4  1  0
 24 15  1  0
 40 25  1  0
 52 46  2  0
 39 30  1  0
M  CHG  2  25   1  29  -1
M  END
>  <UniqueID>  (94) 
84

>  <SMILES>  (94) 
C[C@@H]1c2ccccc2[N-]C(=O)[N@@H+]1c1ccccc1Sc1ccccc1/N=C/c1cccs1

>  <Energy>  (94) 
112.73934922445187

>  <Genealogy>  (94) 
CC1c2ccccc2[N-]C(=O)[NH+]1c1ccccc1Sc1ccccc1N=Cc1cccs1 (protonated)
C[C@@H]1c2ccccc2[N-]C(=O)[N@@H+]1c1ccccc1Sc1ccccc1N=Cc1cccs1 (chirality)
C[C@@H]1c2ccccc2[N-]C(=O)[N@@H+]1c1ccccc1Sc1ccccc1/N=C/c1cccs1 (cis-trans isomerization)
C[C@@H]1c2ccccc2[N-]C(=O)[N@@H+]1c1ccccc1Sc1ccccc1/N=C/c1cccs1 (3D coordinates assigned)
C[C@@H]1c2ccccc2[N-]C(=O)[N@@H+]1c1ccccc1Sc1ccccc1/N=C/c1cccs1 (nonaromatic ring conformer: 112.73934922445187 kcal/mol)

>  <smiles>  (94) 
CC1c2ccccc2NC(=O)N1c1ccccc1Sc1ccccc1N=Cc1cccs1

>  <score_type>  (94) 
oracle

>  <origin>  (94) 
adg

>  <m_score__min__energy>  (94) 
-9.6099999999999994

>  <m_primary>  (94) 
energy

$$$$
94:0
     RDKit          3D

 61 65  0  0  0  0  0  0  0  0999 V2000
   58.8560   27.7700   44.0820 C   0  0  0  0  0  0  0  0  0  0  0  0
   58.1650   28.6100   45.0700 N   0  0  0  0  0  0  0  0  0  0  0  0
   56.7510   28.9550   44.8440 C   0  0  0  0  0  0  0  0  0  0  0  0
   56.6390   30.0920   43.8210 C   0  0  0  0  0  0  0  0  0  0  0  0
   56.2940   31.3220   44.4600 O   0  0  0  0  0  0  0  0  0  0  0  0
   57.2090   32.2650   44.9560 C   0  0  0  0  0  0  0  0  0  0  0  0
   57.9500   33.1250   44.1190 C   0  0  0  0  0  0  0  0  0  0  0  0
   58.8490   34.0430   44.6700 C   0  0  0  0  0  0  0  0  0  0  0  0
   59.0260   34.1170   46.0590 C   0  0  0  0  0  0  0  0  0  0  0  0
   60.0430   35.0590   46.6440 C   0  0  0  0  0  0  0  0  0  0  0  0
   60.9650   34.3080   47.5510 C   0  0  0  0  0  0  0  0  0  0  0  0
   60.4930   33.8080   48.7340 N   0  0  0  0  0  0  0  0  0  0  0  0
   61.3350   33.0700   49.4980 C   0  0  0  0  0  0  0  0  0  0  0  0
   62.6050   32.7910   49.1170 C   0  0  0  0  0  0  0  0  0  0  0  0
   63.1040   31.9490   50.0870 C   0  0  0  0  0  0  0  0  0  0  0  0
   62.1270   31.7370   51.0060 N   0  0  0  0  0  0  0  0  0  0  0  0
   61.0510   32.4360   50.6480 N   0  0  0  0  0  0  0  0  0  0  0  0
   59.7490   32.4120   51.3280 C   0  0  0  0  0  0  0  0  0  0  0  0
   58.6160   32.2980   50.2820 C   0  0  0  0  0  0  0  0  0  0  0  0
   57.4110   31.5580   50.8760 C   0  0  0  0  0  0  0  0  0  0  0  0
   57.7010   30.2150   51.2440 O   0  0  0  0  0  0  0  0  0  0  0  0
   59.0160   30.0200   51.7670 C   0  0  0  0  0  0  0  0  0  0  0  0
   59.6600   31.2800   52.3770 C   0  0  0  0  0  0  0  0  0  0  0  0
   63.0940   33.2860   47.9180 C   0  0  0  0  0  0  0  0  0  0  0  0
   64.2680   33.0410   47.5360 O   0  0  0  0  0  0  0  0  0  0  0  0
   62.2530   34.0400   47.1500 N   0  0  0  0  0  0  0  0  0  0  0  0
   58.2980   33.2510   46.8920 C   0  0  0  0  0  0  0  0  0  0  0  0
   57.3920   32.3400   46.3420 C   0  0  0  0  0  0  0  0  0  0  0  0
   58.9340   29.1560   46.1710 C   0  0  0  0  0  0  0  0  0  0  0  0
   60.0200   30.0340   45.9700 C   0  0  0  0  0  0  0  0  0  0  0  0
   60.7290   30.5170   47.0700 C   0  0  0  0  0  0  0  0  0  0  0  0
   60.3660   30.1310   48.3620 C   0  0  0  0  0  0  0  0  0  0  0  0
   59.2890   29.2640   48.5340 C   0  0  0  0  0  0  0  0  0  0  0  0
   58.6080   28.8040   47.4500 N   0  0  0  0  0  0  0  0  0  0  0  0
   59.4714   27.0219   44.6031 H   0  0  0  0  0  0  0  0  0  0  0  0
   58.1133   27.2591   43.4516 H   0  0  0  0  0  0  0  0  0  0  0  0
   59.5005   28.4002   43.4516 H   0  0  0  0  0  0  0  0  0  0  0  0
   56.2177   28.0710   44.4643 H   0  0  0  0  0  0  0  0  0  0  0  0
   56.3057   29.2832   45.7948 H   0  0  0  0  0  0  0  0  0  0  0  0
   57.6049   30.2113   43.3083 H   0  0  0  0  0  0  0  0  0  0  0  0
   55.8489   29.8379   43.0991 H   0  0  0  0  0  0  0  0  0  0  0  0
   57.8200   33.0732   43.0279 H   0  0  0  0  0  0  0  0  0  0  0  0
   59.4211   34.7114   44.0097 H   0  0  0  0  0  0  0  0  0  0  0  0
   60.6245   35.5193   45.8316 H   0  0  0  0  0  0  0  0  0  0  0  0
   59.5257   35.8416   47.2184 H   0  0  0  0  0  0  0  0  0  0  0  0
   64.1177   31.5226   50.1125 H   0  0  0  0  0  0  0  0  0  0  0  0
   59.6342   33.3569   51.8794 H   0  0  0  0  0  0  0  0  0  0  0  0
   58.3052   33.3070   49.9732 H   0  0  0  0  0  0  0  0  0  0  0  0
   58.9879   31.7342   49.4138 H   0  0  0  0  0  0  0  0  0  0  0  0
   57.0749   32.1007   51.7719 H   0  0  0  0  0  0  0  0  0  0  0  0
   56.6346   31.5221   50.0976 H   0  0  0  0  0  0  0  0  0  0  0  0
   58.9625   29.2493   52.5500 H   0  0  0  0  0  0  0  0  0  0  0  0
   59.6488   29.7289   50.9156 H   0  0  0  0  0  0  0  0  0  0  0  0
   59.0501   31.6220   53.2261 H   0  0  0  0  0  0  0  0  0  0  0  0
   60.6769   31.0294   52.7133 H   0  0  0  0  0  0  0  0  0  0  0  0
   58.4417   33.2901   47.9819 H   0  0  0  0  0  0  0  0  0  0  0  0
   56.8174   31.6757   47.0042 H   0  0  0  0  0  0  0  0  0  0  0  0
   60.3060   30.3359   44.9517 H   0  0  0  0  0  0  0  0  0  0  0  0
   61.5755   31.2031   46.9194 H   0  0  0  0  0  0  0  0  0  0  0  0
   60.9233   30.5067   49.2328 H   0  0  0  0  0  0  0  0  0  0  0  0
   58.9897   28.9518   49.5454 H   0  0  0  0  0  0  0  0  0  0  0  0
  1  2  1  0
  2  3  1  0
  3  4  1  0
  4  5  1  0
  5  6  1  0
  6  7  2  0
  7  8  1  0
  8  9  2  0
  9 10  1  0
 10 11  1  0
 11 12  2  0
 12 13  1  0
 13 14  2  0
 14 15  1  0
 15 16  2  0
 16 17  1  0
 17 18  1  0
 18 19  1  0
 19 20  1  0
 20 21  1  0
 21 22  1  0
 22 23  1  0
 14 24  1  0
 24 25  2  0
 24 26  1  0
  9 27  1  0
 27 28  2  0
  2 29  1  0
 29 30  2  0
 30 31  1  0
 31 32  2  0
 32 33  1  0
 33 34  2  0
 28  6  1  0
 34 29  1  0
 26 11  1  0
 17 13  1  0
 23 18  1  0
  1 35  1  0
  1 36  1  0
  1 37  1  0
  3 38  1  0
  3 39  1  0
  4 40  1  0
  4 41  1  0
  7 42  1  0
  8 43  1  0
 10 44  1  0
 10 45  1  0
 15 46  1  0
 18 47  1  0
 19 48  1  0
 19 49  1  0
 20 50  1  0
 20 51  1  0
 22 52  1  0
 22 53  1  0
 23 54  1  0
 23 55  1  0
 27 56  1  0
 28 57  1  0
 30 58  1  0
 31 59  1  0
 32 60  1  0
 33 61  1  0
M  CHG  1  26  -1
M  END
>  <UniqueID>  (95) 
85

>  <SMILES>  (95) 
CN(CCOc1ccc(Cc2nc3c(cnn3C3CCOCC3)c(=O)[n-]2)cc1)c1ccccn1

>  <Energy>  (95) 
117.07658724664464

>  <Genealogy>  (95) 
CN(CCOc1ccc(Cc2nc3c(cnn3C3CCOCC3)c(=O)[n-]2)cc1)c1ccccn1 (protonated)
CN(CCOc1ccc(Cc2nc3c(cnn3C3CCOCC3)c(=O)[n-]2)cc1)c1ccccn1 (3D coordinates assigned)
CN(CCOc1ccc(Cc2nc3c(cnn3C3CCOCC3)c(=O)[n-]2)cc1)c1ccccn1 (nonaromatic ring conformer: 117.07658724664464 kcal/mol)

>  <smiles>  (95) 
CN(CCOc1ccc(Cc2nc3c(cnn3C3CCOCC3)c(=O)[nH]2)cc1)c1ccccn1

>  <score_type>  (95) 
oracle

>  <origin>  (95) 
adg

>  <m_score__min__energy>  (95) 
-9.6699999999999999

>  <m_primary>  (95) 
energy

$$$$
95:0
     RDKit          3D

 58 61  0  0  0  0  0  0  0  0999 V2000
   55.7420   30.8970   51.2760 O   0  0  0  0  0  0  0  0  0  0  0  0
   56.9420   30.3820   52.0300 S   0  0  0  0  0  0  0  0  0  0  0  0
   56.4710   29.3970   53.0680 O   0  0  0  0  0  0  0  0  0  0  0  0
   58.0020   29.5750   50.9050 N   0  0  0  0  0  0  0  0  0  0  0  0
   59.3070   30.0340   50.5320 C   0  0  0  0  0  0  0  0  0  0  0  0
   59.7030   30.1360   49.1880 C   0  0  0  0  0  0  0  0  0  0  0  0
   61.0080   30.5230   48.8660 C   0  0  0  0  0  0  0  0  0  0  0  0
   61.9230   30.8440   49.8850 C   0  0  0  0  0  0  0  0  0  0  0  0
   63.3440   31.2220   49.5530 C   0  0  0  0  0  0  0  0  0  0  0  0
   63.6460   32.6980   49.8880 C   0  0  0  0  0  0  0  0  0  0  0  0
   63.0100   33.6460   48.9370 N   0  0  1  0  0  0  0  0  0  0  0  0
   62.8190   32.9770   47.6260 C   0  0  0  0  0  0  0  0  0  0  0  0
   62.0050   33.8530   46.6620 C   0  0  0  0  0  0  0  0  0  0  0  0
   60.6160   34.2300   47.2420 C   0  0  1  0  0  0  0  0  0  0  0  0
   59.4790   33.6290   46.4340 C   0  0  0  0  0  0  0  0  0  0  0  0
   58.7130   34.4270   45.5610 C   0  0  0  0  0  0  0  0  0  0  0  0
   57.6700   33.8640   44.8190 C   0  0  0  0  0  0  0  0  0  0  0  0
   57.3850   32.5010   44.9340 C   0  0  0  0  0  0  0  0  0  0  0  0
   58.1420   31.6980   45.7920 C   0  0  0  0  0  0  0  0  0  0  0  0
   59.1840   32.2570   46.5380 C   0  0  0  0  0  0  0  0  0  0  0  0
   60.4810   33.8510   48.7290 C   0  0  0  0  0  0  0  0  0  0  0  0
   61.7530   34.2320   49.5020 C   0  0  0  0  0  0  0  0  0  0  0  0
   61.4980   30.8170   51.2230 C   0  0  0  0  0  0  0  0  0  0  0  0
   60.1970   30.4190   51.5420 C   0  0  0  0  0  0  0  0  0  0  0  0
   57.7220   31.7570   52.8130 C   0  0  0  0  0  0  0  0  0  0  0  0
   57.9000   32.9690   52.1250 C   0  0  0  0  0  0  0  0  0  0  0  0
   58.4860   34.0640   52.7690 C   0  0  0  0  0  0  0  0  0  0  0  0
   58.8990   33.9540   54.1020 C   0  0  0  0  0  0  0  0  0  0  0  0
   59.6900   35.4560   54.9820 Br  0  0  0  0  0  0  0  0  0  0  0  0
   58.7330   32.7450   54.7870 C   0  0  0  0  0  0  0  0  0  0  0  0
   58.1470   31.6480   54.1450 C   0  0  0  0  0  0  0  0  0  0  0  0
   58.9844   29.9108   48.3862 H   0  0  0  0  0  0  0  0  0  0  0  0
   61.3198   30.5765   47.8125 H   0  0  0  0  0  0  0  0  0  0  0  0
   64.0258   30.5806   50.1307 H   0  0  0  0  0  0  0  0  0  0  0  0
   63.4870   31.0843   48.4711 H   0  0  0  0  0  0  0  0  0  0  0  0
   63.2726   32.9121   50.9003 H   0  0  0  0  0  0  0  0  0  0  0  0
   64.7347   32.8377   49.8166 H   0  0  0  0  0  0  0  0  0  0  0  0
   63.6820   34.4300   48.7660 H   0  0  0  0  0  0  0  0  0  0  0  0
   62.2862   32.0276   47.7831 H   0  0  0  0  0  0  0  0  0  0  0  0
   63.8091   32.8004   47.1804 H   0  0  0  0  0  0  0  0  0  0  0  0
   61.8582   33.3022   45.7212 H   0  0  0  0  0  0  0  0  0  0  0  0
   62.5660   34.7848   46.4976 H   0  0  0  0  0  0  0  0  0  0  0  0
   60.5431   35.3251   47.1683 H   0  0  0  0  0  0  0  0  0  0  0  0
   58.9369   35.4995   45.4626 H   0  0  0  0  0  0  0  0  0  0  0  0
   57.0732   34.4950   44.1439 H   0  0  0  0  0  0  0  0  0  0  0  0
   56.5646   32.0596   44.3491 H   0  0  0  0  0  0  0  0  0  0  0  0
   57.9176   30.6248   45.8804 H   0  0  0  0  0  0  0  0  0  0  0  0
   59.7772   31.6201   47.2107 H   0  0  0  0  0  0  0  0  0  0  0  0
   60.3187   32.7662   48.8123 H   0  0  0  0  0  0  0  0  0  0  0  0
   59.6283   34.3975   49.1582 H   0  0  0  0  0  0  0  0  0  0  0  0
   61.6447   33.8824   50.5393 H   0  0  0  0  0  0  0  0  0  0  0  0
   61.8524   35.3252   49.4305 H   0  0  0  0  0  0  0  0  0  0  0  0
   62.1925   31.1106   52.0239 H   0  0  0  0  0  0  0  0  0  0  0  0
   59.8703   30.4081   52.5923 H   0  0  0  0  0  0  0  0  0  0  0  0
   57.5777   33.0572   51.0770 H   0  0  0  0  0  0  0  0  0  0  0  0
   58.6223   35.0118   52.2277 H   0  0  0  0  0  0  0  0  0  0  0  0
   59.0638   32.6567   55.8323 H   0  0  0  0  0  0  0  0  0  0  0  0
   58.0196   30.6988   54.6861 H   0  0  0  0  0  0  0  0  0  0  0  0
  1  2  2  0
  2  3  2  0
  2  4  1  0
  4  5  1  0
  5  6  2  0
  6  7  1  0
  7  8  2  0
  8  9  1  0
  9 10  1  0
 10 11  1  0
 11 12  1  0
 12 13  1  0
 13 14  1  0
 14 15  1  0
 15 16  2  0
 16 17  1  0
 17 18  2  0
 18 19  1  0
 19 20  2  0
 14 21  1  0
 21 22  1  0
  8 23  1  0
 23 24  2  0
  2 25  1  0
 25 26  2  0
 26 27  1  0
 27 28  2  0
 28 29  1  0
 28 30  1  0
 30 31  2  0
 24  5  1  0
 31 25  1  0
 22 11  1  0
 20 15  1  0
  6 32  1  0
  7 33  1  0
  9 34  1  0
  9 35  1  0
 10 36  1  0
 10 37  1  0
 11 38  1  6
 12 39  1  0
 12 40  1  0
 13 41  1  0
 13 42  1  0
 14 43  1  1
 16 44  1  0
 17 45  1  0
 18 46  1  0
 19 47  1  0
 20 48  1  0
 21 49  1  0
 21 50  1  0
 22 51  1  0
 22 52  1  0
 23 53  1  0
 24 54  1  0
 26 55  1  0
 27 56  1  0
 30 57  1  0
 31 58  1  0
M  CHG  2   4  -1  11   1
M  END
>  <UniqueID>  (96) 
86

>  <SMILES>  (96) 
O=S(=O)([N-]c1ccc(CC[NH+]2CCC(c3ccccc3)CC2)cc1)c1ccc(Br)cc1

>  <Energy>  (96) 
78.34677050828016

>  <Genealogy>  (96) 
O=S(=O)([N-]c1ccc(CC[NH+]2CCC(c3ccccc3)CC2)cc1)c1ccc(Br)cc1 (protonated)
O=S(=O)([N-]c1ccc(CC[NH+]2CCC(c3ccccc3)CC2)cc1)c1ccc(Br)cc1 (3D coordinates assigned)
O=S(=O)([N-]c1ccc(CC[NH+]2CCC(c3ccccc3)CC2)cc1)c1ccc(Br)cc1 (nonaromatic ring conformer: 78.34677050828016 kcal/mol)

>  <smiles>  (96) 
O=S(=O)(Nc1ccc(CCN2CCC(c3ccccc3)CC2)cc1)c1ccc(Br)cc1

>  <score_type>  (96) 
oracle

>  <origin>  (96) 
adg

>  <m_score__min__energy>  (96) 
-10.210000000000001

>  <m_primary>  (96) 
energy

$$$$
