0:0
     RDKit          3D

 50 51  0  0  0  0  0  0  0  0999 V2000
   57.2910   29.8360   44.3870 C   0  0  0  0  0  0  0  0  0  0  0  0
   57.2480   29.3090   45.7100 O   0  0  0  0  0  0  0  0  0  0  0  0
   57.5950   27.9930   46.0590 C   0  0  0  0  0  0  0  0  0  0  0  0
   56.7280   26.9120   45.7950 C   0  0  0  0  0  0  0  0  0  0  0  0
   57.0970   25.6100   46.1300 C   0  0  0  0  0  0  0  0  0  0  0  0
   58.3280   25.3640   46.7310 C   0  0  0  0  0  0  0  0  0  0  0  0
   59.1970   26.4210   47.0020 C   0  0  0  0  0  0  0  0  0  0  0  0
   58.8450   27.7460   46.6750 C   0  0  0  0  0  0  0  0  0  0  0  0
   59.7840   28.8600   46.9810 C   0  0  0  0  0  0  0  0  0  0  0  0
   60.1360   29.6540   46.0650 O   0  0  0  0  0  0  0  0  0  0  0  0
   60.2830   29.0990   48.3790 C   0  0  0  0  0  0  0  0  0  0  0  0
   60.5230   30.4870   48.5860 O   0  0  0  0  0  0  0  0  0  0  0  0
   59.7760   31.2520   49.4870 C   0  0  0  0  0  0  0  0  0  0  0  0
   58.5160   31.2840   49.4140 O   0  0  0  0  0  0  0  0  0  0  0  0
   60.4780   32.0550   50.5360 C   0  0  0  0  0  0  0  0  0  0  0  0
   59.8890   33.4660   50.6170 C   0  0  0  0  0  0  0  0  0  0  0  0
   60.0040   34.1900   49.2700 C   0  0  0  0  0  0  0  0  0  0  0  0
   61.3500   34.0500   48.7070 N   0  0  0  0  0  0  0  0  0  0  0  0
   61.7160   33.0720   47.7170 C   0  0  0  0  0  0  0  0  0  0  0  0
   63.2700   32.5680   47.6420 S   0  0  0  0  0  0  0  0  0  0  0  0
   60.7360   32.4250   46.8890 N   0  0  0  0  0  0  0  0  0  0  0  0
   59.6410   33.1240   46.2750 C   0  0  0  0  0  0  0  0  0  0  0  0
   59.8630   34.3520   45.6290 C   0  0  0  0  0  0  0  0  0  0  0  0
   58.8100   35.0220   45.0060 C   0  0  0  0  0  0  0  0  0  0  0  0
   57.5250   34.4740   45.0200 C   0  0  0  0  0  0  0  0  0  0  0  0
   57.2910   33.2570   45.6640 C   0  0  0  0  0  0  0  0  0  0  0  0
   58.3400   32.5740   46.2920 C   0  0  0  0  0  0  0  0  0  0  0  0
   58.0610   31.3680   46.9350 O   0  0  0  0  0  0  0  0  0  0  0  0
   57.3804   30.9315   44.4314 H   0  0  0  0  0  0  0  0  0  0  0  0
   58.1581   29.4187   43.8541 H   0  0  0  0  0  0  0  0  0  0  0  0
   56.3677   29.5647   43.8541 H   0  0  0  0  0  0  0  0  0  0  0  0
   55.7529   27.0979   45.3210 H   0  0  0  0  0  0  0  0  0  0  0  0
   56.4132   24.7747   45.9187 H   0  0  0  0  0  0  0  0  0  0  0  0
   58.6159   24.3351   46.9925 H   0  0  0  0  0  0  0  0  0  0  0  0
   60.1684   26.2180   47.4765 H   0  0  0  0  0  0  0  0  0  0  0  0
   59.5280   28.7497   49.0987 H   0  0  0  0  0  0  0  0  0  0  0  0
   61.2236   28.5472   48.5231 H   0  0  0  0  0  0  0  0  0  0  0  0
   60.3615   31.5579   51.5103 H   0  0  0  0  0  0  0  0  0  0  0  0
   61.5434   32.1295   50.2724 H   0  0  0  0  0  0  0  0  0  0  0  0
   58.8278   33.3968   50.8983 H   0  0  0  0  0  0  0  0  0  0  0  0
   60.4519   34.0371   51.3700 H   0  0  0  0  0  0  0  0  0  0  0  0
   59.2747   33.7598   48.5678 H   0  0  0  0  0  0  0  0  0  0  0  0
   59.8028   35.2594   49.4307 H   0  0  0  0  0  0  0  0  0  0  0  0
   62.1100   34.6320   49.1280 H   0  0  0  0  0  0  0  0  0  0  0  0
   60.9130   31.4390   46.5900 H   0  0  0  0  0  0  0  0  0  0  0  0
   60.8730   34.7875   45.6145 H   0  0  0  0  0  0  0  0  0  0  0  0
   58.9917   35.9832   44.5030 H   0  0  0  0  0  0  0  0  0  0  0  0
   56.6971   35.0013   44.5235 H   0  0  0  0  0  0  0  0  0  0  0  0
   56.2764   32.8323   45.6780 H   0  0  0  0  0  0  0  0  0  0  0  0
   58.7840   30.7690   47.3170 H   0  0  0  0  0  0  0  0  0  0  0  0
  1  2  1  0
  2  3  1  0
  3  4  2  0
  4  5  1  0
  5  6  2  0
  6  7  1  0
  7  8  2  0
  8  9  1  0
  9 10  2  0
  9 11  1  0
 11 12  1  0
 12 13  1  0
 13 14  2  0
 13 15  1  0
 15 16  1  0
 16 17  1  0
 17 18  1  0
 18 19  1  0
 19 20  2  0
 19 21  1  0
 21 22  1  0
 22 23  2  0
 23 24  1  0
 24 25  2  0
 25 26  1  0
 26 27  2  0
 27 28  1  0
  8  3  1  0
 27 22  1  0
  1 29  1  0
  1 30  1  0
  1 31  1  0
  4 32  1  0
  5 33  1  0
  6 34  1  0
  7 35  1  0
 11 36  1  0
 11 37  1  0
 15 38  1  0
 15 39  1  0
 16 40  1  0
 16 41  1  0
 17 42  1  0
 17 43  1  0
 18 44  1  0
 21 45  1  0
 23 46  1  0
 24 47  1  0
 25 48  1  0
 26 49  1  0
 28 50  1  0
M  END
>  <UniqueID>  (1) 
1

>  <SMILES>  (1) 
COc1ccccc1C(=O)COC(=O)CCCNC(=S)Nc1ccccc1O

>  <Energy>  (1) 
49.99245879399334

>  <Genealogy>  (1) 
COc1ccccc1C(=O)COC(=O)CCCNC(=S)Nc1ccccc1O (3D coordinates assigned)
COc1ccccc1C(=O)COC(=O)CCCNC(=S)Nc1ccccc1O (optimized conformer: 49.99245879399334 kcal/mol)

>  <smiles>  (1) 
COc1ccccc1C(=O)COC(=O)CCCNC(=S)Nc1ccccc1O

>  <score_type>  (1) 
oracle

>  <origin>  (1) 
adg

>  <m_score__min__energy>  (1) 
-8.8300000000000001

>  <m_primary>  (1) 
energy

$$$$
1:0
     RDKit          3D

 48 51  0  0  0  0  0  0  0  0999 V2000
   58.8960   34.1470   52.9790 C   0  0  0  0  0  0  0  0  0  0  0  0
   60.1370   33.7800   52.3860 O   0  0  0  0  0  0  0  0  0  0  0  0
   60.3270   33.5790   51.0110 C   0  0  0  0  0  0  0  0  0  0  0  0
   59.2590   33.0780   50.2570 C   0  0  0  0  0  0  0  0  0  0  0  0
   59.3970   32.8620   48.8840 C   0  0  0  0  0  0  0  0  0  0  0  0
   60.6120   33.1420   48.2380 C   0  0  0  0  0  0  0  0  0  0  0  0
   60.7610   32.9320   46.7510 C   0  0  0  0  0  0  0  0  0  0  0  0
   59.4440   32.6850   46.1170 N   0  0  0  0  0  0  0  0  0  0  0  0
   58.6440   33.7760   45.8550 C   0  0  0  0  0  0  0  0  0  0  0  0
   59.0320   34.9450   46.1390 O   0  0  0  0  0  0  0  0  0  0  0  0
   57.3850   33.6080   45.2680 C   0  0  0  0  0  0  0  0  0  0  0  0
   56.6530   34.6050   45.0240 O   0  0  0  0  0  0  0  0  0  0  0  0
   56.9490   32.3690   44.9590 N   0  0  0  0  0  0  0  0  0  0  0  0
   57.7030   31.2720   45.2080 C   0  0  0  0  0  0  0  0  0  0  0  0
   57.2000   30.0110   44.8720 C   0  0  0  0  0  0  0  0  0  0  0  0
   57.9530   28.8570   45.1060 C   0  0  0  0  0  0  0  0  0  0  0  0
   57.4020   27.5720   44.7710 N   0  0  0  0  0  0  0  0  0  0  0  0
   57.8190   26.3390   45.3800 C   0  0  0  0  0  0  0  0  0  0  0  0
   58.9550   26.2630   45.9250 O   0  0  0  0  0  0  0  0  0  0  0  0
   56.9610   25.1330   45.3150 C   0  0  0  0  0  0  0  0  0  0  0  0
   57.5310   23.8890   44.9840 C   0  0  0  0  0  0  0  0  0  0  0  0
   56.7370   22.7390   44.9160 C   0  0  0  0  0  0  0  0  0  0  0  0
   55.3710   22.8160   45.1860 C   0  0  0  0  0  0  0  0  0  0  0  0
   54.7940   24.0400   45.5320 C   0  0  0  0  0  0  0  0  0  0  0  0
   55.5810   25.1950   45.6020 C   0  0  0  0  0  0  0  0  0  0  0  0
   54.9970   26.3570   45.9910 F   0  0  0  0  0  0  0  0  0  0  0  0
   59.2080   28.9770   45.7210 C   0  0  0  0  0  0  0  0  0  0  0  0
   59.7200   30.2310   46.0610 C   0  0  0  0  0  0  0  0  0  0  0  0
   58.9820   31.4140   45.8060 C   0  0  0  0  0  0  0  0  0  0  0  0
   61.6840   33.6470   48.9920 C   0  0  0  0  0  0  0  0  0  0  0  0
   61.5450   33.8630   50.3670 C   0  0  0  0  0  0  0  0  0  0  0  0
   58.9906   34.1190   54.0746 H   0  0  0  0  0  0  0  0  0  0  0  0
   58.6239   35.1641   52.6603 H   0  0  0  0  0  0  0  0  0  0  0  0
   58.1145   33.4415   52.6603 H   0  0  0  0  0  0  0  0  0  0  0  0
   58.3022   32.8524   50.7506 H   0  0  0  0  0  0  0  0  0  0  0  0
   58.5481   32.4699   48.3047 H   0  0  0  0  0  0  0  0  0  0  0  0
   61.2132   33.8297   46.3040 H   0  0  0  0  0  0  0  0  0  0  0  0
   61.4023   32.0543   46.5826 H   0  0  0  0  0  0  0  0  0  0  0  0
   56.2013   29.9265   44.4188 H   0  0  0  0  0  0  0  0  0  0  0  0
   56.7420   27.5160   43.9630 H   0  0  0  0  0  0  0  0  0  0  0  0
   58.6092   23.8206   44.7772 H   0  0  0  0  0  0  0  0  0  0  0  0
   57.1907   21.7731   44.6493 H   0  0  0  0  0  0  0  0  0  0  0  0
   54.7473   21.9119   45.1264 H   0  0  0  0  0  0  0  0  0  0  0  0
   53.7173   24.0963   45.7502 H   0  0  0  0  0  0  0  0  0  0  0  0
   59.7957   28.0728   45.9380 H   0  0  0  0  0  0  0  0  0  0  0  0
   60.7107   30.3017   46.5337 H   0  0  0  0  0  0  0  0  0  0  0  0
   62.6400   33.8743   48.4976 H   0  0  0  0  0  0  0  0  0  0  0  0
   62.3922   34.2569   50.9476 H   0  0  0  0  0  0  0  0  0  0  0  0
  1  2  1  0
  2  3  1  0
  3  4  2  0
  4  5  1  0
  5  6  2  0
  6  7  1  0
  7  8  1  0
  8  9  1  0
  9 10  2  0
  9 11  1  0
 11 12  2  0
 11 13  1  0
 13 14  1  0
 14 15  2  0
 15 16  1  0
 16 17  1  0
 17 18  1  0
 18 19  2  0
 18 20  1  0
 20 21  2  0
 21 22  1  0
 22 23  2  0
 23 24  1  0
 24 25  2  0
 25 26  1  0
 16 27  2  0
 27 28  1  0
 28 29  2  0
  6 30  1  0
 30 31  2  0
 31  3  1  0
 29  8  1  0
 29 14  1  0
 25 20  1  0
  1 32  1  0
  1 33  1  0
  1 34  1  0
  4 35  1  0
  5 36  1  0
  7 37  1  0
  7 38  1  0
 15 39  1  0
 17 40  1  0
 21 41  1  0
 22 42  1  0
 23 43  1  0
 24 44  1  0
 27 45  1  0
 28 46  1  0
 30 47  1  0
 31 48  1  0
M  CHG  1  13  -1
M  END
>  <UniqueID>  (2) 
2

>  <SMILES>  (2) 
COc1ccc(Cn2c(=O)c(=O)[n-]c3cc(NC(=O)c4ccccc4F)ccc32)cc1

>  <Energy>  (2) 
71.65115806718738

>  <Genealogy>  (2) 
COc1ccc(Cn2c(=O)c(=O)[n-]c3cc(NC(=O)c4ccccc4F)ccc32)cc1 (protonated)
COc1ccc(Cn2c(=O)c(=O)[n-]c3cc(NC(=O)c4ccccc4F)ccc32)cc1 (3D coordinates assigned)
COc1ccc(Cn2c(=O)c(=O)[n-]c3cc(NC(=O)c4ccccc4F)ccc32)cc1 (optimized conformer: 71.65115806718738 kcal/mol)

>  <smiles>  (2) 
COc1ccc(Cn2c(=O)c(=O)[nH]c3cc(NC(=O)c4ccccc4F)ccc32)cc1

>  <score_type>  (2) 
oracle

>  <origin>  (2) 
adg

>  <m_score__min__energy>  (2) 
-9.3100000000000005

>  <m_primary>  (2) 
energy

$$$$
2:0
     RDKit          3D

 38 40  0  0  0  0  0  0  0  0999 V2000
   57.3330   32.3470   40.3290 N   0  0  0  0  0  0  0  0  0  0  0  0
   57.4100   32.1520   41.4670 C   0  0  0  0  0  0  0  0  0  0  0  0
   57.5020   31.9130   42.8830 C   0  0  0  0  0  0  0  0  0  0  0  0
   58.0800   32.7470   43.8130 C   0  0  0  0  0  0  0  0  0  0  0  0
   57.9640   32.0820   45.0300 C   0  0  0  0  0  0  0  0  0  0  0  0
   58.4380   32.5550   46.3510 C   0  0  0  0  0  0  0  0  0  0  0  0
   58.5200   31.6480   47.4240 C   0  0  0  0  0  0  0  0  0  0  0  0
   58.9650   32.0740   48.6790 C   0  0  0  0  0  0  0  0  0  0  0  0
   59.3310   33.4050   48.8790 C   0  0  0  0  0  0  0  0  0  0  0  0
   59.2540   34.3160   47.8220 C   0  0  0  0  0  0  0  0  0  0  0  0
   58.8090   33.8960   46.5640 C   0  0  0  0  0  0  0  0  0  0  0  0
   57.3600   30.9250   44.8490 O   0  0  0  0  0  0  0  0  0  0  0  0
   57.0720   30.7980   43.5750 C   0  0  0  0  0  0  0  0  0  0  0  0
   56.4420   29.6350   43.0110 N   0  0  0  0  0  0  0  0  0  0  0  0
   57.3640   28.4900   42.9990 C   0  0  0  0  0  0  0  0  0  0  0  0
   58.0290   28.2930   44.3400 C   0  0  0  0  0  0  0  0  0  0  0  0
   59.3920   28.5850   44.5000 C   0  0  0  0  0  0  0  0  0  0  0  0
   59.9990   28.4570   45.7530 C   0  0  0  0  0  0  0  0  0  0  0  0
   59.2510   28.0400   46.8700 C   0  0  0  0  0  0  0  0  0  0  0  0
   59.8710   27.9120   48.1620 N   0  0  0  0  0  0  0  0  0  0  0  0
   59.6230   28.7310   49.0710 O   0  0  0  0  0  0  0  0  0  0  0  0
   60.7500   26.8830   48.4170 O   0  0  0  0  0  0  0  0  0  0  0  0
   57.8850   27.7540   46.7050 C   0  0  0  0  0  0  0  0  0  0  0  0
   57.2790   27.8820   45.4520 C   0  0  0  0  0  0  0  0  0  0  0  0
   58.5370   33.7311   43.6325 H   0  0  0  0  0  0  0  0  0  0  0  0
   58.2321   30.5970   47.2742 H   0  0  0  0  0  0  0  0  0  0  0  0
   59.0267   31.3574   49.5112 H   0  0  0  0  0  0  0  0  0  0  0  0
   59.6799   33.7373   49.8678 H   0  0  0  0  0  0  0  0  0  0  0  0
   59.5439   35.3654   47.9795 H   0  0  0  0  0  0  0  0  0  0  0  0
   58.7487   34.6180   45.7363 H   0  0  0  0  0  0  0  0  0  0  0  0
   55.6150   29.3940   43.6070 H   0  0  0  0  0  0  0  0  0  0  0  0
   56.0950   29.8360   42.0440 H   0  0  0  0  0  0  0  0  0  0  0  0
   56.7997   27.5808   42.7442 H   0  0  0  0  0  0  0  0  0  0  0  0
   58.1482   28.6897   42.2539 H   0  0  0  0  0  0  0  0  0  0  0  0
   59.9859   28.9162   43.6354 H   0  0  0  0  0  0  0  0  0  0  0  0
   61.0693   28.6839   45.8667 H   0  0  0  0  0  0  0  0  0  0  0  0
   57.2879   27.4268   47.5689 H   0  0  0  0  0  0  0  0  0  0  0  0
   56.2079   27.6592   45.3372 H   0  0  0  0  0  0  0  0  0  0  0  0
  1  2  3  0
  2  3  1  0
  3  4  1  0
  4  5  2  0
  5  6  1  0
  6  7  2  0
  7  8  1  0
  8  9  2  0
  9 10  1  0
 10 11  2  0
  5 12  1  0
 12 13  1  0
 13 14  1  0
 14 15  1  0
 15 16  1  0
 16 17  2  0
 17 18  1  0
 18 19  2  0
 19 20  1  0
 20 21  2  0
 20 22  1  0
 19 23  1  0
 23 24  2  0
 13  3  2  0
 24 16  1  0
 11  6  1  0
  4 25  1  0
  7 26  1  0
  8 27  1  0
  9 28  1  0
 10 29  1  0
 11 30  1  0
 14 31  1  0
 14 32  1  0
 15 33  1  0
 15 34  1  0
 17 35  1  0
 18 36  1  0
 23 37  1  0
 24 38  1  0
M  CHG  3  14   1  20   1  22  -1
M  END
>  <UniqueID>  (3) 
3

>  <SMILES>  (3) 
N#Cc1cc(-c2ccccc2)oc1[NH2+]Cc1ccc([N+](=O)[O-])cc1

>  <Energy>  (3) 
68.02914415806184

>  <Genealogy>  (3) 
N#Cc1cc(-c2ccccc2)oc1[NH2+]Cc1ccc([N+](=O)[O-])cc1 (protonated)
N#Cc1cc(-c2ccccc2)oc1[NH2+]Cc1ccc([N+](=O)[O-])cc1 (3D coordinates assigned)
N#Cc1cc(-c2ccccc2)oc1[NH2+]Cc1ccc([N+](=O)[O-])cc1 (optimized conformer: 68.02914415806184 kcal/mol)

>  <smiles>  (3) 
N#Cc1cc(-c2ccccc2)oc1NCc1ccc([N+](=O)[O-])cc1

>  <score_type>  (3) 
oracle

>  <origin>  (3) 
adg

>  <m_score__min__energy>  (3) 
-5.8499999999999996

>  <m_primary>  (3) 
energy

$$$$
3:0
     RDKit          3D

 43 45  0  0  0  0  0  0  0  0999 V2000
   55.5220   21.5510   45.3230 C   0  0  0  0  0  0  0  0  0  0  0  0
   54.4920   22.9530   44.9450 S   0  0  0  0  0  0  0  0  0  0  0  0
   54.6740   23.3270   43.5000 O   0  0  0  0  0  0  0  0  0  0  0  0
   53.0550   22.5890   45.2050 O   0  0  0  0  0  0  0  0  0  0  0  0
   54.9590   24.2790   45.9590 N   0  0  0  0  0  0  0  0  0  0  0  0
   56.2530   24.9040   45.9660 C   0  0  0  0  0  0  0  0  0  0  0  0
   57.4420   24.1560   45.9660 C   0  0  0  0  0  0  0  0  0  0  0  0
   58.6810   24.8030   45.9880 C   0  0  0  0  0  0  0  0  0  0  0  0
   58.7470   26.1970   46.0040 C   0  0  0  0  0  0  0  0  0  0  0  0
   57.5720   26.9570   45.9770 C   0  0  0  0  0  0  0  0  0  0  0  0
   57.6700   28.3840   45.9480 N   0  0  0  0  0  0  0  0  0  0  0  0
   57.0210   29.3300   44.6470 S   0  0  0  0  0  0  0  0  0  0  0  0
   57.3760   28.7090   43.3230 O   0  0  0  0  0  0  0  0  0  0  0  0
   55.5230   29.3740   44.7750 O   0  0  0  0  0  0  0  0  0  0  0  0
   57.6550   30.9720   44.7540 C   0  0  0  0  0  0  0  0  0  0  0  0
   57.4500   31.8820   43.7100 C   0  0  0  0  0  0  0  0  0  0  0  0
   58.0230   33.1550   43.7670 C   0  0  0  0  0  0  0  0  0  0  0  0
   58.8080   33.5260   44.8630 C   0  0  0  0  0  0  0  0  0  0  0  0
   59.0280   32.6220   45.9190 C   0  0  0  0  0  0  0  0  0  0  0  0
   59.8700   33.0050   47.0830 C   0  0  0  0  0  0  0  0  0  0  0  0
   59.2950   33.1850   48.3580 C   0  0  0  0  0  0  0  0  0  0  0  0
   60.0900   33.5620   49.4480 C   0  0  0  0  0  0  0  0  0  0  0  0
   59.3600   33.7920   51.0270 Cl  0  0  0  0  0  0  0  0  0  0  0  0
   61.4630   33.7650   49.2770 C   0  0  0  0  0  0  0  0  0  0  0  0
   62.0460   33.5860   48.0170 C   0  0  0  0  0  0  0  0  0  0  0  0
   63.7730   33.8280   47.8070 Cl  0  0  0  0  0  0  0  0  0  0  0  0
   61.2550   33.2090   46.9250 C   0  0  0  0  0  0  0  0  0  0  0  0
   58.4470   31.3420   45.8530 C   0  0  0  0  0  0  0  0  0  0  0  0
   56.3240   26.3070   45.9830 C   0  0  0  0  0  0  0  0  0  0  0  0
   55.1530   27.0500   46.0340 O   0  0  0  0  0  0  0  0  0  0  0  0
   55.6038   21.4397   46.4143 H   0  0  0  0  0  0  0  0  0  0  0  0
   55.0755   20.6418   44.8941 H   0  0  0  0  0  0  0  0  0  0  0  0
   56.5231   21.7053   44.8941 H   0  0  0  0  0  0  0  0  0  0  0  0
   57.3980   23.0570   45.9486 H   0  0  0  0  0  0  0  0  0  0  0  0
   59.6080   24.2108   45.9927 H   0  0  0  0  0  0  0  0  0  0  0  0
   59.7249   26.6996   46.0379 H   0  0  0  0  0  0  0  0  0  0  0  0
   56.8367   31.5942   42.8433 H   0  0  0  0  0  0  0  0  0  0  0  0
   57.8559   33.8682   42.9464 H   0  0  0  0  0  0  0  0  0  0  0  0
   59.2561   34.5299   44.9001 H   0  0  0  0  0  0  0  0  0  0  0  0
   58.2152   33.0283   48.4975 H   0  0  0  0  0  0  0  0  0  0  0  0
   62.0851   34.0655   50.1330 H   0  0  0  0  0  0  0  0  0  0  0  0
   61.7182   33.0711   45.9368 H   0  0  0  0  0  0  0  0  0  0  0  0
   58.6148   30.6246   46.6699 H   0  0  0  0  0  0  0  0  0  0  0  0
  1  2  1  0
  2  3  2  0
  2  4  2  0
  2  5  1  0
  5  6  1  0
  6  7  2  0
  7  8  1  0
  8  9  2  0
  9 10  1  0
 10 11  1  0
 11 12  1  0
 12 13  2  0
 12 14  2  0
 12 15  1  0
 15 16  2  0
 16 17  1  0
 17 18  2  0
 18 19  1  0
 19 20  1  0
 20 21  2  0
 21 22  1  0
 22 23  1  0
 22 24  2  0
 24 25  1  0
 25 26  1  0
 25 27  2  0
 19 28  2  0
 10 29  2  0
 29 30  1  0
 29  6  1  0
 28 15  1  0
 27 20  1  0
  1 31  1  0
  1 32  1  0
  1 33  1  0
  7 34  1  0
  8 35  1  0
  9 36  1  0
 16 37  1  0
 17 38  1  0
 18 39  1  0
 21 40  1  0
 24 41  1  0
 27 42  1  0
 28 43  1  0
M  CHG  3   5  -1  11  -1  30  -1
M  END
>  <UniqueID>  (4) 
4

>  <SMILES>  (4) 
CS(=O)(=O)[N-]c1cccc([N-]S(=O)(=O)c2cccc(-c3cc(Cl)cc(Cl)c3)c2)c1[O-]

>  <Energy>  (4) 
57.90633301086628

>  <Genealogy>  (4) 
CS(=O)(=O)[N-]c1cccc([N-]S(=O)(=O)c2cccc(-c3cc(Cl)cc(Cl)c3)c2)c1[O-] (protonated)
CS(=O)(=O)[N-]c1cccc([N-]S(=O)(=O)c2cccc(-c3cc(Cl)cc(Cl)c3)c2)c1[O-] (3D coordinates assigned)
CS(=O)(=O)[N-]c1cccc([N-]S(=O)(=O)c2cccc(-c3cc(Cl)cc(Cl)c3)c2)c1[O-] (optimized conformer: 57.90633301086628 kcal/mol)

>  <smiles>  (4) 
CS(=O)(=O)Nc1cccc(NS(=O)(=O)c2cccc(-c3cc(Cl)cc(Cl)c3)c2)c1O

>  <score_type>  (4) 
oracle

>  <origin>  (4) 
adg

>  <m_score__min__energy>  (4) 
-17.43

>  <m_primary>  (4) 
energy

$$$$
4:0
     RDKit          3D

 55 57  0  0  1  0  0  0  0  0999 V2000
   59.7910   35.0390   46.2780 C   0  0  0  0  0  0  0  0  0  0  0  0
   59.8150   33.7240   45.8820 O   0  0  0  0  0  0  0  0  0  0  0  0
   58.9570   32.9330   46.5960 C   0  0  0  0  0  0  0  0  0  0  0  0
   57.4920   33.1550   46.2000 C   0  0  0  0  0  0  0  0  0  0  0  0
   57.3860   33.4560   44.7380 C   0  0  0  0  0  0  0  0  0  0  0  0
   58.1510   32.4890   43.9710 N   0  0  0  0  0  0  0  0  0  0  0  0
   57.3260   30.9460   44.0360 S   0  0  0  0  0  0  0  0  0  0  0  0
   55.9680   31.1440   44.5970 O   0  0  0  0  0  0  0  0  0  0  0  0
   57.2080   30.4670   42.6300 O   0  0  0  0  0  0  0  0  0  0  0  0
   58.2770   29.8150   44.9890 C   0  0  0  0  0  0  0  0  0  0  0  0
   59.3780   29.1640   44.4770 C   0  0  0  0  0  0  0  0  0  0  0  0
   60.0400   28.2520   45.3060 C   0  0  0  0  0  0  0  0  0  0  0  0
   59.5960   28.0120   46.6120 C   0  0  0  0  0  0  0  0  0  0  0  0
   60.2390   26.9890   47.4550 C   0  0  0  0  0  0  0  0  0  0  0  0
   60.6610   25.9830   46.7650 O   0  0  0  0  0  0  0  0  0  0  0  0
   60.3950   27.0830   48.8470 N   0  0  0  0  0  0  0  0  0  0  0  0
   60.6220   28.1720   49.4940 C   0  0  0  0  0  0  0  0  0  0  0  0
   61.1940   29.2860   48.9100 C   0  0  0  0  0  0  0  0  0  0  0  0
   61.3530   30.4850   49.5790 C   0  0  0  0  0  0  0  0  0  0  0  0
   61.9280   31.6640   48.9250 C   0  0  0  0  0  0  0  0  0  0  0  0
   62.7710   31.5530   47.8330 C   0  0  0  0  0  0  0  0  0  0  0  0
   63.3090   32.6680   47.1910 C   0  0  0  0  0  0  0  0  0  0  0  0
   62.9960   33.9530   47.6510 C   0  0  0  0  0  0  0  0  0  0  0  0
   62.1600   34.0750   48.7370 C   0  0  0  0  0  0  0  0  0  0  0  0
   61.6490   32.9520   49.3440 C   0  0  0  0  0  0  0  0  0  0  0  0
   60.9120   30.5090   50.8570 N   0  0  0  0  0  0  0  0  0  0  0  0
   60.3520   29.4410   51.4570 C   0  0  0  0  0  0  0  0  0  0  0  0
   59.8800   29.5480   52.8750 C   0  0  0  0  0  0  0  0  0  0  0  0
   60.2030   28.2690   50.7850 N   0  0  0  0  0  0  0  0  0  0  0  0
   58.4790   28.6780   47.1250 C   0  0  0  0  0  0  0  0  0  0  0  0
   57.8420   29.5710   46.2900 C   0  0  0  0  0  0  0  0  0  0  0  0
   59.7900   35.0911   47.3768 H   0  0  0  0  0  0  0  0  0  0  0  0
   60.6799   35.5559   45.8872 H   0  0  0  0  0  0  0  0  0  0  0  0
   58.8839   35.5231   45.8872 H   0  0  0  0  0  0  0  0  0  0  0  0
   59.2158   31.8790   46.4166 H   0  0  0  0  0  0  0  0  0  0  0  0
   59.0615   33.1980   47.6585 H   0  0  0  0  0  0  0  0  0  0  0  0
   56.9140   32.2467   46.4258 H   0  0  0  0  0  0  0  0  0  0  0  0
   57.0941   34.0079   46.7694 H   0  0  0  0  0  0  0  0  0  0  0  0
   56.3303   33.4088   44.4328 H   0  0  0  0  0  0  0  0  0  0  0  0
   57.7866   34.4628   44.5485 H   0  0  0  0  0  0  0  0  0  0  0  0
   59.1270   32.3440   44.3780 H   0  0  0  0  0  0  0  0  0  0  0  0
   59.7249   29.3549   43.4507 H   0  0  0  0  0  0  0  0  0  0  0  0
   60.9221   27.7157   44.9263 H   0  0  0  0  0  0  0  0  0  0  0  0
   61.5377   29.2156   47.8675 H   0  0  0  0  0  0  0  0  0  0  0  0
   63.0255   30.5505   47.4585 H   0  0  0  0  0  0  0  0  0  0  0  0
   63.9767   32.5385   46.3265 H   0  0  0  0  0  0  0  0  0  0  0  0
   63.4089   34.8442   47.1557 H   0  0  0  0  0  0  0  0  0  0  0  0
   61.9000   35.0727   49.1203 H   0  0  0  0  0  0  0  0  0  0  0  0
   60.9827   33.0853   50.2091 H   0  0  0  0  0  0  0  0  0  0  0  0
   60.9860   31.3650   51.4410 H   0  0  0  0  0  0  0  0  0  0  0  0
   60.7217   29.3572   53.5570 H   0  0  0  0  0  0  0  0  0  0  0  0
   59.4845   30.5586   53.0545 H   0  0  0  0  0  0  0  0  0  0  0  0
   59.0873   28.8068   53.0545 H   0  0  0  0  0  0  0  0  0  0  0  0
   58.1238   28.4973   48.1503 H   0  0  0  0  0  0  0  0  0  0  0  0
   56.9591   30.1100   46.6641 H   0  0  0  0  0  0  0  0  0  0  0  0
  1  2  1  0
  2  3  1  0
  3  4  1  0
  4  5  1  0
  5  6  1  0
  6  7  1  0
  7  8  2  0
  7  9  2  0
  7 10  1  0
 10 11  2  0
 11 12  1  0
 12 13  2  0
 13 14  1  0
 14 15  2  0
 14 16  1  0
 16 17  2  0
 17 18  1  0
 18 19  2  0
 19 20  1  0
 20 21  2  0
 21 22  1  0
 22 23  2  0
 23 24  1  0
 24 25  2  0
 19 26  1  0
 26 27  1  0
 27 28  1  0
 27 29  2  0
 13 30  1  0
 30 31  2  0
 31 10  1  0
 29 17  1  0
 25 20  1  0
  1 32  1  0
  1 33  1  0
  1 34  1  0
  3 35  1  0
  3 36  1  0
  4 37  1  0
  4 38  1  0
  5 39  1  0
  5 40  1  0
  6 41  1  0
 11 42  1  0
 12 43  1  0
 18 44  1  0
 21 45  1  0
 22 46  1  0
 23 47  1  0
 24 48  1  0
 25 49  1  0
 26 50  1  0
 28 51  1  0
 28 52  1  0
 28 53  1  0
 30 54  1  0
 31 55  1  0
M  END
>  <smiles>  (5) 
COCCCNS(=O)(=O)c1ccc(C(=O)N=c2cc(-c3ccccc3)[nH]c(C)n2)cc1

>  <score_type>  (5) 
oracle

>  <origin>  (5) 
adg

>  <m_score__min__energy>  (5) 
-10.289999999999999

>  <m_primary>  (5) 
energy

$$$$
5:0
     RDKit          3D

 57 60  0  0  0  0  0  0  0  0999 V2000
   58.8630   32.7460   48.7520 C   0  0  0  0  0  0  0  0  0  0  0  0
   59.8130   33.2640   47.7680 N   0  0  0  0  0  0  0  0  0  0  0  0
   61.2310   33.1960   48.0220 C   0  0  0  0  0  0  0  0  0  0  0  0
   62.0670   32.4150   47.2050 C   0  0  0  0  0  0  0  0  0  0  0  0
   63.4420   32.3540   47.4500 C   0  0  0  0  0  0  0  0  0  0  0  0
   63.9970   33.0670   48.5140 C   0  0  0  0  0  0  0  0  0  0  0  0
   63.1760   33.8410   49.3380 C   0  0  0  0  0  0  0  0  0  0  0  0
   61.8000   33.9050   49.0980 C   0  0  0  0  0  0  0  0  0  0  0  0
   59.2070   33.9860   46.3040 S   0  0  0  0  0  0  0  0  0  0  0  0
   58.1140   34.9620   46.6400 O   0  0  0  0  0  0  0  0  0  0  0  0
   60.3090   34.7470   45.6200 O   0  0  0  0  0  0  0  0  0  0  0  0
   58.5740   32.7420   45.2300 C   0  0  0  0  0  0  0  0  0  0  0  0
   58.1360   33.0850   43.9450 C   0  0  0  0  0  0  0  0  0  0  0  0
   57.6450   32.1010   43.0840 C   0  0  0  0  0  0  0  0  0  0  0  0
   57.5770   30.7710   43.5040 C   0  0  0  0  0  0  0  0  0  0  0  0
   57.9860   30.4140   44.7980 C   0  0  0  0  0  0  0  0  0  0  0  0
   57.9130   29.0400   45.2100 N   0  0  0  0  0  0  0  0  0  0  0  0
   56.6810   28.3120   45.3390 C   0  0  0  0  0  0  0  0  0  0  0  0
   55.6030   28.7920   44.8970 O   0  0  0  0  0  0  0  0  0  0  0  0
   56.6650   26.9720   46.0030 C   0  0  0  0  0  0  0  0  0  0  0  0
   58.1070   26.0090   45.4490 S   0  0  0  0  0  0  0  0  0  0  0  0
   59.1870   26.7040   46.6940 C   0  0  0  0  0  0  0  0  0  0  0  0
   60.3970   26.2070   47.0040 N   0  0  0  0  0  0  0  0  0  0  0  0
   60.8800   26.9860   47.9590 N   0  0  0  0  0  0  0  0  0  0  0  0
   59.9430   27.9270   48.1940 C   0  0  0  0  0  0  0  0  0  0  0  0
   60.0730   29.0050   49.1950 C   0  0  0  0  0  0  0  0  0  0  0  0
   61.3050   29.6550   49.3740 C   0  0  0  0  0  0  0  0  0  0  0  0
   61.4310   30.6840   50.3110 C   0  0  0  0  0  0  0  0  0  0  0  0
   60.3300   31.0680   51.0820 C   0  0  0  0  0  0  0  0  0  0  0  0
   59.0980   30.4220   50.9210 C   0  0  0  0  0  0  0  0  0  0  0  0
   57.7140   30.9220   51.8880 S   0  0  0  0  0  0  0  0  0  0  0  0
   56.6020   29.6060   52.0400 N   0  0  0  0  0  0  0  0  0  0  0  0
   58.1840   31.3420   53.2530 O   0  0  0  0  0  0  0  0  0  0  0  0
   57.0100   32.0750   51.2260 O   0  0  0  0  0  0  0  0  0  0  0  0
   58.9700   29.3950   49.9740 C   0  0  0  0  0  0  0  0  0  0  0  0
   58.9000   27.7580   47.4180 O   0  0  0  0  0  0  0  0  0  0  0  0
   58.5100   31.4040   45.6500 C   0  0  0  0  0  0  0  0  0  0  0  0
   59.2374   32.9502   49.7660 H   0  0  0  0  0  0  0  0  0  0  0  0
   57.8886   33.2377   48.6151 H   0  0  0  0  0  0  0  0  0  0  0  0
   58.7485   31.6606   48.6151 H   0  0  0  0  0  0  0  0  0  0  0  0
   61.6361   31.8478   46.3668 H   0  0  0  0  0  0  0  0  0  0  0  0
   64.0881   31.7427   46.8028 H   0  0  0  0  0  0  0  0  0  0  0  0
   65.0795   33.0196   48.7035 H   0  0  0  0  0  0  0  0  0  0  0  0
   63.6132   34.4014   50.1776 H   0  0  0  0  0  0  0  0  0  0  0  0
   61.1582   34.5124   49.7531 H   0  0  0  0  0  0  0  0  0  0  0  0
   58.1788   34.1327   43.6126 H   0  0  0  0  0  0  0  0  0  0  0  0
   57.3109   32.3745   42.0723 H   0  0  0  0  0  0  0  0  0  0  0  0
   57.2008   29.9989   42.8167 H   0  0  0  0  0  0  0  0  0  0  0  0
   58.8110   28.5210   45.3460 H   0  0  0  0  0  0  0  0  0  0  0  0
   56.7074   27.1022   47.0944 H   0  0  0  0  0  0  0  0  0  0  0  0
   55.7408   26.4389   45.7351 H   0  0  0  0  0  0  0  0  0  0  0  0
   62.1755   29.3525   48.7734 H   0  0  0  0  0  0  0  0  0  0  0  0
   62.3976   31.1924   50.4420 H   0  0  0  0  0  0  0  0  0  0  0  0
   60.4316   31.8799   51.8172 H   0  0  0  0  0  0  0  0  0  0  0  0
   57.1640   28.7270   52.0080 H   0  0  0  0  0  0  0  0  0  0  0  0
   58.0009   28.8921   49.8403 H   0  0  0  0  0  0  0  0  0  0  0  0
   58.8717   31.1276   46.6514 H   0  0  0  0  0  0  0  0  0  0  0  0
  1  2  1  0
  2  3  1  0
  3  4  2  0
  4  5  1  0
  5  6  2  0
  6  7  1  0
  7  8  2  0
  2  9  1  0
  9 10  2  0
  9 11  2  0
  9 12  1  0
 12 13  2  0
 13 14  1  0
 14 15  2  0
 15 16  1  0
 16 17  1  0
 17 18  1  0
 18 19  2  0
 18 20  1  0
 20 21  1  0
 21 22  1  0
 22 23  2  0
 23 24  1  0
 24 25  2  0
 25 26  1  0
 26 27  2  0
 27 28  1  0
 28 29  2  0
 29 30  1  0
 30 31  1  0
 31 32  1  0
 31 33  2  0
 31 34  2  0
 30 35  2  0
 25 36  1  0
 16 37  2  0
  8  3  1  0
 37 12  1  0
 36 22  1  0
 35 26  1  0
  1 38  1  0
  1 39  1  0
  1 40  1  0
  4 41  1  0
  5 42  1  0
  6 43  1  0
  7 44  1  0
  8 45  1  0
 13 46  1  0
 14 47  1  0
 15 48  1  0
 17 49  1  0
 20 50  1  0
 20 51  1  0
 27 52  1  0
 28 53  1  0
 29 54  1  0
 32 55  1  0
 35 56  1  0
 37 57  1  0
M  CHG  1  32  -1
M  END
>  <UniqueID>  (6) 
5

>  <SMILES>  (6) 
CN(c1ccccc1)S(=O)(=O)c1cccc(NC(=O)CSc2nnc(-c3cccc(S([NH-])(=O)=O)c3)o2)c1

>  <Energy>  (6) 
98.50742997066305

>  <Genealogy>  (6) 
CN(c1ccccc1)S(=O)(=O)c1cccc(NC(=O)CSc2nnc(-c3cccc(S([NH-])(=O)=O)c3)o2)c1 (protonated)
CN(c1ccccc1)S(=O)(=O)c1cccc(NC(=O)CSc2nnc(-c3cccc(S([NH-])(=O)=O)c3)o2)c1 (3D coordinates assigned)
CN(c1ccccc1)S(=O)(=O)c1cccc(NC(=O)CSc2nnc(-c3cccc(S([NH-])(=O)=O)c3)o2)c1 (optimized conformer: 98.50742997066305 kcal/mol)

>  <smiles>  (6) 
CN(c1ccccc1)S(=O)(=O)c1cccc(NC(=O)CSc2nnc(-c3cccc(S(N)(=O)=O)c3)o2)c1

>  <score_type>  (6) 
oracle

>  <origin>  (6) 
adg

>  <m_score__min__energy>  (6) 
-13.119999999999999

>  <m_primary>  (6) 
energy

$$$$
6:0
     RDKit          3D

 43 45  0  0  1  0  0  0  0  0999 V2000
   58.9870   34.9710   44.8820 C   0  0  0  0  0  0  0  0  0  0  0  0
   58.3740   33.6630   44.5330 C   0  0  0  0  0  0  0  0  0  0  0  0
   58.5620   32.8000   43.6060 N   0  0  0  0  0  0  0  0  0  0  0  0
   57.9100   31.7160   43.4860 N   0  0  0  0  0  0  0  0  0  0  0  0
   56.9630   31.4260   44.3610 C   0  0  0  0  0  0  0  0  0  0  0  0
   56.1730   30.4620   44.5020 N   0  0  0  0  0  0  0  0  0  0  0  0
   56.6580   29.1750   44.7930 C   0  0  0  0  0  0  0  0  0  0  0  0
   55.8990   28.2690   45.2480 O   0  0  0  0  0  0  0  0  0  0  0  0
   58.1040   28.8880   44.5550 C   0  0  0  0  0  0  0  0  0  0  0  0
   58.8650   29.0510   45.8450 C   0  0  0  0  0  0  0  0  0  0  0  0
   59.4780   27.9290   46.4020 C   0  0  0  0  0  0  0  0  0  0  0  0
   60.1730   28.0890   47.5830 C   0  0  0  0  0  0  0  0  0  0  0  0
   60.2750   29.3010   48.2110 C   0  0  0  0  0  0  0  0  0  0  0  0
   59.6700   30.4040   47.6600 C   0  0  0  0  0  0  0  0  0  0  0  0
   59.7790   31.9610   48.4290 S   0  0  0  0  0  0  0  0  0  0  0  0
   59.5650   31.7910   49.9050 O   0  0  0  0  0  0  0  0  0  0  0  0
   58.6410   32.8010   47.8700 O   0  0  0  0  0  0  0  0  0  0  0  0
   61.2100   32.8000   48.1640 N   0  0  0  0  0  0  0  0  0  0  0  0
   61.3370   33.5200   46.9620 C   0  0  0  0  0  0  0  0  0  0  0  0
   62.7410   33.7610   46.4980 C   0  0  0  0  0  0  0  0  0  0  0  0
   63.5720   32.6880   46.8270 O   0  0  0  0  0  0  0  0  0  0  0  0
   63.6650   32.6500   48.2050 C   0  0  0  0  0  0  0  0  0  0  0  0
   62.3480   32.4500   48.9020 C   0  0  0  0  0  0  0  0  0  0  0  0
   58.9680   30.2690   46.4760 C   0  0  0  0  0  0  0  0  0  0  0  0
   57.0260   32.8890   45.4840 S   0  0  0  0  0  0  0  0  0  0  0  0
   59.0349   35.0732   45.9762 H   0  0  0  0  0  0  0  0  0  0  0  0
   60.0032   35.0229   44.4641 H   0  0  0  0  0  0  0  0  0  0  0  0
   58.3767   35.7851   44.4641 H   0  0  0  0  0  0  0  0  0  0  0  0
   58.1140   31.0190   42.6770 H   0  0  0  0  0  0  0  0  0  0  0  0
   58.2182   27.8569   44.1892 H   0  0  0  0  0  0  0  0  0  0  0  0
   58.4990   29.5882   43.8042 H   0  0  0  0  0  0  0  0  0  0  0  0
   59.4094   26.9455   45.9141 H   0  0  0  0  0  0  0  0  0  0  0  0
   60.6615   27.2133   48.0351 H   0  0  0  0  0  0  0  0  0  0  0  0
   60.8383   29.3910   49.1515 H   0  0  0  0  0  0  0  0  0  0  0  0
   60.8116   32.9597   46.1746 H   0  0  0  0  0  0  0  0  0  0  0  0
   60.9102   34.5143   47.1599 H   0  0  0  0  0  0  0  0  0  0  0  0
   62.7405   33.8929   45.4059 H   0  0  0  0  0  0  0  0  0  0  0  0
   63.1231   34.6637   46.9971 H   0  0  0  0  0  0  0  0  0  0  0  0
   64.3331   31.8218   48.4838 H   0  0  0  0  0  0  0  0  0  0  0  0
   64.0486   33.6300   48.5250 H   0  0  0  0  0  0  0  0  0  0  0  0
   62.2644   31.3858   49.1673 H   0  0  0  0  0  0  0  0  0  0  0  0
   62.3623   33.1266   49.7692 H   0  0  0  0  0  0  0  0  0  0  0  0
   58.4837   31.1508   46.0312 H   0  0  0  0  0  0  0  0  0  0  0  0
  1  2  1  0
  2  3  2  0
  3  4  1  0
  4  5  1  0
  5  6  2  0
  6  7  1  0
  7  8  2  0
  7  9  1  0
  9 10  1  0
 10 11  2  0
 11 12  1  0
 12 13  2  0
 13 14  1  0
 14 15  1  0
 15 16  2  0
 15 17  2  0
 15 18  1  0
 18 19  1  0
 19 20  1  0
 20 21  1  0
 21 22  1  0
 22 23  1  0
 14 24  2  0
  5 25  1  0
 25  2  1  0
 24 10  1  0
 23 18  1  0
  1 26  1  0
  1 27  1  0
  1 28  1  0
  4 29  1  0
  9 30  1  0
  9 31  1  0
 11 32  1  0
 12 33  1  0
 13 34  1  0
 19 35  1  0
 19 36  1  0
 20 37  1  0
 20 38  1  0
 22 39  1  0
 22 40  1  0
 23 41  1  0
 23 42  1  0
 24 43  1  0
M  END
>  <smiles>  (7) 
Cc1n[nH]c(=NC(=O)Cc2cccc(S(=O)(=O)N3CCOCC3)c2)s1

>  <score_type>  (7) 
oracle

>  <origin>  (7) 
adg

>  <m_score__min__energy>  (7) 
-9.8399999999999999

>  <m_primary>  (7) 
energy

$$$$
7:0
     RDKit          3D

 44 46  0  0  0  0  0  0  0  0999 V2000
   64.0540   32.7350   49.4830 C   0  0  0  0  0  0  0  0  0  0  0  0
   62.9480   33.2200   48.5920 C   0  0  0  0  0  0  0  0  0  0  0  0
   61.7800   33.7670   49.1450 C   0  0  0  0  0  0  0  0  0  0  0  0
   60.7380   34.1880   48.3140 C   0  0  0  0  0  0  0  0  0  0  0  0
   60.8450   34.0570   46.9240 C   0  0  0  0  0  0  0  0  0  0  0  0
   59.5320   34.6200   45.8920 S   0  0  0  0  0  0  0  0  0  0  0  0
   59.6650   36.0950   45.6300 O   0  0  0  0  0  0  0  0  0  0  0  0
   59.5950   33.8940   44.5770 O   0  0  0  0  0  0  0  0  0  0  0  0
   58.0090   34.2880   46.6610 N   0  0  0  0  0  0  0  0  0  0  0  0
   58.0060   32.9610   47.2750 C   0  0  0  0  0  0  0  0  0  0  0  0
   58.2720   31.9250   46.2310 C   0  0  0  0  0  0  0  0  0  0  0  0
   57.4050   31.7040   45.3440 O   0  0  0  0  0  0  0  0  0  0  0  0
   59.4870   31.1620   46.2910 N   0  0  0  0  0  0  0  0  0  0  0  0
   59.5750   29.8810   46.4890 C   0  0  0  0  0  0  0  0  0  0  0  0
   59.8370   29.3060   47.6840 N   0  0  0  0  0  0  0  0  0  0  0  0
   59.8700   27.9770   47.6250 N   0  0  0  0  0  0  0  0  0  0  0  0
   59.6230   27.4920   46.3870 C   0  0  0  0  0  0  0  0  0  0  0  0
   59.6620   26.0370   46.0500 C   0  0  0  0  0  0  0  0  0  0  0  0
   58.2660   25.4870   45.9720 C   0  0  0  0  0  0  0  0  0  0  0  0
   58.0530   24.1020   45.9050 C   0  0  0  0  0  0  0  0  0  0  0  0
   56.7520   23.5900   45.8660 C   0  0  0  0  0  0  0  0  0  0  0  0
   55.6520   24.4520   45.9040 C   0  0  0  0  0  0  0  0  0  0  0  0
   54.3660   23.9160   45.8630 O   0  0  0  0  0  0  0  0  0  0  0  0
   55.8590   25.8390   45.9860 C   0  0  0  0  0  0  0  0  0  0  0  0
   54.7780   26.7120   46.0360 O   0  0  0  0  0  0  0  0  0  0  0  0
   57.1600   26.3510   46.0220 C   0  0  0  0  0  0  0  0  0  0  0  0
   59.3690   28.7360   45.2750 S   0  0  0  0  0  0  0  0  0  0  0  0
   62.0050   33.5020   46.3690 C   0  0  0  0  0  0  0  0  0  0  0  0
   63.0480   33.0770   47.2000 C   0  0  0  0  0  0  0  0  0  0  0  0
   63.7603   32.8638   50.5352 H   0  0  0  0  0  0  0  0  0  0  0  0
   64.2455   31.6703   49.2834 H   0  0  0  0  0  0  0  0  0  0  0  0
   64.9669   33.3154   49.2834 H   0  0  0  0  0  0  0  0  0  0  0  0
   61.6842   33.8648   50.2364 H   0  0  0  0  0  0  0  0  0  0  0  0
   59.8293   34.6244   48.7542 H   0  0  0  0  0  0  0  0  0  0  0  0
   58.7887   32.9128   48.0464 H   0  0  0  0  0  0  0  0  0  0  0  0
   57.0243   32.7732   47.7343 H   0  0  0  0  0  0  0  0  0  0  0  0
   60.1610   25.9018   45.0791 H   0  0  0  0  0  0  0  0  0  0  0  0
   60.2167   25.5008   46.8341 H   0  0  0  0  0  0  0  0  0  0  0  0
   58.9126   23.4160   45.8830 H   0  0  0  0  0  0  0  0  0  0  0  0
   56.5935   22.5032   45.8051 H   0  0  0  0  0  0  0  0  0  0  0  0
   53.5400   24.5010   45.8350 H   0  0  0  0  0  0  0  0  0  0  0  0
   57.3180   27.4375   46.0899 H   0  0  0  0  0  0  0  0  0  0  0  0
   62.0965   33.3999   45.2776 H   0  0  0  0  0  0  0  0  0  0  0  0
   63.9507   32.6286   46.7594 H   0  0  0  0  0  0  0  0  0  0  0  0
  1  2  1  0
  2  3  2  0
  3  4  1  0
  4  5  2  0
  5  6  1  0
  6  7  2  0
  6  8  2  0
  6  9  1  0
  9 10  1  0
 10 11  1  0
 11 12  2  0
 11 13  1  0
 13 14  2  3
 14 15  1  0
 15 16  1  0
 16 17  2  0
 17 18  1  0
 18 19  1  0
 19 20  2  0
 20 21  1  0
 21 22  2  0
 22 23  1  0
 22 24  1  0
 24 25  1  0
 24 26  2  0
 17 27  1  0
  5 28  1  0
 28 29  2  0
 29  2  1  0
 27 14  1  0
 26 19  1  0
  1 30  1  0
  1 31  1  0
  1 32  1  0
  3 33  1  0
  4 34  1  0
 10 35  1  0
 10 36  1  0
 18 37  1  0
 18 38  1  0
 20 39  1  0
 21 40  1  0
 23 41  1  0
 26 42  1  0
 28 43  1  0
 29 44  1  0
M  CHG  3   9  -1  15  -1  25  -1
M  END
>  <UniqueID>  (8) 
6

>  <SMILES>  (8) 
Cc1ccc(S(=O)(=O)[N-]CC(=O)N=c2[n-]nc(Cc3ccc(O)c([O-])c3)s2)cc1

>  <Energy>  (8) 
78.80261177454234

>  <Genealogy>  (8) 
Cc1ccc(S(=O)(=O)[N-]CC(=O)N=c2[n-]nc(Cc3ccc(O)c([O-])c3)s2)cc1 (protonated)
Cc1ccc(S(=O)(=O)[N-]CC(=O)N=c2[n-]nc(Cc3ccc(O)c([O-])c3)s2)cc1 (3D coordinates assigned)
Cc1ccc(S(=O)(=O)[N-]CC(=O)N=c2[n-]nc(Cc3ccc(O)c([O-])c3)s2)cc1 (optimized conformer: 78.80261177454234 kcal/mol)

>  <smiles>  (8) 
Cc1ccc(S(=O)(=O)NCC(=O)N=c2[nH]nc(Cc3ccc(O)c(O)c3)s2)cc1

>  <score_type>  (8) 
oracle

>  <origin>  (8) 
adg

>  <m_score__min__energy>  (8) 
-14.31

>  <m_primary>  (8) 
energy

$$$$
8:0
     RDKit          3D

 58 61  0  0  0  0  0  0  0  0999 V2000
   56.6540   22.1730   42.6500 C   0  0  0  0  0  0  0  0  0  0  0  0
   56.6550   20.9280   43.5320 C   0  0  0  0  0  0  0  0  0  0  0  0
   55.7210   21.0640   44.6020 O   0  0  0  0  0  0  0  0  0  0  0  0
   56.0410   21.1070   45.9700 C   0  0  0  0  0  0  0  0  0  0  0  0
   56.9640   20.2210   46.5590 C   0  0  0  0  0  0  0  0  0  0  0  0
   57.2490   20.3040   47.9260 C   0  0  0  0  0  0  0  0  0  0  0  0
   56.6330   21.2790   48.7120 C   0  0  0  0  0  0  0  0  0  0  0  0
   55.7250   22.1690   48.1350 C   0  0  0  0  0  0  0  0  0  0  0  0
   55.4090   22.0730   46.7700 C   0  0  0  0  0  0  0  0  0  0  0  0
   54.4740   22.9760   46.1760 N   0  0  0  0  0  0  0  0  0  0  0  0
   54.9510   24.3950   45.3000 S   0  0  0  0  0  0  0  0  0  0  0  0
   54.0040   25.5170   45.6230 O   0  0  0  0  0  0  0  0  0  0  0  0
   54.8700   24.1120   43.8270 O   0  0  0  0  0  0  0  0  0  0  0  0
   56.5940   24.8840   45.7020 C   0  0  0  0  0  0  0  0  0  0  0  0
   57.6710   24.0240   45.4550 C   0  0  0  0  0  0  0  0  0  0  0  0
   58.9670   24.4020   45.8060 C   0  0  0  0  0  0  0  0  0  0  0  0
   59.2050   25.6400   46.4200 C   0  0  0  0  0  0  0  0  0  0  0  0
   58.1270   26.5180   46.6550 C   0  0  0  0  0  0  0  0  0  0  0  0
   56.8260   26.1270   46.3070 C   0  0  0  0  0  0  0  0  0  0  0  0
   58.3380   27.8360   47.3620 C   0  0  0  0  0  0  0  0  0  0  0  0
   59.7260   28.3240   47.2710 N   0  0  0  0  0  0  0  0  0  0  0  0
   60.0550   29.0500   45.7130 S   0  0  0  0  0  0  0  0  0  0  0  0
   60.6950   30.3980   45.9010 O   0  0  0  0  0  0  0  0  0  0  0  0
   60.9710   28.1680   44.9090 O   0  0  0  0  0  0  0  0  0  0  0  0
   58.5500   29.2480   44.8740 N   0  0  0  0  0  0  0  0  0  0  0  0
   57.6350   30.3260   45.0980 C   0  0  0  0  0  0  0  0  0  0  0  0
   56.4040   30.0770   45.1830 O   0  0  0  0  0  0  0  0  0  0  0  0
   58.0950   31.7200   45.2140 C   0  0  0  0  0  0  0  0  0  0  0  0
   58.5290   32.2260   46.4560 C   0  0  0  0  0  0  0  0  0  0  0  0
   58.5230   31.2300   47.9090 Cl  0  0  0  0  0  0  0  0  0  0  0  0
   58.9670   33.5520   46.5540 C   0  0  0  0  0  0  0  0  0  0  0  0
   58.9750   34.3770   45.4280 C   0  0  0  0  0  0  0  0  0  0  0  0
   58.5410   33.8830   44.1950 C   0  0  0  0  0  0  0  0  0  0  0  0
   58.0990   32.5610   44.0810 C   0  0  0  0  0  0  0  0  0  0  0  0
   57.5850   31.9760   42.5020 Cl  0  0  0  0  0  0  0  0  0  0  0  0
   60.7010   27.2800   47.6340 C   0  0  0  0  0  0  0  0  0  0  0  0
   60.6240   26.0510   46.7190 C   0  0  0  0  0  0  0  0  0  0  0  0
   56.6533   23.0717   43.2843 H   0  0  0  0  0  0  0  0  0  0  0  0
   57.5521   22.1732   42.0149 H   0  0  0  0  0  0  0  0  0  0  0  0
   55.7559   22.1717   42.0149 H   0  0  0  0  0  0  0  0  0  0  0  0
   56.3806   20.0542   42.9227 H   0  0  0  0  0  0  0  0  0  0  0  0
   57.6612   20.7979   43.9569 H   0  0  0  0  0  0  0  0  0  0  0  0
   57.4632   19.4601   45.9410 H   0  0  0  0  0  0  0  0  0  0  0  0
   57.9600   19.5995   48.3823 H   0  0  0  0  0  0  0  0  0  0  0  0
   56.8627   21.3463   49.7856 H   0  0  0  0  0  0  0  0  0  0  0  0
   55.2551   22.9488   48.7523 H   0  0  0  0  0  0  0  0  0  0  0  0
   57.4944   23.0465   44.9824 H   0  0  0  0  0  0  0  0  0  0  0  0
   59.8083   23.7241   45.5997 H   0  0  0  0  0  0  0  0  0  0  0  0
   55.9809   26.8011   46.5104 H   0  0  0  0  0  0  0  0  0  0  0  0
   57.6725   28.5864   46.9102 H   0  0  0  0  0  0  0  0  0  0  0  0
   58.1149   27.6767   48.4273 H   0  0  0  0  0  0  0  0  0  0  0  0
   59.3066   33.9458   47.5233 H   0  0  0  0  0  0  0  0  0  0  0  0
   59.3233   35.4171   45.5114 H   0  0  0  0  0  0  0  0  0  0  0  0
   58.5470   34.5367   43.3103 H   0  0  0  0  0  0  0  0  0  0  0  0
   61.7131   27.7055   47.5666 H   0  0  0  0  0  0  0  0  0  0  0  0
   60.4655   26.9476   48.6558 H   0  0  0  0  0  0  0  0  0  0  0  0
   61.1303   26.2851   45.7709 H   0  0  0  0  0  0  0  0  0  0  0  0
   61.1103   25.2146   47.2424 H   0  0  0  0  0  0  0  0  0  0  0  0
  1  2  1  0
  2  3  1  0
  3  4  1  0
  4  5  2  0
  5  6  1  0
  6  7  2  0
  7  8  1  0
  8  9  2  0
  9 10  1  0
 10 11  1  0
 11 12  2  0
 11 13  2  0
 11 14  1  0
 14 15  2  0
 15 16  1  0
 16 17  2  0
 17 18  1  0
 18 19  2  0
 18 20  1  0
 20 21  1  0
 21 22  1  0
 22 23  2  0
 22 24  2  0
 22 25  1  0
 25 26  1  0
 26 27  2  0
 26 28  1  0
 28 29  2  0
 29 30  1  0
 29 31  1  0
 31 32  2  0
 32 33  1  0
 33 34  2  0
 34 35  1  0
 21 36  1  0
 36 37  1  0
  9  4  1  0
 19 14  1  0
 34 28  1  0
 37 17  1  0
  1 38  1  0
  1 39  1  0
  1 40  1  0
  2 41  1  0
  2 42  1  0
  5 43  1  0
  6 44  1  0
  7 45  1  0
  8 46  1  0
 15 47  1  0
 16 48  1  0
 19 49  1  0
 20 50  1  0
 20 51  1  0
 31 52  1  0
 32 53  1  0
 33 54  1  0
 36 55  1  0
 36 56  1  0
 37 57  1  0
 37 58  1  0
M  CHG  2  10  -1  25  -1
M  END
>  <UniqueID>  (9) 
7

>  <SMILES>  (9) 
CCOc1ccccc1[N-]S(=O)(=O)c1ccc2c(c1)CN(S(=O)(=O)[N-]C(=O)c1c(Cl)cccc1Cl)CC2

>  <Energy>  (9) 
81.35473821724722

>  <Genealogy>  (9) 
CCOc1ccccc1[N-]S(=O)(=O)c1ccc2c(c1)CN(S(=O)(=O)[N-]C(=O)c1c(Cl)cccc1Cl)CC2 (protonated)
CCOc1ccccc1[N-]S(=O)(=O)c1ccc2c(c1)CN(S(=O)(=O)[N-]C(=O)c1c(Cl)cccc1Cl)CC2 (3D coordinates assigned)
CCOc1ccccc1[N-]S(=O)(=O)c1ccc2c(c1)CN(S(=O)(=O)[N-]C(=O)c1c(Cl)cccc1Cl)CC2 (nonaromatic ring conformer: 81.35473821724722 kcal/mol)

>  <smiles>  (9) 
CCOc1ccccc1NS(=O)(=O)c1ccc2c(c1)CN(S(=O)(=O)NC(=O)c1c(Cl)cccc1Cl)CC2

>  <score_type>  (9) 
oracle

>  <origin>  (9) 
adg

>  <m_score__min__energy>  (9) 
-13.300000000000001

>  <m_primary>  (9) 
energy

$$$$
9:0
     RDKit          3D

 46 49  0  0  0  0  0  0  0  0999 V2000
   57.7820   31.1230   44.9380 H   0  0  0  0  0  0  0  0  0  0  0  0
   56.8990   31.5770   44.9220 O   0  0  0  0  0  0  0  0  0  0  0  0
   57.1200   32.9030   45.3230 C   0  0  0  0  0  0  0  0  0  0  0  0
   56.7345   33.0412   46.3439 H   0  0  0  0  0  0  0  0  0  0  0  0
   56.5995   33.5763   44.6260 H   0  0  0  0  0  0  0  0  0  0  0  0
   58.6290   33.2320   45.3010 C   0  0  2  0  0  0  0  0  0  0  0  0
   58.9056   33.1799   44.2376 H   0  0  0  0  0  0  0  0  0  0  0  0
   59.4470   32.2310   46.0010 N   0  0  0  0  0  0  0  0  0  0  0  0
   59.1730   31.1460   46.6740 C   0  0  0  0  0  0  0  0  0  0  0  0
   59.1460   31.2260   48.0330 N   0  0  0  0  0  0  0  0  0  0  0  0
   58.8600   30.1340   48.8090 C   0  0  0  0  0  0  0  0  0  0  0  0
   58.8580   30.2130   50.1080 N   0  0  0  0  0  0  0  0  0  0  0  0
   58.8220   31.4130   50.9010 C   0  0  0  0  0  0  0  0  0  0  0  0
   59.9240   32.2750   50.8660 C   0  0  0  0  0  0  0  0  0  0  0  0
   60.7818   32.0382   50.2194 H   0  0  0  0  0  0  0  0  0  0  0  0
   59.9430   33.4340   51.6460 C   0  0  0  0  0  0  0  0  0  0  0  0
   60.8125   34.1066   51.6061 H   0  0  0  0  0  0  0  0  0  0  0  0
   58.8580   33.7440   52.4800 C   0  0  0  0  0  0  0  0  0  0  0  0
   58.8970   34.9670   53.3480 C   0  0  0  0  0  0  0  0  0  0  0  0
   58.8874   34.6662   54.4060 H   0  0  0  0  0  0  0  0  0  0  0  0
   59.8138   35.5372   53.1372 H   0  0  0  0  0  0  0  0  0  0  0  0
   58.0184   35.5944   53.1372 H   0  0  0  0  0  0  0  0  0  0  0  0
   57.7750   32.8560   52.5560 C   0  0  0  0  0  0  0  0  0  0  0  0
   56.9360   33.0732   53.2334 H   0  0  0  0  0  0  0  0  0  0  0  0
   57.7560   31.6970   51.7760 C   0  0  0  0  0  0  0  0  0  0  0  0
   56.9049   31.0036   51.8457 H   0  0  0  0  0  0  0  0  0  0  0  0
   58.6160   28.9320   48.2200 N   0  0  0  0  0  0  0  0  0  0  0  0
   58.6460   28.8600   46.8690 C   0  0  0  0  0  0  0  0  0  0  0  0
   58.4350   27.7560   46.0720 C   0  0  0  0  0  0  0  0  0  0  0  0
   58.1440   26.5130   46.4890 C   0  0  0  0  0  0  0  0  0  0  0  0
   58.9538   25.9347   46.9579 H   0  0  0  0  0  0  0  0  0  0  0  0
   56.8240   25.8590   46.3690 C   0  0  0  0  0  0  0  0  0  0  0  0
   56.5590   24.5650   46.6260 N   0  0  0  0  0  0  0  0  0  0  0  0
   55.2360   24.4580   46.3720 C   0  0  0  0  0  0  0  0  0  0  0  0
   54.6070   23.3750   46.5010 O   0  0  0  0  0  0  0  0  0  0  0  0
   54.6420   25.6000   45.9680 N   0  0  0  0  0  0  0  0  0  0  0  0
   55.6610   26.4750   45.9710 C   0  0  0  0  0  0  0  0  0  0  0  0
   55.5290   27.8130   45.6180 O   0  0  0  0  0  0  0  0  0  0  0  0
   58.6020   28.2570   44.7790 C   0  0  0  0  0  0  0  0  0  0  0  0
   58.5105   27.6685   43.8542 H   0  0  0  0  0  0  0  0  0  0  0  0
   58.8940   29.5790   44.8380 N   0  0  0  0  0  0  0  0  0  0  0  0
   58.9140   29.9290   46.1110 N   0  0  0  0  0  0  0  0  0  0  0  0
   58.9630   34.6620   45.7450 C   0  0  0  0  0  0  0  0  0  0  0  0
   58.9746   34.7115   46.8438 H   0  0  0  0  0  0  0  0  0  0  0  0
   59.9516   34.9456   45.3548 H   0  0  0  0  0  0  0  0  0  0  0  0
   58.2024   35.3542   45.3548 H   0  0  0  0  0  0  0  0  0  0  0  0
  1  2  1  0
  2  3  1  0
  3  4  1  0
  3  5  1  0
  3  6  1  0
  6  7  1  6
  6  8  1  0
  8  9  2  3
  9 10  1  0
 10 11  1  0
 11 12  2  0
 12 13  1  0
 13 14  2  0
 14 15  1  0
 14 16  1  0
 16 17  1  0
 16 18  2  0
 18 19  1  0
 19 20  1  0
 19 21  1  0
 19 22  1  0
 18 23  1  0
 23 24  1  0
 23 25  2  0
 25 26  1  0
 11 27  1  0
 27 28  2  0
 28 29  1  0
 29 30  2  0
 30 31  1  0
 30 32  1  0
 32 33  1  0
 33 34  1  0
 34 35  2  0
 34 36  1  0
 36 37  1  0
 37 38  1  0
 29 39  1  0
 39 40  1  0
 39 41  2  0
 41 42  1  0
  6 43  1  0
 43 44  1  0
 43 45  1  0
 43 46  1  0
 42  9  1  0
 25 13  1  0
 42 28  1  0
 37 32  2  0
M  CHG  4  10  -1  33  -1  36  -1  38  -1
M  END
>  <UniqueID>  (10) 
8

>  <SMILES>  (10) 
Cc1ccc(/N=c2/nc3/c(=C/c4[n-]c(=O)[n-]c4[O-])cnn3c(=N[C@H](C)CO)[n-]2)cc1

>  <Energy>  (10) 
135.1223964145834

>  <Genealogy>  (10) 
Cc1ccc(N=c2nc3c(=Cc4[n-]c(=O)[n-]c4[O-])cnn3c(=NC(C)CO)[n-]2)cc1 (protonated)
Cc1ccc(N=c2nc3c(=Cc4[n-]c(=O)[n-]c4[O-])cnn3c(=N[C@H](C)CO)[n-]2)cc1 (chirality)
Cc1ccc(/N=c2/nc3/c(=C/c4[n-]c(=O)[n-]c4[O-])cnn3c(=N[C@H](C)CO)[n-]2)cc1 (cis-trans isomerization)
Cc1ccc(/N=c2/nc3/c(=C/c4[n-]c(=O)[n-]c4[O-])cnn3c(=N[C@H](C)CO)[n-]2)cc1 (3D coordinates assigned)
Cc1ccc(/N=c2/nc3/c(=C/c4[n-]c(=O)[n-]c4[O-])cnn3c(=N[C@H](C)CO)[n-]2)cc1 (optimized conformer: 135.1223964145834 kcal/mol)

>  <smiles>  (10) 
Cc1ccc(N=c2nc3c(=Cc4[nH]c(=O)[nH]c4O)cnn3c(=NC(C)CO)[nH]2)cc1

>  <score_type>  (10) 
oracle

>  <origin>  (10) 
adg

>  <m_score__min__energy>  (10) 
-16.879999999999999

>  <m_primary>  (10) 
energy

$$$$
10:0
     RDKit          3D

 42 44  0  0  1  0  0  0  0  0999 V2000
   59.6950   34.2010   49.0640 C   0  0  0  0  0  0  0  0  0  0  0  0
   59.3790   33.8210   47.6520 C   0  0  0  0  0  0  0  0  0  0  0  0
   59.0390   34.8550   46.8040 C   0  0  0  0  0  0  0  0  0  0  0  0
   58.7310   34.5890   45.4680 C   0  0  0  0  0  0  0  0  0  0  0  0
   58.7880   33.2740   45.0650 C   0  0  0  0  0  0  0  0  0  0  0  0
   59.1270   32.2220   45.8970 C   0  0  0  0  0  0  0  0  0  0  0  0
   59.1520   30.9240   45.3350 N   0  0  0  0  0  0  0  0  0  0  0  0
   58.0290   30.3240   45.1260 C   0  0  0  0  0  0  0  0  0  0  0  0
   57.8140   29.0810   45.6950 C   0  0  0  0  0  0  0  0  0  0  0  0
   56.6290   28.3950   45.4940 C   0  0  0  0  0  0  0  0  0  0  0  0
   56.3590   27.1320   46.0820 N   0  0  0  0  0  0  0  0  0  0  0  0
   56.4870   25.8900   45.4550 C   0  0  0  0  0  0  0  0  0  0  0  0
   55.4500   24.9570   45.5950 C   0  0  0  0  0  0  0  0  0  0  0  0
   55.5150   23.7030   45.0310 C   0  0  0  0  0  0  0  0  0  0  0  0
   56.6310   23.3080   44.2890 C   0  0  0  0  0  0  0  0  0  0  0  0
   56.6440   21.6980   43.6200 S   0  0  0  0  0  0  0  0  0  0  0  0
   58.2400   21.0940   43.5980 N   0  0  0  0  0  0  0  0  0  0  0  0
   55.8230   20.7720   44.4910 O   0  0  0  0  0  0  0  0  0  0  0  0
   56.0170   21.7170   42.2610 O   0  0  0  0  0  0  0  0  0  0  0  0
   57.6530   24.2110   44.1430 C   0  0  0  0  0  0  0  0  0  0  0  0
   57.5820   25.4780   44.7150 C   0  0  0  0  0  0  0  0  0  0  0  0
   55.6680   28.9690   44.7220 N   0  0  0  0  0  0  0  0  0  0  0  0
   55.8810   30.1810   44.1700 C   0  0  0  0  0  0  0  0  0  0  0  0
   57.0420   30.8620   44.3600 N   0  0  0  0  0  0  0  0  0  0  0  0
   59.4180   32.5260   47.1960 C   0  0  0  0  0  0  0  0  0  0  0  0
   59.1466   33.5415   49.7527 H   0  0  0  0  0  0  0  0  0  0  0  0
   60.7760   34.0962   49.2388 H   0  0  0  0  0  0  0  0  0  0  0  0
   59.3948   35.2447   49.2388 H   0  0  0  0  0  0  0  0  0  0  0  0
   59.0106   35.8883   47.1800 H   0  0  0  0  0  0  0  0  0  0  0  0
   58.4556   35.3933   44.7699 H   0  0  0  0  0  0  0  0  0  0  0  0
   58.5491   33.0454   44.0159 H   0  0  0  0  0  0  0  0  0  0  0  0
   58.5997   28.6298   46.3187 H   0  0  0  0  0  0  0  0  0  0  0  0
   56.0340   27.1640   47.0900 H   0  0  0  0  0  0  0  0  0  0  0  0
   54.5568   25.2356   46.1734 H   0  0  0  0  0  0  0  0  0  0  0  0
   54.6775   23.0028   45.1662 H   0  0  0  0  0  0  0  0  0  0  0  0
   58.3540   20.3470   42.8920 H   0  0  0  0  0  0  0  0  0  0  0  0
   58.5000   20.6970   44.5300 H   0  0  0  0  0  0  0  0  0  0  0  0
   58.5445   23.9290   43.5636 H   0  0  0  0  0  0  0  0  0  0  0  0
   58.4224   26.1737   44.5746 H   0  0  0  0  0  0  0  0  0  0  0  0
   54.7660   28.5170   44.5280 H   0  0  0  0  0  0  0  0  0  0  0  0
   55.0929   30.6311   43.5485 H   0  0  0  0  0  0  0  0  0  0  0  0
   59.6891   31.7177   47.8911 H   0  0  0  0  0  0  0  0  0  0  0  0
  1  2  1  0
  2  3  2  0
  3  4  1  0
  4  5  2  0
  5  6  1  0
  6  7  1  0
  7  8  2  0
  8  9  1  0
  9 10  2  0
 10 11  1  0
 11 12  1  0
 12 13  2  0
 13 14  1  0
 14 15  2  0
 15 16  1  0
 16 17  1  0
 16 18  2  0
 16 19  2  0
 15 20  1  0
 20 21  2  0
 10 22  1  0
 22 23  1  0
 23 24  2  0
  6 25  2  0
 25  2  1  0
 24  8  1  0
 21 12  1  0
  1 26  1  0
  1 27  1  0
  1 28  1  0
  3 29  1  0
  4 30  1  0
  5 31  1  0
  9 32  1  0
 11 33  1  0
 13 34  1  0
 14 35  1  0
 17 36  1  0
 17 37  1  0
 20 38  1  0
 21 39  1  0
 22 40  1  0
 23 41  1  0
 25 42  1  0
M  END
>  <smiles>  (11) 
Cc1cccc(N=c2cc(Nc3ccc(S(N)(=O)=O)cc3)[nH]cn2)c1

>  <score_type>  (11) 
oracle

>  <origin>  (11) 
adg

>  <m_score__min__energy>  (11) 
-9.5099999999999998

>  <m_primary>  (11) 
energy

$$$$
11:0
     RDKit          3D

 25 26  0  0  0  0  0  0  0  0999 V2000
   55.1660   28.9660   44.8710 O   0  0  0  0  0  0  0  0  0  0  0  0
   56.3670   29.3420   44.9050 C   0  0  0  0  0  0  0  0  0  0  0  0
   56.6700   30.6600   44.5860 O   0  0  0  0  0  0  0  0  0  0  0  0
   57.4230   28.4060   45.3420 C   0  0  0  0  0  0  0  0  0  0  0  0
   57.2620   27.0130   45.2430 C   0  0  0  0  0  0  0  0  0  0  0  0
   58.3060   26.2960   45.8040 C   0  0  0  0  0  0  0  0  0  0  0  0
   58.4230   24.5500   45.8820 Cl  0  0  0  0  0  0  0  0  0  0  0  0
   59.4400   27.3660   46.4200 S   0  0  0  0  0  0  0  0  0  0  0  0
   58.6240   28.7700   45.9720 C   0  0  0  0  0  0  0  0  0  0  0  0
   59.1780   30.1220   46.1670 C   0  0  0  0  0  0  0  0  0  0  0  0
   60.4200   30.2980   46.0390 O   0  0  0  0  0  0  0  0  0  0  0  0
   58.3090   31.2440   46.3860 N   0  0  0  0  0  0  0  0  0  0  0  0
   58.7510   32.5160   46.8910 C   0  0  0  0  0  0  0  0  0  0  0  0
   59.1690   32.6190   48.2270 C   0  0  0  0  0  0  0  0  0  0  0  0
   59.6240   33.8400   48.7340 C   0  0  0  0  0  0  0  0  0  0  0  0
   59.6810   34.9650   47.9060 C   0  0  0  0  0  0  0  0  0  0  0  0
   59.2880   34.8680   46.5690 C   0  0  0  0  0  0  0  0  0  0  0  0
   58.8300   33.6490   46.0580 C   0  0  0  0  0  0  0  0  0  0  0  0
   56.3916   26.5385   44.7664 H   0  0  0  0  0  0  0  0  0  0  0  0
   57.3130   31.1540   46.0790 H   0  0  0  0  0  0  0  0  0  0  0  0
   59.1384   31.7337   48.8791 H   0  0  0  0  0  0  0  0  0  0  0  0
   59.9375   33.9155   49.7857 H   0  0  0  0  0  0  0  0  0  0  0  0
   60.0351   35.9261   48.3071 H   0  0  0  0  0  0  0  0  0  0  0  0
   59.3388   35.7522   45.9166 H   0  0  0  0  0  0  0  0  0  0  0  0
   58.5306   33.5750   45.0021 H   0  0  0  0  0  0  0  0  0  0  0  0
  1  2  2  0
  2  3  1  0
  2  4  1  0
  4  5  1  0
  5  6  2  0
  6  7  1  0
  6  8  1  0
  8  9  1  0
  9 10  1  0
 10 11  2  0
 10 12  1  0
 12 13  1  0
 13 14  2  0
 14 15  1  0
 15 16  2  0
 16 17  1  0
 17 18  2  0
  9  4  2  0
 18 13  1  0
  5 19  1  0
 12 20  1  0
 14 21  1  0
 15 22  1  0
 16 23  1  0
 17 24  1  0
 18 25  1  0
M  CHG  1   3  -1
M  END
>  <UniqueID>  (12) 
9

>  <SMILES>  (12) 
O=C([O-])c1cc(Cl)sc1C(=O)Nc1ccccc1

>  <Energy>  (12) 
60.315044434726694

>  <Genealogy>  (12) 
O=C([O-])c1cc(Cl)sc1C(=O)Nc1ccccc1 (protonated)
O=C([O-])c1cc(Cl)sc1C(=O)Nc1ccccc1 (3D coordinates assigned)
O=C([O-])c1cc(Cl)sc1C(=O)Nc1ccccc1 (optimized conformer: 60.315044434726694 kcal/mol)

>  <smiles>  (12) 
O=C(O)c1cc(Cl)sc1C(=O)Nc1ccccc1

>  <score_type>  (12) 
oracle

>  <origin>  (12) 
adg

>  <m_score__min__energy>  (12) 
-8.9000000000000004

>  <m_primary>  (12) 
energy

$$$$
12:0
     RDKit          3D

 45 47  0  0  1  0  0  0  0  0999 V2000
   59.6480   36.0190   46.2300 N   0  0  0  0  0  0  0  0  0  0  0  0
   58.6160   33.1620   44.4920 C   0  0  0  0  0  0  0  0  0  0  0  0
   58.5290   34.1050   47.0000 C   0  0  0  0  0  0  0  0  0  0  0  0
   57.9960   32.8860   46.6790 C   0  0  0  0  0  0  0  0  0  0  0  0
   58.0330   32.3950   45.4170 N   0  0  0  0  0  0  0  0  0  0  0  0
   57.4460   31.1110   45.1900 C   0  0  2  0  0  0  0  0  0  0  0  0
   58.3760   30.2050   44.6280 O   0  0  0  0  0  0  0  0  0  0  0  0
   57.5950   29.0550   44.4510 C   0  0  1  0  0  0  0  0  0  0  0  0
   58.6520   24.8070   45.9810 C   0  0  0  0  0  0  0  0  0  0  0  0
   58.6980   26.0660   45.5780 C   0  0  0  0  0  0  0  0  0  0  0  0
   57.5550   26.9630   45.7200 C   0  0  0  0  0  0  0  0  0  0  0  0
   57.6960   28.2750   45.7040 C   0  0  0  0  0  0  0  0  0  0  0  0
   58.0570   23.7270   45.2220 C   0  0  0  0  0  0  0  0  0  0  0  0
   56.7550   23.8450   44.7170 C   0  0  0  0  0  0  0  0  0  0  0  0
   56.1610   22.8380   43.9920 C   0  0  0  0  0  0  0  0  0  0  0  0
   56.8270   21.6620   43.7280 C   0  0  0  0  0  0  0  0  0  0  0  0
   56.2730   20.6170   43.0010 O   0  0  0  0  0  0  0  0  0  0  0  0
   58.1110   21.5210   44.2120 C   0  0  0  0  0  0  0  0  0  0  0  0
   58.6930   22.5390   44.9380 C   0  0  0  0  0  0  0  0  0  0  0  0
   56.1990   29.5300   44.1400 C   0  0  1  0  0  0  0  0  0  0  0  0
   55.3260   29.2700   45.1980 O   0  0  0  0  0  0  0  0  0  0  0  0
   56.4020   31.0560   44.1370 C   0  0  2  0  0  0  0  0  0  0  0  0
   56.8640   31.3360   42.8620 O   0  0  0  0  0  0  0  0  0  0  0  0
   59.1190   34.8550   46.0150 C   0  0  0  0  0  0  0  0  0  0  0  0
   58.6660   32.7350   43.3140 O   0  0  0  0  0  0  0  0  0  0  0  0
   59.1550   34.3660   44.7560 N   0  0  0  0  0  0  0  0  0  0  0  0
   59.3450   36.4620   47.1440 H   0  0  0  0  0  0  0  0  0  0  0  0
   58.4848   34.4781   48.0339 H   0  0  0  0  0  0  0  0  0  0  0  0
   57.5228   32.2862   47.4704 H   0  0  0  0  0  0  0  0  0  0  0  0
   57.0605   30.8777   46.1935 H   0  0  0  0  0  0  0  0  0  0  0  0
   57.9180   28.4014   43.6273 H   0  0  0  0  0  0  0  0  0  0  0  0
   59.0954   24.5643   46.9580 H   0  0  0  0  0  0  0  0  0  0  0  0
   59.6238   26.4480   45.1230 H   0  0  0  0  0  0  0  0  0  0  0  0
   56.5497   26.5339   45.8436 H   0  0  0  0  0  0  0  0  0  0  0  0
   57.8941   28.8032   46.6483 H   0  0  0  0  0  0  0  0  0  0  0  0
   56.1912   24.7704   44.9060 H   0  0  0  0  0  0  0  0  0  0  0  0
   55.1361   22.9746   43.6166 H   0  0  0  0  0  0  0  0  0  0  0  0
   56.6920   19.7130   43.1180 H   0  0  0  0  0  0  0  0  0  0  0  0
   58.6719   20.5947   44.0185 H   0  0  0  0  0  0  0  0  0  0  0  0
   59.7183   22.3945   45.3094 H   0  0  0  0  0  0  0  0  0  0  0  0
   55.7897   29.0668   43.2301 H   0  0  0  0  0  0  0  0  0  0  0  0
   55.7110   29.7180   45.9940 H   0  0  0  0  0  0  0  0  0  0  0  0
   55.5689   31.7480   44.3295 H   0  0  0  0  0  0  0  0  0  0  0  0
   57.7530   30.9770   42.6480 H   0  0  0  0  0  0  0  0  0  0  0  0
   59.5970   34.9170   43.9890 H   0  0  0  0  0  0  0  0  0  0  0  0
  1  2  2  3
  2  3  1  0
  3  4  2  0
  4  5  1  0
  5  6  1  0
  6  7  1  0
  7  8  1  0
  8  9  1  0
  9 10  2  0
 10 11  1  0
 11 12  2  0
 12 13  1  0
 13 14  2  0
 14 15  1  0
 15 16  2  0
 16 17  1  0
 16 18  1  0
 18 19  2  0
  8 20  1  0
 20 21  1  0
 20 22  1  0
 22 23  1  0
  5 24  1  0
 24 25  2  0
 24 26  1  0
 26  2  1  0
 22  6  1  0
 19 13  1  0
  1 27  1  0
  3 28  1  0
  4 29  1  0
  6 30  1  1
  8 31  1  6
  9 32  1  0
 10 33  1  0
 11 34  1  0
 12 35  1  0
 14 36  1  0
 15 37  1  0
 17 38  1  0
 18 39  1  0
 19 40  1  0
 20 41  1  6
 21 42  1  0
 22 43  1  1
 23 44  1  0
 26 45  1  0
M  END
>  <smiles>  (13) 
N=c1ccn(C2OC(C=CC=Cc3ccc(O)cc3)C(O)C2O)c(=O)[nH]1

>  <score_type>  (13) 
oracle

>  <origin>  (13) 
adg

>  <m_score__min__energy>  (13) 
-8.8100000000000005

>  <m_primary>  (13) 
energy

$$$$
13:0
     RDKit          3D

 54 56  0  0  1  0  0  0  0  0999 V2000
   59.3890   35.2550   45.2760 C   0  0  0  0  0  0  0  0  0  0  0  0
   57.9200   34.1720   45.1820 S   0  0  0  0  0  0  0  0  0  0  0  0
   58.3320   32.6580   46.0690 C   0  0  0  0  0  0  0  0  0  0  0  0
   57.7470   31.5320   45.6220 N   0  0  0  0  0  0  0  0  0  0  0  0
   57.9560   30.3270   46.1810 C   0  0  0  0  0  0  0  0  0  0  0  0
   57.3040   29.1040   45.6770 C   0  0  0  0  0  0  0  0  0  0  0  0
   56.2030   29.1540   45.0620 O   0  0  0  0  0  0  0  0  0  0  0  0
   57.9670   27.8670   45.9140 N   0  0  0  0  0  0  0  0  0  0  0  0
   57.4560   26.6130   45.4860 C   0  0  0  0  0  0  0  0  0  0  0  0
   56.6010   25.9590   46.3490 C   0  0  0  0  0  0  0  0  0  0  0  0
   56.0630   24.7490   46.0200 C   0  0  0  0  0  0  0  0  0  0  0  0
   56.3580   24.1460   44.8110 C   0  0  0  0  0  0  0  0  0  0  0  0
   55.7580   22.8970   44.5480 N   0  0  0  0  0  0  0  0  0  0  0  0
   56.5100   21.6080   43.7090 S   0  0  0  0  0  0  0  0  0  0  0  0
   58.2730   21.5930   43.9120 C   0  0  0  0  0  0  0  0  0  0  0  0
   55.9790   20.2740   44.1320 O   0  0  0  0  0  0  0  0  0  0  0  0
   56.2360   21.8290   42.2370 O   0  0  0  0  0  0  0  0  0  0  0  0
   57.2090   24.8020   43.9550 C   0  0  0  0  0  0  0  0  0  0  0  0
   57.7730   26.0420   44.2700 C   0  0  0  0  0  0  0  0  0  0  0  0
   58.8160   30.2840   47.2590 C   0  0  0  0  0  0  0  0  0  0  0  0
   59.4120   31.4680   47.7040 C   0  0  0  0  0  0  0  0  0  0  0  0
   60.2150   31.4120   48.7140 N   0  0  0  0  0  0  0  0  0  0  0  0
   61.5260   31.9630   48.5840 C   0  0  0  0  0  0  0  0  0  0  0  0
   61.4790   33.4170   49.0730 C   0  0  0  0  0  0  0  0  0  0  0  0
   62.6360   34.2090   48.5430 C   0  0  0  0  0  0  0  0  0  0  0  0
   63.8110   33.3780   48.1080 C   0  0  0  0  0  0  0  0  0  0  0  0
   63.4750   32.2710   47.1630 C   0  0  0  0  0  0  0  0  0  0  0  0
   61.9800   32.0730   47.1330 C   0  0  0  0  0  0  0  0  0  0  0  0
   59.1730   32.6510   47.1140 N   0  0  0  0  0  0  0  0  0  0  0  0
   59.6408   35.4406   46.3306 H   0  0  0  0  0  0  0  0  0  0  0  0
   60.2382   34.7652   44.7770 H   0  0  0  0  0  0  0  0  0  0  0  0
   59.1722   36.2110   44.7770 H   0  0  0  0  0  0  0  0  0  0  0  0
   58.8810   27.8460   46.4270 H   0  0  0  0  0  0  0  0  0  0  0  0
   56.3495   26.4195   47.3158 H   0  0  0  0  0  0  0  0  0  0  0  0
   55.3855   24.2464   46.7260 H   0  0  0  0  0  0  0  0  0  0  0  0
   54.7770   22.7480   44.8950 H   0  0  0  0  0  0  0  0  0  0  0  0
   58.5186   21.5909   44.9842 H   0  0  0  0  0  0  0  0  0  0  0  0
   58.6889   20.6913   43.4388 H   0  0  0  0  0  0  0  0  0  0  0  0
   58.7042   22.4875   43.4388 H   0  0  0  0  0  0  0  0  0  0  0  0
   57.4549   24.3361   42.9894 H   0  0  0  0  0  0  0  0  0  0  0  0
   58.4511   26.5489   43.5677 H   0  0  0  0  0  0  0  0  0  0  0  0
   59.0302   29.3297   47.7624 H   0  0  0  0  0  0  0  0  0  0  0  0
   62.2027   31.3041   49.1478 H   0  0  0  0  0  0  0  0  0  0  0  0
   60.5416   33.8797   48.7308 H   0  0  0  0  0  0  0  0  0  0  0  0
   61.5345   33.4151   50.1716 H   0  0  0  0  0  0  0  0  0  0  0  0
   62.2868   34.7907   47.6771 H   0  0  0  0  0  0  0  0  0  0  0  0
   62.9886   34.8416   49.3710 H   0  0  0  0  0  0  0  0  0  0  0  0
   64.5365   34.0416   47.6148 H   0  0  0  0  0  0  0  0  0  0  0  0
   64.2090   32.9020   49.0163 H   0  0  0  0  0  0  0  0  0  0  0  0
   63.8312   32.5287   46.1547 H   0  0  0  0  0  0  0  0  0  0  0  0
   63.9615   31.3428   47.4972 H   0  0  0  0  0  0  0  0  0  0  0  0
   61.4931   32.9314   46.6470 H   0  0  0  0  0  0  0  0  0  0  0  0
   61.7106   31.1712   46.5636 H   0  0  0  0  0  0  0  0  0  0  0  0
   59.5860   33.5430   47.4040 H   0  0  0  0  0  0  0  0  0  0  0  0
  1  2  1  0
  2  3  1  0
  3  4  2  0
  4  5  1  0
  5  6  1  0
  6  7  2  0
  6  8  1  0
  8  9  1  0
  9 10  2  0
 10 11  1  0
 11 12  2  0
 12 13  1  0
 13 14  1  0
 14 15  1  0
 14 16  2  0
 14 17  2  0
 12 18  1  0
 18 19  2  0
  5 20  2  0
 20 21  1  0
 21 22  2  0
 22 23  1  0
 23 24  1  0
 24 25  1  0
 25 26  1  0
 26 27  1  0
 27 28  1  0
 21 29  1  0
 29  3  1  0
 19  9  1  0
 28 23  1  0
  1 30  1  0
  1 31  1  0
  1 32  1  0
  8 33  1  0
 10 34  1  0
 11 35  1  0
 13 36  1  0
 15 37  1  0
 15 38  1  0
 15 39  1  0
 18 40  1  0
 19 41  1  0
 20 42  1  0
 23 43  1  0
 24 44  1  0
 24 45  1  0
 25 46  1  0
 25 47  1  0
 26 48  1  0
 26 49  1  0
 27 50  1  0
 27 51  1  0
 28 52  1  0
 28 53  1  0
 29 54  1  0
M  END
>  <smiles>  (14) 
CSc1nc(C(=O)Nc2ccc(NS(C)(=O)=O)cc2)cc(=NC2CCCCC2)[nH]1

>  <score_type>  (14) 
oracle

>  <origin>  (14) 
adg

>  <m_score__min__energy>  (14) 
-9.1400000000000006

>  <m_primary>  (14) 
energy

$$$$
14:0
     RDKit          3D

 47 50  0  0  0  0  0  0  0  0999 V2000
   64.8369   32.8894   46.9495 H   0  0  0  0  0  0  0  0  0  0  0  0
   63.7880   33.0940   47.2100 C   0  0  0  0  0  0  0  0  0  0  0  0
   57.4130   31.6870   45.1100 N   0  0  0  0  0  0  0  0  0  0  0  0
   57.2770   31.4580   43.7850 C   0  0  0  0  0  0  0  0  0  0  0  0
   56.6320   30.4520   43.2760 N   0  0  0  0  0  0  0  0  0  0  0  0
   59.3230   34.5020   46.7680 C   0  0  0  0  0  0  0  0  0  0  0  0
   58.8990   35.6110   47.1920 O   0  0  0  0  0  0  0  0  0  0  0  0
   58.3950   33.3090   46.7410 C   0  0  0  0  0  0  0  0  0  0  0  0
   58.8481   32.4957   47.3269 H   0  0  0  0  0  0  0  0  0  0  0  0
   57.4311   33.6244   47.1670 H   0  0  0  0  0  0  0  0  0  0  0  0
   58.1390   32.8140   45.3470 C   0  0  0  0  0  0  0  0  0  0  0  0
   62.9350   33.7350   46.3690 N   0  0  0  0  0  0  0  0  0  0  0  0
   61.6990   33.8550   46.9060 C   0  0  0  0  0  0  0  0  0  0  0  0
   60.6890   34.4290   46.3220 N   0  0  0  0  0  0  0  0  0  0  0  0
   55.6110   29.6790   43.9290 C   0  0  0  0  0  0  0  0  0  0  0  0
   54.4810   29.5220   43.3960 O   0  0  0  0  0  0  0  0  0  0  0  0
   55.8430   29.1230   45.2280 N   0  0  0  0  0  0  0  0  0  0  0  0
   56.7120   28.0230   45.5350 C   0  0  0  0  0  0  0  0  0  0  0  0
   58.1090   28.1200   45.3860 C   0  0  0  0  0  0  0  0  0  0  0  0
   58.5592   29.0639   45.0447 H   0  0  0  0  0  0  0  0  0  0  0  0
   58.9260   27.0220   45.6700 C   0  0  0  0  0  0  0  0  0  0  0  0
   60.0175   27.1074   45.5635 H   0  0  0  0  0  0  0  0  0  0  0  0
   58.3580   25.8160   46.0890 C   0  0  0  0  0  0  0  0  0  0  0  0
   59.0026   24.9554   46.3210 H   0  0  0  0  0  0  0  0  0  0  0  0
   56.9720   25.7040   46.2130 C   0  0  0  0  0  0  0  0  0  0  0  0
   56.5259   24.7513   46.5344 H   0  0  0  0  0  0  0  0  0  0  0  0
   56.1480   26.7990   45.9300 C   0  0  0  0  0  0  0  0  0  0  0  0
   54.7690   26.6700   46.0500 O   0  0  0  0  0  0  0  0  0  0  0  0
   61.6090   33.1760   48.4400 S   0  0  0  0  0  0  0  0  0  0  0  0
   58.5660   33.4930   44.2070 C   0  0  0  0  0  0  0  0  0  0  0  0
   59.1509   34.4245   44.1904 H   0  0  0  0  0  0  0  0  0  0  0  0
   58.0300   32.6380   42.8610 S   0  0  0  0  0  0  0  0  0  0  0  0
   63.2290   32.7170   48.4270 C   0  0  0  0  0  0  0  0  0  0  0  0
   63.9140   31.9340   49.5010 C   0  0  0  0  0  0  0  0  0  0  0  0
   63.1626   31.5475   50.2053 H   0  0  0  0  0  0  0  0  0  0  0  0
   64.4624   31.0975   49.0433 H   0  0  0  0  0  0  0  0  0  0  0  0
   64.8840   32.8130   50.2410 C   0  0  0  0  0  0  0  0  0  0  0  0
   66.2690   32.6430   50.0670 C   0  0  0  0  0  0  0  0  0  0  0  0
   66.6443   31.8832   49.3656 H   0  0  0  0  0  0  0  0  0  0  0  0
   67.1710   33.4370   50.7830 C   0  0  0  0  0  0  0  0  0  0  0  0
   68.2535   33.3059   50.6378 H   0  0  0  0  0  0  0  0  0  0  0  0
   66.6990   34.3960   51.6820 C   0  0  0  0  0  0  0  0  0  0  0  0
   67.4097   35.0218   52.2417 H   0  0  0  0  0  0  0  0  0  0  0  0
   65.3230   34.5610   51.8710 C   0  0  0  0  0  0  0  0  0  0  0  0
   64.9527   35.3136   52.5826 H   0  0  0  0  0  0  0  0  0  0  0  0
   64.4180   33.7710   51.1570 C   0  0  0  0  0  0  0  0  0  0  0  0
   63.3367   33.8997   51.3127 H   0  0  0  0  0  0  0  0  0  0  0  0
  1  2  1  0
  2  3  1  0
  3  4  1  0
  4  5  2  0
  5  6  1  0
  6  7  2  0
  6  8  1  0
  8  9  1  0
  8 10  1  0
  8 11  1  0
 11 12  1  0
 12 13  1  0
 13 14  2  0
 14 15  1  0
 15 16  2  0
 15 17  1  0
 17 18  1  0
 18 19  2  0
 19 20  1  0
 19 21  1  0
 21 22  1  0
 21 23  2  0
 23 24  1  0
 23 25  1  0
 25 26  1  0
 25 27  2  0
 27 28  1  0
 13 29  1  0
 29 30  1  0
 30 31  1  0
  4 32  1  0
 32 33  1  0
 33 34  1  0
 34 35  1  0
 34 36  1  0
 34 37  1  0
 37 38  2  0
 38 39  1  0
 38 40  1  0
 40 41  1  0
 40 42  2  0
 42 43  1  0
 42 44  1  0
 44 45  1  0
 44 46  2  0
 46 47  1  0
 33  2  2  0
 46 37  1  0
 30 11  2  0
 27 18  1  0
M  CHG  4   3  -1  12  -1  17  -1  28  -1
M  END
>  <UniqueID>  (15) 
10

>  <SMILES>  (15) 
O=C(Cc1cs/c(=N/C(=O)[N-]c2ccccc2[O-])[n-]1)/N=c1\[n-]cc(Cc2ccccc2)s1

>  <Energy>  (15) 
118.25756042474079

>  <Genealogy>  (15) 
O=C(Cc1csc(=NC(=O)[N-]c2ccccc2[O-])[n-]1)N=c1[n-]cc(Cc2ccccc2)s1 (protonated)
O=C(Cc1cs/c(=N/C(=O)[N-]c2ccccc2[O-])[n-]1)/N=c1\[n-]cc(Cc2ccccc2)s1 (cis-trans isomerization)
O=C(Cc1cs/c(=N/C(=O)[N-]c2ccccc2[O-])[n-]1)/N=c1\[n-]cc(Cc2ccccc2)s1 (3D coordinates assigned)
O=C(Cc1cs/c(=N/C(=O)[N-]c2ccccc2[O-])[n-]1)/N=c1\[n-]cc(Cc2ccccc2)s1 (optimized conformer: 118.25756042474079 kcal/mol)

>  <smiles>  (15) 
O=C(Cc1csc(=NC(=O)Nc2ccccc2O)[nH]1)N=c1[nH]cc(Cc2ccccc2)s1

>  <score_type>  (15) 
oracle

>  <origin>  (15) 
adg

>  <m_score__min__energy>  (15) 
-16.640000000000001

>  <m_primary>  (15) 
energy

$$$$
15:0
     RDKit          3D

 40 42  0  0  0  0  0  0  0  0999 V2000
   59.1650   33.4290   41.0050 H   0  0  0  0  0  0  0  0  0  0  0  0
   58.4080   32.7180   41.1270 N   0  0  0  0  0  0  0  0  0  0  0  0
   57.9620   32.4000   42.2980 C   0  0  0  0  0  0  0  0  0  0  0  0
   57.2950   31.2320   42.4700 N   0  0  0  0  0  0  0  0  0  0  0  0
   56.8260   30.8900   43.6990 C   0  0  0  0  0  0  0  0  0  0  0  0
   56.0500   29.6230   43.8820 C   0  0  0  0  0  0  0  0  0  0  0  0
   54.9874   29.8168   43.6740 H   0  0  0  0  0  0  0  0  0  0  0  0
   56.4417   28.8643   43.1885 H   0  0  0  0  0  0  0  0  0  0  0  0
   56.1890   29.1260   45.2520 N   0  0  0  0  0  0  0  0  0  0  0  0
   55.7470   29.6840   46.0200 H   0  0  0  0  0  0  0  0  0  0  0  0
   56.8520   27.8980   45.6240 C   0  0  0  0  0  0  0  0  0  0  0  0
   58.2590   27.8720   45.6110 C   0  0  0  0  0  0  0  0  0  0  0  0
   58.8154   28.7753   45.3204 H   0  0  0  0  0  0  0  0  0  0  0  0
   58.9590   26.7150   45.9620 C   0  0  0  0  0  0  0  0  0  0  0  0
   60.0589   26.7127   45.9473 H   0  0  0  0  0  0  0  0  0  0  0  0
   58.2650   25.5630   46.3310 C   0  0  0  0  0  0  0  0  0  0  0  0
   58.8169   24.6530   46.6091 H   0  0  0  0  0  0  0  0  0  0  0  0
   56.8690   25.5660   46.3470 C   0  0  0  0  0  0  0  0  0  0  0  0
   56.3249   24.6556   46.6386 H   0  0  0  0  0  0  0  0  0  0  0  0
   56.1560   26.7180   45.9950 C   0  0  0  0  0  0  0  0  0  0  0  0
   54.7680   26.6610   46.0170 O   0  0  0  0  0  0  0  0  0  0  0  0
   57.0100   31.7310   44.7490 N   0  0  0  0  0  0  0  0  0  0  0  0
   57.6880   32.8990   44.5850 C   0  0  0  0  0  0  0  0  0  0  0  0
   57.8620   33.7250   45.5760 N   0  0  0  0  0  0  0  0  0  0  0  0
   58.8300   33.6140   46.6340 C   0  0  0  0  0  0  0  0  0  0  0  0
   59.2210   34.7240   47.4060 C   0  0  0  0  0  0  0  0  0  0  0  0
   58.8022   35.7178   47.1893 H   0  0  0  0  0  0  0  0  0  0  0  0
   60.1390   34.5670   48.4460 C   0  0  0  0  0  0  0  0  0  0  0  0
   60.4528   35.4408   49.0359 H   0  0  0  0  0  0  0  0  0  0  0  0
   60.6610   33.3050   48.7410 C   0  0  0  0  0  0  0  0  0  0  0  0
   61.3914   33.1897   49.5554 H   0  0  0  0  0  0  0  0  0  0  0  0
   60.2540   32.1810   47.9980 C   0  0  0  0  0  0  0  0  0  0  0  0
   60.7360   30.8910   48.2610 O   0  0  0  0  0  0  0  0  0  0  0  0
   60.3630   29.7290   47.5260 C   0  0  0  0  0  0  0  0  0  0  0  0
   60.1035   28.9205   48.2252 H   0  0  0  0  0  0  0  0  0  0  0  0
   59.4936   29.9592   46.8926 H   0  0  0  0  0  0  0  0  0  0  0  0
   61.2039   29.4101   46.8926 H   0  0  0  0  0  0  0  0  0  0  0  0
   59.3320   32.3470   46.9550 C   0  0  0  0  0  0  0  0  0  0  0  0
   58.9984   31.4699   46.3810 H   0  0  0  0  0  0  0  0  0  0  0  0
   58.1560   33.2310   43.3560 N   0  0  0  0  0  0  0  0  0  0  0  0
  1  2  1  0
  2  3  2  0
  3  4  1  0
  4  5  2  0
  5  6  1  0
  6  7  1  0
  6  8  1  0
  6  9  1  0
  9 10  1  0
  9 11  1  0
 11 12  2  0
 12 13  1  0
 12 14  1  0
 14 15  1  0
 14 16  2  0
 16 17  1  0
 16 18  1  0
 18 19  1  0
 18 20  2  0
 20 21  1  0
  5 22  1  0
 22 23  1  0
 23 24  2  0
 24 25  1  0
 25 26  2  0
 26 27  1  0
 26 28  1  0
 28 29  1  0
 28 30  2  0
 30 31  1  0
 30 32  1  0
 32 33  1  0
 33 34  1  0
 34 35  1  0
 34 36  1  0
 34 37  1  0
 32 38  2  0
 38 39  1  0
 23 40  1  0
 40  3  1  0
 20 11  1  0
 38 25  1  0
M  CHG  3  21  -1  22  -1  40  -1
M  END
>  <UniqueID>  (16) 
11

>  <SMILES>  (16) 
[H]/N=c1/nc(CNc2ccccc2[O-])[n-]/c(=N\c2cccc(OC)c2)[n-]1

>  <Energy>  (16) 
50.43272984027146

>  <Genealogy>  (16) 
COc1cccc(N=c2[n-]c(CNc3ccccc3[O-])nc(=N)[n-]2)c1 (protonated)
[H]/N=c1/nc(CNc2ccccc2[O-])[n-]/c(=N\c2cccc(OC)c2)[n-]1 (cis-trans isomerization)
[H]/N=c1/nc(CNc2ccccc2[O-])[n-]/c(=N\c2cccc(OC)c2)[n-]1 (3D coordinates assigned)
[H]/N=c1/nc(CNc2ccccc2[O-])[n-]/c(=N\c2cccc(OC)c2)[n-]1 (optimized conformer: 50.43272984027146 kcal/mol)

>  <smiles>  (16) 
COc1cccc(N=c2[nH]c(CNc3ccccc3O)nc(=N)[nH]2)c1

>  <score_type>  (16) 
oracle

>  <origin>  (16) 
adg

>  <m_score__min__energy>  (16) 
-14.25

>  <m_primary>  (16) 
energy

$$$$
16:0
     RDKit          3D

 42 44  0  0  1  0  0  0  0  0999 V2000
   56.7740   21.5990   43.7460 C   0  0  0  0  0  0  0  0  0  0  0  0
   56.0920   23.2000   43.4420 S   0  0  0  0  0  0  0  0  0  0  0  0
   56.9490   23.9330   42.4820 O   0  0  0  0  0  0  0  0  0  0  0  0
   54.7500   22.9740   42.7840 O   0  0  0  0  0  0  0  0  0  0  0  0
   55.9240   24.1400   44.8780 N   0  0  0  0  0  0  0  0  0  0  0  0
   56.9530   24.9840   45.3790 C   0  0  0  0  0  0  0  0  0  0  0  0
   58.2690   24.5720   45.4350 C   0  0  0  0  0  0  0  0  0  0  0  0
   59.2810   25.3790   45.9200 C   0  0  0  0  0  0  0  0  0  0  0  0
   59.0100   26.6540   46.3730 C   0  0  0  0  0  0  0  0  0  0  0  0
   57.7010   27.0900   46.3290 C   0  0  0  0  0  0  0  0  0  0  0  0
   57.4000   28.4010   46.7920 N   0  0  0  0  0  0  0  0  0  0  0  0
   57.2990   29.3920   45.9830 C   0  0  0  0  0  0  0  0  0  0  0  0
   57.8970   30.6320   46.2350 C   0  0  0  0  0  0  0  0  0  0  0  0
   57.7840   31.6910   45.3600 C   0  0  0  0  0  0  0  0  0  0  0  0
   58.4090   32.9770   45.6290 C   0  0  0  0  0  0  0  0  0  0  0  0
   58.6880   33.8660   44.6140 C   0  0  0  0  0  0  0  0  0  0  0  0
   59.2880   35.1020   44.8750 C   0  0  0  0  0  0  0  0  0  0  0  0
   59.6280   35.4850   46.1530 C   0  0  0  0  0  0  0  0  0  0  0  0
   59.3510   34.6020   47.1700 C   0  0  0  0  0  0  0  0  0  0  0  0
   59.6810   34.9630   48.4680 O   0  0  0  0  0  0  0  0  0  0  0  0
   58.7500   33.3650   46.9050 C   0  0  0  0  0  0  0  0  0  0  0  0
   57.0610   31.4640   44.2410 N   0  0  0  0  0  0  0  0  0  0  0  0
   56.4810   30.2620   43.9980 C   0  0  0  0  0  0  0  0  0  0  0  0
   56.5940   29.2330   44.8520 N   0  0  0  0  0  0  0  0  0  0  0  0
   56.7020   26.2740   45.8430 C   0  0  0  0  0  0  0  0  0  0  0  0
   55.3800   26.6920   45.7880 O   0  0  0  0  0  0  0  0  0  0  0  0
   56.8456   21.4309   44.8307 H   0  0  0  0  0  0  0  0  0  0  0  0
   56.1242   20.8326   43.2983 H   0  0  0  0  0  0  0  0  0  0  0  0
   57.7768   21.5366   43.2983 H   0  0  0  0  0  0  0  0  0  0  0  0
   55.0270   24.1130   45.4400 H   0  0  0  0  0  0  0  0  0  0  0  0
   58.5224   23.5622   45.0799 H   0  0  0  0  0  0  0  0  0  0  0  0
   60.3136   25.0008   45.9451 H   0  0  0  0  0  0  0  0  0  0  0  0
   59.8115   27.3022   46.7569 H   0  0  0  0  0  0  0  0  0  0  0  0
   58.4756   30.7657   47.1609 H   0  0  0  0  0  0  0  0  0  0  0  0
   58.4338   33.5983   43.5778 H   0  0  0  0  0  0  0  0  0  0  0  0
   59.4935   35.7855   44.0380 H   0  0  0  0  0  0  0  0  0  0  0  0
   60.1018   36.4575   46.3523 H   0  0  0  0  0  0  0  0  0  0  0  0
   59.1540   35.6500   48.9820 H   0  0  0  0  0  0  0  0  0  0  0  0
   58.5441   32.6823   47.7425 H   0  0  0  0  0  0  0  0  0  0  0  0
   56.9130   32.1870   43.5220 H   0  0  0  0  0  0  0  0  0  0  0  0
   55.9007   30.1267   43.0733 H   0  0  0  0  0  0  0  0  0  0  0  0
   55.1530   27.5460   45.2990 H   0  0  0  0  0  0  0  0  0  0  0  0
  1  2  1  0
  2  3  2  0
  2  4  2  0
  2  5  1  0
  5  6  1  0
  6  7  2  0
  7  8  1  0
  8  9  2  0
  9 10  1  0
 10 11  1  0
 11 12  2  0
 12 13  1  0
 13 14  2  0
 14 15  1  0
 15 16  2  0
 16 17  1  0
 17 18  2  0
 18 19  1  0
 19 20  1  0
 19 21  2  0
 14 22  1  0
 22 23  1  0
 23 24  2  0
 10 25  2  0
 25 26  1  0
 25  6  1  0
 24 12  1  0
 21 15  1  0
  1 27  1  0
  1 28  1  0
  1 29  1  0
  5 30  1  0
  7 31  1  0
  8 32  1  0
  9 33  1  0
 13 34  1  0
 16 35  1  0
 17 36  1  0
 18 37  1  0
 20 38  1  0
 21 39  1  0
 22 40  1  0
 23 41  1  0
 26 42  1  0
M  END
>  <smiles>  (17) 
CS(=O)(=O)Nc1cccc(N=c2cc(-c3cccc(O)c3)[nH]cn2)c1O

>  <score_type>  (17) 
oracle

>  <origin>  (17) 
adg

>  <m_score__min__energy>  (17) 
-10.32

>  <m_primary>  (17) 
energy

$$$$
17:0
     RDKit          3D

 36 38  0  0  0  0  0  0  0  0999 V2000
   56.4810   31.9290   44.8670 O   0  0  0  0  0  0  0  0  0  0  0  0
   57.1020   30.9230   44.4340 C   0  0  0  0  0  0  0  0  0  0  0  0
   56.8240   29.6020   44.9280 N   0  0  0  0  0  0  0  0  0  0  0  0
   55.5350   29.2860   45.2050 O   0  0  0  0  0  0  0  0  0  0  0  0
   57.8640   28.5890   45.1720 C   0  0  1  0  0  0  0  0  0  0  0  0
   58.7240   28.9650   46.3670 C   0  0  0  0  0  0  0  0  0  0  0  0
   58.5870   28.3390   47.6250 C   0  0  0  0  0  0  0  0  0  0  0  0
   59.3820   28.7380   48.7040 C   0  0  0  0  0  0  0  0  0  0  0  0
   60.3130   29.7670   48.5460 C   0  0  0  0  0  0  0  0  0  0  0  0
   60.4490   30.4020   47.3110 C   0  0  0  0  0  0  0  0  0  0  0  0
   59.6570   30.0080   46.2280 C   0  0  0  0  0  0  0  0  0  0  0  0
   57.2810   27.2000   45.2530 C   0  0  0  0  0  0  0  0  0  0  0  0
   57.7260   26.1530   44.5270 N   0  0  0  0  0  0  0  0  0  0  0  0
   56.9130   25.1400   44.8780 C   0  0  0  0  0  0  0  0  0  0  0  0
   57.0230   23.7690   44.3220 C   0  0  0  0  0  0  0  0  0  0  0  0
   57.9050   22.8440   44.9110 C   0  0  0  0  0  0  0  0  0  0  0  0
   58.0210   21.5480   44.3980 C   0  0  0  0  0  0  0  0  0  0  0  0
   57.2590   21.1600   43.2940 C   0  0  0  0  0  0  0  0  0  0  0  0
   56.3790   22.0670   42.7000 C   0  0  0  0  0  0  0  0  0  0  0  0
   56.2600   23.3650   43.2090 C   0  0  0  0  0  0  0  0  0  0  0  0
   55.9950   25.5990   45.8020 C   0  0  0  0  0  0  0  0  0  0  0  0
   56.2240   26.9020   46.0390 N   0  0  0  0  0  0  0  0  0  0  0  0
   57.8734   31.0578   43.6615 H   0  0  0  0  0  0  0  0  0  0  0  0
   55.1570   30.0990   45.6280 H   0  0  0  0  0  0  0  0  0  0  0  0
   58.5412   28.5700   44.3054 H   0  0  0  0  0  0  0  0  0  0  0  0
   57.8506   27.5327   47.7572 H   0  0  0  0  0  0  0  0  0  0  0  0
   59.2739   28.2405   49.6791 H   0  0  0  0  0  0  0  0  0  0  0  0
   60.9393   30.0770   49.3955 H   0  0  0  0  0  0  0  0  0  0  0  0
   61.1807   31.2142   47.1891 H   0  0  0  0  0  0  0  0  0  0  0  0
   59.7647   30.5181   45.2594 H   0  0  0  0  0  0  0  0  0  0  0  0
   58.5077   23.1425   45.7814 H   0  0  0  0  0  0  0  0  0  0  0  0
   58.7140   20.8328   44.8652 H   0  0  0  0  0  0  0  0  0  0  0  0
   57.3519   20.1402   42.8924 H   0  0  0  0  0  0  0  0  0  0  0  0
   55.7785   21.7607   41.8308 H   0  0  0  0  0  0  0  0  0  0  0  0
   55.5655   24.0751   42.7365 H   0  0  0  0  0  0  0  0  0  0  0  0
   55.2032   24.9950   46.2692 H   0  0  0  0  0  0  0  0  0  0  0  0
  1  2  2  0
  2  3  1  0
  3  4  1  0
  3  5  1  0
  5  6  1  0
  6  7  2  0
  7  8  1  0
  8  9  2  0
  9 10  1  0
 10 11  2  0
  5 12  1  0
 12 13  2  0
 13 14  1  0
 14 15  1  0
 15 16  2  0
 16 17  1  0
 17 18  2  0
 18 19  1  0
 19 20  2  0
 14 21  2  0
 21 22  1  0
 11  6  1  0
 22 12  1  0
 20 15  1  0
  2 23  1  0
  4 24  1  0
  5 25  1  6
  7 26  1  0
  8 27  1  0
  9 28  1  0
 10 29  1  0
 11 30  1  0
 16 31  1  0
 17 32  1  0
 18 33  1  0
 19 34  1  0
 20 35  1  0
 21 36  1  0
M  CHG  1  22  -1
M  END
>  <UniqueID>  (18) 
12

>  <SMILES>  (18) 
O=CN(O)[C@@H](c1ccccc1)c1nc(-c2ccccc2)c[n-]1

>  <Energy>  (18) 
68.46209067825319

>  <Genealogy>  (18) 
O=CN(O)C(c1ccccc1)c1nc(-c2ccccc2)c[n-]1 (protonated)
O=CN(O)[C@@H](c1ccccc1)c1nc(-c2ccccc2)c[n-]1 (chirality)
O=CN(O)[C@@H](c1ccccc1)c1nc(-c2ccccc2)c[n-]1 (3D coordinates assigned)
O=CN(O)[C@@H](c1ccccc1)c1nc(-c2ccccc2)c[n-]1 (optimized conformer: 68.46209067825319 kcal/mol)

>  <smiles>  (18) 
O=CN(O)C(c1ccccc1)c1nc(-c2ccccc2)c[nH]1

>  <score_type>  (18) 
oracle

>  <origin>  (18) 
adg

>  <m_score__min__energy>  (18) 
-9.1699999999999999

>  <m_primary>  (18) 
energy

$$$$
18:0
     RDKit          3D

 58 61  0  0  0  0  0  0  0  0999 V2000
   63.1760   31.1650   52.7480 N   0  0  0  0  0  0  0  0  0  0  0  0
   63.4790   30.1820   51.9550 C   0  0  0  0  0  0  0  0  0  0  0  0
   64.7250   30.2020   51.2410 N   0  0  0  0  0  0  0  0  0  0  0  0
   65.5600   31.3680   51.1620 C   0  0  0  0  0  0  0  0  0  0  0  0
   66.8310   31.3290   51.7560 C   0  0  0  0  0  0  0  0  0  0  0  0
   67.6600   32.4530   51.7270 C   0  0  0  0  0  0  0  0  0  0  0  0
   67.2330   33.6190   51.0900 C   0  0  0  0  0  0  0  0  0  0  0  0
   65.9810   33.6630   50.4720 C   0  0  0  0  0  0  0  0  0  0  0  0
   65.1330   32.5420   50.4920 C   0  0  0  0  0  0  0  0  0  0  0  0
   63.8790   32.5910   49.7850 N   0  0  0  0  0  0  0  0  0  0  0  0
   62.7180   33.2790   50.3760 C   0  0  0  0  0  0  0  0  0  0  0  0
   61.4510   32.4300   50.2090 C   0  0  0  0  0  0  0  0  0  0  0  0
   61.3680   31.8280   48.8680 N   0  0  0  0  0  0  0  0  0  0  0  0
   60.3450   30.8520   48.6020 C   0  0  0  0  0  0  0  0  0  0  0  0
   59.2410   30.9360   49.2070 O   0  0  0  0  0  0  0  0  0  0  0  0
   60.6080   29.7350   47.7360 N   0  0  0  0  0  0  0  0  0  0  0  0
   59.6190   28.7660   47.3440 C   0  0  0  0  0  0  0  0  0  0  0  0
   58.5700   29.0940   46.4670 C   0  0  0  0  0  0  0  0  0  0  0  0
   57.6230   28.1300   46.1060 C   0  0  0  0  0  0  0  0  0  0  0  0
   57.7260   26.8200   46.5970 C   0  0  0  0  0  0  0  0  0  0  0  0
   56.5270   25.6050   46.1650 S   0  0  0  0  0  0  0  0  0  0  0  0
   54.9820   26.3590   45.9810 N   0  0  0  0  0  0  0  0  0  0  0  0
   56.4520   24.5620   47.2440 O   0  0  0  0  0  0  0  0  0  0  0  0
   56.9130   24.9380   44.8740 O   0  0  0  0  0  0  0  0  0  0  0  0
   58.7840   26.4850   47.4520 C   0  0  0  0  0  0  0  0  0  0  0  0
   59.7280   27.4480   47.8150 C   0  0  0  0  0  0  0  0  0  0  0  0
   62.3810   32.1710   47.8630 C   0  0  0  0  0  0  0  0  0  0  0  0
   63.7690   31.9530   48.4640 C   0  0  0  0  0  0  0  0  0  0  0  0
   62.5510   29.0460   51.7490 C   0  0  0  0  0  0  0  0  0  0  0  0
   61.2190   29.2350   51.3390 C   0  0  0  0  0  0  0  0  0  0  0  0
   60.3880   28.1260   51.1680 C   0  0  0  0  0  0  0  0  0  0  0  0
   60.8820   26.8440   51.4070 C   0  0  0  0  0  0  0  0  0  0  0  0
   62.2050   26.6900   51.8220 C   0  0  0  0  0  0  0  0  0  0  0  0
   62.9990   27.7820   51.9870 N   0  0  0  0  0  0  0  0  0  0  0  0
   63.8470   31.5780   53.4310 H   0  0  0  0  0  0  0  0  0  0  0  0
   65.1170   29.2980   50.8960 H   0  0  0  0  0  0  0  0  0  0  0  0
   67.1765   30.4076   52.2475 H   0  0  0  0  0  0  0  0  0  0  0  0
   68.6495   32.4190   52.2063 H   0  0  0  0  0  0  0  0  0  0  0  0
   67.8839   34.5056   51.0745 H   0  0  0  0  0  0  0  0  0  0  0  0
   65.6557   34.5834   49.9650 H   0  0  0  0  0  0  0  0  0  0  0  0
   62.9030   33.4471   51.4472 H   0  0  0  0  0  0  0  0  0  0  0  0
   62.5734   34.2406   49.8618 H   0  0  0  0  0  0  0  0  0  0  0  0
   61.4596   31.6263   50.9600 H   0  0  0  0  0  0  0  0  0  0  0  0
   60.5793   33.0874   50.3428 H   0  0  0  0  0  0  0  0  0  0  0  0
   61.6080   29.5110   47.5270 H   0  0  0  0  0  0  0  0  0  0  0  0
   58.4937   30.1141   46.0627 H   0  0  0  0  0  0  0  0  0  0  0  0
   56.7945   28.4001   45.4347 H   0  0  0  0  0  0  0  0  0  0  0  0
   55.1430   27.3910   45.9960 H   0  0  0  0  0  0  0  0  0  0  0  0
   58.8715   25.4591   47.8391 H   0  0  0  0  0  0  0  0  0  0  0  0
   60.5634   27.1717   48.4751 H   0  0  0  0  0  0  0  0  0  0  0  0
   62.2564   31.5283   46.9790 H   0  0  0  0  0  0  0  0  0  0  0  0
   62.2663   33.2229   47.5625 H   0  0  0  0  0  0  0  0  0  0  0  0
   63.9492   30.8731   48.5702 H   0  0  0  0  0  0  0  0  0  0  0  0
   64.5153   32.4048   47.7940 H   0  0  0  0  0  0  0  0  0  0  0  0
   60.8347   30.2490   51.1544 H   0  0  0  0  0  0  0  0  0  0  0  0
   59.3454   28.2634   50.8453 H   0  0  0  0  0  0  0  0  0  0  0  0
   60.2360   25.9643   51.2699 H   0  0  0  0  0  0  0  0  0  0  0  0
   62.6065   25.6844   52.0160 H   0  0  0  0  0  0  0  0  0  0  0  0
  1  2  2  3
  2  3  1  0
  3  4  1  0
  4  5  2  0
  5  6  1  0
  6  7  2  0
  7  8  1  0
  8  9  2  0
  9 10  1  0
 10 11  1  0
 11 12  1  0
 12 13  1  0
 13 14  1  0
 14 15  2  0
 14 16  1  0
 16 17  1  0
 17 18  2  0
 18 19  1  0
 19 20  2  0
 20 21  1  0
 21 22  1  0
 21 23  2  0
 21 24  2  0
 20 25  1  0
 25 26  2  0
 13 27  1  0
 27 28  1  0
  2 29  1  0
 29 30  2  0
 30 31  1  0
 31 32  2  0
 32 33  1  0
 33 34  2  0
  9  4  1  0
 28 10  1  0
 34 29  1  0
 26 17  1  0
  1 35  1  0
  3 36  1  0
  5 37  1  0
  6 38  1  0
  7 39  1  0
  8 40  1  0
 11 41  1  0
 11 42  1  0
 12 43  1  0
 12 44  1  0
 16 45  1  0
 18 46  1  0
 19 47  1  0
 22 48  1  0
 25 49  1  0
 26 50  1  0
 27 51  1  0
 27 52  1  0
 28 53  1  0
 28 54  1  0
 30 55  1  0
 31 56  1  0
 32 57  1  0
 33 58  1  0
M  CHG  1  22  -1
M  END
>  <UniqueID>  (19) 
13

>  <SMILES>  (19) 
N=C(Nc1ccccc1N1CCN(C(=O)Nc2ccc(S([NH-])(=O)=O)cc2)CC1)c1ccccn1

>  <Energy>  (19) 
79.54593096028697

>  <Genealogy>  (19) 
N=C(Nc1ccccc1N1CCN(C(=O)Nc2ccc(S([NH-])(=O)=O)cc2)CC1)c1ccccn1 (protonated)
N=C(Nc1ccccc1N1CCN(C(=O)Nc2ccc(S([NH-])(=O)=O)cc2)CC1)c1ccccn1 (3D coordinates assigned)
N=C(Nc1ccccc1N1CCN(C(=O)Nc2ccc(S([NH-])(=O)=O)cc2)CC1)c1ccccn1 (nonaromatic ring conformer: 79.54593096028697 kcal/mol)

>  <smiles>  (19) 
N=C(Nc1ccccc1N1CCN(C(=O)Nc2ccc(S(N)(=O)=O)cc2)CC1)c1ccccn1

>  <score_type>  (19) 
oracle

>  <origin>  (19) 
adg

>  <m_score__min__energy>  (19) 
-10.58

>  <m_primary>  (19) 
energy

$$$$
19:0
     RDKit          3D

 34 35  0  0  0  0  0  0  0  0999 V2000
   54.7790   26.3260   45.6810 N   0  0  0  0  0  0  0  0  0  0  0  0
   55.1730   24.9900   45.9840 C   0  0  0  0  0  0  0  0  0  0  0  0
   54.3110   24.1750   46.4080 O   0  0  0  0  0  0  0  0  0  0  0  0
   56.5920   24.5830   45.8490 C   0  0  0  0  0  0  0  0  0  0  0  0
   56.8810   23.2330   45.5800 C   0  0  0  0  0  0  0  0  0  0  0  0
   58.1930   22.8130   45.3640 C   0  0  0  0  0  0  0  0  0  0  0  0
   59.2380   23.7330   45.4140 C   0  0  0  0  0  0  0  0  0  0  0  0
   58.9760   25.0740   45.6950 C   0  0  0  0  0  0  0  0  0  0  0  0
   57.6600   25.5180   45.9300 C   0  0  0  0  0  0  0  0  0  0  0  0
   57.4200   26.8850   46.3140 N   0  0  0  0  0  0  0  0  0  0  0  0
   58.5060   27.8430   46.5320 C   0  0  0  0  0  0  0  0  0  0  0  0
   57.9790   29.2730   46.7190 C   0  0  0  0  0  0  0  0  0  0  0  0
   57.6120   29.9150   45.3970 C   0  0  0  0  0  0  0  0  0  0  0  0
   58.4770   30.8990   44.8810 C   0  0  0  0  0  0  0  0  0  0  0  0
   58.2100   31.5150   43.6570 C   0  0  0  0  0  0  0  0  0  0  0  0
   57.0760   31.1600   42.9290 C   0  0  0  0  0  0  0  0  0  0  0  0
   56.2070   30.1860   43.4220 C   0  0  0  0  0  0  0  0  0  0  0  0
   56.4590   29.5550   44.6470 C   0  0  0  0  0  0  0  0  0  0  0  0
   55.5450   28.5850   45.0680 O   0  0  0  0  0  0  0  0  0  0  0  0
   54.7870   27.0690   46.4150 H   0  0  0  0  0  0  0  0  0  0  0  0
   56.0621   22.4997   45.5395 H   0  0  0  0  0  0  0  0  0  0  0  0
   58.4032   21.7539   45.1539 H   0  0  0  0  0  0  0  0  0  0  0  0
   60.2709   23.4016   45.2317 H   0  0  0  0  0  0  0  0  0  0  0  0
   59.8072   25.7935   45.7335 H   0  0  0  0  0  0  0  0  0  0  0  0
   56.4360   27.1960   46.4640 H   0  0  0  0  0  0  0  0  0  0  0  0
   59.0641   27.5490   47.4332 H   0  0  0  0  0  0  0  0  0  0  0  0
   59.1539   27.8319   45.6431 H   0  0  0  0  0  0  0  0  0  0  0  0
   57.0856   29.2422   47.3600 H   0  0  0  0  0  0  0  0  0  0  0  0
   58.7766   29.8735   47.1808 H   0  0  0  0  0  0  0  0  0  0  0  0
   59.3741   31.1858   45.4493 H   0  0  0  0  0  0  0  0  0  0  0  0
   58.8956   32.2816   43.2667 H   0  0  0  0  0  0  0  0  0  0  0  0
   56.8659   31.6477   41.9656 H   0  0  0  0  0  0  0  0  0  0  0  0
   55.3138   29.9105   42.8421 H   0  0  0  0  0  0  0  0  0  0  0  0
   55.6800   27.5900   44.9680 H   0  0  0  0  0  0  0  0  0  0  0  0
  1  2  1  0
  2  3  2  0
  2  4  1  0
  4  5  2  0
  5  6  1  0
  6  7  2  0
  7  8  1  0
  8  9  2  0
  9 10  1  0
 10 11  1  0
 11 12  1  0
 12 13  1  0
 13 14  2  0
 14 15  1  0
 15 16  2  0
 16 17  1  0
 17 18  2  0
 18 19  1  0
  9  4  1  0
 18 13  1  0
  1 20  1  0
  5 21  1  0
  6 22  1  0
  7 23  1  0
  8 24  1  0
 10 25  1  0
 11 26  1  0
 11 27  1  0
 12 28  1  0
 12 29  1  0
 14 30  1  0
 15 31  1  0
 16 32  1  0
 17 33  1  0
 19 34  1  0
M  CHG  1   1  -1
M  END
>  <UniqueID>  (20) 
14

>  <SMILES>  (20) 
[NH-]C(=O)c1ccccc1NCCc1ccccc1O

>  <Energy>  (20) 
39.9389455229543

>  <Genealogy>  (20) 
[NH-]C(=O)c1ccccc1NCCc1ccccc1O (protonated)
[NH-]C(=O)c1ccccc1NCCc1ccccc1O (3D coordinates assigned)
[NH-]C(=O)c1ccccc1NCCc1ccccc1O (optimized conformer: 39.9389455229543 kcal/mol)

>  <smiles>  (20) 
NC(=O)c1ccccc1NCCc1ccccc1O

>  <score_type>  (20) 
oracle

>  <origin>  (20) 
adg

>  <m_score__min__energy>  (20) 
-10.65

>  <m_primary>  (20) 
energy

$$$$
20:0
     RDKit          3D

 60 63  0  0  0  0  0  0  0  0999 V2000
   57.7340   24.9700   47.9140 O   0  0  0  0  0  0  0  0  0  0  0  0
   56.5750   24.7110   47.4890 C   0  0  0  0  0  0  0  0  0  0  0  0
   55.9020   23.4500   47.8600 C   0  0  0  0  0  0  0  0  0  0  0  0
   56.0350   22.2860   47.2050 C   0  0  0  0  0  0  0  0  0  0  0  0
   56.7240   22.1330   45.9070 C   0  0  0  0  0  0  0  0  0  0  0  0
   58.1180   21.9990   45.8550 C   0  0  0  0  0  0  0  0  0  0  0  0
   58.7570   21.8020   44.6280 C   0  0  0  0  0  0  0  0  0  0  0  0
   58.0130   21.7490   43.4490 C   0  0  0  0  0  0  0  0  0  0  0  0
   56.6230   21.8800   43.4910 C   0  0  0  0  0  0  0  0  0  0  0  0
   55.8940   21.8310   42.3060 O   0  0  0  0  0  0  0  0  0  0  0  0
   55.9790   22.0570   44.7230 C   0  0  0  0  0  0  0  0  0  0  0  0
   55.9070   25.6300   46.6190 N   0  0  0  0  0  0  0  0  0  0  0  0
   56.5750   26.4840   45.6770 C   0  0  0  0  0  0  0  0  0  0  0  0
   57.5830   25.9510   44.8650 C   0  0  0  0  0  0  0  0  0  0  0  0
   58.2430   26.7620   43.9400 C   0  0  0  0  0  0  0  0  0  0  0  0
   57.9180   28.1190   43.8340 C   0  0  0  0  0  0  0  0  0  0  0  0
   56.9370   28.6820   44.6720 C   0  0  0  0  0  0  0  0  0  0  0  0
   56.6160   30.1240   44.5980 C   0  0  0  0  0  0  0  0  0  0  0  0
   55.5460   30.5100   44.0540 O   0  0  0  0  0  0  0  0  0  0  0  0
   57.5280   31.0850   45.1410 N   0  0  0  0  0  0  0  0  0  0  0  0
   57.3870   32.5250   44.9740 C   0  0  0  0  0  0  0  0  0  0  0  0
   58.1950   33.2470   46.0170 C   0  0  0  0  0  0  0  0  0  0  0  0
   58.9000   34.4170   45.6970 C   0  0  0  0  0  0  0  0  0  0  0  0
   59.6470   35.0770   46.6740 C   0  0  0  0  0  0  0  0  0  0  0  0
   59.6880   34.5850   47.9810 C   0  0  0  0  0  0  0  0  0  0  0  0
   58.9890   33.4150   48.3160 C   0  0  0  0  0  0  0  0  0  0  0  0
   58.9700   32.9120   49.7310 C   0  0  0  0  0  0  0  0  0  0  0  0
   59.5940   31.5950   49.7950 N   0  0  0  0  0  0  0  0  0  0  0  0
   58.8610   30.3690   49.7040 C   0  0  0  0  0  0  0  0  0  0  0  0
   57.9000   30.1420   50.4870 O   0  0  0  0  0  0  0  0  0  0  0  0
   59.2320   29.3740   48.6900 C   0  0  0  0  0  0  0  0  0  0  0  0
   59.8850   28.1790   48.9300 C   0  0  0  0  0  0  0  0  0  0  0  0
   59.9960   27.5500   47.7050 C   0  0  0  0  0  0  0  0  0  0  0  0
   59.4070   28.3860   46.7770 C   0  0  0  0  0  0  0  0  0  0  0  0
   58.9480   29.4970   47.3800 N   0  0  0  0  0  0  0  0  0  0  0  0
   58.2400   32.7530   47.3310 C   0  0  0  0  0  0  0  0  0  0  0  0
   56.2700   27.8550   45.5920 C   0  0  0  0  0  0  0  0  0  0  0  0
   55.2418   23.4658   48.7397 H   0  0  0  0  0  0  0  0  0  0  0  0
   55.6020   21.3857   47.6654 H   0  0  0  0  0  0  0  0  0  0  0  0
   58.7097   22.0489   46.7809 H   0  0  0  0  0  0  0  0  0  0  0  0
   59.8505   21.6883   44.5916 H   0  0  0  0  0  0  0  0  0  0  0  0
   58.5219   21.6038   42.4847 H   0  0  0  0  0  0  0  0  0  0  0  0
   56.1660   22.3670   41.4890 H   0  0  0  0  0  0  0  0  0  0  0  0
   54.8825   22.1367   44.7606 H   0  0  0  0  0  0  0  0  0  0  0  0
   57.8560   24.8893   44.9561 H   0  0  0  0  0  0  0  0  0  0  0  0
   59.0214   26.3327   43.2921 H   0  0  0  0  0  0  0  0  0  0  0  0
   58.4315   28.7486   43.0924 H   0  0  0  0  0  0  0  0  0  0  0  0
   57.7439   32.8121   43.9739 H   0  0  0  0  0  0  0  0  0  0  0  0
   56.3275   32.7987   45.0857 H   0  0  0  0  0  0  0  0  0  0  0  0
   58.8639   34.8156   44.6724 H   0  0  0  0  0  0  0  0  0  0  0  0
   60.2057   35.9882   46.4139 H   0  0  0  0  0  0  0  0  0  0  0  0
   60.2694   35.1158   48.7492 H   0  0  0  0  0  0  0  0  0  0  0  0
   59.5247   33.6107   50.3745 H   0  0  0  0  0  0  0  0  0  0  0  0
   57.9283   32.8378   50.0764 H   0  0  0  0  0  0  0  0  0  0  0  0
   60.2436   27.8048   49.9002 H   0  0  0  0  0  0  0  0  0  0  0  0
   60.4626   26.5736   47.5074 H   0  0  0  0  0  0  0  0  0  0  0  0
   59.3251   28.1740   45.7007 H   0  0  0  0  0  0  0  0  0  0  0  0
   58.4590   30.2950   46.9170 H   0  0  0  0  0  0  0  0  0  0  0  0
   57.6838   31.8400   47.5901 H   0  0  0  0  0  0  0  0  0  0  0  0
   55.5018   28.2838   46.2523 H   0  0  0  0  0  0  0  0  0  0  0  0
  1  2  2  0
  2  3  1  0
  3  4  2  3
  4  5  1  0
  5  6  2  0
  6  7  1  0
  7  8  2  0
  8  9  1  0
  9 10  1  0
  9 11  2  0
  2 12  1  0
 12 13  1  0
 13 14  2  0
 14 15  1  0
 15 16  2  0
 16 17  1  0
 17 18  1  0
 18 19  2  0
 18 20  1  0
 20 21  1  0
 21 22  1  0
 22 23  2  0
 23 24  1  0
 24 25  2  0
 25 26  1  0
 26 27  1  0
 27 28  1  0
 28 29  1  0
 29 30  2  0
 29 31  1  0
 31 32  2  0
 32 33  1  0
 33 34  2  0
 34 35  1  0
 26 36  2  0
 17 37  2  0
 11  5  1  0
 37 13  1  0
 36 22  1  0
 35 31  1  0
  3 38  1  0
  4 39  1  0
  6 40  1  0
  7 41  1  0
  8 42  1  0
 10 43  1  0
 11 44  1  0
 14 45  1  0
 15 46  1  0
 16 47  1  0
 21 48  1  0
 21 49  1  0
 23 50  1  0
 24 51  1  0
 25 52  1  0
 27 53  1  0
 27 54  1  0
 32 55  1  0
 33 56  1  0
 34 57  1  0
 35 58  1  0
 36 59  1  0
 37 60  1  0
M  CHG  3  12  -1  20  -1  28  -1
M  END
>  <UniqueID>  (21) 
15

>  <SMILES>  (21) 
O=C(C=Cc1cccc(O)c1)[N-]c1cccc(C(=O)[N-]Cc2cccc(C[N-]C(=O)c3ccc[nH]3)c2)c1

>  <Energy>  (21) 
92.73294413170431

>  <Genealogy>  (21) 
O=C(C=Cc1cccc(O)c1)[N-]c1cccc(C(=O)[N-]Cc2cccc(C[N-]C(=O)c3ccc[nH]3)c2)c1 (protonated)
O=C(C=Cc1cccc(O)c1)[N-]c1cccc(C(=O)[N-]Cc2cccc(C[N-]C(=O)c3ccc[nH]3)c2)c1 (3D coordinates assigned)
O=C(C=Cc1cccc(O)c1)[N-]c1cccc(C(=O)[N-]Cc2cccc(C[N-]C(=O)c3ccc[nH]3)c2)c1 (optimized conformer: 92.73294413170431 kcal/mol)

>  <smiles>  (21) 
O=C(C=Cc1cccc(O)c1)Nc1cccc(C(=O)NCc2cccc(CNC(=O)c3ccc[nH]3)c2)c1

>  <score_type>  (21) 
oracle

>  <origin>  (21) 
adg

>  <m_score__min__energy>  (21) 
-14.039999999999999

>  <m_primary>  (21) 
energy

$$$$
21:0
     RDKit          3D

 52 55  0  0  1  0  0  0  0  0999 V2000
   60.8750   33.5060   52.4290 C   0  0  0  0  0  0  0  0  0  0  0  0
   62.1630   33.3530   51.7100 C   0  0  0  0  0  0  0  0  0  0  0  0
   62.2370   33.8340   50.4570 N   0  0  0  0  0  0  0  0  0  0  0  0
   63.3720   33.7310   49.7430 C   0  0  0  0  0  0  0  0  0  0  0  0
   63.3690   34.2110   48.5560 N   0  0  0  0  0  0  0  0  0  0  0  0
   62.5280   33.7390   47.5150 C   0  0  0  0  0  0  0  0  0  0  0  0
   63.0140   33.6870   46.3630 O   0  0  0  0  0  0  0  0  0  0  0  0
   61.1920   33.3460   47.7920 N   0  0  0  0  0  0  0  0  0  0  0  0
   60.2620   32.8640   46.8740 C   0  0  0  0  0  0  0  0  0  0  0  0
   59.4990   33.5970   46.0100 C   0  0  0  0  0  0  0  0  0  0  0  0
   58.5870   33.0250   45.1190 C   0  0  0  0  0  0  0  0  0  0  0  0
   58.4150   31.6590   45.0750 C   0  0  0  0  0  0  0  0  0  0  0  0
   57.3140   30.8430   44.0110 S   0  0  0  0  0  0  0  0  0  0  0  0
   55.9010   30.8820   44.5260 O   0  0  0  0  0  0  0  0  0  0  0  0
   57.2660   31.5730   42.6790 O   0  0  0  0  0  0  0  0  0  0  0  0
   57.7620   29.2390   43.6870 N   0  0  0  0  0  0  0  0  0  0  0  0
   57.7330   28.1510   44.5680 C   0  0  0  0  0  0  0  0  0  0  0  0
   57.4170   28.1750   45.8930 C   0  0  0  0  0  0  0  0  0  0  0  0
   57.4050   27.0410   46.6810 C   0  0  0  0  0  0  0  0  0  0  0  0
   57.7200   25.8100   46.1500 C   0  0  0  0  0  0  0  0  0  0  0  0
   57.7190   24.6520   46.9120 O   0  0  0  0  0  0  0  0  0  0  0  0
   58.0430   25.7580   44.8190 C   0  0  0  0  0  0  0  0  0  0  0  0
   58.0530   26.8990   44.0300 C   0  0  0  0  0  0  0  0  0  0  0  0
   59.1790   30.9070   45.9400 C   0  0  0  0  0  0  0  0  0  0  0  0
   60.0770   31.4770   46.8170 C   0  0  0  0  0  0  0  0  0  0  0  0
   64.5230   33.1300   50.2480 C   0  0  0  0  0  0  0  0  0  0  0  0
   64.3970   32.6460   51.5500 C   0  0  0  0  0  0  0  0  0  0  0  0
   63.2440   32.7620   52.2450 N   0  0  0  0  0  0  0  0  0  0  0  0
   65.6690   32.0250   51.9920 C   0  0  0  0  0  0  0  0  0  0  0  0
   66.6550   32.6810   51.0750 C   0  0  0  0  0  0  0  0  0  0  0  0
   65.8730   32.8680   49.7540 C   0  0  0  0  0  0  0  0  0  0  0  0
   61.0559   33.4845   53.5138 H   0  0  0  0  0  0  0  0  0  0  0  0
   60.4128   34.4654   52.1532 H   0  0  0  0  0  0  0  0  0  0  0  0
   60.2010   32.6816   52.1532 H   0  0  0  0  0  0  0  0  0  0  0  0
   60.9080   33.4410   48.8140 H   0  0  0  0  0  0  0  0  0  0  0  0
   59.6078   34.6916   46.0159 H   0  0  0  0  0  0  0  0  0  0  0  0
   58.0019   33.6706   44.4475 H   0  0  0  0  0  0  0  0  0  0  0  0
   58.1080   29.0200   42.7020 H   0  0  0  0  0  0  0  0  0  0  0  0
   57.1603   29.1396   46.3552 H   0  0  0  0  0  0  0  0  0  0  0  0
   57.1406   27.1220   47.7457 H   0  0  0  0  0  0  0  0  0  0  0  0
   57.2520   24.5880   47.8130 H   0  0  0  0  0  0  0  0  0  0  0  0
   58.3002   24.7892   44.3660 H   0  0  0  0  0  0  0  0  0  0  0  0
   58.3165   26.8186   42.9651 H   0  0  0  0  0  0  0  0  0  0  0  0
   59.0686   29.8126   45.9306 H   0  0  0  0  0  0  0  0  0  0  0  0
   60.6609   30.8283   47.4865 H   0  0  0  0  0  0  0  0  0  0  0  0
   63.1580   32.3940   53.2270 H   0  0  0  0  0  0  0  0  0  0  0  0
   65.8844   32.2563   53.0456 H   0  0  0  0  0  0  0  0  0  0  0  0
   65.6728   30.9261   51.9430 H   0  0  0  0  0  0  0  0  0  0  0  0
   66.9779   33.6520   51.4787 H   0  0  0  0  0  0  0  0  0  0  0  0
   67.5707   32.0859   50.9435 H   0  0  0  0  0  0  0  0  0  0  0  0
   66.2609   33.7188   49.1746 H   0  0  0  0  0  0  0  0  0  0  0  0
   65.9406   32.0107   49.0681 H   0  0  0  0  0  0  0  0  0  0  0  0
  1  2  1  0
  2  3  2  0
  3  4  1  0
  4  5  2  0
  5  6  1  0
  6  7  2  0
  6  8  1  0
  8  9  1  0
  9 10  2  0
 10 11  1  0
 11 12  2  0
 12 13  1  0
 13 14  2  0
 13 15  2  0
 13 16  1  0
 16 17  1  0
 17 18  2  0
 18 19  1  0
 19 20  2  0
 20 21  1  0
 20 22  1  0
 22 23  2  0
 12 24  1  0
 24 25  2  0
  4 26  1  0
 26 27  2  0
 27 28  1  0
 27 29  1  0
 29 30  1  0
 30 31  1  0
 28  2  1  0
 25  9  1  0
 31 26  1  0
 23 17  1  0
  1 32  1  0
  1 33  1  0
  1 34  1  0
  8 35  1  0
 10 36  1  0
 11 37  1  0
 16 38  1  0
 18 39  1  0
 19 40  1  0
 21 41  1  0
 22 42  1  0
 23 43  1  0
 24 44  1  0
 25 45  1  0
 28 46  1  0
 29 47  1  0
 29 48  1  0
 30 49  1  0
 30 50  1  0
 31 51  1  0
 31 52  1  0
M  END
>  <smiles>  (22) 
Cc1nc(=NC(=O)Nc2ccc(S(=O)(=O)Nc3ccc(O)cc3)cc2)c2c([nH]1)CCC2

>  <score_type>  (22) 
oracle

>  <origin>  (22) 
adg

>  <m_score__min__energy>  (22) 
-9.4499999999999993

>  <m_primary>  (22) 
energy

$$$$
22:0
     RDKit          3D

 37 39  0  0  0  0  0  0  0  0999 V2000
   54.1870   25.9300   45.6280 O   0  0  0  0  0  0  0  0  0  0  0  0
   55.3800   25.5420   45.7550 C   0  0  0  0  0  0  0  0  0  0  0  0
   56.2480   26.1450   46.7230 N   0  0  0  0  0  0  0  0  0  0  0  0
   57.3820   26.9830   46.4510 C   0  0  0  0  0  0  0  0  0  0  0  0
   58.5750   26.8840   47.1870 C   0  0  0  0  0  0  0  0  0  0  0  0
   59.6610   27.7040   46.8740 C   0  0  0  0  0  0  0  0  0  0  0  0
   59.5760   28.6160   45.8210 C   0  0  0  0  0  0  0  0  0  0  0  0
   58.3940   28.7150   45.0610 C   0  0  0  0  0  0  0  0  0  0  0  0
   58.2690   29.6390   43.9650 N   0  0  0  0  0  0  0  0  0  0  0  0
   57.2020   31.0090   43.9680 S   0  0  0  0  0  0  0  0  0  0  0  0
   55.8640   30.5940   44.5130 O   0  0  0  0  0  0  0  0  0  0  0  0
   57.0250   31.4960   42.5570 O   0  0  0  0  0  0  0  0  0  0  0  0
   57.8580   32.2840   44.9900 C   0  0  0  0  0  0  0  0  0  0  0  0
   58.1230   32.0290   46.3430 C   0  0  0  0  0  0  0  0  0  0  0  0
   58.6530   33.0350   47.1570 C   0  0  0  0  0  0  0  0  0  0  0  0
   58.9170   34.3010   46.6230 C   0  0  0  0  0  0  0  0  0  0  0  0
   58.6490   34.5600   45.2760 C   0  0  0  0  0  0  0  0  0  0  0  0
   58.1190   33.5560   44.4600 C   0  0  0  0  0  0  0  0  0  0  0  0
   57.3100   27.8820   45.3800 C   0  0  0  0  0  0  0  0  0  0  0  0
   55.9080   24.5010   44.8670 C   0  0  0  0  0  0  0  0  0  0  0  0
   57.2420   24.1960   44.6740 C   0  0  0  0  0  0  0  0  0  0  0  0
   57.2570   23.1620   43.7620 C   0  0  0  0  0  0  0  0  0  0  0  0
   55.9360   22.9010   43.4570 C   0  0  0  0  0  0  0  0  0  0  0  0
   55.1560   23.7160   44.1310 O   0  0  0  0  0  0  0  0  0  0  0  0
   58.6534   26.1594   48.0109 H   0  0  0  0  0  0  0  0  0  0  0  0
   60.5886   27.6308   47.4606 H   0  0  0  0  0  0  0  0  0  0  0  0
   60.4355   29.2601   45.5835 H   0  0  0  0  0  0  0  0  0  0  0  0
   58.7900   29.4510   43.0810 H   0  0  0  0  0  0  0  0  0  0  0  0
   57.9135   31.0351   46.7652 H   0  0  0  0  0  0  0  0  0  0  0  0
   58.8624   32.8310   48.2174 H   0  0  0  0  0  0  0  0  0  0  0  0
   59.3352   35.0920   47.2629 H   0  0  0  0  0  0  0  0  0  0  0  0
   58.8555   35.5559   44.8569 H   0  0  0  0  0  0  0  0  0  0  0  0
   57.9064   33.7640   43.4010 H   0  0  0  0  0  0  0  0  0  0  0  0
   56.3900   27.9364   44.7794 H   0  0  0  0  0  0  0  0  0  0  0  0
   58.1099   24.6773   45.1485 H   0  0  0  0  0  0  0  0  0  0  0  0
   58.1425   22.6488   43.3589 H   0  0  0  0  0  0  0  0  0  0  0  0
   55.5889   22.1278   42.7558 H   0  0  0  0  0  0  0  0  0  0  0  0
  1  2  2  0
  2  3  1  0
  3  4  1  0
  4  5  2  0
  5  6  1  0
  6  7  2  0
  7  8  1  0
  8  9  1  0
  9 10  1  0
 10 11  2  0
 10 12  2  0
 10 13  1  0
 13 14  2  0
 14 15  1  0
 15 16  2  0
 16 17  1  0
 17 18  2  0
  8 19  2  0
  2 20  1  0
 20 21  2  0
 21 22  1  0
 22 23  2  0
 23 24  1  0
 19  4  1  0
 24 20  1  0
 18 13  1  0
  5 25  1  0
  6 26  1  0
  7 27  1  0
  9 28  1  0
 14 29  1  0
 15 30  1  0
 16 31  1  0
 17 32  1  0
 18 33  1  0
 19 34  1  0
 21 35  1  0
 22 36  1  0
 23 37  1  0
M  CHG  1   3  -1
M  END
>  <UniqueID>  (23) 
16

>  <SMILES>  (23) 
O=C([N-]c1cccc(NS(=O)(=O)c2ccccc2)c1)c1ccco1

>  <Energy>  (23) 
70.63635273450205

>  <Genealogy>  (23) 
O=C([N-]c1cccc(NS(=O)(=O)c2ccccc2)c1)c1ccco1 (protonated)
O=C([N-]c1cccc(NS(=O)(=O)c2ccccc2)c1)c1ccco1 (3D coordinates assigned)
O=C([N-]c1cccc(NS(=O)(=O)c2ccccc2)c1)c1ccco1 (optimized conformer: 70.63635273450205 kcal/mol)

>  <smiles>  (23) 
O=C(Nc1cccc(NS(=O)(=O)c2ccccc2)c1)c1ccco1

>  <score_type>  (23) 
oracle

>  <origin>  (23) 
adg

>  <m_score__min__energy>  (23) 
-11.19

>  <m_primary>  (23) 
energy

$$$$
23:0
     RDKit          3D

 45 48  0  0  0  0  0  0  0  0999 V2000
   55.5210   24.2410   46.7520 O   0  0  0  0  0  0  0  0  0  0  0  0
   55.9300   25.3700   46.3760 C   0  0  0  0  0  0  0  0  0  0  0  0
   55.0970   26.3320   45.9240 N   0  0  0  0  0  0  0  0  0  0  0  0
   55.9390   27.3380   45.6360 C   0  0  0  0  0  0  0  0  0  0  0  0
   55.5330   28.5380   45.0660 O   0  0  0  0  0  0  0  0  0  0  0  0
   57.2330   26.9760   45.9340 C   0  0  0  0  0  0  0  0  0  0  0  0
   58.4580   27.7590   45.7030 C   0  0  0  0  0  0  0  0  0  0  0  0
   58.9480   28.6580   46.5650 C   0  0  0  0  0  0  0  0  0  0  0  0
   58.1480   29.8040   47.1260 C   0  0  0  0  0  0  0  0  0  0  0  0
   58.4450   31.0540   46.3890 N   0  0  0  0  0  0  0  0  0  0  0  0
   59.1600   32.0450   47.0270 C   0  0  0  0  0  0  0  0  0  0  0  0
   59.5830   31.8690   48.2040 O   0  0  0  0  0  0  0  0  0  0  0  0
   59.4330   33.2680   46.3860 C   0  0  0  0  0  0  0  0  0  0  0  0
   60.1620   34.3850   47.0950 C   0  0  0  0  0  0  0  0  0  0  0  0
   61.5120   33.9160   47.5640 C   0  0  0  0  0  0  0  0  0  0  0  0
   62.4700   33.4740   46.6350 C   0  0  0  0  0  0  0  0  0  0  0  0
   63.7380   33.0700   47.0670 C   0  0  0  0  0  0  0  0  0  0  0  0
   64.0600   33.1110   48.4260 C   0  0  0  0  0  0  0  0  0  0  0  0
   63.1170   33.5580   49.3560 C   0  0  0  0  0  0  0  0  0  0  0  0
   61.8480   33.9630   48.9280 C   0  0  0  0  0  0  0  0  0  0  0  0
   58.9720   33.4690   45.0860 C   0  0  0  0  0  0  0  0  0  0  0  0
   58.2900   32.4570   44.4170 C   0  0  0  0  0  0  0  0  0  0  0  0
   57.8630   32.6580   43.0950 C   0  0  0  0  0  0  0  0  0  0  0  0
   57.2050   31.6430   42.4040 C   0  0  0  0  0  0  0  0  0  0  0  0
   56.9730   30.4120   43.0230 C   0  0  0  0  0  0  0  0  0  0  0  0
   56.3300   29.3850   42.3350 O   0  0  0  0  0  0  0  0  0  0  0  0
   57.3870   30.2020   44.3420 C   0  0  0  0  0  0  0  0  0  0  0  0
   58.0410   31.2250   45.0750 C   0  0  0  0  0  0  0  0  0  0  0  0
   57.2380   25.7100   46.3860 N   0  0  0  0  0  0  0  0  0  0  0  0
   59.0050   27.5949   44.7629 H   0  0  0  0  0  0  0  0  0  0  0  0
   59.9961   28.5537   46.8822 H   0  0  0  0  0  0  0  0  0  0  0  0
   57.0758   29.5759   47.0346 H   0  0  0  0  0  0  0  0  0  0  0  0
   58.4176   29.9420   48.1835 H   0  0  0  0  0  0  0  0  0  0  0  0
   60.2923   35.2296   46.4024 H   0  0  0  0  0  0  0  0  0  0  0  0
   59.5707   34.6992   47.9677 H   0  0  0  0  0  0  0  0  0  0  0  0
   62.2217   33.4456   45.5638 H   0  0  0  0  0  0  0  0  0  0  0  0
   64.4819   32.7199   46.3362 H   0  0  0  0  0  0  0  0  0  0  0  0
   65.0566   32.7912   48.7644 H   0  0  0  0  0  0  0  0  0  0  0  0
   63.3729   33.5914   50.4253 H   0  0  0  0  0  0  0  0  0  0  0  0
   61.1103   34.3196   49.6619 H   0  0  0  0  0  0  0  0  0  0  0  0
   59.1482   34.4329   44.5861 H   0  0  0  0  0  0  0  0  0  0  0  0
   58.0492   33.6233   42.6014 H   0  0  0  0  0  0  0  0  0  0  0  0
   56.8679   31.8107   41.3705 H   0  0  0  0  0  0  0  0  0  0  0  0
   55.9330   28.5880   42.8200 H   0  0  0  0  0  0  0  0  0  0  0  0
   57.2025   29.2280   44.8187 H   0  0  0  0  0  0  0  0  0  0  0  0
  1  2  2  0
  2  3  1  0
  3  4  1  0
  4  5  1  0
  4  6  2  0
  6  7  1  0
  7  8  2  3
  8  9  1  0
  9 10  1  0
 10 11  1  0
 11 12  2  0
 11 13  1  0
 13 14  1  0
 14 15  1  0
 15 16  2  0
 16 17  1  0
 17 18  2  0
 18 19  1  0
 19 20  2  0
 13 21  2  0
 21 22  1  0
 22 23  2  0
 23 24  1  0
 24 25  2  0
 25 26  1  0
 25 27  1  0
 27 28  2  0
  6 29  1  0
 29  2  1  0
 28 10  1  0
 20 15  1  0
 28 22  1  0
  7 30  1  0
  8 31  1  0
  9 32  1  0
  9 33  1  0
 14 34  1  0
 14 35  1  0
 16 36  1  0
 17 37  1  0
 18 38  1  0
 19 39  1  0
 20 40  1  0
 21 41  1  0
 23 42  1  0
 24 43  1  0
 26 44  1  0
 27 45  1  0
M  CHG  3   3  -1   5  -1  29  -1
M  END
>  <UniqueID>  (24) 
17

>  <SMILES>  (24) 
O=c1[n-]c([O-])c(C=CCn2c(=O)c(Cc3ccccc3)cc3ccc(O)cc32)[n-]1

>  <Energy>  (24) 
93.8664128732197

>  <Genealogy>  (24) 
O=c1[n-]c([O-])c(C=CCn2c(=O)c(Cc3ccccc3)cc3ccc(O)cc32)[n-]1 (protonated)
O=c1[n-]c([O-])c(C=CCn2c(=O)c(Cc3ccccc3)cc3ccc(O)cc32)[n-]1 (3D coordinates assigned)
O=c1[n-]c([O-])c(C=CCn2c(=O)c(Cc3ccccc3)cc3ccc(O)cc32)[n-]1 (optimized conformer: 93.8664128732197 kcal/mol)

>  <smiles>  (24) 
O=c1[nH]c(O)c(C=CCn2c(=O)c(Cc3ccccc3)cc3ccc(O)cc32)[nH]1

>  <score_type>  (24) 
oracle

>  <origin>  (24) 
adg

>  <m_score__min__energy>  (24) 
-16.600000000000001

>  <m_primary>  (24) 
energy

$$$$
24:0
     RDKit          3D

 36 38  0  0  0  0  0  0  0  0999 V2000
   54.7730   27.0830   46.5900 H   0  0  0  0  0  0  0  0  0  0  0  0
   54.8860   26.2330   45.9940 N   0  0  0  0  0  0  0  0  0  0  0  0
   56.5650   25.8240   46.0140 S   0  0  0  0  0  0  0  0  0  0  0  0
   56.8050   24.6440   45.1150 O   0  0  0  0  0  0  0  0  0  0  0  0
   56.9770   25.4580   47.4120 O   0  0  0  0  0  0  0  0  0  0  0  0
   57.5080   27.2020   45.4580 C   0  0  0  0  0  0  0  0  0  0  0  0
   58.7500   27.0050   44.8380 C   0  0  0  0  0  0  0  0  0  0  0  0
   59.1456   25.9863   44.7123 H   0  0  0  0  0  0  0  0  0  0  0  0
   59.4870   28.1020   44.3790 C   0  0  0  0  0  0  0  0  0  0  0  0
   60.4590   27.9440   43.8888 H   0  0  0  0  0  0  0  0  0  0  0  0
   58.9910   29.3970   44.5420 C   0  0  0  0  0  0  0  0  0  0  0  0
   59.5656   30.2557   44.1646 H   0  0  0  0  0  0  0  0  0  0  0  0
   57.7650   29.6060   45.1840 C   0  0  0  0  0  0  0  0  0  0  0  0
   57.2340   30.9310   45.2830 N   0  0  0  0  0  0  0  0  0  0  0  0
   57.8640   32.0760   45.2660 C   0  0  0  0  0  0  0  0  0  0  0  0
   58.1390   32.6700   46.5060 C   0  0  0  0  0  0  0  0  0  0  0  0
   57.7792   32.1937   47.4300 H   0  0  0  0  0  0  0  0  0  0  0  0
   58.8650   33.8600   46.5790 C   0  0  0  0  0  0  0  0  0  0  0  0
   59.0950   34.4620   47.8630 N   0  0  0  0  0  0  0  0  0  0  0  0
   60.0280   34.1960   48.7350 C   0  0  0  0  0  0  0  0  0  0  0  0
   59.6490   33.8760   50.0030 N   0  0  0  0  0  0  0  0  0  0  0  0
   60.5460   33.5750   50.9790 C   0  0  0  0  0  0  0  0  0  0  0  0
   60.1946   33.3306   51.9923 H   0  0  0  0  0  0  0  0  0  0  0  0
   61.9120   33.5760   50.6960 C   0  0  0  0  0  0  0  0  0  0  0  0
   62.6438   33.3413   51.4830 H   0  0  0  0  0  0  0  0  0  0  0  0
   62.3380   33.8780   49.4040 C   0  0  0  0  0  0  0  0  0  0  0  0
   63.4117   33.8755   49.1649 H   0  0  0  0  0  0  0  0  0  0  0  0
   61.4030   34.1840   48.4120 C   0  0  0  0  0  0  0  0  0  0  0  0
   61.7347   34.4135   47.3886 H   0  0  0  0  0  0  0  0  0  0  0  0
   59.2420   34.4840   45.4330 N   0  0  0  0  0  0  0  0  0  0  0  0
   58.9690   33.9660   44.2090 C   0  0  0  0  0  0  0  0  0  0  0  0
   59.3014   34.4988   43.3059 H   0  0  0  0  0  0  0  0  0  0  0  0
   58.2690   32.7610   44.0840 C   0  0  0  0  0  0  0  0  0  0  0  0
   57.8140   32.2980   42.4450 Cl  0  0  0  0  0  0  0  0  0  0  0  0
   57.0080   28.5030   45.6110 C   0  0  0  0  0  0  0  0  0  0  0  0
   56.0194   28.6602   46.0671 H   0  0  0  0  0  0  0  0  0  0  0  0
  1  2  1  0
  2  3  1  0
  3  4  2  0
  3  5  2  0
  3  6  1  0
  6  7  2  0
  7  8  1  0
  7  9  1  0
  9 10  1  0
  9 11  2  0
 11 12  1  0
 11 13  1  0
 13 14  1  0
 14 15  2  0
 15 16  1  0
 16 17  1  0
 16 18  2  0
 18 19  1  0
 19 20  2  3
 20 21  1  0
 21 22  1  0
 22 23  1  0
 22 24  2  0
 24 25  1  0
 24 26  1  0
 26 27  1  0
 26 28  2  0
 28 29  1  0
 18 30  1  0
 30 31  1  0
 31 32  1  0
 31 33  2  0
 33 34  1  0
 13 35  2  0
 35 36  1  0
 35  6  1  0
 33 15  1  0
 28 20  1  0
M  CHG  3   2  -1  21  -1  30  -1
M  END
>  <UniqueID>  (25) 
18

>  <SMILES>  (25) 
[NH-]S(=O)(=O)c1cccc(/N=c2/cc(N=c3cccc[n-]3)[n-]cc2Cl)c1

>  <Energy>  (25) 
64.61266529622691

>  <Genealogy>  (25) 
[NH-]S(=O)(=O)c1cccc(N=c2cc(N=c3cccc[n-]3)[n-]cc2Cl)c1 (protonated)
[NH-]S(=O)(=O)c1cccc(/N=c2/cc(N=c3cccc[n-]3)[n-]cc2Cl)c1 (cis-trans isomerization)
[NH-]S(=O)(=O)c1cccc(/N=c2/cc(N=c3cccc[n-]3)[n-]cc2Cl)c1 (3D coordinates assigned)
[NH-]S(=O)(=O)c1cccc(/N=c2/cc(N=c3cccc[n-]3)[n-]cc2Cl)c1 (optimized conformer: 64.61266529622691 kcal/mol)

>  <smiles>  (25) 
NS(=O)(=O)c1cccc(N=c2cc(N=c3cccc[nH]3)[nH]cc2Cl)c1

>  <score_type>  (25) 
oracle

>  <origin>  (25) 
adg

>  <m_score__min__energy>  (25) 
-13

>  <m_primary>  (25) 
energy

$$$$
25:0
     RDKit          3D

 49 51  0  0  0  0  0  0  0  0999 V2000
   60.3960   27.5460   48.9750 C   0  0  0  0  0  0  0  0  0  0  0  0
   59.7100   28.6320   49.5830 O   0  0  0  0  0  0  0  0  0  0  0  0
   59.5610   29.8740   48.9580 C   0  0  0  0  0  0  0  0  0  0  0  0
   58.5360   30.1280   48.2690 O   0  0  0  0  0  0  0  0  0  0  0  0
   60.6500   30.9050   49.0890 C   0  0  0  0  0  0  0  0  0  0  0  0
   60.6770   31.8740   47.9660 N   0  0  2  0  0  0  0  0  0  0  0  0
   61.8680   31.6660   47.1140 C   0  0  0  0  0  0  0  0  0  0  0  0
   60.5850   33.2750   48.4540 C   0  0  0  0  0  0  0  0  0  0  0  0
   60.0390   34.2360   47.3780 C   0  0  0  0  0  0  0  0  0  0  0  0
   58.5350   34.0430   47.1400 C   0  0  0  0  0  0  0  0  0  0  0  0
   58.2860   33.1880   45.9720 N   0  0  0  0  0  0  0  0  0  0  0  0
   58.3000   31.8640   46.1520 N   0  0  0  0  0  0  0  0  0  0  0  0
   58.0580   30.9840   45.1430 C   0  0  0  0  0  0  0  0  0  0  0  0
   58.0950   29.5710   45.4080 N   0  0  0  0  0  0  0  0  0  0  0  0
   59.2330   28.7310   45.6470 C   0  0  0  0  0  0  0  0  0  0  0  0
   60.4260   29.1330   45.6920 O   0  0  0  0  0  0  0  0  0  0  0  0
   58.8130   27.3370   45.7540 C   0  0  0  0  0  0  0  0  0  0  0  0
   59.5540   26.1800   45.9810 C   0  0  0  0  0  0  0  0  0  0  0  0
   58.8680   24.9530   46.0200 C   0  0  0  0  0  0  0  0  0  0  0  0
   57.4680   24.9100   45.8310 C   0  0  0  0  0  0  0  0  0  0  0  0
   56.7440   26.0930   45.6000 C   0  0  0  0  0  0  0  0  0  0  0  0
   57.4480   27.2950   45.5670 C   0  0  0  0  0  0  0  0  0  0  0  0
   56.9890   28.6610   45.3440 C   0  0  0  0  0  0  0  0  0  0  0  0
   55.7960   29.0040   45.1340 O   0  0  0  0  0  0  0  0  0  0  0  0
   57.7990   31.4830   43.8620 C   0  0  0  0  0  0  0  0  0  0  0  0
   57.7750   32.8590   43.6610 C   0  0  0  0  0  0  0  0  0  0  0  0
   58.0180   33.7140   44.7350 C   0  0  0  0  0  0  0  0  0  0  0  0
   57.9840   34.9620   44.5510 O   0  0  0  0  0  0  0  0  0  0  0  0
   60.8099   26.8907   49.7555 H   0  0  0  0  0  0  0  0  0  0  0  0
   59.6952   26.9737   48.3494 H   0  0  0  0  0  0  0  0  0  0  0  0
   61.2139   27.9330   48.3494 H   0  0  0  0  0  0  0  0  0  0  0  0
   60.4947   31.4601   50.0259 H   0  0  0  0  0  0  0  0  0  0  0  0
   61.6102   30.3684   49.0803 H   0  0  0  0  0  0  0  0  0  0  0  0
   59.8340   31.6690   47.3800 H   0  0  0  0  0  0  0  0  0  0  0  0
   62.7517   31.5117   47.7505 H   0  0  0  0  0  0  0  0  0  0  0  0
   61.7145   30.7811   46.4789 H   0  0  0  0  0  0  0  0  0  0  0  0
   62.0235   32.5506   46.4789 H   0  0  0  0  0  0  0  0  0  0  0  0
   59.9146   33.3025   49.3256 H   0  0  0  0  0  0  0  0  0  0  0  0
   61.6003   33.6067   48.7169 H   0  0  0  0  0  0  0  0  0  0  0  0
   60.2163   35.2714   47.7045 H   0  0  0  0  0  0  0  0  0  0  0  0
   60.5614   34.0196   46.4345 H   0  0  0  0  0  0  0  0  0  0  0  0
   58.0886   33.5741   48.0293 H   0  0  0  0  0  0  0  0  0  0  0  0
   58.0835   35.0283   46.9522 H   0  0  0  0  0  0  0  0  0  0  0  0
   60.6436   26.2245   46.1255 H   0  0  0  0  0  0  0  0  0  0  0  0
   59.4244   24.0211   46.1987 H   0  0  0  0  0  0  0  0  0  0  0  0
   56.9414   23.9448   45.8648 H   0  0  0  0  0  0  0  0  0  0  0  0
   55.6545   26.0703   45.4498 H   0  0  0  0  0  0  0  0  0  0  0  0
   57.6164   30.7950   43.0234 H   0  0  0  0  0  0  0  0  0  0  0  0
   57.5659   33.2696   42.6622 H   0  0  0  0  0  0  0  0  0  0  0  0
  1  2  1  0
  2  3  1  0
  3  4  2  0
  3  5  1  0
  5  6  1  0
  6  7  1  0
  6  8  1  0
  8  9  1  0
  9 10  1  0
 10 11  1  0
 11 12  1  0
 12 13  2  0
 13 14  1  0
 14 15  1  0
 15 16  2  0
 15 17  1  0
 17 18  2  0
 18 19  1  0
 19 20  2  0
 20 21  1  0
 21 22  2  0
 22 23  1  0
 23 24  2  0
 13 25  1  0
 25 26  2  0
 26 27  1  0
 27 28  2  0
 27 11  1  0
 23 14  1  0
 22 17  1  0
  1 29  1  0
  1 30  1  0
  1 31  1  0
  5 32  1  0
  5 33  1  0
  6 34  1  6
  7 35  1  0
  7 36  1  0
  7 37  1  0
  8 38  1  0
  8 39  1  0
  9 40  1  0
  9 41  1  0
 10 42  1  0
 10 43  1  0
 18 44  1  0
 19 45  1  0
 20 46  1  0
 21 47  1  0
 25 48  1  0
 26 49  1  0
M  CHG  1   6   1
M  END
>  <UniqueID>  (26) 
19

>  <SMILES>  (26) 
COC(=O)C[N@H+](C)CCCn1nc(N2C(=O)c3ccccc3C2=O)ccc1=O

>  <Energy>  (26) 
85.16156074615319

>  <Genealogy>  (26) 
COC(=O)C[NH+](C)CCCn1nc(N2C(=O)c3ccccc3C2=O)ccc1=O (protonated)
COC(=O)C[N@H+](C)CCCn1nc(N2C(=O)c3ccccc3C2=O)ccc1=O (chirality)
COC(=O)C[N@H+](C)CCCn1nc(N2C(=O)c3ccccc3C2=O)ccc1=O (3D coordinates assigned)
COC(=O)C[N@H+](C)CCCn1nc(N2C(=O)c3ccccc3C2=O)ccc1=O (nonaromatic ring conformer: 85.16156074615319 kcal/mol)

>  <smiles>  (26) 
COC(=O)CN(C)CCCn1nc(N2C(=O)c3ccccc3C2=O)ccc1=O

>  <score_type>  (26) 
oracle

>  <origin>  (26) 
adg

>  <m_score__min__energy>  (26) 
-6.4299999999999997

>  <m_primary>  (26) 
energy

$$$$
26:0
     RDKit          3D

 42 44  0  0  0  0  0  0  0  0999 V2000
   65.0250   32.9440   49.6170 C   0  0  0  0  0  0  0  0  0  0  0  0
   64.1530   33.6000   48.7030 O   0  0  0  0  0  0  0  0  0  0  0  0
   62.7780   33.3430   48.5950 C   0  0  0  0  0  0  0  0  0  0  0  0
   62.1740   32.9790   47.3750 C   0  0  0  0  0  0  0  0  0  0  0  0
   60.8010   32.7280   47.3150 C   0  0  0  0  0  0  0  0  0  0  0  0
   60.0090   32.8240   48.4680 C   0  0  0  0  0  0  0  0  0  0  0  0
   58.5230   32.5660   48.3990 C   0  0  0  0  0  0  0  0  0  0  0  0
   58.1450   31.9640   47.1000 N   0  0  0  0  0  0  0  0  0  0  0  0
   58.5500   30.6850   46.7660 C   0  0  0  0  0  0  0  0  0  0  0  0
   59.3570   29.9040   47.6700 N   0  0  0  0  0  0  0  0  0  0  0  0
   58.2170   30.1500   45.5000 C   0  0  0  0  0  0  0  0  0  0  0  0
   58.5940   28.7680   45.1150 C   0  0  0  0  0  0  0  0  0  0  0  0
   59.6040   28.6010   44.3790 O   0  0  0  0  0  0  0  0  0  0  0  0
   57.8450   27.5820   45.6060 C   0  0  0  0  0  0  0  0  0  0  0  0
   58.5610   26.4860   46.1240 C   0  0  0  0  0  0  0  0  0  0  0  0
   57.8870   25.3590   46.6020 C   0  0  0  0  0  0  0  0  0  0  0  0
   56.4930   25.3080   46.5630 C   0  0  0  0  0  0  0  0  0  0  0  0
   55.7670   26.3790   46.0360 C   0  0  0  0  0  0  0  0  0  0  0  0
   54.3790   26.3140   45.9890 O   0  0  0  0  0  0  0  0  0  0  0  0
   56.4350   27.5130   45.5510 C   0  0  0  0  0  0  0  0  0  0  0  0
   55.6880   28.5490   44.9970 O   0  0  0  0  0  0  0  0  0  0  0  0
   57.4780   30.9440   44.6160 C   0  0  0  0  0  0  0  0  0  0  0  0
   57.1380   30.5090   43.4830 O   0  0  0  0  0  0  0  0  0  0  0  0
   57.1060   32.1910   44.9800 N   0  0  0  0  0  0  0  0  0  0  0  0
   57.4250   32.7050   46.1920 C   0  0  0  0  0  0  0  0  0  0  0  0
   57.0540   33.8800   46.4610 O   0  0  0  0  0  0  0  0  0  0  0  0
   60.6070   33.2050   49.6790 C   0  0  0  0  0  0  0  0  0  0  0  0
   61.9810   33.4560   49.7430 C   0  0  0  0  0  0  0  0  0  0  0  0
   62.5570   33.8220   50.9540 O   0  0  0  0  0  0  0  0  0  0  0  0
   64.7175   33.1754   50.6475 H   0  0  0  0  0  0  0  0  0  0  0  0
   64.9758   31.8571   49.4549 H   0  0  0  0  0  0  0  0  0  0  0  0
   66.0556   33.2926   49.4549 H   0  0  0  0  0  0  0  0  0  0  0  0
   62.7866   32.8921   46.4655 H   0  0  0  0  0  0  0  0  0  0  0  0
   60.3378   32.4530   46.3559 H   0  0  0  0  0  0  0  0  0  0  0  0
   58.2400   31.8781   49.2094 H   0  0  0  0  0  0  0  0  0  0  0  0
   57.9969   33.5262   48.5047 H   0  0  0  0  0  0  0  0  0  0  0  0
   59.4390   30.1220   48.6850 H   0  0  0  0  0  0  0  0  0  0  0  0
   59.9040   29.0810   47.3380 H   0  0  0  0  0  0  0  0  0  0  0  0
   59.6602   26.5171   46.1527 H   0  0  0  0  0  0  0  0  0  0  0  0
   58.4563   24.5106   47.0097 H   0  0  0  0  0  0  0  0  0  0  0  0
   55.9649   24.4231   46.9478 H   0  0  0  0  0  0  0  0  0  0  0  0
   59.9905   33.3069   50.5843 H   0  0  0  0  0  0  0  0  0  0  0  0
  1  2  1  0
  2  3  1  0
  3  4  2  0
  4  5  1  0
  5  6  2  0
  6  7  1  0
  7  8  1  0
  8  9  1  0
  9 10  1  0
  9 11  2  0
 11 12  1  0
 12 13  2  0
 12 14  1  0
 14 15  2  0
 15 16  1  0
 16 17  2  0
 17 18  1  0
 18 19  1  0
 18 20  2  0
 20 21  1  0
 11 22  1  0
 22 23  2  0
 22 24  1  0
 24 25  1  0
 25 26  2  0
  6 27  1  0
 27 28  2  0
 28 29  1  0
 28  3  1  0
 25  8  1  0
 20 14  1  0
  1 30  1  0
  1 31  1  0
  1 32  1  0
  4 33  1  0
  5 34  1  0
  7 35  1  0
  7 36  1  0
 10 37  1  0
 10 38  1  0
 15 39  1  0
 16 40  1  0
 17 41  1  0
 27 42  1  0
M  CHG  4  19  -1  21  -1  24  -1  29  -1
M  END
>  <UniqueID>  (27) 
20

>  <SMILES>  (27) 
COc1ccc(Cn2c(N)c(C(=O)c3cccc([O-])c3[O-])c(=O)[n-]c2=O)cc1[O-]

>  <Energy>  (27) 
62.93792604397365

>  <Genealogy>  (27) 
COc1ccc(Cn2c(N)c(C(=O)c3cccc([O-])c3[O-])c(=O)[n-]c2=O)cc1[O-] (protonated)
COc1ccc(Cn2c(N)c(C(=O)c3cccc([O-])c3[O-])c(=O)[n-]c2=O)cc1[O-] (3D coordinates assigned)
COc1ccc(Cn2c(N)c(C(=O)c3cccc([O-])c3[O-])c(=O)[n-]c2=O)cc1[O-] (optimized conformer: 62.93792604397365 kcal/mol)

>  <smiles>  (27) 
COc1ccc(Cn2c(N)c(C(=O)c3cccc(O)c3O)c(=O)[nH]c2=O)cc1O

>  <score_type>  (27) 
oracle

>  <origin>  (27) 
adg

>  <m_score__min__energy>  (27) 
-16.91

>  <m_primary>  (27) 
energy

$$$$
27:0
     RDKit          3D

 56 59  0  0  0  0  0  0  0  0999 V2000
   62.5880   33.3200   46.7360 C   0  0  0  0  0  0  0  0  0  0  0  0
   62.1670   32.1960   47.6460 C   0  0  0  0  0  0  0  0  0  0  0  0
   61.2720   31.2270   47.1640 C   0  0  0  0  0  0  0  0  0  0  0  0
   60.8800   30.1590   47.9860 C   0  0  0  0  0  0  0  0  0  0  0  0
   59.8480   29.1840   47.5580 C   0  0  0  0  0  0  0  0  0  0  0  0
   59.9880   27.8120   47.8340 C   0  0  0  0  0  0  0  0  0  0  0  0
   59.0570   26.8910   47.3480 C   0  0  0  0  0  0  0  0  0  0  0  0
   57.9650   27.3200   46.5750 C   0  0  0  0  0  0  0  0  0  0  0  0
   57.0020   26.3390   46.0230 C   0  0  0  0  0  0  0  0  0  0  0  0
   55.5980   26.5250   46.1940 N   0  0  0  0  0  0  0  0  0  0  0  0
   57.4160   25.3220   45.4030 O   0  0  0  0  0  0  0  0  0  0  0  0
   57.8200   28.6920   46.3070 C   0  0  0  0  0  0  0  0  0  0  0  0
   58.7540   29.6130   46.7890 C   0  0  0  0  0  0  0  0  0  0  0  0
   61.4270   30.0420   49.2250 N   0  0  0  0  0  0  0  0  0  0  0  0
   62.2950   30.9580   49.7230 C   0  0  0  0  0  0  0  0  0  0  0  0
   62.6390   32.0940   48.9760 C   0  0  0  0  0  0  0  0  0  0  0  0
   63.4290   33.1910   49.6590 C   0  0  0  0  0  0  0  0  0  0  0  0
   62.5350   34.0550   50.4530 N   0  0  0  0  0  0  0  0  0  0  0  0
   62.0510   33.4080   51.6870 C   0  0  0  0  0  0  0  0  0  0  0  0
   60.5810   33.0780   51.6040 C   0  0  0  0  0  0  0  0  0  0  0  0
   59.7860   33.0860   52.7600 C   0  0  0  0  0  0  0  0  0  0  0  0
   58.4060   32.9010   52.6670 C   0  0  0  0  0  0  0  0  0  0  0  0
   57.8070   32.6950   51.4230 C   0  0  0  0  0  0  0  0  0  0  0  0
   58.5980   32.6220   50.2600 C   0  0  0  0  0  0  0  0  0  0  0  0
   58.0450   32.4670   48.9780 O   0  0  0  0  0  0  0  0  0  0  0  0
   58.4010   33.1930   47.8330 C   0  0  0  0  0  0  0  0  0  0  0  0
   59.2380   34.3060   47.9760 C   0  0  0  0  0  0  0  0  0  0  0  0
   59.6120   35.0580   46.8570 C   0  0  0  0  0  0  0  0  0  0  0  0
   59.1660   34.6890   45.5860 C   0  0  0  0  0  0  0  0  0  0  0  0
   58.3560   33.5610   45.4310 C   0  0  0  0  0  0  0  0  0  0  0  0
   57.9800   32.8080   46.5480 C   0  0  0  0  0  0  0  0  0  0  0  0
   59.9830   32.7890   50.3650 C   0  0  0  0  0  0  0  0  0  0  0  0
   62.9103   34.1804   47.3409 H   0  0  0  0  0  0  0  0  0  0  0  0
   63.4217   32.9852   46.1013 H   0  0  0  0  0  0  0  0  0  0  0  0
   61.7395   33.6153   46.1013 H   0  0  0  0  0  0  0  0  0  0  0  0
   60.8774   31.3052   46.1402 H   0  0  0  0  0  0  0  0  0  0  0  0
   60.8379   27.4612   48.4378 H   0  0  0  0  0  0  0  0  0  0  0  0
   59.1798   25.8211   47.5723 H   0  0  0  0  0  0  0  0  0  0  0  0
   55.1610   27.4610   46.0640 H   0  0  0  0  0  0  0  0  0  0  0  0
   56.9639   29.0439   45.7127 H   0  0  0  0  0  0  0  0  0  0  0  0
   58.6313   30.6828   46.5642 H   0  0  0  0  0  0  0  0  0  0  0  0
   62.7326   30.8084   50.7210 H   0  0  0  0  0  0  0  0  0  0  0  0
   64.1781   32.7369   50.3243 H   0  0  0  0  0  0  0  0  0  0  0  0
   63.9246   33.8029   48.8909 H   0  0  0  0  0  0  0  0  0  0  0  0
   61.6940   34.2580   49.8630 H   0  0  0  0  0  0  0  0  0  0  0  0
   62.6166   32.4783   51.8476 H   0  0  0  0  0  0  0  0  0  0  0  0
   62.1988   34.1084   52.5222 H   0  0  0  0  0  0  0  0  0  0  0  0
   60.2527   33.2388   53.7443 H   0  0  0  0  0  0  0  0  0  0  0  0
   57.7881   32.9175   53.5769 H   0  0  0  0  0  0  0  0  0  0  0  0
   56.7145   32.5894   51.3509 H   0  0  0  0  0  0  0  0  0  0  0  0
   59.6036   34.5909   48.9736 H   0  0  0  0  0  0  0  0  0  0  0  0
   60.2576   35.9403   46.9784 H   0  0  0  0  0  0  0  0  0  0  0  0
   59.4522   35.2860   44.7075 H   0  0  0  0  0  0  0  0  0  0  0  0
   58.0134   33.2647   44.4286 H   0  0  0  0  0  0  0  0  0  0  0  0
   57.3536   31.9127   46.4209 H   0  0  0  0  0  0  0  0  0  0  0  0
   60.6116   32.6930   49.4674 H   0  0  0  0  0  0  0  0  0  0  0  0
  1  2  1  0
  2  3  2  0
  3  4  1  0
  4  5  1  0
  5  6  2  0
  6  7  1  0
  7  8  2  0
  8  9  1  0
  9 10  1  0
  9 11  2  0
  8 12  1  0
 12 13  2  0
  4 14  2  0
 14 15  1  0
 15 16  2  0
 16 17  1  0
 17 18  1  0
 18 19  1  0
 19 20  1  0
 20 21  2  0
 21 22  1  0
 22 23  2  0
 23 24  1  0
 24 25  1  0
 25 26  1  0
 26 27  2  0
 27 28  1  0
 28 29  2  0
 29 30  1  0
 30 31  2  0
 24 32  2  0
 16  2  1  0
 32 20  1  0
 13  5  1  0
 31 26  1  0
  1 33  1  0
  1 34  1  0
  1 35  1  0
  3 36  1  0
  6 37  1  0
  7 38  1  0
 10 39  1  0
 12 40  1  0
 13 41  1  0
 15 42  1  0
 17 43  1  0
 17 44  1  0
 18 45  1  0
 19 46  1  0
 19 47  1  0
 21 48  1  0
 22 49  1  0
 23 50  1  0
 27 51  1  0
 28 52  1  0
 29 53  1  0
 30 54  1  0
 31 55  1  0
 32 56  1  0
M  CHG  1  10  -1
M  END
>  <UniqueID>  (28) 
21

>  <SMILES>  (28) 
Cc1cc(-c2ccc(C([NH-])=O)cc2)ncc1CNCc1cccc(Oc2ccccc2)c1

>  <Energy>  (28) 
66.00676570027213

>  <Genealogy>  (28) 
Cc1cc(-c2ccc(C([NH-])=O)cc2)ncc1CNCc1cccc(Oc2ccccc2)c1 (protonated)
Cc1cc(-c2ccc(C([NH-])=O)cc2)ncc1CNCc1cccc(Oc2ccccc2)c1 (3D coordinates assigned)
Cc1cc(-c2ccc(C([NH-])=O)cc2)ncc1CNCc1cccc(Oc2ccccc2)c1 (optimized conformer: 66.00676570027213 kcal/mol)

>  <smiles>  (28) 
Cc1cc(-c2ccc(C(N)=O)cc2)ncc1CNCc1cccc(Oc2ccccc2)c1

>  <score_type>  (28) 
oracle

>  <origin>  (28) 
adg

>  <m_score__min__energy>  (28) 
-12.039999999999999

>  <m_primary>  (28) 
energy

$$$$
28:0
     RDKit          3D

 56 59  0  0  0  0  0  0  0  0999 V2000
   56.6070   30.4280   44.8790 O   0  0  0  0  0  0  0  0  0  0  0  0
   57.8040   30.5300   45.2620 C   0  0  0  0  0  0  0  0  0  0  0  0
   58.4780   29.3560   45.9070 C   0  0  0  0  0  0  0  0  0  0  0  0
   59.4310   29.8170   46.9130 N   0  0  0  0  0  0  0  0  0  0  0  0
   59.1700   30.1170   48.1950 C   0  0  0  0  0  0  0  0  0  0  0  0
   60.3380   30.5650   48.7700 C   0  0  0  0  0  0  0  0  0  0  0  0
   61.3280   30.5490   47.8540 N   0  0  0  0  0  0  0  0  0  0  0  0
   60.7380   30.0910   46.7310 C   0  0  0  0  0  0  0  0  0  0  0  0
   58.5210   31.7590   45.0890 N   0  0  0  0  0  0  0  0  0  0  0  0
   57.8610   33.0130   44.6990 C   0  0  0  0  0  0  0  0  0  0  0  0
   57.0130   33.5580   45.8650 C   0  0  0  0  0  0  0  0  0  0  0  0
   57.8880   33.8160   47.1040 C   0  0  0  0  0  0  0  0  0  0  0  0
   59.2420   34.2420   46.7180 N   0  0  0  0  0  0  0  0  0  0  0  0
   60.3690   33.8940   47.5480 C   0  0  0  0  0  0  0  0  0  0  0  0
   60.2550   33.8940   48.9480 C   0  0  0  0  0  0  0  0  0  0  0  0
   61.3630   33.6070   49.7500 C   0  0  0  0  0  0  0  0  0  0  0  0
   62.6090   33.3280   49.1660 C   0  0  0  0  0  0  0  0  0  0  0  0
   63.7560   33.0540   49.9920 N   0  0  0  0  0  0  0  0  0  0  0  0
   63.7990   33.5070   51.3900 C   0  0  0  0  0  0  0  0  0  0  0  0
   65.0570   34.3540   51.6410 C   0  0  0  0  0  0  0  0  0  0  0  0
   66.2980   33.8560   50.8680 C   0  0  0  0  0  0  0  0  0  0  0  0
   66.1350   32.4230   50.3450 C   0  0  0  0  0  0  0  0  0  0  0  0
   64.9060   32.3240   49.4320 C   0  0  0  0  0  0  0  0  0  0  0  0
   62.7210   33.3180   47.7670 C   0  0  0  0  0  0  0  0  0  0  0  0
   61.6130   33.6030   46.9650 C   0  0  0  0  0  0  0  0  0  0  0  0
   59.4220   34.9350   45.4350 C   0  0  0  0  0  0  0  0  0  0  0  0
   58.9130   34.0670   44.2650 C   0  0  0  0  0  0  0  0  0  0  0  0
   57.7202   28.7199   46.3878 H   0  0  0  0  0  0  0  0  0  0  0  0
   59.0149   28.7810   45.1382 H   0  0  0  0  0  0  0  0  0  0  0  0
   58.1959   30.0218   48.6971 H   0  0  0  0  0  0  0  0  0  0  0  0
   60.4471   30.8867   49.8162 H   0  0  0  0  0  0  0  0  0  0  0  0
   61.2642   29.9563   45.7744 H   0  0  0  0  0  0  0  0  0  0  0  0
   59.5470   31.7560   45.2890 H   0  0  0  0  0  0  0  0  0  0  0  0
   57.1977   32.8062   43.8462 H   0  0  0  0  0  0  0  0  0  0  0  0
   56.5388   34.5012   45.5558 H   0  0  0  0  0  0  0  0  0  0  0  0
   56.2480   32.8110   46.1234 H   0  0  0  0  0  0  0  0  0  0  0  0
   57.4235   34.6050   47.7136 H   0  0  0  0  0  0  0  0  0  0  0  0
   57.9666   32.8801   47.6766 H   0  0  0  0  0  0  0  0  0  0  0  0
   59.2862   34.1216   49.4167 H   0  0  0  0  0  0  0  0  0  0  0  0
   61.2583   33.5996   50.8450 H   0  0  0  0  0  0  0  0  0  0  0  0
   62.9059   34.1131   51.6021 H   0  0  0  0  0  0  0  0  0  0  0  0
   63.8243   32.6269   52.0494 H   0  0  0  0  0  0  0  0  0  0  0  0
   64.8472   35.3891   51.3334 H   0  0  0  0  0  0  0  0  0  0  0  0
   65.2907   34.2772   52.7131 H   0  0  0  0  0  0  0  0  0  0  0  0
   66.4714   34.5252   50.0123 H   0  0  0  0  0  0  0  0  0  0  0  0
   67.1477   33.8597   51.5665 H   0  0  0  0  0  0  0  0  0  0  0  0
   67.0330   32.1404   49.7760 H   0  0  0  0  0  0  0  0  0  0  0  0
   66.0003   31.7441   51.1999 H   0  0  0  0  0  0  0  0  0  0  0  0
   65.1557   32.7506   48.4493 H   0  0  0  0  0  0  0  0  0  0  0  0
   64.6294   31.2633   49.3403 H   0  0  0  0  0  0  0  0  0  0  0  0
   63.6883   33.0840   47.2985 H   0  0  0  0  0  0  0  0  0  0  0  0
   61.7158   33.5994   45.8698 H   0  0  0  0  0  0  0  0  0  0  0  0
   58.8593   35.8800   45.4539 H   0  0  0  0  0  0  0  0  0  0  0  0
   60.4946   35.1298   45.2879 H   0  0  0  0  0  0  0  0  0  0  0  0
   58.4568   34.7271   43.5126 H   0  0  0  0  0  0  0  0  0  0  0  0
   59.7784   33.5192   43.8636 H   0  0  0  0  0  0  0  0  0  0  0  0
  1  2  2  0
  2  3  1  0
  3  4  1  0
  4  5  1  0
  5  6  2  0
  6  7  1  0
  7  8  2  0
  2  9  1  0
  9 10  1  0
 10 11  1  0
 11 12  1  0
 12 13  1  0
 13 14  1  0
 14 15  2  0
 15 16  1  0
 16 17  2  0
 17 18  1  0
 18 19  1  0
 19 20  1  0
 20 21  1  0
 21 22  1  0
 22 23  1  0
 17 24  1  0
 24 25  2  0
 13 26  1  0
 26 27  1  0
  8  4  1  0
 27 10  1  0
 25 14  1  0
 23 18  1  0
  3 28  1  0
  3 29  1  0
  5 30  1  0
  6 31  1  0
  8 32  1  0
  9 33  1  0
 10 34  1  0
 11 35  1  0
 11 36  1  0
 12 37  1  0
 12 38  1  0
 15 39  1  0
 16 40  1  0
 19 41  1  0
 19 42  1  0
 20 43  1  0
 20 44  1  0
 21 45  1  0
 21 46  1  0
 22 47  1  0
 22 48  1  0
 23 49  1  0
 23 50  1  0
 24 51  1  0
 25 52  1  0
 26 53  1  0
 26 54  1  0
 27 55  1  0
 27 56  1  0
M  END
>  <UniqueID>  (29) 
22

>  <SMILES>  (29) 
O=C(Cn1ccnc1)NC1CCN(c2ccc(N3CCCCC3)cc2)CC1

>  <Energy>  (29) 
90.09841606327684

>  <Genealogy>  (29) 
O=C(Cn1ccnc1)NC1CCN(c2ccc(N3CCCCC3)cc2)CC1 (3D coordinates assigned)
O=C(Cn1ccnc1)NC1CCN(c2ccc(N3CCCCC3)cc2)CC1 (nonaromatic ring conformer: 90.09841606327684 kcal/mol)

>  <smiles>  (29) 
O=C(Cn1ccnc1)NC1CCN(c2ccc(N3CCCCC3)cc2)CC1

>  <score_type>  (29) 
oracle

>  <origin>  (29) 
adg

>  <m_score__min__energy>  (29) 
-7.9500000000000002

>  <m_primary>  (29) 
energy

$$$$
29:0
     RDKit          3D

 48 49  0  0  0  0  0  0  0  0999 V2000
   55.1480   29.4180   44.8770 O   0  0  0  0  0  0  0  0  0  0  0  0
   56.2960   29.2750   44.3780 C   0  0  0  0  0  0  0  0  0  0  0  0
   56.5880   29.8190   43.0150 C   0  0  0  0  0  0  0  0  0  0  0  0
   57.1920   31.2210   43.1160 C   0  0  0  0  0  0  0  0  0  0  0  0
   57.3720   31.5970   44.5160 N   0  0  0  0  0  0  0  0  0  0  0  0
   57.4380   32.9650   44.9470 C   0  0  0  0  0  0  0  0  0  0  0  0
   57.4100   33.9010   44.1030 O   0  0  0  0  0  0  0  0  0  0  0  0
   57.4950   33.2920   46.4100 C   0  0  0  0  0  0  0  0  0  0  0  0
   58.8480   33.9040   46.8060 C   0  0  0  0  0  0  0  0  0  0  0  0
   60.0510   33.0110   46.4650 C   0  0  0  0  0  0  0  0  0  0  0  0
   60.1360   31.8630   47.3710 N   0  0  0  0  0  0  0  0  0  0  0  0
   59.3190   30.4760   46.7130 S   0  0  0  0  0  0  0  0  0  0  0  0
   57.8340   30.5940   46.9070 O   0  0  0  0  0  0  0  0  0  0  0  0
   59.6280   30.3760   45.2450 O   0  0  0  0  0  0  0  0  0  0  0  0
   59.8910   29.0330   47.5410 C   0  0  0  0  0  0  0  0  0  0  0  0
   60.1900   27.8690   46.8170 C   0  0  0  0  0  0  0  0  0  0  0  0
   60.6410   26.7250   47.4830 C   0  0  0  0  0  0  0  0  0  0  0  0
   60.7910   26.7370   48.8730 C   0  0  0  0  0  0  0  0  0  0  0  0
   60.4870   27.8930   49.6000 C   0  0  0  0  0  0  0  0  0  0  0  0
   60.6290   27.9010   50.9480 F   0  0  0  0  0  0  0  0  0  0  0  0
   60.0370   29.0380   48.9350 C   0  0  0  0  0  0  0  0  0  0  0  0
   57.3120   28.5590   45.0870 N   0  0  0  0  0  0  0  0  0  0  0  0
   57.0550   27.7670   46.2840 C   0  0  0  0  0  0  0  0  0  0  0  0
   56.3480   26.5000   45.9190 C   0  0  0  0  0  0  0  0  0  0  0  0
   56.9420   25.3510   45.4370 C   0  0  0  0  0  0  0  0  0  0  0  0
   55.9090   24.4640   45.2220 C   0  0  0  0  0  0  0  0  0  0  0  0
   54.7530   25.1270   45.5830 C   0  0  0  0  0  0  0  0  0  0  0  0
   55.0470   26.3400   45.9930 O   0  0  0  0  0  0  0  0  0  0  0  0
   57.3002   29.1539   42.5047 H   0  0  0  0  0  0  0  0  0  0  0  0
   55.6484   29.8765   42.4460 H   0  0  0  0  0  0  0  0  0  0  0  0
   58.1681   31.2328   42.6089 H   0  0  0  0  0  0  0  0  0  0  0  0
   56.5097   31.9393   42.6380 H   0  0  0  0  0  0  0  0  0  0  0  0
   57.4800   30.8360   45.2240 H   0  0  0  0  0  0  0  0  0  0  0  0
   56.6965   34.0110   46.6455 H   0  0  0  0  0  0  0  0  0  0  0  0
   57.3644   32.3570   46.9746 H   0  0  0  0  0  0  0  0  0  0  0  0
   58.9647   34.8614   46.2770 H   0  0  0  0  0  0  0  0  0  0  0  0
   58.8382   34.0281   47.8989 H   0  0  0  0  0  0  0  0  0  0  0  0
   59.9448   32.6457   45.4329 H   0  0  0  0  0  0  0  0  0  0  0  0
   60.9684   33.6080   46.5743 H   0  0  0  0  0  0  0  0  0  0  0  0
   60.0695   27.8562   45.7237 H   0  0  0  0  0  0  0  0  0  0  0  0
   60.8780   25.8148   46.9127 H   0  0  0  0  0  0  0  0  0  0  0  0
   61.1482   25.8372   49.3952 H   0  0  0  0  0  0  0  0  0  0  0  0
   59.7968   29.9457   49.5080 H   0  0  0  0  0  0  0  0  0  0  0  0
   58.0106   27.5232   46.7713 H   0  0  0  0  0  0  0  0  0  0  0  0
   56.4223   28.3476   46.9714 H   0  0  0  0  0  0  0  0  0  0  0  0
   58.0142   25.1793   45.2614 H   0  0  0  0  0  0  0  0  0  0  0  0
   55.9894   23.4356   44.8400 H   0  0  0  0  0  0  0  0  0  0  0  0
   53.7389   24.7035   45.5346 H   0  0  0  0  0  0  0  0  0  0  0  0
  1  2  2  0
  2  3  1  0
  3  4  1  0
  4  5  1  0
  5  6  1  0
  6  7  2  0
  6  8  1  0
  8  9  1  0
  9 10  1  0
 10 11  1  0
 11 12  1  0
 12 13  2  0
 12 14  2  0
 12 15  1  0
 15 16  2  0
 16 17  1  0
 17 18  2  0
 18 19  1  0
 19 20  1  0
 19 21  2  0
  2 22  1  0
 22 23  1  0
 23 24  1  0
 24 25  2  0
 25 26  1  0
 26 27  2  0
 27 28  1  0
 21 15  1  0
 28 24  1  0
  3 29  1  0
  3 30  1  0
  4 31  1  0
  4 32  1  0
  5 33  1  0
  8 34  1  0
  8 35  1  0
  9 36  1  0
  9 37  1  0
 10 38  1  0
 10 39  1  0
 16 40  1  0
 17 41  1  0
 18 42  1  0
 21 43  1  0
 23 44  1  0
 23 45  1  0
 25 46  1  0
 26 47  1  0
 27 48  1  0
M  CHG  2  11  -1  22  -1
M  END
>  <UniqueID>  (30) 
23

>  <SMILES>  (30) 
O=C(CCNC(=O)CCC[N-]S(=O)(=O)c1cccc(F)c1)[N-]Cc1ccco1

>  <Energy>  (30) 
59.974414863704006

>  <Genealogy>  (30) 
O=C(CCNC(=O)CCC[N-]S(=O)(=O)c1cccc(F)c1)[N-]Cc1ccco1 (protonated)
O=C(CCNC(=O)CCC[N-]S(=O)(=O)c1cccc(F)c1)[N-]Cc1ccco1 (3D coordinates assigned)
O=C(CCNC(=O)CCC[N-]S(=O)(=O)c1cccc(F)c1)[N-]Cc1ccco1 (optimized conformer: 59.974414863704006 kcal/mol)

>  <smiles>  (30) 
O=C(CCCNS(=O)(=O)c1cccc(F)c1)NCCC(=O)NCc1ccco1

>  <score_type>  (30) 
oracle

>  <origin>  (30) 
adg

>  <m_score__min__energy>  (30) 
-11.34

>  <m_primary>  (30) 
energy

$$$$
30:0
     RDKit          3D

 38 40  0  0  0  0  0  0  0  0999 V2000
   60.4230   28.2550   45.8970 C   0  0  0  0  0  0  0  0  0  0  0  0
   59.5990   27.6310   46.8770 O   0  0  0  0  0  0  0  0  0  0  0  0
   58.3570   27.0330   46.6150 C   0  0  0  0  0  0  0  0  0  0  0  0
   58.1010   25.6890   46.9540 C   0  0  0  0  0  0  0  0  0  0  0  0
   56.8640   25.1000   46.6420 C   0  0  0  0  0  0  0  0  0  0  0  0
   56.5520   23.7730   46.9820 C   0  0  0  0  0  0  0  0  0  0  0  0
   57.3830   23.0470   47.5910 O   0  0  0  0  0  0  0  0  0  0  0  0
   55.3380   23.2610   46.6530 N   0  0  0  0  0  0  0  0  0  0  0  0
   54.4100   24.0080   45.9970 C   0  0  0  0  0  0  0  0  0  0  0  0
   53.2610   23.4980   45.6930 N   0  0  0  0  0  0  0  0  0  0  0  0
   54.6870   25.2930   45.6600 N   0  0  0  0  0  0  0  0  0  0  0  0
   55.8860   25.8550   45.9660 C   0  0  0  0  0  0  0  0  0  0  0  0
   56.1400   27.1860   45.6260 C   0  0  0  0  0  0  0  0  0  0  0  0
   57.3510   27.7910   45.9810 C   0  0  0  0  0  0  0  0  0  0  0  0
   57.5330   29.1760   45.6670 N   0  0  0  0  0  0  0  0  0  0  0  0
   56.9410   29.9510   44.2290 S   0  0  0  0  0  0  0  0  0  0  0  0
   55.5720   30.4950   44.5230 O   0  0  0  0  0  0  0  0  0  0  0  0
   56.8230   28.9630   43.1030 O   0  0  0  0  0  0  0  0  0  0  0  0
   57.9770   31.3290   43.7440 C   0  0  0  0  0  0  0  0  0  0  0  0
   58.4290   32.1390   44.9290 C   0  0  0  0  0  0  0  0  0  0  0  0
   59.2310   31.5550   45.9240 C   0  0  0  0  0  0  0  0  0  0  0  0
   59.6180   32.2970   47.0440 C   0  0  0  0  0  0  0  0  0  0  0  0
   59.2120   33.6290   47.1770 C   0  0  0  0  0  0  0  0  0  0  0  0
   59.6690   34.5480   48.5990 Cl  0  0  0  0  0  0  0  0  0  0  0  0
   58.4310   34.2230   46.1820 C   0  0  0  0  0  0  0  0  0  0  0  0
   58.0440   33.4840   45.0610 C   0  0  0  0  0  0  0  0  0  0  0  0
   61.2040   28.8464   46.3973 H   0  0  0  0  0  0  0  0  0  0  0  0
   60.8929   27.4842   45.2684 H   0  0  0  0  0  0  0  0  0  0  0  0
   59.8085   28.9163   45.2684 H   0  0  0  0  0  0  0  0  0  0  0  0
   58.8744   25.0976   47.4660 H   0  0  0  0  0  0  0  0  0  0  0  0
   52.3830   23.8090   46.1660 H   0  0  0  0  0  0  0  0  0  0  0  0
   55.3825   27.7628   45.0751 H   0  0  0  0  0  0  0  0  0  0  0  0
   58.8631   30.9402   43.2208 H   0  0  0  0  0  0  0  0  0  0  0  0
   57.3847   31.9856   43.0897 H   0  0  0  0  0  0  0  0  0  0  0  0
   59.5559   30.5091   45.8213 H   0  0  0  0  0  0  0  0  0  0  0  0
   60.2425   31.8328   47.8215 H   0  0  0  0  0  0  0  0  0  0  0  0
   58.1205   35.2736   46.2814 H   0  0  0  0  0  0  0  0  0  0  0  0
   57.4345   33.9578   44.2774 H   0  0  0  0  0  0  0  0  0  0  0  0
  1  2  1  0
  2  3  1  0
  3  4  2  0
  4  5  1  0
  5  6  1  0
  6  7  2  0
  6  8  1  0
  8  9  1  0
  9 10  2  3
  9 11  1  0
 11 12  1  0
 12 13  1  0
 13 14  2  0
 14 15  1  0
 15 16  1  0
 16 17  2  0
 16 18  2  0
 16 19  1  0
 19 20  1  0
 20 21  2  0
 21 22  1  0
 22 23  2  0
 23 24  1  0
 23 25  1  0
 25 26  2  0
 14  3  1  0
 26 20  1  0
 12  5  2  0
  1 27  1  0
  1 28  1  0
  1 29  1  0
  4 30  1  0
 10 31  1  0
 13 32  1  0
 19 33  1  0
 19 34  1  0
 21 35  1  0
 22 36  1  0
 25 37  1  0
 26 38  1  0
M  CHG  3   8  -1  11  -1  15  -1
M  END
>  <UniqueID>  (31) 
24

>  <SMILES>  (31) 
COc1cc2c(=O)[n-]c(=N)[n-]c2cc1[N-]S(=O)(=O)Cc1ccc(Cl)cc1

>  <Energy>  (31) 
43.4040679285481

>  <Genealogy>  (31) 
COc1cc2c(=O)[n-]c(=N)[n-]c2cc1[N-]S(=O)(=O)Cc1ccc(Cl)cc1 (protonated)
COc1cc2c(=O)[n-]c(=N)[n-]c2cc1[N-]S(=O)(=O)Cc1ccc(Cl)cc1 (3D coordinates assigned)
COc1cc2c(=O)[n-]c(=N)[n-]c2cc1[N-]S(=O)(=O)Cc1ccc(Cl)cc1 (optimized conformer: 43.4040679285481 kcal/mol)

>  <smiles>  (31) 
COc1cc2c(=O)[nH]c(=N)[nH]c2cc1NS(=O)(=O)Cc1ccc(Cl)cc1

>  <score_type>  (31) 
oracle

>  <origin>  (31) 
adg

>  <m_score__min__energy>  (31) 
-14.199999999999999

>  <m_primary>  (31) 
energy

$$$$
31:0
     RDKit          3D

 49 51  0  0  0  0  0  0  0  0999 V2000
   58.3720   32.1320   50.1780 C   0  0  0  0  0  0  0  0  0  0  0  0
   58.6900   30.7080   50.5750 C   0  0  0  0  0  0  0  0  0  0  0  0
   59.7390   30.1230   49.7500 N   0  0  0  0  0  0  0  0  0  0  0  0
   61.0840   30.6440   50.0460 C   0  0  0  0  0  0  0  0  0  0  0  0
   61.9040   30.6300   48.7810 C   0  0  0  0  0  0  0  0  0  0  0  0
   61.0610   31.1540   47.6540 C   0  0  0  0  0  0  0  0  0  0  0  0
   61.0240   30.5430   46.5360 O   0  0  0  0  0  0  0  0  0  0  0  0
   60.3280   32.3400   47.8980 N   0  0  0  0  0  0  0  0  0  0  0  0
   59.4830   32.9510   46.9120 C   0  0  0  0  0  0  0  0  0  0  0  0
   59.7880   34.2600   46.5280 C   0  0  0  0  0  0  0  0  0  0  0  0
   59.0230   34.9160   45.5850 C   0  0  0  0  0  0  0  0  0  0  0  0
   57.9460   34.2280   45.0400 C   0  0  0  0  0  0  0  0  0  0  0  0
   57.6470   32.9370   45.4210 C   0  0  0  0  0  0  0  0  0  0  0  0
   56.5650   32.3250   44.8340 O   0  0  0  0  0  0  0  0  0  0  0  0
   58.4060   32.2810   46.3560 C   0  0  0  0  0  0  0  0  0  0  0  0
   59.5140   29.1340   48.7610 C   0  0  0  0  0  0  0  0  0  0  0  0
   60.1430   27.8970   48.8090 C   0  0  0  0  0  0  0  0  0  0  0  0
   59.9150   26.9150   47.8480 C   0  0  0  0  0  0  0  0  0  0  0  0
   59.0500   27.1170   46.7960 C   0  0  0  0  0  0  0  0  0  0  0  0
   58.8260   26.1730   45.8690 N   0  0  0  0  0  0  0  0  0  0  0  0
   57.9730   26.4010   44.8530 C   0  0  0  0  0  0  0  0  0  0  0  0
   57.7150   25.5400   43.9320 N   0  0  0  0  0  0  0  0  0  0  0  0
   57.3350   27.5890   44.7620 N   0  0  0  0  0  0  0  0  0  0  0  0
   57.5520   28.5500   45.6920 C   0  0  0  0  0  0  0  0  0  0  0  0
   56.9510   29.6950   45.6210 N   0  0  0  0  0  0  0  0  0  0  0  0
   58.4190   28.3410   46.7400 C   0  0  0  0  0  0  0  0  0  0  0  0
   58.6480   29.3310   47.7060 C   0  0  0  0  0  0  0  0  0  0  0  0
   58.2356   32.7430   51.0824 H   0  0  0  0  0  0  0  0  0  0  0  0
   59.2011   32.5402   49.5814 H   0  0  0  0  0  0  0  0  0  0  0  0
   57.4480   32.1487   49.5814 H   0  0  0  0  0  0  0  0  0  0  0  0
   59.0195   30.6989   51.6245 H   0  0  0  0  0  0  0  0  0  0  0  0
   57.7785   30.1087   50.4338 H   0  0  0  0  0  0  0  0  0  0  0  0
   61.0058   31.6742   50.4236 H   0  0  0  0  0  0  0  0  0  0  0  0
   61.5667   30.0159   50.8093 H   0  0  0  0  0  0  0  0  0  0  0  0
   62.7907   31.2686   48.9077 H   0  0  0  0  0  0  0  0  0  0  0  0
   62.2311   29.6037   48.5581 H   0  0  0  0  0  0  0  0  0  0  0  0
   60.3760   32.8300   48.8370 H   0  0  0  0  0  0  0  0  0  0  0  0
   60.6480   34.7734   46.9828 H   0  0  0  0  0  0  0  0  0  0  0  0
   59.2573   35.9455   45.2763 H   0  0  0  0  0  0  0  0  0  0  0  0
   57.3170   34.7249   44.2868 H   0  0  0  0  0  0  0  0  0  0  0  0
   56.0080   31.5860   45.2490 H   0  0  0  0  0  0  0  0  0  0  0  0
   58.1658   31.2504   46.6563 H   0  0  0  0  0  0  0  0  0  0  0  0
   60.8427   27.6862   49.6311 H   0  0  0  0  0  0  0  0  0  0  0  0
   60.4402   25.9521   47.9317 H   0  0  0  0  0  0  0  0  0  0  0  0
   59.3150   25.2430   45.9270 H   0  0  0  0  0  0  0  0  0  0  0  0
   56.9150   25.6890   43.2820 H   0  0  0  0  0  0  0  0  0  0  0  0
   56.6650   27.7970   43.9810 H   0  0  0  0  0  0  0  0  0  0  0  0
   57.3670   30.4660   45.0520 H   0  0  0  0  0  0  0  0  0  0  0  0
   58.1215   30.2930   47.6199 H   0  0  0  0  0  0  0  0  0  0  0  0
  1  2  1  0
  2  3  1  0
  3  4  1  0
  4  5  1  0
  5  6  1  0
  6  7  2  0
  6  8  1  0
  8  9  1  0
  9 10  2  0
 10 11  1  0
 11 12  2  0
 12 13  1  0
 13 14  1  0
 13 15  2  0
  3 16  1  0
 16 17  2  0
 17 18  1  0
 18 19  2  0
 19 20  1  0
 20 21  1  0
 21 22  2  3
 21 23  1  0
 23 24  1  0
 24 25  2  3
 24 26  1  0
 26 27  2  0
 15  9  1  0
 27 16  1  0
 26 19  1  0
  1 28  1  0
  1 29  1  0
  1 30  1  0
  2 31  1  0
  2 32  1  0
  4 33  1  0
  4 34  1  0
  5 35  1  0
  5 36  1  0
  8 37  1  0
 10 38  1  0
 11 39  1  0
 12 40  1  0
 14 41  1  0
 15 42  1  0
 17 43  1  0
 18 44  1  0
 20 45  1  0
 22 46  1  0
 23 47  1  0
 25 48  1  0
 27 49  1  0
M  END
>  <smiles>  (32) 
CCN(CCC(=O)Nc1cccc(O)c1)c1ccc2[nH]c(=N)[nH]c(=N)c2c1

>  <score_type>  (32) 
oracle

>  <origin>  (32) 
adg

>  <m_score__min__energy>  (32) 
-8.3399999999999999

>  <m_primary>  (32) 
energy

$$$$
32:0
     RDKit          3D

 32 33  0  0  0  0  0  0  0  0999 V2000
   60.4270   26.4370   46.3770 O   0  0  0  0  0  0  0  0  0  0  0  0
   59.1710   26.4110   46.2930 C   0  0  0  0  0  0  0  0  0  0  0  0
   58.4880   25.1400   45.9030 C   0  0  0  0  0  0  0  0  0  0  0  0
   57.1570   25.4430   45.2800 C   0  0  0  0  0  0  0  0  0  0  0  0
   57.0850   25.6140   44.0330 O   0  0  0  0  0  0  0  0  0  0  0  0
   55.9420   25.5850   46.0990 C   0  0  0  0  0  0  0  0  0  0  0  0
   55.6120   24.6850   46.9160 O   0  0  0  0  0  0  0  0  0  0  0  0
   55.1510   26.7200   45.9750 O   0  0  0  0  0  0  0  0  0  0  0  0
   58.3780   27.5830   46.5410 N   0  0  0  0  0  0  0  0  0  0  0  0
   58.0290   28.5180   45.7040 C   0  0  0  0  0  0  0  0  0  0  0  0
   57.0350   28.4280   44.7840 N   0  0  0  0  0  0  0  0  0  0  0  0
   56.9220   29.5610   44.0420 C   0  0  0  0  0  0  0  0  0  0  0  0
   57.8450   30.5530   44.3590 C   0  0  0  0  0  0  0  0  0  0  0  0
   57.9070   31.9190   43.7540 C   0  0  0  0  0  0  0  0  0  0  0  0
   58.2440   32.9360   44.8110 C   0  0  0  0  0  0  0  0  0  0  0  0
   59.2370   33.9010   44.5750 C   0  0  0  0  0  0  0  0  0  0  0  0
   59.5750   34.8230   45.5710 C   0  0  0  0  0  0  0  0  0  0  0  0
   58.9320   34.7810   46.8120 C   0  0  0  0  0  0  0  0  0  0  0  0
   57.9520   33.8140   47.0580 C   0  0  0  0  0  0  0  0  0  0  0  0
   57.6110   32.8900   46.0660 C   0  0  0  0  0  0  0  0  0  0  0  0
   58.8140   30.0020   45.6220 S   0  0  0  0  0  0  0  0  0  0  0  0
   59.1139   24.5973   45.1793 H   0  0  0  0  0  0  0  0  0  0  0  0
   58.3345   24.5225   46.8003 H   0  0  0  0  0  0  0  0  0  0  0  0
   56.4260   27.6000   44.6130 H   0  0  0  0  0  0  0  0  0  0  0  0
   56.1631   29.6838   43.2553 H   0  0  0  0  0  0  0  0  0  0  0  0
   58.6807   31.9363   42.9722 H   0  0  0  0  0  0  0  0  0  0  0  0
   56.9282   32.1645   43.3162 H   0  0  0  0  0  0  0  0  0  0  0  0
   59.7509   33.9317   43.6029 H   0  0  0  0  0  0  0  0  0  0  0  0
   60.3475   35.5820   45.3779 H   0  0  0  0  0  0  0  0  0  0  0  0
   59.1967   35.5079   47.5940 H   0  0  0  0  0  0  0  0  0  0  0  0
   57.4480   33.7804   48.0351 H   0  0  0  0  0  0  0  0  0  0  0  0
   56.8461   32.1255   46.2674 H   0  0  0  0  0  0  0  0  0  0  0  0
  1  2  2  0
  2  3  1  0
  3  4  1  0
  4  5  2  0
  4  6  1  0
  6  7  2  0
  6  8  1  0
  2  9  1  0
  9 10  2  3
 10 11  1  0
 11 12  1  0
 12 13  2  0
 13 14  1  0
 14 15  1  0
 15 16  2  0
 16 17  1  0
 17 18  2  0
 18 19  1  0
 19 20  2  0
 13 21  1  0
 21 10  1  0
 20 15  1  0
  3 22  1  0
  3 23  1  0
 11 24  1  0
 12 25  1  0
 14 26  1  0
 14 27  1  0
 16 28  1  0
 17 29  1  0
 18 30  1  0
 19 31  1  0
 20 32  1  0
M  CHG  1   8  -1
M  END
>  <UniqueID>  (33) 
25

>  <SMILES>  (33) 
O=C(CC(=O)C(=O)[O-])N=c1[nH]cc(Cc2ccccc2)s1

>  <Energy>  (33) 
61.85255996945376

>  <Genealogy>  (33) 
O=C(CC(=O)C(=O)[O-])N=c1[nH]cc(Cc2ccccc2)s1 (protonated)
O=C(CC(=O)C(=O)[O-])N=c1[nH]cc(Cc2ccccc2)s1 (3D coordinates assigned)
O=C(CC(=O)C(=O)[O-])N=c1[nH]cc(Cc2ccccc2)s1 (optimized conformer: 61.85255996945376 kcal/mol)

>  <smiles>  (33) 
O=C(CC(=O)C(=O)O)N=c1[nH]cc(Cc2ccccc2)s1

>  <score_type>  (33) 
oracle

>  <origin>  (33) 
adg

>  <m_score__min__energy>  (33) 
-10.609999999999999

>  <m_primary>  (33) 
energy

$$$$
33:0
     RDKit          3D

 42 45  0  0  0  0  0  0  0  0999 V2000
   56.4670   26.5020   45.6200 C   0  0  0  0  0  0  0  0  0  0  0  0
   57.1900   27.7670   45.8440 N   0  0  0  0  0  0  0  0  0  0  0  0
   58.3580   27.7590   46.5770 C   0  0  0  0  0  0  0  0  0  0  0  0
   58.8840   26.5820   47.1210 O   0  0  0  0  0  0  0  0  0  0  0  0
   59.0630   28.9430   46.8050 C   0  0  0  0  0  0  0  0  0  0  0  0
   58.5810   30.1430   46.2860 C   0  0  0  0  0  0  0  0  0  0  0  0
   57.3870   30.1520   45.5330 C   0  0  0  0  0  0  0  0  0  0  0  0
   56.9120   31.3290   45.0110 N   0  0  0  0  0  0  0  0  0  0  0  0
   57.5540   32.5190   45.1970 C   0  0  0  0  0  0  0  0  0  0  0  0
   57.0900   33.5700   44.6830 O   0  0  0  0  0  0  0  0  0  0  0  0
   58.7320   32.5250   45.9540 C   0  0  0  0  0  0  0  0  0  0  0  0
   59.2290   31.3660   46.4730 C   0  0  0  0  0  0  0  0  0  0  0  0
   60.3810   31.5970   47.1300 N   0  0  0  0  0  0  0  0  0  0  0  0
   60.5520   32.9370   46.9850 C   0  0  0  0  0  0  0  0  0  0  0  0
   61.7200   33.6160   47.4800 N   0  0  0  0  0  0  0  0  0  0  0  0
   63.0220   33.3970   46.8280 C   0  0  0  0  0  0  0  0  0  0  0  0
   64.1780   33.4840   47.8370 C   0  0  0  0  0  0  0  0  0  0  0  0
   63.7960   32.7890   49.1500 C   0  0  0  0  0  0  0  0  0  0  0  0
   62.5350   33.4030   49.7990 C   0  0  0  0  0  0  0  0  0  0  0  0
   61.6850   34.2230   48.8150 C   0  0  0  0  0  0  0  0  0  0  0  0
   59.5520   33.5420   46.2880 N   0  0  0  0  0  0  0  0  0  0  0  0
   59.3990   34.9660   45.9930 C   0  0  0  0  0  0  0  0  0  0  0  0
   56.7040   28.9470   45.3220 C   0  0  0  0  0  0  0  0  0  0  0  0
   55.6370   28.9620   44.6470 O   0  0  0  0  0  0  0  0  0  0  0  0
   56.2090   26.0505   46.5893 H   0  0  0  0  0  0  0  0  0  0  0  0
   55.5465   26.7014   45.0518 H   0  0  0  0  0  0  0  0  0  0  0  0
   57.1060   25.8101   45.0518 H   0  0  0  0  0  0  0  0  0  0  0  0
   59.5870   26.5630   47.8480 H   0  0  0  0  0  0  0  0  0  0  0  0
   59.9937   28.9282   47.3911 H   0  0  0  0  0  0  0  0  0  0  0  0
   63.0264   32.3995   46.3643 H   0  0  0  0  0  0  0  0  0  0  0  0
   63.1651   34.1813   46.0702 H   0  0  0  0  0  0  0  0  0  0  0  0
   65.0668   32.9939   47.4129 H   0  0  0  0  0  0  0  0  0  0  0  0
   64.3922   34.5430   48.0433 H   0  0  0  0  0  0  0  0  0  0  0  0
   63.6045   31.7256   48.9436 H   0  0  0  0  0  0  0  0  0  0  0  0
   64.6316   32.9201   49.8532 H   0  0  0  0  0  0  0  0  0  0  0  0
   61.9158   32.5871   50.2000 H   0  0  0  0  0  0  0  0  0  0  0  0
   62.8752   34.0900   50.5879 H   0  0  0  0  0  0  0  0  0  0  0  0
   60.6451   34.2532   49.1723 H   0  0  0  0  0  0  0  0  0  0  0  0
   62.0936   35.2425   48.7542 H   0  0  0  0  0  0  0  0  0  0  0  0
   59.3383   35.5311   46.9348 H   0  0  0  0  0  0  0  0  0  0  0  0
   60.2648   35.3150   45.4111 H   0  0  0  0  0  0  0  0  0  0  0  0
   58.4788   35.1231   45.4111 H   0  0  0  0  0  0  0  0  0  0  0  0
  1  2  1  0
  2  3  1  0
  3  4  1  0
  3  5  2  0
  5  6  1  0
  6  7  2  0
  7  8  1  0
  8  9  1  0
  9 10  2  0
  9 11  1  0
 11 12  2  0
 12 13  1  0
 13 14  2  0
 14 15  1  0
 15 16  1  0
 16 17  1  0
 17 18  1  0
 18 19  1  0
 19 20  1  0
 14 21  1  0
 21 22  1  0
  7 23  1  0
 23 24  2  0
 23  2  1  0
 12  6  1  0
 20 15  1  0
 21 11  1  0
  1 25  1  0
  1 26  1  0
  1 27  1  0
  4 28  1  0
  5 29  1  0
 16 30  1  0
 16 31  1  0
 17 32  1  0
 17 33  1  0
 18 34  1  0
 18 35  1  0
 19 36  1  0
 19 37  1  0
 20 38  1  0
 20 39  1  0
 22 40  1  0
 22 41  1  0
 22 42  1  0
M  CHG  1   8  -1
M  END
>  <UniqueID>  (34) 
26

>  <SMILES>  (34) 
Cn1c(O)cc2c([n-]c(=O)c3c2nc(N2CCCCC2)n3C)c1=O

>  <Energy>  (34) 
98.68153753409909

>  <Genealogy>  (34) 
Cn1c(O)cc2c([n-]c(=O)c3c2nc(N2CCCCC2)n3C)c1=O (protonated)
Cn1c(O)cc2c([n-]c(=O)c3c2nc(N2CCCCC2)n3C)c1=O (3D coordinates assigned)
Cn1c(O)cc2c([n-]c(=O)c3c2nc(N2CCCCC2)n3C)c1=O (nonaromatic ring conformer: 98.68153753409909 kcal/mol)

>  <smiles>  (34) 
Cn1c(O)cc2c([nH]c(=O)c3c2nc(N2CCCCC2)n3C)c1=O

>  <score_type>  (34) 
oracle

>  <origin>  (34) 
adg

>  <m_score__min__energy>  (34) 
-8.4900000000000002

>  <m_primary>  (34) 
energy

$$$$
34:0
     RDKit          3D

 46 48  0  0  0  0  0  0  0  0999 V2000
   58.4940   29.4710   49.6600 O   0  0  0  0  0  0  0  0  0  0  0  0
   59.1540   30.4940   49.3350 C   0  0  0  0  0  0  0  0  0  0  0  0
   59.2120   31.6630   50.2610 C   0  0  0  0  0  0  0  0  0  0  0  0
   58.5580   32.7560   49.6540 O   0  0  0  0  0  0  0  0  0  0  0  0
   59.4750   33.5200   48.8960 C   0  0  0  0  0  0  0  0  0  0  0  0
   58.9730   33.6940   47.4870 C   0  0  0  0  0  0  0  0  0  0  0  0
   59.6960   34.4800   46.5760 C   0  0  0  0  0  0  0  0  0  0  0  0
   59.2230   34.6640   45.2730 C   0  0  0  0  0  0  0  0  0  0  0  0
   58.0260   34.0660   44.8730 C   0  0  0  0  0  0  0  0  0  0  0  0
   57.2980   33.2850   45.7750 C   0  0  0  0  0  0  0  0  0  0  0  0
   57.7670   33.1000   47.0800 C   0  0  0  0  0  0  0  0  0  0  0  0
   59.8570   30.5520   48.0880 N   0  0  0  0  0  0  0  0  0  0  0  0
   59.5390   29.8270   46.8910 C   0  0  0  0  0  0  0  0  0  0  0  0
   60.5890   29.3130   46.1200 C   0  0  0  0  0  0  0  0  0  0  0  0
   60.3250   28.6120   44.9410 C   0  0  0  0  0  0  0  0  0  0  0  0
   59.0090   28.4350   44.5110 C   0  0  0  0  0  0  0  0  0  0  0  0
   57.9460   28.9800   45.2480 C   0  0  0  0  0  0  0  0  0  0  0  0
   56.5300   28.7800   44.7900 C   0  0  0  0  0  0  0  0  0  0  0  0
   55.8940   27.7700   45.6260 N   0  0  0  0  0  0  0  0  0  0  0  0
   56.3590   26.4320   45.8600 C   0  0  0  0  0  0  0  0  0  0  0  0
   57.4710   26.2870   46.4340 O   0  0  0  0  0  0  0  0  0  0  0  0
   55.5990   25.2220   45.4480 C   0  0  0  0  0  0  0  0  0  0  0  0
   56.1800   24.2720   44.5930 C   0  0  0  0  0  0  0  0  0  0  0  0
   55.4400   23.1430   44.2390 C   0  0  0  0  0  0  0  0  0  0  0  0
   55.9330   22.2780   43.4690 O   0  0  0  0  0  0  0  0  0  0  0  0
   54.1820   22.9780   44.7230 N   0  0  0  0  0  0  0  0  0  0  0  0
   53.6320   23.8980   45.5560 C   0  0  0  0  0  0  0  0  0  0  0  0
   52.4670   23.7280   45.9990 O   0  0  0  0  0  0  0  0  0  0  0  0
   54.3390   25.0030   45.9110 N   0  0  0  0  0  0  0  0  0  0  0  0
   58.2150   29.6700   46.4420 C   0  0  0  0  0  0  0  0  0  0  0  0
   58.7104   31.4108   51.2069 H   0  0  0  0  0  0  0  0  0  0  0  0
   60.2602   31.9232   50.4696 H   0  0  0  0  0  0  0  0  0  0  0  0
   59.5960   34.5088   49.3626 H   0  0  0  0  0  0  0  0  0  0  0  0
   60.4411   32.9947   48.8688 H   0  0  0  0  0  0  0  0  0  0  0  0
   60.6386   34.9532   46.8884 H   0  0  0  0  0  0  0  0  0  0  0  0
   59.7940   35.2800   44.5627 H   0  0  0  0  0  0  0  0  0  0  0  0
   57.6558   34.2098   43.8472 H   0  0  0  0  0  0  0  0  0  0  0  0
   56.3551   32.8152   45.4584 H   0  0  0  0  0  0  0  0  0  0  0  0
   57.1900   32.4880   47.7889 H   0  0  0  0  0  0  0  0  0  0  0  0
   61.6292   29.4624   46.4452 H   0  0  0  0  0  0  0  0  0  0  0  0
   61.1558   28.1987   44.3503 H   0  0  0  0  0  0  0  0  0  0  0  0
   58.8043   27.8667   43.5917 H   0  0  0  0  0  0  0  0  0  0  0  0
   55.9786   29.7280   44.8746 H   0  0  0  0  0  0  0  0  0  0  0  0
   56.5242   28.4486   43.7411 H   0  0  0  0  0  0  0  0  0  0  0  0
   57.2007   24.4151   44.2088 H   0  0  0  0  0  0  0  0  0  0  0  0
   57.3852   30.0901   47.0294 H   0  0  0  0  0  0  0  0  0  0  0  0
  1  2  2  0
  2  3  1  0
  3  4  1  0
  4  5  1  0
  5  6  1  0
  6  7  2  0
  7  8  1  0
  8  9  2  0
  9 10  1  0
 10 11  2  0
  2 12  1  0
 12 13  1  0
 13 14  2  0
 14 15  1  0
 15 16  2  0
 16 17  1  0
 17 18  1  0
 18 19  1  0
 19 20  1  0
 20 21  2  0
 20 22  1  0
 22 23  2  0
 23 24  1  0
 24 25  2  0
 24 26  1  0
 26 27  1  0
 27 28  2  0
 27 29  1  0
 17 30  2  0
 11  6  1  0
 30 13  1  0
 29 22  1  0
  3 31  1  0
  3 32  1  0
  5 33  1  0
  5 34  1  0
  7 35  1  0
  8 36  1  0
  9 37  1  0
 10 38  1  0
 11 39  1  0
 14 40  1  0
 15 41  1  0
 16 42  1  0
 18 43  1  0
 18 44  1  0
 23 45  1  0
 30 46  1  0
M  CHG  4  12  -1  19  -1  26  -1  29  -1
M  END
>  <UniqueID>  (35) 
27

>  <SMILES>  (35) 
O=C(COCc1ccccc1)[N-]c1cccc(C[N-]C(=O)c2cc(=O)[n-]c(=O)[n-]2)c1

>  <Energy>  (35) 
54.11352202583366

>  <Genealogy>  (35) 
O=C(COCc1ccccc1)[N-]c1cccc(C[N-]C(=O)c2cc(=O)[n-]c(=O)[n-]2)c1 (protonated)
O=C(COCc1ccccc1)[N-]c1cccc(C[N-]C(=O)c2cc(=O)[n-]c(=O)[n-]2)c1 (3D coordinates assigned)
O=C(COCc1ccccc1)[N-]c1cccc(C[N-]C(=O)c2cc(=O)[n-]c(=O)[n-]2)c1 (optimized conformer: 54.11352202583366 kcal/mol)

>  <smiles>  (35) 
O=C(COCc1ccccc1)Nc1cccc(CNC(=O)c2cc(=O)[nH]c(=O)[nH]2)c1

>  <score_type>  (35) 
oracle

>  <origin>  (35) 
adg

>  <m_score__min__energy>  (35) 
-15.06

>  <m_primary>  (35) 
energy

$$$$
35:0
     RDKit          3D

 40 41  0  0  0  0  0  0  0  0999 V2000
   55.1460   28.9790   44.5510 N   0  0  0  0  0  0  0  0  0  0  0  0
   56.3480   30.1570   44.1590 S   0  0  0  0  0  0  0  0  0  0  0  0
   56.4060   30.3390   42.6680 O   0  0  0  0  0  0  0  0  0  0  0  0
   55.9840   31.4710   44.7920 O   0  0  0  0  0  0  0  0  0  0  0  0
   57.9140   29.6200   44.7580 C   0  0  0  0  0  0  0  0  0  0  0  0
   58.5460   28.5120   44.1770 C   0  0  0  0  0  0  0  0  0  0  0  0
   59.7780   28.0720   44.6670 C   0  0  0  0  0  0  0  0  0  0  0  0
   60.3880   28.7360   45.7350 C   0  0  0  0  0  0  0  0  0  0  0  0
   59.7710   29.8580   46.3170 C   0  0  0  0  0  0  0  0  0  0  0  0
   60.3600   30.5400   47.4370 N   0  0  0  0  0  0  0  0  0  0  0  0
   60.0980   30.2110   48.8090 C   0  0  0  0  0  0  0  0  0  0  0  0
   59.5830   29.1020   49.1160 O   0  0  0  0  0  0  0  0  0  0  0  0
   60.4950   31.1650   49.8950 C   0  0  0  0  0  0  0  0  0  0  0  0
   60.8930   32.4140   49.3360 O   0  0  0  0  0  0  0  0  0  0  0  0
   59.9970   33.4480   49.0410 C   0  0  0  0  0  0  0  0  0  0  0  0
   59.6020   34.2160   49.9610 O   0  0  0  0  0  0  0  0  0  0  0  0
   59.4680   33.6180   47.6640 C   0  0  0  0  0  0  0  0  0  0  0  0
   58.0710   33.6210   47.4840 C   0  0  0  0  0  0  0  0  0  0  0  0
   57.5140   33.7340   46.2100 C   0  0  0  0  0  0  0  0  0  0  0  0
   58.3390   33.8450   45.0940 C   0  0  0  0  0  0  0  0  0  0  0  0
   59.7250   33.8590   45.2490 C   0  0  0  0  0  0  0  0  0  0  0  0
   60.3090   33.7670   46.5260 C   0  0  0  0  0  0  0  0  0  0  0  0
   61.8120   33.8280   46.6260 C   0  0  0  0  0  0  0  0  0  0  0  0
   62.3010   32.6010   47.0900 O   0  0  0  0  0  0  0  0  0  0  0  0
   58.5220   30.2800   45.8350 C   0  0  0  0  0  0  0  0  0  0  0  0
   54.5980   29.3580   45.3560 H   0  0  0  0  0  0  0  0  0  0  0  0
   58.0713   27.9883   43.3342 H   0  0  0  0  0  0  0  0  0  0  0  0
   60.2696   27.2001   44.2108 H   0  0  0  0  0  0  0  0  0  0  0  0
   61.3542   28.3798   46.1218 H   0  0  0  0  0  0  0  0  0  0  0  0
   61.0650   31.2890   47.2440 H   0  0  0  0  0  0  0  0  0  0  0  0
   59.6397   31.3249   50.5679 H   0  0  0  0  0  0  0  0  0  0  0  0
   61.3404   30.7381   50.4544 H   0  0  0  0  0  0  0  0  0  0  0  0
   57.4107   33.5331   48.3593 H   0  0  0  0  0  0  0  0  0  0  0  0
   56.4209   33.7354   46.0869 H   0  0  0  0  0  0  0  0  0  0  0  0
   57.8974   33.9217   44.0894 H   0  0  0  0  0  0  0  0  0  0  0  0
   60.3698   33.9430   44.3618 H   0  0  0  0  0  0  0  0  0  0  0  0
   62.2368   34.0400   45.6337 H   0  0  0  0  0  0  0  0  0  0  0  0
   62.0999   34.6252   47.3272 H   0  0  0  0  0  0  0  0  0  0  0  0
   62.1070   32.5770   48.0630 H   0  0  0  0  0  0  0  0  0  0  0  0
   58.0162   31.1356   46.3062 H   0  0  0  0  0  0  0  0  0  0  0  0
  1  2  1  0
  2  3  2  0
  2  4  2  0
  2  5  1  0
  5  6  2  0
  6  7  1  0
  7  8  2  0
  8  9  1  0
  9 10  1  0
 10 11  1  0
 11 12  2  0
 11 13  1  0
 13 14  1  0
 14 15  1  0
 15 16  2  0
 15 17  1  0
 17 18  2  0
 18 19  1  0
 19 20  2  0
 20 21  1  0
 21 22  2  0
 22 23  1  0
 23 24  1  0
  9 25  2  0
 25  5  1  0
 22 17  1  0
  1 26  1  0
  6 27  1  0
  7 28  1  0
  8 29  1  0
 10 30  1  0
 13 31  1  0
 13 32  1  0
 18 33  1  0
 19 34  1  0
 20 35  1  0
 21 36  1  0
 23 37  1  0
 23 38  1  0
 24 39  1  0
 25 40  1  0
M  CHG  1   1  -1
M  END
>  <UniqueID>  (36) 
28

>  <SMILES>  (36) 
[NH-]S(=O)(=O)c1cccc(NC(=O)COC(=O)c2ccccc2CO)c1

>  <Energy>  (36) 
44.74338297382379

>  <Genealogy>  (36) 
[NH-]S(=O)(=O)c1cccc(NC(=O)COC(=O)c2ccccc2CO)c1 (protonated)
[NH-]S(=O)(=O)c1cccc(NC(=O)COC(=O)c2ccccc2CO)c1 (3D coordinates assigned)
[NH-]S(=O)(=O)c1cccc(NC(=O)COC(=O)c2ccccc2CO)c1 (optimized conformer: 44.74338297382379 kcal/mol)

>  <smiles>  (36) 
NS(=O)(=O)c1cccc(NC(=O)COC(=O)c2ccccc2CO)c1

>  <score_type>  (36) 
oracle

>  <origin>  (36) 
adg

>  <m_score__min__energy>  (36) 
-10.26

>  <m_primary>  (36) 
energy

$$$$
36:0
     RDKit          3D

 51 53  0  0  0  0  0  0  0  0999 V2000
   66.6300   32.9980   49.6930 N   0  0  0  0  0  0  0  0  0  0  0  0
   65.4230   32.3500   50.1960 C   0  0  0  0  0  0  0  0  0  0  0  0
   64.2180   32.8730   49.4650 C   0  0  0  0  0  0  0  0  0  0  0  0
   64.0940   32.6870   48.0790 C   0  0  0  0  0  0  0  0  0  0  0  0
   62.9890   33.2010   47.3940 C   0  0  0  0  0  0  0  0  0  0  0  0
   62.0010   33.9210   48.0830 C   0  0  0  0  0  0  0  0  0  0  0  0
   60.7960   34.4560   47.3580 C   0  0  0  0  0  0  0  0  0  0  0  0
   60.1020   33.3730   46.6650 N   0  0  0  0  0  0  0  0  0  0  0  0
   58.8620   33.5810   45.9680 C   0  0  0  0  0  0  0  0  0  0  0  0
   58.2880   34.7010   46.0330 O   0  0  0  0  0  0  0  0  0  0  0  0
   58.2380   32.5060   45.1730 C   0  0  0  0  0  0  0  0  0  0  0  0
   57.7700   32.5910   43.8620 C   0  0  0  0  0  0  0  0  0  0  0  0
   57.2250   31.3910   43.3880 C   0  0  0  0  0  0  0  0  0  0  0  0
   57.2460   30.3690   44.3280 C   0  0  0  0  0  0  0  0  0  0  0  0
   56.8050   28.9610   44.0980 C   0  0  0  0  0  0  0  0  0  0  0  0
   56.0190   28.5130   45.2420 N   0  0  0  0  0  0  0  0  0  0  0  0
   56.6450   27.0020   45.8250 S   0  0  0  0  0  0  0  0  0  0  0  0
   57.3700   27.2170   47.1240 O   0  0  0  0  0  0  0  0  0  0  0  0
   55.5190   26.0290   46.0320 O   0  0  0  0  0  0  0  0  0  0  0  0
   57.7810   26.3480   44.6130 C   0  0  0  0  0  0  0  0  0  0  0  0
   57.5960   24.8640   44.4670 C   0  0  0  0  0  0  0  0  0  0  0  0
   58.3090   23.9760   45.2890 C   0  0  0  0  0  0  0  0  0  0  0  0
   58.1590   22.5940   45.1300 C   0  0  0  0  0  0  0  0  0  0  0  0
   57.3050   22.0910   44.1450 C   0  0  0  0  0  0  0  0  0  0  0  0
   56.6010   22.9690   43.3150 C   0  0  0  0  0  0  0  0  0  0  0  0
   56.7470   24.3500   43.4710 C   0  0  0  0  0  0  0  0  0  0  0  0
   57.9680   30.9410   45.7340 S   0  0  0  0  0  0  0  0  0  0  0  0
   62.1300   34.1150   49.4670 C   0  0  0  0  0  0  0  0  0  0  0  0
   63.2350   33.6010   50.1520 C   0  0  0  0  0  0  0  0  0  0  0  0
   66.5640   33.0450   48.6500 H   0  0  0  0  0  0  0  0  0  0  0  0
   67.4400   32.3750   49.9100 H   0  0  0  0  0  0  0  0  0  0  0  0
   65.5006   31.2638   50.0407 H   0  0  0  0  0  0  0  0  0  0  0  0
   65.3169   32.5659   51.2694 H   0  0  0  0  0  0  0  0  0  0  0  0
   64.8700   32.1342   47.5293 H   0  0  0  0  0  0  0  0  0  0  0  0
   62.8936   33.0403   46.3100 H   0  0  0  0  0  0  0  0  0  0  0  0
   60.1119   34.9203   48.0836 H   0  0  0  0  0  0  0  0  0  0  0  0
   61.1236   35.2027   46.6197 H   0  0  0  0  0  0  0  0  0  0  0  0
   60.5260   32.4200   46.7060 H   0  0  0  0  0  0  0  0  0  0  0  0
   57.8236   33.5099   43.2596 H   0  0  0  0  0  0  0  0  0  0  0  0
   56.8206   31.2701   42.3722 H   0  0  0  0  0  0  0  0  0  0  0  0
   56.1903   28.9119   43.1871 H   0  0  0  0  0  0  0  0  0  0  0  0
   57.6853   28.3125   43.9770 H   0  0  0  0  0  0  0  0  0  0  0  0
   57.5952   26.8333   43.6435 H   0  0  0  0  0  0  0  0  0  0  0  0
   58.8104   26.5477   44.9453 H   0  0  0  0  0  0  0  0  0  0  0  0
   58.9878   24.3684   46.0606 H   0  0  0  0  0  0  0  0  0  0  0  0
   58.7140   21.9027   45.7812 H   0  0  0  0  0  0  0  0  0  0  0  0
   57.1865   21.0043   44.0225 H   0  0  0  0  0  0  0  0  0  0  0  0
   55.9312   22.5720   42.5380 H   0  0  0  0  0  0  0  0  0  0  0  0
   56.1958   25.0373   42.8123 H   0  0  0  0  0  0  0  0  0  0  0  0
   61.3578   34.6743   50.0155 H   0  0  0  0  0  0  0  0  0  0  0  0
   63.3342   33.7682   51.2347 H   0  0  0  0  0  0  0  0  0  0  0  0
  1  2  1  0
  2  3  1  0
  3  4  2  0
  4  5  1  0
  5  6  2  0
  6  7  1  0
  7  8  1  0
  8  9  1  0
  9 10  2  0
  9 11  1  0
 11 12  2  0
 12 13  1  0
 13 14  2  0
 14 15  1  0
 15 16  1  0
 16 17  1  0
 17 18  2  0
 17 19  2  0
 17 20  1  0
 20 21  1  0
 21 22  2  0
 22 23  1  0
 23 24  2  0
 24 25  1  0
 25 26  2  0
 14 27  1  0
  6 28  1  0
 28 29  2  0
 29  3  1  0
 27 11  1  0
 26 21  1  0
  1 30  1  0
  1 31  1  0
  2 32  1  0
  2 33  1  0
  4 34  1  0
  5 35  1  0
  7 36  1  0
  7 37  1  0
  8 38  1  0
 12 39  1  0
 13 40  1  0
 15 41  1  0
 15 42  1  0
 20 43  1  0
 20 44  1  0
 22 45  1  0
 23 46  1  0
 24 47  1  0
 25 48  1  0
 26 49  1  0
 28 50  1  0
 29 51  1  0
M  CHG  1  16  -1
M  END
>  <UniqueID>  (37) 
29

>  <SMILES>  (37) 
NCc1ccc(CNC(=O)c2ccc(C[N-]S(=O)(=O)Cc3ccccc3)s2)cc1

>  <Energy>  (37) 
66.6262201908583

>  <Genealogy>  (37) 
NCc1ccc(CNC(=O)c2ccc(C[N-]S(=O)(=O)Cc3ccccc3)s2)cc1 (protonated)
NCc1ccc(CNC(=O)c2ccc(C[N-]S(=O)(=O)Cc3ccccc3)s2)cc1 (3D coordinates assigned)
NCc1ccc(CNC(=O)c2ccc(C[N-]S(=O)(=O)Cc3ccccc3)s2)cc1 (optimized conformer: 66.6262201908583 kcal/mol)

>  <smiles>  (37) 
NCc1ccc(CNC(=O)c2ccc(CNS(=O)(=O)Cc3ccccc3)s2)cc1

>  <score_type>  (37) 
oracle

>  <origin>  (37) 
adg

>  <m_score__min__energy>  (37) 
-11.02

>  <m_primary>  (37) 
energy

$$$$
37:0
     RDKit          3D

 43 45  0  0  0  0  0  0  0  0999 V2000
   59.7444   24.9549   46.2829 H   0  0  0  0  0  0  0  0  0  0  0  0
   58.7040   25.3070   46.2230 C   0  0  0  0  0  0  0  0  0  0  0  0
   58.4420   26.6370   46.1100 N   0  0  0  0  0  0  0  0  0  0  0  0
   57.1690   27.1200   46.0320 C   0  0  0  0  0  0  0  0  0  0  0  0
   56.9360   28.3970   45.9250 N   0  0  0  0  0  0  0  0  0  0  0  0
   56.3630   29.0810   44.7980 C   0  0  0  0  0  0  0  0  0  0  0  0
   55.1740   29.5010   44.8230 O   0  0  0  0  0  0  0  0  0  0  0  0
   57.2090   29.3400   43.5860 C   0  0  2  0  0  0  0  0  0  0  0  0
   57.3673   28.4064   43.0262 H   0  0  0  0  0  0  0  0  0  0  0  0
   58.4730   29.8580   44.0090 O   0  0  0  0  0  0  0  0  0  0  0  0
   58.7030   30.6360   45.1550 C   0  0  0  0  0  0  0  0  0  0  0  0
   59.5430   30.2210   46.2060 C   0  0  0  0  0  0  0  0  0  0  0  0
   60.0524   29.2478   46.1477 H   0  0  0  0  0  0  0  0  0  0  0  0
   59.7330   31.0400   47.3240 C   0  0  0  0  0  0  0  0  0  0  0  0
   60.3929   30.7060   48.1382 H   0  0  0  0  0  0  0  0  0  0  0  0
   59.0880   32.2870   47.4170 C   0  0  0  0  0  0  0  0  0  0  0  0
   59.2910   33.1540   48.6020 C   0  0  0  0  0  0  0  0  0  0  0  0
   58.5160   33.0510   49.5930 O   0  0  0  0  0  0  0  0  0  0  0  0
   60.3680   34.1060   48.6150 N   0  0  0  0  0  0  0  0  0  0  0  0
   61.6080   33.8670   48.3080 C   0  0  0  0  0  0  0  0  0  0  0  0
   62.5860   33.6190   49.2090 N   0  0  0  0  0  0  0  0  0  0  0  0
   63.7820   33.4090   48.5960 C   0  0  0  0  0  0  0  0  0  0  0  0
   65.0150   33.0720   49.3690 C   0  0  0  0  0  0  0  0  0  0  0  0
   64.8000   33.1308   50.4462 H   0  0  0  0  0  0  0  0  0  0  0  0
   65.3397   32.0522   49.1150 H   0  0  0  0  0  0  0  0  0  0  0  0
   65.8133   33.7849   49.1150 H   0  0  0  0  0  0  0  0  0  0  0  0
   63.7560   33.4720   47.2050 C   0  0  0  0  0  0  0  0  0  0  0  0
   64.6146   33.3193   46.5345 H   0  0  0  0  0  0  0  0  0  0  0  0
   62.1790   33.8230   46.7300 S   0  0  0  0  0  0  0  0  0  0  0  0
   58.2460   32.6930   46.3660 C   0  0  0  0  0  0  0  0  0  0  0  0
   57.7313   33.6635   46.4233 H   0  0  0  0  0  0  0  0  0  0  0  0
   58.0580   31.8740   45.2500 C   0  0  0  0  0  0  0  0  0  0  0  0
   57.3956   32.2060   44.4370 H   0  0  0  0  0  0  0  0  0  0  0  0
   56.5000   30.3420   42.6720 C   0  0  0  0  0  0  0  0  0  0  0  0
   55.9724   31.0877   43.2848 H   0  0  0  0  0  0  0  0  0  0  0  0
   57.2422   30.8480   42.0371 H   0  0  0  0  0  0  0  0  0  0  0  0
   55.7758   29.8105   42.0371 H   0  0  0  0  0  0  0  0  0  0  0  0
   56.0900   26.2230   46.0700 C   0  0  0  0  0  0  0  0  0  0  0  0
   54.7790   26.6840   45.9930 O   0  0  0  0  0  0  0  0  0  0  0  0
   56.3390   24.8520   46.1850 C   0  0  0  0  0  0  0  0  0  0  0  0
   55.5011   24.1399   46.2140 H   0  0  0  0  0  0  0  0  0  0  0  0
   57.6540   24.3890   46.2630 C   0  0  0  0  0  0  0  0  0  0  0  0
   57.8599   23.3124   46.3550 H   0  0  0  0  0  0  0  0  0  0  0  0
  1  2  1  0
  2  3  1  0
  3  4  1  0
  4  5  2  3
  5  6  1  0
  6  7  2  0
  6  8  1  0
  8  9  1  6
  8 10  1  0
 10 11  1  0
 11 12  2  0
 12 13  1  0
 12 14  1  0
 14 15  1  0
 14 16  2  0
 16 17  1  0
 17 18  2  0
 17 19  1  0
 19 20  2  0
 20 21  1  0
 21 22  1  0
 22 23  1  0
 23 24  1  0
 23 25  1  0
 23 26  1  0
 22 27  2  0
 27 28  1  0
 27 29  1  0
 16 30  1  0
 30 31  1  0
 30 32  2  0
 32 33  1  0
  8 34  1  0
 34 35  1  0
 34 36  1  0
 34 37  1  0
  4 38  1  0
 38 39  1  0
 38 40  2  0
 40 41  1  0
 40 42  1  0
 42 43  1  0
 42  2  2  0
 32 11  1  0
 29 20  1  0
M  CHG  3   3  -1  21  -1  39  -1
M  END
>  <UniqueID>  (38) 
30

>  <SMILES>  (38) 
Cc1cs/c(=N/C(=O)c2ccc(O[C@H](C)C(=O)N=c3[n-]cccc3[O-])cc2)[n-]1

>  <Energy>  (38) 
78.091850110157

>  <Genealogy>  (38) 
Cc1csc(=NC(=O)c2ccc(OC(C)C(=O)N=c3[n-]cccc3[O-])cc2)[n-]1 (protonated)
Cc1csc(=NC(=O)c2ccc(O[C@H](C)C(=O)N=c3[n-]cccc3[O-])cc2)[n-]1 (chirality)
Cc1cs/c(=N/C(=O)c2ccc(O[C@H](C)C(=O)N=c3[n-]cccc3[O-])cc2)[n-]1 (cis-trans isomerization)
Cc1cs/c(=N/C(=O)c2ccc(O[C@H](C)C(=O)N=c3[n-]cccc3[O-])cc2)[n-]1 (3D coordinates assigned)
Cc1cs/c(=N/C(=O)c2ccc(O[C@H](C)C(=O)N=c3[n-]cccc3[O-])cc2)[n-]1 (optimized conformer: 78.091850110157 kcal/mol)

>  <smiles>  (38) 
Cc1csc(=NC(=O)c2ccc(OC(C)C(=O)N=c3[nH]cccc3O)cc2)[nH]1

>  <score_type>  (38) 
oracle

>  <origin>  (38) 
adg

>  <m_score__min__energy>  (38) 
-14.94

>  <m_primary>  (38) 
energy

$$$$
38:0
     RDKit          3D

 55 57  0  0  0  0  0  0  0  0999 V2000
   57.8230   26.6010   43.6700 C   0  0  0  0  0  0  0  0  0  0  0  0
   57.6940   25.9350   45.0180 C   0  0  0  0  0  0  0  0  0  0  0  0
   57.1980   24.6130   45.0880 C   0  0  0  0  0  0  0  0  0  0  0  0
   56.8400   23.9430   43.8660 N   0  0  0  0  0  0  0  0  0  0  0  0
   55.6010   22.7490   43.6140 S   0  0  0  0  0  0  0  0  0  0  0  0
   55.0170   22.9660   42.2460 O   0  0  0  0  0  0  0  0  0  0  0  0
   54.4910   22.9130   44.6140 O   0  0  0  0  0  0  0  0  0  0  0  0
   56.2600   21.1330   43.6930 N   0  0  0  0  0  0  0  0  0  0  0  0
   57.5700   21.1090   43.0320 C   0  0  0  0  0  0  0  0  0  0  0  0
   56.3920   20.7070   45.0910 C   0  0  0  0  0  0  0  0  0  0  0  0
   57.0680   23.9900   46.3420 C   0  0  0  0  0  0  0  0  0  0  0  0
   57.4180   24.6680   47.5100 C   0  0  0  0  0  0  0  0  0  0  0  0
   57.9000   25.9720   47.4460 C   0  0  0  0  0  0  0  0  0  0  0  0
   58.0410   26.6150   46.2120 C   0  0  0  0  0  0  0  0  0  0  0  0
   58.5450   27.9580   46.1870 N   0  0  0  0  0  0  0  0  0  0  0  0
   57.6330   29.0830   46.4050 C   0  0  0  0  0  0  0  0  0  0  0  0
   57.4220   29.8450   45.1200 C   0  0  0  0  0  0  0  0  0  0  0  0
   58.4720   30.6110   44.5870 C   0  0  0  0  0  0  0  0  0  0  0  0
   58.3160   31.2730   43.3660 C   0  0  0  0  0  0  0  0  0  0  0  0
   57.1120   31.1700   42.6630 C   0  0  0  0  0  0  0  0  0  0  0  0
   56.9600   31.8260   41.4490 O   0  0  0  0  0  0  0  0  0  0  0  0
   56.0640   30.4050   43.1820 C   0  0  0  0  0  0  0  0  0  0  0  0
   56.2130   29.7400   44.4030 C   0  0  0  0  0  0  0  0  0  0  0  0
   55.1590   28.9740   44.8920 O   0  0  0  0  0  0  0  0  0  0  0  0
   60.2620   28.2090   46.2490 S   0  0  0  0  0  0  0  0  0  0  0  0
   60.9300   26.9740   46.7880 O   0  0  0  0  0  0  0  0  0  0  0  0
   60.7920   28.4670   44.8650 O   0  0  0  0  0  0  0  0  0  0  0  0
   60.6300   29.5930   47.2740 C   0  0  0  0  0  0  0  0  0  0  0  0
   60.2870   29.5730   48.6340 C   0  0  0  0  0  0  0  0  0  0  0  0
   60.6020   30.6630   49.4540 C   0  0  0  0  0  0  0  0  0  0  0  0
   61.2590   31.7740   48.9190 C   0  0  0  0  0  0  0  0  0  0  0  0
   61.6010   31.7990   47.5650 C   0  0  0  0  0  0  0  0  0  0  0  0
   61.2870   30.7130   46.7420 C   0  0  0  0  0  0  0  0  0  0  0  0
   58.0305   27.6723   43.8087 H   0  0  0  0  0  0  0  0  0  0  0  0
   58.6480   26.1373   43.1094 H   0  0  0  0  0  0  0  0  0  0  0  0
   56.8845   26.4789   43.1094 H   0  0  0  0  0  0  0  0  0  0  0  0
   58.3644   21.0944   43.7928 H   0  0  0  0  0  0  0  0  0  0  0  0
   57.6473   20.2093   42.4039 H   0  0  0  0  0  0  0  0  0  0  0  0
   57.6802   22.0053   42.4039 H   0  0  0  0  0  0  0  0  0  0  0  0
   56.1325   21.5443   45.7555 H   0  0  0  0  0  0  0  0  0  0  0  0
   55.7133   19.8628   45.2827 H   0  0  0  0  0  0  0  0  0  0  0  0
   57.4291   20.3945   45.2827 H   0  0  0  0  0  0  0  0  0  0  0  0
   56.6873   22.9598   46.4025 H   0  0  0  0  0  0  0  0  0  0  0  0
   57.3126   24.1700   48.4851 H   0  0  0  0  0  0  0  0  0  0  0  0
   58.1718   26.5003   48.3718 H   0  0  0  0  0  0  0  0  0  0  0  0
   56.6655   28.7013   46.7632 H   0  0  0  0  0  0  0  0  0  0  0  0
   58.0726   29.7592   47.1530 H   0  0  0  0  0  0  0  0  0  0  0  0
   59.4230   30.6903   45.1341 H   0  0  0  0  0  0  0  0  0  0  0  0
   59.1410   31.8754   42.9580 H   0  0  0  0  0  0  0  0  0  0  0  0
   55.1174   30.3256   42.6274 H   0  0  0  0  0  0  0  0  0  0  0  0
   59.7696   28.6993   49.0569 H   0  0  0  0  0  0  0  0  0  0  0  0
   60.3321   30.6448   50.5202 H   0  0  0  0  0  0  0  0  0  0  0  0
   61.5070   32.6295   49.5645 H   0  0  0  0  0  0  0  0  0  0  0  0
   62.1182   32.6744   47.1454 H   0  0  0  0  0  0  0  0  0  0  0  0
   61.5555   30.7367   45.6755 H   0  0  0  0  0  0  0  0  0  0  0  0
  1  2  1  0
  2  3  2  0
  3  4  1  0
  4  5  1  0
  5  6  2  0
  5  7  2  0
  5  8  1  0
  8  9  1  0
  8 10  1  0
  3 11  1  0
 11 12  2  0
 12 13  1  0
 13 14  2  0
 14 15  1  0
 15 16  1  0
 16 17  1  0
 17 18  2  0
 18 19  1  0
 19 20  2  0
 20 21  1  0
 20 22  1  0
 22 23  2  0
 23 24  1  0
 15 25  1  0
 25 26  2  0
 25 27  2  0
 25 28  1  0
 28 29  2  0
 29 30  1  0
 30 31  2  0
 31 32  1  0
 32 33  2  0
 14  2  1  0
 23 17  1  0
 33 28  1  0
  1 34  1  0
  1 35  1  0
  1 36  1  0
  9 37  1  0
  9 38  1  0
  9 39  1  0
 10 40  1  0
 10 41  1  0
 10 42  1  0
 11 43  1  0
 12 44  1  0
 13 45  1  0
 16 46  1  0
 16 47  1  0
 18 48  1  0
 19 49  1  0
 22 50  1  0
 29 51  1  0
 30 52  1  0
 31 53  1  0
 32 54  1  0
 33 55  1  0
M  CHG  3   4  -1  21  -1  24  -1
M  END
>  <UniqueID>  (39) 
31

>  <SMILES>  (39) 
Cc1c([N-]S(=O)(=O)N(C)C)cccc1N(Cc1ccc([O-])cc1[O-])S(=O)(=O)c1ccccc1

>  <Energy>  (39) 
61.937379015710405

>  <Genealogy>  (39) 
Cc1c([N-]S(=O)(=O)N(C)C)cccc1N(Cc1ccc([O-])cc1[O-])S(=O)(=O)c1ccccc1 (protonated)
Cc1c([N-]S(=O)(=O)N(C)C)cccc1N(Cc1ccc([O-])cc1[O-])S(=O)(=O)c1ccccc1 (3D coordinates assigned)
Cc1c([N-]S(=O)(=O)N(C)C)cccc1N(Cc1ccc([O-])cc1[O-])S(=O)(=O)c1ccccc1 (optimized conformer: 61.937379015710405 kcal/mol)

>  <smiles>  (39) 
Cc1c(NS(=O)(=O)N(C)C)cccc1N(Cc1ccc(O)cc1O)S(=O)(=O)c1ccccc1

>  <score_type>  (39) 
oracle

>  <origin>  (39) 
adg

>  <m_score__min__energy>  (39) 
-14.869999999999999

>  <m_primary>  (39) 
energy

$$$$
39:0
     RDKit          3D

 44 45  0  0  0  0  0  0  0  0999 V2000
   60.7010   28.9630   45.4500 C   0  0  0  0  0  0  0  0  0  0  0  0
   60.6190   29.7470   46.7330 C   0  0  0  0  0  0  0  0  0  0  0  0
   61.2350   31.0120   46.7960 C   0  0  0  0  0  0  0  0  0  0  0  0
   61.1520   31.7840   47.9540 C   0  0  0  0  0  0  0  0  0  0  0  0
   60.4580   31.3060   49.0660 C   0  0  0  0  0  0  0  0  0  0  0  0
   59.8330   30.0590   49.0200 C   0  0  0  0  0  0  0  0  0  0  0  0
   59.9030   29.2660   47.8610 C   0  0  0  0  0  0  0  0  0  0  0  0
   59.2080   27.9230   47.8550 C   0  0  0  0  0  0  0  0  0  0  0  0
   58.1060   27.9130   46.8960 N   0  0  0  0  0  0  0  0  0  0  0  0
   57.3100   26.7500   46.6430 C   0  0  0  0  0  0  0  0  0  0  0  0
   57.5600   25.6670   47.2370 O   0  0  0  0  0  0  0  0  0  0  0  0
   56.1760   26.8350   45.6640 C   0  0  0  0  0  0  0  0  0  0  0  0
   55.9140   28.2130   45.2550 N   0  0  0  0  0  0  0  0  0  0  0  0
   56.7920   28.9760   44.4210 C   0  0  0  0  0  0  0  0  0  0  0  0
   57.9720   28.5800   44.2030 O   0  0  0  0  0  0  0  0  0  0  0  0
   56.2710   30.2100   43.7490 C   0  0  0  0  0  0  0  0  0  0  0  0
   56.4610   31.4020   44.5750 N   0  0  0  0  0  0  0  0  0  0  0  0
   57.4740   31.6080   45.5710 C   0  0  0  0  0  0  0  0  0  0  0  0
   57.7760   30.6450   46.3250 O   0  0  0  0  0  0  0  0  0  0  0  0
   58.1540   32.9060   45.7660 C   0  0  0  0  0  0  0  0  0  0  0  0
   58.4180   33.3640   47.0680 C   0  0  0  0  0  0  0  0  0  0  0  0
   59.1010   34.5680   47.2690 C   0  0  0  0  0  0  0  0  0  0  0  0
   59.5200   35.3260   46.1710 C   0  0  0  0  0  0  0  0  0  0  0  0
   59.2770   34.8710   44.8710 C   0  0  0  0  0  0  0  0  0  0  0  0
   58.6040   33.6600   44.6680 C   0  0  0  0  0  0  0  0  0  0  0  0
   60.8129   27.8933   45.6805 H   0  0  0  0  0  0  0  0  0  0  0  0
   59.7817   29.1181   44.8661 H   0  0  0  0  0  0  0  0  0  0  0  0
   61.5683   29.3049   44.8661 H   0  0  0  0  0  0  0  0  0  0  0  0
   61.7863   31.3941   45.9242 H   0  0  0  0  0  0  0  0  0  0  0  0
   61.6346   32.7718   47.9910 H   0  0  0  0  0  0  0  0  0  0  0  0
   60.4033   31.9136   49.9813 H   0  0  0  0  0  0  0  0  0  0  0  0
   59.2807   29.6933   49.8982 H   0  0  0  0  0  0  0  0  0  0  0  0
   59.9330   27.1431   47.5792 H   0  0  0  0  0  0  0  0  0  0  0  0
   58.8027   27.7314   48.8595 H   0  0  0  0  0  0  0  0  0  0  0  0
   57.9160   28.7840   46.3520 H   0  0  0  0  0  0  0  0  0  0  0  0
   56.4294   26.2413   44.7733 H   0  0  0  0  0  0  0  0  0  0  0  0
   55.2713   26.4461   46.1543 H   0  0  0  0  0  0  0  0  0  0  0  0
   56.8040   30.3484   42.7968 H   0  0  0  0  0  0  0  0  0  0  0  0
   55.1915   30.0783   43.5835 H   0  0  0  0  0  0  0  0  0  0  0  0
   58.0857   32.7725   47.9338 H   0  0  0  0  0  0  0  0  0  0  0  0
   59.3086   34.9186   48.2908 H   0  0  0  0  0  0  0  0  0  0  0  0
   60.0414   36.2814   46.3300 H   0  0  0  0  0  0  0  0  0  0  0  0
   59.6145   35.4643   44.0083 H   0  0  0  0  0  0  0  0  0  0  0  0
   58.4266   33.2970   43.6449 H   0  0  0  0  0  0  0  0  0  0  0  0
  1  2  1  0
  2  3  2  0
  3  4  1  0
  4  5  2  0
  5  6  1  0
  6  7  2  0
  7  8  1  0
  8  9  1  0
  9 10  1  0
 10 11  2  0
 10 12  1  0
 12 13  1  0
 13 14  1  0
 14 15  2  0
 14 16  1  0
 16 17  1  0
 17 18  1  0
 18 19  2  0
 18 20  1  0
 20 21  2  0
 21 22  1  0
 22 23  2  0
 23 24  1  0
 24 25  2  0
  7  2  1  0
 25 20  1  0
  1 26  1  0
  1 27  1  0
  1 28  1  0
  3 29  1  0
  4 30  1  0
  5 31  1  0
  6 32  1  0
  8 33  1  0
  8 34  1  0
  9 35  1  0
 12 36  1  0
 12 37  1  0
 16 38  1  0
 16 39  1  0
 21 40  1  0
 22 41  1  0
 23 42  1  0
 24 43  1  0
 25 44  1  0
M  CHG  2  13  -1  17  -1
M  END
>  <UniqueID>  (40) 
32

>  <SMILES>  (40) 
Cc1ccccc1CNC(=O)C[N-]C(=O)C[N-]C(=O)c1ccccc1

>  <Energy>  (40) 
41.05840136943192

>  <Genealogy>  (40) 
Cc1ccccc1CNC(=O)C[N-]C(=O)C[N-]C(=O)c1ccccc1 (protonated)
Cc1ccccc1CNC(=O)C[N-]C(=O)C[N-]C(=O)c1ccccc1 (3D coordinates assigned)
Cc1ccccc1CNC(=O)C[N-]C(=O)C[N-]C(=O)c1ccccc1 (optimized conformer: 41.05840136943192 kcal/mol)

>  <smiles>  (40) 
Cc1ccccc1CNC(=O)CNC(=O)CNC(=O)c1ccccc1

>  <score_type>  (40) 
oracle

>  <origin>  (40) 
adg

>  <m_score__min__energy>  (40) 
-12.5

>  <m_primary>  (40) 
energy

$$$$
40:0
     RDKit          3D

 65 69  0  0  0  0  0  0  0  0999 V2000
   57.1420   34.1670   45.6800 C   0  0  0  0  0  0  0  0  0  0  0  0
   58.8230   34.2720   45.1030 S   0  0  0  0  0  0  0  0  0  0  0  0
   59.1730   35.7040   44.8060 O   0  0  0  0  0  0  0  0  0  0  0  0
   58.9520   33.4790   43.8330 O   0  0  0  0  0  0  0  0  0  0  0  0
   59.9020   33.6200   46.3000 N   0  0  0  0  0  0  0  0  0  0  0  0
   61.0290   34.2310   46.7140 C   0  0  0  0  0  0  0  0  0  0  0  0
   61.6570   33.4650   47.6730 C   0  0  0  0  0  0  0  0  0  0  0  0
   60.8780   32.3360   47.8520 C   0  0  0  0  0  0  0  0  0  0  0  0
   61.1560   31.2380   48.8420 C   0  0  0  0  0  0  0  0  0  0  0  0
   59.9200   30.8860   49.6200 C   0  0  0  0  0  0  0  0  0  0  0  0
   59.2550   31.6330   50.4970 C   0  0  0  0  0  0  0  0  0  0  0  0
   59.5280   32.9300   50.9420 C   0  0  0  0  0  0  0  0  0  0  0  0
   58.6680   33.5030   51.8950 C   0  0  0  0  0  0  0  0  0  0  0  0
   58.9070   34.7590   52.3490 F   0  0  0  0  0  0  0  0  0  0  0  0
   57.5630   32.7790   52.3870 C   0  0  0  0  0  0  0  0  0  0  0  0
   57.3080   31.4730   51.9350 C   0  0  0  0  0  0  0  0  0  0  0  0
   58.1720   30.9160   50.9900 C   0  0  0  0  0  0  0  0  0  0  0  0
   58.0660   29.7210   50.5030 N   0  0  0  0  0  0  0  0  0  0  0  0
   59.1710   29.6350   49.6090 C   0  0  0  0  0  0  0  0  0  0  0  0
   59.4620   28.6010   48.9530 O   0  0  0  0  0  0  0  0  0  0  0  0
   59.7940   32.4580   46.9860 C   0  0  0  0  0  0  0  0  0  0  0  0
   58.6720   31.4670   46.8270 C   0  0  0  0  0  0  0  0  0  0  0  0
   58.7610   30.7610   45.5320 N   0  0  0  0  0  0  0  0  0  0  0  0
   57.4010   30.3780   45.0770 C   0  0  0  0  0  0  0  0  0  0  0  0
   57.4230   29.3180   43.9640 C   0  0  0  0  0  0  0  0  0  0  0  0
   58.2220   28.0520   44.3620 C   0  0  0  0  0  0  0  0  0  0  0  0
   57.3650   26.8650   44.4820 N   0  0  0  0  0  0  0  0  0  0  0  0
   56.8240   26.3660   45.7130 C   0  0  0  0  0  0  0  0  0  0  0  0
   56.8310   27.0800   46.7520 O   0  0  0  0  0  0  0  0  0  0  0  0
   56.2370   25.0930   45.7290 O   0  0  0  0  0  0  0  0  0  0  0  0
   56.6070   24.0200   44.9040 C   0  0  0  0  0  0  0  0  0  0  0  0
   57.7120   23.2410   45.2770 C   0  0  0  0  0  0  0  0  0  0  0  0
   58.0990   22.1440   44.5020 C   0  0  0  0  0  0  0  0  0  0  0  0
   57.3910   21.8210   43.3410 C   0  0  0  0  0  0  0  0  0  0  0  0
   56.2840   22.5830   42.9640 C   0  0  0  0  0  0  0  0  0  0  0  0
   55.8800   23.6690   43.7490 C   0  0  0  0  0  0  0  0  0  0  0  0
   59.0620   28.2590   45.6330 C   0  0  0  0  0  0  0  0  0  0  0  0
   59.7340   29.6350   45.5820 C   0  0  0  0  0  0  0  0  0  0  0  0
   57.1313   34.1663   46.7799 H   0  0  0  0  0  0  0  0  0  0  0  0
   56.5721   35.0313   45.3083 H   0  0  0  0  0  0  0  0  0  0  0  0
   56.6841   33.2385   45.3083 H   0  0  0  0  0  0  0  0  0  0  0  0
   61.3946   35.1993   46.3415 H   0  0  0  0  0  0  0  0  0  0  0  0
   62.5953   33.7050   48.1945 H   0  0  0  0  0  0  0  0  0  0  0  0
   61.5061   30.3465   48.3010 H   0  0  0  0  0  0  0  0  0  0  0  0
   61.9244   31.5890   49.5466 H   0  0  0  0  0  0  0  0  0  0  0  0
   60.3939   33.4880   50.5561 H   0  0  0  0  0  0  0  0  0  0  0  0
   56.8955   33.2397   53.1301 H   0  0  0  0  0  0  0  0  0  0  0  0
   56.4481   30.9030   52.3166 H   0  0  0  0  0  0  0  0  0  0  0  0
   58.7263   30.7300   47.6418 H   0  0  0  0  0  0  0  0  0  0  0  0
   57.7179   32.0133   46.8606 H   0  0  0  0  0  0  0  0  0  0  0  0
   56.8435   29.9751   45.9354 H   0  0  0  0  0  0  0  0  0  0  0  0
   56.9223   31.2795   44.6670 H   0  0  0  0  0  0  0  0  0  0  0  0
   56.3876   29.0241   43.7370 H   0  0  0  0  0  0  0  0  0  0  0  0
   57.9195   29.7638   43.0895 H   0  0  0  0  0  0  0  0  0  0  0  0
   58.9239   27.8694   43.5350 H   0  0  0  0  0  0  0  0  0  0  0  0
   57.1900   26.3050   43.6170 H   0  0  0  0  0  0  0  0  0  0  0  0
   58.2779   23.4950   46.1855 H   0  0  0  0  0  0  0  0  0  0  0  0
   58.9622   21.5339   44.8063 H   0  0  0  0  0  0  0  0  0  0  0  0
   57.7062   20.9663   42.7244 H   0  0  0  0  0  0  0  0  0  0  0  0
   55.7285   22.3297   42.0490 H   0  0  0  0  0  0  0  0  0  0  0  0
   54.9914   24.2509   43.4632 H   0  0  0  0  0  0  0  0  0  0  0  0
   58.4098   28.2019   46.5170 H   0  0  0  0  0  0  0  0  0  0  0  0
   59.8326   27.4765   45.6950 H   0  0  0  0  0  0  0  0  0  0  0  0
   60.3589   29.7524   46.4796 H   0  0  0  0  0  0  0  0  0  0  0  0
   60.3281   29.6748   44.6571 H   0  0  0  0  0  0  0  0  0  0  0  0
  1  2  1  0
  2  3  2  0
  2  4  2  0
  2  5  1  0
  5  6  1  0
  6  7  2  0
  7  8  1  0
  8  9  1  0
  9 10  1  0
 10 11  2  0
 11 12  1  0
 12 13  2  0
 13 14  1  0
 13 15  1  0
 15 16  2  0
 16 17  1  0
 17 18  2  0
 18 19  1  0
 19 20  2  0
  8 21  2  0
 21 22  1  0
 22 23  1  0
 23 24  1  0
 24 25  1  0
 25 26  1  0
 26 27  1  0
 27 28  1  0
 28 29  2  0
 28 30  1  0
 30 31  1  0
 31 32  2  0
 32 33  1  0
 33 34  2  0
 34 35  1  0
 35 36  2  0
 26 37  1  0
 37 38  1  0
 21  5  1  0
 38 23  1  0
 19 10  1  0
 36 31  1  0
 17 11  1  0
  1 39  1  0
  1 40  1  0
  1 41  1  0
  6 42  1  0
  7 43  1  0
  9 44  1  0
  9 45  1  0
 12 46  1  0
 15 47  1  0
 16 48  1  0
 22 49  1  0
 22 50  1  0
 24 51  1  0
 24 52  1  0
 25 53  1  0
 25 54  1  0
 26 55  1  0
 27 56  1  0
 32 57  1  0
 33 58  1  0
 34 59  1  0
 35 60  1  0
 36 61  1  0
 37 62  1  0
 37 63  1  0
 38 64  1  0
 38 65  1  0
M  END
>  <UniqueID>  (41) 
33

>  <SMILES>  (41) 
CS(=O)(=O)n1ccc(CC2=c3cc(F)ccc3=NC2=O)c1CN1CCC(NC(=O)Oc2ccccc2)CC1

>  <Energy>  (41) 
135.3706798100574

>  <Genealogy>  (41) 
CS(=O)(=O)n1ccc(CC2=c3cc(F)ccc3=NC2=O)c1CN1CCC(NC(=O)Oc2ccccc2)CC1 (3D coordinates assigned)
CS(=O)(=O)n1ccc(CC2=c3cc(F)ccc3=NC2=O)c1CN1CCC(NC(=O)Oc2ccccc2)CC1 (nonaromatic ring conformer: 135.3706798100574 kcal/mol)

>  <smiles>  (41) 
CS(=O)(=O)n1ccc(CC2=c3cc(F)ccc3=NC2=O)c1CN1CCC(NC(=O)Oc2ccccc2)CC1

>  <score_type>  (41) 
oracle

>  <origin>  (41) 
adg

>  <m_score__min__energy>  (41) 
-10.359999999999999

>  <m_primary>  (41) 
energy

$$$$
41:0
     RDKit          3D

 51 53  0  0  0  0  0  0  0  0999 V2000
   55.6240   21.7120   48.4920 O   0  0  0  0  0  0  0  0  0  0  0  0
   56.5790   21.9180   47.6940 C   0  0  0  0  0  0  0  0  0  0  0  0
   56.9260   20.8670   46.6690 C   0  0  0  0  0  0  0  0  0  0  0  0
   56.7670   21.4010   45.2690 C   0  0  0  0  0  0  0  0  0  0  0  0
   56.1420   22.6400   45.0500 C   0  0  0  0  0  0  0  0  0  0  0  0
   56.0450   23.1400   43.7500 C   0  0  0  0  0  0  0  0  0  0  0  0
   56.5800   22.4120   42.6860 C   0  0  0  0  0  0  0  0  0  0  0  0
   57.2050   21.1890   42.9390 C   0  0  0  0  0  0  0  0  0  0  0  0
   57.2860   20.7100   44.2100 N   0  0  0  0  0  0  0  0  0  0  0  0
   57.3630   23.1070   47.8650 N   0  0  0  0  0  0  0  0  0  0  0  0
   56.8620   24.4770   47.8190 C   0  0  0  0  0  0  0  0  0  0  0  0
   57.8310   25.3720   47.0460 C   0  0  0  0  0  0  0  0  0  0  0  0
   56.9690   26.2860   45.7750 S   0  0  0  0  0  0  0  0  0  0  0  0
   57.3290   25.7320   44.4240 O   0  0  0  0  0  0  0  0  0  0  0  0
   55.4890   26.1280   45.9920 O   0  0  0  0  0  0  0  0  0  0  0  0
   57.3920   27.9800   45.8600 N   0  0  0  0  0  0  0  0  0  0  0  0
   58.8220   28.1320   46.1580 C   0  0  0  0  0  0  0  0  0  0  0  0
   59.0890   29.5920   46.5110 C   0  0  0  0  0  0  0  0  0  0  0  0
   58.4200   30.4970   45.5640 N   0  0  0  0  0  0  0  0  0  0  0  0
   58.6050   31.9210   45.7090 C   0  0  0  0  0  0  0  0  0  0  0  0
   57.9150   32.8200   44.8760 C   0  0  0  0  0  0  0  0  0  0  0  0
   58.0960   34.1990   45.0170 C   0  0  0  0  0  0  0  0  0  0  0  0
   58.9630   34.6960   45.9930 C   0  0  0  0  0  0  0  0  0  0  0  0
   59.6510   33.8150   46.8290 C   0  0  0  0  0  0  0  0  0  0  0  0
   59.4740   32.4340   46.6920 C   0  0  0  0  0  0  0  0  0  0  0  0
   57.8120   29.9620   44.3380 C   0  0  0  0  0  0  0  0  0  0  0  0
   57.0370   28.6470   44.5880 C   0  0  0  0  0  0  0  0  0  0  0  0
   57.9694   20.5517   46.8169 H   0  0  0  0  0  0  0  0  0  0  0  0
   56.2426   20.0147   46.7975 H   0  0  0  0  0  0  0  0  0  0  0  0
   55.7324   23.2116   45.8959 H   0  0  0  0  0  0  0  0  0  0  0  0
   55.5488   24.1041   43.5650 H   0  0  0  0  0  0  0  0  0  0  0  0
   56.5100   22.7978   41.6583 H   0  0  0  0  0  0  0  0  0  0  0  0
   57.6336   20.6105   42.1073 H   0  0  0  0  0  0  0  0  0  0  0  0
   57.7670   19.7960   44.3720 H   0  0  0  0  0  0  0  0  0  0  0  0
   55.8817   24.4881   47.3202 H   0  0  0  0  0  0  0  0  0  0  0  0
   56.7669   24.8573   48.8468 H   0  0  0  0  0  0  0  0  0  0  0  0
   58.3028   26.0802   47.7431 H   0  0  0  0  0  0  0  0  0  0  0  0
   58.5945   24.7389   46.5704 H   0  0  0  0  0  0  0  0  0  0  0  0
   59.0946   27.4887   47.0076 H   0  0  0  0  0  0  0  0  0  0  0  0
   59.4228   27.8389   45.2845 H   0  0  0  0  0  0  0  0  0  0  0  0
   58.7123   29.7910   47.5252 H   0  0  0  0  0  0  0  0  0  0  0  0
   60.1730   29.7713   46.4589 H   0  0  0  0  0  0  0  0  0  0  0  0
   57.2279   32.4352   44.1080 H   0  0  0  0  0  0  0  0  0  0  0  0
   57.5547   34.8940   44.3582 H   0  0  0  0  0  0  0  0  0  0  0  0
   59.1035   35.7815   46.1027 H   0  0  0  0  0  0  0  0  0  0  0  0
   60.3337   34.2074   47.5971 H   0  0  0  0  0  0  0  0  0  0  0  0
   60.0165   31.7447   47.3557 H   0  0  0  0  0  0  0  0  0  0  0  0
   57.1152   30.7110   43.9336 H   0  0  0  0  0  0  0  0  0  0  0  0
   58.6244   29.7424   43.6296 H   0  0  0  0  0  0  0  0  0  0  0  0
   55.9612   28.8757   44.6043 H   0  0  0  0  0  0  0  0  0  0  0  0
   57.3069   27.9555   43.7762 H   0  0  0  0  0  0  0  0  0  0  0  0
  1  2  2  0
  2  3  1  0
  3  4  1  0
  4  5  2  0
  5  6  1  0
  6  7  2  0
  7  8  1  0
  8  9  2  0
  2 10  1  0
 10 11  1  0
 11 12  1  0
 12 13  1  0
 13 14  2  0
 13 15  2  0
 13 16  1  0
 16 17  1  0
 17 18  1  0
 18 19  1  0
 19 20  1  0
 20 21  2  0
 21 22  1  0
 22 23  2  0
 23 24  1  0
 24 25  2  0
 19 26  1  0
 26 27  1  0
  9  4  1  0
 27 16  1  0
 25 20  1  0
  3 28  1  0
  3 29  1  0
  5 30  1  0
  6 31  1  0
  7 32  1  0
  8 33  1  0
  9 34  1  0
 11 35  1  0
 11 36  1  0
 12 37  1  0
 12 38  1  0
 17 39  1  0
 17 40  1  0
 18 41  1  0
 18 42  1  0
 21 43  1  0
 22 44  1  0
 23 45  1  0
 24 46  1  0
 25 47  1  0
 26 48  1  0
 26 49  1  0
 27 50  1  0
 27 51  1  0
M  CHG  2   9   1  10  -1
M  END
>  <UniqueID>  (42) 
34

>  <SMILES>  (42) 
O=C(Cc1cccc[nH+]1)[N-]CCS(=O)(=O)N1CCN(c2ccccc2)CC1

>  <Energy>  (42) 
52.11756502483858

>  <Genealogy>  (42) 
O=C(Cc1cccc[nH+]1)[N-]CCS(=O)(=O)N1CCN(c2ccccc2)CC1 (protonated)
O=C(Cc1cccc[nH+]1)[N-]CCS(=O)(=O)N1CCN(c2ccccc2)CC1 (3D coordinates assigned)
O=C(Cc1cccc[nH+]1)[N-]CCS(=O)(=O)N1CCN(c2ccccc2)CC1 (nonaromatic ring conformer: 52.11756502483858 kcal/mol)

>  <smiles>  (42) 
O=C(Cc1ccccn1)NCCS(=O)(=O)N1CCN(c2ccccc2)CC1

>  <score_type>  (42) 
oracle

>  <origin>  (42) 
adg

>  <m_score__min__energy>  (42) 
-9.3900000000000006

>  <m_primary>  (42) 
energy

$$$$
42:0
     RDKit          3D

 50 53  0  0  0  0  0  0  0  0999 V2000
   54.2250   25.9500   45.6730 O   0  0  0  0  0  0  0  0  0  0  0  0
   55.1770   25.1730   45.9520 C   0  0  0  0  0  0  0  0  0  0  0  0
   54.9630   23.6930   45.9230 C   0  0  0  0  0  0  0  0  0  0  0  0
   56.0220   23.0440   45.0910 C   0  0  0  0  0  0  0  0  0  0  0  0
   55.8860   22.6490   43.7660 C   0  0  0  0  0  0  0  0  0  0  0  0
   57.0240   22.0010   43.2660 C   0  0  0  0  0  0  0  0  0  0  0  0
   58.0490   21.8820   44.1950 C   0  0  0  0  0  0  0  0  0  0  0  0
   57.5390   22.5750   45.6420 S   0  0  0  0  0  0  0  0  0  0  0  0
   56.4650   25.6920   46.3020 N   0  0  0  0  0  0  0  0  0  0  0  0
   57.2680   26.5590   45.4890 C   0  0  0  0  0  0  0  0  0  0  0  0
   57.6840   27.7840   46.0270 C   0  0  0  0  0  0  0  0  0  0  0  0
   58.5110   28.6500   45.2890 C   0  0  0  0  0  0  0  0  0  0  0  0
   58.9280   29.9240   45.8150 N   0  0  0  0  0  0  0  0  0  0  0  0
   58.2130   31.1550   45.6030 C   0  0  0  0  0  0  0  0  0  0  0  0
   57.1100   31.1510   44.9910 O   0  0  0  0  0  0  0  0  0  0  0  0
   58.7470   32.4420   46.1060 C   0  0  0  0  0  0  0  0  0  0  0  0
   58.0130   33.6320   45.9730 C   0  0  0  0  0  0  0  0  0  0  0  0
   58.5360   34.8380   46.4440 C   0  0  0  0  0  0  0  0  0  0  0  0
   59.7950   34.8710   47.0480 C   0  0  0  0  0  0  0  0  0  0  0  0
   60.5540   33.6940   47.1770 C   0  0  0  0  0  0  0  0  0  0  0  0
   61.8440   33.7120   47.8240 N   0  0  0  0  0  0  0  0  0  0  0  0
   63.1050   33.4410   47.1460 C   0  0  0  0  0  0  0  0  0  0  0  0
   64.1690   33.3070   48.2530 C   0  0  0  0  0  0  0  0  0  0  0  0
   63.4960   33.6670   49.5860 C   0  0  0  0  0  0  0  0  0  0  0  0
   62.0840   33.8750   49.2130 C   0  0  0  0  0  0  0  0  0  0  0  0
   61.1900   34.1980   50.0410 O   0  0  0  0  0  0  0  0  0  0  0  0
   60.0190   32.4840   46.7020 C   0  0  0  0  0  0  0  0  0  0  0  0
   58.8920   28.2870   43.9880 C   0  0  0  0  0  0  0  0  0  0  0  0
   58.5040   27.0560   43.4560 C   0  0  0  0  0  0  0  0  0  0  0  0
   57.7070   26.1840   44.2040 C   0  0  0  0  0  0  0  0  0  0  0  0
   57.4160   24.9610   43.6940 F   0  0  0  0  0  0  0  0  0  0  0  0
   55.0104   23.2971   46.9482 H   0  0  0  0  0  0  0  0  0  0  0  0
   53.9762   23.4774   45.4874 H   0  0  0  0  0  0  0  0  0  0  0  0
   54.9784   22.8265   43.1704 H   0  0  0  0  0  0  0  0  0  0  0  0
   57.0979   21.6228   42.2357 H   0  0  0  0  0  0  0  0  0  0  0  0
   59.0283   21.4142   44.0159 H   0  0  0  0  0  0  0  0  0  0  0  0
   57.3601   28.0718   47.0381 H   0  0  0  0  0  0  0  0  0  0  0  0
   59.7750   29.9330   46.4260 H   0  0  0  0  0  0  0  0  0  0  0  0
   57.0220   33.6139   45.4958 H   0  0  0  0  0  0  0  0  0  0  0  0
   57.9543   35.7657   46.3390 H   0  0  0  0  0  0  0  0  0  0  0  0
   60.1954   35.8236   47.4252 H   0  0  0  0  0  0  0  0  0  0  0  0
   63.0348   32.5067   46.5696 H   0  0  0  0  0  0  0  0  0  0  0  0
   63.3608   34.2445   46.4397 H   0  0  0  0  0  0  0  0  0  0  0  0
   64.5453   32.2740   48.2892 H   0  0  0  0  0  0  0  0  0  0  0  0
   65.0199   33.9755   48.0555 H   0  0  0  0  0  0  0  0  0  0  0  0
   63.5944   32.8454   50.3108 H   0  0  0  0  0  0  0  0  0  0  0  0
   63.9458   34.5468   50.0695 H   0  0  0  0  0  0  0  0  0  0  0  0
   60.6039   31.5574   46.7981 H   0  0  0  0  0  0  0  0  0  0  0  0
   59.4999   28.9765   43.3839 H   0  0  0  0  0  0  0  0  0  0  0  0
   58.8267   26.7708   42.4438 H   0  0  0  0  0  0  0  0  0  0  0  0
  1  2  2  0
  2  3  1  0
  3  4  1  0
  4  5  2  0
  5  6  1  0
  6  7  2  0
  7  8  1  0
  2  9  1  0
  9 10  1  0
 10 11  2  0
 11 12  1  0
 12 13  1  0
 13 14  1  0
 14 15  2  0
 14 16  1  0
 16 17  2  0
 17 18  1  0
 18 19  2  0
 19 20  1  0
 20 21  1  0
 21 22  1  0
 22 23  1  0
 23 24  1  0
 24 25  1  0
 25 26  2  0
 20 27  2  0
 12 28  2  0
 28 29  1  0
 29 30  2  0
 30 31  1  0
  8  4  1  0
 30 10  1  0
 27 16  1  0
 25 21  1  0
  3 32  1  0
  3 33  1  0
  5 34  1  0
  6 35  1  0
  7 36  1  0
 11 37  1  0
 13 38  1  0
 17 39  1  0
 18 40  1  0
 19 41  1  0
 22 42  1  0
 22 43  1  0
 23 44  1  0
 23 45  1  0
 24 46  1  0
 24 47  1  0
 27 48  1  0
 28 49  1  0
 29 50  1  0
M  CHG  1   9  -1
M  END
>  <UniqueID>  (43) 
35

>  <SMILES>  (43) 
O=C(Cc1cccs1)[N-]c1cc(NC(=O)c2cccc(N3CCCC3=O)c2)ccc1F

>  <Energy>  (43) 
99.38761488131449

>  <Genealogy>  (43) 
O=C(Cc1cccs1)[N-]c1cc(NC(=O)c2cccc(N3CCCC3=O)c2)ccc1F (protonated)
O=C(Cc1cccs1)[N-]c1cc(NC(=O)c2cccc(N3CCCC3=O)c2)ccc1F (3D coordinates assigned)
O=C(Cc1cccs1)[N-]c1cc(NC(=O)c2cccc(N3CCCC3=O)c2)ccc1F (nonaromatic ring conformer: 99.38761488131449 kcal/mol)

>  <smiles>  (43) 
O=C(Cc1cccs1)Nc1cc(NC(=O)c2cccc(N3CCCC3=O)c2)ccc1F

>  <score_type>  (43) 
oracle

>  <origin>  (43) 
adg

>  <m_score__min__energy>  (43) 
-11.67

>  <m_primary>  (43) 
energy

$$$$
43:0
     RDKit          3D

 53 55  0  0  0  0  0  0  0  0999 V2000
   55.1544   30.9469   44.0369 H   0  0  0  0  0  0  0  0  0  0  0  0
   55.9090   30.2070   44.3420 C   0  0  0  0  0  0  0  0  0  0  0  0
   55.5150   29.0190   44.8680 N   0  0  0  0  0  0  0  0  0  0  0  0
   56.4080   28.0670   45.2510 C   0  0  0  0  0  0  0  0  0  0  0  0
   56.0070   26.9450   45.7710 N   0  0  0  0  0  0  0  0  0  0  0  0
   56.6830   25.6890   45.6220 C   0  0  0  0  0  0  0  0  0  0  0  0
   55.8930   24.4560   44.8950 S   0  0  0  0  0  0  0  0  0  0  0  0
   57.9410   25.4360   46.2660 N   0  0  0  0  0  0  0  0  0  0  0  0
   58.4550   24.5570   46.0330 H   0  0  0  0  0  0  0  0  0  0  0  0
   58.4070   26.2200   47.4040 C   0  0  0  0  0  0  0  0  0  0  0  0
   58.1107   25.7215   48.3387 H   0  0  0  0  0  0  0  0  0  0  0  0
   59.5030   26.3060   47.3658 H   0  0  0  0  0  0  0  0  0  0  0  0
   57.9589   27.2238   47.3658 H   0  0  0  0  0  0  0  0  0  0  0  0
   57.7770   28.3110   45.1180 C   0  0  0  0  0  0  0  0  0  0  0  0
   58.5052   27.5498   45.4349 H   0  0  0  0  0  0  0  0  0  0  0  0
   58.2240   29.5320   44.5780 C   0  0  0  0  0  0  0  0  0  0  0  0
   59.5910   29.8200   44.4350 O   0  0  0  0  0  0  0  0  0  0  0  0
   60.6470   28.9640   44.8590 C   0  0  0  0  0  0  0  0  0  0  0  0
   60.6790   28.9380   45.9582 H   0  0  0  0  0  0  0  0  0  0  0  0
   60.4733   27.9486   44.4732 H   0  0  0  0  0  0  0  0  0  0  0  0
   61.6044   29.3441   44.4732 H   0  0  0  0  0  0  0  0  0  0  0  0
   57.2740   30.4970   44.1850 C   0  0  0  0  0  0  0  0  0  0  0  0
   57.6910   31.7950   43.6010 C   0  0  0  0  0  0  0  0  0  0  0  0
   57.7500   31.9200   42.3480 O   0  0  0  0  0  0  0  0  0  0  0  0
   57.9650   32.9410   44.4180 N   0  0  0  0  0  0  0  0  0  0  0  0
   59.0190   33.0560   45.3860 C   0  0  0  0  0  0  0  0  0  0  0  0
   59.1550   32.0630   46.3600 C   0  0  0  0  0  0  0  0  0  0  0  0
   58.4649   31.2064   46.3663 H   0  0  0  0  0  0  0  0  0  0  0  0
   60.1610   32.1500   47.3260 C   0  0  0  0  0  0  0  0  0  0  0  0
   60.2641   31.3551   48.0793 H   0  0  0  0  0  0  0  0  0  0  0  0
   61.0430   33.2460   47.3430 C   0  0  0  0  0  0  0  0  0  0  0  0
   62.0820   33.3420   48.3430 N   0  0  0  0  0  0  0  0  0  0  0  0
   63.2380   32.4380   48.3130 C   0  0  0  0  0  0  0  0  0  0  0  0
   63.0119   31.5385   48.9045 H   0  0  0  0  0  0  0  0  0  0  0  0
   63.4486   32.1573   47.2705 H   0  0  0  0  0  0  0  0  0  0  0  0
   64.4710   33.1380   48.9040 C   0  0  0  0  0  0  0  0  0  0  0  0
   65.2889   32.4053   48.9691 H   0  0  0  0  0  0  0  0  0  0  0  0
   64.7144   33.9790   48.2380 H   0  0  0  0  0  0  0  0  0  0  0  0
   64.2410   33.7070   50.2580 N   0  0  0  0  0  0  0  0  0  0  0  0
   64.9660   32.9480   51.2890 C   0  0  0  0  0  0  0  0  0  0  0  0
   64.6447   33.2844   52.2858 H   0  0  0  0  0  0  0  0  0  0  0  0
   64.7482   31.8757   51.1760 H   0  0  0  0  0  0  0  0  0  0  0  0
   66.0471   33.1165   51.1760 H   0  0  0  0  0  0  0  0  0  0  0  0
   62.8180   33.8540   50.6370 C   0  0  0  0  0  0  0  0  0  0  0  0
   62.4449   32.8863   51.0034 H   0  0  0  0  0  0  0  0  0  0  0  0
   62.7492   34.6246   51.4189 H   0  0  0  0  0  0  0  0  0  0  0  0
   61.9590   34.3000   49.4500 C   0  0  0  0  0  0  0  0  0  0  0  0
   60.9066   34.3574   49.7650 H   0  0  0  0  0  0  0  0  0  0  0  0
   62.3047   35.2870   49.1090 H   0  0  0  0  0  0  0  0  0  0  0  0
   60.8860   34.2570   46.3770 C   0  0  0  0  0  0  0  0  0  0  0  0
   61.5604   35.1260   46.3821 H   0  0  0  0  0  0  0  0  0  0  0  0
   59.8800   34.1660   45.4110 C   0  0  0  0  0  0  0  0  0  0  0  0
   59.7618   34.9673   44.6667 H   0  0  0  0  0  0  0  0  0  0  0  0
  1  2  1  0
  2  3  1  0
  3  4  1  0
  4  5  2  0
  5  6  1  0
  6  7  2  0
  6  8  1  0
  8  9  1  0
  8 10  1  0
 10 11  1  0
 10 12  1  0
 10 13  1  0
  4 14  1  0
 14 15  1  0
 14 16  2  0
 16 17  1  0
 17 18  1  0
 18 19  1  0
 18 20  1  0
 18 21  1  0
 16 22  1  0
 22 23  1  0
 23 24  2  0
 23 25  1  0
 25 26  1  0
 26 27  2  0
 27 28  1  0
 27 29  1  0
 29 30  1  0
 29 31  2  0
 31 32  1  0
 32 33  1  0
 33 34  1  0
 33 35  1  0
 33 36  1  0
 36 37  1  0
 36 38  1  0
 36 39  1  0
 39 40  1  0
 40 41  1  0
 40 42  1  0
 40 43  1  0
 39 44  1  0
 44 45  1  0
 44 46  1  0
 44 47  1  0
 47 48  1  0
 47 49  1  0
 31 50  1  0
 50 51  1  0
 50 52  2  0
 52 53  1  0
 22  2  2  0
 52 26  1  0
 47 32  1  0
M  CHG  2   3  -1  25  -1
M  END
>  <UniqueID>  (44) 
36

>  <SMILES>  (44) 
CNC(=S)/N=c1/cc(OC)c(C(=O)[N-]c2ccc(N3CCN(C)CC3)cc2)c[n-]1

>  <Energy>  (44) 
75.56244094015767

>  <Genealogy>  (44) 
CNC(=S)N=c1cc(OC)c(C(=O)[N-]c2ccc(N3CCN(C)CC3)cc2)c[n-]1 (protonated)
CNC(=S)/N=c1/cc(OC)c(C(=O)[N-]c2ccc(N3CCN(C)CC3)cc2)c[n-]1 (cis-trans isomerization)
CNC(=S)/N=c1/cc(OC)c(C(=O)[N-]c2ccc(N3CCN(C)CC3)cc2)c[n-]1 (3D coordinates assigned)
CNC(=S)/N=c1/cc(OC)c(C(=O)[N-]c2ccc(N3CCN(C)CC3)cc2)c[n-]1 (nonaromatic ring conformer: 75.56244094015767 kcal/mol)

>  <smiles>  (44) 
CNC(=S)N=c1cc(OC)c(C(=O)Nc2ccc(N3CCN(C)CC3)cc2)c[nH]1

>  <score_type>  (44) 
oracle

>  <origin>  (44) 
adg

>  <m_score__min__energy>  (44) 
-10.210000000000001

>  <m_primary>  (44) 
energy

$$$$
44:0
     RDKit          3D

 42 44  0  0  1  0  0  0  0  0999 V2000
   56.9500   26.5430   45.7770 O   0  0  0  0  0  0  0  0  0  0  0  0
   57.6020   27.5590   46.2030 C   0  0  0  0  0  0  0  0  0  0  0  0
   58.9230   27.2660   46.8080 C   0  0  0  0  0  0  0  0  0  0  0  0
   59.5810   28.5070   47.3010 C   0  0  0  0  0  0  0  0  0  0  0  0
   59.4540   28.9590   48.5610 N   0  0  0  0  0  0  0  0  0  0  0  0
   60.0850   30.1080   48.9430 C   0  0  0  0  0  0  0  0  0  0  0  0
   60.8650   30.8200   48.0350 C   0  0  0  0  0  0  0  0  0  0  0  0
   61.6960   32.2920   48.4620 Cl  0  0  0  0  0  0  0  0  0  0  0  0
   61.0050   30.3640   46.7350 C   0  0  0  0  0  0  0  0  0  0  0  0
   60.3510   29.2010   46.3880 C   0  0  0  0  0  0  0  0  0  0  0  0
   60.5300   28.6250   44.7390 Cl  0  0  0  0  0  0  0  0  0  0  0  0
   57.0420   28.8470   46.0780 N   0  0  0  0  0  0  0  0  0  0  0  0
   57.0230   29.5690   45.0210 C   0  0  0  0  0  0  0  0  0  0  0  0
   57.3610   30.8590   45.1390 N   0  0  0  0  0  0  0  0  0  0  0  0
   57.3590   31.6520   44.0450 C   0  0  0  0  0  0  0  0  0  0  0  0
   57.7650   33.0570   44.2160 C   0  0  0  0  0  0  0  0  0  0  0  0
   58.6510   33.3270   45.3020 N   0  0  0  0  0  0  0  0  0  0  0  0
   59.3650   34.5310   45.1390 C   0  0  0  0  0  0  0  0  0  0  0  0
   60.1670   34.9000   46.3910 C   0  0  0  0  0  0  0  0  0  0  0  0
   59.2090   35.1080   47.3830 O   0  0  0  0  0  0  0  0  0  0  0  0
   58.6530   33.8800   47.6920 C   0  0  0  0  0  0  0  0  0  0  0  0
   57.9240   33.2240   46.5440 C   0  0  0  0  0  0  0  0  0  0  0  0
   57.0010   31.0710   42.8530 C   0  0  0  0  0  0  0  0  0  0  0  0
   56.9400   31.7700   41.6990 F   0  0  0  0  0  0  0  0  0  0  0  0
   56.6530   29.7190   42.7550 C   0  0  0  0  0  0  0  0  0  0  0  0
   56.6710   28.9760   43.8740 N   0  0  0  0  0  0  0  0  0  0  0  0
   58.7847   26.5745   47.6522 H   0  0  0  0  0  0  0  0  0  0  0  0
   59.5653   26.8162   46.0366 H   0  0  0  0  0  0  0  0  0  0  0  0
   59.9766   30.4738   49.9747 H   0  0  0  0  0  0  0  0  0  0  0  0
   61.6176   30.9115   46.0036 H   0  0  0  0  0  0  0  0  0  0  0  0
   58.2621   33.3784   43.2889 H   0  0  0  0  0  0  0  0  0  0  0  0
   56.8399   33.6059   44.4460 H   0  0  0  0  0  0  0  0  0  0  0  0
   60.0593   34.4198   44.2931 H   0  0  0  0  0  0  0  0  0  0  0  0
   58.6365   35.3343   44.9547 H   0  0  0  0  0  0  0  0  0  0  0  0
   60.8438   34.0799   46.6726 H   0  0  0  0  0  0  0  0  0  0  0  0
   60.7976   35.7872   46.2320 H   0  0  0  0  0  0  0  0  0  0  0  0
   59.4607   33.2076   48.0170 H   0  0  0  0  0  0  0  0  0  0  0  0
   57.9059   34.0604   48.4790 H   0  0  0  0  0  0  0  0  0  0  0  0
   57.7771   32.1598   46.7804 H   0  0  0  0  0  0  0  0  0  0  0  0
   56.9632   33.7438   46.4151 H   0  0  0  0  0  0  0  0  0  0  0  0
   56.3723   29.2767   41.7878 H   0  0  0  0  0  0  0  0  0  0  0  0
   56.4140   27.9800   43.7970 H   0  0  0  0  0  0  0  0  0  0  0  0
  1  2  2  0
  2  3  1  0
  3  4  1  0
  4  5  2  0
  5  6  1  0
  6  7  2  0
  7  8  1  0
  7  9  1  0
  9 10  2  0
 10 11  1  0
  2 12  1  0
 12 13  2  0
 13 14  1  0
 14 15  2  0
 15 16  1  0
 16 17  1  0
 17 18  1  0
 18 19  1  0
 19 20  1  0
 20 21  1  0
 21 22  1  0
 15 23  1  0
 23 24  1  0
 23 25  2  0
 25 26  1  0
 10  4  1  0
 26 13  1  0
 22 17  1  0
  3 27  1  0
  3 28  1  0
  6 29  1  0
  9 30  1  0
 16 31  1  0
 16 32  1  0
 18 33  1  0
 18 34  1  0
 19 35  1  0
 19 36  1  0
 21 37  1  0
 21 38  1  0
 22 39  1  0
 22 40  1  0
 25 41  1  0
 26 42  1  0
M  END
>  <smiles>  (45) 
O=C(Cc1ncc(Cl)cc1Cl)N=c1nc(CN2CCOCC2)c(F)c[nH]1

>  <score_type>  (45) 
oracle

>  <origin>  (45) 
adg

>  <m_score__min__energy>  (45) 
-8.7699999999999996

>  <m_primary>  (45) 
energy

$$$$
45:0
     RDKit          3D

 40 42  0  0  0  0  0  0  0  0999 V2000
   57.9670   34.6540   52.4200 O   0  0  0  0  0  0  0  0  0  0  0  0
   58.1660   33.4690   52.0480 C   0  0  0  0  0  0  0  0  0  0  0  0
   57.5030   32.4510   52.6480 N   0  0  0  0  0  0  0  0  0  0  0  0
   57.6870   31.1570   52.2730 C   0  0  0  0  0  0  0  0  0  0  0  0
   56.8680   30.1030   52.9740 C   0  0  0  0  0  0  0  0  0  0  0  0
   55.8330   29.5430   52.1000 N   0  0  0  0  0  0  0  0  0  0  0  0
   54.2610   29.5880   52.8470 S   0  0  0  0  0  0  0  0  0  0  0  0
   54.3440   30.2800   54.1800 O   0  0  0  0  0  0  0  0  0  0  0  0
   53.7780   28.1820   53.0620 O   0  0  0  0  0  0  0  0  0  0  0  0
   53.1230   30.4210   51.7920 C   0  0  0  0  0  0  0  0  0  0  0  0
   52.7560   29.8720   50.5550 C   0  0  0  0  0  0  0  0  0  0  0  0
   51.8120   30.5190   49.7520 C   0  0  0  0  0  0  0  0  0  0  0  0
   51.2330   31.7190   50.1770 C   0  0  0  0  0  0  0  0  0  0  0  0
   50.2900   32.3530   49.3770 O   0  0  0  0  0  0  0  0  0  0  0  0
   51.6050   32.2770   51.4060 C   0  0  0  0  0  0  0  0  0  0  0  0
   51.0320   33.4680   51.8360 O   0  0  0  0  0  0  0  0  0  0  0  0
   52.5520   31.6320   52.2080 C   0  0  0  0  0  0  0  0  0  0  0  0
   58.5990   30.8590   51.2290 C   0  0  0  0  0  0  0  0  0  0  0  0
   58.8770   29.4360   50.7770 C   0  0  0  0  0  0  0  0  0  0  0  0
   60.0690   28.8480   51.4920 C   0  0  0  0  0  0  0  0  0  0  0  0
   59.8890   28.0580   52.6410 C   0  0  0  0  0  0  0  0  0  0  0  0
   60.9920   27.5010   53.2950 C   0  0  0  0  0  0  0  0  0  0  0  0
   62.2820   27.7170   52.8010 C   0  0  0  0  0  0  0  0  0  0  0  0
   62.4690   28.4870   51.6510 C   0  0  0  0  0  0  0  0  0  0  0  0
   61.3680   29.0470   50.9940 C   0  0  0  0  0  0  0  0  0  0  0  0
   59.2700   31.9430   50.6230 C   0  0  0  0  0  0  0  0  0  0  0  0
   60.0900   31.7530   49.6860 O   0  0  0  0  0  0  0  0  0  0  0  0
   59.0380   33.2110   51.0440 N   0  0  0  0  0  0  0  0  0  0  0  0
   57.5359   29.2917   53.2991 H   0  0  0  0  0  0  0  0  0  0  0  0
   56.3693   30.5749   53.8334 H   0  0  0  0  0  0  0  0  0  0  0  0
   53.2119   28.9302   50.2157 H   0  0  0  0  0  0  0  0  0  0  0  0
   51.5241   30.0833   48.7839 H   0  0  0  0  0  0  0  0  0  0  0  0
   52.8500   32.0766   53.1690 H   0  0  0  0  0  0  0  0  0  0  0  0
   57.9932   28.8158   50.9871 H   0  0  0  0  0  0  0  0  0  0  0  0
   59.0973   29.4545   49.6994 H   0  0  0  0  0  0  0  0  0  0  0  0
   58.8751   27.8772   53.0274 H   0  0  0  0  0  0  0  0  0  0  0  0
   60.8448   26.8921   54.1992 H   0  0  0  0  0  0  0  0  0  0  0  0
   63.1493   27.2806   53.3180 H   0  0  0  0  0  0  0  0  0  0  0  0
   63.4840   28.6535   51.2610 H   0  0  0  0  0  0  0  0  0  0  0  0
   61.5198   29.6456   50.0837 H   0  0  0  0  0  0  0  0  0  0  0  0
  1  2  2  0
  2  3  1  0
  3  4  1  0
  4  5  1  0
  5  6  1  0
  6  7  1  0
  7  8  2  0
  7  9  2  0
  7 10  1  0
 10 11  2  0
 11 12  1  0
 12 13  2  0
 13 14  1  0
 13 15  1  0
 15 16  1  0
 15 17  2  0
  4 18  2  0
 18 19  1  0
 19 20  1  0
 20 21  2  0
 21 22  1  0
 22 23  2  0
 23 24  1  0
 24 25  2  0
 18 26  1  0
 26 27  2  0
 26 28  1  0
 28  2  1  0
 17 10  1  0
 25 20  1  0
  5 29  1  0
  5 30  1  0
 11 31  1  0
 12 32  1  0
 17 33  1  0
 19 34  1  0
 19 35  1  0
 21 36  1  0
 22 37  1  0
 23 38  1  0
 24 39  1  0
 25 40  1  0
M  CHG  5   3  -1   6  -1  14  -1  16  -1  28  -1
M  END
>  <UniqueID>  (46) 
37

>  <SMILES>  (46) 
O=c1[n-]c(C[N-]S(=O)(=O)c2ccc([O-])c([O-])c2)c(Cc2ccccc2)c(=O)[n-]1

>  <Energy>  (46) 
42.032874343921605

>  <Genealogy>  (46) 
O=c1[n-]c(C[N-]S(=O)(=O)c2ccc([O-])c([O-])c2)c(Cc2ccccc2)c(=O)[n-]1 (protonated)
O=c1[n-]c(C[N-]S(=O)(=O)c2ccc([O-])c([O-])c2)c(Cc2ccccc2)c(=O)[n-]1 (3D coordinates assigned)
O=c1[n-]c(C[N-]S(=O)(=O)c2ccc([O-])c([O-])c2)c(Cc2ccccc2)c(=O)[n-]1 (optimized conformer: 42.032874343921605 kcal/mol)

>  <smiles>  (46) 
O=c1[nH]c(CNS(=O)(=O)c2ccc(O)c(O)c2)c(Cc2ccccc2)c(=O)[nH]1

>  <score_type>  (46) 
oracle

>  <origin>  (46) 
adg

>  <m_score__min__energy>  (46) 
-17.989999999999998

>  <m_primary>  (46) 
energy

$$$$
46:0
     RDKit          3D

 44 46  0  0  0  0  0  0  0  0999 V2000
   57.9210   31.1160   51.8690 C   0  0  0  0  0  0  0  0  0  0  0  0
   58.6670   31.5830   50.7100 N   0  0  0  0  0  0  0  0  0  0  0  0
   58.8940   32.8700   50.3870 C   0  0  0  0  0  0  0  0  0  0  0  0
   59.6420   32.8970   49.2260 C   0  0  0  0  0  0  0  0  0  0  0  0
   60.0990   34.0960   48.5040 C   0  0  0  0  0  0  0  0  0  0  0  0
   61.2280   34.5880   48.7670 O   0  0  0  0  0  0  0  0  0  0  0  0
   59.2560   34.7140   47.5230 N   0  0  0  0  0  0  0  0  0  0  0  0
   59.5100   34.6730   46.0870 C   0  0  0  0  0  0  0  0  0  0  0  0
   58.8360   33.4760   45.4770 C   0  0  0  0  0  0  0  0  0  0  0  0
   58.5220   33.4680   44.1090 C   0  0  0  0  0  0  0  0  0  0  0  0
   57.8440   32.3830   43.5460 C   0  0  0  0  0  0  0  0  0  0  0  0
   57.4830   31.2870   44.3420 C   0  0  0  0  0  0  0  0  0  0  0  0
   56.6210   29.9230   43.6380 S   0  0  0  0  0  0  0  0  0  0  0  0
   57.6200   28.5140   43.6860 N   0  0  0  0  0  0  0  0  0  0  0  0
   55.3550   29.6620   44.4040 O   0  0  0  0  0  0  0  0  0  0  0  0
   56.2630   30.2380   42.2130 O   0  0  0  0  0  0  0  0  0  0  0  0
   57.7940   31.2910   45.7080 C   0  0  0  0  0  0  0  0  0  0  0  0
   58.4630   32.3810   46.2730 C   0  0  0  0  0  0  0  0  0  0  0  0
   59.8420   31.5610   48.9080 C   0  0  0  0  0  0  0  0  0  0  0  0
   60.8390   30.9110   47.5710 S   0  0  0  0  0  0  0  0  0  0  0  0
   62.3070   31.7670   48.1430 C   0  0  0  0  0  0  0  0  0  0  0  0
   62.8070   31.5290   49.4290 C   0  0  0  0  0  0  0  0  0  0  0  0
   63.9540   32.1950   49.8710 C   0  0  0  0  0  0  0  0  0  0  0  0
   64.6050   33.0980   49.0260 C   0  0  0  0  0  0  0  0  0  0  0  0
   64.1130   33.3330   47.7390 C   0  0  0  0  0  0  0  0  0  0  0  0
   62.9660   32.6690   47.2960 C   0  0  0  0  0  0  0  0  0  0  0  0
   59.2370   30.7800   49.8240 N   0  0  0  0  0  0  0  0  0  0  0  0
   58.4331   31.4366   52.7882 H   0  0  0  0  0  0  0  0  0  0  0  0
   56.9064   31.5405   51.8474 H   0  0  0  0  0  0  0  0  0  0  0  0
   57.8596   30.0179   51.8474 H   0  0  0  0  0  0  0  0  0  0  0  0
   58.5444   33.7480   50.9500 H   0  0  0  0  0  0  0  0  0  0  0  0
   59.1163   35.5886   45.6216 H   0  0  0  0  0  0  0  0  0  0  0  0
   60.5942   34.6021   45.9151 H   0  0  0  0  0  0  0  0  0  0  0  0
   58.8111   34.3203   43.4765 H   0  0  0  0  0  0  0  0  0  0  0  0
   57.5930   32.3892   42.4751 H   0  0  0  0  0  0  0  0  0  0  0  0
   58.3510   28.6300   42.9470 H   0  0  0  0  0  0  0  0  0  0  0  0
   57.0230   27.7070   43.3960 H   0  0  0  0  0  0  0  0  0  0  0  0
   57.5112   30.4345   46.3376 H   0  0  0  0  0  0  0  0  0  0  0  0
   58.6985   32.3808   47.3475 H   0  0  0  0  0  0  0  0  0  0  0  0
   62.2961   30.8163   50.0931 H   0  0  0  0  0  0  0  0  0  0  0  0
   64.3436   32.0085   50.8826 H   0  0  0  0  0  0  0  0  0  0  0  0
   65.5058   33.6245   49.3743 H   0  0  0  0  0  0  0  0  0  0  0  0
   64.6292   34.0413   47.0742 H   0  0  0  0  0  0  0  0  0  0  0  0
   62.5802   32.8541   46.2826 H   0  0  0  0  0  0  0  0  0  0  0  0
  1  2  1  0
  2  3  1  0
  3  4  2  0
  4  5  1  0
  5  6  2  0
  5  7  1  0
  7  8  1  0
  8  9  1  0
  9 10  2  0
 10 11  1  0
 11 12  2  0
 12 13  1  0
 13 14  1  0
 13 15  2  0
 13 16  2  0
 12 17  1  0
 17 18  2  0
  4 19  1  0
 19 20  1  0
 20 21  1  0
 21 22  2  0
 22 23  1  0
 23 24  2  0
 24 25  1  0
 25 26  2  0
 19 27  2  0
 27  2  1  0
 18  9  1  0
 26 21  1  0
  1 28  1  0
  1 29  1  0
  1 30  1  0
  3 31  1  0
  8 32  1  0
  8 33  1  0
 10 34  1  0
 11 35  1  0
 14 36  1  0
 14 37  1  0
 17 38  1  0
 18 39  1  0
 22 40  1  0
 23 41  1  0
 24 42  1  0
 25 43  1  0
 26 44  1  0
M  CHG  1   7  -1
M  END
>  <UniqueID>  (47) 
38

>  <SMILES>  (47) 
Cn1cc(C(=O)[N-]Cc2ccc(S(N)(=O)=O)cc2)c(Sc2ccccc2)n1

>  <Energy>  (47) 
65.57642433060268

>  <Genealogy>  (47) 
Cn1cc(C(=O)[N-]Cc2ccc(S(N)(=O)=O)cc2)c(Sc2ccccc2)n1 (protonated)
Cn1cc(C(=O)[N-]Cc2ccc(S(N)(=O)=O)cc2)c(Sc2ccccc2)n1 (3D coordinates assigned)
Cn1cc(C(=O)[N-]Cc2ccc(S(N)(=O)=O)cc2)c(Sc2ccccc2)n1 (optimized conformer: 65.57642433060268 kcal/mol)

>  <smiles>  (47) 
Cn1cc(C(=O)NCc2ccc(S(N)(=O)=O)cc2)c(Sc2ccccc2)n1

>  <score_type>  (47) 
oracle

>  <origin>  (47) 
adg

>  <m_score__min__energy>  (47) 
-11.34

>  <m_primary>  (47) 
energy

$$$$
47:0
     RDKit          3D

 48 50  0  0  0  0  0  0  0  0999 V2000
   63.3050   32.1660   47.3510 N   0  0  0  0  0  0  0  0  0  0  0  0
   62.8700   33.8380   47.3970 S   0  0  0  0  0  0  0  0  0  0  0  0
   63.1900   34.3920   48.7570 O   0  0  0  0  0  0  0  0  0  0  0  0
   63.6450   34.5930   46.3530 O   0  0  0  0  0  0  0  0  0  0  0  0
   61.1540   34.0040   47.0870 C   0  0  0  0  0  0  0  0  0  0  0  0
   60.2040   34.4230   48.0090 C   0  0  0  0  0  0  0  0  0  0  0  0
   58.9090   34.4580   47.4810 C   0  0  0  0  0  0  0  0  0  0  0  0
   58.8560   34.0650   46.1520 C   0  0  0  0  0  0  0  0  0  0  0  0
   57.3820   34.0090   45.1400 S   0  0  0  0  0  0  0  0  0  0  0  0
   57.3850   32.2170   45.0990 C   0  0  0  0  0  0  0  0  0  0  0  0
   56.6540   31.5390   44.1210 C   0  0  0  0  0  0  0  0  0  0  0  0
   56.6750   30.1440   44.0700 C   0  0  0  0  0  0  0  0  0  0  0  0
   55.9800   29.5110   43.0920 F   0  0  0  0  0  0  0  0  0  0  0  0
   57.4340   29.4070   44.9980 C   0  0  0  0  0  0  0  0  0  0  0  0
   57.5030   27.9790   44.8670 N   0  0  0  0  0  0  0  0  0  0  0  0
   58.1570   30.0940   46.0070 C   0  0  0  0  0  0  0  0  0  0  0  0
   58.9240   29.3760   47.0480 C   0  0  0  0  0  0  0  0  0  0  0  0
   59.3190   28.2000   46.8300 O   0  0  0  0  0  0  0  0  0  0  0  0
   59.1980   30.0050   48.3100 N   0  0  0  0  0  0  0  0  0  0  0  0
   60.1010   29.4150   49.2930 C   0  0  0  0  0  0  0  0  0  0  0  0
   60.8620   30.5010   50.0040 C   0  0  0  0  0  0  0  0  0  0  0  0
   60.1710   31.5670   50.5990 C   0  0  0  0  0  0  0  0  0  0  0  0
   60.8750   32.6120   51.2020 C   0  0  0  0  0  0  0  0  0  0  0  0
   62.2720   32.6060   51.2080 C   0  0  0  0  0  0  0  0  0  0  0  0
   62.9770   31.5460   50.6190 C   0  0  0  0  0  0  0  0  0  0  0  0
   64.4790   31.5690   50.5710 C   0  0  0  0  0  0  0  0  0  0  0  0
   64.9280   32.2870   49.3830 N   0  0  0  0  0  0  0  0  0  0  0  0
   62.2670   30.5010   50.0060 C   0  0  0  0  0  0  0  0  0  0  0  0
   58.1240   31.4980   46.0410 C   0  0  0  0  0  0  0  0  0  0  0  0
   60.4020   33.6710   45.6190 S   0  0  0  0  0  0  0  0  0  0  0  0
   64.3490   32.1240   47.3430 H   0  0  0  0  0  0  0  0  0  0  0  0
   60.4446   34.6987   49.0464 H   0  0  0  0  0  0  0  0  0  0  0  0
   58.0252   34.7651   48.0594 H   0  0  0  0  0  0  0  0  0  0  0  0
   56.0600   32.1057   43.3888 H   0  0  0  0  0  0  0  0  0  0  0  0
   56.9660   27.4830   44.1220 H   0  0  0  0  0  0  0  0  0  0  0  0
   58.1520   27.4010   45.4450 H   0  0  0  0  0  0  0  0  0  0  0  0
   58.8500   30.9750   48.4860 H   0  0  0  0  0  0  0  0  0  0  0  0
   59.5168   28.8389   50.0257 H   0  0  0  0  0  0  0  0  0  0  0  0
   60.8116   28.7504   48.7798 H   0  0  0  0  0  0  0  0  0  0  0  0
   59.0711   31.5800   50.5907 H   0  0  0  0  0  0  0  0  0  0  0  0
   60.3280   33.4418   51.6734 H   0  0  0  0  0  0  0  0  0  0  0  0
   62.8213   33.4359   51.6765 H   0  0  0  0  0  0  0  0  0  0  0  0
   64.8647   32.0733   51.4692 H   0  0  0  0  0  0  0  0  0  0  0  0
   64.8555   30.5361   50.5332 H   0  0  0  0  0  0  0  0  0  0  0  0
   64.9570   31.6040   48.5920 H   0  0  0  0  0  0  0  0  0  0  0  0
   64.2000   32.9960   49.1360 H   0  0  0  0  0  0  0  0  0  0  0  0
   62.8142   29.6773   49.5244 H   0  0  0  0  0  0  0  0  0  0  0  0
   58.6862   32.0368   46.8179 H   0  0  0  0  0  0  0  0  0  0  0  0
  1  2  1  0
  2  3  2  0
  2  4  2  0
  2  5  1  0
  5  6  2  0
  6  7  1  0
  7  8  2  0
  8  9  1  0
  9 10  1  0
 10 11  2  0
 11 12  1  0
 12 13  1  0
 12 14  2  0
 14 15  1  0
 14 16  1  0
 16 17  1  0
 17 18  2  0
 17 19  1  0
 19 20  1  0
 20 21  1  0
 21 22  2  0
 22 23  1  0
 23 24  2  0
 24 25  1  0
 25 26  1  0
 26 27  1  0
 25 28  2  0
 16 29  2  0
  8 30  1  0
 30  5  1  0
 29 10  1  0
 28 21  1  0
  1 31  1  0
  6 32  1  0
  7 33  1  0
 11 34  1  0
 15 35  1  0
 15 36  1  0
 19 37  1  0
 20 38  1  0
 20 39  1  0
 22 40  1  0
 23 41  1  0
 24 42  1  0
 26 43  1  0
 26 44  1  0
 27 45  1  0
 27 46  1  0
 28 47  1  0
 29 48  1  0
M  CHG  1   1  -1
M  END
>  <UniqueID>  (48) 
39

>  <SMILES>  (48) 
[NH-]S(=O)(=O)c1ccc(Sc2cc(F)c(N)c(C(=O)NCc3cccc(CN)c3)c2)s1

>  <Energy>  (48) 
72.54273824071134

>  <Genealogy>  (48) 
[NH-]S(=O)(=O)c1ccc(Sc2cc(F)c(N)c(C(=O)NCc3cccc(CN)c3)c2)s1 (protonated)
[NH-]S(=O)(=O)c1ccc(Sc2cc(F)c(N)c(C(=O)NCc3cccc(CN)c3)c2)s1 (3D coordinates assigned)
[NH-]S(=O)(=O)c1ccc(Sc2cc(F)c(N)c(C(=O)NCc3cccc(CN)c3)c2)s1 (optimized conformer: 72.54273824071134 kcal/mol)

>  <smiles>  (48) 
NCc1cccc(CNC(=O)c2cc(Sc3ccc(S(N)(=O)=O)s3)cc(F)c2N)c1

>  <score_type>  (48) 
oracle

>  <origin>  (48) 
adg

>  <m_score__min__energy>  (48) 
-12.35

>  <m_primary>  (48) 
energy

$$$$
48:0
     RDKit          3D

 42 43  0  0  0  0  0  0  0  0999 V2000
   55.4090   28.9740   44.8750 N   0  0  0  0  0  0  0  0  0  0  0  0
   56.8380   29.8000   44.3650 S   0  0  0  0  0  0  0  0  0  0  0  0
   57.0690   30.9890   45.2550 O   0  0  0  0  0  0  0  0  0  0  0  0
   56.6580   30.2640   42.9470 O   0  0  0  0  0  0  0  0  0  0  0  0
   58.2310   28.6830   44.4700 C   0  0  0  0  0  0  0  0  0  0  0  0
   58.7860   28.5950   45.8910 C   0  0  0  0  0  0  0  0  0  0  0  0
   59.5900   29.7730   46.1930 N   0  0  0  0  0  0  0  0  0  0  0  0
   59.5100   30.5450   47.3980 C   0  0  0  0  0  0  0  0  0  0  0  0
   58.4490   31.1800   47.6370 O   0  0  0  0  0  0  0  0  0  0  0  0
   60.6390   30.6130   48.3930 C   0  0  0  0  0  0  0  0  0  0  0  0
   61.6570   31.6410   47.9640 C   0  0  0  0  0  0  0  0  0  0  0  0
   62.7980   31.2330   47.2530 C   0  0  0  0  0  0  0  0  0  0  0  0
   63.7740   32.1620   46.8880 C   0  0  0  0  0  0  0  0  0  0  0  0
   63.6250   33.5040   47.2350 C   0  0  0  0  0  0  0  0  0  0  0  0
   62.5010   33.9230   47.9500 C   0  0  0  0  0  0  0  0  0  0  0  0
   61.5090   32.9970   48.3280 C   0  0  0  0  0  0  0  0  0  0  0  0
   60.3700   33.3810   49.0560 O   0  0  0  0  0  0  0  0  0  0  0  0
   59.5110   34.4760   48.7370 C   0  0  0  0  0  0  0  0  0  0  0  0
   58.9970   34.3500   47.3280 C   0  0  0  0  0  0  0  0  0  0  0  0
   57.7250   33.8090   47.0750 C   0  0  0  0  0  0  0  0  0  0  0  0
   57.2570   33.6930   45.7620 C   0  0  0  0  0  0  0  0  0  0  0  0
   58.0530   34.1210   44.6950 C   0  0  0  0  0  0  0  0  0  0  0  0
   59.3150   34.6690   44.9400 C   0  0  0  0  0  0  0  0  0  0  0  0
   59.7860   34.7860   46.2510 C   0  0  0  0  0  0  0  0  0  0  0  0
   54.7690   29.6930   45.2820 H   0  0  0  0  0  0  0  0  0  0  0  0
   57.9078   27.6808   44.1519 H   0  0  0  0  0  0  0  0  0  0  0  0
   59.0272   29.0693   43.8167 H   0  0  0  0  0  0  0  0  0  0  0  0
   57.9506   28.5331   46.6039 H   0  0  0  0  0  0  0  0  0  0  0  0
   59.4185   27.6988   45.9737 H   0  0  0  0  0  0  0  0  0  0  0  0
   60.2372   30.8902   49.3787 H   0  0  0  0  0  0  0  0  0  0  0  0
   61.1269   29.6286   48.4470 H   0  0  0  0  0  0  0  0  0  0  0  0
   62.9232   30.1743   46.9821 H   0  0  0  0  0  0  0  0  0  0  0  0
   64.6613   31.8349   46.3262 H   0  0  0  0  0  0  0  0  0  0  0  0
   64.3946   34.2345   46.9449 H   0  0  0  0  0  0  0  0  0  0  0  0
   62.3895   34.9835   48.2199 H   0  0  0  0  0  0  0  0  0  0  0  0
   58.6597   34.4830   49.4336 H   0  0  0  0  0  0  0  0  0  0  0  0
   60.0811   35.4126   48.8252 H   0  0  0  0  0  0  0  0  0  0  0  0
   57.0949   33.4755   47.9127 H   0  0  0  0  0  0  0  0  0  0  0  0
   56.2623   33.2649   45.5687 H   0  0  0  0  0  0  0  0  0  0  0  0
   57.6857   34.0263   43.6625 H   0  0  0  0  0  0  0  0  0  0  0  0
   59.9387   35.0088   44.1000 H   0  0  0  0  0  0  0  0  0  0  0  0
   60.7784   35.2212   46.4398 H   0  0  0  0  0  0  0  0  0  0  0  0
  1  2  1  0
  2  3  2  0
  2  4  2  0
  2  5  1  0
  5  6  1  0
  6  7  1  0
  7  8  1  0
  8  9  2  0
  8 10  1  0
 10 11  1  0
 11 12  2  0
 12 13  1  0
 13 14  2  0
 14 15  1  0
 15 16  2  0
 16 17  1  0
 17 18  1  0
 18 19  1  0
 19 20  2  0
 20 21  1  0
 21 22  2  0
 22 23  1  0
 23 24  2  0
 16 11  1  0
 24 19  1  0
  1 25  1  0
  5 26  1  0
  5 27  1  0
  6 28  1  0
  6 29  1  0
 10 30  1  0
 10 31  1  0
 12 32  1  0
 13 33  1  0
 14 34  1  0
 15 35  1  0
 18 36  1  0
 18 37  1  0
 20 38  1  0
 21 39  1  0
 22 40  1  0
 23 41  1  0
 24 42  1  0
M  CHG  2   1  -1   7  -1
M  END
>  <UniqueID>  (49) 
40

>  <SMILES>  (49) 
[NH-]S(=O)(=O)CC[N-]C(=O)Cc1ccccc1OCc1ccccc1

>  <Energy>  (49) 
31.173351692393393

>  <Genealogy>  (49) 
[NH-]S(=O)(=O)CC[N-]C(=O)Cc1ccccc1OCc1ccccc1 (protonated)
[NH-]S(=O)(=O)CC[N-]C(=O)Cc1ccccc1OCc1ccccc1 (3D coordinates assigned)
[NH-]S(=O)(=O)CC[N-]C(=O)Cc1ccccc1OCc1ccccc1 (optimized conformer: 31.173351692393393 kcal/mol)

>  <smiles>  (49) 
NS(=O)(=O)CCNC(=O)Cc1ccccc1OCc1ccccc1

>  <score_type>  (49) 
oracle

>  <origin>  (49) 
adg

>  <m_score__min__energy>  (49) 
-12.85

>  <m_primary>  (49) 
energy

$$$$
49:0
     RDKit          3D

 45 48  0  0  0  0  0  0  0  0999 V2000
   57.8695   31.7440   50.6481 H   0  0  0  0  0  0  0  0  0  0  0  0
   58.5910   32.0390   49.8720 C   0  0  0  0  0  0  0  0  0  0  0  0
   59.9100   32.0920   50.1610 N   0  0  0  0  0  0  0  0  0  0  0  0
   60.8350   32.4680   49.2440 C   0  0  0  0  0  0  0  0  0  0  0  0
   62.1760   32.5290   49.6390 C   0  0  0  0  0  0  0  0  0  0  0  0
   62.4605   32.2251   50.6572 H   0  0  0  0  0  0  0  0  0  0  0  0
   63.1520   32.9720   48.7510 C   0  0  0  0  0  0  0  0  0  0  0  0
   64.8260   33.0730   49.2660 Cl  0  0  0  0  0  0  0  0  0  0  0  0
   62.7900   33.3600   47.4640 C   0  0  0  0  0  0  0  0  0  0  0  0
   63.5589   33.7280   46.7688 H   0  0  0  0  0  0  0  0  0  0  0  0
   61.4590   33.2860   47.0480 C   0  0  0  0  0  0  0  0  0  0  0  0
   61.1950   33.5965   46.0263 H   0  0  0  0  0  0  0  0  0  0  0  0
   60.4430   32.8190   47.9160 C   0  0  0  0  0  0  0  0  0  0  0  0
   59.0470   32.7180   47.5830 C   0  0  0  0  0  0  0  0  0  0  0  0
   58.5050   32.8910   46.4020 N   0  0  0  0  0  0  0  0  0  0  0  0
   58.8920   32.5580   45.0310 C   0  0  0  0  0  0  0  0  0  0  0  0
   59.8697   32.0543   45.0504 H   0  0  0  0  0  0  0  0  0  0  0  0
   58.9377   33.4935   44.4541 H   0  0  0  0  0  0  0  0  0  0  0  0
   57.8880   31.6480   44.3650 C   0  0  0  0  0  0  0  0  0  0  0  0
   57.6410   31.7460   42.9850 C   0  0  0  0  0  0  0  0  0  0  0  0
   58.1142   32.5487   42.4005 H   0  0  0  0  0  0  0  0  0  0  0  0
   56.7990   30.8310   42.3520 C   0  0  0  0  0  0  0  0  0  0  0  0
   56.6012   30.9225   41.2738 H   0  0  0  0  0  0  0  0  0  0  0  0
   56.2070   29.8000   43.0830 C   0  0  0  0  0  0  0  0  0  0  0  0
   55.5615   29.0688   42.5744 H   0  0  0  0  0  0  0  0  0  0  0  0
   56.4320   29.6920   44.4660 C   0  0  0  0  0  0  0  0  0  0  0  0
   55.8820   28.6160   45.2410 N   0  0  0  0  0  0  0  0  0  0  0  0
   56.6200   27.6010   45.9370 C   0  0  0  0  0  0  0  0  0  0  0  0
   57.8190   27.8210   46.2450 O   0  0  0  0  0  0  0  0  0  0  0  0
   56.0310   26.3430   46.2890 N   0  0  0  0  0  0  0  0  0  0  0  0
   55.9670   25.1910   45.4370 C   0  0  0  0  0  0  0  0  0  0  0  0
   54.8550   24.3310   45.4510 C   0  0  0  0  0  0  0  0  0  0  0  0
   53.9957   24.5539   46.1005 H   0  0  0  0  0  0  0  0  0  0  0  0
   54.8410   23.1930   44.6400 C   0  0  0  0  0  0  0  0  0  0  0  0
   53.9750   22.5151   44.6621 H   0  0  0  0  0  0  0  0  0  0  0  0
   55.9230   22.9130   43.8010 C   0  0  0  0  0  0  0  0  0  0  0  0
   55.8980   21.7890   42.9850 O   0  0  0  0  0  0  0  0  0  0  0  0
   57.0340   23.7620   43.7900 C   0  0  0  0  0  0  0  0  0  0  0  0
   57.8872   23.5424   43.1313 H   0  0  0  0  0  0  0  0  0  0  0  0
   57.0610   24.8900   44.6160 C   0  0  0  0  0  0  0  0  0  0  0  0
   57.9455   25.5439   44.6210 H   0  0  0  0  0  0  0  0  0  0  0  0
   57.2910   30.6040   45.0940 C   0  0  0  0  0  0  0  0  0  0  0  0
   57.5006   30.5021   46.1690 H   0  0  0  0  0  0  0  0  0  0  0  0
   58.1460   32.3570   48.5950 C   0  0  0  0  0  0  0  0  0  0  0  0
   57.0689   32.3251   48.3740 H   0  0  0  0  0  0  0  0  0  0  0  0
  1  2  1  0
  2  3  1  0
  3  4  1  0
  4  5  2  0
  5  6  1  0
  5  7  1  0
  7  8  1  0
  7  9  2  0
  9 10  1  0
  9 11  1  0
 11 12  1  0
 11 13  2  0
 13 14  1  0
 14 15  2  0
 15 16  1  0
 16 17  1  0
 16 18  1  0
 16 19  1  0
 19 20  2  0
 20 21  1  0
 20 22  1  0
 22 23  1  0
 22 24  2  0
 24 25  1  0
 24 26  1  0
 26 27  1  0
 27 28  1  0
 28 29  2  0
 28 30  1  0
 30 31  1  0
 31 32  2  0
 32 33  1  0
 32 34  1  0
 34 35  1  0
 34 36  2  0
 36 37  1  0
 36 38  1  0
 38 39  1  0
 38 40  2  0
 40 41  1  0
 26 42  2  0
 42 43  1  0
 14 44  1  0
 44 45  1  0
 44  2  2  0
 13  4  1  0
 42 19  1  0
 40 31  1  0
M  CHG  4   3  -1  27  -1  30  -1  37  -1
M  END
>  <UniqueID>  (50) 
41

>  <SMILES>  (50) 
O=C([N-]c1ccc([O-])cc1)[N-]c1cccc(C/N=c2/cc[n-]c3cc(Cl)ccc23)c1

>  <Energy>  (50) 
75.04540982176975

>  <Genealogy>  (50) 
O=C([N-]c1ccc([O-])cc1)[N-]c1cccc(CN=c2cc[n-]c3cc(Cl)ccc23)c1 (protonated)
O=C([N-]c1ccc([O-])cc1)[N-]c1cccc(C/N=c2/cc[n-]c3cc(Cl)ccc23)c1 (cis-trans isomerization)
O=C([N-]c1ccc([O-])cc1)[N-]c1cccc(C/N=c2/cc[n-]c3cc(Cl)ccc23)c1 (3D coordinates assigned)
O=C([N-]c1ccc([O-])cc1)[N-]c1cccc(C/N=c2/cc[n-]c3cc(Cl)ccc23)c1 (optimized conformer: 75.04540982176975 kcal/mol)

>  <smiles>  (50) 
O=C(Nc1ccc(O)cc1)Nc1cccc(CN=c2cc[nH]c3cc(Cl)ccc23)c1

>  <score_type>  (50) 
oracle

>  <origin>  (50) 
adg

>  <m_score__min__energy>  (50) 
-16.170000000000002

>  <m_primary>  (50) 
energy

$$$$
50:0
     RDKit          3D

 36 37  0  0  0  0  0  0  0  0999 V2000
   54.7871   30.5895   43.2719 H   0  0  0  0  0  0  0  0  0  0  0  0
   55.5370   30.0590   43.8770 C   0  0  0  0  0  0  0  0  0  0  0  0
   55.1730   29.3520   44.8530 O   0  0  0  0  0  0  0  0  0  0  0  0
   56.9620   30.1750   43.5470 C   0  0  0  0  0  0  0  0  0  0  0  0
   57.5599   29.2630   43.4027 H   0  0  0  0  0  0  0  0  0  0  0  0
   57.5450   31.3700   43.4190 C   0  0  0  0  0  0  0  0  0  0  0  0
   57.7148   31.7657   42.4068 H   0  0  0  0  0  0  0  0  0  0  0  0
   57.9730   32.1860   44.5780 C   0  0  0  0  0  0  0  0  0  0  0  0
   57.4000   33.4570   44.7370 C   0  0  0  0  0  0  0  0  0  0  0  0
   56.6580   33.8141   44.0077 H   0  0  0  0  0  0  0  0  0  0  0  0
   57.7610   34.2730   45.8100 C   0  0  0  0  0  0  0  0  0  0  0  0
   57.3095   35.2704   45.9162 H   0  0  0  0  0  0  0  0  0  0  0  0
   58.6990   33.8250   46.7550 C   0  0  0  0  0  0  0  0  0  0  0  0
   59.1010   34.6110   47.8450 O   0  0  0  0  0  0  0  0  0  0  0  0
   59.9920   34.1770   48.8660 C   0  0  0  0  0  0  0  0  0  0  0  0
   59.5526   34.3910   49.8514 H   0  0  0  0  0  0  0  0  0  0  0  0
   60.1628   33.0948   48.7679 H   0  0  0  0  0  0  0  0  0  0  0  0
   60.9494   34.7097   48.7679 H   0  0  0  0  0  0  0  0  0  0  0  0
   59.2530   32.5490   46.6170 C   0  0  0  0  0  0  0  0  0  0  0  0
   59.9869   32.1948   47.3558 H   0  0  0  0  0  0  0  0  0  0  0  0
   58.8860   31.7090   45.5460 C   0  0  0  0  0  0  0  0  0  0  0  0
   59.3840   30.3990   45.4320 O   0  0  0  0  0  0  0  0  0  0  0  0
   59.2960   29.3820   46.4310 C   0  0  0  0  0  0  0  0  0  0  0  0
   60.3103   29.1064   46.7554 H   0  0  0  0  0  0  0  0  0  0  0  0
   58.7149   29.7712   47.2800 H   0  0  0  0  0  0  0  0  0  0  0  0
   58.6020   28.1610   45.8910 C   0  0  0  0  0  0  0  0  0  0  0  0
   57.7920   27.3720   46.7260 C   0  0  0  0  0  0  0  0  0  0  0  0
   57.6578   27.6500   47.7818 H   0  0  0  0  0  0  0  0  0  0  0  0
   57.1560   26.2340   46.2180 C   0  0  0  0  0  0  0  0  0  0  0  0
   56.5172   25.6234   46.8731 H   0  0  0  0  0  0  0  0  0  0  0  0
   57.3310   25.8720   44.8800 C   0  0  0  0  0  0  0  0  0  0  0  0
   56.8290   24.9778   44.4820 H   0  0  0  0  0  0  0  0  0  0  0  0
   58.1440   26.6460   44.0470 C   0  0  0  0  0  0  0  0  0  0  0  0
   58.2827   26.3591   42.9942 H   0  0  0  0  0  0  0  0  0  0  0  0
   58.7810   27.7840   44.5500 C   0  0  0  0  0  0  0  0  0  0  0  0
   59.4251   28.3867   43.8929 H   0  0  0  0  0  0  0  0  0  0  0  0
  1  2  1  0
  2  3  2  0
  2  4  1  0
  4  5  1  0
  4  6  2  0
  6  7  1  0
  6  8  1  0
  8  9  2  0
  9 10  1  0
  9 11  1  0
 11 12  1  0
 11 13  2  0
 13 14  1  0
 14 15  1  0
 15 16  1  0
 15 17  1  0
 15 18  1  0
 13 19  1  0
 19 20  1  0
 19 21  2  0
 21 22  1  0
 22 23  1  0
 23 24  1  0
 23 25  1  0
 23 26  1  0
 26 27  2  0
 27 28  1  0
 27 29  1  0
 29 30  1  0
 29 31  2  0
 31 32  1  0
 31 33  1  0
 33 34  1  0
 33 35  2  0
 35 36  1  0
 21  8  1  0
 35 26  1  0
M  END
>  <UniqueID>  (51) 
42

>  <SMILES>  (51) 
COc1ccc(/C=C/C=O)c(OCc2ccccc2)c1

>  <Energy>  (51) 
37.836047756493684

>  <Genealogy>  (51) 
COc1ccc(/C=C/C=O)c(OCc2ccccc2)c1 (cis-trans isomerization)
COc1ccc(/C=C/C=O)c(OCc2ccccc2)c1 (3D coordinates assigned)
COc1ccc(/C=C/C=O)c(OCc2ccccc2)c1 (optimized conformer: 37.836047756493684 kcal/mol)

>  <smiles>  (51) 
COc1ccc(C=CC=O)c(OCc2ccccc2)c1

>  <score_type>  (51) 
oracle

>  <origin>  (51) 
adg

>  <m_score__min__energy>  (51) 
-7.0300000000000002

>  <m_primary>  (51) 
energy

$$$$
51:0
     RDKit          3D

 59 62  0  0  0  0  0  0  0  0999 V2000
   60.3900   28.9630   44.9090 C   0  0  0  0  0  0  0  0  0  0  0  0
   60.4310   27.6710   45.5210 O   0  0  0  0  0  0  0  0  0  0  0  0
   59.2980   26.8980   45.8280 C   0  0  0  0  0  0  0  0  0  0  0  0
   58.2900   26.6470   44.8730 C   0  0  0  0  0  0  0  0  0  0  0  0
   57.1680   25.8830   45.2120 C   0  0  0  0  0  0  0  0  0  0  0  0
   57.0370   25.3660   46.5010 C   0  0  0  0  0  0  0  0  0  0  0  0
   58.0290   25.6020   47.4550 C   0  0  0  0  0  0  0  0  0  0  0  0
   59.1680   26.3580   47.1270 C   0  0  0  0  0  0  0  0  0  0  0  0
   60.2160   26.6250   48.1740 C   0  0  0  0  0  0  0  0  0  0  0  0
   60.4530   28.0600   48.2920 N   0  0  0  0  0  0  0  0  0  0  0  0
   60.8110   28.6820   49.5320 C   0  0  0  0  0  0  0  0  0  0  0  0
   61.0610   27.9750   50.5460 O   0  0  0  0  0  0  0  0  0  0  0  0
   60.8550   30.1820   49.6490 C   0  0  1  0  0  0  0  0  0  0  0  0
   62.2560   30.6190   50.1020 C   0  0  0  0  0  0  0  0  0  0  0  0
   62.7460   31.7930   49.2920 C   0  0  0  0  0  0  0  0  0  0  0  0
   62.5810   33.1030   49.7750 C   0  0  0  0  0  0  0  0  0  0  0  0
   63.0050   34.1950   49.0100 C   0  0  0  0  0  0  0  0  0  0  0  0
   63.5930   33.9870   47.7580 C   0  0  0  0  0  0  0  0  0  0  0  0
   63.7540   32.6880   47.2680 C   0  0  0  0  0  0  0  0  0  0  0  0
   63.3270   31.5940   48.0290 C   0  0  0  0  0  0  0  0  0  0  0  0
   60.5490   30.7830   48.3470 N   0  0  0  0  0  0  0  0  0  0  0  0
   58.8330   30.7810   48.0450 S   0  0  0  0  0  0  0  0  0  0  0  0
   58.1440   31.4630   49.1930 O   0  0  0  0  0  0  0  0  0  0  0  0
   58.3370   29.3660   47.9240 O   0  0  0  0  0  0  0  0  0  0  0  0
   58.4680   31.6510   46.5450 C   0  0  0  0  0  0  0  0  0  0  0  0
   57.7570   30.9810   45.5380 C   0  0  0  0  0  0  0  0  0  0  0  0
   57.4430   31.6170   44.3370 C   0  0  0  0  0  0  0  0  0  0  0  0
   57.8360   32.9350   44.1140 C   0  0  0  0  0  0  0  0  0  0  0  0
   58.5440   33.6340   45.1030 C   0  0  0  0  0  0  0  0  0  0  0  0
   58.9370   34.9630   44.8710 C   0  0  0  0  0  0  0  0  0  0  0  0
   59.6430   35.6680   45.8480 C   0  0  0  0  0  0  0  0  0  0  0  0
   59.9670   35.0560   47.0590 C   0  0  0  0  0  0  0  0  0  0  0  0
   59.5920   33.7330   47.2990 C   0  0  0  0  0  0  0  0  0  0  0  0
   58.8710   32.9980   46.3310 C   0  0  0  0  0  0  0  0  0  0  0  0
   60.3654   29.7378   45.6894 H   0  0  0  0  0  0  0  0  0  0  0  0
   61.2842   29.1009   44.2834 H   0  0  0  0  0  0  0  0  0  0  0  0
   59.4888   29.0440   44.2834 H   0  0  0  0  0  0  0  0  0  0  0  0
   58.3869   27.0545   43.8559 H   0  0  0  0  0  0  0  0  0  0  0  0
   56.3879   25.6897   44.4609 H   0  0  0  0  0  0  0  0  0  0  0  0
   56.1505   24.7713   46.7664 H   0  0  0  0  0  0  0  0  0  0  0  0
   57.9185   25.1935   48.4703 H   0  0  0  0  0  0  0  0  0  0  0  0
   59.8714   26.2324   49.1420 H   0  0  0  0  0  0  0  0  0  0  0  0
   61.1526   26.1284   47.8806 H   0  0  0  0  0  0  0  0  0  0  0  0
   60.3290   28.6540   47.4390 H   0  0  0  0  0  0  0  0  0  0  0  0
   60.1118   30.5151   50.3884 H   0  0  0  0  0  0  0  0  0  0  0  0
   62.2175   30.9056   51.1633 H   0  0  0  0  0  0  0  0  0  0  0  0
   62.9496   29.7781   49.9540 H   0  0  0  0  0  0  0  0  0  0  0  0
   62.1168   33.2700   50.7581 H   0  0  0  0  0  0  0  0  0  0  0  0
   62.8759   35.2179   49.3934 H   0  0  0  0  0  0  0  0  0  0  0  0
   63.9288   34.8462   47.1588 H   0  0  0  0  0  0  0  0  0  0  0  0
   64.2167   32.5255   46.2834 H   0  0  0  0  0  0  0  0  0  0  0  0
   63.4470   30.5736   47.6362 H   0  0  0  0  0  0  0  0  0  0  0  0
   57.4427   29.9391   45.6980 H   0  0  0  0  0  0  0  0  0  0  0  0
   56.8819   31.0750   43.5615 H   0  0  0  0  0  0  0  0  0  0  0  0
   57.5909   33.4279   43.1616 H   0  0  0  0  0  0  0  0  0  0  0  0
   58.6877   35.4497   43.9165 H   0  0  0  0  0  0  0  0  0  0  0  0
   59.9447   36.7094   45.6621 H   0  0  0  0  0  0  0  0  0  0  0  0
   60.5195   35.6175   47.8268 H   0  0  0  0  0  0  0  0  0  0  0  0
   59.8610   33.2567   48.2533 H   0  0  0  0  0  0  0  0  0  0  0  0
  1  2  1  0
  2  3  1  0
  3  4  2  0
  4  5  1  0
  5  6  2  0
  6  7  1  0
  7  8  2  0
  8  9  1  0
  9 10  1  0
 10 11  1  0
 11 12  2  0
 11 13  1  0
 13 14  1  0
 14 15  1  0
 15 16  2  0
 16 17  1  0
 17 18  2  0
 18 19  1  0
 19 20  2  0
 13 21  1  0
 21 22  1  0
 22 23  2  0
 22 24  2  0
 22 25  1  0
 25 26  2  0
 26 27  1  0
 27 28  2  0
 28 29  1  0
 29 30  2  0
 30 31  1  0
 31 32  2  0
 32 33  1  0
 33 34  2  0
  8  3  1  0
 20 15  1  0
 34 25  1  0
 34 29  1  0
  1 35  1  0
  1 36  1  0
  1 37  1  0
  4 38  1  0
  5 39  1  0
  6 40  1  0
  7 41  1  0
  9 42  1  0
  9 43  1  0
 10 44  1  0
 13 45  1  1
 14 46  1  0
 14 47  1  0
 16 48  1  0
 17 49  1  0
 18 50  1  0
 19 51  1  0
 20 52  1  0
 26 53  1  0
 27 54  1  0
 28 55  1  0
 30 56  1  0
 31 57  1  0
 32 58  1  0
 33 59  1  0
M  CHG  1  21  -1
M  END
>  <UniqueID>  (52) 
43

>  <SMILES>  (52) 
COc1ccccc1CNC(=O)[C@@H](Cc1ccccc1)[N-]S(=O)(=O)c1cccc2ccccc12

>  <Energy>  (52) 
63.23627009744516

>  <Genealogy>  (52) 
COc1ccccc1CNC(=O)C(Cc1ccccc1)[N-]S(=O)(=O)c1cccc2ccccc12 (protonated)
COc1ccccc1CNC(=O)[C@@H](Cc1ccccc1)[N-]S(=O)(=O)c1cccc2ccccc12 (chirality)
COc1ccccc1CNC(=O)[C@@H](Cc1ccccc1)[N-]S(=O)(=O)c1cccc2ccccc12 (3D coordinates assigned)
COc1ccccc1CNC(=O)[C@@H](Cc1ccccc1)[N-]S(=O)(=O)c1cccc2ccccc12 (optimized conformer: 63.23627009744516 kcal/mol)

>  <smiles>  (52) 
COc1ccccc1CNC(=O)C(Cc1ccccc1)NS(=O)(=O)c1cccc2ccccc12

>  <score_type>  (52) 
oracle

>  <origin>  (52) 
adg

>  <m_score__min__energy>  (52) 
-10.76

>  <m_primary>  (52) 
energy

$$$$
52:0
     RDKit          3D

 41 42  0  0  0  0  0  0  0  0999 V2000
   60.5110   27.0310   47.4730 C   0  0  0  0  0  0  0  0  0  0  0  0
   59.5980   27.8230   46.5850 C   0  0  0  0  0  0  0  0  0  0  0  0
   60.1130   28.8510   45.7800 C   0  0  0  0  0  0  0  0  0  0  0  0
   59.2690   29.5640   44.9240 C   0  0  0  0  0  0  0  0  0  0  0  0
   57.9040   29.2540   44.8560 C   0  0  0  0  0  0  0  0  0  0  0  0
   56.8480   30.1440   43.7620 S   0  0  0  0  0  0  0  0  0  0  0  0
   55.6120   30.5830   44.4960 O   0  0  0  0  0  0  0  0  0  0  0  0
   56.4360   29.2540   42.6230 O   0  0  0  0  0  0  0  0  0  0  0  0
   57.7060   31.5670   43.1130 C   0  0  0  0  0  0  0  0  0  0  0  0
   57.7710   32.6460   44.1480 C   0  0  0  0  0  0  0  0  0  0  0  0
   58.5270   33.6390   43.9620 O   0  0  0  0  0  0  0  0  0  0  0  0
   57.0250   32.5230   45.3640 N   0  0  0  0  0  0  0  0  0  0  0  0
   57.2060   33.4710   46.4640 C   0  0  0  0  0  0  0  0  0  0  0  0
   58.5590   33.2870   47.1590 C   0  0  0  0  0  0  0  0  0  0  0  0
   59.8480   34.4340   46.5430 S   0  0  0  0  0  0  0  0  0  0  0  0
   61.2340   33.3580   46.9060 C   0  0  0  0  0  0  0  0  0  0  0  0
   61.0100   32.0260   47.2680 C   0  0  0  0  0  0  0  0  0  0  0  0
   62.1010   31.2000   47.5450 C   0  0  0  0  0  0  0  0  0  0  0  0
   63.3960   31.7150   47.4700 C   0  0  0  0  0  0  0  0  0  0  0  0
   63.5800   33.0570   47.1210 C   0  0  0  0  0  0  0  0  0  0  0  0
   62.5030   33.8430   46.8500 N   0  0  0  0  0  0  0  0  0  0  0  0
   57.3940   28.2100   45.6390 C   0  0  0  0  0  0  0  0  0  0  0  0
   58.2360   27.4950   46.4970 C   0  0  0  0  0  0  0  0  0  0  0  0
   60.2704   27.2397   48.5259 H   0  0  0  0  0  0  0  0  0  0  0  0
   60.3776   25.9577   47.2722 H   0  0  0  0  0  0  0  0  0  0  0  0
   61.5547   27.3146   47.2722 H   0  0  0  0  0  0  0  0  0  0  0  0
   61.1844   29.0963   45.8230 H   0  0  0  0  0  0  0  0  0  0  0  0
   59.6782   30.3726   44.3005 H   0  0  0  0  0  0  0  0  0  0  0  0
   58.7274   31.2762   42.8263 H   0  0  0  0  0  0  0  0  0  0  0  0
   57.1629   31.9443   42.2339 H   0  0  0  0  0  0  0  0  0  0  0  0
   56.3550   31.7260   45.4620 H   0  0  0  0  0  0  0  0  0  0  0  0
   57.1473   34.4944   46.0650 H   0  0  0  0  0  0  0  0  0  0  0  0
   56.4140   33.2888   47.2053 H   0  0  0  0  0  0  0  0  0  0  0  0
   58.4245   33.4586   48.2372 H   0  0  0  0  0  0  0  0  0  0  0  0
   58.9012   32.2641   46.9432 H   0  0  0  0  0  0  0  0  0  0  0  0
   59.9847   31.6330   47.3339 H   0  0  0  0  0  0  0  0  0  0  0  0
   61.9405   30.1474   47.8213 H   0  0  0  0  0  0  0  0  0  0  0  0
   64.2629   31.0723   47.6831 H   0  0  0  0  0  0  0  0  0  0  0  0
   64.5952   33.4768   47.0657 H   0  0  0  0  0  0  0  0  0  0  0  0
   56.3265   27.9515   45.5787 H   0  0  0  0  0  0  0  0  0  0  0  0
   57.8296   26.6731   47.1047 H   0  0  0  0  0  0  0  0  0  0  0  0
  1  2  1  0
  2  3  2  0
  3  4  1  0
  4  5  2  0
  5  6  1  0
  6  7  2  0
  6  8  2  0
  6  9  1  0
  9 10  1  0
 10 11  2  0
 10 12  1  0
 12 13  1  0
 13 14  1  0
 14 15  1  0
 15 16  1  0
 16 17  2  0
 17 18  1  0
 18 19  2  0
 19 20  1  0
 20 21  2  0
  5 22  1  0
 22 23  2  0
 23  2  1  0
 21 16  1  0
  1 24  1  0
  1 25  1  0
  1 26  1  0
  3 27  1  0
  4 28  1  0
  9 29  1  0
  9 30  1  0
 12 31  1  0
 13 32  1  0
 13 33  1  0
 14 34  1  0
 14 35  1  0
 17 36  1  0
 18 37  1  0
 19 38  1  0
 20 39  1  0
 22 40  1  0
 23 41  1  0
M  END
>  <UniqueID>  (53) 
44

>  <SMILES>  (53) 
Cc1ccc(S(=O)(=O)CC(=O)NCCSc2ccccn2)cc1

>  <Energy>  (53) 
27.59063985118106

>  <Genealogy>  (53) 
Cc1ccc(S(=O)(=O)CC(=O)NCCSc2ccccn2)cc1 (3D coordinates assigned)
Cc1ccc(S(=O)(=O)CC(=O)NCCSc2ccccn2)cc1 (optimized conformer: 27.59063985118106 kcal/mol)

>  <smiles>  (53) 
Cc1ccc(S(=O)(=O)CC(=O)NCCSc2ccccn2)cc1

>  <score_type>  (53) 
oracle

>  <origin>  (53) 
adg

>  <m_score__min__energy>  (53) 
-7.9000000000000004

>  <m_primary>  (53) 
energy

$$$$
53:0
     RDKit          3D

 39 41  0  0  0  0  0  0  0  0999 V2000
   60.4484   29.3227   44.9260 H   0  0  0  0  0  0  0  0  0  0  0  0
   59.6170   29.4880   45.6270 C   0  0  0  0  0  0  0  0  0  0  0  0
   59.9370   30.1350   46.9150 C   0  0  0  0  0  0  0  0  0  0  0  0
   61.0170   30.7780   47.0120 O   0  0  0  0  0  0  0  0  0  0  0  0
   58.9940   30.1150   47.9980 N   0  0  0  0  0  0  0  0  0  0  0  0
   58.8990   30.9530   48.9920 C   0  0  0  0  0  0  0  0  0  0  0  0
   58.7960   30.6430   50.3380 C   0  0  0  0  0  0  0  0  0  0  0  0
   58.8540   29.6534   50.8149 H   0  0  0  0  0  0  0  0  0  0  0  0
   58.6030   31.8730   50.9400 C   0  0  0  0  0  0  0  0  0  0  0  0
   58.3380   32.0990   52.3900 C   0  0  0  0  0  0  0  0  0  0  0  0
   59.0401   31.5002   52.9887 H   0  0  0  0  0  0  0  0  0  0  0  0
   58.4720   33.1651   52.6254 H   0  0  0  0  0  0  0  0  0  0  0  0
   57.3064   31.7984   52.6254 H   0  0  0  0  0  0  0  0  0  0  0  0
   58.5670   32.8490   50.0110 N   0  0  0  0  0  0  0  0  0  0  0  0
   58.7640   32.2870   48.8280 N   0  0  0  0  0  0  0  0  0  0  0  0
   58.7620   33.0280   47.5940 C   0  0  0  0  0  0  0  0  0  0  0  0
   59.7870   33.9530   47.3310 C   0  0  0  0  0  0  0  0  0  0  0  0
   60.5834   34.1117   48.0730 H   0  0  0  0  0  0  0  0  0  0  0  0
   59.8010   34.6730   46.1320 C   0  0  0  0  0  0  0  0  0  0  0  0
   60.6019   35.4017   45.9382 H   0  0  0  0  0  0  0  0  0  0  0  0
   58.8000   34.4680   45.1810 C   0  0  0  0  0  0  0  0  0  0  0  0
   58.8103   35.0381   44.2403 H   0  0  0  0  0  0  0  0  0  0  0  0
   57.7860   33.5400   45.4230 C   0  0  0  0  0  0  0  0  0  0  0  0
   57.0013   33.3752   44.6700 H   0  0  0  0  0  0  0  0  0  0  0  0
   57.7660   32.8190   46.6220 C   0  0  0  0  0  0  0  0  0  0  0  0
   56.9676   32.0850   46.8058 H   0  0  0  0  0  0  0  0  0  0  0  0
   58.3950   29.0840   45.2390 C   0  0  0  0  0  0  0  0  0  0  0  0
   57.8447   29.7351   44.5439 H   0  0  0  0  0  0  0  0  0  0  0  0
   57.7310   27.8370   45.6700 C   0  0  0  0  0  0  0  0  0  0  0  0
   58.5120   26.8050   46.2110 C   0  0  0  0  0  0  0  0  0  0  0  0
   59.6019   26.9295   46.2925 H   0  0  0  0  0  0  0  0  0  0  0  0
   57.9140   25.6200   46.6470 C   0  0  0  0  0  0  0  0  0  0  0  0
   58.5350   24.8125   47.0621 H   0  0  0  0  0  0  0  0  0  0  0  0
   56.5280   25.4580   46.5570 C   0  0  0  0  0  0  0  0  0  0  0  0
   55.9430   24.2720   46.9810 O   0  0  0  0  0  0  0  0  0  0  0  0
   55.7350   26.4910   46.0440 C   0  0  0  0  0  0  0  0  0  0  0  0
   54.3570   26.3330   45.9630 O   0  0  0  0  0  0  0  0  0  0  0  0
   56.3290   27.6870   45.6190 C   0  0  0  0  0  0  0  0  0  0  0  0
   55.5250   28.7240   45.1540 O   0  0  0  0  0  0  0  0  0  0  0  0
  1  2  1  0
  2  3  1  0
  3  4  2  0
  3  5  1  0
  5  6  2  0
  6  7  1  0
  7  8  1  0
  7  9  2  0
  9 10  1  0
 10 11  1  0
 10 12  1  0
 10 13  1  0
  9 14  1  0
 14 15  1  0
 15 16  1  0
 16 17  2  0
 17 18  1  0
 17 19  1  0
 19 20  1  0
 19 21  2  0
 21 22  1  0
 21 23  1  0
 23 24  1  0
 23 25  2  0
 25 26  1  0
  2 27  2  3
 27 28  1  0
 27 29  1  0
 29 30  2  0
 30 31  1  0
 30 32  1  0
 32 33  1  0
 32 34  2  0
 34 35  1  0
 34 36  1  0
 36 37  1  0
 36 38  2  0
 38 39  1  0
 15  6  1  0
 25 16  1  0
 38 29  1  0
M  CHG  4  14  -1  35  -1  37  -1  39  -1
M  END
>  <UniqueID>  (54) 
45

>  <SMILES>  (54) 
Cc1c/c(=N\C(=O)C=Cc2ccc([O-])c([O-])c2[O-])n(-c2ccccc2)[n-]1

>  <Energy>  (54) 
84.16971468740545

>  <Genealogy>  (54) 
Cc1cc(=NC(=O)C=Cc2ccc([O-])c([O-])c2[O-])n(-c2ccccc2)[n-]1 (protonated)
Cc1c/c(=N\C(=O)C=Cc2ccc([O-])c([O-])c2[O-])n(-c2ccccc2)[n-]1 (cis-trans isomerization)
Cc1c/c(=N\C(=O)C=Cc2ccc([O-])c([O-])c2[O-])n(-c2ccccc2)[n-]1 (3D coordinates assigned)
Cc1c/c(=N\C(=O)C=Cc2ccc([O-])c([O-])c2[O-])n(-c2ccccc2)[n-]1 (optimized conformer: 84.16971468740545 kcal/mol)

>  <smiles>  (54) 
Cc1cc(=NC(=O)C=Cc2ccc(O)c(O)c2O)n(-c2ccccc2)[nH]1

>  <score_type>  (54) 
oracle

>  <origin>  (54) 
adg

>  <m_score__min__energy>  (54) 
-17.699999999999999

>  <m_primary>  (54) 
energy

$$$$
54:0
     RDKit          3D

 49 51  0  0  0  0  0  0  0  0999 V2000
   62.0860   27.4230   52.0960 C   0  0  0  0  0  0  0  0  0  0  0  0
   61.1630   27.0520   50.9750 C   0  0  0  0  0  0  0  0  0  0  0  0
   60.7550   25.8630   50.9050 O   0  0  0  0  0  0  0  0  0  0  0  0
   60.7380   28.0400   49.9460 C   0  0  0  0  0  0  0  0  0  0  0  0
   60.2400   27.6210   48.6990 C   0  0  0  0  0  0  0  0  0  0  0  0
   59.8480   28.5600   47.7460 C   0  0  0  0  0  0  0  0  0  0  0  0
   59.9440   29.9270   48.0190 C   0  0  0  0  0  0  0  0  0  0  0  0
   60.4390   30.3710   49.2590 C   0  0  0  0  0  0  0  0  0  0  0  0
   60.6060   31.7720   49.5560 N   0  0  0  0  0  0  0  0  0  0  0  0
   59.3530   32.9680   49.4090 S   0  0  0  0  0  0  0  0  0  0  0  0
   59.7430   34.1620   50.2340 O   0  0  0  0  0  0  0  0  0  0  0  0
   58.0610   32.4160   49.9450 O   0  0  0  0  0  0  0  0  0  0  0  0
   59.1440   33.4880   47.7370 C   0  0  0  0  0  0  0  0  0  0  0  0
   59.7100   34.6960   47.3140 C   0  0  0  0  0  0  0  0  0  0  0  0
   59.5690   35.1110   45.9890 C   0  0  0  0  0  0  0  0  0  0  0  0
   58.8660   34.3190   45.0750 C   0  0  0  0  0  0  0  0  0  0  0  0
   58.3080   33.0940   45.4770 C   0  0  0  0  0  0  0  0  0  0  0  0
   57.5630   32.2560   44.5010 C   0  0  0  0  0  0  0  0  0  0  0  0
   57.4120   32.6700   43.3220 O   0  0  0  0  0  0  0  0  0  0  0  0
   56.9360   31.0200   44.8770 N   0  0  0  0  0  0  0  0  0  0  0  0
   57.5520   29.7250   44.8960 C   0  0  0  0  0  0  0  0  0  0  0  0
   58.8850   29.5420   44.4970 C   0  0  0  0  0  0  0  0  0  0  0  0
   59.4640   28.2710   44.5470 C   0  0  0  0  0  0  0  0  0  0  0  0
   58.7150   27.1760   44.9850 C   0  0  0  0  0  0  0  0  0  0  0  0
   57.3790   27.3450   45.3700 C   0  0  0  0  0  0  0  0  0  0  0  0
   56.4520   25.9530   45.9200 S   0  0  0  0  0  0  0  0  0  0  0  0
   54.7640   26.3290   45.9790 N   0  0  0  0  0  0  0  0  0  0  0  0
   56.6640   24.8130   44.9690 O   0  0  0  0  0  0  0  0  0  0  0  0
   56.9150   25.5530   47.2880 O   0  0  0  0  0  0  0  0  0  0  0  0
   56.7970   28.6180   45.3050 C   0  0  0  0  0  0  0  0  0  0  0  0
   58.4390   32.6970   46.8190 C   0  0  0  0  0  0  0  0  0  0  0  0
   60.8340   29.4190   50.2130 C   0  0  0  0  0  0  0  0  0  0  0  0
   61.5921   27.2245   53.0586 H   0  0  0  0  0  0  0  0  0  0  0  0
   63.0066   26.8251   52.0261 H   0  0  0  0  0  0  0  0  0  0  0  0
   62.3367   28.4918   52.0261 H   0  0  0  0  0  0  0  0  0  0  0  0
   60.1595   26.5471   48.4747 H   0  0  0  0  0  0  0  0  0  0  0  0
   59.4608   28.2227   46.7732 H   0  0  0  0  0  0  0  0  0  0  0  0
   59.6310   30.6598   47.2607 H   0  0  0  0  0  0  0  0  0  0  0  0
   61.5390   32.1100   49.8810 H   0  0  0  0  0  0  0  0  0  0  0  0
   60.2676   35.3201   48.0278 H   0  0  0  0  0  0  0  0  0  0  0  0
   60.0119   36.0635   45.6625 H   0  0  0  0  0  0  0  0  0  0  0  0
   58.7494   34.6575   44.0349 H   0  0  0  0  0  0  0  0  0  0  0  0
   59.4752   30.4006   44.1442 H   0  0  0  0  0  0  0  0  0  0  0  0
   60.5114   28.1325   44.2409 H   0  0  0  0  0  0  0  0  0  0  0  0
   59.1759   26.1781   45.0276 H   0  0  0  0  0  0  0  0  0  0  0  0
   54.6450   27.0970   46.6810 H   0  0  0  0  0  0  0  0  0  0  0  0
   55.7393   28.7491   45.5772 H   0  0  0  0  0  0  0  0  0  0  0  0
   57.9825   31.7536   47.1532 H   0  0  0  0  0  0  0  0  0  0  0  0
   61.2247   29.7562   51.1844 H   0  0  0  0  0  0  0  0  0  0  0  0
  1  2  1  0
  2  3  2  0
  2  4  1  0
  4  5  2  0
  5  6  1  0
  6  7  2  0
  7  8  1  0
  8  9  1  0
  9 10  1  0
 10 11  2  0
 10 12  2  0
 10 13  1  0
 13 14  2  0
 14 15  1  0
 15 16  2  0
 16 17  1  0
 17 18  1  0
 18 19  2  0
 18 20  1  0
 20 21  1  0
 21 22  2  0
 22 23  1  0
 23 24  2  0
 24 25  1  0
 25 26  1  0
 26 27  1  0
 26 28  2  0
 26 29  2  0
 25 30  2  0
 17 31  2  0
  8 32  2  0
 32  4  1  0
 31 13  1  0
 30 21  1  0
  1 33  1  0
  1 34  1  0
  1 35  1  0
  5 36  1  0
  6 37  1  0
  7 38  1  0
  9 39  1  0
 14 40  1  0
 15 41  1  0
 16 42  1  0
 22 43  1  0
 23 44  1  0
 24 45  1  0
 27 46  1  0
 30 47  1  0
 31 48  1  0
 32 49  1  0
M  CHG  2  20  -1  27  -1
M  END
>  <UniqueID>  (55) 
46

>  <SMILES>  (55) 
CC(=O)c1cccc(NS(=O)(=O)c2cccc(C(=O)[N-]c3cccc(S([NH-])(=O)=O)c3)c2)c1

>  <Energy>  (55) 
58.354312418741

>  <Genealogy>  (55) 
CC(=O)c1cccc(NS(=O)(=O)c2cccc(C(=O)[N-]c3cccc(S([NH-])(=O)=O)c3)c2)c1 (protonated)
CC(=O)c1cccc(NS(=O)(=O)c2cccc(C(=O)[N-]c3cccc(S([NH-])(=O)=O)c3)c2)c1 (3D coordinates assigned)
CC(=O)c1cccc(NS(=O)(=O)c2cccc(C(=O)[N-]c3cccc(S([NH-])(=O)=O)c3)c2)c1 (optimized conformer: 58.354312418741 kcal/mol)

>  <smiles>  (55) 
CC(=O)c1cccc(NS(=O)(=O)c2cccc(C(=O)Nc3cccc(S(N)(=O)=O)c3)c2)c1

>  <score_type>  (55) 
oracle

>  <origin>  (55) 
adg

>  <m_score__min__energy>  (55) 
-14.48

>  <m_primary>  (55) 
energy

$$$$
55:0
     RDKit          3D

 43 45  0  0  0  0  0  0  0  0999 V2000
   56.6270   28.9820   43.1170 O   0  0  0  0  0  0  0  0  0  0  0  0
   56.7320   29.1000   44.3690 C   0  0  0  0  0  0  0  0  0  0  0  0
   57.7320   30.0710   44.9230 C   0  0  0  0  0  0  0  0  0  0  0  0
   57.1250   31.2930   45.3520 O   0  0  0  0  0  0  0  0  0  0  0  0
   57.8120   32.4790   45.6630 C   0  0  0  0  0  0  0  0  0  0  0  0
   58.0720   32.8800   46.9880 C   0  0  0  0  0  0  0  0  0  0  0  0
   58.8100   34.0400   47.2410 C   0  0  0  0  0  0  0  0  0  0  0  0
   59.2780   34.8170   46.1790 C   0  0  0  0  0  0  0  0  0  0  0  0
   58.9980   34.4410   44.8620 C   0  0  0  0  0  0  0  0  0  0  0  0
   58.2580   33.2830   44.6050 C   0  0  0  0  0  0  0  0  0  0  0  0
   57.9630   32.9440   43.3290 F   0  0  0  0  0  0  0  0  0  0  0  0
   55.8970   28.3320   45.2450 N   0  0  0  0  0  0  0  0  0  0  0  0
   56.2730   27.1060   45.8840 C   0  0  0  0  0  0  0  0  0  0  0  0
   55.6250   26.0440   45.6790 O   0  0  0  0  0  0  0  0  0  0  0  0
   57.4750   27.0770   46.7710 C   0  0  0  0  0  0  0  0  0  0  0  0
   58.9900   26.8930   45.7680 S   0  0  0  0  0  0  0  0  0  0  0  0
   59.7890   28.3600   46.4220 C   0  0  0  0  0  0  0  0  0  0  0  0
   59.4790   28.8320   47.6990 C   0  0  0  0  0  0  0  0  0  0  0  0
   60.1430   29.9560   48.1850 C   0  0  0  0  0  0  0  0  0  0  0  0
   61.0760   30.6130   47.3690 C   0  0  0  0  0  0  0  0  0  0  0  0
   61.8170   31.8140   47.8270 C   0  0  0  0  0  0  0  0  0  0  0  0
   61.3540   32.5830   48.9140 C   0  0  0  0  0  0  0  0  0  0  0  0
   62.0720   33.7110   49.3140 C   0  0  0  0  0  0  0  0  0  0  0  0
   63.2390   34.0670   48.6410 C   0  0  0  0  0  0  0  0  0  0  0  0
   63.6740   33.2870   47.5700 C   0  0  0  0  0  0  0  0  0  0  0  0
   62.9600   32.1940   47.1790 N   0  0  0  0  0  0  0  0  0  0  0  0
   61.3310   30.1080   46.1310 N   0  0  0  0  0  0  0  0  0  0  0  0
   60.7110   29.0170   45.6740 N   0  0  0  0  0  0  0  0  0  0  0  0
   58.2368   29.6063   45.7828 H   0  0  0  0  0  0  0  0  0  0  0  0
   58.4442   30.3137   44.1206 H   0  0  0  0  0  0  0  0  0  0  0  0
   57.6928   32.2780   47.8270 H   0  0  0  0  0  0  0  0  0  0  0  0
   59.0223   34.3411   48.2775 H   0  0  0  0  0  0  0  0  0  0  0  0
   59.8667   35.7245   46.3788 H   0  0  0  0  0  0  0  0  0  0  0  0
   59.3606   35.0575   44.0263 H   0  0  0  0  0  0  0  0  0  0  0  0
   57.5285   28.0155   47.3422 H   0  0  0  0  0  0  0  0  0  0  0  0
   57.3935   26.2237   47.4604 H   0  0  0  0  0  0  0  0  0  0  0  0
   58.7210   28.3233   48.3127 H   0  0  0  0  0  0  0  0  0  0  0  0
   59.9374   30.3255   49.2005 H   0  0  0  0  0  0  0  0  0  0  0  0
   60.4333   32.2960   49.4432 H   0  0  0  0  0  0  0  0  0  0  0  0
   61.7170   34.3183   50.1596 H   0  0  0  0  0  0  0  0  0  0  0  0
   63.8110   34.9539   48.9512 H   0  0  0  0  0  0  0  0  0  0  0  0
   64.5985   33.5554   47.0378 H   0  0  0  0  0  0  0  0  0  0  0  0
   63.3220   31.6340   46.3740 H   0  0  0  0  0  0  0  0  0  0  0  0
  1  2  2  0
  2  3  1  0
  3  4  1  0
  4  5  1  0
  5  6  2  0
  6  7  1  0
  7  8  2  0
  8  9  1  0
  9 10  2  0
 10 11  1  0
  2 12  1  0
 12 13  1  0
 13 14  2  0
 13 15  1  0
 15 16  1  0
 16 17  1  0
 17 18  2  0
 18 19  1  0
 19 20  2  0
 20 21  1  0
 21 22  2  0
 22 23  1  0
 23 24  2  0
 24 25  1  0
 25 26  2  0
 20 27  1  0
 27 28  2  0
 10  5  1  0
 28 17  1  0
 26 21  1  0
  3 29  1  0
  3 30  1  0
  6 31  1  0
  7 32  1  0
  8 33  1  0
  9 34  1  0
 15 35  1  0
 15 36  1  0
 18 37  1  0
 19 38  1  0
 22 39  1  0
 23 40  1  0
 24 41  1  0
 25 42  1  0
 26 43  1  0
M  CHG  2  12  -1  26   1
M  END
>  <UniqueID>  (56) 
47

>  <SMILES>  (56) 
O=C(COc1ccccc1F)[N-]C(=O)CSc1ccc(-c2cccc[nH+]2)nn1

>  <Energy>  (56) 
41.97620835276326

>  <Genealogy>  (56) 
O=C(COc1ccccc1F)[N-]C(=O)CSc1ccc(-c2cccc[nH+]2)nn1 (protonated)
O=C(COc1ccccc1F)[N-]C(=O)CSc1ccc(-c2cccc[nH+]2)nn1 (3D coordinates assigned)
O=C(COc1ccccc1F)[N-]C(=O)CSc1ccc(-c2cccc[nH+]2)nn1 (optimized conformer: 41.97620835276326 kcal/mol)

>  <smiles>  (56) 
O=C(COc1ccccc1F)NC(=O)CSc1ccc(-c2ccccn2)nn1

>  <score_type>  (56) 
oracle

>  <origin>  (56) 
adg

>  <m_score__min__energy>  (56) 
-9.2300000000000004

>  <m_primary>  (56) 
energy

$$$$
56:0
     RDKit          3D

 48 50  0  0  0  0  0  0  0  0999 V2000
   54.3530   23.5404   44.2101 H   0  0  0  0  0  0  0  0  0  0  0  0
   55.3450   23.0840   44.3430 C   0  0  0  0  0  0  0  0  0  0  0  0
   55.8870   22.3390   43.3430 N   0  0  0  0  0  0  0  0  0  0  0  0
   57.1030   21.7450   43.4730 C   0  0  0  0  0  0  0  0  0  0  0  0
   57.6070   21.0130   42.4500 F   0  0  0  0  0  0  0  0  0  0  0  0
   57.8250   21.8830   44.6600 C   0  0  0  0  0  0  0  0  0  0  0  0
   58.8051   21.3967   44.7736 H   0  0  0  0  0  0  0  0  0  0  0  0
   57.2910   22.6440   45.7010 C   0  0  0  0  0  0  0  0  0  0  0  0
   57.8459   22.7509   46.6447 H   0  0  0  0  0  0  0  0  0  0  0  0
   56.0460   23.2730   45.5440 C   0  0  0  0  0  0  0  0  0  0  0  0
   55.4510   24.0730   46.6720 C   0  0  0  0  0  0  0  0  0  0  0  0
   55.9695   23.8127   47.6065 H   0  0  0  0  0  0  0  0  0  0  0  0
   54.3797   23.8321   46.7368 H   0  0  0  0  0  0  0  0  0  0  0  0
   55.5830   25.5090   46.4410 N   0  0  0  0  0  0  0  0  0  0  0  0
   56.8180   26.2350   46.3910 C   0  0  0  0  0  0  0  0  0  0  0  0
   57.8750   25.6590   46.7600 O   0  0  0  0  0  0  0  0  0  0  0  0
   56.9030   27.6130   45.8880 C   0  0  0  0  0  0  0  0  0  0  0  0
   55.8950   28.2280   45.2370 N   0  0  0  0  0  0  0  0  0  0  0  0
   56.3300   29.4220   44.8700 N   0  0  0  0  0  0  0  0  0  0  0  0
   55.5360   30.3690   44.0960 C   0  0  0  0  0  0  0  0  0  0  0  0
   54.9827   31.0290   44.7803 H   0  0  0  0  0  0  0  0  0  0  0  0
   56.2014   30.9733   43.4619 H   0  0  0  0  0  0  0  0  0  0  0  0
   54.8249   29.8192   43.4619 H   0  0  0  0  0  0  0  0  0  0  0  0
   57.6170   29.5680   45.2430 C   0  0  0  0  0  0  0  0  0  0  0  0
   58.3210   30.6310   44.9710 N   0  0  0  0  0  0  0  0  0  0  0  0
   58.3470   31.8870   45.6680 C   0  0  0  0  0  0  0  0  0  0  0  0
   57.2840   32.5080   45.9340 O   0  0  0  0  0  0  0  0  0  0  0  0
   59.6160   32.4390   46.0460 N   0  0  0  0  0  0  0  0  0  0  0  0
   60.4770   31.9130   45.7730 H   0  0  0  0  0  0  0  0  0  0  0  0
   59.7870   33.7040   46.7700 C   0  0  1  0  0  0  0  0  0  0  0  0
   59.0563   33.7741   47.5892 H   0  0  0  0  0  0  0  0  0  0  0  0
   61.1450   33.7520   47.4540 C   0  0  0  0  0  0  0  0  0  0  0  0
   61.1920   34.0930   48.8190 C   0  0  0  0  0  0  0  0  0  0  0  0
   60.2597   34.3231   49.3555 H   0  0  0  0  0  0  0  0  0  0  0  0
   62.4120   34.1420   49.4990 C   0  0  0  0  0  0  0  0  0  0  0  0
   62.4360   34.4111   50.5653 H   0  0  0  0  0  0  0  0  0  0  0  0
   63.6000   33.8500   48.8270 C   0  0  0  0  0  0  0  0  0  0  0  0
   64.5597   33.8918   49.3629 H   0  0  0  0  0  0  0  0  0  0  0  0
   63.5700   33.5050   47.4750 C   0  0  0  0  0  0  0  0  0  0  0  0
   64.5076   33.2796   46.9458 H   0  0  0  0  0  0  0  0  0  0  0  0
   62.3520   33.4450   46.7910 C   0  0  0  0  0  0  0  0  0  0  0  0
   62.3347   33.1567   45.7296 H   0  0  0  0  0  0  0  0  0  0  0  0
   59.4730   34.8950   45.8530 C   0  0  0  0  0  0  0  0  0  0  0  0
   59.2401   35.7782   46.4659 H   0  0  0  0  0  0  0  0  0  0  0  0
   60.3454   35.1089   45.2181 H   0  0  0  0  0  0  0  0  0  0  0  0
   58.6085   34.6510   45.2181 H   0  0  0  0  0  0  0  0  0  0  0  0
   58.0290   28.4200   45.9000 C   0  0  0  0  0  0  0  0  0  0  0  0
   59.0175   28.2008   46.3300 H   0  0  0  0  0  0  0  0  0  0  0  0
  1  2  1  0
  2  3  2  0
  3  4  1  0
  4  5  1  0
  4  6  2  0
  6  7  1  0
  6  8  1  0
  8  9  1  0
  8 10  2  0
 10 11  1  0
 11 12  1  0
 11 13  1  0
 11 14  1  0
 14 15  1  0
 15 16  2  0
 15 17  1  0
 17 18  1  0
 18 19  1  0
 19 20  1  0
 20 21  1  0
 20 22  1  0
 20 23  1  0
 19 24  1  0
 24 25  2  0
 25 26  1  0
 26 27  2  0
 26 28  1  0
 28 29  1  0
 28 30  1  0
 30 31  1  1
 30 32  1  0
 32 33  2  0
 33 34  1  0
 33 35  1  0
 35 36  1  0
 35 37  2  0
 37 38  1  0
 37 39  1  0
 39 40  1  0
 39 41  2  0
 41 42  1  0
 30 43  1  0
 43 44  1  0
 43 45  1  0
 43 46  1  0
 24 47  1  0
 47 48  1  0
 10  2  1  0
 47 17  2  0
 41 32  1  0
M  CHG  2  14  -1  18  -1
M  END
>  <UniqueID>  (57) 
48

>  <SMILES>  (57) 
C[C@@H](NC(=O)/N=c1\cc(C(=O)[N-]Cc2ccc(F)nc2)[n-]n1C)c1ccccc1

>  <Energy>  (57) 
85.81451203273117

>  <Genealogy>  (57) 
CC(NC(=O)N=c1cc(C(=O)[N-]Cc2ccc(F)nc2)[n-]n1C)c1ccccc1 (protonated)
C[C@@H](NC(=O)N=c1cc(C(=O)[N-]Cc2ccc(F)nc2)[n-]n1C)c1ccccc1 (chirality)
C[C@@H](NC(=O)/N=c1\cc(C(=O)[N-]Cc2ccc(F)nc2)[n-]n1C)c1ccccc1 (cis-trans isomerization)
C[C@@H](NC(=O)/N=c1\cc(C(=O)[N-]Cc2ccc(F)nc2)[n-]n1C)c1ccccc1 (3D coordinates assigned)
C[C@@H](NC(=O)/N=c1\cc(C(=O)[N-]Cc2ccc(F)nc2)[n-]n1C)c1ccccc1 (optimized conformer: 85.81451203273117 kcal/mol)

>  <smiles>  (57) 
CC(NC(=O)N=c1cc(C(=O)NCc2ccc(F)nc2)[nH]n1C)c1ccccc1

>  <score_type>  (57) 
oracle

>  <origin>  (57) 
adg

>  <m_score__min__energy>  (57) 
-12.43

>  <m_primary>  (57) 
energy

$$$$
57:0
     RDKit          3D

 51 54  0  0  0  0  0  0  0  0999 V2000
   55.7490   29.6259   44.1408 H   0  0  0  0  0  0  0  0  0  0  0  0
   56.3240   29.0620   44.8900 C   0  0  0  0  0  0  0  0  0  0  0  0
   55.9250   27.8170   45.2540 N   0  0  0  0  0  0  0  0  0  0  0  0
   56.6250   27.0930   46.1700 C   0  0  0  0  0  0  0  0  0  0  0  0
   56.2360   25.9060   46.5260 N   0  0  0  0  0  0  0  0  0  0  0  0
   57.1260   24.7710   46.7710 C   0  0  0  0  0  0  0  0  0  0  0  0
   56.5222   23.8608   46.9016 H   0  0  0  0  0  0  0  0  0  0  0  0
   57.7143   24.9735   47.6781 H   0  0  0  0  0  0  0  0  0  0  0  0
   58.0840   24.5720   45.6010 C   0  0  0  0  0  0  0  0  0  0  0  0
   59.0932   24.3624   45.9850 H   0  0  0  0  0  0  0  0  0  0  0  0
   57.7422   23.7257   44.9871 H   0  0  0  0  0  0  0  0  0  0  0  0
   58.1075   25.4844   44.9871 H   0  0  0  0  0  0  0  0  0  0  0  0
   57.7380   27.6260   46.7350 N   0  0  0  0  0  0  0  0  0  0  0  0
   58.1770   28.8730   46.4110 C   0  0  0  0  0  0  0  0  0  0  0  0
   57.4650   29.6290   45.4660 C   0  0  0  0  0  0  0  0  0  0  0  0
   57.9260   30.9990   45.0440 C   0  0  0  0  0  0  0  0  0  0  0  0
   58.3253   30.9406   44.0207 H   0  0  0  0  0  0  0  0  0  0  0  0
   57.0636   31.6800   45.0942 H   0  0  0  0  0  0  0  0  0  0  0  0
   58.9730   31.5220   45.9340 N   0  0  0  0  0  0  0  0  0  0  0  0
   59.2100   32.9440   45.9840 C   0  0  0  0  0  0  0  0  0  0  0  0
   59.6240   33.5620   47.1790 C   0  0  0  0  0  0  0  0  0  0  0  0
   59.7721   32.9561   48.0851 H   0  0  0  0  0  0  0  0  0  0  0  0
   59.8480   34.9410   47.2210 C   0  0  0  0  0  0  0  0  0  0  0  0
   60.1715   35.4161   48.1589 H   0  0  0  0  0  0  0  0  0  0  0  0
   59.6620   35.7170   46.0750 C   0  0  0  0  0  0  0  0  0  0  0  0
   59.8374   36.8023   46.1108 H   0  0  0  0  0  0  0  0  0  0  0  0
   59.2530   35.1140   44.8830 C   0  0  0  0  0  0  0  0  0  0  0  0
   59.1070   35.7252   43.9802 H   0  0  0  0  0  0  0  0  0  0  0  0
   59.0290   33.7350   44.8360 C   0  0  0  0  0  0  0  0  0  0  0  0
   58.7089   33.2655   43.8942 H   0  0  0  0  0  0  0  0  0  0  0  0
   59.9910   30.5900   46.4320 C   0  0  0  0  0  0  0  0  0  0  0  0
   60.6183   30.2520   45.5940 H   0  0  0  0  0  0  0  0  0  0  0  0
   60.6163   31.0995   47.1799 H   0  0  0  0  0  0  0  0  0  0  0  0
   59.3400   29.4310   47.0520 N   0  0  0  0  0  0  0  0  0  0  0  0
   59.9040   28.8450   48.2790 C   0  0  0  0  0  0  0  0  0  0  0  0
   59.1413   28.2135   48.7581 H   0  0  0  0  0  0  0  0  0  0  0  0
   60.7867   28.2483   48.0055 H   0  0  0  0  0  0  0  0  0  0  0  0
   60.3350   29.9170   49.2490 C   0  0  0  0  0  0  0  0  0  0  0  0
   59.4780   30.4180   50.0220 O   0  0  0  0  0  0  0  0  0  0  0  0
   61.6990   30.3470   49.3570 N   0  0  0  0  0  0  0  0  0  0  0  0
   62.2330   31.5680   48.8360 C   0  0  0  0  0  0  0  0  0  0  0  0
   62.1410   32.7690   49.5580 C   0  0  0  0  0  0  0  0  0  0  0  0
   61.6636   32.7794   50.5489 H   0  0  0  0  0  0  0  0  0  0  0  0
   62.6560   33.9520   49.0180 C   0  0  0  0  0  0  0  0  0  0  0  0
   62.5721   34.8941   49.5796 H   0  0  0  0  0  0  0  0  0  0  0  0
   63.2770   33.9390   47.7660 C   0  0  0  0  0  0  0  0  0  0  0  0
   63.6663   34.8731   47.3349 H   0  0  0  0  0  0  0  0  0  0  0  0
   63.4030   32.7380   47.0620 C   0  0  0  0  0  0  0  0  0  0  0  0
   63.9007   32.7251   46.0811 H   0  0  0  0  0  0  0  0  0  0  0  0
   62.8960   31.5520   47.6050 C   0  0  0  0  0  0  0  0  0  0  0  0
   63.0195   30.6037   47.0614 H   0  0  0  0  0  0  0  0  0  0  0  0
  1  2  1  0
  2  3  1  0
  3  4  1  0
  4  5  2  0
  5  6  1  0
  6  7  1  0
  6  8  1  0
  6  9  1  0
  9 10  1  0
  9 11  1  0
  9 12  1  0
  4 13  1  0
 13 14  2  0
 14 15  1  0
 15 16  1  0
 16 17  1  0
 16 18  1  0
 16 19  1  0
 19 20  1  0
 20 21  2  0
 21 22  1  0
 21 23  1  0
 23 24  1  0
 23 25  2  0
 25 26  1  0
 25 27  1  0
 27 28  1  0
 27 29  2  0
 29 30  1  0
 19 31  1  0
 31 32  1  0
 31 33  1  0
 31 34  1  0
 34 35  1  0
 35 36  1  0
 35 37  1  0
 35 38  1  0
 38 39  2  0
 38 40  1  0
 40 41  1  0
 41 42  2  0
 42 43  1  0
 42 44  1  0
 44 45  1  0
 44 46  2  0
 46 47  1  0
 46 48  1  0
 48 49  1  0
 48 50  2  0
 50 51  1  0
 15  2  2  0
 29 20  1  0
 50 41  1  0
 34 14  1  0
M  CHG  2   3  -1  40  -1
M  END
>  <UniqueID>  (58) 
49

>  <SMILES>  (58) 
CC/N=c1/nc2c(c[n-]1)CN(c1ccccc1)CN2CC(=O)[N-]c1ccccc1

>  <Energy>  (58) 
59.48481016239974

>  <Genealogy>  (58) 
CCN=c1nc2c(c[n-]1)CN(c1ccccc1)CN2CC(=O)[N-]c1ccccc1 (protonated)
CC/N=c1/nc2c(c[n-]1)CN(c1ccccc1)CN2CC(=O)[N-]c1ccccc1 (cis-trans isomerization)
CC/N=c1/nc2c(c[n-]1)CN(c1ccccc1)CN2CC(=O)[N-]c1ccccc1 (3D coordinates assigned)
CC/N=c1/nc2c(c[n-]1)CN(c1ccccc1)CN2CC(=O)[N-]c1ccccc1 (nonaromatic ring conformer: 59.48481016239974 kcal/mol)

>  <smiles>  (58) 
CCN=c1nc2c(c[nH]1)CN(c1ccccc1)CN2CC(=O)Nc1ccccc1

>  <score_type>  (58) 
oracle

>  <origin>  (58) 
adg

>  <m_score__min__energy>  (58) 
-11.23

>  <m_primary>  (58) 
energy

$$$$
58:0
     RDKit          3D

 33 34  0  0  0  0  0  0  0  0999 V2000
   54.9700   26.3160   45.9830 N   0  0  0  0  0  0  0  0  0  0  0  0
   56.5150   25.5460   46.0490 S   0  0  0  0  0  0  0  0  0  0  0  0
   56.4620   24.3840   47.0020 O   0  0  0  0  0  0  0  0  0  0  0  0
   56.8660   25.0380   44.6770 O   0  0  0  0  0  0  0  0  0  0  0  0
   57.7250   26.7060   46.6050 C   0  0  0  0  0  0  0  0  0  0  0  0
   58.7690   26.2800   47.4400 C   0  0  0  0  0  0  0  0  0  0  0  0
   59.7460   27.1820   47.8650 C   0  0  0  0  0  0  0  0  0  0  0  0
   59.6900   28.5150   47.4600 C   0  0  0  0  0  0  0  0  0  0  0  0
   58.6560   28.9530   46.6290 C   0  0  0  0  0  0  0  0  0  0  0  0
   57.6660   28.0530   46.1910 C   0  0  0  0  0  0  0  0  0  0  0  0
   56.6000   28.4750   45.3280 N   0  0  0  0  0  0  0  0  0  0  0  0
   56.6640   29.8130   44.2260 S   0  0  0  0  0  0  0  0  0  0  0  0
   56.2900   29.3240   42.8550 O   0  0  0  0  0  0  0  0  0  0  0  0
   55.6830   30.8710   44.6450 O   0  0  0  0  0  0  0  0  0  0  0  0
   58.3170   30.4890   44.1620 C   0  0  0  0  0  0  0  0  0  0  0  0
   58.3600   31.8330   44.8360 C   0  0  0  0  0  0  0  0  0  0  0  0
   59.0690   32.0060   46.0380 C   0  0  0  0  0  0  0  0  0  0  0  0
   59.1480   33.2680   46.6340 C   0  0  0  0  0  0  0  0  0  0  0  0
   58.5220   34.3640   46.0360 C   0  0  0  0  0  0  0  0  0  0  0  0
   57.8160   34.2020   44.8410 C   0  0  0  0  0  0  0  0  0  0  0  0
   57.7360   32.9420   44.2410 C   0  0  0  0  0  0  0  0  0  0  0  0
   55.1400   27.3460   46.0100 H   0  0  0  0  0  0  0  0  0  0  0  0
   58.8179   25.2292   47.7616 H   0  0  0  0  0  0  0  0  0  0  0  0
   60.5610   26.8407   48.5202 H   0  0  0  0  0  0  0  0  0  0  0  0
   60.4618   29.2234   47.7956 H   0  0  0  0  0  0  0  0  0  0  0  0
   58.6151   30.0065   46.3153 H   0  0  0  0  0  0  0  0  0  0  0  0
   59.0088   29.8042   44.6744 H   0  0  0  0  0  0  0  0  0  0  0  0
   58.6135   30.6079   43.1094 H   0  0  0  0  0  0  0  0  0  0  0  0
   59.5634   31.1448   46.5112 H   0  0  0  0  0  0  0  0  0  0  0  0
   59.7035   33.3979   47.5745 H   0  0  0  0  0  0  0  0  0  0  0  0
   58.5848   35.3563   46.5065 H   0  0  0  0  0  0  0  0  0  0  0  0
   57.3230   35.0664   44.3722 H   0  0  0  0  0  0  0  0  0  0  0  0
   57.1820   32.8184   43.2988 H   0  0  0  0  0  0  0  0  0  0  0  0
  1  2  1  0
  2  3  2  0
  2  4  2  0
  2  5  1  0
  5  6  2  0
  6  7  1  0
  7  8  2  0
  8  9  1  0
  9 10  2  0
 10 11  1  0
 11 12  1  0
 12 13  2  0
 12 14  2  0
 12 15  1  0
 15 16  1  0
 16 17  2  0
 17 18  1  0
 18 19  2  0
 19 20  1  0
 20 21  2  0
 10  5  1  0
 21 16  1  0
  1 22  1  0
  6 23  1  0
  7 24  1  0
  8 25  1  0
  9 26  1  0
 15 27  1  0
 15 28  1  0
 17 29  1  0
 18 30  1  0
 19 31  1  0
 20 32  1  0
 21 33  1  0
M  CHG  2   1  -1  11  -1
M  END
>  <UniqueID>  (59) 
50

>  <SMILES>  (59) 
[NH-]S(=O)(=O)c1ccccc1[N-]S(=O)(=O)Cc1ccccc1

>  <Energy>  (59) 
30.476775157022345

>  <Genealogy>  (59) 
[NH-]S(=O)(=O)c1ccccc1[N-]S(=O)(=O)Cc1ccccc1 (protonated)
[NH-]S(=O)(=O)c1ccccc1[N-]S(=O)(=O)Cc1ccccc1 (3D coordinates assigned)
[NH-]S(=O)(=O)c1ccccc1[N-]S(=O)(=O)Cc1ccccc1 (optimized conformer: 30.476775157022345 kcal/mol)

>  <smiles>  (59) 
NS(=O)(=O)c1ccccc1NS(=O)(=O)Cc1ccccc1

>  <score_type>  (59) 
oracle

>  <origin>  (59) 
adg

>  <m_score__min__energy>  (59) 
-13.31

>  <m_primary>  (59) 
energy

$$$$
59:0
     RDKit          3D

 32 33  0  0  0  0  0  0  0  0999 V2000
   59.0810   27.5810   46.7800 C   0  0  0  0  0  0  0  0  0  0  0  0
   58.2080   28.5870   46.0770 C   0  0  0  0  0  0  0  0  0  0  0  0
   58.7010   29.8900   45.8970 C   0  0  0  0  0  0  0  0  0  0  0  0
   57.9270   30.8780   45.2850 C   0  0  0  0  0  0  0  0  0  0  0  0
   58.4820   32.1920   45.1400 N   0  0  0  0  0  0  0  0  0  0  0  0
   58.9470   33.2340   46.4470 S   0  0  0  0  0  0  0  0  0  0  0  0
   58.0720   32.9520   47.6360 O   0  0  0  0  0  0  0  0  0  0  0  0
   58.7930   34.6650   46.0130 O   0  0  0  0  0  0  0  0  0  0  0  0
   60.6340   32.9420   46.8900 C   0  0  0  0  0  0  0  0  0  0  0  0
   61.6350   33.7900   46.3850 C   0  0  0  0  0  0  0  0  0  0  0  0
   62.9750   33.5840   46.7170 C   0  0  0  0  0  0  0  0  0  0  0  0
   63.3320   32.5300   47.5570 C   0  0  0  0  0  0  0  0  0  0  0  0
   62.3490   31.6780   48.0670 C   0  0  0  0  0  0  0  0  0  0  0  0
   61.0010   31.8730   47.7410 C   0  0  0  0  0  0  0  0  0  0  0  0
   60.0630   30.9910   48.2810 O   0  0  0  0  0  0  0  0  0  0  0  0
   56.6390   30.5590   44.8360 C   0  0  0  0  0  0  0  0  0  0  0  0
   56.1350   29.2650   44.9850 C   0  0  0  0  0  0  0  0  0  0  0  0
   54.8620   28.9860   44.4970 O   0  0  0  0  0  0  0  0  0  0  0  0
   56.9110   28.2580   45.5990 C   0  0  0  0  0  0  0  0  0  0  0  0
   56.3580   26.8840   45.7260 C   0  0  0  0  0  0  0  0  0  0  0  0
   55.1440   26.7110   46.0140 O   0  0  0  0  0  0  0  0  0  0  0  0
   57.1590   25.7710   45.5060 O   0  0  0  0  0  0  0  0  0  0  0  0
   58.9763   27.7017   47.8683 H   0  0  0  0  0  0  0  0  0  0  0  0
   58.7738   26.5646   46.4926 H   0  0  0  0  0  0  0  0  0  0  0  0
   60.1305   27.7419   46.4926 H   0  0  0  0  0  0  0  0  0  0  0  0
   59.7152   30.1365   46.2445 H   0  0  0  0  0  0  0  0  0  0  0  0
   61.3597   34.6236   45.7221 H   0  0  0  0  0  0  0  0  0  0  0  0
   63.7499   34.2537   46.3157 H   0  0  0  0  0  0  0  0  0  0  0  0
   64.3883   32.3691   47.8184 H   0  0  0  0  0  0  0  0  0  0  0  0
   62.6360   30.8480   48.7294 H   0  0  0  0  0  0  0  0  0  0  0  0
   59.0650   31.0990   48.1640 H   0  0  0  0  0  0  0  0  0  0  0  0
   56.0192   31.3343   44.3620 H   0  0  0  0  0  0  0  0  0  0  0  0
  1  2  1  0
  2  3  2  0
  3  4  1  0
  4  5  1  0
  5  6  1  0
  6  7  2  0
  6  8  2  0
  6  9  1  0
  9 10  2  0
 10 11  1  0
 11 12  2  0
 12 13  1  0
 13 14  2  0
 14 15  1  0
  4 16  2  0
 16 17  1  0
 17 18  1  0
 17 19  2  0
 19 20  1  0
 20 21  2  0
 20 22  1  0
 19  2  1  0
 14  9  1  0
  1 23  1  0
  1 24  1  0
  1 25  1  0
  3 26  1  0
 10 27  1  0
 11 28  1  0
 12 29  1  0
 13 30  1  0
 15 31  1  0
 16 32  1  0
M  CHG  3   5  -1  18  -1  22  -1
M  END
>  <UniqueID>  (60) 
51

>  <SMILES>  (60) 
Cc1cc([N-]S(=O)(=O)c2ccccc2O)cc([O-])c1C(=O)[O-]

>  <Energy>  (60) 
44.916724516514215

>  <Genealogy>  (60) 
Cc1cc([N-]S(=O)(=O)c2ccccc2O)cc([O-])c1C(=O)[O-] (protonated)
Cc1cc([N-]S(=O)(=O)c2ccccc2O)cc([O-])c1C(=O)[O-] (3D coordinates assigned)
Cc1cc([N-]S(=O)(=O)c2ccccc2O)cc([O-])c1C(=O)[O-] (optimized conformer: 44.916724516514215 kcal/mol)

>  <smiles>  (60) 
Cc1cc(NS(=O)(=O)c2ccccc2O)cc(O)c1C(=O)O

>  <score_type>  (60) 
oracle

>  <origin>  (60) 
adg

>  <m_score__min__energy>  (60) 
-13.949999999999999

>  <m_primary>  (60) 
energy

$$$$
60:0
     RDKit          3D

 57 60  0  0  0  0  0  0  0  0999 V2000
   61.0290   28.9550   44.8670 C   0  0  0  0  0  0  0  0  0  0  0  0
   59.6750   28.4180   45.2540 C   0  0  0  0  0  0  0  0  0  0  0  0
   59.0380   27.4960   44.3970 C   0  0  0  0  0  0  0  0  0  0  0  0
   57.7710   26.9860   44.7040 C   0  0  0  0  0  0  0  0  0  0  0  0
   57.1280   27.3850   45.8710 C   0  0  0  0  0  0  0  0  0  0  0  0
   57.7450   28.2980   46.7360 C   0  0  0  0  0  0  0  0  0  0  0  0
   59.0250   28.8070   46.4510 C   0  0  0  0  0  0  0  0  0  0  0  0
   59.6500   29.7130   47.4420 C   0  0  0  0  0  0  0  0  0  0  0  0
   60.7080   29.3500   48.0450 O   0  0  0  0  0  0  0  0  0  0  0  0
   59.1350   31.0350   47.6350 N   0  0  0  0  0  0  0  0  0  0  0  0
   58.7400   31.8990   46.5550 C   0  0  0  0  0  0  0  0  0  0  0  0
   57.9720   31.3910   45.4880 C   0  0  0  0  0  0  0  0  0  0  0  0
   57.5000   32.2410   44.4870 C   0  0  0  0  0  0  0  0  0  0  0  0
   57.7860   33.6020   44.5310 C   0  0  0  0  0  0  0  0  0  0  0  0
   58.5330   34.1210   45.5840 C   0  0  0  0  0  0  0  0  0  0  0  0
   59.0190   33.2830   46.6030 C   0  0  0  0  0  0  0  0  0  0  0  0
   59.8250   33.8950   47.6880 C   0  0  0  0  0  0  0  0  0  0  0  0
   59.2610   34.2010   48.7770 O   0  0  0  0  0  0  0  0  0  0  0  0
   61.2070   34.1970   47.5000 N   0  0  0  0  0  0  0  0  0  0  0  0
   62.3680   32.9210   47.3470 S   0  0  0  0  0  0  0  0  0  0  0  0
   61.7180   31.7100   46.7430 O   0  0  0  0  0  0  0  0  0  0  0  0
   63.4410   33.3830   46.3920 O   0  0  0  0  0  0  0  0  0  0  0  0
   63.0790   32.5310   48.9200 C   0  0  0  0  0  0  0  0  0  0  0  0
   64.3610   33.0330   49.2080 C   0  0  0  0  0  0  0  0  0  0  0  0
   64.9550   32.8090   50.4520 C   0  0  0  0  0  0  0  0  0  0  0  0
   64.2730   32.0920   51.4360 C   0  0  0  0  0  0  0  0  0  0  0  0
   62.9960   31.5940   51.1750 C   0  0  0  0  0  0  0  0  0  0  0  0
   62.3830   31.7870   49.9160 C   0  0  0  0  0  0  0  0  0  0  0  0
   61.0610   31.2450   49.6920 N   0  0  0  0  0  0  0  0  0  0  0  0
   60.0570   31.8580   50.5380 C   0  0  0  0  0  0  0  0  0  0  0  0
   60.2930   33.0970   51.1720 C   0  0  0  0  0  0  0  0  0  0  0  0
   59.2990   33.6970   51.9540 C   0  0  0  0  0  0  0  0  0  0  0  0
   58.0580   33.0810   52.1050 C   0  0  0  0  0  0  0  0  0  0  0  0
   57.8000   31.8730   51.4610 C   0  0  0  0  0  0  0  0  0  0  0  0
   58.7810   31.2740   50.6600 C   0  0  0  0  0  0  0  0  0  0  0  0
   61.6060   29.1838   45.7752 H   0  0  0  0  0  0  0  0  0  0  0  0
   61.5658   28.2017   44.2717 H   0  0  0  0  0  0  0  0  0  0  0  0
   60.9035   29.8714   44.2717 H   0  0  0  0  0  0  0  0  0  0  0  0
   59.5438   27.1735   43.4750 H   0  0  0  0  0  0  0  0  0  0  0  0
   57.2850   26.2712   44.0237 H   0  0  0  0  0  0  0  0  0  0  0  0
   56.1336   26.9831   46.1151 H   0  0  0  0  0  0  0  0  0  0  0  0
   57.2225   28.6206   47.6486 H   0  0  0  0  0  0  0  0  0  0  0  0
   57.7429   30.3160   45.4439 H   0  0  0  0  0  0  0  0  0  0  0  0
   56.8997   31.8336   43.6602 H   0  0  0  0  0  0  0  0  0  0  0  0
   57.4219   34.2671   43.7341 H   0  0  0  0  0  0  0  0  0  0  0  0
   58.7458   35.1996   45.6196 H   0  0  0  0  0  0  0  0  0  0  0  0
   64.9027   33.6094   48.4436 H   0  0  0  0  0  0  0  0  0  0  0  0
   65.9631   33.1988   50.6567 H   0  0  0  0  0  0  0  0  0  0  0  0
   64.7416   31.9197   52.4162 H   0  0  0  0  0  0  0  0  0  0  0  0
   62.4583   31.0430   51.9607 H   0  0  0  0  0  0  0  0  0  0  0  0
   60.7740   31.4050   48.6980 H   0  0  0  0  0  0  0  0  0  0  0  0
   61.0860   30.2100   49.8260 H   0  0  0  0  0  0  0  0  0  0  0  0
   61.2662   33.5952   51.0505 H   0  0  0  0  0  0  0  0  0  0  0  0
   59.4981   34.6579   52.4510 H   0  0  0  0  0  0  0  0  0  0  0  0
   57.2837   33.5478   52.7315 H   0  0  0  0  0  0  0  0  0  0  0  0
   56.8207   31.3868   51.5820 H   0  0  0  0  0  0  0  0  0  0  0  0
   58.5533   30.3415   50.1228 H   0  0  0  0  0  0  0  0  0  0  0  0
  1  2  1  0
  2  3  2  0
  3  4  1  0
  4  5  2  0
  5  6  1  0
  6  7  2  0
  7  8  1  0
  8  9  2  0
  8 10  1  0
 10 11  1  0
 11 12  2  0
 12 13  1  0
 13 14  2  0
 14 15  1  0
 15 16  2  0
 16 17  1  0
 17 18  2  0
 17 19  1  0
 19 20  1  0
 20 21  2  0
 20 22  2  0
 20 23  1  0
 23 24  2  0
 24 25  1  0
 25 26  2  0
 26 27  1  0
 27 28  2  0
 28 29  1  0
 29 30  1  0
 30 31  2  0
 31 32  1  0
 32 33  2  0
 33 34  1  0
 34 35  2  0
  7  2  1  0
 16 11  1  0
 28 23  1  0
 35 30  1  0
  1 36  1  0
  1 37  1  0
  1 38  1  0
  3 39  1  0
  4 40  1  0
  5 41  1  0
  6 42  1  0
 12 43  1  0
 13 44  1  0
 14 45  1  0
 15 46  1  0
 24 47  1  0
 25 48  1  0
 26 49  1  0
 27 50  1  0
 29 51  1  0
 29 52  1  0
 31 53  1  0
 32 54  1  0
 33 55  1  0
 34 56  1  0
 35 57  1  0
M  CHG  3  10  -1  19  -1  29   1
M  END
>  <UniqueID>  (61) 
52

>  <SMILES>  (61) 
Cc1ccccc1C(=O)[N-]c1ccccc1C(=O)[N-]S(=O)(=O)c1ccccc1[NH2+]c1ccccc1

>  <Energy>  (61) 
86.52367034357337

>  <Genealogy>  (61) 
Cc1ccccc1C(=O)[N-]c1ccccc1C(=O)[N-]S(=O)(=O)c1ccccc1[NH2+]c1ccccc1 (protonated)
Cc1ccccc1C(=O)[N-]c1ccccc1C(=O)[N-]S(=O)(=O)c1ccccc1[NH2+]c1ccccc1 (3D coordinates assigned)
Cc1ccccc1C(=O)[N-]c1ccccc1C(=O)[N-]S(=O)(=O)c1ccccc1[NH2+]c1ccccc1 (optimized conformer: 86.52367034357337 kcal/mol)

>  <smiles>  (61) 
Cc1ccccc1C(=O)Nc1ccccc1C(=O)NS(=O)(=O)c1ccccc1Nc1ccccc1

>  <score_type>  (61) 
oracle

>  <origin>  (61) 
adg

>  <m_score__min__energy>  (61) 
-11.779999999999999

>  <m_primary>  (61) 
energy

$$$$
61:0
     RDKit          3D

 58 61  0  0  0  0  0  0  0  0999 V2000
   62.7150   30.7280   51.3800 C   0  0  0  0  0  0  0  0  0  0  0  0
   63.5130   31.0430   50.2440 O   0  0  0  0  0  0  0  0  0  0  0  0
   63.0340   31.6800   49.0890 C   0  0  0  0  0  0  0  0  0  0  0  0
   63.5450   32.9180   48.6510 C   0  0  0  0  0  0  0  0  0  0  0  0
   63.0480   33.5160   47.4890 C   0  0  0  0  0  0  0  0  0  0  0  0
   62.0460   32.8850   46.7510 C   0  0  0  0  0  0  0  0  0  0  0  0
   61.5330   31.6580   47.1750 C   0  0  0  0  0  0  0  0  0  0  0  0
   62.0120   31.0600   48.3470 C   0  0  0  0  0  0  0  0  0  0  0  0
   61.4410   29.8260   48.7810 N   0  0  0  0  0  0  0  0  0  0  0  0
   59.7420   29.5220   48.6440 S   0  0  0  0  0  0  0  0  0  0  0  0
   58.9600   30.6090   49.3240 O   0  0  0  0  0  0  0  0  0  0  0  0
   59.4270   28.2180   49.3230 O   0  0  0  0  0  0  0  0  0  0  0  0
   59.3000   29.4200   46.9350 C   0  0  0  0  0  0  0  0  0  0  0  0
   58.3620   30.3210   46.4090 C   0  0  0  0  0  0  0  0  0  0  0  0
   57.9640   30.2440   45.0630 C   0  0  0  0  0  0  0  0  0  0  0  0
   56.9860   31.2090   44.5070 C   0  0  0  0  0  0  0  0  0  0  0  0
   55.8350   30.8150   44.1730 O   0  0  0  0  0  0  0  0  0  0  0  0
   57.3320   32.5960   44.3880 N   0  0  0  0  0  0  0  0  0  0  0  0
   58.1140   33.3630   45.3160 C   0  0  0  0  0  0  0  0  0  0  0  0
   58.7600   34.5160   44.8570 C   0  0  0  0  0  0  0  0  0  0  0  0
   59.4970   35.3110   45.7380 C   0  0  0  0  0  0  0  0  0  0  0  0
   59.5900   34.9640   47.0870 C   0  0  0  0  0  0  0  0  0  0  0  0
   58.9470   33.8100   47.5690 C   0  0  0  0  0  0  0  0  0  0  0  0
   58.9890   33.4520   48.9620 N   0  0  0  0  0  0  0  0  0  0  0  0
   59.9600   33.9600   49.8920 C   0  0  0  0  0  0  0  0  0  0  0  0
   61.0130   34.5130   49.4740 O   0  0  0  0  0  0  0  0  0  0  0  0
   59.7690   33.8070   51.3440 C   0  0  0  0  0  0  0  0  0  0  0  0
   60.7340   33.4610   52.2730 C   0  0  0  0  0  0  0  0  0  0  0  0
   60.0860   33.4390   53.4900 C   0  0  0  0  0  0  0  0  0  0  0  0
   58.7720   33.7700   53.2310 C   0  0  0  0  0  0  0  0  0  0  0  0
   58.6150   33.9810   51.9460 O   0  0  0  0  0  0  0  0  0  0  0  0
   58.1890   33.0280   46.6810 C   0  0  0  0  0  0  0  0  0  0  0  0
   58.5150   29.2410   44.2490 C   0  0  0  0  0  0  0  0  0  0  0  0
   59.4430   28.3360   44.7680 C   0  0  0  0  0  0  0  0  0  0  0  0
   59.8460   28.4150   46.1130 C   0  0  0  0  0  0  0  0  0  0  0  0
   60.7770   27.5170   46.6590 O   0  0  0  0  0  0  0  0  0  0  0  0
   60.7820   26.1130   46.4240 C   0  0  0  0  0  0  0  0  0  0  0  0
   63.2793   30.9507   52.2976 H   0  0  0  0  0  0  0  0  0  0  0  0
   61.7948   31.3303   51.3601 H   0  0  0  0  0  0  0  0  0  0  0  0
   62.4543   29.6595   51.3601 H   0  0  0  0  0  0  0  0  0  0  0  0
   64.3390   33.4165   49.2263 H   0  0  0  0  0  0  0  0  0  0  0  0
   63.4475   34.4853   47.1561 H   0  0  0  0  0  0  0  0  0  0  0  0
   61.6600   33.3548   45.8343 H   0  0  0  0  0  0  0  0  0  0  0  0
   60.7494   31.1589   46.5861 H   0  0  0  0  0  0  0  0  0  0  0  0
   57.9323   31.0979   47.0584 H   0  0  0  0  0  0  0  0  0  0  0  0
   58.6871   34.7981   43.7963 H   0  0  0  0  0  0  0  0  0  0  0  0
   60.0057   36.2133   45.3676 H   0  0  0  0  0  0  0  0  0  0  0  0
   60.1690   35.5963   47.7762 H   0  0  0  0  0  0  0  0  0  0  0  0
   58.3380   32.7040   49.2890 H   0  0  0  0  0  0  0  0  0  0  0  0
   61.7960   33.2480   52.0810 H   0  0  0  0  0  0  0  0  0  0  0  0
   60.5277   33.2048   54.4698 H   0  0  0  0  0  0  0  0  0  0  0  0
   57.9768   33.8455   53.9872 H   0  0  0  0  0  0  0  0  0  0  0  0
   57.6493   32.1459   47.0561 H   0  0  0  0  0  0  0  0  0  0  0  0
   58.2130   29.1677   43.1938 H   0  0  0  0  0  0  0  0  0  0  0  0
   59.8629   27.5537   44.1186 H   0  0  0  0  0  0  0  0  0  0  0  0
   60.7839   25.5802   47.3863 H   0  0  0  0  0  0  0  0  0  0  0  0
   59.8848   25.8338   45.8520 H   0  0  0  0  0  0  0  0  0  0  0  0
   61.6811   25.8402   45.8520 H   0  0  0  0  0  0  0  0  0  0  0  0
  1  2  1  0
  2  3  1  0
  3  4  2  0
  4  5  1  0
  5  6  2  0
  6  7  1  0
  7  8  2  0
  8  9  1  0
  9 10  1  0
 10 11  2  0
 10 12  2  0
 10 13  1  0
 13 14  2  0
 14 15  1  0
 15 16  1  0
 16 17  2  0
 16 18  1  0
 18 19  1  0
 19 20  2  0
 20 21  1  0
 21 22  2  0
 22 23  1  0
 23 24  1  0
 24 25  1  0
 25 26  2  0
 25 27  1  0
 27 28  2  0
 28 29  1  0
 29 30  2  0
 30 31  1  0
 23 32  2  0
 15 33  2  0
 33 34  1  0
 34 35  2  0
 35 36  1  0
 36 37  1  0
  8  3  1  0
 35 13  1  0
 32 19  1  0
 31 27  1  0
  1 38  1  0
  1 39  1  0
  1 40  1  0
  4 41  1  0
  5 42  1  0
  6 43  1  0
  7 44  1  0
 14 45  1  0
 20 46  1  0
 21 47  1  0
 22 48  1  0
 24 49  1  0
 28 50  1  0
 29 51  1  0
 30 52  1  0
 32 53  1  0
 33 54  1  0
 34 55  1  0
 37 56  1  0
 37 57  1  0
 37 58  1  0
M  CHG  2   9  -1  18  -1
M  END
>  <UniqueID>  (62) 
53

>  <SMILES>  (62) 
COc1ccccc1[N-]S(=O)(=O)c1cc(C(=O)[N-]c2cccc(NC(=O)c3ccco3)c2)ccc1OC

>  <Energy>  (62) 
102.88806016329343

>  <Genealogy>  (62) 
COc1ccccc1[N-]S(=O)(=O)c1cc(C(=O)[N-]c2cccc(NC(=O)c3ccco3)c2)ccc1OC (protonated)
COc1ccccc1[N-]S(=O)(=O)c1cc(C(=O)[N-]c2cccc(NC(=O)c3ccco3)c2)ccc1OC (3D coordinates assigned)
COc1ccccc1[N-]S(=O)(=O)c1cc(C(=O)[N-]c2cccc(NC(=O)c3ccco3)c2)ccc1OC (optimized conformer: 102.88806016329343 kcal/mol)

>  <smiles>  (62) 
COc1ccccc1NS(=O)(=O)c1cc(C(=O)Nc2cccc(NC(=O)c3ccco3)c2)ccc1OC

>  <score_type>  (62) 
oracle

>  <origin>  (62) 
adg

>  <m_score__min__energy>  (62) 
-12.609999999999999

>  <m_primary>  (62) 
energy

$$$$
62:0
     RDKit          3D

 31 32  0  0  0  0  0  0  0  0999 V2000
   56.6010   30.2660   43.5750 C   0  0  0  0  0  0  0  0  0  0  0  0
   56.4420   30.8640   44.8510 O   0  0  0  0  0  0  0  0  0  0  0  0
   57.4390   31.7410   45.2470 C   0  0  0  0  0  0  0  0  0  0  0  0
   58.5180   31.3210   46.0210 C   0  0  0  0  0  0  0  0  0  0  0  0
   59.5020   32.2080   46.4080 C   0  0  0  0  0  0  0  0  0  0  0  0
   59.4000   33.5330   46.0120 C   0  0  0  0  0  0  0  0  0  0  0  0
   60.4150   34.5450   46.3860 C   0  0  0  0  0  0  0  0  0  0  0  0
   61.5020   33.9840   47.2110 C   0  0  0  0  0  0  0  0  0  0  0  0
   62.6570   33.5390   46.5990 C   0  0  0  0  0  0  0  0  0  0  0  0
   63.6680   33.0240   47.3070 N   0  0  0  0  0  0  0  0  0  0  0  0
   63.5600   32.9370   48.6470 C   0  0  0  0  0  0  0  0  0  0  0  0
   64.5720   32.4300   49.2740 N   0  0  0  0  0  0  0  0  0  0  0  0
   62.4440   33.3610   49.3040 N   0  0  0  0  0  0  0  0  0  0  0  0
   61.4300   33.8770   48.5860 C   0  0  0  0  0  0  0  0  0  0  0  0
   60.3720   34.2800   49.2060 N   0  0  0  0  0  0  0  0  0  0  0  0
   58.3070   33.9370   45.2350 C   0  0  0  0  0  0  0  0  0  0  0  0
   57.3290   33.0530   44.8510 C   0  0  0  0  0  0  0  0  0  0  0  0
   56.8819   29.2096   43.6976 H   0  0  0  0  0  0  0  0  0  0  0  0
   55.6542   30.3315   43.0188 H   0  0  0  0  0  0  0  0  0  0  0  0
   57.3902   30.7931   43.0188 H   0  0  0  0  0  0  0  0  0  0  0  0
   58.5869   30.2671   46.3283 H   0  0  0  0  0  0  0  0  0  0  0  0
   60.3517   31.8700   47.0194 H   0  0  0  0  0  0  0  0  0  0  0  0
   60.8509   34.9626   45.4664 H   0  0  0  0  0  0  0  0  0  0  0  0
   59.9091   35.3174   46.9839 H   0  0  0  0  0  0  0  0  0  0  0  0
   62.7476   33.6096   45.5050 H   0  0  0  0  0  0  0  0  0  0  0  0
   64.5150   32.7050   46.7810 H   0  0  0  0  0  0  0  0  0  0  0  0
   65.2920   31.9410   48.6970 H   0  0  0  0  0  0  0  0  0  0  0  0
   62.4330   33.2610   50.3420 H   0  0  0  0  0  0  0  0  0  0  0  0
   59.9490   35.2140   49.0140 H   0  0  0  0  0  0  0  0  0  0  0  0
   58.2301   34.9894   44.9244 H   0  0  0  0  0  0  0  0  0  0  0  0
   56.4770   33.3869   44.2405 H   0  0  0  0  0  0  0  0  0  0  0  0
  1  2  1  0
  2  3  1  0
  3  4  2  0
  4  5  1  0
  5  6  2  0
  6  7  1  0
  7  8  1  0
  8  9  2  0
  9 10  1  0
 10 11  1  0
 11 12  2  3
 11 13  1  0
 13 14  1  0
 14 15  2  3
  6 16  1  0
 16 17  2  0
 17  3  1  0
 14  8  1  0
  1 18  1  0
  1 19  1  0
  1 20  1  0
  4 21  1  0
  5 22  1  0
  7 23  1  0
  7 24  1  0
  9 25  1  0
 10 26  1  0
 12 27  1  0
 13 28  1  0
 15 29  1  0
 16 30  1  0
 17 31  1  0
M  END
>  <smiles>  (63) 
COc1ccc(Cc2c[nH]c(=N)[nH]c2=N)cc1

>  <score_type>  (63) 
oracle

>  <origin>  (63) 
adg

>  <m_score__min__energy>  (63) 
-6.4400000000000004

>  <m_primary>  (63) 
energy

$$$$
63:0
     RDKit          3D

 58 61  0  0  0  0  0  0  0  0999 V2000
   58.2950   32.6300   48.8810 C   0  0  0  0  0  0  0  0  0  0  0  0
   58.9120   32.0220   47.7520 O   0  0  0  0  0  0  0  0  0  0  0  0
   58.6570   32.3790   46.4170 C   0  0  0  0  0  0  0  0  0  0  0  0
   58.6440   33.7230   45.9910 C   0  0  0  0  0  0  0  0  0  0  0  0
   58.3810   34.0370   44.6560 C   0  0  0  0  0  0  0  0  0  0  0  0
   58.1240   33.0210   43.7330 C   0  0  0  0  0  0  0  0  0  0  0  0
   58.1350   31.6870   44.1420 C   0  0  0  0  0  0  0  0  0  0  0  0
   58.4050   31.3580   45.4790 C   0  0  0  0  0  0  0  0  0  0  0  0
   58.4290   29.9750   45.8850 N   0  0  0  0  0  0  0  0  0  0  0  0
   57.3250   29.1900   45.6900 C   0  0  0  0  0  0  0  0  0  0  0  0
   56.2820   29.6520   45.1490 O   0  0  0  0  0  0  0  0  0  0  0  0
   57.3650   27.8730   46.1070 C   0  0  0  0  0  0  0  0  0  0  0  0
   56.1740   26.6940   45.9940 S   0  0  0  0  0  0  0  0  0  0  0  0
   57.0900   25.4880   46.7380 C   0  0  0  0  0  0  0  0  0  0  0  0
   58.3370   26.0060   47.0810 C   0  0  0  0  0  0  0  0  0  0  0  0
   58.4880   27.3610   46.7220 C   0  0  0  0  0  0  0  0  0  0  0  0
   59.5930   28.1490   46.9280 N   0  0  0  0  0  0  0  0  0  0  0  0
   60.7770   27.6340   47.6540 C   0  0  0  0  0  0  0  0  0  0  0  0
   60.5050   27.5810   49.1400 C   0  0  0  0  0  0  0  0  0  0  0  0
   61.0460   26.6740   49.8250 O   0  0  0  0  0  0  0  0  0  0  0  0
   59.6330   28.5060   49.8010 N   0  0  0  0  0  0  0  0  0  0  0  0
   59.7880   29.9550   49.8110 C   0  0  0  0  0  0  0  0  0  0  0  0
   61.1080   30.3260   50.4880 C   0  0  0  0  0  0  0  0  0  0  0  0
   62.1990   30.8440   49.5160 C   0  0  0  0  0  0  0  0  0  0  0  0
   61.8430   32.0100   48.6560 N   0  0  0  0  0  0  0  0  0  0  0  0
   62.8780   32.3840   47.6680 C   0  0  0  0  0  0  0  0  0  0  0  0
   62.3690   33.5130   46.7370 C   0  0  0  0  0  0  0  0  0  0  0  0
   61.2260   34.1810   47.2440 O   0  0  0  0  0  0  0  0  0  0  0  0
   61.4040   34.4740   48.6140 C   0  0  0  0  0  0  0  0  0  0  0  0
   61.3740   33.1780   49.4440 C   0  0  0  0  0  0  0  0  0  0  0  0
   59.5610   29.4550   46.4770 C   0  0  0  0  0  0  0  0  0  0  0  0
   60.5850   30.1860   46.5880 O   0  0  0  0  0  0  0  0  0  0  0  0
   58.7221   32.2091   49.8032 H   0  0  0  0  0  0  0  0  0  0  0  0
   58.4734   33.7152   48.8563 H   0  0  0  0  0  0  0  0  0  0  0  0
   57.2126   32.4357   48.8563 H   0  0  0  0  0  0  0  0  0  0  0  0
   58.8420   34.5282   46.7138 H   0  0  0  0  0  0  0  0  0  0  0  0
   58.3762   35.0877   44.3305 H   0  0  0  0  0  0  0  0  0  0  0  0
   57.9128   33.2725   42.6832 H   0  0  0  0  0  0  0  0  0  0  0  0
   57.9310   30.8893   43.4126 H   0  0  0  0  0  0  0  0  0  0  0  0
   56.7556   24.4565   46.9229 H   0  0  0  0  0  0  0  0  0  0  0  0
   59.1221   25.4189   47.5800 H   0  0  0  0  0  0  0  0  0  0  0  0
   61.0113   26.6218   47.2925 H   0  0  0  0  0  0  0  0  0  0  0  0
   61.6270   28.3079   47.4717 H   0  0  0  0  0  0  0  0  0  0  0  0
   59.7891   30.3300   48.7769 H   0  0  0  0  0  0  0  0  0  0  0  0
   58.9533   30.4074   50.3664 H   0  0  0  0  0  0  0  0  0  0  0  0
   60.9057   31.1126   51.2299 H   0  0  0  0  0  0  0  0  0  0  0  0
   61.5008   29.4033   50.9402 H   0  0  0  0  0  0  0  0  0  0  0  0
   63.0719   31.1319   50.1203 H   0  0  0  0  0  0  0  0  0  0  0  0
   62.3730   30.0148   48.8145 H   0  0  0  0  0  0  0  0  0  0  0  0
   61.0140   31.6960   48.0950 H   0  0  0  0  0  0  0  0  0  0  0  0
   63.7752   32.7328   48.2004 H   0  0  0  0  0  0  0  0  0  0  0  0
   63.1147   31.5019   47.0549 H   0  0  0  0  0  0  0  0  0  0  0  0
   63.1756   34.2495   46.6071 H   0  0  0  0  0  0  0  0  0  0  0  0
   62.0793   33.0458   45.7842 H   0  0  0  0  0  0  0  0  0  0  0  0
   62.3737   34.9736   48.7555 H   0  0  0  0  0  0  0  0  0  0  0  0
   60.5892   35.1329   48.9485 H   0  0  0  0  0  0  0  0  0  0  0  0
   62.0262   33.3013   50.3212 H   0  0  0  0  0  0  0  0  0  0  0  0
   60.3340   32.9904   49.7492 H   0  0  0  0  0  0  0  0  0  0  0  0
  1  2  1  0
  2  3  1  0
  3  4  2  0
  4  5  1  0
  5  6  2  0
  6  7  1  0
  7  8  2  0
  8  9  1  0
  9 10  1  0
 10 11  2  0
 10 12  1  0
 12 13  1  0
 13 14  1  0
 14 15  2  0
 15 16  1  0
 16 17  1  0
 17 18  1  0
 18 19  1  0
 19 20  2  0
 19 21  1  0
 21 22  1  0
 22 23  1  0
 23 24  1  0
 24 25  1  0
 25 26  1  0
 26 27  1  0
 27 28  1  0
 28 29  1  0
 29 30  1  0
 17 31  1  0
 31 32  2  0
  8  3  1  0
 31  9  1  0
 16 12  2  0
 30 25  1  0
  1 33  1  0
  1 34  1  0
  1 35  1  0
  4 36  1  0
  5 37  1  0
  6 38  1  0
  7 39  1  0
 14 40  1  0
 15 41  1  0
 18 42  1  0
 18 43  1  0
 22 44  1  0
 22 45  1  0
 23 46  1  0
 23 47  1  0
 24 48  1  0
 24 49  1  0
 25 50  1  0
 26 51  1  0
 26 52  1  0
 27 53  1  0
 27 54  1  0
 29 55  1  0
 29 56  1  0
 30 57  1  0
 30 58  1  0
M  CHG  2  21  -1  25   1
M  END
>  <UniqueID>  (64) 
54

>  <SMILES>  (64) 
COc1ccccc1-n1c(=O)c2sccc2n(CC(=O)[N-]CCC[NH+]2CCOCC2)c1=O

>  <Energy>  (64) 
116.17670274924323

>  <Genealogy>  (64) 
COc1ccccc1-n1c(=O)c2sccc2n(CC(=O)[N-]CCC[NH+]2CCOCC2)c1=O (protonated)
COc1ccccc1-n1c(=O)c2sccc2n(CC(=O)[N-]CCC[NH+]2CCOCC2)c1=O (3D coordinates assigned)
COc1ccccc1-n1c(=O)c2sccc2n(CC(=O)[N-]CCC[NH+]2CCOCC2)c1=O (nonaromatic ring conformer: 116.17670274924323 kcal/mol)

>  <smiles>  (64) 
COc1ccccc1-n1c(=O)c2sccc2n(CC(=O)NCCCN2CCOCC2)c1=O

>  <score_type>  (64) 
oracle

>  <origin>  (64) 
adg

>  <m_score__min__energy>  (64) 
-6.5700000000000003

>  <m_primary>  (64) 
energy

$$$$
64:0
     RDKit          3D

 66 70  0  0  0  0  0  0  0  0999 V2000
   63.3990   31.7230   47.4980 C   0  0  0  0  0  0  0  0  0  0  0  0
   63.1340   33.0710   46.8360 C   0  0  0  0  0  0  0  0  0  0  0  0
   62.9600   34.1750   47.8830 C   0  0  0  0  0  0  0  0  0  0  0  0
   61.7970   33.8720   48.7760 C   0  0  0  0  0  0  0  0  0  0  0  0
   61.7780   34.0710   50.1170 N   0  0  0  0  0  0  0  0  0  0  0  0
   60.6130   33.6290   50.5850 N   0  0  0  0  0  0  0  0  0  0  0  0
   60.2350   33.6640   51.9910 C   0  0  0  0  0  0  0  0  0  0  0  0
   59.8960   33.1340   49.5550 C   0  0  0  0  0  0  0  0  0  0  0  0
   58.6450   32.5270   49.5100 C   0  0  0  0  0  0  0  0  0  0  0  0
   57.9430   32.3740   50.5430 O   0  0  0  0  0  0  0  0  0  0  0  0
   58.1950   32.0930   48.2960 N   0  0  0  0  0  0  0  0  0  0  0  0
   58.9400   32.2380   47.1460 C   0  0  0  0  0  0  0  0  0  0  0  0
   58.4080   31.7390   45.8460 C   0  0  0  0  0  0  0  0  0  0  0  0
   58.2820   32.6310   44.7630 C   0  0  0  0  0  0  0  0  0  0  0  0
   57.7690   32.2030   43.5400 C   0  0  0  0  0  0  0  0  0  0  0  0
   57.3850   30.8770   43.3650 C   0  0  0  0  0  0  0  0  0  0  0  0
   57.5250   29.9560   44.4100 C   0  0  0  0  0  0  0  0  0  0  0  0
   57.1170   28.5950   44.1980 N   0  0  0  0  0  0  0  0  0  0  0  0
   58.0190   27.4840   44.3130 C   0  0  0  0  0  0  0  0  0  0  0  0
   59.2640   27.6850   44.2540 O   0  0  0  0  0  0  0  0  0  0  0  0
   57.5080   26.1010   44.4690 C   0  0  0  0  0  0  0  0  0  0  0  0
   57.4120   25.2380   43.3640 C   0  0  0  0  0  0  0  0  0  0  0  0
   56.9100   23.9430   43.5160 C   0  0  0  0  0  0  0  0  0  0  0  0
   56.4970   23.4820   44.7760 C   0  0  0  0  0  0  0  0  0  0  0  0
   55.9540   22.1550   44.9280 N   0  0  0  0  0  0  0  0  0  0  0  0
   54.8870   21.8730   45.8920 C   0  0  0  0  0  0  0  0  0  0  0  0
   55.3400   20.7840   46.8830 C   0  0  0  0  0  0  0  0  0  0  0  0
   56.2810   19.7910   46.3000 N   0  0  0  0  0  0  0  0  0  0  0  0
   57.6650   20.0190   46.7510 C   0  0  0  0  0  0  0  0  0  0  0  0
   56.1910   19.6950   44.8270 C   0  0  0  0  0  0  0  0  0  0  0  0
   56.5010   21.0410   44.1460 C   0  0  0  0  0  0  0  0  0  0  0  0
   56.5780   24.3470   45.8780 C   0  0  0  0  0  0  0  0  0  0  0  0
   57.0790   25.6420   45.7270 C   0  0  0  0  0  0  0  0  0  0  0  0
   58.0110   30.3890   45.6610 C   0  0  0  0  0  0  0  0  0  0  0  0
   58.0690   29.4830   46.7150 O   0  0  0  0  0  0  0  0  0  0  0  0
   60.1710   32.8360   47.2140 N   0  0  0  0  0  0  0  0  0  0  0  0
   60.6120   33.2720   48.4160 C   0  0  0  0  0  0  0  0  0  0  0  0
   63.3759   31.8406   48.5914 H   0  0  0  0  0  0  0  0  0  0  0  0
   62.6249   31.0048   47.1900 H   0  0  0  0  0  0  0  0  0  0  0  0
   64.3874   31.3513   47.1900 H   0  0  0  0  0  0  0  0  0  0  0  0
   63.9833   33.3244   46.1845 H   0  0  0  0  0  0  0  0  0  0  0  0
   62.2061   32.9959   46.2501 H   0  0  0  0  0  0  0  0  0  0  0  0
   63.8743   34.2451   48.4905 H   0  0  0  0  0  0  0  0  0  0  0  0
   62.7736   35.1285   47.3671 H   0  0  0  0  0  0  0  0  0  0  0  0
   61.1368   33.5805   52.6153 H   0  0  0  0  0  0  0  0  0  0  0  0
   59.7242   34.6133   52.2098 H   0  0  0  0  0  0  0  0  0  0  0  0
   59.5585   32.8247   52.2098 H   0  0  0  0  0  0  0  0  0  0  0  0
   58.5926   33.6792   44.8843 H   0  0  0  0  0  0  0  0  0  0  0  0
   57.6672   32.9167   42.7091 H   0  0  0  0  0  0  0  0  0  0  0  0
   56.9692   30.5507   42.4003 H   0  0  0  0  0  0  0  0  0  0  0  0
   56.1750   28.4260   43.7770 H   0  0  0  0  0  0  0  0  0  0  0  0
   57.7347   25.5849   42.3713 H   0  0  0  0  0  0  0  0  0  0  0  0
   56.8378   23.2795   42.6416 H   0  0  0  0  0  0  0  0  0  0  0  0
   54.6463   22.7918   46.4468 H   0  0  0  0  0  0  0  0  0  0  0  0
   53.9981   21.5180   45.3500 H   0  0  0  0  0  0  0  0  0  0  0  0
   55.8371   21.2745   47.7328 H   0  0  0  0  0  0  0  0  0  0  0  0
   54.4379   20.2306   47.1828 H   0  0  0  0  0  0  0  0  0  0  0  0
   57.6962   20.0241   47.8505 H   0  0  0  0  0  0  0  0  0  0  0  0
   58.3120   19.2153   46.3696 H   0  0  0  0  0  0  0  0  0  0  0  0
   58.0201   20.9877   46.3696 H   0  0  0  0  0  0  0  0  0  0  0  0
   56.9124   18.9432   44.4745 H   0  0  0  0  0  0  0  0  0  0  0  0
   55.1617   19.4086   44.5654 H   0  0  0  0  0  0  0  0  0  0  0  0
   57.5912   21.1603   44.0611 H   0  0  0  0  0  0  0  0  0  0  0  0
   56.0379   21.0479   43.1483 H   0  0  0  0  0  0  0  0  0  0  0  0
   56.2445   24.0026   46.8680 H   0  0  0  0  0  0  0  0  0  0  0  0
   57.1385   26.3087   46.5999 H   0  0  0  0  0  0  0  0  0  0  0  0
  1  2  1  0
  2  3  1  0
  3  4  1  0
  4  5  2  0
  5  6  1  0
  6  7  1  0
  6  8  1  0
  8  9  1  0
  9 10  2  0
  9 11  1  0
 11 12  1  0
 12 13  1  0
 13 14  2  0
 14 15  1  0
 15 16  2  0
 16 17  1  0
 17 18  1  0
 18 19  1  0
 19 20  2  0
 19 21  1  0
 21 22  2  0
 22 23  1  0
 23 24  2  0
 24 25  1  0
 25 26  1  0
 26 27  1  0
 27 28  1  0
 28 29  1  0
 28 30  1  0
 30 31  1  0
 24 32  1  0
 32 33  2  0
 17 34  2  0
 34 35  1  0
 12 36  2  0
 36 37  1  0
 37  4  1  0
 37  8  2  0
 34 13  1  0
 33 21  1  0
 31 25  1  0
  1 38  1  0
  1 39  1  0
  1 40  1  0
  2 41  1  0
  2 42  1  0
  3 43  1  0
  3 44  1  0
  7 45  1  0
  7 46  1  0
  7 47  1  0
 14 48  1  0
 15 49  1  0
 16 50  1  0
 18 51  1  0
 22 52  1  0
 23 53  1  0
 26 54  1  0
 26 55  1  0
 27 56  1  0
 27 57  1  0
 29 58  1  0
 29 59  1  0
 29 60  1  0
 30 61  1  0
 30 62  1  0
 31 63  1  0
 31 64  1  0
 32 65  1  0
 33 66  1  0
M  CHG  2  11  -1  35  -1
M  END
>  <UniqueID>  (65) 
55

>  <SMILES>  (65) 
CCCc1nn(C)c2c(=O)[n-]c(-c3cccc(NC(=O)c4ccc(N5CCN(C)CC5)cc4)c3[O-])nc12

>  <Energy>  (65) 
130.09369273683518

>  <Genealogy>  (65) 
CCCc1nn(C)c2c(=O)[n-]c(-c3cccc(NC(=O)c4ccc(N5CCN(C)CC5)cc4)c3[O-])nc12 (protonated)
CCCc1nn(C)c2c(=O)[n-]c(-c3cccc(NC(=O)c4ccc(N5CCN(C)CC5)cc4)c3[O-])nc12 (3D coordinates assigned)
CCCc1nn(C)c2c(=O)[n-]c(-c3cccc(NC(=O)c4ccc(N5CCN(C)CC5)cc4)c3[O-])nc12 (nonaromatic ring conformer: 130.09369273683518 kcal/mol)

>  <smiles>  (65) 
CCCc1nn(C)c2c(=O)[nH]c(-c3cccc(NC(=O)c4ccc(N5CCN(C)CC5)cc4)c3O)nc12

>  <score_type>  (65) 
oracle

>  <origin>  (65) 
adg

>  <m_score__min__energy>  (65) 
-11.59

>  <m_primary>  (65) 
energy

$$$$
65:0
     RDKit          3D

 38 40  0  0  0  0  0  0  0  0999 V2000
   56.4256   26.0201   46.0312 H   0  0  0  0  0  0  0  0  0  0  0  0
   56.8550   27.0320   46.0720 C   0  0  0  0  0  0  0  0  0  0  0  0
   56.3410   28.0190   45.2930 N   0  0  0  0  0  0  0  0  0  0  0  0
   56.8220   29.2900   45.3170 C   0  0  0  0  0  0  0  0  0  0  0  0
   56.2920   30.1660   44.5090 N   0  0  0  0  0  0  0  0  0  0  0  0
   56.8540   30.6940   43.2980 C   0  0  0  0  0  0  0  0  0  0  0  0
   56.2800   30.5230   42.1900 O   0  0  0  0  0  0  0  0  0  0  0  0
   58.1510   31.4340   43.3550 C   0  0  0  0  0  0  0  0  0  0  0  0
   58.9497   30.7489   43.6755 H   0  0  0  0  0  0  0  0  0  0  0  0
   58.3875   31.8342   42.3581 H   0  0  0  0  0  0  0  0  0  0  0  0
   58.0420   32.5620   44.3300 C   0  0  0  0  0  0  0  0  0  0  0  0
   59.1540   33.8140   44.4960 S   0  0  0  0  0  0  0  0  0  0  0  0
   58.3910   34.5680   45.7910 C   0  0  0  0  0  0  0  0  0  0  0  0
   58.7326   35.4837   46.2958 H   0  0  0  0  0  0  0  0  0  0  0  0
   57.2550   33.8360   46.1140 C   0  0  0  0  0  0  0  0  0  0  0  0
   56.5693   34.1167   46.9270 H   0  0  0  0  0  0  0  0  0  0  0  0
   57.0650   32.7070   45.3070 C   0  0  0  0  0  0  0  0  0  0  0  0
   56.2269   32.0060   45.4340 H   0  0  0  0  0  0  0  0  0  0  0  0
   57.9100   29.5940   46.1650 C   0  0  0  0  0  0  0  0  0  0  0  0
   58.3164   30.6156   46.1976 H   0  0  0  0  0  0  0  0  0  0  0  0
   58.4710   28.5850   46.9670 C   0  0  0  0  0  0  0  0  0  0  0  0
   59.5730   28.8100   47.8090 O   0  0  0  0  0  0  0  0  0  0  0  0
   60.7510   29.5370   47.4550 C   0  0  0  0  0  0  0  0  0  0  0  0
   61.5993   29.1516   48.0397 H   0  0  0  0  0  0  0  0  0  0  0  0
   60.9297   29.4057   46.3776 H   0  0  0  0  0  0  0  0  0  0  0  0
   60.5900   31.0090   47.7350 C   0  0  0  0  0  0  0  0  0  0  0  0
   59.4800   31.4730   48.4610 C   0  0  0  0  0  0  0  0  0  0  0  0
   58.7178   30.7618   48.8122 H   0  0  0  0  0  0  0  0  0  0  0  0
   59.3420   32.8360   48.7380 C   0  0  0  0  0  0  0  0  0  0  0  0
   58.4674   33.1954   49.3000 H   0  0  0  0  0  0  0  0  0  0  0  0
   60.3120   33.7440   48.3030 C   0  0  0  0  0  0  0  0  0  0  0  0
   60.1978   34.8168   48.5177 H   0  0  0  0  0  0  0  0  0  0  0  0
   61.4270   33.2870   47.5950 C   0  0  0  0  0  0  0  0  0  0  0  0
   62.3720   34.1660   47.1830 F   0  0  0  0  0  0  0  0  0  0  0  0
   61.5720   31.9240   47.3180 C   0  0  0  0  0  0  0  0  0  0  0  0
   62.4575   31.5668   46.7719 H   0  0  0  0  0  0  0  0  0  0  0  0
   57.9260   27.3000   46.9230 C   0  0  0  0  0  0  0  0  0  0  0  0
   58.3402   26.5025   47.5574 H   0  0  0  0  0  0  0  0  0  0  0  0
  1  2  1  0
  2  3  1  0
  3  4  1  0
  4  5  2  0
  5  6  1  0
  6  7  2  0
  6  8  1  0
  8  9  1  0
  8 10  1  0
  8 11  1  0
 11 12  1  0
 12 13  1  0
 13 14  1  0
 13 15  2  0
 15 16  1  0
 15 17  1  0
 17 18  1  0
  4 19  1  0
 19 20  1  0
 19 21  2  0
 21 22  1  0
 22 23  1  0
 23 24  1  0
 23 25  1  0
 23 26  1  0
 26 27  2  0
 27 28  1  0
 27 29  1  0
 29 30  1  0
 29 31  2  0
 31 32  1  0
 31 33  1  0
 33 34  1  0
 33 35  2  0
 35 36  1  0
 21 37  1  0
 37 38  1  0
 37  2  2  0
 17 11  2  0
 35 26  1  0
M  CHG  1   3  -1
M  END
>  <UniqueID>  (66) 
56

>  <SMILES>  (66) 
O=C(Cc1cccs1)/N=c1\cc(OCc2cccc(F)c2)cc[n-]1

>  <Energy>  (66) 
68.88253583501847

>  <Genealogy>  (66) 
O=C(Cc1cccs1)N=c1cc(OCc2cccc(F)c2)cc[n-]1 (protonated)
O=C(Cc1cccs1)/N=c1\cc(OCc2cccc(F)c2)cc[n-]1 (cis-trans isomerization)
O=C(Cc1cccs1)/N=c1\cc(OCc2cccc(F)c2)cc[n-]1 (3D coordinates assigned)
O=C(Cc1cccs1)/N=c1\cc(OCc2cccc(F)c2)cc[n-]1 (optimized conformer: 68.88253583501847 kcal/mol)

>  <smiles>  (66) 
O=C(Cc1cccs1)N=c1cc(OCc2cccc(F)c2)cc[nH]1

>  <score_type>  (66) 
oracle

>  <origin>  (66) 
adg

>  <m_score__min__energy>  (66) 
-9.8599999999999994

>  <m_primary>  (66) 
energy

$$$$
66:0
     RDKit          3D

 56 58  0  0  0  0  0  0  0  0999 V2000
   55.0740   25.2960   45.6250 C   0  0  0  0  0  0  0  0  0  0  0  0
   55.6040   26.5750   45.9540 O   0  0  0  0  0  0  0  0  0  0  0  0
   56.9540   26.7720   46.2650 C   0  0  0  0  0  0  0  0  0  0  0  0
   57.2870   27.0230   47.4540 O   0  0  0  0  0  0  0  0  0  0  0  0
   58.0170   26.5360   45.2050 C   0  0  1  0  0  0  0  0  0  0  0  0
   57.9190   25.0990   44.7090 C   0  0  0  0  0  0  0  0  0  0  0  0
   57.6340   24.8410   43.5080 O   0  0  0  0  0  0  0  0  0  0  0  0
   58.0830   24.0440   45.6020 O   0  0  0  0  0  0  0  0  0  0  0  0
   57.7640   27.4400   44.0190 C   0  0  0  0  0  0  0  0  0  0  0  0
   58.3010   28.6620   43.9660 C   0  0  0  0  0  0  0  0  0  0  0  0
   58.9440   29.2930   45.1850 C   0  0  1  0  0  0  0  0  0  0  0  0
   57.8530   30.0840   45.9580 C   0  0  0  0  0  0  0  0  0  0  0  0
   58.0610   31.5820   45.8950 C   0  0  0  0  0  0  0  0  0  0  0  0
   58.2070   32.3360   47.0720 C   0  0  0  0  0  0  0  0  0  0  0  0
   58.3730   33.7230   47.0040 C   0  0  0  0  0  0  0  0  0  0  0  0
   58.3930   34.3670   45.7650 C   0  0  0  0  0  0  0  0  0  0  0  0
   58.2430   33.6260   44.5900 C   0  0  0  0  0  0  0  0  0  0  0  0
   58.0760   32.2390   44.6520 C   0  0  0  0  0  0  0  0  0  0  0  0
   59.7470   28.2950   45.9960 N   0  0  1  0  0  0  0  0  0  0  0  0
   60.0920   28.7450   47.6830 S   0  0  0  0  0  0  0  0  0  0  0  0
   58.8060   28.6770   48.4610 O   0  0  0  0  0  0  0  0  0  0  0  0
   60.9890   27.7130   48.3090 O   0  0  0  0  0  0  0  0  0  0  0  0
   60.8000   30.3510   47.9780 C   0  0  0  0  0  0  0  0  0  0  0  0
   61.7320   30.9130   47.0890 C   0  0  0  0  0  0  0  0  0  0  0  0
   62.2920   32.1680   47.3420 C   0  0  0  0  0  0  0  0  0  0  0  0
   61.9740   32.8610   48.5160 C   0  0  0  0  0  0  0  0  0  0  0  0
   62.5660   34.2170   48.7660 C   0  0  0  0  0  0  0  0  0  0  0  0
   61.1060   32.2730   49.4450 C   0  0  0  0  0  0  0  0  0  0  0  0
   60.5460   31.0190   49.1890 C   0  0  0  0  0  0  0  0  0  0  0  0
   59.4820   26.8380   45.6850 C   0  0  1  0  0  0  0  0  0  0  0  0
   60.0540   25.8150   46.6900 C   0  0  0  0  0  0  0  0  0  0  0  0
   54.8456   24.7449   46.5492 H   0  0  0  0  0  0  0  0  0  0  0  0
   54.1536   25.4210   45.0357 H   0  0  0  0  0  0  0  0  0  0  0  0
   55.8131   24.7334   45.0357 H   0  0  0  0  0  0  0  0  0  0  0  0
   57.1311   27.0874   43.1913 H   0  0  0  0  0  0  0  0  0  0  0  0
   58.2761   29.2213   43.0191 H   0  0  0  0  0  0  0  0  0  0  0  0
   59.7134   30.0219   44.8907 H   0  0  0  0  0  0  0  0  0  0  0  0
   56.8713   29.8466   45.5222 H   0  0  0  0  0  0  0  0  0  0  0  0
   57.9126   29.7850   47.0149 H   0  0  0  0  0  0  0  0  0  0  0  0
   58.1906   31.8334   48.0503 H   0  0  0  0  0  0  0  0  0  0  0  0
   58.4881   34.3079   47.9285 H   0  0  0  0  0  0  0  0  0  0  0  0
   58.5268   35.4576   45.7141 H   0  0  0  0  0  0  0  0  0  0  0  0
   58.2563   34.1345   43.6147 H   0  0  0  0  0  0  0  0  0  0  0  0
   57.9559   31.6597   43.7247 H   0  0  0  0  0  0  0  0  0  0  0  0
   60.7110   28.4260   45.6020 H   0  0  0  0  0  0  0  0  0  0  0  0
   62.0238   30.3592   46.1845 H   0  0  0  0  0  0  0  0  0  0  0  0
   62.9865   32.6138   46.6147 H   0  0  0  0  0  0  0  0  0  0  0  0
   62.6415   34.3900   49.8497 H   0  0  0  0  0  0  0  0  0  0  0  0
   63.5683   34.2682   48.3158 H   0  0  0  0  0  0  0  0  0  0  0  0
   61.9221   34.9869   48.3158 H   0  0  0  0  0  0  0  0  0  0  0  0
   60.8644   32.8006   50.3795 H   0  0  0  0  0  0  0  0  0  0  0  0
   59.8987   30.5486   49.9437 H   0  0  0  0  0  0  0  0  0  0  0  0
   60.1063   26.6637   44.7962 H   0  0  0  0  0  0  0  0  0  0  0  0
   59.8604   26.1613   47.7160 H   0  0  0  0  0  0  0  0  0  0  0  0
   59.5707   24.8391   46.5350 H   0  0  0  0  0  0  0  0  0  0  0  0
   61.1385   25.7158   46.5350 H   0  0  0  0  0  0  0  0  0  0  0  0
  1  2  1  0
  2  3  1  0
  3  4  2  0
  5  3  1  1
  5  6  1  0
  6  7  2  0
  6  8  1  0
  5  9  1  0
  9 10  2  0
 10 11  1  0
 11 12  1  0
 12 13  1  0
 13 14  2  0
 14 15  1  0
 15 16  2  0
 16 17  1  0
 17 18  2  0
 11 19  1  0
 19 20  1  0
 20 21  2  0
 20 22  2  0
 20 23  1  0
 23 24  2  0
 24 25  1  0
 25 26  2  0
 26 27  1  0
 26 28  1  0
 28 29  2  0
 19 30  1  0
 30 31  1  0
 30  5  1  0
 18 13  1  0
 29 23  1  0
  1 32  1  0
  1 33  1  0
  1 34  1  0
  9 35  1  0
 10 36  1  0
 11 37  1  6
 12 38  1  0
 12 39  1  0
 14 40  1  0
 15 41  1  0
 16 42  1  0
 17 43  1  0
 18 44  1  0
 19 45  1  6
 24 46  1  0
 25 47  1  0
 27 48  1  0
 27 49  1  0
 27 50  1  0
 28 51  1  0
 29 52  1  0
 30 53  1  6
 31 54  1  0
 31 55  1  0
 31 56  1  0
M  CHG  2   8  -1  19   1
M  END
>  <UniqueID>  (67) 
57

>  <SMILES>  (67) 
COC(=O)[C@@]1(C(=O)[O-])C=C[C@@H](Cc2ccccc2)[NH+](S(=O)(=O)c2ccc(C)cc2)C1C

>  <Energy>  (67) 
94.77089348212488

>  <Genealogy>  (67) 
COC(=O)C1(C(=O)[O-])C=CC(Cc2ccccc2)[NH+](S(=O)(=O)c2ccc(C)cc2)C1C (protonated)
COC(=O)[C@@]1(C(=O)[O-])C=C[C@@H](Cc2ccccc2)[NH+](S(=O)(=O)c2ccc(C)cc2)C1C (chirality)
COC(=O)[C@@]1(C(=O)[O-])C=C[C@@H](Cc2ccccc2)[NH+](S(=O)(=O)c2ccc(C)cc2)C1C (3D coordinates assigned)
COC(=O)[C@@]1(C(=O)[O-])C=C[C@@H](Cc2ccccc2)[NH+](S(=O)(=O)c2ccc(C)cc2)C1C (nonaromatic ring conformer: 94.77089348212488 kcal/mol)

>  <smiles>  (67) 
COC(=O)C1(C(=O)O)C=CC(Cc2ccccc2)N(S(=O)(=O)c2ccc(C)cc2)C1C

>  <score_type>  (67) 
oracle

>  <origin>  (67) 
adg

>  <m_score__min__energy>  (67) 
-7.8300000000000001

>  <m_primary>  (67) 
energy

$$$$
67:0
     RDKit          3D

 47 48  0  0  0  0  0  0  0  0999 V2000
   61.8470   31.6400   48.0260 C   0  0  0  0  0  0  0  0  0  0  0  0
   61.3800   30.9090   46.7730 C   0  0  0  0  0  0  0  0  0  0  0  0
   59.9700   30.6990   46.8100 O   0  0  0  0  0  0  0  0  0  0  0  0
   59.0540   31.6870   47.1930 C   0  0  0  0  0  0  0  0  0  0  0  0
   58.3210   31.5130   48.2040 O   0  0  0  0  0  0  0  0  0  0  0  0
   58.9400   32.9150   46.3810 C   0  0  0  0  0  0  0  0  0  0  0  0
   59.7240   34.0380   46.5740 C   0  0  0  0  0  0  0  0  0  0  0  0
   59.3410   34.9560   45.6190 C   0  0  0  0  0  0  0  0  0  0  0  0
   58.3350   34.3670   44.8840 C   0  0  0  0  0  0  0  0  0  0  0  0
   58.0820   33.1260   45.3520 N   0  0  0  0  0  0  0  0  0  0  0  0
   57.0350   32.2410   44.8300 C   0  0  0  0  0  0  0  0  0  0  0  0
   57.4790   31.5010   43.5560 C   0  0  0  0  0  0  0  0  0  0  0  0
   57.3870   29.9690   43.6670 C   0  0  0  0  0  0  0  0  0  0  0  0
   56.5950   29.5270   44.8600 C   0  0  0  0  0  0  0  0  0  0  0  0
   55.3520   29.7360   44.9050 O   0  0  0  0  0  0  0  0  0  0  0  0
   57.2620   28.8970   45.9590 N   0  0  0  0  0  0  0  0  0  0  0  0
   57.4990   27.4590   46.0470 C   0  0  0  0  0  0  0  0  0  0  0  0
   58.9930   27.1510   46.1730 C   0  0  0  0  0  0  0  0  0  0  0  0
   59.5140   27.5280   47.5300 C   0  0  0  0  0  0  0  0  0  0  0  0
   60.4280   26.7470   48.2370 C   0  0  0  0  0  0  0  0  0  0  0  0
   60.7910   27.5520   49.6710 S   0  0  0  0  0  0  0  0  0  0  0  0
   59.7980   28.8640   49.3240 C   0  0  0  0  0  0  0  0  0  0  0  0
   59.5610   30.0200   50.2360 C   0  0  0  0  0  0  0  0  0  0  0  0
   59.1720   28.6960   48.1390 N   0  0  0  0  0  0  0  0  0  0  0  0
   61.5003   31.0973   48.9178 H   0  0  0  0  0  0  0  0  0  0  0  0
   62.9458   31.6916   48.0323 H   0  0  0  0  0  0  0  0  0  0  0  0
   61.4320   32.6587   48.0323 H   0  0  0  0  0  0  0  0  0  0  0  0
   61.6326   31.5113   45.8879 H   0  0  0  0  0  0  0  0  0  0  0  0
   61.8827   29.9318   46.7247 H   0  0  0  0  0  0  0  0  0  0  0  0
   60.5017   34.1726   47.3402 H   0  0  0  0  0  0  0  0  0  0  0  0
   59.7578   35.9634   45.4723 H   0  0  0  0  0  0  0  0  0  0  0  0
   57.8136   34.8395   44.0385 H   0  0  0  0  0  0  0  0  0  0  0  0
   56.7826   31.4982   45.6010 H   0  0  0  0  0  0  0  0  0  0  0  0
   56.1653   32.8633   44.5725 H   0  0  0  0  0  0  0  0  0  0  0  0
   56.8388   31.8280   42.7234 H   0  0  0  0  0  0  0  0  0  0  0  0
   58.5383   31.7486   43.3930 H   0  0  0  0  0  0  0  0  0  0  0  0
   56.9051   29.5777   42.7589 H   0  0  0  0  0  0  0  0  0  0  0  0
   58.4095   29.5800   43.7816 H   0  0  0  0  0  0  0  0  0  0  0  0
   56.9752   27.0623   46.9292 H   0  0  0  0  0  0  0  0  0  0  0  0
   57.1224   26.9870   45.1276 H   0  0  0  0  0  0  0  0  0  0  0  0
   59.1517   26.0741   46.0145 H   0  0  0  0  0  0  0  0  0  0  0  0
   59.5342   27.7389   45.4171 H   0  0  0  0  0  0  0  0  0  0  0  0
   60.8384   25.7784   47.9154 H   0  0  0  0  0  0  0  0  0  0  0  0
   59.6301   29.6829   51.2808 H   0  0  0  0  0  0  0  0  0  0  0  0
   60.3189   30.7952   50.0499 H   0  0  0  0  0  0  0  0  0  0  0  0
   58.5592   30.4345   50.0499 H   0  0  0  0  0  0  0  0  0  0  0  0
   58.5020   29.3880   47.7360 H   0  0  0  0  0  0  0  0  0  0  0  0
  1  2  1  0
  2  3  1  0
  3  4  1  0
  4  5  2  0
  4  6  1  0
  6  7  2  0
  7  8  1  0
  8  9  2  0
  9 10  1  0
 10 11  1  0
 11 12  1  0
 12 13  1  0
 13 14  1  0
 14 15  2  0
 14 16  1  0
 16 17  1  0
 17 18  1  0
 18 19  1  0
 19 20  2  0
 20 21  1  0
 21 22  1  0
 22 23  1  0
 22 24  2  0
 10  6  1  0
 24 19  1  0
  1 25  1  0
  1 26  1  0
  1 27  1  0
  2 28  1  0
  2 29  1  0
  7 30  1  0
  8 31  1  0
  9 32  1  0
 11 33  1  0
 11 34  1  0
 12 35  1  0
 12 36  1  0
 13 37  1  0
 13 38  1  0
 17 39  1  0
 17 40  1  0
 18 41  1  0
 18 42  1  0
 20 43  1  0
 23 44  1  0
 23 45  1  0
 23 46  1  0
 24 47  1  0
M  CHG  2  16  -1  24   1
M  END
>  <UniqueID>  (68) 
58

>  <SMILES>  (68) 
CCOC(=O)c1cccn1CCCC(=O)[N-]CCc1csc(C)[nH+]1

>  <Energy>  (68) 
85.08297300832709

>  <Genealogy>  (68) 
CCOC(=O)c1cccn1CCCC(=O)[N-]CCc1csc(C)[nH+]1 (protonated)
CCOC(=O)c1cccn1CCCC(=O)[N-]CCc1csc(C)[nH+]1 (3D coordinates assigned)
CCOC(=O)c1cccn1CCCC(=O)[N-]CCc1csc(C)[nH+]1 (optimized conformer: 85.08297300832709 kcal/mol)

>  <smiles>  (68) 
CCOC(=O)c1cccn1CCCC(=O)NCCc1csc(C)n1

>  <score_type>  (68) 
oracle

>  <origin>  (68) 
adg

>  <m_score__min__energy>  (68) 
-6.9299999999999997

>  <m_primary>  (68) 
energy

$$$$
68:0
     RDKit          3D

 46 48  0  0  0  0  0  0  0  0999 V2000
   63.9060   33.2930   50.4100 C   0  0  0  0  0  0  0  0  0  0  0  0
   63.2630   33.5070   49.0690 C   0  0  0  0  0  0  0  0  0  0  0  0
   64.0160   33.3930   47.8900 C   0  0  0  0  0  0  0  0  0  0  0  0
   63.3950   33.5420   46.6470 C   0  0  0  0  0  0  0  0  0  0  0  0
   62.0220   33.8010   46.5700 C   0  0  0  0  0  0  0  0  0  0  0  0
   61.2550   33.9220   47.7450 C   0  0  0  0  0  0  0  0  0  0  0  0
   59.7970   34.1650   47.6740 C   0  0  0  0  0  0  0  0  0  0  0  0
   59.3530   35.3220   47.4310 O   0  0  0  0  0  0  0  0  0  0  0  0
   58.8810   33.0920   47.9130 N   0  0  0  0  0  0  0  0  0  0  0  0
   57.5160   33.1070   47.4160 C   0  0  0  0  0  0  0  0  0  0  0  0
   57.5490   33.0290   45.9280 C   0  0  0  0  0  0  0  0  0  0  0  0
   58.1260   33.9460   45.1270 N   0  0  0  0  0  0  0  0  0  0  0  0
   58.0230   33.4790   43.8920 N   0  0  0  0  0  0  0  0  0  0  0  0
   57.3910   32.2980   43.9910 C   0  0  0  0  0  0  0  0  0  0  0  0
   57.0350   31.2250   42.6050 S   0  0  0  0  0  0  0  0  0  0  0  0
   57.2750   29.6840   43.5550 C   0  0  0  0  0  0  0  0  0  0  0  0
   56.0890   29.4330   44.4300 C   0  0  0  0  0  0  0  0  0  0  0  0
   55.1410   30.2620   44.4380 O   0  0  0  0  0  0  0  0  0  0  0  0
   56.0640   28.2590   45.2560 N   0  0  0  0  0  0  0  0  0  0  0  0
   57.1340   27.6510   46.0060 C   0  0  0  0  0  0  0  0  0  0  0  0
   58.2500   28.3910   46.4500 C   0  0  0  0  0  0  0  0  0  0  0  0
   59.2670   27.7710   47.1800 C   0  0  0  0  0  0  0  0  0  0  0  0
   59.1800   26.4170   47.4940 C   0  0  0  0  0  0  0  0  0  0  0  0
   58.0740   25.6720   47.0840 C   0  0  0  0  0  0  0  0  0  0  0  0
   57.0350   26.2780   46.3480 C   0  0  0  0  0  0  0  0  0  0  0  0
   55.8390   25.4660   45.8950 C   0  0  0  0  0  0  0  0  0  0  0  0
   55.6140   24.4450   46.8000 F   0  0  0  0  0  0  0  0  0  0  0  0
   54.6910   26.2370   45.8040 F   0  0  0  0  0  0  0  0  0  0  0  0
   56.0890   24.9200   44.6480 F   0  0  0  0  0  0  0  0  0  0  0  0
   57.0920   32.0160   45.2360 O   0  0  0  0  0  0  0  0  0  0  0  0
   61.8860   33.7640   48.9910 C   0  0  0  0  0  0  0  0  0  0  0  0
   63.1847   33.5331   51.2050 H   0  0  0  0  0  0  0  0  0  0  0  0
   64.2184   32.2424   50.5034 H   0  0  0  0  0  0  0  0  0  0  0  0
   64.7857   33.9468   50.5034 H   0  0  0  0  0  0  0  0  0  0  0  0
   65.0950   33.1864   47.9444 H   0  0  0  0  0  0  0  0  0  0  0  0
   63.9883   33.4553   45.7248 H   0  0  0  0  0  0  0  0  0  0  0  0
   61.5397   33.9106   45.5875 H   0  0  0  0  0  0  0  0  0  0  0  0
   56.9654   32.2446   47.8199 H   0  0  0  0  0  0  0  0  0  0  0  0
   57.0120   34.0323   47.7320 H   0  0  0  0  0  0  0  0  0  0  0  0
   57.3983   28.8419   42.8581 H   0  0  0  0  0  0  0  0  0  0  0  0
   58.1727   29.7830   44.1830 H   0  0  0  0  0  0  0  0  0  0  0  0
   58.3199   29.4643   46.2196 H   0  0  0  0  0  0  0  0  0  0  0  0
   60.1399   28.3545   47.5081 H   0  0  0  0  0  0  0  0  0  0  0  0
   59.9853   25.9338   48.0667 H   0  0  0  0  0  0  0  0  0  0  0  0
   58.0120   24.6033   47.3369 H   0  0  0  0  0  0  0  0  0  0  0  0
   61.2939   33.8427   49.9147 H   0  0  0  0  0  0  0  0  0  0  0  0
  1  2  1  0
  2  3  2  0
  3  4  1  0
  4  5  2  0
  5  6  1  0
  6  7  1  0
  7  8  2  0
  7  9  1  0
  9 10  1  0
 10 11  1  0
 11 12  2  0
 12 13  1  0
 13 14  2  0
 14 15  1  0
 15 16  1  0
 16 17  1  0
 17 18  2  0
 17 19  1  0
 19 20  1  0
 20 21  2  0
 21 22  1  0
 22 23  2  0
 23 24  1  0
 24 25  2  0
 25 26  1  0
 26 27  1  0
 26 28  1  0
 26 29  1  0
 14 30  1  0
  6 31  2  0
 31  2  1  0
 30 11  1  0
 25 20  1  0
  1 32  1  0
  1 33  1  0
  1 34  1  0
  3 35  1  0
  4 36  1  0
  5 37  1  0
 10 38  1  0
 10 39  1  0
 16 40  1  0
 16 41  1  0
 21 42  1  0
 22 43  1  0
 23 44  1  0
 24 45  1  0
 31 46  1  0
M  CHG  2   9  -1  19  -1
M  END
>  <UniqueID>  (69) 
59

>  <SMILES>  (69) 
Cc1cccc(C(=O)[N-]Cc2nnc(SCC(=O)[N-]c3ccccc3C(F)(F)F)o2)c1

>  <Energy>  (69) 
80.3922557311841

>  <Genealogy>  (69) 
Cc1cccc(C(=O)[N-]Cc2nnc(SCC(=O)[N-]c3ccccc3C(F)(F)F)o2)c1 (protonated)
Cc1cccc(C(=O)[N-]Cc2nnc(SCC(=O)[N-]c3ccccc3C(F)(F)F)o2)c1 (3D coordinates assigned)
Cc1cccc(C(=O)[N-]Cc2nnc(SCC(=O)[N-]c3ccccc3C(F)(F)F)o2)c1 (optimized conformer: 80.3922557311841 kcal/mol)

>  <smiles>  (69) 
Cc1cccc(C(=O)NCc2nnc(SCC(=O)Nc3ccccc3C(F)(F)F)o2)c1

>  <score_type>  (69) 
oracle

>  <origin>  (69) 
adg

>  <m_score__min__energy>  (69) 
-12.06

>  <m_primary>  (69) 
energy

$$$$
69:0
     RDKit          3D

 50 54  0  0  0  0  0  0  0  0999 V2000
   61.6360   30.4550   49.5300 O   0  0  0  0  0  0  0  0  0  0  0  0
   60.5730   29.8910   49.1600 C   0  0  0  0  0  0  0  0  0  0  0  0
   60.3940   29.5910   47.7730 N   0  0  0  0  0  0  0  0  0  0  0  0
   59.5210   30.0640   46.9220 C   0  0  0  0  0  0  0  0  0  0  0  0
   59.6380   31.3780   46.6030 N   0  0  0  0  0  0  0  0  0  0  0  0
   58.7100   32.0590   45.8850 C   0  0  0  0  0  0  0  0  0  0  0  0
   58.9050   33.5240   45.6130 C   0  0  0  0  0  0  0  0  0  0  0  0
   59.5840   34.3820   46.6470 C   0  0  0  0  0  0  0  0  0  0  0  0
   58.9180   35.2810   47.2280 O   0  0  0  0  0  0  0  0  0  0  0  0
   60.9810   34.2470   46.9420 N   0  0  0  0  0  0  0  0  0  0  0  0
   61.5060   33.9130   48.2360 C   0  0  0  0  0  0  0  0  0  0  0  0
   60.7550   34.1710   49.3930 C   0  0  0  0  0  0  0  0  0  0  0  0
   61.2690   33.8470   50.6510 C   0  0  0  0  0  0  0  0  0  0  0  0
   62.5420   33.2800   50.7640 C   0  0  0  0  0  0  0  0  0  0  0  0
   63.3140   33.0490   49.6220 C   0  0  0  0  0  0  0  0  0  0  0  0
   64.9190   32.3530   49.8110 Cl  0  0  0  0  0  0  0  0  0  0  0  0
   62.8000   33.3750   48.3510 C   0  0  0  0  0  0  0  0  0  0  0  0
   63.7590   33.0880   46.9000 Cl  0  0  0  0  0  0  0  0  0  0  0  0
   59.0460   33.9500   44.1530 C   0  0  0  0  0  0  0  0  0  0  0  0
   57.7380   34.1940   44.8900 C   0  0  0  0  0  0  0  0  0  0  0  0
   57.5510   31.4080   45.4630 C   0  0  0  0  0  0  0  0  0  0  0  0
   57.4150   30.0300   45.6740 C   0  0  0  0  0  0  0  0  0  0  0  0
   56.3030   29.3260   45.1640 C   0  0  0  0  0  0  0  0  0  0  0  0
   55.3500   29.9330   44.6060 O   0  0  0  0  0  0  0  0  0  0  0  0
   56.2590   27.9740   45.2520 N   0  0  0  0  0  0  0  0  0  0  0  0
   57.2710   27.2600   45.8020 C   0  0  0  0  0  0  0  0  0  0  0  0
   58.3850   27.9100   46.3340 C   0  0  0  0  0  0  0  0  0  0  0  0
   58.4360   29.3190   46.3600 C   0  0  0  0  0  0  0  0  0  0  0  0
   59.4970   29.6680   50.0880 N   0  0  0  0  0  0  0  0  0  0  0  0
   58.2940   30.4870   50.2760 C   0  0  0  0  0  0  0  0  0  0  0  0
   58.4240   31.9120   49.7460 C   0  0  0  0  0  0  0  0  0  0  0  0
   58.2450   32.4450   51.1660 C   0  0  0  0  0  0  0  0  0  0  0  0
   58.1180   31.0190   51.6960 C   0  0  0  0  0  0  0  0  0  0  0  0
   59.7587   34.6297   49.3092 H   0  0  0  0  0  0  0  0  0  0  0  0
   60.6711   34.0383   51.5543 H   0  0  0  0  0  0  0  0  0  0  0  0
   62.9375   33.0147   51.7555 H   0  0  0  0  0  0  0  0  0  0  0  0
   59.6942   34.7984   43.8882 H   0  0  0  0  0  0  0  0  0  0  0  0
   59.3286   33.4419   43.2192 H   0  0  0  0  0  0  0  0  0  0  0  0
   57.4409   35.2187   45.1578 H   0  0  0  0  0  0  0  0  0  0  0  0
   56.6843   33.9352   44.7092 H   0  0  0  0  0  0  0  0  0  0  0  0
   56.7482   31.9735   44.9673 H   0  0  0  0  0  0  0  0  0  0  0  0
   57.2138   26.1618   45.8291 H   0  0  0  0  0  0  0  0  0  0  0  0
   59.2247   27.3226   46.7337 H   0  0  0  0  0  0  0  0  0  0  0  0
   57.5477   29.8026   49.8463 H   0  0  0  0  0  0  0  0  0  0  0  0
   59.4033   32.1392   49.2995 H   0  0  0  0  0  0  0  0  0  0  0  0
   57.7788   32.2669   48.9288 H   0  0  0  0  0  0  0  0  0  0  0  0
   59.1186   32.9902   51.5529 H   0  0  0  0  0  0  0  0  0  0  0  0
   57.4636   33.1880   51.3838 H   0  0  0  0  0  0  0  0  0  0  0  0
   58.9183   30.7234   52.3904 H   0  0  0  0  0  0  0  0  0  0  0  0
   57.2494   30.7218   52.3020 H   0  0  0  0  0  0  0  0  0  0  0  0
  1  2  2  0
  2  3  1  0
  3  4  2  3
  4  5  1  0
  5  6  1  0
  6  7  1  0
  7  8  1  0
  8  9  2  0
  8 10  1  0
 10 11  1  0
 11 12  2  0
 12 13  1  0
 13 14  2  0
 14 15  1  0
 15 16  1  0
 15 17  2  0
 17 18  1  0
  7 19  1  0
 19 20  1  0
  6 21  2  0
 21 22  1  0
 22 23  1  0
 23 24  2  0
 23 25  1  0
 25 26  1  0
 26 27  2  0
 27 28  1  0
  2 29  1  0
 29 30  1  0
 30 31  1  0
 31 32  1  0
 32 33  1  0
 28  4  1  0
 33 30  1  0
 20  7  1  0
 28 22  2  0
 17 11  1  0
 12 34  1  0
 13 35  1  0
 14 36  1  0
 19 37  1  0
 19 38  1  0
 20 39  1  0
 20 40  1  0
 21 41  1  0
 26 42  1  0
 27 43  1  0
 30 44  1  0
 31 45  1  0
 31 46  1  0
 32 47  1  0
 32 48  1  0
 33 49  1  0
 33 50  1  0
M  CHG  4   5  -1  10  -1  25  -1  29  -1
M  END
>  <UniqueID>  (70) 
60

>  <SMILES>  (70) 
O=C(N=c1[n-]c(C2(C(=O)[N-]c3cccc(Cl)c3Cl)CC2)cc2c(=O)[n-]ccc12)[N-]C1CCC1

>  <Energy>  (70) 
410.80763540177804

>  <Genealogy>  (70) 
O=C(N=c1[n-]c(C2(C(=O)[N-]c3cccc(Cl)c3Cl)CC2)cc2c(=O)[n-]ccc12)[N-]C1CCC1 (protonated)
O=C(N=c1[n-]c(C2(C(=O)[N-]c3cccc(Cl)c3Cl)CC2)cc2c(=O)[n-]ccc12)[N-]C1CCC1 (3D coordinates assigned)
O=C(N=c1[n-]c(C2(C(=O)[N-]c3cccc(Cl)c3Cl)CC2)cc2c(=O)[n-]ccc12)[N-]C1CCC1 (nonaromatic ring conformer: 410.80763540177804 kcal/mol)

>  <smiles>  (70) 
O=C(N=c1[nH]c(C2(C(=O)Nc3cccc(Cl)c3Cl)CC2)cc2c(=O)[nH]ccc12)NC1CCC1

>  <score_type>  (70) 
oracle

>  <origin>  (70) 
adg

>  <m_score__min__energy>  (70) 
-15.58

>  <m_primary>  (70) 
energy

$$$$
70:0
     RDKit          3D

 38 40  0  0  0  0  0  0  0  0999 V2000
   58.8580   30.2590   48.5430 O   0  0  0  0  0  0  0  0  0  0  0  0
   58.9730   30.6720   47.3600 C   0  0  0  0  0  0  0  0  0  0  0  0
   60.3440   30.7690   46.7440 C   0  0  0  0  0  0  0  0  0  0  0  0
   61.1010   31.9340   47.3200 C   0  0  0  0  0  0  0  0  0  0  0  0
   62.7740   32.1250   47.2000 S   0  0  0  0  0  0  0  0  0  0  0  0
   62.7690   33.5490   48.0850 C   0  0  0  0  0  0  0  0  0  0  0  0
   63.7990   34.2160   48.3640 O   0  0  0  0  0  0  0  0  0  0  0  0
   61.5300   33.9090   48.4780 N   0  0  0  0  0  0  0  0  0  0  0  0
   60.5950   33.0170   48.0530 C   0  0  0  0  0  0  0  0  0  0  0  0
   59.2460   33.2120   48.3500 O   0  0  0  0  0  0  0  0  0  0  0  0
   57.7970   31.0990   46.6580 N   0  0  0  0  0  0  0  0  0  0  0  0
   57.7760   31.5250   45.2900 C   0  0  0  0  0  0  0  0  0  0  0  0
   58.4430   32.7070   44.9290 C   0  0  0  0  0  0  0  0  0  0  0  0
   58.4660   33.1320   43.6010 C   0  0  0  0  0  0  0  0  0  0  0  0
   57.8320   32.3760   42.6170 C   0  0  0  0  0  0  0  0  0  0  0  0
   57.1750   31.1910   42.9560 C   0  0  0  0  0  0  0  0  0  0  0  0
   57.1370   30.7430   44.2920 C   0  0  0  0  0  0  0  0  0  0  0  0
   56.4050   29.4890   44.6190 C   0  0  0  0  0  0  0  0  0  0  0  0
   55.2120   29.5300   45.0230 O   0  0  0  0  0  0  0  0  0  0  0  0
   57.0370   28.2180   44.4120 N   0  0  0  0  0  0  0  0  0  0  0  0
   57.4350   27.3060   45.4450 C   0  0  0  0  0  0  0  0  0  0  0  0
   58.7990   27.1980   45.7520 C   0  0  0  0  0  0  0  0  0  0  0  0
   59.2310   26.3270   46.7580 C   0  0  0  0  0  0  0  0  0  0  0  0
   58.3010   25.5700   47.4740 C   0  0  0  0  0  0  0  0  0  0  0  0
   56.9370   25.6930   47.1970 C   0  0  0  0  0  0  0  0  0  0  0  0
   56.4970   26.5680   46.1970 C   0  0  0  0  0  0  0  0  0  0  0  0
   55.1300   26.7220   45.9860 O   0  0  0  0  0  0  0  0  0  0  0  0
   60.8985   29.8411   46.9477 H   0  0  0  0  0  0  0  0  0  0  0  0
   60.2362   30.9170   45.6594 H   0  0  0  0  0  0  0  0  0  0  0  0
   58.5460   32.4940   48.2190 H   0  0  0  0  0  0  0  0  0  0  0  0
   58.9520   33.3030   45.7008 H   0  0  0  0  0  0  0  0  0  0  0  0
   58.9844   34.0637   43.3304 H   0  0  0  0  0  0  0  0  0  0  0  0
   57.8490   32.7135   41.5702 H   0  0  0  0  0  0  0  0  0  0  0  0
   56.6811   30.6000   42.1707 H   0  0  0  0  0  0  0  0  0  0  0  0
   59.5335   27.8016   45.1987 H   0  0  0  0  0  0  0  0  0  0  0  0
   60.3036   26.2383   46.9852 H   0  0  0  0  0  0  0  0  0  0  0  0
   58.6426   24.8765   48.2565 H   0  0  0  0  0  0  0  0  0  0  0  0
   56.2064   25.1001   47.7668 H   0  0  0  0  0  0  0  0  0  0  0  0
  1  2  2  0
  2  3  1  0
  3  4  1  0
  4  5  1  0
  5  6  1  0
  6  7  2  0
  6  8  1  0
  8  9  1  0
  9 10  1  0
  2 11  1  0
 11 12  1  0
 12 13  2  0
 13 14  1  0
 14 15  2  0
 15 16  1  0
 16 17  2  0
 17 18  1  0
 18 19  2  0
 18 20  1  0
 20 21  1  0
 21 22  2  0
 22 23  1  0
 23 24  2  0
 24 25  1  0
 25 26  2  0
 26 27  1  0
  9  4  2  0
 17 12  1  0
 26 21  1  0
  3 28  1  0
  3 29  1  0
 10 30  1  0
 13 31  1  0
 14 32  1  0
 15 33  1  0
 16 34  1  0
 22 35  1  0
 23 36  1  0
 24 37  1  0
 25 38  1  0
M  CHG  4   8  -1  11  -1  20  -1  27  -1
M  END
>  <UniqueID>  (71) 
61

>  <SMILES>  (71) 
O=C(Cc1sc(=O)[n-]c1O)[N-]c1ccccc1C(=O)[N-]c1ccccc1[O-]

>  <Energy>  (71) 
82.78987899364701

>  <Genealogy>  (71) 
O=C(Cc1sc(=O)[n-]c1O)[N-]c1ccccc1C(=O)[N-]c1ccccc1[O-] (protonated)
O=C(Cc1sc(=O)[n-]c1O)[N-]c1ccccc1C(=O)[N-]c1ccccc1[O-] (3D coordinates assigned)
O=C(Cc1sc(=O)[n-]c1O)[N-]c1ccccc1C(=O)[N-]c1ccccc1[O-] (optimized conformer: 82.78987899364701 kcal/mol)

>  <smiles>  (71) 
O=C(Cc1sc(=O)[nH]c1O)Nc1ccccc1C(=O)Nc1ccccc1O

>  <score_type>  (71) 
oracle

>  <origin>  (71) 
adg

>  <m_score__min__energy>  (71) 
-15.84

>  <m_primary>  (71) 
energy

$$$$
71:0
     RDKit          3D

 35 37  0  0  0  0  0  0  0  0999 V2000
   56.9080   34.6518   45.8008 H   0  0  0  0  0  0  0  0  0  0  0  0
   57.4780   33.7110   45.8100 C   0  0  0  0  0  0  0  0  0  0  0  0
   56.9870   32.5520   45.2950 N   0  0  0  0  0  0  0  0  0  0  0  0
   57.8610   31.5310   45.4310 C   0  0  0  0  0  0  0  0  0  0  0  0
   57.5860   30.3320   45.0030 N   0  0  0  0  0  0  0  0  0  0  0  0
   56.3140   29.8220   44.5790 C   0  0  0  0  0  0  0  0  0  0  0  0
   55.6930   30.3410   43.6130 O   0  0  0  0  0  0  0  0  0  0  0  0
   55.7850   28.6660   45.2390 N   0  0  0  0  0  0  0  0  0  0  0  0
   56.5210   27.5030   45.6520 C   0  0  0  0  0  0  0  0  0  0  0  0
   57.9290   27.4760   45.6490 C   0  0  0  0  0  0  0  0  0  0  0  0
   58.4942   28.3684   45.3421 H   0  0  0  0  0  0  0  0  0  0  0  0
   58.6100   26.3180   46.0350 C   0  0  0  0  0  0  0  0  0  0  0  0
   59.7099   26.3046   46.0403 H   0  0  0  0  0  0  0  0  0  0  0  0
   57.8980   25.1780   46.4140 C   0  0  0  0  0  0  0  0  0  0  0  0
   58.4370   24.2715   46.7267 H   0  0  0  0  0  0  0  0  0  0  0  0
   56.5010   25.1890   46.3960 C   0  0  0  0  0  0  0  0  0  0  0  0
   55.9413   24.2875   46.6857 H   0  0  0  0  0  0  0  0  0  0  0  0
   55.8120   26.3450   46.0100 C   0  0  0  0  0  0  0  0  0  0  0  0
   54.4220   26.3400   45.9900 O   0  0  0  0  0  0  0  0  0  0  0  0
   59.2830   32.0240   46.2000 S   0  0  0  0  0  0  0  0  0  0  0  0
   58.7560   33.6150   46.3490 C   0  0  0  0  0  0  0  0  0  0  0  0
   59.5000   34.7110   47.0440 C   0  0  0  0  0  0  0  0  0  0  0  0
   59.5801   35.5791   46.3732 H   0  0  0  0  0  0  0  0  0  0  0  0
   58.9559   34.9939   47.9572 H   0  0  0  0  0  0  0  0  0  0  0  0
   60.8790   34.2410   47.4170 C   0  0  0  0  0  0  0  0  0  0  0  0
   61.8040   33.8990   46.4160 C   0  0  0  0  0  0  0  0  0  0  0  0
   61.5097   33.9473   45.3572 H   0  0  0  0  0  0  0  0  0  0  0  0
   63.0990   33.4970   46.7630 C   0  0  0  0  0  0  0  0  0  0  0  0
   63.8183   33.2226   45.9773 H   0  0  0  0  0  0  0  0  0  0  0  0
   63.4790   33.4440   48.1070 C   0  0  0  0  0  0  0  0  0  0  0  0
   64.4961   33.1252   48.3786 H   0  0  0  0  0  0  0  0  0  0  0  0
   62.5670   33.7960   49.1060 C   0  0  0  0  0  0  0  0  0  0  0  0
   62.8688   33.7567   50.1630 H   0  0  0  0  0  0  0  0  0  0  0  0
   61.2720   34.1980   48.7650 C   0  0  0  0  0  0  0  0  0  0  0  0
   60.5595   34.4812   49.5538 H   0  0  0  0  0  0  0  0  0  0  0  0
  1  2  1  0
  2  3  1  0
  3  4  1  0
  4  5  2  0
  5  6  1  0
  6  7  2  0
  6  8  1  0
  8  9  1  0
  9 10  2  0
 10 11  1  0
 10 12  1  0
 12 13  1  0
 12 14  2  0
 14 15  1  0
 14 16  1  0
 16 17  1  0
 16 18  2  0
 18 19  1  0
  4 20  1  0
 20 21  1  0
 21 22  1  0
 22 23  1  0
 22 24  1  0
 22 25  1  0
 25 26  2  0
 26 27  1  0
 26 28  1  0
 28 29  1  0
 28 30  2  0
 30 31  1  0
 30 32  1  0
 32 33  1  0
 32 34  2  0
 34 35  1  0
 21  2  2  0
 34 25  1  0
 18  9  1  0
M  CHG  3   3  -1   8  -1  19  -1
M  END
>  <UniqueID>  (72) 
62

>  <SMILES>  (72) 
O=C(/N=c1/[n-]cc(Cc2ccccc2)s1)[N-]c1ccccc1[O-]

>  <Energy>  (72) 
73.08399908653989

>  <Genealogy>  (72) 
O=C(N=c1[n-]cc(Cc2ccccc2)s1)[N-]c1ccccc1[O-] (protonated)
O=C(/N=c1/[n-]cc(Cc2ccccc2)s1)[N-]c1ccccc1[O-] (cis-trans isomerization)
O=C(/N=c1/[n-]cc(Cc2ccccc2)s1)[N-]c1ccccc1[O-] (3D coordinates assigned)
O=C(/N=c1/[n-]cc(Cc2ccccc2)s1)[N-]c1ccccc1[O-] (optimized conformer: 73.08399908653989 kcal/mol)

>  <smiles>  (72) 
O=C(N=c1[nH]cc(Cc2ccccc2)s1)Nc1ccccc1O

>  <score_type>  (72) 
oracle

>  <origin>  (72) 
adg

>  <m_score__min__energy>  (72) 
-15.02

>  <m_primary>  (72) 
energy

$$$$
72:0
     RDKit          3D

 47 49  0  0  0  0  0  0  0  0999 V2000
   52.6220   30.4430   51.4410 C   0  0  0  0  0  0  0  0  0  0  0  0
   53.7550   30.4870   52.4620 C   0  0  0  0  0  0  0  0  0  0  0  0
   54.8960   31.2340   51.9350 N   0  0  0  0  0  0  0  0  0  0  0  0
   56.1120   31.4060   52.6810 C   0  0  0  0  0  0  0  0  0  0  0  0
   56.2260   30.8870   53.8250 O   0  0  0  0  0  0  0  0  0  0  0  0
   57.2410   32.1800   52.1300 C   0  0  0  0  0  0  0  0  0  0  0  0
   57.8480   33.2660   52.7330 C   0  0  0  0  0  0  0  0  0  0  0  0
   58.8450   33.7250   51.9570 N   0  0  0  0  0  0  0  0  0  0  0  0
   58.8870   32.9410   50.8590 C   0  0  0  0  0  0  0  0  0  0  0  0
   59.8510   33.0830   49.7440 C   0  0  0  0  0  0  0  0  0  0  0  0
   59.7430   32.3210   48.5670 C   0  0  0  0  0  0  0  0  0  0  0  0
   60.6630   32.5050   47.5300 C   0  0  0  0  0  0  0  0  0  0  0  0
   60.5390   31.7260   46.3700 O   0  0  0  0  0  0  0  0  0  0  0  0
   59.4670   30.8710   46.0760 C   0  0  0  0  0  0  0  0  0  0  0  0
   58.3300   31.3140   45.3760 C   0  0  0  0  0  0  0  0  0  0  0  0
   57.2730   30.4350   45.1180 C   0  0  0  0  0  0  0  0  0  0  0  0
   57.3260   29.1130   45.5740 C   0  0  0  0  0  0  0  0  0  0  0  0
   56.2380   28.2280   45.2730 N   0  0  0  0  0  0  0  0  0  0  0  0
   56.0700   26.9170   45.8230 C   0  0  0  0  0  0  0  0  0  0  0  0
   57.0880   26.2410   46.1140 O   0  0  0  0  0  0  0  0  0  0  0  0
   54.7730   26.3350   45.9940 N   0  0  0  0  0  0  0  0  0  0  0  0
   54.4280   24.9740   45.6080 C   0  0  0  0  0  0  0  0  0  0  0  0
   58.4610   28.6690   46.2750 C   0  0  0  0  0  0  0  0  0  0  0  0
   59.5160   29.5500   46.5320 C   0  0  0  0  0  0  0  0  0  0  0  0
   61.7080   33.4270   47.6960 C   0  0  0  0  0  0  0  0  0  0  0  0
   61.7900   34.1640   48.8770 C   0  0  0  0  0  0  0  0  0  0  0  0
   60.8710   33.9800   49.8600 N   0  0  0  0  0  0  0  0  0  0  0  0
   57.9020   31.9710   50.9320 C   0  0  0  0  0  0  0  0  0  0  0  0
   51.6563   30.4055   51.9663 H   0  0  0  0  0  0  0  0  0  0  0  0
   52.6616   31.3434   50.8103 H   0  0  0  0  0  0  0  0  0  0  0  0
   52.7313   29.5484   50.8103 H   0  0  0  0  0  0  0  0  0  0  0  0
   53.3957   30.9761   53.3794 H   0  0  0  0  0  0  0  0  0  0  0  0
   54.0758   29.4575   52.6793 H   0  0  0  0  0  0  0  0  0  0  0  0
   54.8250   31.6010   50.9620 H   0  0  0  0  0  0  0  0  0  0  0  0
   57.5578   33.6918   53.7048 H   0  0  0  0  0  0  0  0  0  0  0  0
   59.4610   34.5340   52.1920 H   0  0  0  0  0  0  0  0  0  0  0  0
   58.9358   31.5811   48.4622 H   0  0  0  0  0  0  0  0  0  0  0  0
   58.2719   32.3565   45.0299 H   0  0  0  0  0  0  0  0  0  0  0  0
   56.3958   30.7846   44.5539 H   0  0  0  0  0  0  0  0  0  0  0  0
   54.2736   24.3648   46.5108 H   0  0  0  0  0  0  0  0  0  0  0  0
   53.5043   24.9852   45.0108 H   0  0  0  0  0  0  0  0  0  0  0  0
   55.2455   24.5438   45.0108 H   0  0  0  0  0  0  0  0  0  0  0  0
   58.5192   27.6267   46.6219 H   0  0  0  0  0  0  0  0  0  0  0  0
   60.3923   29.2008   47.0979 H   0  0  0  0  0  0  0  0  0  0  0  0
   62.4558   33.5671   46.9015 H   0  0  0  0  0  0  0  0  0  0  0  0
   62.6002   34.8955   49.0127 H   0  0  0  0  0  0  0  0  0  0  0  0
   57.6876   31.1905   50.1871 H   0  0  0  0  0  0  0  0  0  0  0  0
  1  2  1  0
  2  3  1  0
  3  4  1  0
  4  5  2  0
  4  6  1  0
  6  7  2  0
  7  8  1  0
  8  9  1  0
  9 10  1  0
 10 11  2  0
 11 12  1  0
 12 13  1  0
 13 14  1  0
 14 15  2  0
 15 16  1  0
 16 17  2  0
 17 18  1  0
 18 19  1  0
 19 20  2  0
 19 21  1  0
 21 22  1  0
 17 23  1  0
 23 24  2  0
 12 25  2  0
 25 26  1  0
 26 27  2  0
  9 28  2  0
 28  6  1  0
 27 10  1  0
 24 14  1  0
  1 29  1  0
  1 30  1  0
  1 31  1  0
  2 32  1  0
  2 33  1  0
  3 34  1  0
  7 35  1  0
  8 36  1  0
 11 37  1  0
 15 38  1  0
 16 39  1  0
 22 40  1  0
 22 41  1  0
 22 42  1  0
 23 43  1  0
 24 44  1  0
 25 45  1  0
 26 46  1  0
 28 47  1  0
M  CHG  2  18  -1  21  -1
M  END
>  <UniqueID>  (73) 
63

>  <SMILES>  (73) 
CCNC(=O)c1c[nH]c(-c2cc(Oc3ccc([N-]C(=O)[N-]C)cc3)ccn2)c1

>  <Energy>  (73) 
82.46936382779737

>  <Genealogy>  (73) 
CCNC(=O)c1c[nH]c(-c2cc(Oc3ccc([N-]C(=O)[N-]C)cc3)ccn2)c1 (protonated)
CCNC(=O)c1c[nH]c(-c2cc(Oc3ccc([N-]C(=O)[N-]C)cc3)ccn2)c1 (3D coordinates assigned)
CCNC(=O)c1c[nH]c(-c2cc(Oc3ccc([N-]C(=O)[N-]C)cc3)ccn2)c1 (optimized conformer: 82.46936382779737 kcal/mol)

>  <smiles>  (73) 
CCNC(=O)c1c[nH]c(-c2cc(Oc3ccc(NC(=O)NC)cc3)ccn2)c1

>  <score_type>  (73) 
oracle

>  <origin>  (73) 
adg

>  <m_score__min__energy>  (73) 
-11.76

>  <m_primary>  (73) 
energy

$$$$
73:0
     RDKit          3D

 54 56  0  0  0  0  0  0  0  0999 V2000
   55.5880   30.1460   44.8710 O   0  0  0  0  0  0  0  0  0  0  0  0
   56.6950   29.5540   44.7390 C   0  0  0  0  0  0  0  0  0  0  0  0
   56.9410   28.2660   45.4620 C   0  0  0  0  0  0  0  0  0  0  0  0
   57.9310   27.4680   44.7410 N   0  0  0  0  0  0  0  0  0  0  0  0
   59.5290   27.8630   45.2980 S   0  0  0  0  0  0  0  0  0  0  0  0
   60.3840   28.2370   44.1210 O   0  0  0  0  0  0  0  0  0  0  0  0
   60.1370   26.6630   45.9680 O   0  0  0  0  0  0  0  0  0  0  0  0
   59.4710   29.2220   46.4200 C   0  0  0  0  0  0  0  0  0  0  0  0
   59.1240   29.0040   47.7600 C   0  0  0  0  0  0  0  0  0  0  0  0
   59.1100   30.0700   48.6650 C   0  0  0  0  0  0  0  0  0  0  0  0
   59.4430   31.3630   48.2360 C   0  0  0  0  0  0  0  0  0  0  0  0
   59.4740   32.7070   49.3750 S   0  0  0  0  0  0  0  0  0  0  0  0
   58.5310   32.4340   50.5140 O   0  0  0  0  0  0  0  0  0  0  0  0
   59.0070   33.9450   48.6600 O   0  0  0  0  0  0  0  0  0  0  0  0
   61.0990   32.9640   49.9750 N   0  0  0  0  0  0  0  0  0  0  0  0
   61.7460   34.1340   49.3460 C   0  0  0  0  0  0  0  0  0  0  0  0
   62.1790   33.8710   47.8920 C   0  0  0  0  0  0  0  0  0  0  0  0
   62.7480   32.4570   47.6760 C   0  0  0  0  0  0  0  0  0  0  0  0
   63.1250   31.7870   48.9970 C   0  0  0  0  0  0  0  0  0  0  0  0
   61.9090   31.7190   49.9370 C   0  0  0  0  0  0  0  0  0  0  0  0
   59.7980   31.5790   46.8980 C   0  0  0  0  0  0  0  0  0  0  0  0
   59.8130   30.5130   45.9920 C   0  0  0  0  0  0  0  0  0  0  0  0
   57.6880   30.0720   43.8430 N   0  0  0  0  0  0  0  0  0  0  0  0
   57.5340   31.3530   43.1570 C   0  0  0  0  0  0  0  0  0  0  0  0
   57.8130   32.4880   44.1070 C   0  0  0  0  0  0  0  0  0  0  0  0
   57.0390   32.6560   45.2690 C   0  0  0  0  0  0  0  0  0  0  0  0
   57.3240   33.6980   46.1610 C   0  0  0  0  0  0  0  0  0  0  0  0
   58.3850   34.5740   45.9000 C   0  0  0  0  0  0  0  0  0  0  0  0
   59.1620   34.4080   44.7490 C   0  0  0  0  0  0  0  0  0  0  0  0
   58.8800   33.3680   43.8550 C   0  0  0  0  0  0  0  0  0  0  0  0
   57.3145   28.4820   46.4739 H   0  0  0  0  0  0  0  0  0  0  0  0
   55.9988   27.7017   45.5241 H   0  0  0  0  0  0  0  0  0  0  0  0
   58.8619   27.9916   48.1010 H   0  0  0  0  0  0  0  0  0  0  0  0
   58.8371   29.8939   49.7160 H   0  0  0  0  0  0  0  0  0  0  0  0
   61.0358   34.9740   49.3540 H   0  0  0  0  0  0  0  0  0  0  0  0
   62.6540   34.3592   49.9247 H   0  0  0  0  0  0  0  0  0  0  0  0
   61.3041   33.9997   47.2378 H   0  0  0  0  0  0  0  0  0  0  0  0
   62.9805   34.5861   47.6548 H   0  0  0  0  0  0  0  0  0  0  0  0
   61.9899   31.8421   47.1689 H   0  0  0  0  0  0  0  0  0  0  0  0
   63.6592   32.5454   47.0661 H   0  0  0  0  0  0  0  0  0  0  0  0
   63.4834   30.7667   48.7954 H   0  0  0  0  0  0  0  0  0  0  0  0
   63.9149   32.3793   49.4819 H   0  0  0  0  0  0  0  0  0  0  0  0
   61.2606   30.8955   49.6034 H   0  0  0  0  0  0  0  0  0  0  0  0
   62.3025   31.5664   50.9528 H   0  0  0  0  0  0  0  0  0  0  0  0
   60.0659   32.5904   46.5586 H   0  0  0  0  0  0  0  0  0  0  0  0
   60.0934   30.6877   44.9428 H   0  0  0  0  0  0  0  0  0  0  0  0
   58.5600   29.5190   43.6710 H   0  0  0  0  0  0  0  0  0  0  0  0
   58.2403   31.4017   42.3152 H   0  0  0  0  0  0  0  0  0  0  0  0
   56.5020   31.4402   42.7865 H   0  0  0  0  0  0  0  0  0  0  0  0
   56.2073   31.9672   45.4782 H   0  0  0  0  0  0  0  0  0  0  0  0
   56.7140   33.8282   47.0670 H   0  0  0  0  0  0  0  0  0  0  0  0
   58.6073   35.3927   46.6003 H   0  0  0  0  0  0  0  0  0  0  0  0
   59.9961   35.0957   44.5457 H   0  0  0  0  0  0  0  0  0  0  0  0
   59.4954   33.2391   42.9524 H   0  0  0  0  0  0  0  0  0  0  0  0
  1  2  2  0
  2  3  1  0
  3  4  1  0
  4  5  1  0
  5  6  2  0
  5  7  2  0
  5  8  1  0
  8  9  2  0
  9 10  1  0
 10 11  2  0
 11 12  1  0
 12 13  2  0
 12 14  2  0
 12 15  1  0
 15 16  1  0
 16 17  1  0
 17 18  1  0
 18 19  1  0
 19 20  1  0
 11 21  1  0
 21 22  2  0
  2 23  1  0
 23 24  1  0
 24 25  1  0
 25 26  2  0
 26 27  1  0
 27 28  2  0
 28 29  1  0
 29 30  2  0
 22  8  1  0
 30 25  1  0
 20 15  1  0
  3 31  1  0
  3 32  1  0
  9 33  1  0
 10 34  1  0
 16 35  1  0
 16 36  1  0
 17 37  1  0
 17 38  1  0
 18 39  1  0
 18 40  1  0
 19 41  1  0
 19 42  1  0
 20 43  1  0
 20 44  1  0
 21 45  1  0
 22 46  1  0
 23 47  1  0
 24 48  1  0
 24 49  1  0
 26 50  1  0
 27 51  1  0
 28 52  1  0
 29 53  1  0
 30 54  1  0
M  CHG  1   4  -1
M  END
>  <UniqueID>  (74) 
64

>  <SMILES>  (74) 
O=C(C[N-]S(=O)(=O)c1ccc(S(=O)(=O)N2CCCCC2)cc1)NCc1ccccc1

>  <Energy>  (74) 
56.64075635226333

>  <Genealogy>  (74) 
O=C(C[N-]S(=O)(=O)c1ccc(S(=O)(=O)N2CCCCC2)cc1)NCc1ccccc1 (protonated)
O=C(C[N-]S(=O)(=O)c1ccc(S(=O)(=O)N2CCCCC2)cc1)NCc1ccccc1 (3D coordinates assigned)
O=C(C[N-]S(=O)(=O)c1ccc(S(=O)(=O)N2CCCCC2)cc1)NCc1ccccc1 (nonaromatic ring conformer: 56.64075635226333 kcal/mol)

>  <smiles>  (74) 
O=C(CNS(=O)(=O)c1ccc(S(=O)(=O)N2CCCCC2)cc1)NCc1ccccc1

>  <score_type>  (74) 
oracle

>  <origin>  (74) 
adg

>  <m_score__min__energy>  (74) 
-11.300000000000001

>  <m_primary>  (74) 
energy

$$$$
74:0
     RDKit          3D

 56 59  0  0  0  0  0  0  0  0999 V2000
   61.0950   30.4950   48.5220 C   0  0  0  0  0  0  0  0  0  0  0  0
   59.8510   31.3720   48.6530 C   0  0  0  0  0  0  0  0  0  0  0  0
   59.6000   32.1370   47.3770 C   0  0  0  0  0  0  0  0  0  0  0  0
   58.9250   31.6700   46.2580 C   0  0  0  0  0  0  0  0  0  0  0  0
   58.4470   30.3020   45.9930 C   0  0  0  0  0  0  0  0  0  0  0  0
   57.1780   30.1140   45.5420 N   0  0  0  0  0  0  0  0  0  0  0  0
   56.7040   28.8720   45.2670 C   0  0  0  0  0  0  0  0  0  0  0  0
   55.5150   28.7390   44.8670 O   0  0  0  0  0  0  0  0  0  0  0  0
   57.5380   27.7520   45.4290 C   0  0  0  0  0  0  0  0  0  0  0  0
   57.0500   26.3510   45.1690 C   0  0  0  0  0  0  0  0  0  0  0  0
   55.9830   25.9860   46.1520 C   0  0  0  0  0  0  0  0  0  0  0  0
   54.7930   26.3520   45.9570 O   0  0  0  0  0  0  0  0  0  0  0  0
   56.2980   25.2200   47.2720 O   0  0  0  0  0  0  0  0  0  0  0  0
   58.8450   27.9730   45.8760 C   0  0  0  0  0  0  0  0  0  0  0  0
   59.2790   29.2340   46.1370 N   0  0  0  0  0  0  0  0  0  0  0  0
   58.7420   32.7480   45.4180 C   0  0  0  0  0  0  0  0  0  0  0  0
   59.3020   33.8490   45.9550 N   0  0  0  0  0  0  0  0  0  0  0  0
   59.2850   35.1740   45.3330 C   0  0  0  0  0  0  0  0  0  0  0  0
   59.8090   33.5000   47.1630 C   0  0  0  0  0  0  0  0  0  0  0  0
   60.4820   34.4540   48.1260 C   0  0  0  0  0  0  0  0  0  0  0  0
   61.8840   34.0110   48.4650 C   0  0  0  0  0  0  0  0  0  0  0  0
   62.7030   33.4400   47.4790 C   0  0  0  0  0  0  0  0  0  0  0  0
   64.0040   33.0350   47.7880 C   0  0  0  0  0  0  0  0  0  0  0  0
   64.5040   33.2040   49.0810 C   0  0  0  0  0  0  0  0  0  0  0  0
   63.7010   33.7740   50.0860 C   0  0  0  0  0  0  0  0  0  0  0  0
   64.2430   33.9920   51.4530 C   0  0  0  0  0  0  0  0  0  0  0  0
   65.6280   34.1420   51.6580 C   0  0  0  0  0  0  0  0  0  0  0  0
   66.1370   34.3730   52.9410 C   0  0  0  0  0  0  0  0  0  0  0  0
   65.2710   34.4600   54.0330 C   0  0  0  0  0  0  0  0  0  0  0  0
   63.8940   34.3050   53.8450 C   0  0  0  0  0  0  0  0  0  0  0  0
   63.3800   34.0700   52.5660 C   0  0  0  0  0  0  0  0  0  0  0  0
   62.3830   34.1550   49.7710 C   0  0  0  0  0  0  0  0  0  0  0  0
   61.4663   30.2333   49.5238 H   0  0  0  0  0  0  0  0  0  0  0  0
   60.8397   29.5761   47.9739 H   0  0  0  0  0  0  0  0  0  0  0  0
   61.8747   31.0442   47.9739 H   0  0  0  0  0  0  0  0  0  0  0  0
   58.9810   30.7344   48.8687 H   0  0  0  0  0  0  0  0  0  0  0  0
   60.0099   32.0908   49.4704 H   0  0  0  0  0  0  0  0  0  0  0  0
   56.6408   26.2918   44.1496 H   0  0  0  0  0  0  0  0  0  0  0  0
   57.8921   25.6514   45.2763 H   0  0  0  0  0  0  0  0  0  0  0  0
   59.5258   27.1206   46.0171 H   0  0  0  0  0  0  0  0  0  0  0  0
   60.2730   29.3720   46.4270 H   0  0  0  0  0  0  0  0  0  0  0  0
   58.2165   32.7139   44.4523 H   0  0  0  0  0  0  0  0  0  0  0  0
   59.2751   35.9465   46.1160 H   0  0  0  0  0  0  0  0  0  0  0  0
   60.1816   35.2971   44.7078 H   0  0  0  0  0  0  0  0  0  0  0  0
   58.3855   35.2741   44.7078 H   0  0  0  0  0  0  0  0  0  0  0  0
   60.5253   35.4524   47.6663 H   0  0  0  0  0  0  0  0  0  0  0  0
   59.8947   34.4723   49.0559 H   0  0  0  0  0  0  0  0  0  0  0  0
   62.3184   33.3105   46.4566 H   0  0  0  0  0  0  0  0  0  0  0  0
   64.6364   32.5816   47.0105 H   0  0  0  0  0  0  0  0  0  0  0  0
   65.5318   32.8896   49.3151 H   0  0  0  0  0  0  0  0  0  0  0  0
   66.3159   34.0770   50.8021 H   0  0  0  0  0  0  0  0  0  0  0  0
   67.2210   34.4862   53.0895 H   0  0  0  0  0  0  0  0  0  0  0  0
   65.6715   34.6502   55.0397 H   0  0  0  0  0  0  0  0  0  0  0  0
   63.2127   34.3682   54.7063 H   0  0  0  0  0  0  0  0  0  0  0  0
   62.2960   33.9452   52.4270 H   0  0  0  0  0  0  0  0  0  0  0  0
   61.7354   34.5707   50.5570 H   0  0  0  0  0  0  0  0  0  0  0  0
  1  2  1  0
  2  3  1  0
  3  4  1  0
  4  5  1  0
  5  6  2  0
  6  7  1  0
  7  8  2  0
  7  9  1  0
  9 10  1  0
 10 11  1  0
 11 12  2  0
 11 13  1  0
  9 14  2  0
 14 15  1  0
  4 16  2  0
 16 17  1  0
 17 18  1  0
 17 19  1  0
 19 20  1  0
 20 21  1  0
 21 22  2  0
 22 23  1  0
 23 24  2  0
 24 25  1  0
 25 26  1  0
 26 27  2  0
 27 28  1  0
 28 29  2  0
 29 30  1  0
 30 31  2  0
 25 32  2  0
 19  3  2  0
 32 21  1  0
 15  5  1  0
 31 26  1  0
  1 33  1  0
  1 34  1  0
  1 35  1  0
  2 36  1  0
  2 37  1  0
 10 38  1  0
 10 39  1  0
 14 40  1  0
 15 41  1  0
 16 42  1  0
 18 43  1  0
 18 44  1  0
 18 45  1  0
 20 46  1  0
 20 47  1  0
 22 48  1  0
 23 49  1  0
 24 50  1  0
 27 51  1  0
 28 52  1  0
 29 53  1  0
 30 54  1  0
 31 55  1  0
 32 56  1  0
M  CHG  1  13  -1
M  END
>  <UniqueID>  (75) 
65

>  <SMILES>  (75) 
CCc1c(-c2nc(=O)c(CC(=O)[O-])c[nH]2)cn(C)c1Cc1cccc(-c2ccccc2)c1

>  <Energy>  (75) 
90.560648336285

>  <Genealogy>  (75) 
CCc1c(-c2nc(=O)c(CC(=O)[O-])c[nH]2)cn(C)c1Cc1cccc(-c2ccccc2)c1 (protonated)
CCc1c(-c2nc(=O)c(CC(=O)[O-])c[nH]2)cn(C)c1Cc1cccc(-c2ccccc2)c1 (3D coordinates assigned)
CCc1c(-c2nc(=O)c(CC(=O)[O-])c[nH]2)cn(C)c1Cc1cccc(-c2ccccc2)c1 (optimized conformer: 90.560648336285 kcal/mol)

>  <smiles>  (75) 
CCc1c(-c2nc(=O)c(CC(=O)O)c[nH]2)cn(C)c1Cc1cccc(-c2ccccc2)c1

>  <score_type>  (75) 
oracle

>  <origin>  (75) 
adg

>  <m_score__min__energy>  (75) 
-12.449999999999999

>  <m_primary>  (75) 
energy

$$$$
75:0
     RDKit          3D

 52 54  0  0  0  0  0  0  0  0999 V2000
   55.9540   24.4240   46.7280 C   0  0  0  0  0  0  0  0  0  0  0  0
   55.3960   25.2970   45.6110 C   0  0  0  0  0  0  0  0  0  0  0  0
   55.3730   26.7000   46.0160 N   0  0  0  0  0  0  0  0  0  0  0  0
   56.3000   27.7040   45.5830 C   0  0  0  0  0  0  0  0  0  0  0  0
   55.8670   28.6930   44.9340 O   0  0  0  0  0  0  0  0  0  0  0  0
   57.7430   27.6190   45.8820 C   0  0  0  0  0  0  0  0  0  0  0  0
   58.3950   26.3840   45.7500 C   0  0  0  0  0  0  0  0  0  0  0  0
   59.7580   26.2720   46.0280 C   0  0  0  0  0  0  0  0  0  0  0  0
   60.4760   27.3860   46.4650 C   0  0  0  0  0  0  0  0  0  0  0  0
   59.8340   28.6160   46.6250 C   0  0  0  0  0  0  0  0  0  0  0  0
   58.4650   28.7490   46.3230 C   0  0  0  0  0  0  0  0  0  0  0  0
   57.7710   29.9880   46.5430 N   0  0  0  0  0  0  0  0  0  0  0  0
   57.7580   31.1260   45.6700 C   0  0  0  0  0  0  0  0  0  0  0  0
   56.9080   31.2000   44.7410 O   0  0  0  0  0  0  0  0  0  0  0  0
   58.7030   32.2440   45.8980 C   0  0  0  0  0  0  0  0  0  0  0  0
   58.3830   33.5490   45.4840 C   0  0  0  0  0  0  0  0  0  0  0  0
   59.2790   34.5990   45.6950 C   0  0  0  0  0  0  0  0  0  0  0  0
   60.5050   34.3620   46.3200 C   0  0  0  0  0  0  0  0  0  0  0  0
   60.8400   33.0680   46.7410 C   0  0  0  0  0  0  0  0  0  0  0  0
   62.3790   32.7500   47.5360 S   0  0  0  0  0  0  0  0  0  0  0  0
   62.9900   31.5240   46.9200 O   0  0  0  0  0  0  0  0  0  0  0  0
   63.3090   33.9150   47.3370 O   0  0  0  0  0  0  0  0  0  0  0  0
   62.0950   32.4960   49.2460 N   0  0  0  0  0  0  0  0  0  0  0  0
   61.7310   33.7500   49.9340 C   0  0  0  0  0  0  0  0  0  0  0  0
   60.2900   34.2020   49.6340 C   0  0  0  0  0  0  0  0  0  0  0  0
   59.2900   33.0340   49.5690 C   0  0  0  0  0  0  0  0  0  0  0  0
   59.8580   31.7600   50.1900 C   0  0  0  0  0  0  0  0  0  0  0  0
   61.1710   31.3610   49.4940 C   0  0  0  0  0  0  0  0  0  0  0  0
   59.9420   32.0140   46.5280 C   0  0  0  0  0  0  0  0  0  0  0  0
   55.6788   24.8546   47.7021 H   0  0  0  0  0  0  0  0  0  0  0  0
   55.5363   23.4099   46.6442 H   0  0  0  0  0  0  0  0  0  0  0  0
   57.0498   24.3773   46.6442 H   0  0  0  0  0  0  0  0  0  0  0  0
   56.0289   25.1892   44.7178 H   0  0  0  0  0  0  0  0  0  0  0  0
   54.3675   24.9753   45.3905 H   0  0  0  0  0  0  0  0  0  0  0  0
   57.8286   25.4986   45.4255 H   0  0  0  0  0  0  0  0  0  0  0  0
   60.2668   25.3048   45.9026 H   0  0  0  0  0  0  0  0  0  0  0  0
   61.5502   27.2951   46.6840 H   0  0  0  0  0  0  0  0  0  0  0  0
   60.4009   29.4856   46.9889 H   0  0  0  0  0  0  0  0  0  0  0  0
   57.4197   33.7443   44.9902 H   0  0  0  0  0  0  0  0  0  0  0  0
   59.0182   35.6163   45.3678 H   0  0  0  0  0  0  0  0  0  0  0  0
   61.2086   35.1919   46.4821 H   0  0  0  0  0  0  0  0  0  0  0  0
   61.8323   33.5973   51.0186 H   0  0  0  0  0  0  0  0  0  0  0  0
   62.4067   34.5362   49.5662 H   0  0  0  0  0  0  0  0  0  0  0  0
   59.9684   34.8940   50.4263 H   0  0  0  0  0  0  0  0  0  0  0  0
   60.2971   34.6821   48.6443 H   0  0  0  0  0  0  0  0  0  0  0  0
   58.3768   33.3176   50.1127 H   0  0  0  0  0  0  0  0  0  0  0  0
   59.0749   32.8292   48.5099 H   0  0  0  0  0  0  0  0  0  0  0  0
   60.0529   31.9338   51.2586 H   0  0  0  0  0  0  0  0  0  0  0  0
   59.1277   30.9469   50.0654 H   0  0  0  0  0  0  0  0  0  0  0  0
   61.6887   30.6264   50.1283 H   0  0  0  0  0  0  0  0  0  0  0  0
   60.8970   30.9542   48.5094 H   0  0  0  0  0  0  0  0  0  0  0  0
   60.2066   30.9978   46.8556 H   0  0  0  0  0  0  0  0  0  0  0  0
  1  2  1  0
  2  3  1  0
  3  4  1  0
  4  5  2  0
  4  6  1  0
  6  7  2  0
  7  8  1  0
  8  9  2  0
  9 10  1  0
 10 11  2  0
 11 12  1  0
 12 13  1  0
 13 14  2  0
 13 15  1  0
 15 16  2  0
 16 17  1  0
 17 18  2  0
 18 19  1  0
 19 20  1  0
 20 21  2  0
 20 22  2  0
 20 23  1  0
 23 24  1  0
 24 25  1  0
 25 26  1  0
 26 27  1  0
 27 28  1  0
 19 29  2  0
 11  6  1  0
 29 15  1  0
 28 23  1  0
  1 30  1  0
  1 31  1  0
  1 32  1  0
  2 33  1  0
  2 34  1  0
  7 35  1  0
  8 36  1  0
  9 37  1  0
 10 38  1  0
 16 39  1  0
 17 40  1  0
 18 41  1  0
 24 42  1  0
 24 43  1  0
 25 44  1  0
 25 45  1  0
 26 46  1  0
 26 47  1  0
 27 48  1  0
 27 49  1  0
 28 50  1  0
 28 51  1  0
 29 52  1  0
M  CHG  2   3  -1  12  -1
M  END
>  <UniqueID>  (76) 
66

>  <SMILES>  (76) 
CC[N-]C(=O)c1ccccc1[N-]C(=O)c1cccc(S(=O)(=O)N2CCCCC2)c1

>  <Energy>  (76) 
66.47665186415772

>  <Genealogy>  (76) 
CC[N-]C(=O)c1ccccc1[N-]C(=O)c1cccc(S(=O)(=O)N2CCCCC2)c1 (protonated)
CC[N-]C(=O)c1ccccc1[N-]C(=O)c1cccc(S(=O)(=O)N2CCCCC2)c1 (3D coordinates assigned)
CC[N-]C(=O)c1ccccc1[N-]C(=O)c1cccc(S(=O)(=O)N2CCCCC2)c1 (nonaromatic ring conformer: 66.47665186415772 kcal/mol)

>  <smiles>  (76) 
CCNC(=O)c1ccccc1NC(=O)c1cccc(S(=O)(=O)N2CCCCC2)c1

>  <score_type>  (76) 
oracle

>  <origin>  (76) 
adg

>  <m_score__min__energy>  (76) 
-14.529999999999999

>  <m_primary>  (76) 
energy

$$$$
76:0
     RDKit          3D

 34 36  0  0  0  0  0  0  0  0999 V2000
   59.5250   27.1430   47.9930 O   0  0  0  0  0  0  0  0  0  0  0  0
   58.5980   26.6900   47.2680 C   0  0  0  0  0  0  0  0  0  0  0  0
   58.1560   25.2710   47.4420 C   0  0  0  0  0  0  0  0  0  0  0  0
   57.0310   24.9920   46.5560 N   0  0  0  0  0  0  0  0  0  0  0  0
   57.0440   24.2250   45.4540 C   0  0  0  0  0  0  0  0  0  0  0  0
   55.8480   24.2450   44.8360 N   0  0  0  0  0  0  0  0  0  0  0  0
   55.1250   25.0700   45.6250 C   0  0  0  0  0  0  0  0  0  0  0  0
   55.8360   25.5390   46.6700 N   0  0  0  0  0  0  0  0  0  0  0  0
   57.9230   27.5430   46.3340 N   0  0  0  0  0  0  0  0  0  0  0  0
   58.2690   28.9230   46.1650 C   0  0  0  0  0  0  0  0  0  0  0  0
   59.4530   29.4550   46.6980 C   0  0  0  0  0  0  0  0  0  0  0  0
   59.6370   30.8090   46.4120 C   0  0  0  0  0  0  0  0  0  0  0  0
   60.7870   31.6580   46.8200 C   0  0  0  0  0  0  0  0  0  0  0  0
   60.7230   33.0630   46.7300 C   0  0  0  0  0  0  0  0  0  0  0  0
   61.8110   33.8500   47.1180 C   0  0  0  0  0  0  0  0  0  0  0  0
   62.9730   33.2490   47.6040 C   0  0  0  0  0  0  0  0  0  0  0  0
   63.0500   31.8600   47.7030 C   0  0  0  0  0  0  0  0  0  0  0  0
   61.9660   31.0670   47.3160 C   0  0  0  0  0  0  0  0  0  0  0  0
   58.3020   31.3290   45.5200 S   0  0  0  0  0  0  0  0  0  0  0  0
   57.4890   29.8590   45.4790 C   0  0  0  0  0  0  0  0  0  0  0  0
   56.1460   29.6790   44.9060 C   0  0  0  0  0  0  0  0  0  0  0  0
   55.5210   28.5960   45.0520 O   0  0  0  0  0  0  0  0  0  0  0  0
   55.5380   30.7260   44.2250 O   0  0  0  0  0  0  0  0  0  0  0  0
   58.9896   24.5962   47.1975 H   0  0  0  0  0  0  0  0  0  0  0  0
   57.8449   25.1126   48.4851 H   0  0  0  0  0  0  0  0  0  0  0  0
   57.9168   23.6553   45.1024 H   0  0  0  0  0  0  0  0  0  0  0  0
   54.0731   25.3301   45.4357 H   0  0  0  0  0  0  0  0  0  0  0  0
   57.0150   27.2150   45.9330 H   0  0  0  0  0  0  0  0  0  0  0  0
   60.1686   28.8613   47.2857 H   0  0  0  0  0  0  0  0  0  0  0  0
   59.8092   33.5442   46.3513 H   0  0  0  0  0  0  0  0  0  0  0  0
   61.7512   34.9456   47.0401 H   0  0  0  0  0  0  0  0  0  0  0  0
   63.8278   33.8706   47.9089 H   0  0  0  0  0  0  0  0  0  0  0  0
   63.9662   31.3873   48.0866 H   0  0  0  0  0  0  0  0  0  0  0  0
   62.0339   29.9723   47.3994 H   0  0  0  0  0  0  0  0  0  0  0  0
  1  2  2  0
  2  3  1  0
  3  4  1  0
  4  5  1  0
  5  6  2  0
  6  7  1  0
  7  8  2  0
  2  9  1  0
  9 10  1  0
 10 11  1  0
 11 12  2  0
 12 13  1  0
 13 14  2  0
 14 15  1  0
 15 16  2  0
 16 17  1  0
 17 18  2  0
 12 19  1  0
 19 20  1  0
 20 21  1  0
 21 22  2  0
 21 23  1  0
  8  4  1  0
 20 10  2  0
 18 13  1  0
  3 24  1  0
  3 25  1  0
  5 26  1  0
  7 27  1  0
  9 28  1  0
 11 29  1  0
 14 30  1  0
 15 31  1  0
 16 32  1  0
 17 33  1  0
 18 34  1  0
M  CHG  1  23  -1
M  END
>  <UniqueID>  (77) 
67

>  <SMILES>  (77) 
O=C(Cn1cncn1)Nc1cc(-c2ccccc2)sc1C(=O)[O-]

>  <Energy>  (77) 
100.67912775885699

>  <Genealogy>  (77) 
O=C(Cn1cncn1)Nc1cc(-c2ccccc2)sc1C(=O)[O-] (protonated)
O=C(Cn1cncn1)Nc1cc(-c2ccccc2)sc1C(=O)[O-] (3D coordinates assigned)
O=C(Cn1cncn1)Nc1cc(-c2ccccc2)sc1C(=O)[O-] (optimized conformer: 100.67912775885699 kcal/mol)

>  <smiles>  (77) 
O=C(Cn1cncn1)Nc1cc(-c2ccccc2)sc1C(=O)O

>  <score_type>  (77) 
oracle

>  <origin>  (77) 
adg

>  <m_score__min__energy>  (77) 
-8.8399999999999999

>  <m_primary>  (77) 
energy

$$$$
77:0
     RDKit          3D

 43 44  0  0  0  0  0  0  0  0999 V2000
   63.3710   33.5600   46.7760 C   0  0  0  0  0  0  0  0  0  0  0  0
   63.4340   32.2370   47.5280 C   0  0  0  0  0  0  0  0  0  0  0  0
   63.7180   32.4680   48.9790 C   0  0  0  0  0  0  0  0  0  0  0  0
   64.9120   32.5220   49.3830 O   0  0  0  0  0  0  0  0  0  0  0  0
   62.6350   32.5880   49.9030 N   0  0  0  0  0  0  0  0  0  0  0  0
   61.2930   33.6470   49.6260 S   0  0  0  0  0  0  0  0  0  0  0  0
   60.5510   33.8580   50.9150 O   0  0  0  0  0  0  0  0  0  0  0  0
   61.8090   34.9720   49.1360 O   0  0  0  0  0  0  0  0  0  0  0  0
   60.2040   32.9260   48.4460 C   0  0  0  0  0  0  0  0  0  0  0  0
   59.9930   31.5400   48.4210 C   0  0  0  0  0  0  0  0  0  0  0  0
   59.1250   30.9800   47.4780 C   0  0  0  0  0  0  0  0  0  0  0  0
   58.4490   31.7940   46.5610 C   0  0  0  0  0  0  0  0  0  0  0  0
   57.5820   31.1710   45.6000 N   0  0  0  0  0  0  0  0  0  0  0  0
   57.3240   29.7690   45.4570 C   0  0  0  0  0  0  0  0  0  0  0  0
   56.1560   29.3510   45.2340 O   0  0  0  0  0  0  0  0  0  0  0  0
   58.4160   28.8460   45.5830 N   0  0  0  0  0  0  0  0  0  0  0  0
   58.2670   27.4160   45.6340 C   0  0  0  0  0  0  0  0  0  0  0  0
   59.4120   26.6070   45.6570 C   0  0  0  0  0  0  0  0  0  0  0  0
   59.2950   25.2160   45.7210 C   0  0  0  0  0  0  0  0  0  0  0  0
   58.0320   24.6210   45.7800 C   0  0  0  0  0  0  0  0  0  0  0  0
   56.8800   25.4170   45.7920 C   0  0  0  0  0  0  0  0  0  0  0  0
   55.2860   24.6730   45.8760 S   0  0  0  0  0  0  0  0  0  0  0  0
   54.0740   25.9060   45.8790 N   0  0  0  0  0  0  0  0  0  0  0  0
   55.1720   23.8520   47.1290 O   0  0  0  0  0  0  0  0  0  0  0  0
   55.0770   23.7730   44.6900 O   0  0  0  0  0  0  0  0  0  0  0  0
   56.9990   26.8130   45.7210 C   0  0  0  0  0  0  0  0  0  0  0  0
   58.6840   33.1810   46.5700 C   0  0  0  0  0  0  0  0  0  0  0  0
   59.5510   33.7420   47.5140 C   0  0  0  0  0  0  0  0  0  0  0  0
   63.3315   34.3900   47.4968 H   0  0  0  0  0  0  0  0  0  0  0  0
   64.2651   33.6655   46.1440 H   0  0  0  0  0  0  0  0  0  0  0  0
   62.4709   33.5800   46.1440 H   0  0  0  0  0  0  0  0  0  0  0  0
   62.4697   31.7175   47.4268 H   0  0  0  0  0  0  0  0  0  0  0  0
   64.2428   31.6253   47.1017 H   0  0  0  0  0  0  0  0  0  0  0  0
   60.5107   30.8924   49.1439 H   0  0  0  0  0  0  0  0  0  0  0  0
   58.9721   29.8909   47.4566 H   0  0  0  0  0  0  0  0  0  0  0  0
   59.3840   29.2380   45.5350 H   0  0  0  0  0  0  0  0  0  0  0  0
   60.4091   27.0704   45.6244 H   0  0  0  0  0  0  0  0  0  0  0  0
   60.1984   24.5885   45.7249 H   0  0  0  0  0  0  0  0  0  0  0  0
   57.9426   23.5253   45.8171 H   0  0  0  0  0  0  0  0  0  0  0  0
   54.4890   26.7380   46.3550 H   0  0  0  0  0  0  0  0  0  0  0  0
   56.0953   27.4400   45.7334 H   0  0  0  0  0  0  0  0  0  0  0  0
   58.1845   33.8265   45.8325 H   0  0  0  0  0  0  0  0  0  0  0  0
   59.7204   34.8288   47.5241 H   0  0  0  0  0  0  0  0  0  0  0  0
  1  2  1  0
  2  3  1  0
  3  4  2  0
  3  5  1  0
  5  6  1  0
  6  7  2  0
  6  8  2  0
  6  9  1  0
  9 10  2  0
 10 11  1  0
 11 12  2  0
 12 13  1  0
 13 14  1  0
 14 15  2  0
 14 16  1  0
 16 17  1  0
 17 18  2  0
 18 19  1  0
 19 20  2  0
 20 21  1  0
 21 22  1  0
 22 23  1  0
 22 24  2  0
 22 25  2  0
 21 26  2  0
 12 27  1  0
 27 28  2  0
 28  9  1  0
 26 17  1  0
  1 29  1  0
  1 30  1  0
  1 31  1  0
  2 32  1  0
  2 33  1  0
 10 34  1  0
 11 35  1  0
 16 36  1  0
 18 37  1  0
 19 38  1  0
 20 39  1  0
 23 40  1  0
 26 41  1  0
 27 42  1  0
 28 43  1  0
M  CHG  3   5  -1  13  -1  23  -1
M  END
>  <UniqueID>  (78) 
68

>  <SMILES>  (78) 
CCC(=O)[N-]S(=O)(=O)c1ccc([N-]C(=O)Nc2cccc(S([NH-])(=O)=O)c2)cc1

>  <Energy>  (78) 
47.347194917276326

>  <Genealogy>  (78) 
CCC(=O)[N-]S(=O)(=O)c1ccc([N-]C(=O)Nc2cccc(S([NH-])(=O)=O)c2)cc1 (protonated)
CCC(=O)[N-]S(=O)(=O)c1ccc([N-]C(=O)Nc2cccc(S([NH-])(=O)=O)c2)cc1 (3D coordinates assigned)
CCC(=O)[N-]S(=O)(=O)c1ccc([N-]C(=O)Nc2cccc(S([NH-])(=O)=O)c2)cc1 (optimized conformer: 47.347194917276326 kcal/mol)

>  <smiles>  (78) 
CCC(=O)NS(=O)(=O)c1ccc(NC(=O)Nc2cccc(S(N)(=O)=O)c2)cc1

>  <score_type>  (78) 
oracle

>  <origin>  (78) 
adg

>  <m_score__min__energy>  (78) 
-13.84

>  <m_primary>  (78) 
energy

$$$$
78:0
     RDKit          3D

 73 77  0  0  0  0  0  0  0  0999 V2000
   55.2330   29.2060   44.5220 O   0  0  0  0  0  0  0  0  0  0  0  0
   56.2590   28.6950   45.0460 C   0  0  0  0  0  0  0  0  0  0  0  0
   56.2380   27.5590   45.7570 N   0  0  0  0  0  0  0  0  0  0  0  0
   55.1460   26.7450   45.9550 O   0  0  0  0  0  0  0  0  0  0  0  0
   57.5120   27.3070   46.1100 C   0  0  0  0  0  0  0  0  0  0  0  0
   57.9780   26.0390   46.7750 C   0  0  0  0  0  0  0  0  0  0  0  0
   58.8900   25.1730   45.8910 C   0  0  0  0  0  0  0  0  0  0  0  0
   58.6100   23.6590   45.9920 C   0  0  0  0  0  0  0  0  0  0  0  0
   57.7990   23.1470   44.8250 C   0  0  0  0  0  0  0  0  0  0  0  0
   56.8350   23.9730   44.2200 C   0  0  0  0  0  0  0  0  0  0  0  0
   56.0850   23.5080   43.1370 C   0  0  0  0  0  0  0  0  0  0  0  0
   56.2990   22.2200   42.6390 C   0  0  0  0  0  0  0  0  0  0  0  0
   57.2650   21.3970   43.2230 C   0  0  0  0  0  0  0  0  0  0  0  0
   58.0100   21.8560   44.3130 C   0  0  0  0  0  0  0  0  0  0  0  0
   58.3090   28.3310   45.5900 C   0  0  0  0  0  0  0  0  0  0  0  0
   59.8190   28.4020   45.6440 C   0  0  0  0  0  0  0  0  0  0  0  0
   60.3070   29.0680   46.9070 C   0  0  0  0  0  0  0  0  0  0  0  0
   60.0040   28.5210   48.1660 C   0  0  0  0  0  0  0  0  0  0  0  0
   60.4440   29.1480   49.3350 C   0  0  0  0  0  0  0  0  0  0  0  0
   61.2150   30.3180   49.2640 C   0  0  0  0  0  0  0  0  0  0  0  0
   61.6600   30.9850   50.4520 N   0  0  0  0  0  0  0  0  0  0  0  0
   60.8860   32.4150   51.0580 S   0  0  0  0  0  0  0  0  0  0  0  0
   59.5060   32.5170   50.4720 O   0  0  0  0  0  0  0  0  0  0  0  0
   60.7790   32.3740   52.5570 O   0  0  0  0  0  0  0  0  0  0  0  0
   61.8460   33.8420   50.5840 C   0  0  0  0  0  0  0  0  0  0  0  0
   62.1610   33.7880   49.1140 C   0  0  0  0  0  0  0  0  0  0  0  0
   61.1800   34.1260   48.1680 C   0  0  0  0  0  0  0  0  0  0  0  0
   61.4880   34.1270   46.8040 C   0  0  0  0  0  0  0  0  0  0  0  0
   62.7780   33.7990   46.3770 C   0  0  0  0  0  0  0  0  0  0  0  0
   63.7630   33.4740   47.3130 C   0  0  0  0  0  0  0  0  0  0  0  0
   63.4580   33.4680   48.6780 C   0  0  0  0  0  0  0  0  0  0  0  0
   61.5190   30.8630   48.0100 C   0  0  0  0  0  0  0  0  0  0  0  0
   61.0880   30.2320   46.8420 C   0  0  0  0  0  0  0  0  0  0  0  0
   57.5050   29.2040   44.9230 N   0  0  0  0  0  0  0  0  0  0  0  0
   57.8890   30.3830   44.1350 C   0  0  0  0  0  0  0  0  0  0  0  0
   57.9690   31.6100   45.0050 C   0  0  0  0  0  0  0  0  0  0  0  0
   58.1240   31.4830   46.3970 C   0  0  0  0  0  0  0  0  0  0  0  0
   58.1700   32.6200   47.2100 C   0  0  0  0  0  0  0  0  0  0  0  0
   58.0680   33.8910   46.6400 C   0  0  0  0  0  0  0  0  0  0  0  0
   57.9360   34.0290   45.2570 C   0  0  0  0  0  0  0  0  0  0  0  0
   57.8970   32.8960   44.4380 C   0  0  0  0  0  0  0  0  0  0  0  0
   57.7940   33.0540   43.0950 F   0  0  0  0  0  0  0  0  0  0  0  0
   58.5327   26.3088   47.6858 H   0  0  0  0  0  0  0  0  0  0  0  0
   57.0797   25.4416   46.9901 H   0  0  0  0  0  0  0  0  0  0  0  0
   58.7508   25.4812   44.8443 H   0  0  0  0  0  0  0  0  0  0  0  0
   59.9191   25.3302   46.2462 H   0  0  0  0  0  0  0  0  0  0  0  0
   59.5700   23.1227   46.0180 H   0  0  0  0  0  0  0  0  0  0  0  0
   58.0276   23.4849   46.9088 H   0  0  0  0  0  0  0  0  0  0  0  0
   56.6705   24.9914   44.6018 H   0  0  0  0  0  0  0  0  0  0  0  0
   55.3253   24.1563   42.6759 H   0  0  0  0  0  0  0  0  0  0  0  0
   55.7069   21.8542   41.7872 H   0  0  0  0  0  0  0  0  0  0  0  0
   57.4395   20.3866   42.8246 H   0  0  0  0  0  0  0  0  0  0  0  0
   58.7660   21.2024   44.7726 H   0  0  0  0  0  0  0  0  0  0  0  0
   60.2246   27.3804   45.6013 H   0  0  0  0  0  0  0  0  0  0  0  0
   60.1625   29.0017   44.7882 H   0  0  0  0  0  0  0  0  0  0  0  0
   59.4167   27.5932   48.2315 H   0  0  0  0  0  0  0  0  0  0  0  0
   60.1846   28.7221   50.3155 H   0  0  0  0  0  0  0  0  0  0  0  0
   62.2330   30.4450   51.1370 H   0  0  0  0  0  0  0  0  0  0  0  0
   61.2716   34.7550   50.7997 H   0  0  0  0  0  0  0  0  0  0  0  0
   62.7869   33.8484   51.1538 H   0  0  0  0  0  0  0  0  0  0  0  0
   60.1657   34.3909   48.5010 H   0  0  0  0  0  0  0  0  0  0  0  0
   60.7143   34.3862   46.0662 H   0  0  0  0  0  0  0  0  0  0  0  0
   63.0177   33.7968   45.3034 H   0  0  0  0  0  0  0  0  0  0  0  0
   64.7795   33.2226   46.9761 H   0  0  0  0  0  0  0  0  0  0  0  0
   64.2358   33.2120   49.4125 H   0  0  0  0  0  0  0  0  0  0  0  0
   62.1011   31.7941   47.9453 H   0  0  0  0  0  0  0  0  0  0  0  0
   61.3628   30.6506   45.8626 H   0  0  0  0  0  0  0  0  0  0  0  0
   58.8718   30.2036   43.6746 H   0  0  0  0  0  0  0  0  0  0  0  0
   57.1260   30.5511   43.3607 H   0  0  0  0  0  0  0  0  0  0  0  0
   58.2095   30.4837   46.8489 H   0  0  0  0  0  0  0  0  0  0  0  0
   58.2865   32.5133   48.2986 H   0  0  0  0  0  0  0  0  0  0  0  0
   58.0917   34.7843   47.2815 H   0  0  0  0  0  0  0  0  0  0  0  0
   57.8625   35.0315   44.8103 H   0  0  0  0  0  0  0  0  0  0  0  0
  1  2  2  0
  2  3  1  0
  3  4  1  0
  3  5  1  0
  5  6  1  0
  6  7  1  0
  7  8  1  0
  8  9  1  0
  9 10  2  0
 10 11  1  0
 11 12  2  0
 12 13  1  0
 13 14  2  0
  5 15  2  0
 15 16  1  0
 16 17  1  0
 17 18  2  0
 18 19  1  0
 19 20  2  0
 20 21  1  0
 21 22  1  0
 22 23  2  0
 22 24  2  0
 22 25  1  0
 25 26  1  0
 26 27  2  0
 27 28  1  0
 28 29  2  0
 29 30  1  0
 30 31  2  0
 20 32  1  0
 32 33  2  0
 15 34  1  0
 34 35  1  0
 35 36  1  0
 36 37  2  0
 37 38  1  0
 38 39  2  0
 39 40  1  0
 40 41  2  0
 41 42  1  0
 34  2  1  0
 41 36  1  0
 14  9  1  0
 33 17  1  0
 31 26  1  0
  6 43  1  0
  6 44  1  0
  7 45  1  0
  7 46  1  0
  8 47  1  0
  8 48  1  0
 10 49  1  0
 11 50  1  0
 12 51  1  0
 13 52  1  0
 14 53  1  0
 16 54  1  0
 16 55  1  0
 18 56  1  0
 19 57  1  0
 21 58  1  0
 25 59  1  0
 25 60  1  0
 27 61  1  0
 28 62  1  0
 29 63  1  0
 30 64  1  0
 31 65  1  0
 32 66  1  0
 33 67  1  0
 35 68  1  0
 35 69  1  0
 37 70  1  0
 38 71  1  0
 39 72  1  0
 40 73  1  0
M  CHG  1   4  -1
M  END
>  <UniqueID>  (79) 
69

>  <SMILES>  (79) 
O=c1n([O-])c(CCCc2ccccc2)c(Cc2ccc(NS(=O)(=O)Cc3ccccc3)cc2)n1Cc1ccccc1F

>  <Energy>  (79) 
101.54778825022458

>  <Genealogy>  (79) 
O=c1n([O-])c(CCCc2ccccc2)c(Cc2ccc(NS(=O)(=O)Cc3ccccc3)cc2)n1Cc1ccccc1F (protonated)
O=c1n([O-])c(CCCc2ccccc2)c(Cc2ccc(NS(=O)(=O)Cc3ccccc3)cc2)n1Cc1ccccc1F (3D coordinates assigned)
O=c1n([O-])c(CCCc2ccccc2)c(Cc2ccc(NS(=O)(=O)Cc3ccccc3)cc2)n1Cc1ccccc1F (optimized conformer: 101.54778825022458 kcal/mol)

>  <smiles>  (79) 
O=c1n(O)c(CCCc2ccccc2)c(Cc2ccc(NS(=O)(=O)Cc3ccccc3)cc2)n1Cc1ccccc1F

>  <score_type>  (79) 
oracle

>  <origin>  (79) 
adg

>  <m_score__min__energy>  (79) 
-15.779999999999999

>  <m_primary>  (79) 
energy

$$$$
79:0
     RDKit          3D

 45 47  0  0  0  0  0  0  0  0999 V2000
   57.7660   21.5810   43.8210 C   0  0  0  0  0  0  0  0  0  0  0  0
   57.0830   22.7260   44.4350 N   0  0  0  0  0  0  0  0  0  0  0  0
   57.6950   23.9150   44.4790 N   0  0  0  0  0  0  0  0  0  0  0  0
   57.0920   25.0020   45.0240 C   0  0  0  0  0  0  0  0  0  0  0  0
   57.7640   26.2710   45.0280 N   0  0  0  0  0  0  0  0  0  0  0  0
   57.9820   26.9720   43.7610 C   0  0  0  0  0  0  0  0  0  0  0  0
   58.8160   28.2490   43.9650 C   0  0  0  0  0  0  0  0  0  0  0  0
   58.3430   29.0960   45.0870 N   0  0  0  0  0  0  0  0  0  0  0  0
   57.2990   30.3860   44.5350 S   0  0  0  0  0  0  0  0  0  0  0  0
   55.8830   30.0830   44.9410 O   0  0  0  0  0  0  0  0  0  0  0  0
   57.3440   30.4640   43.0340 O   0  0  0  0  0  0  0  0  0  0  0  0
   57.7780   31.9440   45.2120 C   0  0  0  0  0  0  0  0  0  0  0  0
   57.7810   33.0950   44.4100 C   0  0  0  0  0  0  0  0  0  0  0  0
   58.1920   34.3210   44.9400 C   0  0  0  0  0  0  0  0  0  0  0  0
   58.5950   34.4070   46.2760 C   0  0  0  0  0  0  0  0  0  0  0  0
   58.5840   33.2660   47.0830 C   0  0  0  0  0  0  0  0  0  0  0  0
   58.1750   32.0380   46.5550 C   0  0  0  0  0  0  0  0  0  0  0  0
   57.7440   28.3760   46.2350 C   0  0  0  0  0  0  0  0  0  0  0  0
   58.1570   26.9070   46.2860 C   0  0  0  0  0  0  0  0  0  0  0  0
   55.7990   24.8710   45.5390 C   0  0  0  0  0  0  0  0  0  0  0  0
   55.2050   25.8850   45.9990 O   0  0  0  0  0  0  0  0  0  0  0  0
   55.1820   23.6480   45.5210 N   0  0  0  0  0  0  0  0  0  0  0  0
   53.8110   23.5040   46.0370 C   0  0  0  0  0  0  0  0  0  0  0  0
   55.8190   22.5820   44.9430 C   0  0  0  0  0  0  0  0  0  0  0  0
   55.2390   21.4600   44.8730 O   0  0  0  0  0  0  0  0  0  0  0  0
   58.1589   20.9224   44.6096 H   0  0  0  0  0  0  0  0  0  0  0  0
   57.0542   21.0212   43.1966 H   0  0  0  0  0  0  0  0  0  0  0  0
   58.5968   21.9414   43.1966 H   0  0  0  0  0  0  0  0  0  0  0  0
   58.6590   24.0250   44.0920 H   0  0  0  0  0  0  0  0  0  0  0  0
   58.5141   26.3033   43.0684 H   0  0  0  0  0  0  0  0  0  0  0  0
   57.0028   27.2587   43.3498 H   0  0  0  0  0  0  0  0  0  0  0  0
   59.8570   27.9557   44.1659 H   0  0  0  0  0  0  0  0  0  0  0  0
   58.7187   28.8471   43.0469 H   0  0  0  0  0  0  0  0  0  0  0  0
   57.4587   33.0323   43.3602 H   0  0  0  0  0  0  0  0  0  0  0  0
   58.1985   35.2194   44.3053 H   0  0  0  0  0  0  0  0  0  0  0  0
   58.9205   35.3720   46.6917 H   0  0  0  0  0  0  0  0  0  0  0  0
   58.8976   33.3344   48.1351 H   0  0  0  0  0  0  0  0  0  0  0  0
   58.1642   31.1427   47.1939 H   0  0  0  0  0  0  0  0  0  0  0  0
   58.0673   28.8655   47.1655 H   0  0  0  0  0  0  0  0  0  0  0  0
   56.6509   28.4112   46.1171 H   0  0  0  0  0  0  0  0  0  0  0  0
   59.2468   26.8321   46.4152 H   0  0  0  0  0  0  0  0  0  0  0  0
   57.6642   26.4058   47.1321 H   0  0  0  0  0  0  0  0  0  0  0  0
   53.8311   23.5061   47.1368 H   0  0  0  0  0  0  0  0  0  0  0  0
   53.1949   24.3424   45.6799 H   0  0  0  0  0  0  0  0  0  0  0  0
   53.3825   22.5559   45.6799 H   0  0  0  0  0  0  0  0  0  0  0  0
  1  2  1  0
  2  3  1  0
  3  4  2  0
  4  5  1  0
  5  6  1  0
  6  7  1  0
  7  8  1  0
  8  9  1  0
  9 10  2  0
  9 11  2  0
  9 12  1  0
 12 13  2  0
 13 14  1  0
 14 15  2  0
 15 16  1  0
 16 17  2  0
  8 18  1  0
 18 19  1  0
  4 20  1  0
 20 21  2  0
 20 22  1  0
 22 23  1  0
 22 24  1  0
 24 25  2  0
 24  2  1  0
 19  5  1  0
 17 12  1  0
  1 26  1  0
  1 27  1  0
  1 28  1  0
  3 29  1  0
  6 30  1  0
  6 31  1  0
  7 32  1  0
  7 33  1  0
 13 34  1  0
 14 35  1  0
 15 36  1  0
 16 37  1  0
 17 38  1  0
 18 39  1  0
 18 40  1  0
 19 41  1  0
 19 42  1  0
 23 43  1  0
 23 44  1  0
 23 45  1  0
M  CHG  1   3   1
M  END
>  <UniqueID>  (80) 
70

>  <SMILES>  (80) 
Cn1[nH+]c(N2CCN(S(=O)(=O)c3ccccc3)CC2)c(=O)n(C)c1=O

>  <Energy>  (80) 
61.75510488040968

>  <Genealogy>  (80) 
Cn1[nH+]c(N2CCN(S(=O)(=O)c3ccccc3)CC2)c(=O)n(C)c1=O (protonated)
Cn1[nH+]c(N2CCN(S(=O)(=O)c3ccccc3)CC2)c(=O)n(C)c1=O (3D coordinates assigned)
Cn1[nH+]c(N2CCN(S(=O)(=O)c3ccccc3)CC2)c(=O)n(C)c1=O (nonaromatic ring conformer: 61.75510488040968 kcal/mol)

>  <smiles>  (80) 
Cn1nc(N2CCN(S(=O)(=O)c3ccccc3)CC2)c(=O)n(C)c1=O

>  <score_type>  (80) 
oracle

>  <origin>  (80) 
adg

>  <m_score__min__energy>  (80) 
-7.2400000000000002

>  <m_primary>  (80) 
energy

$$$$
80:0
     RDKit          3D

 52 54  0  0  0  0  0  0  0  0999 V2000
   54.6880   27.5080   52.9960 O   0  0  0  0  0  0  0  0  0  0  0  0
   54.7580   28.7620   53.0870 C   0  0  0  0  0  0  0  0  0  0  0  0
   53.6090   29.5170   53.7000 C   0  0  0  0  0  0  0  0  0  0  0  0
   52.8140   30.2500   52.6490 C   0  0  0  0  0  0  0  0  0  0  0  0
   52.8680   29.8480   51.3020 C   0  0  0  0  0  0  0  0  0  0  0  0
   52.1400   30.5430   50.3300 C   0  0  0  0  0  0  0  0  0  0  0  0
   51.3620   31.6500   50.6900 C   0  0  0  0  0  0  0  0  0  0  0  0
   50.6490   32.3450   49.7210 O   0  0  0  0  0  0  0  0  0  0  0  0
   51.3030   32.0560   52.0270 C   0  0  0  0  0  0  0  0  0  0  0  0
   52.0260   31.3610   53.0040 C   0  0  0  0  0  0  0  0  0  0  0  0
   55.9250   29.4270   52.5840 N   0  0  0  0  0  0  0  0  0  0  0  0
   56.1550   30.8630   52.6570 C   0  0  0  0  0  0  0  0  0  0  0  0
   57.3160   31.2280   51.7880 C   0  0  0  0  0  0  0  0  0  0  0  0
   57.9650   32.4620   51.9310 C   0  0  0  0  0  0  0  0  0  0  0  0
   59.0480   32.7680   51.1030 C   0  0  0  0  0  0  0  0  0  0  0  0
   59.4860   31.8400   50.1530 C   0  0  0  0  0  0  0  0  0  0  0  0
   60.5740   32.1380   49.3320 O   0  0  0  0  0  0  0  0  0  0  0  0
   58.8220   30.6010   50.0500 C   0  0  0  0  0  0  0  0  0  0  0  0
   59.2830   29.5240   49.1110 C   0  0  0  0  0  0  0  0  0  0  0  0
   59.6330   30.1310   47.8190 N   0  0  0  0  0  0  0  0  0  0  0  0
   60.7480   29.4220   47.1710 C   0  0  0  0  0  0  0  0  0  0  0  0
   60.3120   28.8520   45.8140 C   0  0  0  0  0  0  0  0  0  0  0  0
   58.9200   28.2800   45.8780 C   0  0  0  0  0  0  0  0  0  0  0  0
   57.8630   28.9150   45.1990 C   0  0  0  0  0  0  0  0  0  0  0  0
   56.5740   28.3720   45.2380 C   0  0  0  0  0  0  0  0  0  0  0  0
   56.3310   27.1930   45.9510 C   0  0  0  0  0  0  0  0  0  0  0  0
   55.0510   26.6530   45.9870 O   0  0  0  0  0  0  0  0  0  0  0  0
   57.3780   26.5570   46.6250 C   0  0  0  0  0  0  0  0  0  0  0  0
   58.6680   27.0960   46.5900 C   0  0  0  0  0  0  0  0  0  0  0  0
   57.7680   30.3360   50.8670 N   0  0  0  0  0  0  0  0  0  0  0  0
   52.9486   28.8062   54.2183 H   0  0  0  0  0  0  0  0  0  0  0  0
   54.0156   30.2555   54.4066 H   0  0  0  0  0  0  0  0  0  0  0  0
   53.4846   28.9845   51.0119 H   0  0  0  0  0  0  0  0  0  0  0  0
   52.1790   30.2186   49.2796 H   0  0  0  0  0  0  0  0  0  0  0  0
   50.6878   32.9224   52.3114 H   0  0  0  0  0  0  0  0  0  0  0  0
   51.9780   31.6848   54.0542 H   0  0  0  0  0  0  0  0  0  0  0  0
   55.2569   31.3960   52.3115 H   0  0  0  0  0  0  0  0  0  0  0  0
   56.3729   31.1465   53.6973 H   0  0  0  0  0  0  0  0  0  0  0  0
   57.6247   33.1833   52.6885 H   0  0  0  0  0  0  0  0  0  0  0  0
   59.5561   33.7389   51.1984 H   0  0  0  0  0  0  0  0  0  0  0  0
   60.7320   31.6450   48.4600 H   0  0  0  0  0  0  0  0  0  0  0  0
   60.1654   29.0204   49.5326 H   0  0  0  0  0  0  0  0  0  0  0  0
   58.4791   28.7867   48.9688 H   0  0  0  0  0  0  0  0  0  0  0  0
   58.7950   30.0520   47.1890 H   0  0  0  0  0  0  0  0  0  0  0  0
   61.5814   30.1233   47.0173 H   0  0  0  0  0  0  0  0  0  0  0  0
   61.0635   28.5911   47.8191 H   0  0  0  0  0  0  0  0  0  0  0  0
   60.3338   29.6568   45.0644 H   0  0  0  0  0  0  0  0  0  0  0  0
   61.0056   28.0434   45.5400 H   0  0  0  0  0  0  0  0  0  0  0  0
   58.0510   29.8411   44.6359 H   0  0  0  0  0  0  0  0  0  0  0  0
   55.7507   28.8727   44.7074 H   0  0  0  0  0  0  0  0  0  0  0  0
   57.1864   25.6296   47.1847 H   0  0  0  0  0  0  0  0  0  0  0  0
   59.4878   26.5910   47.1218 H   0  0  0  0  0  0  0  0  0  0  0  0
  1  2  2  0
  2  3  1  0
  3  4  1  0
  4  5  2  0
  5  6  1  0
  6  7  2  0
  7  8  1  0
  7  9  1  0
  9 10  2  0
  2 11  1  0
 11 12  1  0
 12 13  1  0
 13 14  2  0
 14 15  1  0
 15 16  2  0
 16 17  1  0
 16 18  1  0
 18 19  1  0
 19 20  1  0
 20 21  1  0
 21 22  1  0
 22 23  1  0
 23 24  2  0
 24 25  1  0
 25 26  2  0
 26 27  1  0
 26 28  1  0
 28 29  2  0
 18 30  2  0
 10  4  1  0
 30 13  1  0
 29 23  1  0
  3 31  1  0
  3 32  1  0
  5 33  1  0
  6 34  1  0
  9 35  1  0
 10 36  1  0
 12 37  1  0
 12 38  1  0
 14 39  1  0
 15 40  1  0
 17 41  1  0
 19 42  1  0
 19 43  1  0
 20 44  1  0
 21 45  1  0
 21 46  1  0
 22 47  1  0
 22 48  1  0
 24 49  1  0
 25 50  1  0
 28 51  1  0
 29 52  1  0
M  CHG  3   8  -1  11  -1  27  -1
M  END
>  <UniqueID>  (81) 
71

>  <SMILES>  (81) 
O=C(Cc1ccc([O-])cc1)[N-]Cc1ccc(O)c(CNCCc2ccc([O-])cc2)n1

>  <Energy>  (81) 
46.054080520405286

>  <Genealogy>  (81) 
O=C(Cc1ccc([O-])cc1)[N-]Cc1ccc(O)c(CNCCc2ccc([O-])cc2)n1 (protonated)
O=C(Cc1ccc([O-])cc1)[N-]Cc1ccc(O)c(CNCCc2ccc([O-])cc2)n1 (3D coordinates assigned)
O=C(Cc1ccc([O-])cc1)[N-]Cc1ccc(O)c(CNCCc2ccc([O-])cc2)n1 (optimized conformer: 46.054080520405286 kcal/mol)

>  <smiles>  (81) 
O=C(Cc1ccc(O)cc1)NCc1ccc(O)c(CNCCc2ccc(O)cc2)n1

>  <score_type>  (81) 
oracle

>  <origin>  (81) 
adg

>  <m_score__min__energy>  (81) 
-16.41

>  <m_primary>  (81) 
energy

$$$$
81:0
     RDKit          3D

 66 70  0  0  0  0  0  0  0  0999 V2000
   57.2550   28.9780   43.2560 C   0  0  0  0  0  0  0  0  0  0  0  0
   56.6310   29.0630   44.9230 S   0  0  0  0  0  0  0  0  0  0  0  0
   55.1440   29.2660   44.8720 O   0  0  0  0  0  0  0  0  0  0  0  0
   57.2750   30.2480   45.5850 O   0  0  0  0  0  0  0  0  0  0  0  0
   56.9960   27.5930   45.8480 C   0  0  0  0  0  0  0  0  0  0  0  0
   56.1520   26.4750   45.7370 C   0  0  0  0  0  0  0  0  0  0  0  0
   56.4370   25.2960   46.4290 C   0  0  0  0  0  0  0  0  0  0  0  0
   57.5690   25.2160   47.2400 C   0  0  0  0  0  0  0  0  0  0  0  0
   58.4130   26.3180   47.3720 C   0  0  0  0  0  0  0  0  0  0  0  0
   58.1330   27.5140   46.6920 C   0  0  0  0  0  0  0  0  0  0  0  0
   59.0380   28.6610   46.8800 C   0  0  0  0  0  0  0  0  0  0  0  0
   59.9970   28.9660   45.9070 C   0  0  0  0  0  0  0  0  0  0  0  0
   60.8050   30.0950   46.0490 C   0  0  0  0  0  0  0  0  0  0  0  0
   60.6510   30.9500   47.1540 C   0  0  0  0  0  0  0  0  0  0  0  0
   61.5160   32.1930   47.2360 C   0  0  0  0  0  0  0  0  0  0  0  0
   62.0580   32.4380   48.6010 N   0  0  0  0  0  0  0  0  0  0  0  0
   63.3360   31.9840   48.8530 C   0  0  0  0  0  0  0  0  0  0  0  0
   64.1470   31.7740   47.9080 O   0  0  0  0  0  0  0  0  0  0  0  0
   63.7440   31.7210   50.1190 N   0  0  0  0  0  0  0  0  0  0  0  0
   62.9060   31.8530   51.1710 C   0  0  0  0  0  0  0  0  0  0  0  0
   63.2950   31.5000   52.3190 O   0  0  0  0  0  0  0  0  0  0  0  0
   61.6340   32.4020   50.9800 C   0  0  0  0  0  0  0  0  0  0  0  0
   60.7520   32.5450   52.0630 C   0  0  0  0  0  0  0  0  0  0  0  0
   59.5280   33.1690   51.8930 C   0  0  0  0  0  0  0  0  0  0  0  0
   59.2060   33.7380   50.6690 C   0  0  0  0  0  0  0  0  0  0  0  0
   60.0630   33.6250   49.5560 C   0  0  0  0  0  0  0  0  0  0  0  0
   59.8030   34.6150   48.4330 C   0  0  0  0  0  0  0  0  0  0  0  0
   59.2430   33.9540   47.1460 C   0  0  0  0  0  0  0  0  0  0  0  0
   57.7770   33.4700   47.3080 C   0  0  0  0  0  0  0  0  0  0  0  0
   57.0280   33.3030   45.9680 C   0  0  0  0  0  0  0  0  0  0  0  0
   57.9860   33.0450   44.8020 C   0  0  0  0  0  0  0  0  0  0  0  0
   58.9740   34.2120   44.6180 C   0  0  0  0  0  0  0  0  0  0  0  0
   59.3560   34.9100   45.9420 C   0  0  0  0  0  0  0  0  0  0  0  0
   61.2560   32.8240   49.6720 C   0  0  0  0  0  0  0  0  0  0  0  0
   59.7450   30.5910   48.1690 C   0  0  0  0  0  0  0  0  0  0  0  0
   58.9340   29.4620   48.0250 C   0  0  0  0  0  0  0  0  0  0  0  0
   58.3447   28.8296   43.2795 H   0  0  0  0  0  0  0  0  0  0  0  0
   56.7815   28.1361   42.7297 H   0  0  0  0  0  0  0  0  0  0  0  0
   57.0240   29.9159   42.7297 H   0  0  0  0  0  0  0  0  0  0  0  0
   55.2578   26.5291   45.0986 H   0  0  0  0  0  0  0  0  0  0  0  0
   55.7673   24.4285   46.3343 H   0  0  0  0  0  0  0  0  0  0  0  0
   57.7961   24.2826   47.7760 H   0  0  0  0  0  0  0  0  0  0  0  0
   59.3042   26.2499   48.0132 H   0  0  0  0  0  0  0  0  0  0  0  0
   60.1140   28.3144   45.0285 H   0  0  0  0  0  0  0  0  0  0  0  0
   61.5690   30.3177   45.2896 H   0  0  0  0  0  0  0  0  0  0  0  0
   62.3597   32.0790   46.5395 H   0  0  0  0  0  0  0  0  0  0  0  0
   60.8808   33.0526   46.9760 H   0  0  0  0  0  0  0  0  0  0  0  0
   64.7090   31.3520   50.2790 H   0  0  0  0  0  0  0  0  0  0  0  0
   61.0354   32.1586   53.0531 H   0  0  0  0  0  0  0  0  0  0  0  0
   58.8119   33.2137   52.7268 H   0  0  0  0  0  0  0  0  0  0  0  0
   58.2602   34.2899   50.5651 H   0  0  0  0  0  0  0  0  0  0  0  0
   59.0757   35.3605   48.7869 H   0  0  0  0  0  0  0  0  0  0  0  0
   60.7698   35.0693   48.1704 H   0  0  0  0  0  0  0  0  0  0  0  0
   59.8616   33.0635   46.9606 H   0  0  0  0  0  0  0  0  0  0  0  0
   57.7868   32.4986   47.8240 H   0  0  0  0  0  0  0  0  0  0  0  0
   57.2440   34.2434   47.8806 H   0  0  0  0  0  0  0  0  0  0  0  0
   56.3348   32.4531   46.0525 H   0  0  0  0  0  0  0  0  0  0  0  0
   56.4880   34.2390   45.7624 H   0  0  0  0  0  0  0  0  0  0  0  0
   58.5532   32.1239   45.0019 H   0  0  0  0  0  0  0  0  0  0  0  0
   57.3922   32.9456   43.8814 H   0  0  0  0  0  0  0  0  0  0  0  0
   59.8912   33.8217   44.1528 H   0  0  0  0  0  0  0  0  0  0  0  0
   58.4743   34.9630   43.9886 H   0  0  0  0  0  0  0  0  0  0  0  0
   60.3930   35.2695   45.8688 H   0  0  0  0  0  0  0  0  0  0  0  0
   58.6585   35.7454   46.1019 H   0  0  0  0  0  0  0  0  0  0  0  0
   59.6747   31.2023   49.0808 H   0  0  0  0  0  0  0  0  0  0  0  0
   58.2119   29.2014   48.8128 H   0  0  0  0  0  0  0  0  0  0  0  0
  1  2  1  0
  2  3  2  0
  2  4  2  0
  2  5  1  0
  5  6  2  0
  6  7  1  0
  7  8  2  0
  8  9  1  0
  9 10  2  0
 10 11  1  0
 11 12  2  0
 12 13  1  0
 13 14  2  0
 14 15  1  0
 15 16  1  0
 16 17  1  0
 17 18  2  0
 17 19  1  0
 19 20  1  0
 20 21  2  0
 20 22  1  0
 22 23  2  0
 23 24  1  0
 24 25  2  0
 25 26  1  0
 26 27  1  0
 27 28  1  0
 28 29  1  0
 29 30  1  0
 30 31  1  0
 31 32  1  0
 32 33  1  0
 26 34  2  0
 14 35  1  0
 35 36  2  0
 10  5  1  0
 36 11  1  0
 34 16  1  0
 34 22  1  0
 33 28  1  0
  1 37  1  0
  1 38  1  0
  1 39  1  0
  6 40  1  0
  7 41  1  0
  8 42  1  0
  9 43  1  0
 12 44  1  0
 13 45  1  0
 15 46  1  0
 15 47  1  0
 19 48  1  0
 23 49  1  0
 24 50  1  0
 25 51  1  0
 27 52  1  0
 27 53  1  0
 28 54  1  0
 29 55  1  0
 29 56  1  0
 30 57  1  0
 30 58  1  0
 31 59  1  0
 31 60  1  0
 32 61  1  0
 32 62  1  0
 33 63  1  0
 33 64  1  0
 35 65  1  0
 36 66  1  0
M  END
>  <UniqueID>  (82) 
72

>  <SMILES>  (82) 
CS(=O)(=O)c1ccccc1-c1ccc(Cn2c(=O)[nH]c(=O)c3cccc(CC4CCCCC4)c32)cc1

>  <Energy>  (82) 
108.21886346573675

>  <Genealogy>  (82) 
CS(=O)(=O)c1ccccc1-c1ccc(Cn2c(=O)[nH]c(=O)c3cccc(CC4CCCCC4)c32)cc1 (3D coordinates assigned)
CS(=O)(=O)c1ccccc1-c1ccc(Cn2c(=O)[nH]c(=O)c3cccc(CC4CCCCC4)c32)cc1 (nonaromatic ring conformer: 108.21886346573675 kcal/mol)

>  <smiles>  (82) 
CS(=O)(=O)c1ccccc1-c1ccc(Cn2c(=O)[nH]c(=O)c3cccc(CC4CCCCC4)c32)cc1

>  <score_type>  (82) 
oracle

>  <origin>  (82) 
adg

>  <m_score__min__energy>  (82) 
-10.779999999999999

>  <m_primary>  (82) 
energy

$$$$
82:0
     RDKit          3D

 55 58  0  0  0  0  0  0  0  0999 V2000
   62.7770   32.3260   48.1150 C   0  0  0  0  0  0  0  0  0  0  0  0
   61.4920   32.9410   47.8070 N   0  0  0  0  0  0  0  0  0  0  0  0
   61.2150   34.2210   48.0000 N   0  0  0  0  0  0  0  0  0  0  0  0
   59.9200   34.4180   47.6670 C   0  0  0  0  0  0  0  0  0  0  0  0
   59.3640   33.2180   47.2570 C   0  0  0  0  0  0  0  0  0  0  0  0
   57.9440   32.9610   46.8480 C   0  0  0  0  0  0  0  0  0  0  0  0
   57.8590   31.7470   46.0350 N   0  0  0  0  0  0  0  0  0  0  0  0
   57.5620   31.7280   44.6190 C   0  0  0  0  0  0  0  0  0  0  0  0
   58.0200   32.7600   43.7730 C   0  0  0  0  0  0  0  0  0  0  0  0
   57.8250   32.6950   42.3930 C   0  0  0  0  0  0  0  0  0  0  0  0
   57.1710   31.6010   41.8300 C   0  0  0  0  0  0  0  0  0  0  0  0
   56.6920   30.5770   42.6480 C   0  0  0  0  0  0  0  0  0  0  0  0
   56.8620   30.6340   44.0410 C   0  0  0  0  0  0  0  0  0  0  0  0
   56.2790   29.5560   44.8620 C   0  0  0  0  0  0  0  0  0  0  0  0
   55.1770   29.0410   44.5330 O   0  0  0  0  0  0  0  0  0  0  0  0
   57.0040   29.0490   45.9920 N   0  0  0  0  0  0  0  0  0  0  0  0
   57.8500   27.8910   45.9760 C   0  0  0  0  0  0  0  0  0  0  0  0
   59.2380   28.0640   46.0110 C   0  0  0  0  0  0  0  0  0  0  0  0
   60.0860   26.9550   46.0360 C   0  0  0  0  0  0  0  0  0  0  0  0
   59.5550   25.6620   46.0570 C   0  0  0  0  0  0  0  0  0  0  0  0
   58.1650   25.4700   46.0650 C   0  0  0  0  0  0  0  0  0  0  0  0
   57.6000   24.1010   46.1040 C   0  0  0  0  0  0  0  0  0  0  0  0
   57.4240   23.5420   47.2220 O   0  0  0  0  0  0  0  0  0  0  0  0
   57.2550   23.3940   44.8970 N   0  0  0  0  0  0  0  0  0  0  0  0
   57.3220   21.9340   44.8620 C   0  0  0  0  0  0  0  0  0  0  0  0
   57.3570   21.4590   43.4000 C   0  0  0  0  0  0  0  0  0  0  0  0
   56.2720   21.9150   42.5990 O   0  0  0  0  0  0  0  0  0  0  0  0
   55.6830   23.1360   43.0310 C   0  0  0  0  0  0  0  0  0  0  0  0
   56.6480   24.0870   43.7560 C   0  0  0  0  0  0  0  0  0  0  0  0
   57.3180   26.5890   46.0060 C   0  0  0  0  0  0  0  0  0  0  0  0
   60.3880   32.3060   47.3790 C   0  0  0  0  0  0  0  0  0  0  0  0
   60.3100   30.9420   47.1200 O   0  0  0  0  0  0  0  0  0  0  0  0
   62.9026   32.2659   49.2062 H   0  0  0  0  0  0  0  0  0  0  0  0
   62.8114   31.3138   47.6857 H   0  0  0  0  0  0  0  0  0  0  0  0
   63.5868   32.9341   47.6857 H   0  0  0  0  0  0  0  0  0  0  0  0
   59.3905   35.3810   47.7143 H   0  0  0  0  0  0  0  0  0  0  0  0
   57.3240   32.8384   47.7483 H   0  0  0  0  0  0  0  0  0  0  0  0
   57.5837   33.8140   46.2542 H   0  0  0  0  0  0  0  0  0  0  0  0
   58.1390   30.8630   46.5160 H   0  0  0  0  0  0  0  0  0  0  0  0
   58.5379   33.6278   44.2074 H   0  0  0  0  0  0  0  0  0  0  0  0
   58.1882   33.5089   41.7483 H   0  0  0  0  0  0  0  0  0  0  0  0
   57.0322   31.5445   40.7402 H   0  0  0  0  0  0  0  0  0  0  0  0
   56.1760   29.7164   42.1973 H   0  0  0  0  0  0  0  0  0  0  0  0
   59.6632   29.0785   46.0189 H   0  0  0  0  0  0  0  0  0  0  0  0
   61.1765   27.0994   46.0392 H   0  0  0  0  0  0  0  0  0  0  0  0
   60.2288   24.7926   46.0673 H   0  0  0  0  0  0  0  0  0  0  0  0
   58.2318   21.5959   45.3796 H   0  0  0  0  0  0  0  0  0  0  0  0
   56.4380   21.5136   45.3637 H   0  0  0  0  0  0  0  0  0  0  0  0
   58.2924   21.8177   42.9457 H   0  0  0  0  0  0  0  0  0  0  0  0
   57.2818   20.3619   43.4285 H   0  0  0  0  0  0  0  0  0  0  0  0
   55.2857   23.6573   42.1476 H   0  0  0  0  0  0  0  0  0  0  0  0
   54.9029   22.8671   43.7585 H   0  0  0  0  0  0  0  0  0  0  0  0
   57.4373   24.4083   43.0604 H   0  0  0  0  0  0  0  0  0  0  0  0
   56.0939   24.9668   44.1149 H   0  0  0  0  0  0  0  0  0  0  0  0
   56.2276   26.4458   45.9830 H   0  0  0  0  0  0  0  0  0  0  0  0
  1  2  1  0
  2  3  1  0
  3  4  2  0
  4  5  1  0
  5  6  1  0
  6  7  1  0
  7  8  1  0
  8  9  2  0
  9 10  1  0
 10 11  2  0
 11 12  1  0
 12 13  2  0
 13 14  1  0
 14 15  2  0
 14 16  1  0
 16 17  1  0
 17 18  2  0
 18 19  1  0
 19 20  2  0
 20 21  1  0
 21 22  1  0
 22 23  2  0
 22 24  1  0
 24 25  1  0
 25 26  1  0
 26 27  1  0
 27 28  1  0
 28 29  1  0
 21 30  2  0
  5 31  2  0
 31 32  1  0
 31  2  1  0
 13  8  1  0
 30 17  1  0
 29 24  1  0
  1 33  1  0
  1 34  1  0
  1 35  1  0
  4 36  1  0
  6 37  1  0
  6 38  1  0
  7 39  1  0
  9 40  1  0
 10 41  1  0
 11 42  1  0
 12 43  1  0
 18 44  1  0
 19 45  1  0
 20 46  1  0
 25 47  1  0
 25 48  1  0
 26 49  1  0
 26 50  1  0
 28 51  1  0
 28 52  1  0
 29 53  1  0
 29 54  1  0
 30 55  1  0
M  CHG  2  16  -1  32  -1
M  END
>  <UniqueID>  (83) 
73

>  <SMILES>  (83) 
Cn1ncc(CNc2ccccc2C(=O)[N-]c2cccc(C(=O)N3CCOCC3)c2)c1[O-]

>  <Energy>  (83) 
110.10342537180857

>  <Genealogy>  (83) 
Cn1ncc(CNc2ccccc2C(=O)[N-]c2cccc(C(=O)N3CCOCC3)c2)c1[O-] (protonated)
Cn1ncc(CNc2ccccc2C(=O)[N-]c2cccc(C(=O)N3CCOCC3)c2)c1[O-] (3D coordinates assigned)
Cn1ncc(CNc2ccccc2C(=O)[N-]c2cccc(C(=O)N3CCOCC3)c2)c1[O-] (nonaromatic ring conformer: 110.10342537180857 kcal/mol)

>  <smiles>  (83) 
Cn1ncc(CNc2ccccc2C(=O)Nc2cccc(C(=O)N3CCOCC3)c2)c1O

>  <score_type>  (83) 
oracle

>  <origin>  (83) 
adg

>  <m_score__min__energy>  (83) 
-15.44

>  <m_primary>  (83) 
energy

$$$$
83:0
     RDKit          3D

 36 37  0  0  0  0  0  0  0  0999 V2000
   55.0910   29.3390   44.5590 O   0  0  0  0  0  0  0  0  0  0  0  0
   56.3440   29.4600   44.6040 C   0  0  0  0  0  0  0  0  0  0  0  0
   56.9460   30.8370   44.6460 C   0  0  0  0  0  0  0  0  0  0  0  0
   57.4870   31.1410   45.9720 N   0  0  0  0  0  0  0  0  0  0  0  0
   58.0750   32.7770   46.0650 S   0  0  0  0  0  0  0  0  0  0  0  0
   57.8550   33.4710   44.7480 O   0  0  0  0  0  0  0  0  0  0  0  0
   57.3000   33.5140   47.1200 O   0  0  0  0  0  0  0  0  0  0  0  0
   59.7850   32.8080   46.4920 C   0  0  0  0  0  0  0  0  0  0  0  0
   60.3470   31.7300   47.1890 C   0  0  0  0  0  0  0  0  0  0  0  0
   61.7060   31.7380   47.5180 C   0  0  0  0  0  0  0  0  0  0  0  0
   62.5100   32.8210   47.1490 C   0  0  0  0  0  0  0  0  0  0  0  0
   63.8270   32.8270   47.4680 F   0  0  0  0  0  0  0  0  0  0  0  0
   61.9530   33.8970   46.4500 C   0  0  0  0  0  0  0  0  0  0  0  0
   60.5950   33.8910   46.1200 C   0  0  0  0  0  0  0  0  0  0  0  0
   57.1530   28.2790   44.6310 N   0  0  0  0  0  0  0  0  0  0  0  0
   57.8760   27.8010   45.8040 C   0  0  0  0  0  0  0  0  0  0  0  0
   57.5740   26.3430   46.0190 C   0  0  0  0  0  0  0  0  0  0  0  0
   58.6380   25.4260   46.1120 C   0  0  0  0  0  0  0  0  0  0  0  0
   58.3880   24.0660   46.3050 C   0  0  0  0  0  0  0  0  0  0  0  0
   57.0750   23.6020   46.4010 C   0  0  0  0  0  0  0  0  0  0  0  0
   56.0090   24.4970   46.2990 C   0  0  0  0  0  0  0  0  0  0  0  0
   56.2420   25.8630   46.1030 C   0  0  0  0  0  0  0  0  0  0  0  0
   55.1390   26.7120   45.9900 O   0  0  0  0  0  0  0  0  0  0  0  0
   57.7575   30.8960   43.9058 H   0  0  0  0  0  0  0  0  0  0  0  0
   56.1566   31.5681   44.4172 H   0  0  0  0  0  0  0  0  0  0  0  0
   59.7175   30.8755   47.4780 H   0  0  0  0  0  0  0  0  0  0  0  0
   62.1432   30.8914   48.0677 H   0  0  0  0  0  0  0  0  0  0  0  0
   62.5849   34.7493   46.1596 H   0  0  0  0  0  0  0  0  0  0  0  0
   60.1606   34.7372   45.5675 H   0  0  0  0  0  0  0  0  0  0  0  0
   58.9568   27.9324   45.6474 H   0  0  0  0  0  0  0  0  0  0  0  0
   57.5613   28.3750   46.6880 H   0  0  0  0  0  0  0  0  0  0  0  0
   59.6751   25.7839   46.0319 H   0  0  0  0  0  0  0  0  0  0  0  0
   59.2272   23.3589   46.3815 H   0  0  0  0  0  0  0  0  0  0  0  0
   56.8805   22.5307   46.5571 H   0  0  0  0  0  0  0  0  0  0  0  0
   54.9763   24.1254   46.3733 H   0  0  0  0  0  0  0  0  0  0  0  0
   55.1460   27.5630   45.4430 H   0  0  0  0  0  0  0  0  0  0  0  0
  1  2  2  0
  2  3  1  0
  3  4  1  0
  4  5  1  0
  5  6  2  0
  5  7  2  0
  5  8  1  0
  8  9  2  0
  9 10  1  0
 10 11  2  0
 11 12  1  0
 11 13  1  0
 13 14  2  0
  2 15  1  0
 15 16  1  0
 16 17  1  0
 17 18  2  0
 18 19  1  0
 19 20  2  0
 20 21  1  0
 21 22  2  0
 22 23  1  0
 14  8  1  0
 22 17  1  0
  3 24  1  0
  3 25  1  0
  9 26  1  0
 10 27  1  0
 13 28  1  0
 14 29  1  0
 16 30  1  0
 16 31  1  0
 18 32  1  0
 19 33  1  0
 20 34  1  0
 21 35  1  0
 23 36  1  0
M  CHG  2   4  -1  15  -1
M  END
>  <UniqueID>  (84) 
74

>  <SMILES>  (84) 
O=C(C[N-]S(=O)(=O)c1ccc(F)cc1)[N-]Cc1ccccc1O

>  <Energy>  (84) 
33.92497911394646

>  <Genealogy>  (84) 
O=C(C[N-]S(=O)(=O)c1ccc(F)cc1)[N-]Cc1ccccc1O (protonated)
O=C(C[N-]S(=O)(=O)c1ccc(F)cc1)[N-]Cc1ccccc1O (3D coordinates assigned)
O=C(C[N-]S(=O)(=O)c1ccc(F)cc1)[N-]Cc1ccccc1O (optimized conformer: 33.92497911394646 kcal/mol)

>  <smiles>  (84) 
O=C(CNS(=O)(=O)c1ccc(F)cc1)NCc1ccccc1O

>  <score_type>  (84) 
oracle

>  <origin>  (84) 
adg

>  <m_score__min__energy>  (84) 
-11.91

>  <m_primary>  (84) 
energy

$$$$
84:0
     RDKit          3D

 63 67  0  0  0  0  0  0  0  0999 V2000
   61.9824   34.2617   45.3747 H   0  0  0  0  0  0  0  0  0  0  0  0
   61.9960   33.8020   46.3740 C   0  0  0  0  0  0  0  0  0  0  0  0
   63.1660   33.7140   47.0590 N   0  0  0  0  0  0  0  0  0  0  0  0
   63.2330   33.1550   48.2950 C   0  0  0  0  0  0  0  0  0  0  0  0
   64.4570   33.0860   48.9660 C   0  0  0  0  0  0  0  0  0  0  0  0
   65.3699   33.4857   48.5003 H   0  0  0  0  0  0  0  0  0  0  0  0
   64.5080   32.5050   50.2320 C   0  0  0  0  0  0  0  0  0  0  0  0
   65.4659   32.4450   50.7695 H   0  0  0  0  0  0  0  0  0  0  0  0
   63.3770   32.0120   50.8050 N   0  0  0  0  0  0  0  0  0  0  0  0
   62.1660   32.0590   50.1810 C   0  0  0  0  0  0  0  0  0  0  0  0
   61.0240   31.5370   50.8070 O   0  0  0  0  0  0  0  0  0  0  0  0
   61.0230   30.3290   51.5650 C   0  0  0  0  0  0  0  0  0  0  0  0
   61.7785   30.3991   52.3614 H   0  0  0  0  0  0  0  0  0  0  0  0
   60.0257   30.1823   52.0054 H   0  0  0  0  0  0  0  0  0  0  0  0
   61.3530   29.1270   50.6530 C   0  0  0  0  0  0  0  0  0  0  0  0
   62.1188   29.4445   49.9300 H   0  0  0  0  0  0  0  0  0  0  0  0
   61.6950   28.3173   51.3144 H   0  0  0  0  0  0  0  0  0  0  0  0
   60.1960   28.5930   49.8970 N   0  0  0  0  0  0  0  0  0  0  0  0
   59.0160   29.4660   49.9170 C   0  0  0  0  0  0  0  0  0  0  0  0
   58.1115   28.8689   50.1051 H   0  0  0  0  0  0  0  0  0  0  0  0
   59.1066   30.2176   50.7151 H   0  0  0  0  0  0  0  0  0  0  0  0
   58.9170   30.1410   48.5600 C   0  0  0  0  0  0  0  0  0  0  0  0
   57.8665   30.2116   48.2413 H   0  0  0  0  0  0  0  0  0  0  0  0
   59.3138   31.1666   48.5841 H   0  0  0  0  0  0  0  0  0  0  0  0
   59.7010   29.2560   47.6100 C   0  0  0  0  0  0  0  0  0  0  0  0
   59.0159   28.6982   46.9546 H   0  0  0  0  0  0  0  0  0  0  0  0
   60.3631   29.8491   46.9620 H   0  0  0  0  0  0  0  0  0  0  0  0
   60.4960   28.2930   48.4880 C   0  0  0  0  0  0  0  0  0  0  0  0
   60.2066   27.2567   48.2591 H   0  0  0  0  0  0  0  0  0  0  0  0
   61.5731   28.4101   48.2979 H   0  0  0  0  0  0  0  0  0  0  0  0
   62.0690   32.6390   48.9020 C   0  0  0  0  0  0  0  0  0  0  0  0
   60.8530   32.7180   48.2060 C   0  0  0  0  0  0  0  0  0  0  0  0
   59.9357   32.3146   48.6597 H   0  0  0  0  0  0  0  0  0  0  0  0
   60.8010   33.3100   46.9320 C   0  0  0  0  0  0  0  0  0  0  0  0
   59.5130   33.3770   46.1920 C   0  0  0  0  0  0  0  0  0  0  0  0
   58.8250   32.2280   45.9430 N   0  0  0  0  0  0  0  0  0  0  0  0
   57.6490   32.2310   45.2620 C   0  0  0  0  0  0  0  0  0  0  0  0
   57.0250   31.1050   45.0670 N   0  0  0  0  0  0  0  0  0  0  0  0
   57.6190   29.8000   44.9780 C   0  0  0  0  0  0  0  0  0  0  0  0
   58.9290   29.6120   44.5010 C   0  0  0  0  0  0  0  0  0  0  0  0
   59.5176   30.4765   44.1600 H   0  0  0  0  0  0  0  0  0  0  0  0
   59.4840   28.3330   44.4590 C   0  0  0  0  0  0  0  0  0  0  0  0
   60.5040   28.1911   44.0723 H   0  0  0  0  0  0  0  0  0  0  0  0
   58.7500   27.2310   44.9060 C   0  0  0  0  0  0  0  0  0  0  0  0
   59.1913   26.2244   44.8605 H   0  0  0  0  0  0  0  0  0  0  0  0
   57.4490   27.4030   45.4140 C   0  0  0  0  0  0  0  0  0  0  0  0
   56.6670   26.2420   45.8940 C   0  0  0  0  0  0  0  0  0  0  0  0
   55.4150   26.3340   46.0290 O   0  0  0  0  0  0  0  0  0  0  0  0
   57.3190   25.0390   46.1960 O   0  0  0  0  0  0  0  0  0  0  0  0
   57.6210   24.0400   45.2230 C   0  0  0  0  0  0  0  0  0  0  0  0
   57.2122   23.0749   45.5570 H   0  0  0  0  0  0  0  0  0  0  0  0
   58.7132   23.9727   45.1114 H   0  0  0  0  0  0  0  0  0  0  0  0
   57.0100   24.4030   43.8720 C   0  0  0  0  0  0  0  0  0  0  0  0
   56.0742   24.9590   44.0303 H   0  0  0  0  0  0  0  0  0  0  0  0
   57.7165   25.0279   43.3061 H   0  0  0  0  0  0  0  0  0  0  0  0
   56.7990   23.4836   43.3061 H   0  0  0  0  0  0  0  0  0  0  0  0
   56.8980   28.6960   45.4560 C   0  0  0  0  0  0  0  0  0  0  0  0
   55.8891   28.8435   45.8688 H   0  0  0  0  0  0  0  0  0  0  0  0
   57.1250   33.4130   44.8340 N   0  0  0  0  0  0  0  0  0  0  0  0
   57.7640   34.5870   45.0630 C   0  0  0  0  0  0  0  0  0  0  0  0
   57.3260   35.5308   44.7060 H   0  0  0  0  0  0  0  0  0  0  0  0
   58.9760   34.5970   45.7510 C   0  0  0  0  0  0  0  0  0  0  0  0
   59.5022   35.5433   45.9449 H   0  0  0  0  0  0  0  0  0  0  0  0
  1  2  1  0
  2  3  2  0
  3  4  1  0
  4  5  2  0
  5  6  1  0
  5  7  1  0
  7  8  1  0
  7  9  2  0
  9 10  1  0
 10 11  1  0
 11 12  1  0
 12 13  1  0
 12 14  1  0
 12 15  1  0
 15 16  1  0
 15 17  1  0
 15 18  1  0
 18 19  1  0
 19 20  1  0
 19 21  1  0
 19 22  1  0
 22 23  1  0
 22 24  1  0
 22 25  1  0
 25 26  1  0
 25 27  1  0
 25 28  1  0
 28 29  1  0
 28 30  1  0
 10 31  2  0
 31 32  1  0
 32 33  1  0
 32 34  2  0
 34 35  1  0
 35 36  2  0
 36 37  1  0
 37 38  2  0
 38 39  1  0
 39 40  2  0
 40 41  1  0
 40 42  1  0
 42 43  1  0
 42 44  2  0
 44 45  1  0
 44 46  1  0
 46 47  1  0
 47 48  2  0
 47 49  1  0
 49 50  1  0
 50 51  1  0
 50 52  1  0
 50 53  1  0
 53 54  1  0
 53 55  1  0
 53 56  1  0
 46 57  2  0
 57 58  1  0
 37 59  1  0
 59 60  1  0
 60 61  1  0
 60 62  2  0
 62 63  1  0
 34  2  1  0
 62 35  1  0
 31  4  1  0
 57 39  1  0
 28 18  1  0
M  CHG  1  59  -1
M  END
>  <UniqueID>  (85) 
75

>  <SMILES>  (85) 
CCOC(=O)c1cccc(/N=c2/nc(-c3cnc4ccnc(OCCN5CCCC5)c4c3)cc[n-]2)c1

>  <Energy>  (85) 
83.55001080151258

>  <Genealogy>  (85) 
CCOC(=O)c1cccc(N=c2nc(-c3cnc4ccnc(OCCN5CCCC5)c4c3)cc[n-]2)c1 (protonated)
CCOC(=O)c1cccc(/N=c2/nc(-c3cnc4ccnc(OCCN5CCCC5)c4c3)cc[n-]2)c1 (cis-trans isomerization)
CCOC(=O)c1cccc(/N=c2/nc(-c3cnc4ccnc(OCCN5CCCC5)c4c3)cc[n-]2)c1 (3D coordinates assigned)
CCOC(=O)c1cccc(/N=c2/nc(-c3cnc4ccnc(OCCN5CCCC5)c4c3)cc[n-]2)c1 (nonaromatic ring conformer: 83.55001080151258 kcal/mol)

>  <smiles>  (85) 
CCOC(=O)c1cccc(N=c2nc(-c3cnc4ccnc(OCCN5CCCC5)c4c3)cc[nH]2)c1

>  <score_type>  (85) 
oracle

>  <origin>  (85) 
adg

>  <m_score__min__energy>  (85) 
-10.640000000000001

>  <m_primary>  (85) 
energy

$$$$
85:0
     RDKit          3D

 50 53  0  0  0  0  0  0  0  0999 V2000
   62.2320   31.7910   51.6880 H   0  0  0  0  0  0  0  0  0  0  0  0
   61.8330   31.5010   50.8030 O   0  0  0  0  0  0  0  0  0  0  0  0
   62.3740   31.8940   49.5770 C   0  0  0  0  0  0  0  0  0  0  0  0
   63.5060   32.7230   49.5690 C   0  0  0  0  0  0  0  0  0  0  0  0
   64.0480   33.1260   50.8000 O   0  0  0  0  0  0  0  0  0  0  0  0
   65.3960   33.5440   50.9890 C   0  0  0  0  0  0  0  0  0  0  0  0
   65.6116   33.6109   52.0656 H   0  0  0  0  0  0  0  0  0  0  0  0
   66.0749   32.8142   50.5237 H   0  0  0  0  0  0  0  0  0  0  0  0
   65.5429   34.5299   50.5237 H   0  0  0  0  0  0  0  0  0  0  0  0
   64.0620   33.1240   48.3400 C   0  0  0  0  0  0  0  0  0  0  0  0
   64.9503   33.7727   48.3262 H   0  0  0  0  0  0  0  0  0  0  0  0
   63.4910   32.7020   47.1390 C   0  0  0  0  0  0  0  0  0  0  0  0
   63.9300   33.0199   46.1818 H   0  0  0  0  0  0  0  0  0  0  0  0
   62.3650   31.8780   47.1480 C   0  0  0  0  0  0  0  0  0  0  0  0
   61.9205   31.5487   46.1972 H   0  0  0  0  0  0  0  0  0  0  0  0
   61.7950   31.4660   48.3670 C   0  0  0  0  0  0  0  0  0  0  0  0
   60.6630   30.6380   48.4140 O   0  0  0  0  0  0  0  0  0  0  0  0
   59.9330   30.1970   47.2720 C   0  0  0  0  0  0  0  0  0  0  0  0
   60.4280   30.5571   46.3581 H   0  0  0  0  0  0  0  0  0  0  0  0
   59.8982   29.0976   47.2593 H   0  0  0  0  0  0  0  0  0  0  0  0
   58.5110   30.7530   47.3350 C   0  0  0  0  0  0  0  0  0  0  0  0
   57.7946   29.9260   47.2214 H   0  0  0  0  0  0  0  0  0  0  0  0
   58.3686   31.2507   48.3056 H   0  0  0  0  0  0  0  0  0  0  0  0
   58.2890   31.7340   46.2640 N   0  0  0  0  0  0  0  0  0  0  0  0
   57.4270   31.7330   45.1930 C   0  0  0  0  0  0  0  0  0  0  0  0
   56.6480   30.7530   44.8240 N   0  0  0  0  0  0  0  0  0  0  0  0
   56.9720   29.5430   44.1360 C   0  0  0  0  0  0  0  0  0  0  0  0
   56.5080   29.3480   42.9790 O   0  0  0  0  0  0  0  0  0  0  0  0
   57.7590   28.4740   44.8030 C   0  0  0  0  0  0  0  0  0  0  0  0
   59.1670   28.4950   44.7300 C   0  0  0  0  0  0  0  0  0  0  0  0
   59.6717   29.2998   44.1754 H   0  0  0  0  0  0  0  0  0  0  0  0
   59.9270   27.5040   45.3550 C   0  0  0  0  0  0  0  0  0  0  0  0
   61.0247   27.5314   45.2890 H   0  0  0  0  0  0  0  0  0  0  0  0
   59.2980   26.4790   46.0630 C   0  0  0  0  0  0  0  0  0  0  0  0
   59.8990   25.6990   46.5533 H   0  0  0  0  0  0  0  0  0  0  0  0
   57.9060   26.4450   46.1480 C   0  0  0  0  0  0  0  0  0  0  0  0
   57.4122   25.6363   46.7068 H   0  0  0  0  0  0  0  0  0  0  0  0
   57.1340   27.4330   45.5270 C   0  0  0  0  0  0  0  0  0  0  0  0
   55.7840   27.3610   45.6380 F   0  0  0  0  0  0  0  0  0  0  0  0
   57.4110   32.9090   44.5140 N   0  0  0  0  0  0  0  0  0  0  0  0
   58.3120   33.6580   45.1680 C   0  0  0  0  0  0  0  0  0  0  0  0
   58.6830   34.9690   44.8830 C   0  0  0  0  0  0  0  0  0  0  0  0
   58.2435   35.5126   44.0337 H   0  0  0  0  0  0  0  0  0  0  0  0
   59.6390   35.5750   45.7180 C   0  0  0  0  0  0  0  0  0  0  0  0
   59.9617   36.6078   45.5201 H   0  0  0  0  0  0  0  0  0  0  0  0
   60.1870   34.8650   46.8090 C   0  0  0  0  0  0  0  0  0  0  0  0
   60.9321   35.3493   47.4573 H   0  0  0  0  0  0  0  0  0  0  0  0
   59.7860   33.5420   47.0720 C   0  0  0  0  0  0  0  0  0  0  0  0
   60.2004   32.9808   47.9225 H   0  0  0  0  0  0  0  0  0  0  0  0
   58.8420   32.9640   46.2150 C   0  0  0  0  0  0  0  0  0  0  0  0
  1  2  1  0
  2  3  1  0
  3  4  2  0
  4  5  1  0
  5  6  1  0
  6  7  1  0
  6  8  1  0
  6  9  1  0
  4 10  1  0
 10 11  1  0
 10 12  2  0
 12 13  1  0
 12 14  1  0
 14 15  1  0
 14 16  2  0
 16 17  1  0
 17 18  1  0
 18 19  1  0
 18 20  1  0
 18 21  1  0
 21 22  1  0
 21 23  1  0
 21 24  1  0
 24 25  1  0
 25 26  2  0
 26 27  1  0
 27 28  2  0
 27 29  1  0
 29 30  2  0
 30 31  1  0
 30 32  1  0
 32 33  1  0
 32 34  2  0
 34 35  1  0
 34 36  1  0
 36 37  1  0
 36 38  2  0
 38 39  1  0
 25 40  1  0
 40 41  1  0
 41 42  2  0
 42 43  1  0
 42 44  1  0
 44 45  1  0
 44 46  2  0
 46 47  1  0
 46 48  1  0
 48 49  1  0
 48 50  2  0
 16  3  1  0
 50 24  1  0
 38 29  1  0
 50 41  1  0
M  CHG  1  40  -1
M  END
>  <UniqueID>  (86) 
76

>  <SMILES>  (86) 
COc1cccc(OCCn2/c(=N\C(=O)c3ccccc3F)[n-]c3ccccc32)c1O

>  <Energy>  (86) 
105.44207178792139

>  <Genealogy>  (86) 
COc1cccc(OCCn2c(=NC(=O)c3ccccc3F)[n-]c3ccccc32)c1O (protonated)
COc1cccc(OCCn2/c(=N\C(=O)c3ccccc3F)[n-]c3ccccc32)c1O (cis-trans isomerization)
COc1cccc(OCCn2/c(=N\C(=O)c3ccccc3F)[n-]c3ccccc32)c1O (3D coordinates assigned)
COc1cccc(OCCn2/c(=N\C(=O)c3ccccc3F)[n-]c3ccccc32)c1O (optimized conformer: 105.44207178792139 kcal/mol)

>  <smiles>  (86) 
COc1cccc(OCCn2c(=NC(=O)c3ccccc3F)[nH]c3ccccc32)c1O

>  <score_type>  (86) 
oracle

>  <origin>  (86) 
adg

>  <m_score__min__energy>  (86) 
-9.5

>  <m_primary>  (86) 
energy

$$$$
86:0
     RDKit          3D

 58 59  0  0  0  0  0  0  0  0999 V2000
   55.2137   27.2980   45.6742 H   0  0  0  0  0  0  0  0  0  0  0  0
   55.9320   26.5300   45.9970 C   0  0  0  0  0  0  0  0  0  0  0  0
   55.5090   25.2610   46.2230 N   0  0  0  0  0  0  0  0  0  0  0  0
   56.3570   24.2710   46.6100 C   0  0  0  0  0  0  0  0  0  0  0  0
   55.8580   23.0890   46.8460 N   0  0  0  0  0  0  0  0  0  0  0  0
   56.5060   21.7890   46.6500 C   0  0  0  0  0  0  0  0  0  0  0  0
   56.3135   21.1561   47.5289 H   0  0  0  0  0  0  0  0  0  0  0  0
   57.5857   21.9544   46.5198 H   0  0  0  0  0  0  0  0  0  0  0  0
   55.9680   21.0830   45.3970 C   0  0  0  0  0  0  0  0  0  0  0  0
   54.9490   21.4451   45.1959 H   0  0  0  0  0  0  0  0  0  0  0  0
   55.9761   19.9999   45.5887 H   0  0  0  0  0  0  0  0  0  0  0  0
   56.8400   21.3510   44.1650 C   0  0  0  0  0  0  0  0  0  0  0  0
   57.2991   20.4083   43.8323 H   0  0  0  0  0  0  0  0  0  0  0  0
   57.6235   22.0763   44.4298 H   0  0  0  0  0  0  0  0  0  0  0  0
   56.0520   21.8830   43.1170 O   0  0  0  0  0  0  0  0  0  0  0  0
   56.2400   23.2770   43.0160 C   0  0  0  0  0  0  0  0  0  0  0  0
   56.2988   23.7131   44.0242 H   0  0  0  0  0  0  0  0  0  0  0  0
   57.1740   23.4826   42.4725 H   0  0  0  0  0  0  0  0  0  0  0  0
   55.3938   23.7227   42.4725 H   0  0  0  0  0  0  0  0  0  0  0  0
   57.7310   24.5590   46.7490 C   0  0  0  0  0  0  0  0  0  0  0  0
   58.4366   23.7621   47.0267 H   0  0  0  0  0  0  0  0  0  0  0  0
   58.1960   25.8700   46.5310 C   0  0  0  0  0  0  0  0  0  0  0  0
   59.5480   26.2340   46.6650 O   0  0  0  0  0  0  0  0  0  0  0  0
   60.1850   26.7400   47.8400 C   0  0  0  0  0  0  0  0  0  0  0  0
   59.5890   26.4565   48.7200 H   0  0  0  0  0  0  0  0  0  0  0  0
   61.1960   26.3102   47.8969 H   0  0  0  0  0  0  0  0  0  0  0  0
   60.3130   28.2660   47.7960 C   0  0  0  0  0  0  0  0  0  0  0  0
   59.5005   28.7111   48.3892 H   0  0  0  0  0  0  0  0  0  0  0  0
   61.2937   28.5444   48.2091 H   0  0  0  0  0  0  0  0  0  0  0  0
   60.2310   28.7650   46.4280 N   0  0  0  0  0  0  0  0  0  0  0  0
   59.4610   29.4700   46.3830 H   0  0  0  0  0  0  0  0  0  0  0  0
   59.9290   27.9730   45.8170 H   0  0  0  0  0  0  0  0  0  0  0  0
   57.2780   26.8650   46.1730 C   0  0  0  0  0  0  0  0  0  0  0  0
   57.7210   28.2130   45.9880 N   0  0  0  0  0  0  0  0  0  0  0  0
   57.8380   28.8380   44.7050 C   0  0  0  0  0  0  0  0  0  0  0  0
   58.9840   29.1270   44.2690 O   0  0  0  0  0  0  0  0  0  0  0  0
   56.6730   29.1890   43.9450 N   0  0  0  0  0  0  0  0  0  0  0  0
   55.7890   28.6520   44.0740 H   0  0  0  0  0  0  0  0  0  0  0  0
   56.6410   30.3400   43.0470 C   0  0  0  0  0  0  0  0  0  0  0  0
   57.0373   30.0389   42.0661 H   0  0  0  0  0  0  0  0  0  0  0  0
   55.5988   30.6811   42.9611 H   0  0  0  0  0  0  0  0  0  0  0  0
   57.4860   31.5050   43.5910 C   0  0  0  0  0  0  0  0  0  0  0  0
   58.5161   31.1471   43.7354 H   0  0  0  0  0  0  0  0  0  0  0  0
   57.4193   32.3180   42.8530 H   0  0  0  0  0  0  0  0  0  0  0  0
   56.9800   32.0750   44.9280 C   0  0  0  0  0  0  0  0  0  0  0  0
   56.0181   32.5794   44.7538 H   0  0  0  0  0  0  0  0  0  0  0  0
   56.8777   31.2341   45.6298 H   0  0  0  0  0  0  0  0  0  0  0  0
   57.9390   33.0640   45.5400 C   0  0  0  0  0  0  0  0  0  0  0  0
   58.5350   34.0540   44.7430 C   0  0  0  0  0  0  0  0  0  0  0  0
   58.3051   34.1035   43.6684 H   0  0  0  0  0  0  0  0  0  0  0  0
   59.4200   34.9780   45.3090 C   0  0  0  0  0  0  0  0  0  0  0  0
   59.8863   35.7497   44.6789 H   0  0  0  0  0  0  0  0  0  0  0  0
   59.7120   34.9210   46.6750 C   0  0  0  0  0  0  0  0  0  0  0  0
   60.4075   35.6482   47.1193 H   0  0  0  0  0  0  0  0  0  0  0  0
   59.1210   33.9410   47.4760 C   0  0  0  0  0  0  0  0  0  0  0  0
   59.3491   33.8994   48.5513 H   0  0  0  0  0  0  0  0  0  0  0  0
   58.2400   33.0130   46.9130 C   0  0  0  0  0  0  0  0  0  0  0  0
   57.7804   32.2399   47.5463 H   0  0  0  0  0  0  0  0  0  0  0  0
  1  2  1  0
  2  3  1  0
  3  4  1  0
  4  5  2  0
  5  6  1  0
  6  7  1  0
  6  8  1  0
  6  9  1  0
  9 10  1  0
  9 11  1  0
  9 12  1  0
 12 13  1  0
 12 14  1  0
 12 15  1  0
 15 16  1  0
 16 17  1  0
 16 18  1  0
 16 19  1  0
  4 20  1  0
 20 21  1  0
 20 22  2  0
 22 23  1  0
 23 24  1  0
 24 25  1  0
 24 26  1  0
 24 27  1  0
 27 28  1  0
 27 29  1  0
 27 30  1  0
 30 31  1  0
 30 32  1  0
 22 33  1  0
 33 34  1  0
 34 35  1  0
 35 36  2  0
 35 37  1  0
 37 38  1  0
 37 39  1  0
 39 40  1  0
 39 41  1  0
 39 42  1  0
 42 43  1  0
 42 44  1  0
 42 45  1  0
 45 46  1  0
 45 47  1  0
 45 48  1  0
 48 49  2  0
 49 50  1  0
 49 51  1  0
 51 52  1  0
 51 53  2  0
 53 54  1  0
 53 55  1  0
 55 56  1  0
 55 57  2  0
 57 58  1  0
 33  2  2  0
 57 48  1  0
M  CHG  2   3  -1  34  -1
M  END
>  <UniqueID>  (87) 
77

>  <SMILES>  (87) 
COCCC/N=c1\cc(OCCN)c([N-]C(=O)NCCCc2ccccc2)c[n-]1

>  <Energy>  (87) 
53.47280095800825

>  <Genealogy>  (87) 
COCCCN=c1cc(OCCN)c([N-]C(=O)NCCCc2ccccc2)c[n-]1 (protonated)
COCCC/N=c1\cc(OCCN)c([N-]C(=O)NCCCc2ccccc2)c[n-]1 (cis-trans isomerization)
COCCC/N=c1\cc(OCCN)c([N-]C(=O)NCCCc2ccccc2)c[n-]1 (3D coordinates assigned)
COCCC/N=c1\cc(OCCN)c([N-]C(=O)NCCCc2ccccc2)c[n-]1 (optimized conformer: 53.47280095800825 kcal/mol)

>  <smiles>  (87) 
COCCCN=c1cc(OCCN)c(NC(=O)NCCCc2ccccc2)c[nH]1

>  <score_type>  (87) 
oracle

>  <origin>  (87) 
adg

>  <m_score__min__energy>  (87) 
-10.34

>  <m_primary>  (87) 
energy

$$$$
87:0
     RDKit          3D

 68 72  0  0  0  0  0  0  0  0999 V2000
   56.2804   24.6568   44.1965 H   0  0  0  0  0  0  0  0  0  0  0  0
   56.6450   23.8020   44.7850 C   0  0  0  0  0  0  0  0  0  0  0  0
   56.5520   23.8110   46.1820 C   0  0  0  0  0  0  0  0  0  0  0  0
   55.9010   24.9510   46.9120 C   0  0  0  0  0  0  0  0  0  0  0  0
   56.5856   25.3152   47.6922 H   0  0  0  0  0  0  0  0  0  0  0  0
   54.9628   24.5890   47.3577 H   0  0  0  0  0  0  0  0  0  0  0  0
   55.5860   26.0550   45.9980 N   0  0  0  0  0  0  0  0  0  0  0  0
   56.4080   27.0020   45.6530 C   0  0  0  0  0  0  0  0  0  0  0  0
   57.7540   26.8280   45.7340 N   0  0  0  0  0  0  0  0  0  0  0  0
   58.5980   27.8480   45.4410 C   0  0  0  0  0  0  0  0  0  0  0  0
   59.8760   27.6820   45.6050 N   0  0  0  0  0  0  0  0  0  0  0  0
   60.5620   27.7680   46.8930 C   0  0  0  0  0  0  0  0  0  0  0  0
   61.6498   27.7401   46.7319 H   0  0  0  0  0  0  0  0  0  0  0  0
   60.2636   26.9188   47.5253 H   0  0  0  0  0  0  0  0  0  0  0  0
   60.1890   29.0550   47.5730 C   0  0  0  0  0  0  0  0  0  0  0  0
   60.7420   30.2750   47.1550 C   0  0  0  0  0  0  0  0  0  0  0  0
   61.4390   30.2974   46.3043 H   0  0  0  0  0  0  0  0  0  0  0  0
   58.0520   33.5030   46.6540 C   0  0  0  0  0  0  0  0  0  0  0  0
   57.8695   33.5705   47.7366 H   0  0  0  0  0  0  0  0  0  0  0  0
   58.9100   34.4170   46.0320 C   0  0  0  0  0  0  0  0  0  0  0  0
   59.5360   35.4100   46.7780 O   0  0  0  0  0  0  0  0  0  0  0  0
   59.1350   34.3330   44.6540 C   0  0  0  0  0  0  0  0  0  0  0  0
   59.8023   35.0562   44.1623 H   0  0  0  0  0  0  0  0  0  0  0  0
   59.2780   29.0450   48.6400 C   0  0  0  0  0  0  0  0  0  0  0  0
   58.8228   28.0964   48.9608 H   0  0  0  0  0  0  0  0  0  0  0  0
   58.0920   29.0440   45.0380 N   0  0  0  0  0  0  0  0  0  0  0  0
   56.7510   29.2220   44.9370 C   0  0  0  0  0  0  0  0  0  0  0  0
   56.2880   30.3800   44.5730 N   0  0  0  0  0  0  0  0  0  0  0  0
   56.9930   31.3230   43.7070 C   0  0  0  0  0  0  0  0  0  0  0  0
   57.7591   30.7813   43.1329 H   0  0  0  0  0  0  0  0  0  0  0  0
   56.2637   31.7903   43.0289 H   0  0  0  0  0  0  0  0  0  0  0  0
   57.6580   32.4050   44.5190 C   0  0  0  0  0  0  0  0  0  0  0  0
   57.4250   32.5020   45.9000 C   0  0  0  0  0  0  0  0  0  0  0  0
   56.7473   31.7891   46.3924 H   0  0  0  0  0  0  0  0  0  0  0  0
   60.4110   31.4620   47.8150 C   0  0  0  0  0  0  0  0  0  0  0  0
   60.8573   32.4119   47.4856 H   0  0  0  0  0  0  0  0  0  0  0  0
   59.5160   31.4520   48.8920 C   0  0  0  0  0  0  0  0  0  0  0  0
   59.2240   32.6700   49.5270 O   0  0  0  0  0  0  0  0  0  0  0  0
   60.0060   33.8520   49.3890 C   0  0  0  0  0  0  0  0  0  0  0  0
   60.2628   34.2402   50.3857 H   0  0  0  0  0  0  0  0  0  0  0  0
   60.9287   33.6189   48.8374 H   0  0  0  0  0  0  0  0  0  0  0  0
   59.4306   34.6100   48.8374 H   0  0  0  0  0  0  0  0  0  0  0  0
   58.9450   30.2320   49.2980 C   0  0  0  0  0  0  0  0  0  0  0  0
   58.2336   30.2124   50.1367 H   0  0  0  0  0  0  0  0  0  0  0  0
   58.5140   33.3320   43.8990 C   0  0  0  0  0  0  0  0  0  0  0  0
   58.6963   33.2701   42.8160 H   0  0  0  0  0  0  0  0  0  0  0  0
   55.9110   28.1970   45.2500 N   0  0  0  0  0  0  0  0  0  0  0  0
   56.9950   22.7380   46.8920 N   0  0  0  0  0  0  0  0  0  0  0  0
   57.5390   21.6390   46.2990 C   0  0  0  0  0  0  0  0  0  0  0  0
   57.9190   20.6110   47.0030 N   0  0  0  0  0  0  0  0  0  0  0  0
   57.4170   20.2250   48.2910 C   0  0  0  0  0  0  0  0  0  0  0  0
   58.2140   20.1800   49.2670 O   0  0  0  0  0  0  0  0  0  0  0  0
   56.0230   19.9370   48.4830 N   0  0  0  0  0  0  0  0  0  0  0  0
   54.9080   20.6190   47.8840 C   0  0  0  0  0  0  0  0  0  0  0  0
   54.4860   21.8310   48.4480 C   0  0  0  0  0  0  0  0  0  0  0  0
   54.9595   22.2000   49.3698 H   0  0  0  0  0  0  0  0  0  0  0  0
   53.4650   22.5740   47.8440 C   0  0  0  0  0  0  0  0  0  0  0  0
   53.1310   23.5182   48.2990 H   0  0  0  0  0  0  0  0  0  0  0  0
   52.8680   22.1190   46.6630 C   0  0  0  0  0  0  0  0  0  0  0  0
   51.5980   23.0610   45.9010 Cl  0  0  0  0  0  0  0  0  0  0  0  0
   53.2760   20.9070   46.0990 C   0  0  0  0  0  0  0  0  0  0  0  0
   52.8003   20.5422   45.1767 H   0  0  0  0  0  0  0  0  0  0  0  0
   54.2910   20.1560   46.7080 C   0  0  0  0  0  0  0  0  0  0  0  0
   54.6063   19.2002   46.2641 H   0  0  0  0  0  0  0  0  0  0  0  0
   57.6520   21.6030   44.9040 C   0  0  0  0  0  0  0  0  0  0  0  0
   58.0874   20.7243   44.4056 H   0  0  0  0  0  0  0  0  0  0  0  0
   57.2070   22.6930   44.1490 C   0  0  0  0  0  0  0  0  0  0  0  0
   57.2998   22.6767   43.0530 H   0  0  0  0  0  0  0  0  0  0  0  0
  1  2  1  0
  2  3  2  0
  3  4  1  0
  4  5  1  0
  4  6  1  0
  4  7  1  0
  7  8  2  3
  8  9  1  0
  9 10  1  0
 10 11  2  0
 11 12  1  0
 12 13  1  0
 12 14  1  0
 12 15  1  0
 15 16  2  0
 16 17  1  0
 16 18  1  0
 18 19  1  0
 18 20  2  0
 20 21  1  0
 20 22  1  0
 22 23  1  0
 22 24  2  0
 24 25  1  0
 10 26  1  0
 26 27  1  0
 27 28  2  0
 28 29  1  0
 29 30  1  0
 29 31  1  0
 29 32  1  0
 32 33  2  0
 33 34  1  0
 33 35  1  0
 35 36  1  0
 35 37  2  0
 37 38  1  0
 38 39  1  0
 39 40  1  0
 39 41  1  0
 39 42  1  0
 37 43  1  0
 43 44  1  0
 43 45  2  0
 45 46  1  0
 27 47  1  0
  3 48  1  0
 48 49  1  0
 49 50  2  3
 50 51  1  0
 51 52  2  0
 51 53  1  0
 53 54  1  0
 54 55  2  0
 55 56  1  0
 55 57  1  0
 57 58  1  0
 57 59  2  0
 59 60  1  0
 59 61  1  0
 61 62  1  0
 61 63  2  0
 63 64  1  0
 49 65  1  0
 65 66  1  0
 65 67  2  0
 67 68  1  0
 67  2  1  0
 47  8  1  0
 63 54  1  0
 24 15  1  0
 45 32  1  0
M  CHG  6   9  -1  21  -1  26  -1  47  -1  48  -1  53  -1
M  END
>  <UniqueID>  (88) 
78

>  <SMILES>  (88) 
COc1ccc(C/N=c2/[n-]c(=NCc3cccc(=NC(=O)[N-]c4ccc(Cl)cc4)[n-]3)[n-]/c(=N\Cc3ccc([O-])cc3)[n-]2)cc1

>  <Energy>  (88) 
73.64137433117337

>  <Genealogy>  (88) 
COc1ccc(CN=c2[n-]c(=NCc3ccc([O-])cc3)[n-]c(=NCc3cccc(=NC(=O)[N-]c4ccc(Cl)cc4)[n-]3)[n-]2)cc1 (protonated)
COc1ccc(C/N=c2/[n-]c(=NCc3cccc(=NC(=O)[N-]c4ccc(Cl)cc4)[n-]3)[n-]/c(=N\Cc3ccc([O-])cc3)[n-]2)cc1 (cis-trans isomerization)
COc1ccc(C/N=c2/[n-]c(=NCc3cccc(=NC(=O)[N-]c4ccc(Cl)cc4)[n-]3)[n-]/c(=N\Cc3ccc([O-])cc3)[n-]2)cc1 (3D coordinates assigned)
COc1ccc(C/N=c2/[n-]c(=NCc3cccc(=NC(=O)[N-]c4ccc(Cl)cc4)[n-]3)[n-]/c(=N\Cc3ccc([O-])cc3)[n-]2)cc1 (optimized conformer: 73.64137433117337 kcal/mol)

>  <smiles>  (88) 
COc1ccc(CN=c2[nH]c(=NCc3ccc(O)cc3)[nH]c(=NCc3cccc(=NC(=O)Nc4ccc(Cl)cc4)[nH]3)[nH]2)cc1

>  <score_type>  (88) 
oracle

>  <origin>  (88) 
adg

>  <m_score__min__energy>  (88) 
-19.949999999999999

>  <m_primary>  (88) 
energy

$$$$
88:0
     RDKit          3D

 48 51  0  0  0  0  0  0  0  0999 V2000
   56.4890   22.2040   49.3790 C   0  0  0  0  0  0  0  0  0  0  0  0
   57.3710   21.8020   48.3380 O   0  0  0  0  0  0  0  0  0  0  0  0
   56.8990   21.3590   47.0980 C   0  0  0  0  0  0  0  0  0  0  0  0
   56.2990   20.0930   47.0010 C   0  0  0  0  0  0  0  0  0  0  0  0
   56.1510   19.2790   48.1240 O   0  0  0  0  0  0  0  0  0  0  0  0
   55.8460   19.6280   45.7650 C   0  0  0  0  0  0  0  0  0  0  0  0
   55.9810   20.4090   44.6150 C   0  0  0  0  0  0  0  0  0  0  0  0
   55.5250   19.8960   43.4040 O   0  0  0  0  0  0  0  0  0  0  0  0
   56.5630   21.6940   44.6980 C   0  0  0  0  0  0  0  0  0  0  0  0
   56.7200   22.5400   43.5830 C   0  0  0  0  0  0  0  0  0  0  0  0
   56.3690   22.1750   42.4290 O   0  0  0  0  0  0  0  0  0  0  0  0
   57.2770   23.8060   43.7520 C   0  0  0  0  0  0  0  0  0  0  0  0
   57.6620   24.2290   45.0350 C   0  0  0  0  0  0  0  0  0  0  0  0
   58.2430   25.5780   45.2820 C   0  0  0  0  0  0  0  0  0  0  0  0
   59.3140   25.7780   46.1780 C   0  0  0  0  0  0  0  0  0  0  0  0
   59.8310   27.0580   46.3900 C   0  0  0  0  0  0  0  0  0  0  0  0
   59.2910   28.1550   45.7190 C   0  0  0  0  0  0  0  0  0  0  0  0
   58.2300   27.9830   44.8260 C   0  0  0  0  0  0  0  0  0  0  0  0
   57.7150   29.1340   44.1380 N   0  0  0  0  0  0  0  0  0  0  0  0
   56.9920   30.2320   44.7140 C   0  0  0  0  0  0  0  0  0  0  0  0
   55.7440   30.1230   44.8470 O   0  0  0  0  0  0  0  0  0  0  0  0
   57.6530   31.4990   45.1080 C   0  0  0  0  0  0  0  0  0  0  0  0
   58.3350   31.5850   46.3330 C   0  0  0  0  0  0  0  0  0  0  0  0
   58.9820   32.7680   46.7040 C   0  0  0  0  0  0  0  0  0  0  0  0
   58.9590   33.8820   45.8550 C   0  0  0  0  0  0  0  0  0  0  0  0
   59.6320   35.1590   46.2640 C   0  0  0  0  0  0  0  0  0  0  0  0
   58.2420   33.8150   44.6510 C   0  0  0  0  0  0  0  0  0  0  0  0
   57.5920   32.6350   44.2810 C   0  0  0  0  0  0  0  0  0  0  0  0
   57.7330   26.6900   44.5860 C   0  0  0  0  0  0  0  0  0  0  0  0
   57.5210   23.3940   46.0630 O   0  0  0  0  0  0  0  0  0  0  0  0
   57.0090   22.1700   45.9540 C   0  0  0  0  0  0  0  0  0  0  0  0
   56.9523   21.9928   50.3541 H   0  0  0  0  0  0  0  0  0  0  0  0
   56.2888   23.2823   49.2940 H   0  0  0  0  0  0  0  0  0  0  0  0
   55.5438   21.6478   49.2940 H   0  0  0  0  0  0  0  0  0  0  0  0
   56.5290   19.5330   49.0290 H   0  0  0  0  0  0  0  0  0  0  0  0
   55.3774   18.6352   45.6961 H   0  0  0  0  0  0  0  0  0  0  0  0
   57.4144   24.4702   42.8860 H   0  0  0  0  0  0  0  0  0  0  0  0
   59.7452   24.9195   46.7137 H   0  0  0  0  0  0  0  0  0  0  0  0
   60.6679   27.2016   47.0893 H   0  0  0  0  0  0  0  0  0  0  0  0
   59.7022   29.1602   45.8935 H   0  0  0  0  0  0  0  0  0  0  0  0
   58.3604   30.7151   47.0057 H   0  0  0  0  0  0  0  0  0  0  0  0
   59.5113   32.8240   47.6667 H   0  0  0  0  0  0  0  0  0  0  0  0
   59.6647   35.2210   47.3618 H   0  0  0  0  0  0  0  0  0  0  0  0
   60.6569   35.1774   45.8651 H   0  0  0  0  0  0  0  0  0  0  0  0
   59.0678   36.0149   45.8651 H   0  0  0  0  0  0  0  0  0  0  0  0
   58.1913   34.6963   43.9947 H   0  0  0  0  0  0  0  0  0  0  0  0
   57.0289   32.5941   43.3369 H   0  0  0  0  0  0  0  0  0  0  0  0
   56.9342   26.5453   43.8437 H   0  0  0  0  0  0  0  0  0  0  0  0
  1  2  1  0
  2  3  1  0
  3  4  2  0
  4  5  1  0
  4  6  1  0
  6  7  2  0
  7  8  1  0
  7  9  1  0
  9 10  1  0
 10 11  2  0
 10 12  1  0
 12 13  2  0
 13 14  1  0
 14 15  2  0
 15 16  1  0
 16 17  2  0
 17 18  1  0
 18 19  1  0
 19 20  1  0
 20 21  2  0
 20 22  1  0
 22 23  2  0
 23 24  1  0
 24 25  2  0
 25 26  1  0
 25 27  1  0
 27 28  2  0
 18 29  2  0
 13 30  1  0
 30 31  1  0
 31  3  1  0
 31  9  2  0
 29 14  1  0
 28 22  1  0
  1 32  1  0
  1 33  1  0
  1 34  1  0
  5 35  1  0
  6 36  1  0
 12 37  1  0
 15 38  1  0
 16 39  1  0
 17 40  1  0
 23 41  1  0
 24 42  1  0
 26 43  1  0
 26 44  1  0
 26 45  1  0
 27 46  1  0
 28 47  1  0
 29 48  1  0
M  CHG  2   8  -1  19  -1
M  END
>  <UniqueID>  (89) 
79

>  <SMILES>  (89) 
COc1c(O)cc([O-])c2c(=O)cc(-c3cccc([N-]C(=O)c4ccc(C)cc4)c3)oc12

>  <Energy>  (89) 
72.30947744289442

>  <Genealogy>  (89) 
COc1c(O)cc([O-])c2c(=O)cc(-c3cccc([N-]C(=O)c4ccc(C)cc4)c3)oc12 (protonated)
COc1c(O)cc([O-])c2c(=O)cc(-c3cccc([N-]C(=O)c4ccc(C)cc4)c3)oc12 (3D coordinates assigned)
COc1c(O)cc([O-])c2c(=O)cc(-c3cccc([N-]C(=O)c4ccc(C)cc4)c3)oc12 (optimized conformer: 72.30947744289442 kcal/mol)

>  <smiles>  (89) 
COc1c(O)cc(O)c2c(=O)cc(-c3cccc(NC(=O)c4ccc(C)cc4)c3)oc12

>  <score_type>  (89) 
oracle

>  <origin>  (89) 
adg

>  <m_score__min__energy>  (89) 
-11.43

>  <m_primary>  (89) 
energy

$$$$
89:0
     RDKit          3D

 60 63  0  0  1  0  0  0  0  0999 V2000
   57.7510   32.1000   43.0230 C   0  0  0  0  0  0  0  0  0  0  0  0
   57.9100   30.8220   43.7420 C   0  0  0  0  0  0  0  0  0  0  0  0
   58.7200   30.1190   44.2090 N   0  0  0  0  0  0  0  0  0  0  0  0
   58.6720   28.9880   44.8270 C   0  0  0  0  0  0  0  0  0  0  0  0
   59.8080   28.1730   45.3910 C   0  0  0  0  0  0  0  0  0  0  0  0
   58.7530   32.3060   48.4510 N   0  0  0  0  0  0  0  0  0  0  0  0
   58.9670   31.0270   48.4390 C   0  0  0  0  0  0  0  0  0  0  0  0
   58.9320   30.1190   49.4060 N   0  0  0  0  0  0  0  0  0  0  0  0
   59.2220   28.9090   48.9360 N   0  0  0  0  0  0  0  0  0  0  0  0
   59.4460   29.0630   47.6210 C   0  0  0  0  0  0  0  0  0  0  0  0
   59.7530   28.1220   46.8200 N   0  0  0  0  0  0  0  0  0  0  0  0
   58.6520   33.0330   47.2090 C   0  0  0  0  0  0  0  0  0  0  0  0
   57.4120   33.5020   46.7920 C   0  0  0  0  0  0  0  0  0  0  0  0
   57.2770   34.1960   45.6280 C   0  0  0  0  0  0  0  0  0  0  0  0
   58.3860   34.4440   44.8400 C   0  0  0  0  0  0  0  0  0  0  0  0
   59.6280   33.9860   45.2380 C   0  0  0  0  0  0  0  0  0  0  0  0
   59.7470   33.2820   46.4230 C   0  0  0  0  0  0  0  0  0  0  0  0
   61.1020   32.8190   46.7730 C   0  0  0  0  0  0  0  0  0  0  0  0
   61.4020   31.5950   46.7560 O   0  0  0  0  0  0  0  0  0  0  0  0
   62.0330   33.8420   47.1300 N   0  0  0  0  0  0  0  0  0  0  0  0
   63.4100   33.5370   47.5120 C   0  0  0  0  0  0  0  0  0  0  0  0
   63.4730   33.4100   49.0240 C   0  0  0  0  0  0  0  0  0  0  0  0
   62.8250   32.1140   49.4660 C   0  0  0  0  0  0  0  0  0  0  0  0
   62.2750   32.2490   50.7770 N   0  0  0  0  0  0  0  0  0  0  0  0
   61.6850   31.0660   51.2900 C   0  0  0  0  0  0  0  0  0  0  0  0
   60.3950   31.4160   52.0290 C   0  0  0  0  0  0  0  0  0  0  0  0
   59.6180   32.1650   51.1590 O   0  0  0  0  0  0  0  0  0  0  0  0
   60.1370   33.4550   51.1010 C   0  0  0  0  0  0  0  0  0  0  0  0
   61.6270   33.4850   51.0610 C   0  0  0  0  0  0  0  0  0  0  0  0
   59.2940   30.3690   47.2930 N   0  0  0  0  0  0  0  0  0  0  0  0
   57.3220   28.5020   44.9570 C   0  0  0  0  0  0  0  0  0  0  0  0
   56.3460   29.7980   44.1440 S   0  0  0  0  0  0  0  0  0  0  0  0
   57.6491   32.9194   43.7498 H   0  0  0  0  0  0  0  0  0  0  0  0
   58.6340   32.2777   42.3915 H   0  0  0  0  0  0  0  0  0  0  0  0
   56.8514   32.0560   42.3915 H   0  0  0  0  0  0  0  0  0  0  0  0
   59.7462   27.1492   44.9934 H   0  0  0  0  0  0  0  0  0  0  0  0
   60.7554   28.6486   45.0971 H   0  0  0  0  0  0  0  0  0  0  0  0
   58.7080   30.3240   50.4050 H   0  0  0  0  0  0  0  0  0  0  0  0
   59.2790   27.9940   49.4340 H   0  0  0  0  0  0  0  0  0  0  0  0
   56.5245   33.3094   47.4127 H   0  0  0  0  0  0  0  0  0  0  0  0
   56.2869   34.5589   45.3150 H   0  0  0  0  0  0  0  0  0  0  0  0
   58.2801   35.0041   43.8992 H   0  0  0  0  0  0  0  0  0  0  0  0
   60.5151   34.1798   44.6172 H   0  0  0  0  0  0  0  0  0  0  0  0
   61.7170   34.8590   47.1160 H   0  0  0  0  0  0  0  0  0  0  0  0
   63.7234   32.5908   47.0467 H   0  0  0  0  0  0  0  0  0  0  0  0
   64.0820   34.3389   47.1725 H   0  0  0  0  0  0  0  0  0  0  0  0
   64.5247   33.4191   49.3462 H   0  0  0  0  0  0  0  0  0  0  0  0
   62.9345   34.2546   49.4786 H   0  0  0  0  0  0  0  0  0  0  0  0
   62.0212   31.8531   48.7618 H   0  0  0  0  0  0  0  0  0  0  0  0
   63.5889   31.3226   49.4815 H   0  0  0  0  0  0  0  0  0  0  0  0
   61.4572   30.3809   50.4601 H   0  0  0  0  0  0  0  0  0  0  0  0
   62.3849   30.5809   51.9863 H   0  0  0  0  0  0  0  0  0  0  0  0
   59.8625   30.4969   52.3148 H   0  0  0  0  0  0  0  0  0  0  0  0
   60.6107   31.9815   52.9475 H   0  0  0  0  0  0  0  0  0  0  0  0
   59.7526   33.9466   50.1951 H   0  0  0  0  0  0  0  0  0  0  0  0
   59.8231   33.9762   52.0174 H   0  0  0  0  0  0  0  0  0  0  0  0
   61.9271   34.2065   50.2869 H   0  0  0  0  0  0  0  0  0  0  0  0
   61.9427   33.7547   52.0796 H   0  0  0  0  0  0  0  0  0  0  0  0
   59.4190   30.7140   46.3360 H   0  0  0  0  0  0  0  0  0  0  0  0
   56.9698   27.5744   45.4318 H   0  0  0  0  0  0  0  0  0  0  0  0
  1  2  1  0
  2  3  2  0
  3  4  1  0
  4  5  1  0
  5  6  1  0
  6  7  2  0
  7  8  1  0
  8  9  1  0
  9 10  1  0
 10 11  2  0
 11 12  1  0
 12 13  2  0
 13 14  1  0
 14 15  2  0
 15 16  1  0
 16 17  2  0
 17 18  1  0
 18 19  2  0
 18 20  1  0
 20 21  1  0
 21 22  1  0
 22 23  1  0
 23 24  1  0
 24 25  1  0
 25 26  1  0
 26 27  1  0
 27 28  1  0
 28 29  1  0
 10 30  1  0
  4 31  2  0
 31 32  1  0
 32  2  1  0
 30  7  1  0
 17 12  1  0
 29 24  1  0
  1 33  1  0
  1 34  1  0
  1 35  1  0
  5 36  1  0
  5 37  1  0
  8 38  1  0
  9 39  1  0
 13 40  1  0
 14 41  1  0
 15 42  1  0
 16 43  1  0
 20 44  1  0
 21 45  1  0
 21 46  1  0
 22 47  1  0
 22 48  1  0
 23 49  1  0
 23 50  1  0
 25 51  1  0
 25 52  1  0
 26 53  1  0
 26 54  1  0
 28 55  1  0
 28 56  1  0
 29 57  1  0
 29 58  1  0
 30 59  1  0
 31 60  1  0
M  END
>  <smiles>  (90) 
Cc1nc(CN=c2[nH][nH]c(=Nc3ccccc3C(=O)NCCCN3CCOCC3)[nH]2)cs1

>  <score_type>  (90) 
oracle

>  <origin>  (90) 
adg

>  <m_score__min__energy>  (90) 
-8.7799999999999994

>  <m_primary>  (90) 
energy

$$$$
90:0
     RDKit          3D

 42 44  0  0  0  0  0  0  0  0999 V2000
   55.2650   24.8450   45.5430 C   0  0  0  0  0  0  0  0  0  0  0  0
   55.5880   25.9980   46.3710 N   0  0  0  0  0  0  0  0  0  0  0  0
   56.3790   27.0960   45.9010 C   0  0  0  0  0  0  0  0  0  0  0  0
   55.8280   28.0260   45.2530 O   0  0  0  0  0  0  0  0  0  0  0  0
   57.8430   27.1400   46.1550 C   0  0  0  0  0  0  0  0  0  0  0  0
   58.5870   25.9460   46.1220 C   0  0  0  0  0  0  0  0  0  0  0  0
   59.9620   25.9610   46.3580 C   0  0  0  0  0  0  0  0  0  0  0  0
   60.5970   27.1730   46.6100 C   0  0  0  0  0  0  0  0  0  0  0  0
   59.8780   28.3240   46.6280 N   0  0  0  0  0  0  0  0  0  0  0  0
   58.5300   28.3480   46.4230 C   0  0  0  0  0  0  0  0  0  0  0  0
   57.8400   29.5700   46.4230 O   0  0  0  0  0  0  0  0  0  0  0  0
   57.7870   30.4890   45.3630 C   0  0  0  0  0  0  0  0  0  0  0  0
   57.0400   30.2500   44.1930 C   0  0  0  0  0  0  0  0  0  0  0  0
   57.0140   31.2030   43.1740 C   0  0  0  0  0  0  0  0  0  0  0  0
   57.7430   32.3870   43.2950 C   0  0  0  0  0  0  0  0  0  0  0  0
   58.5250   32.6200   44.4390 C   0  0  0  0  0  0  0  0  0  0  0  0
   59.3170   33.8050   44.5920 N   0  0  0  0  0  0  0  0  0  0  0  0
   59.4120   34.7650   46.0350 S   0  0  0  0  0  0  0  0  0  0  0  0
   59.6450   36.2010   45.6570 O   0  0  0  0  0  0  0  0  0  0  0  0
   58.1070   34.6740   46.7770 O   0  0  0  0  0  0  0  0  0  0  0  0
   60.7690   34.2090   47.0120 C   0  0  0  0  0  0  0  0  0  0  0  0
   61.9540   33.8370   46.3640 C   0  0  0  0  0  0  0  0  0  0  0  0
   63.0500   33.3820   47.1020 C   0  0  0  0  0  0  0  0  0  0  0  0
   62.9650   33.2900   48.4950 C   0  0  0  0  0  0  0  0  0  0  0  0
   64.4600   32.6570   49.5030 Br  0  0  0  0  0  0  0  0  0  0  0  0
   61.7850   33.6570   49.1500 C   0  0  0  0  0  0  0  0  0  0  0  0
   60.6880   34.1180   48.4150 C   0  0  0  0  0  0  0  0  0  0  0  0
   59.5570   34.4660   49.0760 F   0  0  0  0  0  0  0  0  0  0  0  0
   58.5410   31.6650   45.4630 C   0  0  0  0  0  0  0  0  0  0  0  0
   55.0245   23.9866   46.1875 H   0  0  0  0  0  0  0  0  0  0  0  0
   54.3984   25.0809   44.9079 H   0  0  0  0  0  0  0  0  0  0  0  0
   56.1281   24.5963   44.9079 H   0  0  0  0  0  0  0  0  0  0  0  0
   58.0804   24.9932   45.9084 H   0  0  0  0  0  0  0  0  0  0  0  0
   60.5382   25.0241   46.3450 H   0  0  0  0  0  0  0  0  0  0  0  0
   61.6811   27.1984   46.7945 H   0  0  0  0  0  0  0  0  0  0  0  0
   56.4768   29.3116   44.0825 H   0  0  0  0  0  0  0  0  0  0  0  0
   56.4152   31.0199   42.2696 H   0  0  0  0  0  0  0  0  0  0  0  0
   57.7053   33.1392   42.4933 H   0  0  0  0  0  0  0  0  0  0  0  0
   62.0221   33.9034   45.2681 H   0  0  0  0  0  0  0  0  0  0  0  0
   63.9793   33.0963   46.5875 H   0  0  0  0  0  0  0  0  0  0  0  0
   61.7196   33.5829   50.2456 H   0  0  0  0  0  0  0  0  0  0  0  0
   59.1546   31.8410   46.3588 H   0  0  0  0  0  0  0  0  0  0  0  0
  1  2  1  0
  2  3  1  0
  3  4  2  0
  3  5  1  0
  5  6  2  0
  6  7  1  0
  7  8  2  0
  8  9  1  0
  9 10  2  0
 10 11  1  0
 11 12  1  0
 12 13  2  0
 13 14  1  0
 14 15  2  0
 15 16  1  0
 16 17  1  0
 17 18  1  0
 18 19  2  0
 18 20  2  0
 18 21  1  0
 21 22  2  0
 22 23  1  0
 23 24  2  0
 24 25  1  0
 24 26  1  0
 26 27  2  0
 27 28  1  0
 16 29  2  0
 10  5  1  0
 29 12  1  0
 27 21  1  0
  1 30  1  0
  1 31  1  0
  1 32  1  0
  6 33  1  0
  7 34  1  0
  8 35  1  0
 13 36  1  0
 14 37  1  0
 15 38  1  0
 22 39  1  0
 23 40  1  0
 26 41  1  0
 29 42  1  0
M  CHG  2   2  -1  17  -1
M  END
>  <UniqueID>  (91) 
80

>  <SMILES>  (91) 
C[N-]C(=O)c1cccnc1Oc1cccc([N-]S(=O)(=O)c2ccc(Br)cc2F)c1

>  <Energy>  (91) 
54.493143525159745

>  <Genealogy>  (91) 
C[N-]C(=O)c1cccnc1Oc1cccc([N-]S(=O)(=O)c2ccc(Br)cc2F)c1 (protonated)
C[N-]C(=O)c1cccnc1Oc1cccc([N-]S(=O)(=O)c2ccc(Br)cc2F)c1 (3D coordinates assigned)
C[N-]C(=O)c1cccnc1Oc1cccc([N-]S(=O)(=O)c2ccc(Br)cc2F)c1 (optimized conformer: 54.493143525159745 kcal/mol)

>  <smiles>  (91) 
CNC(=O)c1cccnc1Oc1cccc(NS(=O)(=O)c2ccc(Br)cc2F)c1

>  <score_type>  (91) 
oracle

>  <origin>  (91) 
adg

>  <m_score__min__energy>  (91) 
-12.27

>  <m_primary>  (91) 
energy

$$$$
91:0
     RDKit          3D

 41 41  0  0  0  0  0  0  0  0999 V2000
   57.1760   33.2070   45.9800 C   0  0  0  0  0  0  0  0  0  0  0  0
   57.6200   31.8850   45.4930 N   0  0  1  0  0  0  0  0  0  0  0  0
   57.2940   31.7320   44.0540 C   0  0  0  0  0  0  0  0  0  0  0  0
   56.4130   30.5040   43.7680 C   0  0  0  0  0  0  0  0  0  0  0  0
   56.1770   29.7530   44.9960 N   0  0  0  0  0  0  0  0  0  0  0  0
   57.1460   28.8910   45.5990 C   0  0  0  0  0  0  0  0  0  0  0  0
   57.7010   29.2120   46.6860 O   0  0  0  0  0  0  0  0  0  0  0  0
   57.4710   27.5800   44.9570 C   0  0  0  0  0  0  0  0  0  0  0  0
   57.5200   26.4690   46.0070 C   0  0  0  0  0  0  0  0  0  0  0  0
   56.1370   26.0210   46.3590 C   0  0  0  0  0  0  0  0  0  0  0  0
   55.1410   26.7060   46.0080 O   0  0  0  0  0  0  0  0  0  0  0  0
   55.9500   24.8730   47.1170 O   0  0  0  0  0  0  0  0  0  0  0  0
   59.0450   31.6230   45.8390 C   0  0  0  0  0  0  0  0  0  0  0  0
   59.5320   32.2190   47.1880 C   0  0  0  0  0  0  0  0  0  0  0  0
   61.0120   32.5290   47.2020 C   0  0  0  0  0  0  0  0  0  0  0  0
   61.5160   33.6100   46.4580 C   0  0  0  0  0  0  0  0  0  0  0  0
   62.8840   33.8990   46.4710 C   0  0  0  0  0  0  0  0  0  0  0  0
   63.7610   33.1040   47.2110 C   0  0  0  0  0  0  0  0  0  0  0  0
   63.2740   32.0100   47.9310 C   0  0  0  0  0  0  0  0  0  0  0  0
   61.9080   31.7160   47.9200 C   0  0  0  0  0  0  0  0  0  0  0  0
   57.1746   33.2110   47.0800 H   0  0  0  0  0  0  0  0  0  0  0  0
   57.8628   33.9832   45.6113 H   0  0  0  0  0  0  0  0  0  0  0  0
   56.1599   33.4113   45.6113 H   0  0  0  0  0  0  0  0  0  0  0  0
   57.0510   31.1790   46.0180 H   0  0  0  0  0  0  0  0  0  0  0  0
   56.7605   32.6330   43.7171 H   0  0  0  0  0  0  0  0  0  0  0  0
   58.2418   31.5919   43.5135 H   0  0  0  0  0  0  0  0  0  0  0  0
   55.4492   30.8370   43.3555 H   0  0  0  0  0  0  0  0  0  0  0  0
   56.9283   29.8546   43.0450 H   0  0  0  0  0  0  0  0  0  0  0  0
   56.6985   27.3402   44.2116 H   0  0  0  0  0  0  0  0  0  0  0  0
   58.4551   27.6551   44.4712 H   0  0  0  0  0  0  0  0  0  0  0  0
   58.0859   25.6156   45.6052 H   0  0  0  0  0  0  0  0  0  0  0  0
   58.0104   26.8559   46.9124 H   0  0  0  0  0  0  0  0  0  0  0  0
   59.1877   30.5331   45.8801 H   0  0  0  0  0  0  0  0  0  0  0  0
   59.6391   32.1221   45.0593 H   0  0  0  0  0  0  0  0  0  0  0  0
   58.9779   33.1498   47.3794 H   0  0  0  0  0  0  0  0  0  0  0  0
   59.3489   31.4622   47.9650 H   0  0  0  0  0  0  0  0  0  0  0  0
   60.8309   34.2315   45.8627 H   0  0  0  0  0  0  0  0  0  0  0  0
   63.2699   34.7544   45.8971 H   0  0  0  0  0  0  0  0  0  0  0  0
   64.8355   33.3388   47.2273 H   0  0  0  0  0  0  0  0  0  0  0  0
   63.9669   31.3793   48.5073 H   0  0  0  0  0  0  0  0  0  0  0  0
   61.5313   30.8445   48.4755 H   0  0  0  0  0  0  0  0  0  0  0  0
  1  2  1  0
  2  3  1  0
  3  4  1  0
  4  5  1  0
  5  6  1  0
  6  7  2  0
  6  8  1  0
  8  9  1  0
  9 10  1  0
 10 11  2  0
 10 12  1  0
  2 13  1  0
 13 14  1  0
 14 15  1  0
 15 16  2  0
 16 17  1  0
 17 18  2  0
 18 19  1  0
 19 20  2  0
 20 15  1  0
  1 21  1  0
  1 22  1  0
  1 23  1  0
  2 24  1  1
  3 25  1  0
  3 26  1  0
  4 27  1  0
  4 28  1  0
  8 29  1  0
  8 30  1  0
  9 31  1  0
  9 32  1  0
 13 33  1  0
 13 34  1  0
 14 35  1  0
 14 36  1  0
 16 37  1  0
 17 38  1  0
 18 39  1  0
 19 40  1  0
 20 41  1  0
M  CHG  3   2   1   5  -1  12  -1
M  END
>  <UniqueID>  (92) 
81

>  <SMILES>  (92) 
C[N@@H+](CC[N-]C(=O)CCC(=O)[O-])CCc1ccccc1

>  <Energy>  (92) 
35.60762263183592

>  <Genealogy>  (92) 
C[NH+](CC[N-]C(=O)CCC(=O)[O-])CCc1ccccc1 (protonated)
C[N@@H+](CC[N-]C(=O)CCC(=O)[O-])CCc1ccccc1 (chirality)
C[N@@H+](CC[N-]C(=O)CCC(=O)[O-])CCc1ccccc1 (3D coordinates assigned)
C[N@@H+](CC[N-]C(=O)CCC(=O)[O-])CCc1ccccc1 (optimized conformer: 35.60762263183592 kcal/mol)

>  <smiles>  (92) 
CN(CCNC(=O)CCC(=O)O)CCc1ccccc1

>  <score_type>  (92) 
oracle

>  <origin>  (92) 
adg

>  <m_score__min__energy>  (92) 
-9.8699999999999992

>  <m_primary>  (92) 
energy

$$$$
92:0
     RDKit          3D

 16 16  0  0  0  0  0  0  0  0999 V2000
   59.9070   26.0030   46.4070 H   0  0  0  0  0  0  0  0  0  0  0  0
   59.3370   25.2310   46.7330 O   0  0  0  0  0  0  0  0  0  0  0  0
   57.9500   25.2840   46.6490 C   0  0  0  0  0  0  0  0  0  0  0  0
   57.0860   24.2150   46.7820 C   0  0  0  0  0  0  0  0  0  0  0  0
   57.3906   23.1872   47.0286 H   0  0  0  0  0  0  0  0  0  0  0  0
   55.8140   24.6120   46.5660 N   0  0  0  0  0  0  0  0  0  0  0  0
   55.8900   25.9330   46.3040 C   0  0  0  0  0  0  0  0  0  0  0  0
   54.7820   26.7130   46.0000 O   0  0  0  0  0  0  0  0  0  0  0  0
   57.1880   26.3990   46.3720 C   0  0  0  0  0  0  0  0  0  0  0  0
   57.6470   27.7570   46.0280 C   0  0  0  0  0  0  0  0  0  0  0  0
   58.3318   28.2521   46.7322 H   0  0  0  0  0  0  0  0  0  0  0  0
   57.2980   28.4380   44.9270 C   0  0  0  0  0  0  0  0  0  0  0  0
   57.7687   28.1366   43.9796 H   0  0  0  0  0  0  0  0  0  0  0  0
   56.3370   29.5570   44.8760 C   0  0  0  0  0  0  0  0  0  0  0  0
   55.0970   29.3550   44.7840 O   0  0  0  0  0  0  0  0  0  0  0  0
   56.8160   30.8600   44.8560 O   0  0  0  0  0  0  0  0  0  0  0  0
  1  2  1  0
  2  3  1  0
  3  4  2  0
  4  5  1  0
  4  6  1  0
  6  7  1  0
  7  8  1  0
  7  9  2  0
  9 10  1  0
 10 11  1  0
 10 12  2  0
 12 13  1  0
 12 14  1  0
 14 15  2  0
 14 16  1  0
  9  3  1  0
M  CHG  3   6  -1   8  -1  16  -1
M  END
>  <UniqueID>  (93) 
82

>  <SMILES>  (93) 
O=C([O-])/C=C\c1c(O)c[n-]c1[O-]

>  <Energy>  (93) 
48.31529891506733

>  <Genealogy>  (93) 
O=C([O-])C=Cc1c(O)c[n-]c1[O-] (protonated)
O=C([O-])/C=C\c1c(O)c[n-]c1[O-] (cis-trans isomerization)
O=C([O-])/C=C\c1c(O)c[n-]c1[O-] (3D coordinates assigned)
O=C([O-])/C=C\c1c(O)c[n-]c1[O-] (optimized conformer: 48.31529891506733 kcal/mol)

>  <smiles>  (93) 
O=C(O)C=Cc1c(O)c[nH]c1O

>  <score_type>  (93) 
oracle

>  <origin>  (93) 
adg

>  <m_score__min__energy>  (93) 
-12.94

>  <m_primary>  (93) 
energy

$$$$
