0:0
     RDKit          3D

 44 46  0  0  0  0  0  0  0  0999 V2000
   56.9960   33.9120   45.2380 C   0  0  0  0  0  0  0  0  0  0  0  0
   57.6070   32.7240   45.2390 C   0  0  0  0  0  0  0  0  0  0  0  0
   57.4830   31.6380   43.9650 S   0  0  0  0  0  0  0  0  0  0  0  0
   58.4050   30.4410   44.7070 C   0  0  0  0  0  0  0  0  0  0  0  0
   58.7250   29.2230   44.2280 C   0  0  0  0  0  0  0  0  0  0  0  0
   58.1280   27.9280   44.6280 C   0  0  0  0  0  0  0  0  0  0  0  0
   58.2170   26.8370   43.8240 N   0  0  0  0  0  0  0  0  0  0  0  0
   57.6010   25.7580   44.3710 C   0  0  0  0  0  0  0  0  0  0  0  0
   57.5360   24.5000   43.7710 C   0  0  0  0  0  0  0  0  0  0  0  0
   56.8630   23.4510   44.4420 C   0  0  0  0  0  0  0  0  0  0  0  0
   56.7720   22.0970   43.8430 C   0  0  0  0  0  0  0  0  0  0  0  0
   57.6540   21.0420   44.2370 N   0  0  0  0  0  0  0  0  0  0  0  0
   55.9060   21.8650   42.9560 O   0  0  0  0  0  0  0  0  0  0  0  0
   56.2860   23.6980   45.7130 C   0  0  0  0  0  0  0  0  0  0  0  0
   56.3610   24.9700   46.3020 C   0  0  0  0  0  0  0  0  0  0  0  0
   57.0210   25.9750   45.6070 C   0  0  0  0  0  0  0  0  0  0  0  0
   57.2720   27.5710   46.0520 S   0  0  0  0  0  0  0  0  0  0  0  0
   58.7890   30.9360   45.9580 C   0  0  0  0  0  0  0  0  0  0  0  0
   59.4680   30.2520   46.7740 O   0  0  0  0  0  0  0  0  0  0  0  0
   58.3700   32.2090   46.2490 N   0  0  0  0  0  0  0  0  0  0  0  0
   58.6920   32.8870   47.5240 C   0  0  0  0  0  0  0  0  0  0  0  0
   59.9360   33.8260   47.4350 C   0  0  0  0  0  0  0  0  0  0  0  0
   61.0800   33.0520   46.7490 C   0  0  0  0  0  0  0  0  0  0  0  0
   59.6260   35.0820   46.5950 C   0  0  0  0  0  0  0  0  0  0  0  0
   60.4120   34.2630   48.8340 C   0  0  0  0  0  0  0  0  0  0  0  0
   57.1084   34.5890   46.0977 H   0  0  0  0  0  0  0  0  0  0  0  0
   56.3805   34.2132   44.3775 H   0  0  0  0  0  0  0  0  0  0  0  0
   59.5116   29.1867   43.4599 H   0  0  0  0  0  0  0  0  0  0  0  0
   58.0015   24.3258   42.7897 H   0  0  0  0  0  0  0  0  0  0  0  0
   58.4850   21.2180   44.8430 H   0  0  0  0  0  0  0  0  0  0  0  0
   57.5270   20.0840   43.8450 H   0  0  0  0  0  0  0  0  0  0  0  0
   55.7731   22.8828   46.2444 H   0  0  0  0  0  0  0  0  0  0  0  0
   55.9098   25.1652   47.2860 H   0  0  0  0  0  0  0  0  0  0  0  0
   57.8227   33.4890   47.8271 H   0  0  0  0  0  0  0  0  0  0  0  0
   58.9321   32.1015   48.2557 H   0  0  0  0  0  0  0  0  0  0  0  0
   61.7341   32.6095   47.5147 H   0  0  0  0  0  0  0  0  0  0  0  0
   60.6577   32.2533   46.1215 H   0  0  0  0  0  0  0  0  0  0  0  0
   61.6642   33.7411   46.1215 H   0  0  0  0  0  0  0  0  0  0  0  0
   59.4170   35.9289   47.2651 H   0  0  0  0  0  0  0  0  0  0  0  0
   60.4920   35.3216   45.9604 H   0  0  0  0  0  0  0  0  0  0  0  0
   58.7480   34.8912   45.9604 H   0  0  0  0  0  0  0  0  0  0  0  0
   59.8317   33.7302   49.6017 H   0  0  0  0  0  0  0  0  0  0  0  0
   61.4794   34.0237   48.9494 H   0  0  0  0  0  0  0  0  0  0  0  0
   60.2646   35.3470   48.9494 H   0  0  0  0  0  0  0  0  0  0  0  0
  1  2  2  0
  2  3  1  0
  3  4  1  0
  4  5  2  3
  5  6  1  0
  6  7  2  0
  7  8  1  0
  8  9  2  0
  9 10  1  0
 10 11  1  0
 11 12  1  0
 11 13  2  0
 10 14  2  0
 14 15  1  0
 15 16  2  0
 16 17  1  0
  4 18  1  0
 18 19  2  0
 18 20  1  0
 20 21  1  0
 21 22  1  0
 22 23  1  0
 22 24  1  0
 22 25  1  0
 20  2  1  0
 17  6  1  0
 16  8  1  0
  1 26  1  0
  1 27  1  0
  5 28  1  0
  9 29  1  0
 12 30  1  0
 12 31  1  0
 14 32  1  0
 15 33  1  0
 21 34  1  0
 21 35  1  0
 23 36  1  0
 23 37  1  0
 23 38  1  0
 24 39  1  0
 24 40  1  0
 24 41  1  0
 25 42  1  0
 25 43  1  0
 25 44  1  0
M  END
>  <UniqueID>  (1) 
1

>  <SMILES>  (1) 
C=c1sc(=Cc2nc3cc(C(N)=O)ccc3s2)c(=O)n1CC(C)(C)C

>  <Energy>  (1) 
114.40960007310966

>  <Genealogy>  (1) 
C=c1sc(=Cc2nc3cc(C(N)=O)ccc3s2)c(=O)n1CC(C)(C)C (3D coordinates assigned)
C=c1sc(=Cc2nc3cc(C(N)=O)ccc3s2)c(=O)n1CC(C)(C)C (optimized conformer: 114.40960007310966 kcal/mol)

>  <smiles>  (1) 
C=c1sc(=Cc2nc3cc(C(N)=O)ccc3s2)c(=O)n1CC(C)(C)C

>  <score_type>  (1) 
oracle

>  <origin>  (1) 
adg

>  <m_score__min__energy>  (1) 
-8.8100000000000005

>  <m_primary>  (1) 
energy

$$$$
1:0
     RDKit          3D

 65 68  0  0  0  0  0  0  0  0999 V2000
   59.9880   27.1120   47.2110 C   0  0  0  0  0  0  0  0  0  0  0  0
   59.2130   26.5240   46.0430 C   0  0  0  0  0  0  0  0  0  0  0  0
   59.5420   27.2280   44.8510 O   0  0  0  0  0  0  0  0  0  0  0  0
   58.5770   27.8260   44.0330 C   0  0  0  0  0  0  0  0  0  0  0  0
   58.1950   27.2430   42.9800 O   0  0  0  0  0  0  0  0  0  0  0  0
   58.0360   29.1100   44.3920 N   0  0  0  0  0  0  0  0  0  0  0  0
   56.9720   29.7390   43.5910 C   0  0  0  0  0  0  0  0  0  0  0  0
   57.2570   31.2360   43.4050 C   0  0  0  0  0  0  0  0  0  0  0  0
   57.7290   31.8550   44.6500 N   0  0  0  0  0  0  0  0  0  0  0  0
   58.1000   33.2400   44.6340 C   0  0  0  0  0  0  0  0  0  0  0  0
   57.2600   34.1040   44.2670 O   0  0  0  0  0  0  0  0  0  0  0  0
   59.4920   33.6680   44.9950 C   0  0  0  0  0  0  0  0  0  0  0  0
   59.7010   33.6030   46.4390 N   0  0  0  0  0  0  0  0  0  0  0  0
   59.4150   34.5990   47.4030 C   0  0  0  0  0  0  0  0  0  0  0  0
   58.8950   35.7110   47.1240 O   0  0  0  0  0  0  0  0  0  0  0  0
   59.7890   34.2270   48.7240 N   0  0  0  0  0  0  0  0  0  0  0  0
   60.3670   32.8780   48.6620 C   0  0  1  0  0  0  0  0  0  0  0  0
   61.8480   32.8860   49.0450 C   0  0  0  0  0  0  0  0  0  0  0  0
   62.7600   32.0850   48.3270 C   0  0  0  0  0  0  0  0  0  0  0  0
   64.1250   32.1130   48.6290 C   0  0  0  0  0  0  0  0  0  0  0  0
   64.6020   32.9530   49.6370 C   0  0  0  0  0  0  0  0  0  0  0  0
   63.7180   33.7700   50.3410 C   0  0  0  0  0  0  0  0  0  0  0  0
   62.3510   33.7470   50.0450 C   0  0  0  0  0  0  0  0  0  0  0  0
   59.5300   31.9680   49.5630 C   0  0  0  0  0  0  0  0  0  0  0  0
   58.7450   32.5370   50.5860 C   0  0  0  0  0  0  0  0  0  0  0  0
   57.9180   31.7390   51.3810 C   0  0  0  0  0  0  0  0  0  0  0  0
   57.8220   30.3640   51.1540 C   0  0  0  0  0  0  0  0  0  0  0  0
   56.9640   29.6140   51.9760 O   0  0  0  0  0  0  0  0  0  0  0  0
   55.8960   30.1430   52.7620 C   0  0  0  0  0  0  0  0  0  0  0  0
   54.7000   30.4940   51.8840 C   0  0  0  0  0  0  0  0  0  0  0  0
   58.5830   29.7870   50.1190 C   0  0  0  0  0  0  0  0  0  0  0  0
   59.4140   30.5820   49.3270 C   0  0  0  0  0  0  0  0  0  0  0  0
   60.2660   32.5410   47.1920 C   0  0  0  0  0  0  0  0  0  0  0  0
   60.6410   31.4530   46.6770 O   0  0  0  0  0  0  0  0  0  0  0  0
   57.7780   31.0740   45.8880 C   0  0  0  0  0  0  0  0  0  0  0  0
   58.5030   29.7520   45.6320 C   0  0  0  0  0  0  0  0  0  0  0  0
   59.5401   26.7722   48.1565 H   0  0  0  0  0  0  0  0  0  0  0  0
   61.0352   26.7792   47.1609 H   0  0  0  0  0  0  0  0  0  0  0  0
   59.9495   28.2102   47.1609 H   0  0  0  0  0  0  0  0  0  0  0  0
   59.4762   25.4624   45.9260 H   0  0  0  0  0  0  0  0  0  0  0  0
   58.1340   26.6159   46.2364 H   0  0  0  0  0  0  0  0  0  0  0  0
   56.9254   29.2536   42.6050 H   0  0  0  0  0  0  0  0  0  0  0  0
   56.0126   29.6207   44.1159 H   0  0  0  0  0  0  0  0  0  0  0  0
   58.0283   31.3590   42.6304 H   0  0  0  0  0  0  0  0  0  0  0  0
   56.3202   31.7304   43.1085 H   0  0  0  0  0  0  0  0  0  0  0  0
   60.2133   33.0036   44.4967 H   0  0  0  0  0  0  0  0  0  0  0  0
   59.6355   34.7079   44.6663 H   0  0  0  0  0  0  0  0  0  0  0  0
   62.3939   31.4317   47.5213 H   0  0  0  0  0  0  0  0  0  0  0  0
   64.8240   31.4722   48.0715 H   0  0  0  0  0  0  0  0  0  0  0  0
   65.6756   32.9704   49.8760 H   0  0  0  0  0  0  0  0  0  0  0  0
   64.0968   34.4346   51.1315 H   0  0  0  0  0  0  0  0  0  0  0  0
   61.6624   34.4048   50.5955 H   0  0  0  0  0  0  0  0  0  0  0  0
   58.7838   33.6223   50.7607 H   0  0  0  0  0  0  0  0  0  0  0  0
   57.3366   32.1983   52.1940 H   0  0  0  0  0  0  0  0  0  0  0  0
   55.5896   29.3926   53.5057 H   0  0  0  0  0  0  0  0  0  0  0  0
   56.2463   31.0576   53.2628 H   0  0  0  0  0  0  0  0  0  0  0  0
   53.8393   30.7466   52.5207 H   0  0  0  0  0  0  0  0  0  0  0  0
   54.9518   31.3561   51.2489 H   0  0  0  0  0  0  0  0  0  0  0  0
   54.4460   29.6325   51.2489 H   0  0  0  0  0  0  0  0  0  0  0  0
   58.5225   28.7044   49.9335 H   0  0  0  0  0  0  0  0  0  0  0  0
   59.9859   30.1213   48.5080 H   0  0  0  0  0  0  0  0  0  0  0  0
   58.3170   31.6438   46.6592 H   0  0  0  0  0  0  0  0  0  0  0  0
   56.7533   30.8683   46.2311 H   0  0  0  0  0  0  0  0  0  0  0  0
   59.5824   29.9469   45.5486 H   0  0  0  0  0  0  0  0  0  0  0  0
   58.2904   29.0743   46.4719 H   0  0  0  0  0  0  0  0  0  0  0  0
  1  2  1  0
  2  3  1  0
  3  4  1  0
  4  5  2  0
  4  6  1  0
  6  7  1  0
  7  8  1  0
  8  9  1  0
  9 10  1  0
 10 11  2  0
 10 12  1  0
 12 13  1  0
 13 14  1  0
 14 15  2  0
 14 16  1  0
 16 17  1  0
 17 18  1  1
 18 19  2  0
 19 20  1  0
 20 21  2  0
 21 22  1  0
 22 23  2  0
 17 24  1  0
 24 25  2  0
 25 26  1  0
 26 27  2  0
 27 28  1  0
 28 29  1  0
 29 30  1  0
 27 31  1  0
 31 32  2  0
 17 33  1  0
 33 34  2  0
  9 35  1  0
 35 36  1  0
 36  6  1  0
 33 13  1  0
 23 18  1  0
 32 24  1  0
  1 37  1  0
  1 38  1  0
  1 39  1  0
  2 40  1  0
  2 41  1  0
  7 42  1  0
  7 43  1  0
  8 44  1  0
  8 45  1  0
 12 46  1  0
 12 47  1  0
 19 48  1  0
 20 49  1  0
 21 50  1  0
 22 51  1  0
 23 52  1  0
 25 53  1  0
 26 54  1  0
 29 55  1  0
 29 56  1  0
 30 57  1  0
 30 58  1  0
 30 59  1  0
 31 60  1  0
 32 61  1  0
 35 62  1  0
 35 63  1  0
 36 64  1  0
 36 65  1  0
M  CHG  1  16  -1
M  END
>  <UniqueID>  (2) 
2

>  <SMILES>  (2) 
CCOC(=O)N1CCN(C(=O)CN2C(=O)[N-][C@@](c3ccccc3)(c3ccc(OCC)cc3)C2=O)CC1

>  <Energy>  (2) 
88.0635862879284

>  <Genealogy>  (2) 
CCOC(=O)N1CCN(C(=O)CN2C(=O)[N-]C(c3ccccc3)(c3ccc(OCC)cc3)C2=O)CC1 (protonated)
CCOC(=O)N1CCN(C(=O)CN2C(=O)[N-][C@@](c3ccccc3)(c3ccc(OCC)cc3)C2=O)CC1 (chirality)
CCOC(=O)N1CCN(C(=O)CN2C(=O)[N-][C@@](c3ccccc3)(c3ccc(OCC)cc3)C2=O)CC1 (3D coordinates assigned)
CCOC(=O)N1CCN(C(=O)CN2C(=O)[N-][C@@](c3ccccc3)(c3ccc(OCC)cc3)C2=O)CC1 (nonaromatic ring conformer: 88.0635862879284 kcal/mol)

>  <smiles>  (2) 
CCOC(=O)N1CCN(C(=O)CN2C(=O)NC(c3ccccc3)(c3ccc(OCC)cc3)C2=O)CC1

>  <score_type>  (2) 
oracle

>  <origin>  (2) 
adg

>  <m_score__min__energy>  (2) 
-9.3000000000000007

>  <m_primary>  (2) 
energy

$$$$
2:0
     RDKit          3D

 64 68  0  0  0  0  0  0  0  0999 V2000
   60.4062   31.1629   46.8610 H   0  0  0  0  0  0  0  0  0  0  0  0
   61.2360   30.9090   47.5370 C   0  0  0  0  0  0  0  0  0  0  0  0
   62.4890   31.7060   47.4680 C   0  0  0  0  0  0  0  0  0  0  0  0
   63.4910   31.2140   46.8780 O   0  0  0  0  0  0  0  0  0  0  0  0
   62.5870   33.0590   47.9940 N   0  0  0  0  0  0  0  0  0  0  0  0
   63.5640   33.1530   48.3630 H   0  0  0  0  0  0  0  0  0  0  0  0
   61.6840   33.3400   49.1460 C   0  0  0  0  0  0  0  0  0  0  0  0
   61.3318   32.3820   49.5562 H   0  0  0  0  0  0  0  0  0  0  0  0
   62.2628   33.9164   49.8827 H   0  0  0  0  0  0  0  0  0  0  0  0
   60.4570   34.1890   48.7610 C   0  0  0  0  0  0  0  0  0  0  0  0
   59.6400   33.9973   49.4722 H   0  0  0  0  0  0  0  0  0  0  0  0
   60.7238   35.2557   48.7902 H   0  0  0  0  0  0  0  0  0  0  0  0
   60.0200   33.8270   47.4000 N   0  0  0  0  0  0  0  0  0  0  0  0
   58.6500   34.2320   46.9900 C   0  0  0  0  0  0  0  0  0  0  0  0
   58.4771   34.9848   47.7732 H   0  0  0  0  0  0  0  0  0  0  0  0
   57.6230   33.1090   46.8110 C   0  0  0  0  0  0  0  0  0  0  0  0
   58.0116   32.1036   47.0306 H   0  0  0  0  0  0  0  0  0  0  0  0
   56.7135   33.0777   47.4289 H   0  0  0  0  0  0  0  0  0  0  0  0
   57.5410   33.4360   45.3240 C   0  0  0  0  0  0  0  0  0  0  0  0
   57.8979   32.6282   44.6682 H   0  0  0  0  0  0  0  0  0  0  0  0
   56.5653   33.6274   44.8534 H   0  0  0  0  0  0  0  0  0  0  0  0
   58.5400   34.5740   45.5060 C   0  0  0  0  0  0  0  0  0  0  0  0
   59.4766   34.4447   44.9438 H   0  0  0  0  0  0  0  0  0  0  0  0
   58.2878   35.5955   45.1852 H   0  0  0  0  0  0  0  0  0  0  0  0
   61.0210   34.2230   46.3920 C   0  0  0  0  0  0  0  0  0  0  0  0
   60.8898   33.5958   45.4979 H   0  0  0  0  0  0  0  0  0  0  0  0
   60.8646   35.2874   46.1627 H   0  0  0  0  0  0  0  0  0  0  0  0
   62.4700   34.0580   46.9070 C   0  0  0  0  0  0  0  0  0  0  0  0
   63.1062   33.7394   46.0681 H   0  0  0  0  0  0  0  0  0  0  0  0
   62.7865   35.0287   47.3164 H   0  0  0  0  0  0  0  0  0  0  0  0
   61.0840   29.8910   48.3960 C   0  0  0  0  0  0  0  0  0  0  0  0
   61.6629   28.9715   48.2246 H   0  0  0  0  0  0  0  0  0  0  0  0
   60.1740   29.9430   49.5660 C   0  0  0  0  0  0  0  0  0  0  0  0
   60.3500   29.0110   50.6000 C   0  0  0  0  0  0  0  0  0  0  0  0
   61.1637   28.2736   50.5363 H   0  0  0  0  0  0  0  0  0  0  0  0
   59.5010   29.0110   51.7100 C   0  0  0  0  0  0  0  0  0  0  0  0
   59.6634   28.2872   52.5223 H   0  0  0  0  0  0  0  0  0  0  0  0
   58.4420   29.9290   51.7950 C   0  0  0  0  0  0  0  0  0  0  0  0
   57.5460   29.9210   52.9730 C   0  0  0  0  0  0  0  0  0  0  0  0
   58.0540   29.9780   54.1260 O   0  0  0  0  0  0  0  0  0  0  0  0
   56.1120   29.8470   52.8360 N   0  0  0  0  0  0  0  0  0  0  0  0
   55.4140   30.9590   52.1680 C   0  0  0  0  0  0  0  0  0  0  0  0
   55.7526   31.0049   51.1224 H   0  0  0  0  0  0  0  0  0  0  0  0
   55.6572   31.8756   52.7254 H   0  0  0  0  0  0  0  0  0  0  0  0
   53.9090   30.8180   52.1780 C   0  0  0  0  0  0  0  0  0  0  0  0
   53.1350   31.6240   51.3280 C   0  0  0  0  0  0  0  0  0  0  0  0
   53.6297   32.3196   50.6342 H   0  0  0  0  0  0  0  0  0  0  0  0
   51.7400   31.5480   51.3580 C   0  0  0  0  0  0  0  0  0  0  0  0
   50.9830   32.3440   50.5070 O   0  0  0  0  0  0  0  0  0  0  0  0
   51.1060   30.6750   52.2450 C   0  0  0  0  0  0  0  0  0  0  0  0
   50.0078   30.6162   52.2676 H   0  0  0  0  0  0  0  0  0  0  0  0
   51.8660   29.8760   53.1040 C   0  0  0  0  0  0  0  0  0  0  0  0
   51.3638   29.1988   53.8105 H   0  0  0  0  0  0  0  0  0  0  0  0
   53.2670   29.9350   53.0680 C   0  0  0  0  0  0  0  0  0  0  0  0
   54.0840   29.0960   54.0070 C   0  0  0  0  0  0  0  0  0  0  0  0
   53.5092   28.2026   54.2926 H   0  0  0  0  0  0  0  0  0  0  0  0
   54.3242   29.6848   54.9046 H   0  0  0  0  0  0  0  0  0  0  0  0
   55.3790   28.6680   53.3240 C   0  0  0  0  0  0  0  0  0  0  0  0
   55.1413   28.0110   52.4744 H   0  0  0  0  0  0  0  0  0  0  0  0
   56.0068   28.1315   54.0507 H   0  0  0  0  0  0  0  0  0  0  0  0
   58.2640   30.8630   50.7630 C   0  0  0  0  0  0  0  0  0  0  0  0
   57.4488   31.5987   50.8276 H   0  0  0  0  0  0  0  0  0  0  0  0
   59.1140   30.8660   49.6540 C   0  0  0  0  0  0  0  0  0  0  0  0
   58.9542   31.5937   48.8448 H   0  0  0  0  0  0  0  0  0  0  0  0
  1  2  1  0
  2  3  1  0
  3  4  2  0
  3  5  1  0
  5  6  1  0
  5  7  1  0
  7  8  1  0
  7  9  1  0
  7 10  1  0
 10 11  1  0
 10 12  1  0
 10 13  1  0
 13 14  1  0
 14 15  1  0
 14 16  1  0
 16 17  1  0
 16 18  1  0
 16 19  1  0
 19 20  1  0
 19 21  1  0
 19 22  1  0
 22 23  1  0
 22 24  1  0
 13 25  1  0
 25 26  1  0
 25 27  1  0
 25 28  1  0
 28 29  1  0
 28 30  1  0
  2 31  2  0
 31 32  1  0
 31 33  1  0
 33 34  2  0
 34 35  1  0
 34 36  1  0
 36 37  1  0
 36 38  2  0
 38 39  1  0
 39 40  2  0
 39 41  1  0
 41 42  1  0
 42 43  1  0
 42 44  1  0
 42 45  1  0
 45 46  2  0
 46 47  1  0
 46 48  1  0
 48 49  1  0
 48 50  2  0
 50 51  1  0
 50 52  1  0
 52 53  1  0
 52 54  2  0
 54 55  1  0
 55 56  1  0
 55 57  1  0
 55 58  1  0
 58 59  1  0
 58 60  1  0
 38 61  1  0
 61 62  1  0
 61 63  2  0
 63 64  1  0
 28  5  1  0
 63 33  1  0
 22 14  1  0
 58 41  1  0
 54 45  1  0
M  CHG  2   5   1  49  -1
M  END
>  <UniqueID>  (3) 
3

>  <SMILES>  (3) 
O=C(c1ccc(/C=C/C(=O)[NH+]2CCN(C3CCC3)CC2)cc1)N1CCc2ccc([O-])cc2C1

>  <Energy>  (3) 
156.871734545756

>  <Genealogy>  (3) 
O=C(c1ccc(C=CC(=O)[NH+]2CCN(C3CCC3)CC2)cc1)N1CCc2ccc([O-])cc2C1 (protonated)
O=C(c1ccc(/C=C/C(=O)[NH+]2CCN(C3CCC3)CC2)cc1)N1CCc2ccc([O-])cc2C1 (cis-trans isomerization)
O=C(c1ccc(/C=C/C(=O)[NH+]2CCN(C3CCC3)CC2)cc1)N1CCc2ccc([O-])cc2C1 (3D coordinates assigned)
O=C(c1ccc(/C=C/C(=O)[NH+]2CCN(C3CCC3)CC2)cc1)N1CCc2ccc([O-])cc2C1 (nonaromatic ring conformer: 156.871734545756 kcal/mol)

>  <smiles>  (3) 
O=C(C=Cc1ccc(C(=O)N2CCc3ccc(O)cc3C2)cc1)N1CCN(C2CCC2)CC1

>  <score_type>  (3) 
oracle

>  <origin>  (3) 
adg

>  <m_score__min__energy>  (3) 
-12.49

>  <m_primary>  (3) 
energy

$$$$
3:0
     RDKit          3D

 51 53  0  0  0  0  0  0  0  0999 V2000
   62.3340   33.0200   49.9340 C   0  0  0  0  0  0  0  0  0  0  0  0
   61.0890   32.9710   48.6650 S   0  0  0  0  0  0  0  0  0  0  0  0
   61.5180   33.8170   47.4990 O   0  0  0  0  0  0  0  0  0  0  0  0
   59.8020   33.5210   49.2160 O   0  0  0  0  0  0  0  0  0  0  0  0
   60.8700   31.3070   48.1340 C   0  0  0  0  0  0  0  0  0  0  0  0
   60.6460   30.3010   49.0830 C   0  0  0  0  0  0  0  0  0  0  0  0
   60.4410   28.9810   48.6750 C   0  0  0  0  0  0  0  0  0  0  0  0
   60.4190   28.6600   47.3090 C   0  0  0  0  0  0  0  0  0  0  0  0
   60.1870   27.2680   46.8840 C   0  0  0  0  0  0  0  0  0  0  0  0
   61.1930   26.5190   46.7470 O   0  0  0  0  0  0  0  0  0  0  0  0
   58.8580   26.7410   46.6170 N   0  0  0  0  0  0  0  0  0  0  0  0
   57.7840   27.6390   47.0990 C   0  0  0  0  0  0  0  0  0  0  0  0
   57.4630   28.8150   46.1430 C   0  0  0  0  0  0  0  0  0  0  0  0
   58.0620   28.6400   44.8050 N   0  0  0  0  0  0  0  0  0  0  0  0
   57.4890   29.6160   43.8530 C   0  0  0  0  0  0  0  0  0  0  0  0
   56.1360   30.0980   44.2950 C   0  0  0  0  0  0  0  0  0  0  0  0
   55.1330   29.3380   44.2370 O   0  0  0  0  0  0  0  0  0  0  0  0
   56.0260   31.4070   44.8680 N   0  0  0  0  0  0  0  0  0  0  0  0
   57.0950   32.3320   45.1200 C   0  0  0  0  0  0  0  0  0  0  0  0
   57.8160   32.8360   44.0280 C   0  0  0  0  0  0  0  0  0  0  0  0
   58.8440   33.7630   44.2250 C   0  0  0  0  0  0  0  0  0  0  0  0
   59.1490   34.2040   45.5170 C   0  0  0  0  0  0  0  0  0  0  0  0
   60.1410   35.1090   45.7080 F   0  0  0  0  0  0  0  0  0  0  0  0
   58.4210   33.7240   46.6090 C   0  0  0  0  0  0  0  0  0  0  0  0
   57.3950   32.7940   46.4150 C   0  0  0  0  0  0  0  0  0  0  0  0
   57.8450   27.2570   44.3550 C   0  0  0  0  0  0  0  0  0  0  0  0
   58.6890   26.2960   45.2070 C   0  0  0  0  0  0  0  0  0  0  0  0
   60.6850   29.6580   46.3630 C   0  0  0  0  0  0  0  0  0  0  0  0
   60.9060   30.9760   46.7720 C   0  0  0  0  0  0  0  0  0  0  0  0
   61.8512   33.0010   50.9222 H   0  0  0  0  0  0  0  0  0  0  0  0
   62.9957   32.1472   49.8323 H   0  0  0  0  0  0  0  0  0  0  0  0
   62.9251   33.9421   49.8323 H   0  0  0  0  0  0  0  0  0  0  0  0
   60.6315   30.5518   50.1539 H   0  0  0  0  0  0  0  0  0  0  0  0
   60.2964   28.1908   49.4265 H   0  0  0  0  0  0  0  0  0  0  0  0
   58.7740   25.8740   47.2030 H   0  0  0  0  0  0  0  0  0  0  0  0
   56.8693   27.0426   47.2316 H   0  0  0  0  0  0  0  0  0  0  0  0
   58.1423   28.0843   48.0388 H   0  0  0  0  0  0  0  0  0  0  0  0
   56.3712   28.8912   46.0328 H   0  0  0  0  0  0  0  0  0  0  0  0
   57.8916   29.7277   46.5826 H   0  0  0  0  0  0  0  0  0  0  0  0
   58.1669   30.4789   43.7764 H   0  0  0  0  0  0  0  0  0  0  0  0
   57.3731   29.1168   42.8797 H   0  0  0  0  0  0  0  0  0  0  0  0
   57.5712   32.4998   43.0096 H   0  0  0  0  0  0  0  0  0  0  0  0
   59.4126   34.1453   43.3645 H   0  0  0  0  0  0  0  0  0  0  0  0
   58.6556   34.0786   47.6235 H   0  0  0  0  0  0  0  0  0  0  0  0
   56.8210   32.4226   47.2767 H   0  0  0  0  0  0  0  0  0  0  0  0
   56.7805   27.0008   44.4612 H   0  0  0  0  0  0  0  0  0  0  0  0
   58.1436   27.1663   43.3002 H   0  0  0  0  0  0  0  0  0  0  0  0
   58.1984   25.3115   45.2096 H   0  0  0  0  0  0  0  0  0  0  0  0
   59.6922   26.2626   44.7570 H   0  0  0  0  0  0  0  0  0  0  0  0
   60.7201   29.4033   45.2935 H   0  0  0  0  0  0  0  0  0  0  0  0
   61.1088   31.7559   46.0232 H   0  0  0  0  0  0  0  0  0  0  0  0
  1  2  1  0
  2  3  2  0
  2  4  2  0
  2  5  1  0
  5  6  2  0
  6  7  1  0
  7  8  2  0
  8  9  1  0
  9 10  2  0
  9 11  1  0
 11 12  1  0
 12 13  1  0
 13 14  1  0
 14 15  1  0
 15 16  1  0
 16 17  2  0
 16 18  1  0
 18 19  1  0
 19 20  2  0
 20 21  1  0
 21 22  2  0
 22 23  1  0
 22 24  1  0
 24 25  2  0
 14 26  1  0
 26 27  1  0
  8 28  1  0
 28 29  2  0
 29  5  1  0
 27 11  1  0
 25 19  1  0
  1 30  1  0
  1 31  1  0
  1 32  1  0
  6 33  1  0
  7 34  1  0
 11 35  1  0
 12 36  1  0
 12 37  1  0
 13 38  1  0
 13 39  1  0
 15 40  1  0
 15 41  1  0
 20 42  1  0
 21 43  1  0
 24 44  1  0
 25 45  1  0
 26 46  1  0
 26 47  1  0
 27 48  1  0
 27 49  1  0
 28 50  1  0
 29 51  1  0
M  CHG  2  11   1  18  -1
M  END
>  <UniqueID>  (4) 
4

>  <SMILES>  (4) 
CS(=O)(=O)c1ccc(C(=O)[NH+]2CCN(CC(=O)[N-]c3ccc(F)cc3)CC2)cc1

>  <Energy>  (4) 
71.42104857421297

>  <Genealogy>  (4) 
CS(=O)(=O)c1ccc(C(=O)[NH+]2CCN(CC(=O)[N-]c3ccc(F)cc3)CC2)cc1 (protonated)
CS(=O)(=O)c1ccc(C(=O)[NH+]2CCN(CC(=O)[N-]c3ccc(F)cc3)CC2)cc1 (3D coordinates assigned)
CS(=O)(=O)c1ccc(C(=O)[NH+]2CCN(CC(=O)[N-]c3ccc(F)cc3)CC2)cc1 (nonaromatic ring conformer: 71.42104857421297 kcal/mol)

>  <smiles>  (4) 
CS(=O)(=O)c1ccc(C(=O)N2CCN(CC(=O)Nc3ccc(F)cc3)CC2)cc1

>  <score_type>  (4) 
oracle

>  <origin>  (4) 
adg

>  <m_score__min__energy>  (4) 
-8.6199999999999992

>  <m_primary>  (4) 
energy

$$$$
4:0
     RDKit          3D

 50 52  0  0  0  0  0  0  0  0999 V2000
   54.8020   26.1370   44.8660 H   0  0  0  0  0  0  0  0  0  0  0  0
   55.1360   26.3410   45.8000 O   0  0  0  0  0  0  0  0  0  0  0  0
   56.1360   25.5830   46.4050 C   0  0  0  0  0  0  0  0  0  0  0  0
   55.8910   24.4390   47.0640 N   0  0  0  0  0  0  0  0  0  0  0  0
   57.1200   24.0590   47.4710 C   0  0  0  0  0  0  0  0  0  0  0  0
   57.3200   23.0090   48.1340 O   0  0  0  0  0  0  0  0  0  0  0  0
   58.1180   24.8910   47.1080 N   0  0  0  0  0  0  0  0  0  0  0  0
   57.4860   25.8710   46.4360 C   0  0  0  0  0  0  0  0  0  0  0  0
   58.1540   27.0050   45.7590 C   0  0  0  0  0  0  0  0  0  0  0  0
   58.1111   27.0380   44.6603 H   0  0  0  0  0  0  0  0  0  0  0  0
   58.8120   28.0020   46.3880 C   0  0  0  0  0  0  0  0  0  0  0  0
   58.4270   28.6470   47.5550 C   0  0  0  0  0  0  0  0  0  0  0  0
   57.5266   28.4379   48.1513 H   0  0  0  0  0  0  0  0  0  0  0  0
   59.3880   29.6010   47.8260 C   0  0  0  0  0  0  0  0  0  0  0  0
   59.3650   30.4540   49.0340 C   0  0  0  0  0  0  0  0  0  0  0  0
   59.5570   29.9270   50.1640 O   0  0  0  0  0  0  0  0  0  0  0  0
   59.1940   31.8710   48.9310 N   0  0  0  0  0  0  0  0  0  0  0  0
   59.9760   32.7100   48.0230 C   0  0  2  0  0  0  0  0  0  0  0  0
   60.7455   32.0671   47.5707 H   0  0  0  0  0  0  0  0  0  0  0  0
   60.6440   33.8290   48.7780 C   0  0  0  0  0  0  0  0  0  0  0  0
   59.9260   34.7280   49.2950 O   0  0  0  0  0  0  0  0  0  0  0  0
   62.0630   33.8460   49.0090 N   0  0  0  0  0  0  0  0  0  0  0  0
   62.5460   34.0330   50.3790 C   0  0  0  0  0  0  0  0  0  0  0  0
   61.7623   33.7296   51.0887 H   0  0  0  0  0  0  0  0  0  0  0  0
   63.4435   33.4174   50.5386 H   0  0  0  0  0  0  0  0  0  0  0  0
   62.7950   35.0925   50.5386 H   0  0  0  0  0  0  0  0  0  0  0  0
   62.9970   33.8420   47.8820 C   0  0  0  0  0  0  0  0  0  0  0  0
   64.0295   33.8376   48.2615 H   0  0  0  0  0  0  0  0  0  0  0  0
   62.8279   32.9446   47.2688 H   0  0  0  0  0  0  0  0  0  0  0  0
   62.8356   34.7408   47.2688 H   0  0  0  0  0  0  0  0  0  0  0  0
   59.1280   33.2770   46.9020 C   0  0  0  0  0  0  0  0  0  0  0  0
   57.8190   32.7990   46.7200 C   0  0  0  0  0  0  0  0  0  0  0  0
   57.4125   32.0461   47.4113 H   0  0  0  0  0  0  0  0  0  0  0  0
   57.0290   33.2720   45.6680 C   0  0  0  0  0  0  0  0  0  0  0  0
   56.0029   32.8969   45.5397 H   0  0  0  0  0  0  0  0  0  0  0  0
   57.5410   34.2200   44.7800 C   0  0  0  0  0  0  0  0  0  0  0  0
   56.9169   34.5950   43.9555 H   0  0  0  0  0  0  0  0  0  0  0  0
   58.8460   34.6920   44.9390 C   0  0  0  0  0  0  0  0  0  0  0  0
   59.2499   35.4355   44.2361 H   0  0  0  0  0  0  0  0  0  0  0  0
   59.6400   34.2220   45.9890 C   0  0  0  0  0  0  0  0  0  0  0  0
   60.6698   34.5912   46.1038 H   0  0  0  0  0  0  0  0  0  0  0  0
   60.3350   29.6040   46.8540 N   0  0  0  0  0  0  0  0  0  0  0  0
   61.4910   30.5030   46.7610 C   0  0  0  0  0  0  0  0  0  0  0  0
   61.8317   30.7680   47.7728 H   0  0  0  0  0  0  0  0  0  0  0  0
   62.3053   29.9985   46.2203 H   0  0  0  0  0  0  0  0  0  0  0  0
   61.2026   31.4165   46.2203 H   0  0  0  0  0  0  0  0  0  0  0  0
   60.0060   28.6100   45.9860 C   0  0  0  0  0  0  0  0  0  0  0  0
   60.7550   28.2590   44.9250 C   0  0  0  0  0  0  0  0  0  0  0  0
   61.6809   28.8085   44.6994 H   0  0  0  0  0  0  0  0  0  0  0  0
   60.4416   27.4225   44.2831 H   0  0  0  0  0  0  0  0  0  0  0  0
  1  2  1  0
  2  3  1  0
  3  4  1  0
  4  5  1  0
  5  6  2  0
  5  7  1  0
  7  8  1  0
  8  9  1  0
  9 10  1  0
  9 11  2  0
 11 12  1  0
 12 13  1  0
 12 14  2  0
 14 15  1  0
 15 16  2  0
 15 17  1  0
 17 18  1  0
 18 19  1  6
 18 20  1  0
 20 21  2  0
 20 22  1  0
 22 23  1  0
 23 24  1  0
 23 25  1  0
 23 26  1  0
 22 27  1  0
 27 28  1  0
 27 29  1  0
 27 30  1  0
 18 31  1  0
 31 32  2  0
 32 33  1  0
 32 34  1  0
 34 35  1  0
 34 36  2  0
 36 37  1  0
 36 38  1  0
 38 39  1  0
 38 40  2  0
 40 41  1  0
 14 42  1  0
 42 43  1  0
 43 44  1  0
 43 45  1  0
 43 46  1  0
 42 47  1  0
 47 48  2  0
 48 49  1  0
 48 50  1  0
  8  3  2  0
 47 11  1  0
 40 31  1  0
M  CHG  3   4  -1   7  -1  17  -1
M  END
>  <UniqueID>  (5) 
5

>  <SMILES>  (5) 
C=c1/c(=C/c2[n-]c(=O)[n-]c2O)cc(C(=O)[N-][C@H](C(=O)N(C)C)c2ccccc2)n1C

>  <Energy>  (5) 
116.59837742404295

>  <Genealogy>  (5) 
C=c1c(=Cc2[n-]c(=O)[n-]c2O)cc(C(=O)[N-]C(C(=O)N(C)C)c2ccccc2)n1C (protonated)
C=c1c(=Cc2[n-]c(=O)[n-]c2O)cc(C(=O)[N-][C@H](C(=O)N(C)C)c2ccccc2)n1C (chirality)
C=c1/c(=C/c2[n-]c(=O)[n-]c2O)cc(C(=O)[N-][C@H](C(=O)N(C)C)c2ccccc2)n1C (cis-trans isomerization)
C=c1/c(=C/c2[n-]c(=O)[n-]c2O)cc(C(=O)[N-][C@H](C(=O)N(C)C)c2ccccc2)n1C (3D coordinates assigned)
C=c1/c(=C/c2[n-]c(=O)[n-]c2O)cc(C(=O)[N-][C@H](C(=O)N(C)C)c2ccccc2)n1C (optimized conformer: 116.59837742404295 kcal/mol)

>  <smiles>  (5) 
C=c1c(=Cc2[nH]c(=O)[nH]c2O)cc(C(=O)NC(C(=O)N(C)C)c2ccccc2)n1C

>  <score_type>  (5) 
oracle

>  <origin>  (5) 
adg

>  <m_score__min__energy>  (5) 
-14.01

>  <m_primary>  (5) 
energy

$$$$
5:0
     RDKit          3D

 42 44  0  0  0  0  0  0  0  0999 V2000
   61.3389   29.7314   49.4097 H   0  0  0  0  0  0  0  0  0  0  0  0
   60.7200   28.8680   49.1240 C   0  0  0  0  0  0  0  0  0  0  0  0
   60.6986   27.9717   49.7613 H   0  0  0  0  0  0  0  0  0  0  0  0
   59.9950   28.9080   48.0040 C   0  0  0  0  0  0  0  0  0  0  0  0
   59.9030   29.9710   47.1170 C   0  0  0  0  0  0  0  0  0  0  0  0
   60.6430   31.2490   47.1810 C   0  0  0  0  0  0  0  0  0  0  0  0
   61.8980   31.2170   47.2930 O   0  0  0  0  0  0  0  0  0  0  0  0
   59.9620   32.5180   47.0990 N   0  0  0  0  0  0  0  0  0  0  0  0
   60.7290   33.7050   46.7010 C   0  0  0  0  0  0  0  0  0  0  0  0
   61.5713   33.8367   47.3961 H   0  0  0  0  0  0  0  0  0  0  0  0
   61.0914   33.5550   45.6733 H   0  0  0  0  0  0  0  0  0  0  0  0
   59.8570   34.9690   46.7270 C   0  0  0  0  0  0  0  0  0  0  0  0
   59.7448   35.3027   47.7691 H   0  0  0  0  0  0  0  0  0  0  0  0
   60.3521   35.7384   46.1164 H   0  0  0  0  0  0  0  0  0  0  0  0
   58.5170   34.7230   46.1570 N   0  0  0  0  0  0  0  0  0  0  0  0
   58.5720   34.4940   44.7030 C   0  0  0  0  0  0  0  0  0  0  0  0
   58.8248   33.4416   44.5069 H   0  0  0  0  0  0  0  0  0  0  0  0
   57.5928   34.7250   44.2581 H   0  0  0  0  0  0  0  0  0  0  0  0
   59.3395   35.1445   44.2581 H   0  0  0  0  0  0  0  0  0  0  0  0
   57.7610   33.6560   46.8610 C   0  0  0  0  0  0  0  0  0  0  0  0
   57.0345   34.1360   47.5332 H   0  0  0  0  0  0  0  0  0  0  0  0
   57.2857   33.0429   46.0812 H   0  0  0  0  0  0  0  0  0  0  0  0
   58.6350   32.6990   47.7000 C   0  0  0  0  0  0  0  0  0  0  0  0
   58.7540   33.1167   48.7106 H   0  0  0  0  0  0  0  0  0  0  0  0
   58.1363   31.7193   47.7381 H   0  0  0  0  0  0  0  0  0  0  0  0
   59.0360   29.5670   46.1070 C   0  0  0  0  0  0  0  0  0  0  0  0
   58.8210   30.3120   44.8180 C   0  0  0  0  0  0  0  0  0  0  0  0
   58.5222   31.3474   45.0384 H   0  0  0  0  0  0  0  0  0  0  0  0
   59.7547   30.3157   44.2365 H   0  0  0  0  0  0  0  0  0  0  0  0
   58.0289   29.8176   44.2365 H   0  0  0  0  0  0  0  0  0  0  0  0
   58.6030   28.2800   46.4530 C   0  0  0  0  0  0  0  0  0  0  0  0
   57.7450   27.4670   45.8070 C   0  0  0  0  0  0  0  0  0  0  0  0
   57.4377   27.7682   44.7947 H   0  0  0  0  0  0  0  0  0  0  0  0
   57.1810   26.2130   46.3310 C   0  0  0  0  0  0  0  0  0  0  0  0
   57.9030   25.1380   46.6980 N   0  0  0  0  0  0  0  0  0  0  0  0
   56.9620   24.2090   46.9730 C   0  0  0  0  0  0  0  0  0  0  0  0
   57.2500   23.0510   47.3710 O   0  0  0  0  0  0  0  0  0  0  0  0
   55.6890   24.6140   46.7760 N   0  0  0  0  0  0  0  0  0  0  0  0
   55.8480   25.8810   46.3560 C   0  0  0  0  0  0  0  0  0  0  0  0
   54.7960   26.7140   45.9980 O   0  0  0  0  0  0  0  0  0  0  0  0
   59.2160   27.8900   47.5930 N   0  0  0  0  0  0  0  0  0  0  0  0
   59.0920   26.9740   48.0820 H   0  0  0  0  0  0  0  0  0  0  0  0
  1  2  1  0
  2  3  1  0
  2  4  2  0
  4  5  1  0
  5  6  1  0
  6  7  2  0
  6  8  1  0
  8  9  1  0
  9 10  1  0
  9 11  1  0
  9 12  1  0
 12 13  1  0
 12 14  1  0
 12 15  1  0
 15 16  1  0
 16 17  1  0
 16 18  1  0
 16 19  1  0
 15 20  1  0
 20 21  1  0
 20 22  1  0
 20 23  1  0
 23 24  1  0
 23 25  1  0
  5 26  2  0
 26 27  1  0
 27 28  1  0
 27 29  1  0
 27 30  1  0
 26 31  1  0
 31 32  2  0
 32 33  1  0
 32 34  1  0
 34 35  1  0
 35 36  1  0
 36 37  2  0
 36 38  1  0
 38 39  1  0
 39 40  1  0
 31 41  1  0
 41 42  1  0
 41  4  1  0
 23  8  1  0
 39 34  2  0
M  CHG  3  35  -1  38  -1  40  -1
M  END
>  <UniqueID>  (6) 
6

>  <SMILES>  (6) 
C=c1[nH]/c(=C/c2[n-]c(=O)[n-]c2[O-])c(C)c1C(=O)N1CCN(C)CC1

>  <Energy>  (6) 
119.75333468108172

>  <Genealogy>  (6) 
C=c1[nH]c(=Cc2[n-]c(=O)[n-]c2[O-])c(C)c1C(=O)N1CCN(C)CC1 (protonated)
C=c1[nH]/c(=C/c2[n-]c(=O)[n-]c2[O-])c(C)c1C(=O)N1CCN(C)CC1 (cis-trans isomerization)
C=c1[nH]/c(=C/c2[n-]c(=O)[n-]c2[O-])c(C)c1C(=O)N1CCN(C)CC1 (3D coordinates assigned)
C=c1[nH]/c(=C/c2[n-]c(=O)[n-]c2[O-])c(C)c1C(=O)N1CCN(C)CC1 (nonaromatic ring conformer: 119.75333468108172 kcal/mol)

>  <smiles>  (6) 
C=c1[nH]c(=Cc2[nH]c(=O)[nH]c2O)c(C)c1C(=O)N1CCN(C)CC1

>  <score_type>  (6) 
oracle

>  <origin>  (6) 
adg

>  <m_score__min__energy>  (6) 
-15.75

>  <m_primary>  (6) 
energy

$$$$
6:0
     RDKit          3D

 66 70  0  0  0  0  0  0  0  0999 V2000
   65.2320   37.6900   54.1950 C   0  0  0  0  0  0  0  0  0  0  0  0
   66.2040   36.6640   53.6900 C   0  0  0  0  0  0  0  0  0  0  0  0
   67.4180   36.7820   54.0140 O   0  0  0  0  0  0  0  0  0  0  0  0
   65.7830   35.5620   52.8530 N   0  0  0  0  0  0  0  0  0  0  0  0
   64.5510   35.6660   52.0460 C   0  0  0  0  0  0  0  0  0  0  0  0
   63.9170   34.2880   51.8360 C   0  0  0  0  0  0  0  0  0  0  0  0
   64.9420   33.3420   51.3900 N   0  0  0  0  0  0  0  0  0  0  0  0
   65.0500   32.9870   49.9970 C   0  0  0  0  0  0  0  0  0  0  0  0
   66.1760   33.0390   49.4280 O   0  0  0  0  0  0  0  0  0  0  0  0
   63.8650   32.5670   49.2150 C   0  0  0  0  0  0  0  0  0  0  0  0
   63.6770   33.0160   47.8960 C   0  0  0  0  0  0  0  0  0  0  0  0
   62.5630   32.6020   47.1600 C   0  0  0  0  0  0  0  0  0  0  0  0
   61.6090   31.7500   47.7310 C   0  0  0  0  0  0  0  0  0  0  0  0
   60.5070   31.3100   46.9240 N   0  0  0  0  0  0  0  0  0  0  0  0
   59.3610   30.5720   47.3730 C   0  0  0  0  0  0  0  0  0  0  0  0
   58.4540   31.1520   48.0290 O   0  0  0  0  0  0  0  0  0  0  0  0
   59.2260   29.1360   47.0370 C   0  0  0  0  0  0  0  0  0  0  0  0
   60.3750   28.3040   46.9490 C   0  0  0  0  0  0  0  0  0  0  0  0
   60.2520   26.9310   46.6690 C   0  0  0  0  0  0  0  0  0  0  0  0
   58.9760   26.4130   46.4740 C   0  0  0  0  0  0  0  0  0  0  0  0
   57.8570   27.2090   46.5480 C   0  0  0  0  0  0  0  0  0  0  0  0
   57.9440   28.5710   46.8290 C   0  0  0  0  0  0  0  0  0  0  0  0
   56.6930   26.3560   46.3330 C   0  0  0  0  0  0  0  0  0  0  0  0
   55.4920   26.7360   46.3640 O   0  0  0  0  0  0  0  0  0  0  0  0
   57.1070   25.0070   46.1000 N   0  0  0  0  0  0  0  0  0  0  0  0
   56.2700   23.8120   46.2050 C   0  0  0  0  0  0  0  0  0  0  0  0
   56.4060   22.9640   44.9600 C   0  0  0  0  0  0  0  0  0  0  0  0
   55.7620   23.4050   43.7910 C   0  0  0  0  0  0  0  0  0  0  0  0
   55.8490   22.6700   42.6080 C   0  0  0  0  0  0  0  0  0  0  0  0
   56.5810   21.4850   42.5750 C   0  0  0  0  0  0  0  0  0  0  0  0
   57.2310   21.0300   43.7240 C   0  0  0  0  0  0  0  0  0  0  0  0
   57.1500   21.7550   44.9280 C   0  0  0  0  0  0  0  0  0  0  0  0
   57.8830   21.2360   46.1380 C   0  0  0  0  0  0  0  0  0  0  0  0
   58.5320   25.0490   46.2160 C   0  0  0  0  0  0  0  0  0  0  0  0
   59.2810   24.0400   46.1290 O   0  0  0  0  0  0  0  0  0  0  0  0
   61.7960   31.2960   49.0480 C   0  0  0  0  0  0  0  0  0  0  0  0
   62.9080   31.7110   49.7860 C   0  0  0  0  0  0  0  0  0  0  0  0
   66.0870   33.1780   52.2840 C   0  0  0  0  0  0  0  0  0  0  0  0
   66.7700   34.5320   52.4830 C   0  0  0  0  0  0  0  0  0  0  0  0
   65.2345   37.6873   55.2950 H   0  0  0  0  0  0  0  0  0  0  0  0
   65.5265   38.6850   53.8301 H   0  0  0  0  0  0  0  0  0  0  0  0
   64.2225   37.4496   53.8301 H   0  0  0  0  0  0  0  0  0  0  0  0
   63.8333   36.3170   52.5667 H   0  0  0  0  0  0  0  0  0  0  0  0
   64.8093   36.0873   51.0633 H   0  0  0  0  0  0  0  0  0  0  0  0
   63.4810   33.9368   52.7829 H   0  0  0  0  0  0  0  0  0  0  0  0
   63.1276   34.3599   51.0733 H   0  0  0  0  0  0  0  0  0  0  0  0
   64.4109   33.6971   47.4405 H   0  0  0  0  0  0  0  0  0  0  0  0
   62.4345   32.9482   46.1238 H   0  0  0  0  0  0  0  0  0  0  0  0
   61.3735   28.7395   47.1019 H   0  0  0  0  0  0  0  0  0  0  0  0
   61.1401   26.2850   46.6060 H   0  0  0  0  0  0  0  0  0  0  0  0
   57.0384   29.1927   46.8879 H   0  0  0  0  0  0  0  0  0  0  0  0
   56.5846   23.2245   47.0802 H   0  0  0  0  0  0  0  0  0  0  0  0
   55.2197   24.1197   46.3150 H   0  0  0  0  0  0  0  0  0  0  0  0
   55.1829   24.3401   43.8089 H   0  0  0  0  0  0  0  0  0  0  0  0
   55.3392   23.0265   41.7008 H   0  0  0  0  0  0  0  0  0  0  0  0
   56.6470   20.9066   41.6417 H   0  0  0  0  0  0  0  0  0  0  0  0
   57.8117   20.0965   43.6880 H   0  0  0  0  0  0  0  0  0  0  0  0
   57.3817   21.5909   47.0505 H   0  0  0  0  0  0  0  0  0  0  0  0
   57.8822   20.1361   46.1234 H   0  0  0  0  0  0  0  0  0  0  0  0
   58.9202   21.6021   46.1234 H   0  0  0  0  0  0  0  0  0  0  0  0
   61.0637   30.6108   49.5000 H   0  0  0  0  0  0  0  0  0  0  0  0
   63.0351   31.3647   50.8223 H   0  0  0  0  0  0  0  0  0  0  0  0
   65.7427   32.7936   53.2555 H   0  0  0  0  0  0  0  0  0  0  0  0
   66.8004   32.4664   51.8428 H   0  0  0  0  0  0  0  0  0  0  0  0
   67.5189   34.4448   53.2840 H   0  0  0  0  0  0  0  0  0  0  0  0
   67.2536   34.8270   51.5401 H   0  0  0  0  0  0  0  0  0  0  0  0
  1  2  1  0
  2  3  2  0
  2  4  1  0
  4  5  1  0
  5  6  1  0
  6  7  1  0
  7  8  1  0
  8  9  2  0
  8 10  1  0
 10 11  2  0
 11 12  1  0
 12 13  2  0
 13 14  1  0
 14 15  1  0
 15 16  2  0
 15 17  1  0
 17 18  2  0
 18 19  1  0
 19 20  2  0
 20 21  1  0
 21 22  2  0
 21 23  1  0
 23 24  2  0
 23 25  1  0
 25 26  1  0
 26 27  1  0
 27 28  2  0
 28 29  1  0
 29 30  2  0
 30 31  1  0
 31 32  2  0
 32 33  1  0
 25 34  1  0
 34 35  2  0
 13 36  1  0
 36 37  2  0
  7 38  1  0
 38 39  1  0
 39  4  1  0
 37 10  1  0
 22 17  1  0
 32 27  1  0
 34 20  1  0
  1 40  1  0
  1 41  1  0
  1 42  1  0
  5 43  1  0
  5 44  1  0
  6 45  1  0
  6 46  1  0
 11 47  1  0
 12 48  1  0
 18 49  1  0
 19 50  1  0
 22 51  1  0
 26 52  1  0
 26 53  1  0
 28 54  1  0
 29 55  1  0
 30 56  1  0
 31 57  1  0
 33 58  1  0
 33 59  1  0
 33 60  1  0
 36 61  1  0
 37 62  1  0
 38 63  1  0
 38 64  1  0
 39 65  1  0
 39 66  1  0
M  CHG  1  14  -1
M  END
>  <UniqueID>  (7) 
7

>  <SMILES>  (7) 
CC(=O)N1CCN(C(=O)c2ccc([N-]C(=O)c3ccc4c(c3)C(=O)N(Cc3ccccc3C)C4=O)cc2)CC1

>  <Energy>  (7) 
113.27212924066824

>  <Genealogy>  (7) 
CC(=O)N1CCN(C(=O)c2ccc([N-]C(=O)c3ccc4c(c3)C(=O)N(Cc3ccccc3C)C4=O)cc2)CC1 (protonated)
CC(=O)N1CCN(C(=O)c2ccc([N-]C(=O)c3ccc4c(c3)C(=O)N(Cc3ccccc3C)C4=O)cc2)CC1 (3D coordinates assigned)
CC(=O)N1CCN(C(=O)c2ccc([N-]C(=O)c3ccc4c(c3)C(=O)N(Cc3ccccc3C)C4=O)cc2)CC1 (nonaromatic ring conformer: 113.27212924066824 kcal/mol)

>  <smiles>  (7) 
CC(=O)N1CCN(C(=O)c2ccc(NC(=O)c3ccc4c(c3)C(=O)N(Cc3ccccc3C)C4=O)cc2)CC1

>  <score_type>  (7) 
oracle

>  <origin>  (7) 
adg

>  <m_score__min__energy>  (7) 
-11.49

>  <m_primary>  (7) 
energy

$$$$
7:0
     RDKit          3D

 32 34  0  0  0  0  0  0  0  0999 V2000
   60.4170   29.1500   48.5550 C   0  0  0  0  0  0  0  0  0  0  0  0
   59.5340   28.5800   47.7290 C   0  0  0  0  0  0  0  0  0  0  0  0
   59.0510   29.3080   46.7280 O   0  0  0  0  0  0  0  0  0  0  0  0
   58.1770   28.8450   45.8430 C   0  0  0  0  0  0  0  0  0  0  0  0
   57.7220   29.7400   44.7550 C   0  0  0  0  0  0  0  0  0  0  0  0
   58.6460   30.6260   44.1740 C   0  0  0  0  0  0  0  0  0  0  0  0
   58.2560   31.4850   43.1430 C   0  0  0  0  0  0  0  0  0  0  0  0
   56.9350   31.4780   42.6890 C   0  0  0  0  0  0  0  0  0  0  0  0
   56.0010   30.6210   43.2730 C   0  0  0  0  0  0  0  0  0  0  0  0
   56.3820   29.7610   44.3090 C   0  0  0  0  0  0  0  0  0  0  0  0
   55.4150   28.9560   44.9040 O   0  0  0  0  0  0  0  0  0  0  0  0
   57.7260   27.5220   45.9380 C   0  0  0  0  0  0  0  0  0  0  0  0
   58.1620   26.7010   46.9920 C   0  0  0  0  0  0  0  0  0  0  0  0
   57.6720   25.4400   47.0600 C   0  0  0  0  0  0  0  0  0  0  0  0
   56.6290   24.8560   46.1920 C   0  0  0  0  0  0  0  0  0  0  0  0
   56.6400   23.5930   45.7280 N   0  0  0  0  0  0  0  0  0  0  0  0
   55.4410   23.4710   45.1190 C   0  0  0  0  0  0  0  0  0  0  0  0
   55.0800   22.4150   44.5380 O   0  0  0  0  0  0  0  0  0  0  0  0
   54.6560   24.5670   45.1890 N   0  0  0  0  0  0  0  0  0  0  0  0
   55.4160   25.4310   45.8830 C   0  0  0  0  0  0  0  0  0  0  0  0
   54.9990   26.7160   46.2230 O   0  0  0  0  0  0  0  0  0  0  0  0
   59.1200   27.2380   47.8920 C   0  0  0  0  0  0  0  0  0  0  0  0
   59.6390   26.5300   48.7980 O   0  0  0  0  0  0  0  0  0  0  0  0
   60.8362   28.5749   49.3938 H   0  0  0  0  0  0  0  0  0  0  0  0
   60.7244   30.1941   48.3959 H   0  0  0  0  0  0  0  0  0  0  0  0
   59.6852   30.6433   44.5341 H   0  0  0  0  0  0  0  0  0  0  0  0
   58.9897   32.1671   42.6887 H   0  0  0  0  0  0  0  0  0  0  0  0
   56.6309   32.1479   41.8712 H   0  0  0  0  0  0  0  0  0  0  0  0
   54.9602   30.6216   42.9171 H   0  0  0  0  0  0  0  0  0  0  0  0
   57.0288   27.1248   45.1856 H   0  0  0  0  0  0  0  0  0  0  0  0
   58.0922   24.7862   47.8385 H   0  0  0  0  0  0  0  0  0  0  0  0
   55.1400   27.4990   45.5960 H   0  0  0  0  0  0  0  0  0  0  0  0
  1  2  2  0
  2  3  1  0
  3  4  1  0
  4  5  1  0
  5  6  2  0
  6  7  1  0
  7  8  2  0
  8  9  1  0
  9 10  2  0
 10 11  1  0
  4 12  2  0
 12 13  1  0
 13 14  2  3
 14 15  1  0
 15 16  1  0
 16 17  1  0
 17 18  2  0
 17 19  1  0
 19 20  1  0
 20 21  1  0
 13 22  1  0
 22 23  2  0
 22  2  1  0
 10  5  1  0
 20 15  2  0
  1 24  1  0
  1 25  1  0
  6 26  1  0
  7 27  1  0
  8 28  1  0
  9 29  1  0
 12 30  1  0
 14 31  1  0
 21 32  1  0
M  CHG  3  11  -1  16  -1  19  -1
M  END
>  <UniqueID>  (8) 
8

>  <SMILES>  (8) 
C=c1oc(-c2ccccc2[O-])cc(=Cc2[n-]c(=O)[n-]c2O)c1=O

>  <Energy>  (8) 
83.9975451231361

>  <Genealogy>  (8) 
C=c1oc(-c2ccccc2[O-])cc(=Cc2[n-]c(=O)[n-]c2O)c1=O (protonated)
C=c1oc(-c2ccccc2[O-])cc(=Cc2[n-]c(=O)[n-]c2O)c1=O (3D coordinates assigned)
C=c1oc(-c2ccccc2[O-])cc(=Cc2[n-]c(=O)[n-]c2O)c1=O (optimized conformer: 83.9975451231361 kcal/mol)

>  <smiles>  (8) 
C=c1oc(-c2ccccc2O)cc(=Cc2[nH]c(=O)[nH]c2O)c1=O

>  <score_type>  (8) 
oracle

>  <origin>  (8) 
adg

>  <m_score__min__energy>  (8) 
-14.92

>  <m_primary>  (8) 
energy

$$$$
8:0
     RDKit          3D

 36 37  0  0  0  0  0  0  0  0999 V2000
   63.6145   33.0709   50.1265 H   0  0  0  0  0  0  0  0  0  0  0  0
   62.6680   33.1810   49.5770 C   0  0  0  0  0  0  0  0  0  0  0  0
   62.6750   33.9360   48.4630 C   0  0  0  0  0  0  0  0  0  0  0  0
   62.3352   34.9787   48.5491 H   0  0  0  0  0  0  0  0  0  0  0  0
   63.1160   33.4520   47.1060 C   0  0  0  0  0  0  0  0  0  0  0  0
   64.0376   33.9789   46.8177 H   0  0  0  0  0  0  0  0  0  0  0  0
   62.3136   33.6570   46.3820 H   0  0  0  0  0  0  0  0  0  0  0  0
   63.3840   31.9510   47.1240 C   0  0  0  0  0  0  0  0  0  0  0  0
   63.4463   31.6021   48.1653 H   0  0  0  0  0  0  0  0  0  0  0  0
   62.5654   31.4262   46.6098 H   0  0  0  0  0  0  0  0  0  0  0  0
   64.3337   31.7419   46.6098 H   0  0  0  0  0  0  0  0  0  0  0  0
   61.4540   32.4760   50.1240 C   0  0  0  0  0  0  0  0  0  0  0  0
   61.5650   31.3927   49.9685 H   0  0  0  0  0  0  0  0  0  0  0  0
   61.3683   32.7008   51.1974 H   0  0  0  0  0  0  0  0  0  0  0  0
   60.2120   32.9470   49.4330 C   0  0  0  0  0  0  0  0  0  0  0  0
   59.5240   33.8670   49.9500 O   0  0  0  0  0  0  0  0  0  0  0  0
   59.8590   32.3830   48.2000 O   0  0  0  0  0  0  0  0  0  0  0  0
   59.4520   33.0990   47.0660 C   0  0  0  0  0  0  0  0  0  0  0  0
   59.7920   34.4570   46.8430 C   0  0  0  0  0  0  0  0  0  0  0  0
   60.4140   34.9917   47.5759 H   0  0  0  0  0  0  0  0  0  0  0  0
   59.3380   35.1280   45.6870 C   0  0  0  0  0  0  0  0  0  0  0  0
   59.6174   36.1790   45.5218 H   0  0  0  0  0  0  0  0  0  0  0  0
   58.5320   34.4650   44.7450 C   0  0  0  0  0  0  0  0  0  0  0  0
   58.1768   34.9787   43.8395 H   0  0  0  0  0  0  0  0  0  0  0  0
   58.1980   33.1360   44.9960 C   0  0  0  0  0  0  0  0  0  0  0  0
   58.6370   32.4810   46.1170 C   0  0  0  0  0  0  0  0  0  0  0  0
   58.1370   31.1990   46.0660 C   0  0  0  0  0  0  0  0  0  0  0  0
   58.2882   30.3934   46.7996 H   0  0  0  0  0  0  0  0  0  0  0  0
   57.3980   31.1410   44.8850 C   0  0  0  0  0  0  0  0  0  0  0  0
   56.6730   29.9440   44.4100 C   0  0  0  0  0  0  0  0  0  0  0  0
   55.5370   29.6800   44.8870 O   0  0  0  0  0  0  0  0  0  0  0  0
   57.2280   29.0770   43.4190 N   0  0  0  0  0  0  0  0  0  0  0  0
   56.6930   28.2380   43.1040 H   0  0  0  0  0  0  0  0  0  0  0  0
   58.1610   29.2530   42.9890 H   0  0  0  0  0  0  0  0  0  0  0  0
   57.4380   32.3300   44.2340 N   0  0  0  0  0  0  0  0  0  0  0  0
   56.9850   32.5880   43.3310 H   0  0  0  0  0  0  0  0  0  0  0  0
  1  2  1  0
  2  3  2  0
  3  4  1  0
  3  5  1  0
  5  6  1  0
  5  7  1  0
  5  8  1  0
  8  9  1  0
  8 10  1  0
  8 11  1  0
  2 12  1  0
 12 13  1  0
 12 14  1  0
 12 15  1  0
 15 16  2  0
 15 17  1  0
 17 18  1  0
 18 19  2  0
 19 20  1  0
 19 21  1  0
 21 22  1  0
 21 23  2  0
 23 24  1  0
 23 25  1  0
 25 26  2  0
 26 27  1  0
 27 28  1  0
 27 29  2  0
 29 30  1  0
 30 31  2  0
 30 32  1  0
 32 33  1  0
 32 34  1  0
 29 35  1  0
 35 36  1  0
 26 18  1  0
 35 25  1  0
M  END
>  <UniqueID>  (9) 
9

>  <SMILES>  (9) 
CC/C=C\CC(=O)Oc1cccc2[nH]c(C(N)=O)cc12

>  <Energy>  (9) 
65.52169889589074

>  <Genealogy>  (9) 
CC/C=C\CC(=O)Oc1cccc2[nH]c(C(N)=O)cc12 (cis-trans isomerization)
CC/C=C\CC(=O)Oc1cccc2[nH]c(C(N)=O)cc12 (3D coordinates assigned)
CC/C=C\CC(=O)Oc1cccc2[nH]c(C(N)=O)cc12 (optimized conformer: 65.52169889589074 kcal/mol)

>  <smiles>  (9) 
CCC=CCC(=O)Oc1cccc2[nH]c(C(N)=O)cc12

>  <score_type>  (9) 
oracle

>  <origin>  (9) 
adg

>  <m_score__min__energy>  (9) 
-7.0700000000000003

>  <m_primary>  (9) 
energy

$$$$
9:0
     RDKit          3D

 52 55  0  0  0  0  0  0  0  0999 V2000
   54.2440   28.5430   53.4980 C   0  0  0  0  0  0  0  0  0  0  0  0
   53.7460   29.3670   52.3850 C   0  0  0  0  0  0  0  0  0  0  0  0
   52.6630   29.1020   51.6300 N   0  0  0  0  0  0  0  0  0  0  0  0
   52.5510   30.0980   50.7200 C   0  0  0  0  0  0  0  0  0  0  0  0
   51.6750   30.2440   49.8170 O   0  0  0  0  0  0  0  0  0  0  0  0
   53.5570   30.9810   50.9040 N   0  0  0  0  0  0  0  0  0  0  0  0
   54.3080   30.5370   51.9370 C   0  0  0  0  0  0  0  0  0  0  0  0
   55.5080   31.2660   52.4220 C   0  0  0  0  0  0  0  0  0  0  0  0
   56.7440   30.7820   51.7340 C   0  0  0  0  0  0  0  0  0  0  0  0
   57.1900   29.6110   51.8900 O   0  0  0  0  0  0  0  0  0  0  0  0
   57.3950   31.7320   50.8820 N   0  0  0  0  0  0  0  0  0  0  0  0
   58.5770   31.3880   50.1760 C   0  0  0  0  0  0  0  0  0  0  0  0
   59.7810   31.9400   50.5430 C   0  0  0  0  0  0  0  0  0  0  0  0
   60.9080   31.5810   49.8340 C   0  0  0  0  0  0  0  0  0  0  0  0
   60.8320   30.6930   48.7850 C   0  0  0  0  0  0  0  0  0  0  0  0
   59.6190   30.1150   48.3880 C   0  0  0  0  0  0  0  0  0  0  0  0
   59.6580   29.2030   47.2560 C   0  0  0  0  0  0  0  0  0  0  0  0
   58.7140   29.4930   46.1660 C   0  0  0  0  0  0  0  0  0  0  0  0
   57.9810   28.4650   45.6950 N   0  0  0  0  0  0  0  0  0  0  0  0
   57.0940   28.6350   44.7410 N   0  0  0  0  0  0  0  0  0  0  0  0
   56.8290   29.8140   44.1480 C   0  0  0  0  0  0  0  0  0  0  0  0
   55.9920   29.9790   43.2480 O   0  0  0  0  0  0  0  0  0  0  0  0
   57.5470   30.9030   44.5860 C   0  0  0  0  0  0  0  0  0  0  0  0
   58.4930   30.7230   45.6040 C   0  0  0  0  0  0  0  0  0  0  0  0
   59.2420   31.9400   45.9970 C   0  0  0  0  0  0  0  0  0  0  0  0
   58.1490   32.9430   46.3890 C   0  0  0  0  0  0  0  0  0  0  0  0
   57.4390   33.3470   45.1170 C   0  0  0  0  0  0  0  0  0  0  0  0
   57.3960   32.2710   44.0710 C   0  0  0  0  0  0  0  0  0  0  0  0
   58.5180   30.4910   49.1120 C   0  0  0  0  0  0  0  0  0  0  0  0
   53.9624   29.0090   54.4538 H   0  0  0  0  0  0  0  0  0  0  0  0
   53.8023   27.5375   53.4361 H   0  0  0  0  0  0  0  0  0  0  0  0
   55.3396   28.4666   53.4361 H   0  0  0  0  0  0  0  0  0  0  0  0
   51.9960   28.2890   51.6930 H   0  0  0  0  0  0  0  0  0  0  0  0
   53.7360   31.8650   50.3460 H   0  0  0  0  0  0  0  0  0  0  0  0
   55.3818   32.3401   52.2212 H   0  0  0  0  0  0  0  0  0  0  0  0
   55.6148   31.0855   53.5018 H   0  0  0  0  0  0  0  0  0  0  0  0
   57.0070   32.6970   50.7670 H   0  0  0  0  0  0  0  0  0  0  0  0
   59.8440   32.6500   51.3808 H   0  0  0  0  0  0  0  0  0  0  0  0
   61.8821   32.0106   50.1108 H   0  0  0  0  0  0  0  0  0  0  0  0
   61.7515   30.4292   48.2419 H   0  0  0  0  0  0  0  0  0  0  0  0
   60.6748   29.2285   46.8372 H   0  0  0  0  0  0  0  0  0  0  0  0
   59.3617   28.2212   47.6538 H   0  0  0  0  0  0  0  0  0  0  0  0
   56.5320   27.8030   44.3920 H   0  0  0  0  0  0  0  0  0  0  0  0
   59.9049   31.7320   46.8498 H   0  0  0  0  0  0  0  0  0  0  0  0
   59.8896   32.3154   45.1910 H   0  0  0  0  0  0  0  0  0  0  0  0
   57.4382   32.4735   47.0850 H   0  0  0  0  0  0  0  0  0  0  0  0
   58.5843   33.8203   46.8898 H   0  0  0  0  0  0  0  0  0  0  0  0
   56.4050   33.6232   45.3713 H   0  0  0  0  0  0  0  0  0  0  0  0
   58.0089   34.1842   44.6877 H   0  0  0  0  0  0  0  0  0  0  0  0
   56.4280   32.3364   43.5527 H   0  0  0  0  0  0  0  0  0  0  0  0
   58.2563   32.4488   43.4090 H   0  0  0  0  0  0  0  0  0  0  0  0
   57.5413   30.0642   48.8400 H   0  0  0  0  0  0  0  0  0  0  0  0
  1  2  1  0
  2  3  1  0
  3  4  1  0
  4  5  2  0
  4  6  1  0
  6  7  1  0
  7  8  1  0
  8  9  1  0
  9 10  2  0
  9 11  1  0
 11 12  1  0
 12 13  2  0
 13 14  1  0
 14 15  2  0
 15 16  1  0
 16 17  1  0
 17 18  1  0
 18 19  2  0
 19 20  1  0
 20 21  1  0
 21 22  2  0
 21 23  1  0
 23 24  2  0
 24 25  1  0
 25 26  1  0
 26 27  1  0
 27 28  1  0
 16 29  2  0
  7  2  2  0
 29 12  1  0
 24 18  1  0
 28 23  1  0
  1 30  1  0
  1 31  1  0
  1 32  1  0
  3 33  1  0
  6 34  1  0
  8 35  1  0
  8 36  1  0
 11 37  1  0
 13 38  1  0
 14 39  1  0
 15 40  1  0
 17 41  1  0
 17 42  1  0
 20 43  1  0
 25 44  1  0
 25 45  1  0
 26 46  1  0
 26 47  1  0
 27 48  1  0
 27 49  1  0
 28 50  1  0
 28 51  1  0
 29 52  1  0
M  END
>  <smiles>  (10) 
Cc1[nH]c(=O)[nH]c1CC(=O)Nc1cccc(Cc2n[nH]c(=O)c3c2CCCC3)c1

>  <score_type>  (10) 
oracle

>  <origin>  (10) 
adg

>  <m_score__min__energy>  (10) 
-10.210000000000001

>  <m_primary>  (10) 
energy

$$$$
11:0
     RDKit          3D

 37 39  0  0  0  0  0  0  0  0999 V2000
   58.8510   30.0680   47.7130 C   0  0  0  0  0  0  0  0  0  0  0  0
   58.5960   30.2430   46.4060 C   0  0  0  0  0  0  0  0  0  0  0  0
   58.3930   29.2340   45.4540 C   0  0  0  0  0  0  0  0  0  0  0  0
   58.4380   27.9000   45.6660 C   0  0  0  0  0  0  0  0  0  0  0  0
   57.2680   27.0180   45.8730 C   0  0  0  0  0  0  0  0  0  0  0  0
   57.2960   25.7730   46.3830 N   0  0  0  0  0  0  0  0  0  0  0  0
   55.9960   25.4120   46.4080 C   0  0  0  0  0  0  0  0  0  0  0  0
   55.6120   24.2880   46.8250 O   0  0  0  0  0  0  0  0  0  0  0  0
   55.1390   26.3510   45.9560 N   0  0  0  0  0  0  0  0  0  0  0  0
   55.9600   27.3600   45.6260 C   0  0  0  0  0  0  0  0  0  0  0  0
   55.5200   28.5730   45.1100 O   0  0  0  0  0  0  0  0  0  0  0  0
   58.1070   29.8860   44.2590 C   0  0  0  0  0  0  0  0  0  0  0  0
   58.1610   31.2410   44.5210 C   0  0  0  0  0  0  0  0  0  0  0  0
   57.8910   32.3180   43.5160 C   0  0  0  0  0  0  0  0  0  0  0  0
   58.4620   31.4580   45.8190 N   0  0  0  0  0  0  0  0  0  0  0  0
   58.5800   32.7510   46.4400 C   0  0  0  0  0  0  0  0  0  0  0  0
   57.6670   33.6020   46.2610 O   0  0  0  0  0  0  0  0  0  0  0  0
   59.7660   33.1040   47.2590 C   0  0  0  0  0  0  0  0  0  0  0  0
   59.6060   33.6880   48.5270 C   0  0  0  0  0  0  0  0  0  0  0  0
   60.7210   34.0240   49.3000 C   0  0  0  0  0  0  0  0  0  0  0  0
   62.0170   33.7880   48.8150 C   0  0  0  0  0  0  0  0  0  0  0  0
   63.2060   34.1350   49.6150 C   0  0  0  0  0  0  0  0  0  0  0  0
   63.1050   34.8280   50.6630 O   0  0  0  0  0  0  0  0  0  0  0  0
   62.1800   33.2130   47.5470 C   0  0  0  0  0  0  0  0  0  0  0  0
   61.0650   32.8760   46.7730 C   0  0  0  0  0  0  0  0  0  0  0  0
   58.9932   30.9407   48.3673 H   0  0  0  0  0  0  0  0  0  0  0  0
   58.9176   29.0519   48.1292 H   0  0  0  0  0  0  0  0  0  0  0  0
   59.4316   27.4285   45.6865 H   0  0  0  0  0  0  0  0  0  0  0  0
   57.8813   29.4134   43.2917 H   0  0  0  0  0  0  0  0  0  0  0  0
   57.6557   33.2568   44.0388 H   0  0  0  0  0  0  0  0  0  0  0  0
   58.7807   32.4626   42.8855 H   0  0  0  0  0  0  0  0  0  0  0  0
   57.0383   32.0258   42.8855 H   0  0  0  0  0  0  0  0  0  0  0  0
   58.5950   33.8823   48.9144 H   0  0  0  0  0  0  0  0  0  0  0  0
   60.5822   34.4756   50.2934 H   0  0  0  0  0  0  0  0  0  0  0  0
   64.1970   33.7835   49.2921 H   0  0  0  0  0  0  0  0  0  0  0  0
   63.1918   33.0256   47.1581 H   0  0  0  0  0  0  0  0  0  0  0  0
   61.2055   32.4296   45.7775 H   0  0  0  0  0  0  0  0  0  0  0  0
  1  2  2  0
  2  3  1  0
  3  4  2  3
  4  5  1  0
  5  6  1  0
  6  7  1  0
  7  8  2  0
  7  9  1  0
  9 10  1  0
 10 11  1  0
  3 12  1  0
 12 13  2  0
 13 14  1  0
 13 15  1  0
 15 16  1  0
 16 17  2  0
 16 18  1  0
 18 19  2  0
 19 20  1  0
 20 21  2  0
 21 22  1  0
 22 23  2  0
 21 24  1  0
 24 25  2  0
 15  2  1  0
 25 18  1  0
 10  5  2  0
  1 26  1  0
  1 27  1  0
  4 28  1  0
 12 29  1  0
 14 30  1  0
 14 31  1  0
 14 32  1  0
 19 33  1  0
 20 34  1  0
 22 35  1  0
 24 36  1  0
 25 37  1  0
M  CHG  3   6  -1   9  -1  11  -1
M  END
>  <UniqueID>  (11) 
10

>  <SMILES>  (11) 
C=c1c(=Cc2[n-]c(=O)[n-]c2[O-])cc(C)n1C(=O)c1ccc(C=O)cc1

>  <Energy>  (11) 
108.25195784770357

>  <Genealogy>  (11) 
C=c1c(=Cc2[n-]c(=O)[n-]c2[O-])cc(C)n1C(=O)c1ccc(C=O)cc1 (protonated)
C=c1c(=Cc2[n-]c(=O)[n-]c2[O-])cc(C)n1C(=O)c1ccc(C=O)cc1 (3D coordinates assigned)
C=c1c(=Cc2[n-]c(=O)[n-]c2[O-])cc(C)n1C(=O)c1ccc(C=O)cc1 (optimized conformer: 108.25195784770357 kcal/mol)

>  <smiles>  (11) 
C=c1c(=Cc2[nH]c(=O)[nH]c2O)cc(C)n1C(=O)c1ccc(C=O)cc1

>  <score_type>  (11) 
oracle

>  <origin>  (11) 
adg

>  <m_score__min__energy>  (11) 
-15.83

>  <m_primary>  (11) 
energy

$$$$
12:0
     RDKit          3D

 34 36  0  0  0  0  0  0  0  0999 V2000
   60.3110   26.1170   46.0220 C   0  0  0  0  0  0  0  0  0  0  0  0
   59.2440   26.8850   45.7850 C   0  0  0  0  0  0  0  0  0  0  0  0
   59.2730   28.0800   45.0880 C   0  0  0  0  0  0  0  0  0  0  0  0
   57.9700   28.5440   45.0640 C   0  0  0  0  0  0  0  0  0  0  0  0
   57.5340   29.8180   44.4570 C   0  0  0  0  0  0  0  0  0  0  0  0
   56.6870   29.7880   43.5210 O   0  0  0  0  0  0  0  0  0  0  0  0
   58.0630   31.1260   44.9070 C   0  0  0  0  0  0  0  0  0  0  0  0
   58.8090   31.2350   46.0960 C   0  0  0  0  0  0  0  0  0  0  0  0
   59.2940   32.4770   46.5140 C   0  0  0  0  0  0  0  0  0  0  0  0
   59.0290   33.6240   45.7610 C   0  0  0  0  0  0  0  0  0  0  0  0
   59.6930   35.3210   46.3360 Br  0  0  0  0  0  0  0  0  0  0  0  0
   58.2720   33.5290   44.5890 C   0  0  0  0  0  0  0  0  0  0  0  0
   57.7870   32.2880   44.1670 C   0  0  0  0  0  0  0  0  0  0  0  0
   57.1550   27.6960   45.7260 N   0  0  0  0  0  0  0  0  0  0  0  0
   57.9180   26.6690   46.1630 C   0  0  0  0  0  0  0  0  0  0  0  0
   57.4490   25.6310   46.8830 C   0  0  0  0  0  0  0  0  0  0  0  0
   56.3430   24.7590   46.4290 C   0  0  0  0  0  0  0  0  0  0  0  0
   55.1350   25.3240   45.9940 C   0  0  0  0  0  0  0  0  0  0  0  0
   54.9740   26.7050   45.9530 O   0  0  0  0  0  0  0  0  0  0  0  0
   54.1130   24.5230   45.5990 N   0  0  0  0  0  0  0  0  0  0  0  0
   54.2310   23.1710   45.6280 C   0  0  0  0  0  0  0  0  0  0  0  0
   53.2720   22.4480   45.2510 O   0  0  0  0  0  0  0  0  0  0  0  0
   55.3790   22.5980   46.0700 N   0  0  0  0  0  0  0  0  0  0  0  0
   56.4300   23.3550   46.4780 C   0  0  0  0  0  0  0  0  0  0  0  0
   57.4660   22.7870   46.9150 O   0  0  0  0  0  0  0  0  0  0  0  0
   60.1994   25.1793   46.5862 H   0  0  0  0  0  0  0  0  0  0  0  0
   61.3013   26.4223   45.6530 H   0  0  0  0  0  0  0  0  0  0  0  0
   60.1548   28.5637   44.6426 H   0  0  0  0  0  0  0  0  0  0  0  0
   59.0111   30.3376   46.6992 H   0  0  0  0  0  0  0  0  0  0  0  0
   59.8859   32.5521   47.4381 H   0  0  0  0  0  0  0  0  0  0  0  0
   58.0580   34.4321   43.9985 H   0  0  0  0  0  0  0  0  0  0  0  0
   57.1849   32.2205   43.2489 H   0  0  0  0  0  0  0  0  0  0  0  0
   56.1410   27.8490   45.9170 H   0  0  0  0  0  0  0  0  0  0  0  0
   57.9121   25.4211   47.8584 H   0  0  0  0  0  0  0  0  0  0  0  0
  1  2  2  0
  2  3  1  0
  3  4  2  0
  4  5  1  0
  5  6  2  0
  5  7  1  0
  7  8  2  0
  8  9  1  0
  9 10  2  0
 10 11  1  0
 10 12  1  0
 12 13  2  0
  4 14  1  0
 14 15  1  0
 15 16  2  3
 16 17  1  0
 17 18  2  0
 18 19  1  0
 18 20  1  0
 20 21  1  0
 21 22  2  0
 21 23  1  0
 23 24  1  0
 24 25  2  0
 15  2  1  0
 24 17  1  0
 13  7  1  0
  1 26  1  0
  1 27  1  0
  3 28  1  0
  8 29  1  0
  9 30  1  0
 12 31  1  0
 13 32  1  0
 14 33  1  0
 16 34  1  0
M  CHG  3  19  -1  20  -1  23  -1
M  END
>  <UniqueID>  (12) 
11

>  <SMILES>  (12) 
C=c1cc(C(=O)c2ccc(Br)cc2)[nH]c1=Cc1c([O-])[n-]c(=O)[n-]c1=O

>  <Energy>  (12) 
77.56316548434607

>  <Genealogy>  (12) 
C=c1cc(C(=O)c2ccc(Br)cc2)[nH]c1=Cc1c([O-])[n-]c(=O)[n-]c1=O (protonated)
C=c1cc(C(=O)c2ccc(Br)cc2)[nH]c1=Cc1c([O-])[n-]c(=O)[n-]c1=O (3D coordinates assigned)
C=c1cc(C(=O)c2ccc(Br)cc2)[nH]c1=Cc1c([O-])[n-]c(=O)[n-]c1=O (optimized conformer: 77.56316548434607 kcal/mol)

>  <smiles>  (12) 
C=c1cc(C(=O)c2ccc(Br)cc2)[nH]c1=Cc1c(O)[nH]c(=O)[nH]c1=O

>  <score_type>  (12) 
oracle

>  <origin>  (12) 
adg

>  <m_score__min__energy>  (12) 
-16.280000000000001

>  <m_primary>  (12) 
energy

$$$$
13:0
     RDKit          3D

 60 63  0  0  0  0  0  0  0  0999 V2000
   56.4850   30.5950   44.1490 C   0  0  0  0  0  0  0  0  0  0  0  0
   57.4330   31.5670   44.8020 C   0  0  0  0  0  0  0  0  0  0  0  0
   57.0760   32.9260   44.8370 C   0  0  0  0  0  0  0  0  0  0  0  0
   57.8940   33.8630   45.4670 C   0  0  0  0  0  0  0  0  0  0  0  0
   59.0840   33.4600   46.0770 C   0  0  0  0  0  0  0  0  0  0  0  0
   60.1230   34.6440   46.8640 S   0  0  0  0  0  0  0  0  0  0  0  0
   59.6620   36.0310   46.5090 O   0  0  0  0  0  0  0  0  0  0  0  0
   61.5390   34.4720   46.3930 O   0  0  0  0  0  0  0  0  0  0  0  0
   60.0370   34.4080   48.6300 C   0  0  0  0  0  0  0  0  0  0  0  0
   60.1740   32.9500   48.9730 C   0  0  0  0  0  0  0  0  0  0  0  0
   61.4490   32.3580   49.0200 C   0  0  0  0  0  0  0  0  0  0  0  0
   61.5840   30.9970   49.3090 C   0  0  0  0  0  0  0  0  0  0  0  0
   60.4500   30.2140   49.5410 C   0  0  0  0  0  0  0  0  0  0  0  0
   59.1790   30.7900   49.4840 C   0  0  0  0  0  0  0  0  0  0  0  0
   59.0370   32.1510   49.1970 C   0  0  0  0  0  0  0  0  0  0  0  0
   57.7910   32.6880   49.1340 F   0  0  0  0  0  0  0  0  0  0  0  0
   59.4670   32.1160   46.0290 C   0  0  0  0  0  0  0  0  0  0  0  0
   58.6640   31.1560   45.3830 C   0  0  0  0  0  0  0  0  0  0  0  0
   59.1500   29.7540   45.3400 C   0  0  0  0  0  0  0  0  0  0  0  0
   59.8860   29.3830   44.3860 O   0  0  0  0  0  0  0  0  0  0  0  0
   58.7910   28.8280   46.3730 N   0  0  0  0  0  0  0  0  0  0  0  0
   58.7200   27.4000   46.2590 C   0  0  0  0  0  0  0  0  0  0  0  0
   59.8720   26.6010   46.1450 C   0  0  0  0  0  0  0  0  0  0  0  0
   59.7560   25.2140   46.0180 C   0  0  0  0  0  0  0  0  0  0  0  0
   58.4950   24.6140   45.9880 C   0  0  0  0  0  0  0  0  0  0  0  0
   57.3400   25.4030   46.0690 C   0  0  0  0  0  0  0  0  0  0  0  0
   55.7430   24.6610   46.0430 S   0  0  0  0  0  0  0  0  0  0  0  0
   55.4400   24.1190   47.4120 O   0  0  0  0  0  0  0  0  0  0  0  0
   54.7040   25.6910   45.6960 O   0  0  0  0  0  0  0  0  0  0  0  0
   55.7190   23.3610   44.8790 N   0  0  0  0  0  0  0  0  0  0  0  0
   56.3740   22.1670   45.4440 C   0  0  0  0  0  0  0  0  0  0  0  0
   56.6320   21.1110   44.3500 C   0  0  0  0  0  0  0  0  0  0  0  0
   55.9150   21.4170   43.1710 O   0  0  0  0  0  0  0  0  0  0  0  0
   56.3940   22.6300   42.6180 C   0  0  0  0  0  0  0  0  0  0  0  0
   56.4020   23.7810   43.6460 C   0  0  0  0  0  0  0  0  0  0  0  0
   57.4580   26.7940   46.2010 C   0  0  0  0  0  0  0  0  0  0  0  0
   55.9404   30.0367   44.9247 H   0  0  0  0  0  0  0  0  0  0  0  0
   55.7682   31.1464   43.5228 H   0  0  0  0  0  0  0  0  0  0  0  0
   57.0542   29.8922   43.5228 H   0  0  0  0  0  0  0  0  0  0  0  0
   56.1399   33.2543   44.3616 H   0  0  0  0  0  0  0  0  0  0  0  0
   57.6011   34.9232   45.4836 H   0  0  0  0  0  0  0  0  0  0  0  0
   60.8505   34.9711   49.1107 H   0  0  0  0  0  0  0  0  0  0  0  0
   59.0623   34.7686   48.9904 H   0  0  0  0  0  0  0  0  0  0  0  0
   62.3437   32.9686   48.8285 H   0  0  0  0  0  0  0  0  0  0  0  0
   62.5843   30.5417   49.3539 H   0  0  0  0  0  0  0  0  0  0  0  0
   60.5585   29.1433   49.7687 H   0  0  0  0  0  0  0  0  0  0  0  0
   58.2876   30.1715   49.6653 H   0  0  0  0  0  0  0  0  0  0  0  0
   60.4094   31.8039   46.5028 H   0  0  0  0  0  0  0  0  0  0  0  0
   60.8673   27.0693   46.1558 H   0  0  0  0  0  0  0  0  0  0  0  0
   60.6606   24.5929   45.9414 H   0  0  0  0  0  0  0  0  0  0  0  0
   58.4086   23.5209   45.9007 H   0  0  0  0  0  0  0  0  0  0  0  0
   57.3337   22.4616   45.8936 H   0  0  0  0  0  0  0  0  0  0  0  0
   55.7111   21.7297   46.2051 H   0  0  0  0  0  0  0  0  0  0  0  0
   57.7075   21.0861   44.1206 H   0  0  0  0  0  0  0  0  0  0  0  0
   56.2942   20.1322   44.7213 H   0  0  0  0  0  0  0  0  0  0  0  0
   57.4206   22.4723   42.2559 H   0  0  0  0  0  0  0  0  0  0  0  0
   55.7178   22.9159   41.7988 H   0  0  0  0  0  0  0  0  0  0  0  0
   57.4419   24.0525   43.8803 H   0  0  0  0  0  0  0  0  0  0  0  0
   55.8761   24.6482   43.2202 H   0  0  0  0  0  0  0  0  0  0  0  0
   56.5519   27.4149   46.2595 H   0  0  0  0  0  0  0  0  0  0  0  0
  1  2  1  0
  2  3  2  0
  3  4  1  0
  4  5  2  0
  5  6  1  0
  6  7  2  0
  6  8  2  0
  6  9  1  0
  9 10  1  0
 10 11  2  0
 11 12  1  0
 12 13  2  0
 13 14  1  0
 14 15  2  0
 15 16  1  0
  5 17  1  0
 17 18  2  0
 18 19  1  0
 19 20  2  0
 19 21  1  0
 21 22  1  0
 22 23  2  0
 23 24  1  0
 24 25  2  0
 25 26  1  0
 26 27  1  0
 27 28  2  0
 27 29  2  0
 27 30  1  0
 30 31  1  0
 31 32  1  0
 32 33  1  0
 33 34  1  0
 34 35  1  0
 26 36  2  0
 18  2  1  0
 36 22  1  0
 15 10  1  0
 35 30  1  0
  1 37  1  0
  1 38  1  0
  1 39  1  0
  3 40  1  0
  4 41  1  0
  9 42  1  0
  9 43  1  0
 11 44  1  0
 12 45  1  0
 13 46  1  0
 14 47  1  0
 17 48  1  0
 23 49  1  0
 24 50  1  0
 25 51  1  0
 31 52  1  0
 31 53  1  0
 32 54  1  0
 32 55  1  0
 34 56  1  0
 34 57  1  0
 35 58  1  0
 35 59  1  0
 36 60  1  0
M  CHG  1  21  -1
M  END
>  <UniqueID>  (13) 
12

>  <SMILES>  (13) 
Cc1ccc(S(=O)(=O)Cc2ccccc2F)cc1C(=O)[N-]c1cccc(S(=O)(=O)N2CCOCC2)c1

>  <Energy>  (13) 
75.92758499250372

>  <Genealogy>  (13) 
Cc1ccc(S(=O)(=O)Cc2ccccc2F)cc1C(=O)[N-]c1cccc(S(=O)(=O)N2CCOCC2)c1 (protonated)
Cc1ccc(S(=O)(=O)Cc2ccccc2F)cc1C(=O)[N-]c1cccc(S(=O)(=O)N2CCOCC2)c1 (3D coordinates assigned)
Cc1ccc(S(=O)(=O)Cc2ccccc2F)cc1C(=O)[N-]c1cccc(S(=O)(=O)N2CCOCC2)c1 (nonaromatic ring conformer: 75.92758499250372 kcal/mol)

>  <smiles>  (13) 
Cc1ccc(S(=O)(=O)Cc2ccccc2F)cc1C(=O)Nc1cccc(S(=O)(=O)N2CCOCC2)c1

>  <score_type>  (13) 
oracle

>  <origin>  (13) 
adg

>  <m_score__min__energy>  (13) 
-13.01

>  <m_primary>  (13) 
energy

$$$$
14:0
     RDKit          3D

 67 71  0  0  0  0  0  0  0  0999 V2000
   61.6330   29.1540   49.4810 H   0  0  0  0  0  0  0  0  0  0  0  0
   61.5860   29.7090   48.6360 O   0  0  0  0  0  0  0  0  0  0  0  0
   61.5480   31.1050   48.6770 C   0  0  0  0  0  0  0  0  0  0  0  0
   62.3680   31.8040   49.5710 C   0  0  0  0  0  0  0  0  0  0  0  0
   63.0456   31.2582   50.2440 H   0  0  0  0  0  0  0  0  0  0  0  0
   62.3190   33.2040   49.6020 C   0  0  0  0  0  0  0  0  0  0  0  0
   63.1370   33.9810   50.5890 C   0  0  0  0  0  0  0  0  0  0  0  0
   63.3776   34.9676   50.1663 H   0  0  0  0  0  0  0  0  0  0  0  0
   62.5613   34.1039   51.5182 H   0  0  0  0  0  0  0  0  0  0  0  0
   64.4130   33.2440   50.8920 C   0  0  0  0  0  0  0  0  0  0  0  0
   64.6160   32.6670   52.1580 C   0  0  0  0  0  0  0  0  0  0  0  0
   63.8460   32.7692   52.9369 H   0  0  0  0  0  0  0  0  0  0  0  0
   65.7930   31.9640   52.4300 C   0  0  0  0  0  0  0  0  0  0  0  0
   65.9513   31.5218   53.4247 H   0  0  0  0  0  0  0  0  0  0  0  0
   66.7700   31.8220   51.4390 C   0  0  0  0  0  0  0  0  0  0  0  0
   67.6985   31.2738   51.6568 H   0  0  0  0  0  0  0  0  0  0  0  0
   66.5670   32.3760   50.1730 C   0  0  0  0  0  0  0  0  0  0  0  0
   67.3336   32.2589   49.3929 H   0  0  0  0  0  0  0  0  0  0  0  0
   65.3910   33.0790   49.8960 C   0  0  0  0  0  0  0  0  0  0  0  0
   65.2303   33.5048   48.8946 H   0  0  0  0  0  0  0  0  0  0  0  0
   61.4770   33.8670   48.7640 N   0  0  0  0  0  0  0  0  0  0  0  0
   60.6750   33.2200   47.8770 C   0  0  0  0  0  0  0  0  0  0  0  0
   59.8190   33.9880   47.0170 N   0  0  0  0  0  0  0  0  0  0  0  0
   60.2370   34.2200   45.6260 C   0  0  0  0  0  0  0  0  0  0  0  0
   60.9588   35.0498   45.6035 H   0  0  0  0  0  0  0  0  0  0  0  0
   60.6919   33.2943   45.2437 H   0  0  0  0  0  0  0  0  0  0  0  0
   59.0430   34.5740   44.7310 C   0  0  0  0  0  0  0  0  0  0  0  0
   58.6320   35.5462   45.0406 H   0  0  0  0  0  0  0  0  0  0  0  0
   59.3801   34.6258   43.6852 H   0  0  0  0  0  0  0  0  0  0  0  0
   57.7480   33.2970   44.8780 S   0  0  0  0  0  0  0  0  0  0  0  0
   57.4290   33.4630   46.6850 C   0  0  0  0  0  0  0  0  0  0  0  0
   56.4400   33.9266   46.8151 H   0  0  0  0  0  0  0  0  0  0  0  0
   57.4955   32.4473   47.1021 H   0  0  0  0  0  0  0  0  0  0  0  0
   58.4560   34.3090   47.4540 C   0  0  0  0  0  0  0  0  0  0  0  0
   58.2582   35.3750   47.2682 H   0  0  0  0  0  0  0  0  0  0  0  0
   58.3660   34.0873   48.5276 H   0  0  0  0  0  0  0  0  0  0  0  0
   60.6800   31.8120   47.8300 C   0  0  0  0  0  0  0  0  0  0  0  0
   59.7690   31.0810   46.9370 C   0  0  0  0  0  0  0  0  0  0  0  0
   59.4937   31.5583   45.9850 H   0  0  0  0  0  0  0  0  0  0  0  0
   59.2480   29.8680   47.2030 C   0  0  0  0  0  0  0  0  0  0  0  0
   59.0980   28.8800   46.2450 C   0  0  0  0  0  0  0  0  0  0  0  0
   59.3491   28.9535   45.1766 H   0  0  0  0  0  0  0  0  0  0  0  0
   58.5680   27.7790   46.9010 C   0  0  0  0  0  0  0  0  0  0  0  0
   58.2360   26.4610   46.3140 C   0  0  0  0  0  0  0  0  0  0  0  0
   56.9420   26.2310   45.8200 C   0  0  0  0  0  0  0  0  0  0  0  0
   56.1867   27.0284   45.8804 H   0  0  0  0  0  0  0  0  0  0  0  0
   56.6040   25.0010   45.2530 C   0  0  0  0  0  0  0  0  0  0  0  0
   55.5845   24.8403   44.8725 H   0  0  0  0  0  0  0  0  0  0  0  0
   57.5520   23.9630   45.1620 C   0  0  0  0  0  0  0  0  0  0  0  0
   57.2050   22.6890   44.5610 N   0  0  0  0  0  0  0  0  0  0  0  0
   56.4020   22.6360   43.3340 C   0  0  0  0  0  0  0  0  0  0  0  0
   55.3360   22.5656   43.5962 H   0  0  0  0  0  0  0  0  0  0  0  0
   56.5749   23.5475   42.7430 H   0  0  0  0  0  0  0  0  0  0  0  0
   56.6932   21.7551   42.7430 H   0  0  0  0  0  0  0  0  0  0  0  0
   57.6720   21.4330   45.1590 C   0  0  0  0  0  0  0  0  0  0  0  0
   57.6414   21.5153   46.2555 H   0  0  0  0  0  0  0  0  0  0  0  0
   57.0205   20.6081   44.8349 H   0  0  0  0  0  0  0  0  0  0  0  0
   58.7042   21.2341   44.8349 H   0  0  0  0  0  0  0  0  0  0  0  0
   58.8470   24.1950   45.6640 C   0  0  0  0  0  0  0  0  0  0  0  0
   59.6030   23.3980   45.6071 H   0  0  0  0  0  0  0  0  0  0  0  0
   59.1830   25.4270   46.2340 C   0  0  0  0  0  0  0  0  0  0  0  0
   60.1991   25.5878   46.6236 H   0  0  0  0  0  0  0  0  0  0  0  0
   58.3910   28.0680   48.1690 O   0  0  0  0  0  0  0  0  0  0  0  0
   58.7780   29.3030   48.3980 C   0  0  0  0  0  0  0  0  0  0  0  0
   58.6860   29.8470   49.6140 C   0  0  0  0  0  0  0  0  0  0  0  0
   59.0169   30.8829   49.7796 H   0  0  0  0  0  0  0  0  0  0  0  0
   58.2794   29.2592   50.4502 H   0  0  0  0  0  0  0  0  0  0  0  0
  1  2  1  0
  2  3  1  0
  3  4  2  0
  4  5  1  0
  4  6  1  0
  6  7  1  0
  7  8  1  0
  7  9  1  0
  7 10  1  0
 10 11  2  0
 11 12  1  0
 11 13  1  0
 13 14  1  0
 13 15  2  0
 15 16  1  0
 15 17  1  0
 17 18  1  0
 17 19  2  0
 19 20  1  0
  6 21  2  0
 21 22  1  0
 22 23  1  0
 23 24  1  0
 24 25  1  0
 24 26  1  0
 24 27  1  0
 27 28  1  0
 27 29  1  0
 27 30  1  0
 30 31  1  0
 31 32  1  0
 31 33  1  0
 31 34  1  0
 34 35  1  0
 34 36  1  0
 22 37  2  0
 37 38  1  0
 38 39  1  0
 38 40  2  0
 40 41  1  0
 41 42  1  0
 41 43  2  0
 43 44  1  0
 44 45  2  0
 45 46  1  0
 45 47  1  0
 47 48  1  0
 47 49  2  0
 49 50  1  0
 50 51  1  0
 51 52  1  0
 51 53  1  0
 51 54  1  0
 50 55  1  0
 55 56  1  0
 55 57  1  0
 55 58  1  0
 49 59  1  0
 59 60  1  0
 59 61  2  0
 61 62  1  0
 43 63  1  0
 63 64  1  0
 64 65  2  0
 65 66  1  0
 65 67  1  0
 37  3  1  0
 64 40  1  0
 19 10  1  0
 34 23  1  0
 61 44  1  0
M  END
>  <UniqueID>  (14) 
13

>  <SMILES>  (14) 
C=c1oc(-c2ccc(N(C)C)cc2)c/c1=C/c1c(O)cc(Cc2ccccc2)nc1N1CCSCC1

>  <Energy>  (14) 
117.40112566320758

>  <Genealogy>  (14) 
C=c1oc(-c2ccc(N(C)C)cc2)c/c1=C/c1c(O)cc(Cc2ccccc2)nc1N1CCSCC1 (cis-trans isomerization)
C=c1oc(-c2ccc(N(C)C)cc2)c/c1=C/c1c(O)cc(Cc2ccccc2)nc1N1CCSCC1 (3D coordinates assigned)
C=c1oc(-c2ccc(N(C)C)cc2)c/c1=C/c1c(O)cc(Cc2ccccc2)nc1N1CCSCC1 (nonaromatic ring conformer: 117.40112566320758 kcal/mol)

>  <smiles>  (14) 
C=c1oc(-c2ccc(N(C)C)cc2)cc1=Cc1c(O)cc(Cc2ccccc2)nc1N1CCSCC1

>  <score_type>  (14) 
oracle

>  <origin>  (14) 
adg

>  <m_score__min__energy>  (14) 
-8.3599999999999994

>  <m_primary>  (14) 
energy

$$$$
15:0
     RDKit          3D

 48 50  0  0  0  0  0  0  0  0999 V2000
   56.7110   26.6250   46.0240 C   0  0  0  0  0  0  0  0  0  0  0  0
   55.9540   27.7610   45.6210 O   0  0  0  0  0  0  0  0  0  0  0  0
   56.5130   28.9880   45.2340 C   0  0  0  0  0  0  0  0  0  0  0  0
   56.0360   29.7200   44.1310 C   0  0  0  0  0  0  0  0  0  0  0  0
   56.6260   30.9400   43.7840 C   0  0  0  0  0  0  0  0  0  0  0  0
   57.6980   31.4550   44.5380 C   0  0  0  0  0  0  0  0  0  0  0  0
   58.3190   32.7150   44.2180 N   0  0  0  0  0  0  0  0  0  0  0  0
   57.9960   33.9840   44.8720 C   0  0  0  0  0  0  0  0  0  0  0  0
   59.0050   34.3000   45.9340 C   0  0  0  0  0  0  0  0  0  0  0  0
   58.6370   34.9040   46.9770 O   0  0  0  0  0  0  0  0  0  0  0  0
   60.3880   33.9710   45.7320 N   0  0  0  0  0  0  0  0  0  0  0  0
   61.3440   33.8480   46.7980 C   0  0  0  0  0  0  0  0  0  0  0  0
   62.7090   33.7550   46.4910 C   0  0  0  0  0  0  0  0  0  0  0  0
   63.6570   33.6070   47.5080 C   0  0  0  0  0  0  0  0  0  0  0  0
   63.2540   33.5310   48.8500 C   0  0  0  0  0  0  0  0  0  0  0  0
   64.2330   33.3870   49.8950 N   0  0  0  0  0  0  0  0  0  0  0  0
   65.2910   32.3720   49.7880 C   0  0  0  0  0  0  0  0  0  0  0  0
   66.6140   32.8680   50.4160 C   0  0  0  0  0  0  0  0  0  0  0  0
   66.4920   34.0990   51.1090 O   0  0  0  0  0  0  0  0  0  0  0  0
   65.3740   34.0620   51.9700 C   0  0  0  0  0  0  0  0  0  0  0  0
   64.0930   34.1550   51.1400 C   0  0  0  0  0  0  0  0  0  0  0  0
   61.8850   33.6090   49.1580 C   0  0  0  0  0  0  0  0  0  0  0  0
   60.9380   33.7570   48.1420 C   0  0  0  0  0  0  0  0  0  0  0  0
   58.1720   30.7160   45.6330 C   0  0  0  0  0  0  0  0  0  0  0  0
   57.5830   29.4960   45.9770 C   0  0  0  0  0  0  0  0  0  0  0  0
   56.7432   26.5767   47.1225 H   0  0  0  0  0  0  0  0  0  0  0  0
   56.2400   25.7121   45.6305 H   0  0  0  0  0  0  0  0  0  0  0  0
   57.7348   26.7082   45.6305 H   0  0  0  0  0  0  0  0  0  0  0  0
   55.1948   29.3309   43.5385 H   0  0  0  0  0  0  0  0  0  0  0  0
   56.2498   31.5011   42.9159 H   0  0  0  0  0  0  0  0  0  0  0  0
   59.0780   32.7290   43.4990 H   0  0  0  0  0  0  0  0  0  0  0  0
   57.9966   34.7882   44.1215 H   0  0  0  0  0  0  0  0  0  0  0  0
   57.0033   33.9008   45.3385 H   0  0  0  0  0  0  0  0  0  0  0  0
   60.7210   33.8390   44.7500 H   0  0  0  0  0  0  0  0  0  0  0  0
   63.0366   33.7988   45.4418 H   0  0  0  0  0  0  0  0  0  0  0  0
   64.7258   33.5498   47.2544 H   0  0  0  0  0  0  0  0  0  0  0  0
   64.9664   31.4602   50.3107 H   0  0  0  0  0  0  0  0  0  0  0  0
   65.4688   32.1683   48.7218 H   0  0  0  0  0  0  0  0  0  0  0  0
   66.9693   32.1050   51.1242 H   0  0  0  0  0  0  0  0  0  0  0  0
   67.3190   33.0347   49.5883 H   0  0  0  0  0  0  0  0  0  0  0  0
   65.3773   33.1188   52.5361 H   0  0  0  0  0  0  0  0  0  0  0  0
   65.4209   34.9084   52.6710 H   0  0  0  0  0  0  0  0  0  0  0  0
   63.2529   33.7500   51.7233 H   0  0  0  0  0  0  0  0  0  0  0  0
   63.9055   35.2096   50.8898 H   0  0  0  0  0  0  0  0  0  0  0  0
   61.5570   33.5531   50.2065 H   0  0  0  0  0  0  0  0  0  0  0  0
   59.8683   33.8027   48.3942 H   0  0  0  0  0  0  0  0  0  0  0  0
   59.0149   31.1005   46.2260 H   0  0  0  0  0  0  0  0  0  0  0  0
   57.9646   28.9305   46.8399 H   0  0  0  0  0  0  0  0  0  0  0  0
  1  2  1  0
  2  3  1  0
  3  4  2  0
  4  5  1  0
  5  6  2  0
  6  7  1  0
  7  8  1  0
  8  9  1  0
  9 10  2  0
  9 11  1  0
 11 12  1  0
 12 13  2  0
 13 14  1  0
 14 15  2  0
 15 16  1  0
 16 17  1  0
 17 18  1  0
 18 19  1  0
 19 20  1  0
 20 21  1  0
 15 22  1  0
 22 23  2  0
  6 24  1  0
 24 25  2  0
 25  3  1  0
 23 12  1  0
 21 16  1  0
  1 26  1  0
  1 27  1  0
  1 28  1  0
  4 29  1  0
  5 30  1  0
  7 31  1  0
  8 32  1  0
  8 33  1  0
 11 34  1  0
 13 35  1  0
 14 36  1  0
 17 37  1  0
 17 38  1  0
 18 39  1  0
 18 40  1  0
 20 41  1  0
 20 42  1  0
 21 43  1  0
 21 44  1  0
 22 45  1  0
 23 46  1  0
 24 47  1  0
 25 48  1  0
M  END
>  <UniqueID>  (15) 
14

>  <SMILES>  (15) 
COc1ccc(NCC(=O)Nc2ccc(N3CCOCC3)cc2)cc1

>  <Energy>  (15) 
60.511147516531054

>  <Genealogy>  (15) 
COc1ccc(NCC(=O)Nc2ccc(N3CCOCC3)cc2)cc1 (3D coordinates assigned)
COc1ccc(NCC(=O)Nc2ccc(N3CCOCC3)cc2)cc1 (nonaromatic ring conformer: 60.511147516531054 kcal/mol)

>  <smiles>  (15) 
COc1ccc(NCC(=O)Nc2ccc(N3CCOCC3)cc2)cc1

>  <score_type>  (15) 
oracle

>  <origin>  (15) 
adg

>  <m_score__min__energy>  (15) 
-7.5199999999999996

>  <m_primary>  (15) 
energy

$$$$
16:0
     RDKit          3D

 55 57  0  0  0  0  0  0  0  0999 V2000
   63.0830   32.8160   47.1890 C   0  0  0  0  0  0  0  0  0  0  0  0
   61.9360   31.7960   47.1290 C   0  0  0  0  0  0  0  0  0  0  0  0
   60.9170   31.9810   48.2000 N   0  0  1  0  0  0  0  0  0  0  0  0
   61.5150   31.6970   49.5360 C   0  0  0  0  0  0  0  0  0  0  0  0
   61.5240   30.2300   49.9040 C   0  0  0  0  0  0  0  0  0  0  0  0
   62.5310   29.7390   50.4830 O   0  0  0  0  0  0  0  0  0  0  0  0
   60.3840   29.3980   49.6500 N   0  0  0  0  0  0  0  0  0  0  0  0
   59.2650   29.3960   50.6010 C   0  0  0  0  0  0  0  0  0  0  0  0
   58.3580   30.6060   50.3920 C   0  0  0  0  0  0  0  0  0  0  0  0
   58.5170   31.1140   49.0970 O   0  0  0  0  0  0  0  0  0  0  0  0
   60.4450   28.3860   48.5910 C   0  0  0  0  0  0  0  0  0  0  0  0
   59.3920   28.6370   47.5520 C   0  0  0  0  0  0  0  0  0  0  0  0
   58.3820   27.7370   47.3840 N   0  0  0  0  0  0  0  0  0  0  0  0
   57.4460   27.8950   46.4120 C   0  0  0  0  0  0  0  0  0  0  0  0
   56.5300   27.0400   46.2940 O   0  0  0  0  0  0  0  0  0  0  0  0
   57.5220   29.0020   45.5470 C   0  0  0  0  0  0  0  0  0  0  0  0
   56.5910   29.2180   44.5150 C   0  0  0  0  0  0  0  0  0  0  0  0
   56.7300   30.3260   43.6700 C   0  0  0  0  0  0  0  0  0  0  0  0
   57.7900   31.2240   43.8510 C   0  0  0  0  0  0  0  0  0  0  0  0
   58.7160   31.0200   44.8780 C   0  0  0  0  0  0  0  0  0  0  0  0
   58.5860   29.9110   45.7270 C   0  0  0  0  0  0  0  0  0  0  0  0
   59.4950   29.7060   46.7160 N   0  0  0  0  0  0  0  0  0  0  0  0
   60.3720   33.3670   48.2180 C   0  0  0  0  0  0  0  0  0  0  0  0
   59.3860   33.6430   47.1000 C   0  0  0  0  0  0  0  0  0  0  0  0
   58.0300   33.3010   47.2380 C   0  0  0  0  0  0  0  0  0  0  0  0
   57.1190   33.5770   46.2110 C   0  0  0  0  0  0  0  0  0  0  0  0
   57.5510   34.2150   45.0460 C   0  0  0  0  0  0  0  0  0  0  0  0
   58.8920   34.5860   44.9110 C   0  0  0  0  0  0  0  0  0  0  0  0
   59.8030   34.3100   45.9350 C   0  0  0  0  0  0  0  0  0  0  0  0
   63.3265   33.0326   48.2396 H   0  0  0  0  0  0  0  0  0  0  0  0
   63.9688   32.4018   46.6852 H   0  0  0  0  0  0  0  0  0  0  0  0
   62.7751   33.7441   46.6852 H   0  0  0  0  0  0  0  0  0  0  0  0
   61.4366   31.8912   46.1536 H   0  0  0  0  0  0  0  0  0  0  0  0
   62.3812   30.8008   47.2756 H   0  0  0  0  0  0  0  0  0  0  0  0
   60.1330   31.3090   48.0530 H   0  0  0  0  0  0  0  0  0  0  0  0
   62.5533   32.0602   49.5350 H   0  0  0  0  0  0  0  0  0  0  0  0
   60.8891   32.2094   50.2815 H   0  0  0  0  0  0  0  0  0  0  0  0
   58.6760   28.4778   50.4595 H   0  0  0  0  0  0  0  0  0  0  0  0
   59.6754   29.4414   51.6205 H   0  0  0  0  0  0  0  0  0  0  0  0
   57.3104   30.3037   50.5372 H   0  0  0  0  0  0  0  0  0  0  0  0
   58.6290   31.3863   51.1184 H   0  0  0  0  0  0  0  0  0  0  0  0
   58.4150   30.3420   48.4820 H   0  0  0  0  0  0  0  0  0  0  0  0
   61.4363   28.4211   48.1155 H   0  0  0  0  0  0  0  0  0  0  0  0
   60.2695   27.3966   49.0386 H   0  0  0  0  0  0  0  0  0  0  0  0
   55.7550   28.5176   44.3719 H   0  0  0  0  0  0  0  0  0  0  0  0
   56.0038   30.4920   42.8606 H   0  0  0  0  0  0  0  0  0  0  0  0
   57.8938   32.0919   43.1832 H   0  0  0  0  0  0  0  0  0  0  0  0
   59.5456   31.7282   45.0202 H   0  0  0  0  0  0  0  0  0  0  0  0
   59.8625   33.5285   49.1794 H   0  0  0  0  0  0  0  0  0  0  0  0
   61.2218   34.0510   48.0765 H   0  0  0  0  0  0  0  0  0  0  0  0
   57.6815   32.8127   48.1600 H   0  0  0  0  0  0  0  0  0  0  0  0
   56.0626   33.2912   46.3218 H   0  0  0  0  0  0  0  0  0  0  0  0
   56.8371   34.4252   44.2360 H   0  0  0  0  0  0  0  0  0  0  0  0
   59.2311   35.0961   43.9973 H   0  0  0  0  0  0  0  0  0  0  0  0
   60.8539   34.6171   45.8282 H   0  0  0  0  0  0  0  0  0  0  0  0
  1  2  1  0
  2  3  1  0
  3  4  1  0
  4  5  1  0
  5  6  2  0
  5  7  1  0
  7  8  1  0
  8  9  1  0
  9 10  1  0
  7 11  1  0
 11 12  1  0
 12 13  2  0
 13 14  1  0
 14 15  2  0
 14 16  1  0
 16 17  2  0
 17 18  1  0
 18 19  2  0
 19 20  1  0
 20 21  2  0
 21 22  1  0
  3 23  1  0
 23 24  1  0
 24 25  2  0
 25 26  1  0
 26 27  2  0
 27 28  1  0
 28 29  2  0
 22 12  1  0
 29 24  1  0
 21 16  1  0
  1 30  1  0
  1 31  1  0
  1 32  1  0
  2 33  1  0
  2 34  1  0
  3 35  1  6
  4 36  1  0
  4 37  1  0
  8 38  1  0
  8 39  1  0
  9 40  1  0
  9 41  1  0
 10 42  1  0
 11 43  1  0
 11 44  1  0
 17 45  1  0
 18 46  1  0
 19 47  1  0
 20 48  1  0
 23 49  1  0
 23 50  1  0
 25 51  1  0
 26 52  1  0
 27 53  1  0
 28 54  1  0
 29 55  1  0
M  CHG  2   3   1  22  -1
M  END
>  <UniqueID>  (16) 
15

>  <SMILES>  (16) 
CC[N@@H+](CC(=O)N(CCO)Cc1nc(=O)c2ccccc2[n-]1)Cc1ccccc1

>  <Energy>  (16) 
64.03428608074572

>  <Genealogy>  (16) 
CC[NH+](CC(=O)N(CCO)Cc1nc(=O)c2ccccc2[n-]1)Cc1ccccc1 (protonated)
CC[N@@H+](CC(=O)N(CCO)Cc1nc(=O)c2ccccc2[n-]1)Cc1ccccc1 (chirality)
CC[N@@H+](CC(=O)N(CCO)Cc1nc(=O)c2ccccc2[n-]1)Cc1ccccc1 (3D coordinates assigned)
CC[N@@H+](CC(=O)N(CCO)Cc1nc(=O)c2ccccc2[n-]1)Cc1ccccc1 (optimized conformer: 64.03428608074572 kcal/mol)

>  <smiles>  (16) 
CCN(CC(=O)N(CCO)Cc1nc(=O)c2ccccc2[nH]1)Cc1ccccc1

>  <score_type>  (16) 
oracle

>  <origin>  (16) 
adg

>  <m_score__min__energy>  (16) 
-9.5

>  <m_primary>  (16) 
energy

$$$$
17:0
     RDKit          3D

 41 43  0  0  0  0  0  0  0  0999 V2000
   59.5631   35.7623   45.5560 H   0  0  0  0  0  0  0  0  0  0  0  0
   59.1370   35.0710   44.8140 C   0  0  0  0  0  0  0  0  0  0  0  0
   59.0705   35.3705   43.7577 H   0  0  0  0  0  0  0  0  0  0  0  0
   58.7000   33.8670   45.1960 C   0  0  0  0  0  0  0  0  0  0  0  0
   58.7290   33.3880   46.4690 N   0  0  0  0  0  0  0  0  0  0  0  0
   59.2840   33.9980   47.6850 C   0  0  0  0  0  0  0  0  0  0  0  0
   59.1232   35.0857   47.6511 H   0  0  0  0  0  0  0  0  0  0  0  0
   58.7785   33.5692   48.5628 H   0  0  0  0  0  0  0  0  0  0  0  0
   60.7660   33.7160   47.7850 C   0  0  0  0  0  0  0  0  0  0  0  0
   61.5390   33.7370   46.6100 C   0  0  0  0  0  0  0  0  0  0  0  0
   61.0620   33.9779   45.6486 H   0  0  0  0  0  0  0  0  0  0  0  0
   62.9060   33.4550   46.6520 C   0  0  0  0  0  0  0  0  0  0  0  0
   63.4996   33.4758   45.7262 H   0  0  0  0  0  0  0  0  0  0  0  0
   63.5200   33.1470   47.8660 C   0  0  0  0  0  0  0  0  0  0  0  0
   64.5965   32.9231   47.8968 H   0  0  0  0  0  0  0  0  0  0  0  0
   62.7680   33.1230   49.0420 C   0  0  0  0  0  0  0  0  0  0  0  0
   63.2567   32.8824   49.9977 H   0  0  0  0  0  0  0  0  0  0  0  0
   61.3960   33.4030   49.0140 C   0  0  0  0  0  0  0  0  0  0  0  0
   60.5210   33.3620   50.5410 Cl  0  0  0  0  0  0  0  0  0  0  0  0
   58.2000   32.1500   46.3740 C   0  0  0  0  0  0  0  0  0  0  0  0
   58.1050   31.3510   47.3440 O   0  0  0  0  0  0  0  0  0  0  0  0
   57.8400   31.8960   45.0600 C   0  0  0  0  0  0  0  0  0  0  0  0
   57.3010   30.7840   44.5300 C   0  0  0  0  0  0  0  0  0  0  0  0
   56.6476   30.9009   43.6528 H   0  0  0  0  0  0  0  0  0  0  0  0
   57.5240   29.4170   45.0420 C   0  0  0  0  0  0  0  0  0  0  0  0
   58.8100   29.0000   45.4190 C   0  0  0  0  0  0  0  0  0  0  0  0
   59.6639   29.6833   45.3010 H   0  0  0  0  0  0  0  0  0  0  0  0
   59.0100   27.7220   45.9430 C   0  0  0  0  0  0  0  0  0  0  0  0
   60.0231   27.3961   46.2214 H   0  0  0  0  0  0  0  0  0  0  0  0
   57.9290   26.8560   46.1150 C   0  0  0  0  0  0  0  0  0  0  0  0
   58.0940   25.8479   46.5231 H   0  0  0  0  0  0  0  0  0  0  0  0
   56.6280   27.2680   45.7680 C   0  0  0  0  0  0  0  0  0  0  0  0
   55.5100   26.4350   45.9340 O   0  0  0  0  0  0  0  0  0  0  0  0
   55.5040   25.0350   45.6740 C   0  0  0  0  0  0  0  0  0  0  0  0
   55.5016   24.4851   46.6267 H   0  0  0  0  0  0  0  0  0  0  0  0
   54.6047   24.7730   45.0972 H   0  0  0  0  0  0  0  0  0  0  0  0
   56.4010   24.7653   45.0972 H   0  0  0  0  0  0  0  0  0  0  0  0
   56.4320   28.5530   45.2400 C   0  0  0  0  0  0  0  0  0  0  0  0
   55.1460   28.9650   44.9030 O   0  0  0  0  0  0  0  0  0  0  0  0
   58.1680   32.9790   44.3270 N   0  0  0  0  0  0  0  0  0  0  0  0
   58.0380   33.1040   43.2980 H   0  0  0  0  0  0  0  0  0  0  0  0
  1  2  1  0
  2  3  1  0
  2  4  2  0
  4  5  1  0
  5  6  1  0
  6  7  1  0
  6  8  1  0
  6  9  1  0
  9 10  2  0
 10 11  1  0
 10 12  1  0
 12 13  1  0
 12 14  2  0
 14 15  1  0
 14 16  1  0
 16 17  1  0
 16 18  2  0
 18 19  1  0
  5 20  1  0
 20 21  2  0
 20 22  1  0
 22 23  2  0
 23 24  1  0
 23 25  1  0
 25 26  2  0
 26 27  1  0
 26 28  1  0
 28 29  1  0
 28 30  2  0
 30 31  1  0
 30 32  1  0
 32 33  1  0
 33 34  1  0
 34 35  1  0
 34 36  1  0
 34 37  1  0
 32 38  2  0
 38 39  1  0
 22 40  1  0
 40 41  1  0
 40  4  1  0
 18  9  1  0
 38 25  1  0
M  CHG  1  39  -1
M  END
>  <UniqueID>  (17) 
16

>  <SMILES>  (17) 
C=c1[nH]/c(=C/c2cccc(OC)c2[O-])c(=O)n1Cc1ccccc1Cl

>  <Energy>  (17) 
87.12479737975443

>  <Genealogy>  (17) 
C=c1[nH]c(=Cc2cccc(OC)c2[O-])c(=O)n1Cc1ccccc1Cl (protonated)
C=c1[nH]/c(=C/c2cccc(OC)c2[O-])c(=O)n1Cc1ccccc1Cl (cis-trans isomerization)
C=c1[nH]/c(=C/c2cccc(OC)c2[O-])c(=O)n1Cc1ccccc1Cl (3D coordinates assigned)
C=c1[nH]/c(=C/c2cccc(OC)c2[O-])c(=O)n1Cc1ccccc1Cl (optimized conformer: 87.12479737975443 kcal/mol)

>  <smiles>  (17) 
C=c1[nH]c(=Cc2cccc(OC)c2O)c(=O)n1Cc1ccccc1Cl

>  <score_type>  (17) 
oracle

>  <origin>  (17) 
adg

>  <m_score__min__energy>  (17) 
-12.710000000000001

>  <m_primary>  (17) 
energy

$$$$
18:0
     RDKit          3D

 61 64  0  0  0  0  0  0  0  0999 V2000
   59.1040   22.2680   45.1680 C   0  0  0  0  0  0  0  0  0  0  0  0
   57.8050   22.7820   44.6220 C   0  0  0  0  0  0  0  0  0  0  0  0
   57.3460   22.3550   43.3690 C   0  0  0  0  0  0  0  0  0  0  0  0
   56.1150   22.7990   42.8820 C   0  0  0  0  0  0  0  0  0  0  0  0
   55.3220   23.6550   43.6520 C   0  0  0  0  0  0  0  0  0  0  0  0
   55.7500   24.0630   44.9260 C   0  0  0  0  0  0  0  0  0  0  0  0
   54.8810   24.9330   45.7550 C   0  0  0  0  0  0  0  0  0  0  0  0
   53.8570   24.4390   46.2960 O   0  0  0  0  0  0  0  0  0  0  0  0
   55.1400   26.3330   45.9290 N   0  0  0  0  0  0  0  0  0  0  0  0
   56.4270   26.9630   46.0150 C   0  0  0  0  0  0  0  0  0  0  0  0
   57.4490   26.3190   46.7230 C   0  0  0  0  0  0  0  0  0  0  0  0
   58.7190   26.8950   46.8120 C   0  0  0  0  0  0  0  0  0  0  0  0
   58.9740   28.1250   46.2030 C   0  0  0  0  0  0  0  0  0  0  0  0
   57.9630   28.7880   45.4960 C   0  0  0  0  0  0  0  0  0  0  0  0
   58.2680   30.0330   44.8580 N   0  0  0  0  0  0  0  0  0  0  0  0
   57.4580   31.2160   44.8880 C   0  0  0  0  0  0  0  0  0  0  0  0
   56.2480   31.1590   44.5360 O   0  0  0  0  0  0  0  0  0  0  0  0
   58.0400   32.4990   45.3420 C   0  0  0  0  0  0  0  0  0  0  0  0
   58.4820   33.4560   44.4120 C   0  0  0  0  0  0  0  0  0  0  0  0
   59.1030   34.6290   44.8480 C   0  0  0  0  0  0  0  0  0  0  0  0
   59.3170   34.8440   46.2110 C   0  0  0  0  0  0  0  0  0  0  0  0
   58.9000   33.8970   47.1520 C   0  0  0  0  0  0  0  0  0  0  0  0
   59.1970   34.1280   48.5060 O   0  0  0  0  0  0  0  0  0  0  0  0
   59.7230   33.1630   49.4220 C   0  0  0  0  0  0  0  0  0  0  0  0
   61.0280   33.6620   50.0660 C   0  0  0  0  0  0  0  0  0  0  0  0
   62.2040   33.0560   49.4080 N   0  0  0  0  0  0  0  0  0  0  0  0
   63.0640   34.0590   48.7290 C   0  0  0  0  0  0  0  0  0  0  0  0
   63.0100   33.9310   47.1960 C   0  0  0  0  0  0  0  0  0  0  0  0
   63.3880   32.6430   46.7290 O   0  0  0  0  0  0  0  0  0  0  0  0
   62.9740   31.5790   47.5800 C   0  0  0  0  0  0  0  0  0  0  0  0
   61.8150   31.9410   48.5250 C   0  0  0  0  0  0  0  0  0  0  0  0
   58.2130   32.7520   46.7130 C   0  0  0  0  0  0  0  0  0  0  0  0
   56.7010   28.1820   45.3670 C   0  0  0  0  0  0  0  0  0  0  0  0
   57.0040   23.6330   45.3990 C   0  0  0  0  0  0  0  0  0  0  0  0
   59.0705   22.2813   46.2674 H   0  0  0  0  0  0  0  0  0  0  0  0
   59.2666   21.2378   44.8185 H   0  0  0  0  0  0  0  0  0  0  0  0
   59.9275   22.9080   44.8185 H   0  0  0  0  0  0  0  0  0  0  0  0
   57.9578   21.6673   42.7666 H   0  0  0  0  0  0  0  0  0  0  0  0
   55.7682   22.4744   41.8898 H   0  0  0  0  0  0  0  0  0  0  0  0
   54.3584   24.0106   43.2583 H   0  0  0  0  0  0  0  0  0  0  0  0
   57.2510   25.3538   47.2121 H   0  0  0  0  0  0  0  0  0  0  0  0
   59.5190   26.3785   47.3627 H   0  0  0  0  0  0  0  0  0  0  0  0
   59.9744   28.5759   46.2788 H   0  0  0  0  0  0  0  0  0  0  0  0
   58.3382   33.2804   43.3357 H   0  0  0  0  0  0  0  0  0  0  0  0
   59.4240   35.3848   44.1161 H   0  0  0  0  0  0  0  0  0  0  0  0
   59.8169   35.7644   46.5469 H   0  0  0  0  0  0  0  0  0  0  0  0
   58.9810   32.9767   50.2124 H   0  0  0  0  0  0  0  0  0  0  0  0
   59.9393   32.2378   48.8677 H   0  0  0  0  0  0  0  0  0  0  0  0
   61.0835   34.7561   49.9669 H   0  0  0  0  0  0  0  0  0  0  0  0
   61.0301   33.3726   51.1272 H   0  0  0  0  0  0  0  0  0  0  0  0
   62.7244   35.0662   49.0123 H   0  0  0  0  0  0  0  0  0  0  0  0
   64.1025   33.8820   49.0456 H   0  0  0  0  0  0  0  0  0  0  0  0
   61.9815   34.1355   46.8639 H   0  0  0  0  0  0  0  0  0  0  0  0
   63.7287   34.6533   46.7817 H   0  0  0  0  0  0  0  0  0  0  0  0
   62.6540   30.7370   46.9486 H   0  0  0  0  0  0  0  0  0  0  0  0
   63.8355   31.3309   48.2174 H   0  0  0  0  0  0  0  0  0  0  0  0
   60.9399   32.2387   47.9286 H   0  0  0  0  0  0  0  0  0  0  0  0
   61.5696   31.0644   49.1425 H   0  0  0  0  0  0  0  0  0  0  0  0
   57.8060   32.0457   47.4516 H   0  0  0  0  0  0  0  0  0  0  0  0
   55.9232   28.6634   44.7560 H   0  0  0  0  0  0  0  0  0  0  0  0
   57.3589   23.9666   46.3853 H   0  0  0  0  0  0  0  0  0  0  0  0
  1  2  1  0
  2  3  2  0
  3  4  1  0
  4  5  2  0
  5  6  1  0
  6  7  1  0
  7  8  2  0
  7  9  1  0
  9 10  1  0
 10 11  2  0
 11 12  1  0
 12 13  2  0
 13 14  1  0
 14 15  1  0
 15 16  1  0
 16 17  2  0
 16 18  1  0
 18 19  2  0
 19 20  1  0
 20 21  2  0
 21 22  1  0
 22 23  1  0
 23 24  1  0
 24 25  1  0
 25 26  1  0
 26 27  1  0
 27 28  1  0
 28 29  1  0
 29 30  1  0
 30 31  1  0
 22 32  2  0
 14 33  2  0
  6 34  2  0
 34  2  1  0
 33 10  1  0
 32 18  1  0
 31 26  1  0
  1 35  1  0
  1 36  1  0
  1 37  1  0
  3 38  1  0
  4 39  1  0
  5 40  1  0
 11 41  1  0
 12 42  1  0
 13 43  1  0
 19 44  1  0
 20 45  1  0
 21 46  1  0
 24 47  1  0
 24 48  1  0
 25 49  1  0
 25 50  1  0
 27 51  1  0
 27 52  1  0
 28 53  1  0
 28 54  1  0
 30 55  1  0
 30 56  1  0
 31 57  1  0
 31 58  1  0
 32 59  1  0
 33 60  1  0
 34 61  1  0
M  CHG  2   9  -1  15  -1
M  END
>  <UniqueID>  (18) 
17

>  <SMILES>  (18) 
Cc1cccc(C(=O)[N-]c2cccc([N-]C(=O)c3cccc(OCCN4CCOCC4)c3)c2)c1

>  <Energy>  (18) 
85.0873357085929

>  <Genealogy>  (18) 
Cc1cccc(C(=O)[N-]c2cccc([N-]C(=O)c3cccc(OCCN4CCOCC4)c3)c2)c1 (protonated)
Cc1cccc(C(=O)[N-]c2cccc([N-]C(=O)c3cccc(OCCN4CCOCC4)c3)c2)c1 (3D coordinates assigned)
Cc1cccc(C(=O)[N-]c2cccc([N-]C(=O)c3cccc(OCCN4CCOCC4)c3)c2)c1 (nonaromatic ring conformer: 85.0873357085929 kcal/mol)

>  <smiles>  (18) 
Cc1cccc(C(=O)Nc2cccc(NC(=O)c3cccc(OCCN4CCOCC4)c3)c2)c1

>  <score_type>  (18) 
oracle

>  <origin>  (18) 
adg

>  <m_score__min__energy>  (18) 
-13.27

>  <m_primary>  (18) 
energy

$$$$
19:0
     RDKit          3D

 39 41  0  0  0  0  0  0  0  0999 V2000
   54.1460   23.5730   45.8340 N   0  0  0  0  0  0  0  0  0  0  0  0
   55.4260   23.7060   45.2120 C   0  0  0  0  0  0  0  0  0  0  0  0
   55.7920   22.8410   44.3710 O   0  0  0  0  0  0  0  0  0  0  0  0
   56.3090   24.8580   45.5090 C   0  0  0  0  0  0  0  0  0  0  0  0
   57.7020   24.6770   45.4920 C   0  0  0  0  0  0  0  0  0  0  0  0
   58.5620   25.7450   45.7580 C   0  0  0  0  0  0  0  0  0  0  0  0
   58.0490   27.0170   46.0580 C   0  0  0  0  0  0  0  0  0  0  0  0
   58.9640   28.1530   46.3390 C   0  0  0  0  0  0  0  0  0  0  0  0
   59.6530   28.2290   47.5610 C   0  0  0  0  0  0  0  0  0  0  0  0
   60.5160   29.2960   47.8270 C   0  0  0  0  0  0  0  0  0  0  0  0
   60.7060   30.3140   46.8760 C   0  0  0  0  0  0  0  0  0  0  0  0
   61.6200   31.4460   47.1540 C   0  0  0  0  0  0  0  0  0  0  0  0
   62.8620   31.2460   47.2530 O   0  0  0  0  0  0  0  0  0  0  0  0
   61.1040   32.7780   47.2770 N   0  0  0  0  0  0  0  0  0  0  0  0
   59.8430   33.2110   46.7520 C   0  0  0  0  0  0  0  0  0  0  0  0
   59.8180   33.8220   45.4910 C   0  0  0  0  0  0  0  0  0  0  0  0
   58.6090   34.2590   44.9410 C   0  0  0  0  0  0  0  0  0  0  0  0
   57.4150   34.0720   45.6400 C   0  0  0  0  0  0  0  0  0  0  0  0
   57.4250   33.4350   46.8830 C   0  0  0  0  0  0  0  0  0  0  0  0
   58.6300   32.9940   47.4420 C   0  0  0  0  0  0  0  0  0  0  0  0
   58.5690   32.0920   48.9530 Cl  0  0  0  0  0  0  0  0  0  0  0  0
   60.0160   30.2380   45.6530 C   0  0  0  0  0  0  0  0  0  0  0  0
   59.1550   29.1700   45.3880 C   0  0  0  0  0  0  0  0  0  0  0  0
   56.6550   27.1960   46.0940 C   0  0  0  0  0  0  0  0  0  0  0  0
   55.7900   26.1280   45.8320 C   0  0  0  0  0  0  0  0  0  0  0  0
   54.4180   26.3390   45.9260 O   0  0  0  0  0  0  0  0  0  0  0  0
   53.5630   22.7250   45.6540 H   0  0  0  0  0  0  0  0  0  0  0  0
   53.7300   24.3510   46.3920 H   0  0  0  0  0  0  0  0  0  0  0  0
   58.1195   23.6845   45.2670 H   0  0  0  0  0  0  0  0  0  0  0  0
   59.6505   25.5882   45.7322 H   0  0  0  0  0  0  0  0  0  0  0  0
   59.5120   27.4413   48.3157 H   0  0  0  0  0  0  0  0  0  0  0  0
   61.0504   29.3395   48.7875 H   0  0  0  0  0  0  0  0  0  0  0  0
   60.7547   33.9586   44.9308 H   0  0  0  0  0  0  0  0  0  0  0  0
   58.5986   34.7504   43.9569 H   0  0  0  0  0  0  0  0  0  0  0  0
   56.4659   34.4265   45.2116 H   0  0  0  0  0  0  0  0  0  0  0  0
   56.4808   33.2791   47.4255 H   0  0  0  0  0  0  0  0  0  0  0  0
   60.1553   31.0262   44.8985 H   0  0  0  0  0  0  0  0  0  0  0  0
   58.6221   29.1248   44.4268 H   0  0  0  0  0  0  0  0  0  0  0  0
   56.2398   28.1867   46.3308 H   0  0  0  0  0  0  0  0  0  0  0  0
  1  2  1  0
  2  3  2  0
  2  4  1  0
  4  5  2  0
  5  6  1  0
  6  7  2  0
  7  8  1  0
  8  9  2  0
  9 10  1  0
 10 11  2  0
 11 12  1  0
 12 13  2  0
 12 14  1  0
 14 15  1  0
 15 16  2  0
 16 17  1  0
 17 18  2  0
 18 19  1  0
 19 20  2  0
 20 21  1  0
 11 22  1  0
 22 23  2  0
  7 24  1  0
 24 25  2  0
 25 26  1  0
 25  4  1  0
 23  8  1  0
 20 15  1  0
  1 27  1  0
  1 28  1  0
  5 29  1  0
  6 30  1  0
  9 31  1  0
 10 32  1  0
 16 33  1  0
 17 34  1  0
 18 35  1  0
 19 36  1  0
 22 37  1  0
 23 38  1  0
 24 39  1  0
M  CHG  2  14  -1  26  -1
M  END
>  <UniqueID>  (19) 
18

>  <SMILES>  (19) 
NC(=O)c1ccc(-c2ccc(C(=O)[N-]c3ccccc3Cl)cc2)cc1[O-]

>  <Energy>  (19) 
58.62058552784957

>  <Genealogy>  (19) 
NC(=O)c1ccc(-c2ccc(C(=O)[N-]c3ccccc3Cl)cc2)cc1[O-] (protonated)
NC(=O)c1ccc(-c2ccc(C(=O)[N-]c3ccccc3Cl)cc2)cc1[O-] (3D coordinates assigned)
NC(=O)c1ccc(-c2ccc(C(=O)[N-]c3ccccc3Cl)cc2)cc1[O-] (optimized conformer: 58.62058552784957 kcal/mol)

>  <smiles>  (19) 
NC(=O)c1ccc(-c2ccc(C(=O)Nc3ccccc3Cl)cc2)cc1O

>  <score_type>  (19) 
oracle

>  <origin>  (19) 
adg

>  <m_score__min__energy>  (19) 
-12.300000000000001

>  <m_primary>  (19) 
energy

$$$$
20:0
     RDKit          3D

 65 69  0  0  0  0  0  0  0  0999 V2000
   57.0200   32.4700   45.8100 O   0  0  0  0  0  0  0  0  0  0  0  0
   58.1370   31.9430   45.5600 C   0  0  0  0  0  0  0  0  0  0  0  0
   59.3310   32.7350   45.5990 N   0  0  0  0  0  0  0  0  0  0  0  0
   59.4030   34.0160   46.2970 C   0  0  0  0  0  0  0  0  0  0  0  0
   59.9640   33.8070   47.6750 C   0  0  0  0  0  0  0  0  0  0  0  0
   59.1560   33.2570   48.6820 C   0  0  0  0  0  0  0  0  0  0  0  0
   59.6550   33.0910   49.9750 C   0  0  0  0  0  0  0  0  0  0  0  0
   60.9700   33.4690   50.2780 C   0  0  0  0  0  0  0  0  0  0  0  0
   61.4900   33.2510   51.6390 C   0  0  0  0  0  0  0  0  0  0  0  0
   60.8810   33.7930   52.6020 O   0  0  0  0  0  0  0  0  0  0  0  0
   62.6200   32.3830   51.8850 N   0  0  0  0  0  0  0  0  0  0  0  0
   63.3720   31.8000   50.7600 C   0  0  0  0  0  0  0  0  0  0  0  0
   64.3920   30.7520   51.2300 C   0  0  0  0  0  0  0  0  0  0  0  0
   63.7800   29.8710   52.2310 N   0  0  0  0  0  0  0  0  0  0  0  0
   64.0160   28.4510   52.1840 C   0  0  0  0  0  0  0  0  0  0  0  0
   65.1000   28.0080   51.7150 O   0  0  0  0  0  0  0  0  0  0  0  0
   62.9950   27.4850   52.7150 C   0  0  0  0  0  0  0  0  0  0  0  0
   62.9600   26.1260   52.0260 C   0  0  0  0  0  0  0  0  0  0  0  0
   61.8890   27.1590   51.7160 C   0  0  0  0  0  0  0  0  0  0  0  0
   62.9980   30.4460   53.3380 C   0  0  0  0  0  0  0  0  0  0  0  0
   62.9630   31.9740   53.2570 C   0  0  0  0  0  0  0  0  0  0  0  0
   61.7710   34.0460   49.2830 C   0  0  0  0  0  0  0  0  0  0  0  0
   61.2700   34.2200   47.9890 C   0  0  0  0  0  0  0  0  0  0  0  0
   58.2300   30.5390   45.2690 N   0  0  0  0  0  0  0  0  0  0  0  0
   57.1020   29.7360   44.8760 C   0  0  0  0  0  0  0  0  0  0  0  0
   55.9890   30.2860   44.6480 O   0  0  0  0  0  0  0  0  0  0  0  0
   57.2140   28.2640   44.7300 C   0  0  0  0  0  0  0  0  0  0  0  0
   57.7850   27.7220   43.5650 C   0  0  0  0  0  0  0  0  0  0  0  0
   57.9000   26.3380   43.4040 C   0  0  0  0  0  0  0  0  0  0  0  0
   57.4530   25.4620   44.4080 C   0  0  0  0  0  0  0  0  0  0  0  0
   57.5710   24.0340   44.2390 N   0  0  0  0  0  0  0  0  0  0  0  0
   56.8430   23.2490   43.4230 C   0  0  0  0  0  0  0  0  0  0  0  0
   57.2760   21.9540   43.5750 C   0  0  0  0  0  0  0  0  0  0  0  0
   58.2750   21.9160   44.4800 N   0  0  0  0  0  0  0  0  0  0  0  0
   58.4260   23.2000   44.8650 C   0  0  0  0  0  0  0  0  0  0  0  0
   56.8990   26.0020   45.5810 C   0  0  0  0  0  0  0  0  0  0  0  0
   56.7850   27.3880   45.7430 C   0  0  0  0  0  0  0  0  0  0  0  0
   60.2240   32.2990   45.2800 H   0  0  0  0  0  0  0  0  0  0  0  0
   60.0546   34.7024   45.7365 H   0  0  0  0  0  0  0  0  0  0  0  0
   58.3942   34.4476   46.3744 H   0  0  0  0  0  0  0  0  0  0  0  0
   58.1238   32.9551   48.4511 H   0  0  0  0  0  0  0  0  0  0  0  0
   59.0137   32.6619   50.7590 H   0  0  0  0  0  0  0  0  0  0  0  0
   62.6627   31.3203   50.0696 H   0  0  0  0  0  0  0  0  0  0  0  0
   63.9238   32.6119   50.2637 H   0  0  0  0  0  0  0  0  0  0  0  0
   64.7211   30.1519   50.3688 H   0  0  0  0  0  0  0  0  0  0  0  0
   65.2557   31.2642   51.6791 H   0  0  0  0  0  0  0  0  0  0  0  0
   63.0441   27.8168   53.7626 H   0  0  0  0  0  0  0  0  0  0  0  0
   63.7166   25.8744   51.2682 H   0  0  0  0  0  0  0  0  0  0  0  0
   62.9552   25.0809   52.3691 H   0  0  0  0  0  0  0  0  0  0  0  0
   61.8711   27.6549   50.7343 H   0  0  0  0  0  0  0  0  0  0  0  0
   60.7894   27.1708   51.7422 H   0  0  0  0  0  0  0  0  0  0  0  0
   61.9689   30.0606   53.2882 H   0  0  0  0  0  0  0  0  0  0  0  0
   63.4748   30.1587   54.2867 H   0  0  0  0  0  0  0  0  0  0  0  0
   62.2066   32.3613   53.9554 H   0  0  0  0  0  0  0  0  0  0  0  0
   63.9499   32.3790   53.5253 H   0  0  0  0  0  0  0  0  0  0  0  0
   62.7971   34.3630   49.5207 H   0  0  0  0  0  0  0  0  0  0  0  0
   61.9002   34.6816   47.2145 H   0  0  0  0  0  0  0  0  0  0  0  0
   59.1610   30.0910   45.4130 H   0  0  0  0  0  0  0  0  0  0  0  0
   58.1450   28.3939   42.7720 H   0  0  0  0  0  0  0  0  0  0  0  0
   58.3442   25.9312   42.4836 H   0  0  0  0  0  0  0  0  0  0  0  0
   56.0402   23.5861   42.7507 H   0  0  0  0  0  0  0  0  0  0  0  0
   56.8702   21.0823   43.0407 H   0  0  0  0  0  0  0  0  0  0  0  0
   59.1660   23.5307   45.6086 H   0  0  0  0  0  0  0  0  0  0  0  0
   56.5517   25.3296   46.3793 H   0  0  0  0  0  0  0  0  0  0  0  0
   56.3562   27.7952   46.6706 H   0  0  0  0  0  0  0  0  0  0  0  0
  1  2  2  0
  2  3  1  0
  3  4  1  0
  4  5  1  0
  5  6  2  0
  6  7  1  0
  7  8  2  0
  8  9  1  0
  9 10  2  0
  9 11  1  0
 11 12  1  0
 12 13  1  0
 13 14  1  0
 14 15  1  0
 15 16  2  0
 15 17  1  0
 17 18  1  0
 18 19  1  0
 14 20  1  0
 20 21  1  0
  8 22  1  0
 22 23  2  0
  2 24  1  0
 24 25  1  0
 25 26  2  0
 25 27  1  0
 27 28  2  0
 28 29  1  0
 29 30  2  0
 30 31  1  0
 31 32  1  0
 32 33  2  0
 33 34  1  0
 34 35  2  0
 30 36  1  0
 36 37  2  0
 23  5  1  0
 37 27  1  0
 21 11  1  0
 35 31  1  0
 19 17  1  0
  3 38  1  0
  4 39  1  0
  4 40  1  0
  6 41  1  0
  7 42  1  0
 12 43  1  0
 12 44  1  0
 13 45  1  0
 13 46  1  0
 17 47  1  0
 18 48  1  0
 18 49  1  0
 19 50  1  0
 19 51  1  0
 20 52  1  0
 20 53  1  0
 21 54  1  0
 21 55  1  0
 22 56  1  0
 23 57  1  0
 24 58  1  0
 28 59  1  0
 29 60  1  0
 32 61  1  0
 33 62  1  0
 35 63  1  0
 36 64  1  0
 37 65  1  0
M  END
>  <UniqueID>  (20) 
19

>  <SMILES>  (20) 
O=C(NCc1ccc(C(=O)N2CCN(C(=O)C3CC3)CC2)cc1)NC(=O)c1ccc(-n2ccnc2)cc1

>  <Energy>  (20) 
374.9710323793281

>  <Genealogy>  (20) 
O=C(NCc1ccc(C(=O)N2CCN(C(=O)C3CC3)CC2)cc1)NC(=O)c1ccc(-n2ccnc2)cc1 (3D coordinates assigned)
O=C(NCc1ccc(C(=O)N2CCN(C(=O)C3CC3)CC2)cc1)NC(=O)c1ccc(-n2ccnc2)cc1 (nonaromatic ring conformer: 374.9710323793281 kcal/mol)

>  <smiles>  (20) 
O=C(NCc1ccc(C(=O)N2CCN(C(=O)C3CC3)CC2)cc1)NC(=O)c1ccc(-n2ccnc2)cc1

>  <score_type>  (20) 
oracle

>  <origin>  (20) 
adg

>  <m_score__min__energy>  (20) 
-8.5700000000000003

>  <m_primary>  (20) 
energy

$$$$
21:0
     RDKit          3D

 63 67  0  0  0  0  0  0  0  0999 V2000
   58.8980   34.8980   53.8000 C   0  0  0  0  0  0  0  0  0  0  0  0
   59.4260   33.7040   53.5280 C   0  0  0  0  0  0  0  0  0  0  0  0
   58.6220   32.5630   53.0340 C   0  0  0  0  0  0  0  0  0  0  0  0
   57.7130   31.9630   53.9190 C   0  0  0  0  0  0  0  0  0  0  0  0
   56.9060   30.9030   53.5010 C   0  0  0  0  0  0  0  0  0  0  0  0
   57.0080   30.4210   52.1950 C   0  0  0  0  0  0  0  0  0  0  0  0
   57.9310   30.9830   51.3120 C   0  0  0  0  0  0  0  0  0  0  0  0
   58.7510   32.0510   51.7180 C   0  0  0  0  0  0  0  0  0  0  0  0
   59.7900   32.5240   50.8390 N   0  0  0  0  0  0  0  0  0  0  0  0
   61.1120   31.9100   50.9010 C   0  0  0  0  0  0  0  0  0  0  0  0
   61.2330   30.8990   49.7660 C   0  0  0  0  0  0  0  0  0  0  0  0
   60.8470   31.5020   48.4820 N   0  0  0  0  0  0  0  0  0  0  0  0
   61.3780   30.8950   47.2900 C   0  0  0  0  0  0  0  0  0  0  0  0
   62.6250   30.8370   47.1520 O   0  0  0  0  0  0  0  0  0  0  0  0
   60.4530   30.2540   46.2680 C   0  0  2  0  0  0  0  0  0  0  0  0
   61.2230   29.4080   45.2280 C   0  0  0  0  0  0  0  0  0  0  0  0
   60.3920   28.3050   44.5970 C   0  0  0  0  0  0  0  0  0  0  0  0
   59.0350   28.3470   45.1290 N   0  0  0  0  0  0  0  0  0  0  0  0
   58.3820   27.2530   45.7550 C   0  0  0  0  0  0  0  0  0  0  0  0
   58.9810   26.2070   46.4620 C   0  0  0  0  0  0  0  0  0  0  0  0
   58.1550   25.1990   46.9900 C   0  0  0  0  0  0  0  0  0  0  0  0
   56.7600   25.2570   46.8130 C   0  0  0  0  0  0  0  0  0  0  0  0
   56.1820   26.3440   46.1320 C   0  0  0  0  0  0  0  0  0  0  0  0
   54.8030   26.4260   45.9760 O   0  0  0  0  0  0  0  0  0  0  0  0
   57.0230   27.3380   45.6180 C   0  0  0  0  0  0  0  0  0  0  0  0
   56.6540   28.5560   44.8450 C   0  0  0  0  0  0  0  0  0  0  0  0
   58.0220   29.2550   44.5830 C   0  0  1  0  0  0  0  0  0  0  0  0
   58.0590   30.5780   45.2480 N   0  0  0  0  0  0  0  0  0  0  0  0
   57.0510   31.5310   44.7350 C   0  0  0  0  0  0  0  0  0  0  0  0
   59.3700   31.1780   45.6210 C   0  0  0  0  0  0  0  0  0  0  0  0
   59.6420   32.3510   48.3870 C   0  0  0  0  0  0  0  0  0  0  0  0
   59.4720   33.2590   49.6140 C   0  0  0  0  0  0  0  0  0  0  0  0
   59.5402   35.7131   54.1650 H   0  0  0  0  0  0  0  0  0  0  0  0
   57.8203   35.0678   53.6593 H   0  0  0  0  0  0  0  0  0  0  0  0
   60.5063   33.5605   53.6772 H   0  0  0  0  0  0  0  0  0  0  0  0
   57.6355   32.3315   54.9525 H   0  0  0  0  0  0  0  0  0  0  0  0
   56.1898   30.4478   54.2009 H   0  0  0  0  0  0  0  0  0  0  0  0
   56.3600   29.5971   51.8614 H   0  0  0  0  0  0  0  0  0  0  0  0
   58.0179   30.5871   50.2894 H   0  0  0  0  0  0  0  0  0  0  0  0
   61.8856   32.6843   50.7915 H   0  0  0  0  0  0  0  0  0  0  0  0
   61.2469   31.4057   51.8692 H   0  0  0  0  0  0  0  0  0  0  0  0
   62.2750   30.5524   49.7022 H   0  0  0  0  0  0  0  0  0  0  0  0
   60.5590   30.0550   49.9743 H   0  0  0  0  0  0  0  0  0  0  0  0
   59.8442   29.5696   46.8771 H   0  0  0  0  0  0  0  0  0  0  0  0
   61.5747   30.0772   44.4289 H   0  0  0  0  0  0  0  0  0  0  0  0
   62.0503   28.9188   45.7631 H   0  0  0  0  0  0  0  0  0  0  0  0
   60.3620   28.4479   43.5067 H   0  0  0  0  0  0  0  0  0  0  0  0
   60.8445   27.3296   44.8292 H   0  0  0  0  0  0  0  0  0  0  0  0
   60.0715   26.1730   46.6020 H   0  0  0  0  0  0  0  0  0  0  0  0
   58.6016   24.3605   47.5445 H   0  0  0  0  0  0  0  0  0  0  0  0
   56.1216   24.4525   47.2071 H   0  0  0  0  0  0  0  0  0  0  0  0
   56.1636   28.2861   43.8981 H   0  0  0  0  0  0  0  0  0  0  0  0
   55.9410   29.2008   45.3797 H   0  0  0  0  0  0  0  0  0  0  0  0
   58.1968   29.4439   43.5135 H   0  0  0  0  0  0  0  0  0  0  0  0
   56.5397   32.0144   45.5805 H   0  0  0  0  0  0  0  0  0  0  0  0
   57.5488   32.2963   44.1215 H   0  0  0  0  0  0  0  0  0  0  0  0
   56.3148   30.9911   44.1215 H   0  0  0  0  0  0  0  0  0  0  0  0
   59.8076   31.5993   44.7040 H   0  0  0  0  0  0  0  0  0  0  0  0
   59.1217   31.8997   46.4132 H   0  0  0  0  0  0  0  0  0  0  0  0
   59.7228   32.9810   47.4889 H   0  0  0  0  0  0  0  0  0  0  0  0
   58.7659   31.6880   48.3344 H   0  0  0  0  0  0  0  0  0  0  0  0
   60.1480   34.1220   49.5230 H   0  0  0  0  0  0  0  0  0  0  0  0
   58.4278   33.6012   49.6634 H   0  0  0  0  0  0  0  0  0  0  0  0
  1  2  2  0
  2  3  1  0
  3  4  2  0
  4  5  1  0
  5  6  2  0
  6  7  1  0
  7  8  2  0
  8  9  1  0
  9 10  1  0
 10 11  1  0
 11 12  1  0
 12 13  1  0
 13 14  2  0
 13 15  1  0
 15 16  1  0
 16 17  1  0
 17 18  1  0
 18 19  1  0
 19 20  2  0
 20 21  1  0
 21 22  2  0
 22 23  1  0
 23 24  1  0
 23 25  2  0
 25 26  1  0
 26 27  1  0
 27 28  1  0
 28 29  1  0
 28 30  1  0
 12 31  1  0
 31 32  1  0
  8  3  1  0
 32  9  1  0
 30 15  1  0
 27 18  1  0
 25 19  1  0
  1 33  1  0
  1 34  1  0
  2 35  1  0
  4 36  1  0
  5 37  1  0
  6 38  1  0
  7 39  1  0
 10 40  1  0
 10 41  1  0
 11 42  1  0
 11 43  1  0
 15 44  1  1
 16 45  1  0
 16 46  1  0
 17 47  1  0
 17 48  1  0
 20 49  1  0
 21 50  1  0
 22 51  1  0
 26 52  1  0
 26 53  1  0
 27 54  1  6
 29 55  1  0
 29 56  1  0
 29 57  1  0
 30 58  1  0
 30 59  1  0
 31 60  1  0
 31 61  1  0
 32 62  1  0
 32 63  1  0
M  CHG  1  24  -1
M  END
>  <UniqueID>  (21) 
20

>  <SMILES>  (21) 
C=Cc1ccccc1N1CCN(C(=O)[C@@H]2CCN3c4cccc([O-])c4C[C@H]3N(C)C2)CC1

>  <Energy>  (21) 
114.84992751413884

>  <Genealogy>  (21) 
C=Cc1ccccc1N1CCN(C(=O)C2CCN3c4cccc([O-])c4CC3N(C)C2)CC1 (protonated)
C=Cc1ccccc1N1CCN(C(=O)[C@@H]2CCN3c4cccc([O-])c4C[C@H]3N(C)C2)CC1 (chirality)
C=Cc1ccccc1N1CCN(C(=O)[C@@H]2CCN3c4cccc([O-])c4C[C@H]3N(C)C2)CC1 (3D coordinates assigned)
C=Cc1ccccc1N1CCN(C(=O)[C@@H]2CCN3c4cccc([O-])c4C[C@H]3N(C)C2)CC1 (nonaromatic ring conformer: 114.84992751413884 kcal/mol)

>  <smiles>  (21) 
C=Cc1ccccc1N1CCN(C(=O)C2CCN3c4cccc(O)c4CC3N(C)C2)CC1

>  <score_type>  (21) 
oracle

>  <origin>  (21) 
adg

>  <m_score__min__energy>  (21) 
-9.5500000000000007

>  <m_primary>  (21) 
energy

$$$$
22:0
     RDKit          3D

 66 70  0  0  0  0  0  0  0  0999 V2000
   58.1548   28.5266   47.2017 H   0  0  0  0  0  0  0  0  0  0  0  0
   57.8430   28.9510   46.2360 C   0  0  0  0  0  0  0  0  0  0  0  0
   57.7450   30.2970   46.0800 N   0  0  0  0  0  0  0  0  0  0  0  0
   57.3460   30.8550   44.9050 C   0  0  0  0  0  0  0  0  0  0  0  0
   57.2840   32.1480   44.7540 N   0  0  0  0  0  0  0  0  0  0  0  0
   58.1830   33.1140   45.3280 C   0  0  0  0  0  0  0  0  0  0  0  0
   58.4060   34.3120   44.6440 C   0  0  0  0  0  0  0  0  0  0  0  0
   57.8756   34.5116   43.7012 H   0  0  0  0  0  0  0  0  0  0  0  0
   59.3000   35.2570   45.1530 C   0  0  0  0  0  0  0  0  0  0  0  0
   59.4872   36.1884   44.5985 H   0  0  0  0  0  0  0  0  0  0  0  0
   59.9570   35.0240   46.3630 C   0  0  0  0  0  0  0  0  0  0  0  0
   60.6824   35.7591   46.7416 H   0  0  0  0  0  0  0  0  0  0  0  0
   59.6970   33.8560   47.1000 C   0  0  0  0  0  0  0  0  0  0  0  0
   60.3860   33.5980   48.3890 C   0  0  0  0  0  0  0  0  0  0  0  0
   61.3750   34.3120   48.7140 O   0  0  0  0  0  0  0  0  0  0  0  0
   59.9360   32.5740   49.2940 N   0  0  0  0  0  0  0  0  0  0  0  0
   59.7710   31.1890   48.8280 C   0  0  0  0  0  0  0  0  0  0  0  0
   59.6913   31.1878   47.7309 H   0  0  0  0  0  0  0  0  0  0  0  0
   60.6446   30.6070   49.1569 H   0  0  0  0  0  0  0  0  0  0  0  0
   58.5060   30.5420   49.4230 C   0  0  0  0  0  0  0  0  0  0  0  0
   57.6622   30.7402   48.7458 H   0  0  0  0  0  0  0  0  0  0  0  0
   58.7121   29.4667   49.5293 H   0  0  0  0  0  0  0  0  0  0  0  0
   58.1410   31.0780   50.8320 C   0  0  0  0  0  0  0  0  0  0  0  0
   57.4309   31.9108   50.7212 H   0  0  0  0  0  0  0  0  0  0  0  0
   57.4400   30.0320   51.6240 N   0  0  0  0  0  0  0  0  0  0  0  0
   58.2140   29.4410   52.7430 C   0  0  0  0  0  0  0  0  0  0  0  0
   58.1481   28.3447   52.6821 H   0  0  0  0  0  0  0  0  0  0  0  0
   59.2571   29.7789   52.6544 H   0  0  0  0  0  0  0  0  0  0  0  0
   57.6760   29.8980   54.1120 C   0  0  0  0  0  0  0  0  0  0  0  0
   58.2618   29.3984   54.8976 H   0  0  0  0  0  0  0  0  0  0  0  0
   57.7730   30.9933   54.1413 H   0  0  0  0  0  0  0  0  0  0  0  0
   56.3000   29.6020   54.3240 O   0  0  0  0  0  0  0  0  0  0  0  0
   55.5350   29.5280   53.1280 C   0  0  0  0  0  0  0  0  0  0  0  0
   55.5426   28.4866   52.7740 H   0  0  0  0  0  0  0  0  0  0  0  0
   54.5213   29.8794   53.3707 H   0  0  0  0  0  0  0  0  0  0  0  0
   56.0670   30.4280   52.0020 C   0  0  0  0  0  0  0  0  0  0  0  0
   55.4098   30.3360   51.1247 H   0  0  0  0  0  0  0  0  0  0  0  0
   56.0834   31.4687   52.3578 H   0  0  0  0  0  0  0  0  0  0  0  0
   59.3700   31.6890   51.5490 C   0  0  0  0  0  0  0  0  0  0  0  0
   59.0730   32.0401   52.5483 H   0  0  0  0  0  0  0  0  0  0  0  0
   60.1539   30.9232   51.6441 H   0  0  0  0  0  0  0  0  0  0  0  0
   59.9110   32.8710   50.7330 C   0  0  0  0  0  0  0  0  0  0  0  0
   59.2677   33.7466   50.9048 H   0  0  0  0  0  0  0  0  0  0  0  0
   60.9427   33.0686   51.0596 H   0  0  0  0  0  0  0  0  0  0  0  0
   58.8030   32.9040   46.5740 C   0  0  0  0  0  0  0  0  0  0  0  0
   58.5870   31.9873   47.1423 H   0  0  0  0  0  0  0  0  0  0  0  0
   57.0390   30.0160   43.8300 C   0  0  0  0  0  0  0  0  0  0  0  0
   56.7149   30.4423   42.8692 H   0  0  0  0  0  0  0  0  0  0  0  0
   57.1440   28.6700   43.9810 N   0  0  0  0  0  0  0  0  0  0  0  0
   57.5430   28.1040   45.1540 C   0  0  0  0  0  0  0  0  0  0  0  0
   57.6320   26.6240   45.2630 C   0  0  0  0  0  0  0  0  0  0  0  0
   57.6640   26.0150   46.5320 C   0  0  0  0  0  0  0  0  0  0  0  0
   57.6161   26.6389   47.4367 H   0  0  0  0  0  0  0  0  0  0  0  0
   57.7560   24.6250   46.6540 C   0  0  0  0  0  0  0  0  0  0  0  0
   57.7908   24.1633   47.6518 H   0  0  0  0  0  0  0  0  0  0  0  0
   57.8040   23.8190   45.5100 C   0  0  0  0  0  0  0  0  0  0  0  0
   57.9450   22.0710   45.6610 S   0  0  0  0  0  0  0  0  0  0  0  0
   57.4610   21.6340   47.0160 O   0  0  0  0  0  0  0  0  0  0  0  0
   57.1040   21.4000   44.6120 O   0  0  0  0  0  0  0  0  0  0  0  0
   59.5970   21.6030   45.4610 N   0  0  0  0  0  0  0  0  0  0  0  0
   59.7420   21.4240   44.4410 H   0  0  0  0  0  0  0  0  0  0  0  0
   59.7150   20.6870   45.9480 H   0  0  0  0  0  0  0  0  0  0  0  0
   57.7640   24.4130   44.2430 C   0  0  0  0  0  0  0  0  0  0  0  0
   57.8059   23.7838   43.3417 H   0  0  0  0  0  0  0  0  0  0  0  0
   57.6710   25.8020   44.1180 C   0  0  0  0  0  0  0  0  0  0  0  0
   57.6279   26.2578   43.1178 H   0  0  0  0  0  0  0  0  0  0  0  0
  1  2  1  0
  2  3  1  0
  3  4  1  0
  4  5  2  0
  5  6  1  0
  6  7  2  0
  7  8  1  0
  7  9  1  0
  9 10  1  0
  9 11  2  0
 11 12  1  0
 11 13  1  0
 13 14  1  0
 14 15  2  0
 14 16  1  0
 16 17  1  0
 17 18  1  0
 17 19  1  0
 17 20  1  0
 20 21  1  0
 20 22  1  0
 20 23  1  0
 23 24  1  0
 23 25  1  0
 25 26  1  0
 26 27  1  0
 26 28  1  0
 26 29  1  0
 29 30  1  0
 29 31  1  0
 29 32  1  0
 32 33  1  0
 33 34  1  0
 33 35  1  0
 33 36  1  0
 36 37  1  0
 36 38  1  0
 23 39  1  0
 39 40  1  0
 39 41  1  0
 39 42  1  0
 42 43  1  0
 42 44  1  0
 13 45  2  0
 45 46  1  0
  4 47  1  0
 47 48  1  0
 47 49  2  0
 49 50  1  0
 50 51  1  0
 51 52  2  0
 52 53  1  0
 52 54  1  0
 54 55  1  0
 54 56  2  0
 56 57  1  0
 57 58  2  0
 57 59  2  0
 57 60  1  0
 60 61  1  0
 60 62  1  0
 56 63  1  0
 63 64  1  0
 63 65  2  0
 65 66  1  0
 50  2  2  0
 65 51  1  0
 45  6  1  0
 42 16  1  0
 36 25  1  0
M  CHG  1   3  -1
M  END
>  <UniqueID>  (22) 
21

>  <SMILES>  (22) 
NS(=O)(=O)c1ccc(-c2c[n-]/c(=N\c3cccc(C(=O)N4CCC(N5CCOCC5)CC4)c3)cn2)cc1

>  <Energy>  (22) 
106.68557752498924

>  <Genealogy>  (22) 
NS(=O)(=O)c1ccc(-c2c[n-]c(=Nc3cccc(C(=O)N4CCC(N5CCOCC5)CC4)c3)cn2)cc1 (protonated)
NS(=O)(=O)c1ccc(-c2c[n-]/c(=N\c3cccc(C(=O)N4CCC(N5CCOCC5)CC4)c3)cn2)cc1 (cis-trans isomerization)
NS(=O)(=O)c1ccc(-c2c[n-]/c(=N\c3cccc(C(=O)N4CCC(N5CCOCC5)CC4)c3)cn2)cc1 (3D coordinates assigned)
NS(=O)(=O)c1ccc(-c2c[n-]/c(=N\c3cccc(C(=O)N4CCC(N5CCOCC5)CC4)c3)cn2)cc1 (nonaromatic ring conformer: 106.68557752498924 kcal/mol)

>  <smiles>  (22) 
NS(=O)(=O)c1ccc(-c2c[nH]c(=Nc3cccc(C(=O)N4CCC(N5CCOCC5)CC4)c3)cn2)cc1

>  <score_type>  (22) 
oracle

>  <origin>  (22) 
adg

>  <m_score__min__energy>  (22) 
-12.91

>  <m_primary>  (22) 
energy

$$$$
23:0
     RDKit          3D

 42 44  0  0  0  0  0  0  0  0999 V2000
   54.5850   26.6830   46.6250 H   0  0  0  0  0  0  0  0  0  0  0  0
   56.6710   30.8050   44.5950 N   0  0  0  0  0  0  0  0  0  0  0  0
   56.9260   29.6310   45.0920 C   0  0  0  0  0  0  0  0  0  0  0  0
   57.5330   27.1510   46.0350 N   0  0  0  0  0  0  0  0  0  0  0  0
   58.5140   28.0750   45.8740 C   0  0  0  0  0  0  0  0  0  0  0  0
   59.9450   27.7080   46.1130 C   0  0  0  0  0  0  0  0  0  0  0  0
   60.0950   27.5388   47.1895 H   0  0  0  0  0  0  0  0  0  0  0  0
   60.1672   26.7974   45.5372 H   0  0  0  0  0  0  0  0  0  0  0  0
   61.0830   29.0300   45.5550 S   0  0  0  0  0  0  0  0  0  0  0  0
   60.5990   30.2120   46.8120 C   0  0  0  0  0  0  0  0  0  0  0  0
   61.0730   31.4850   46.7700 N   0  0  0  0  0  0  0  0  0  0  0  0
   60.7720   32.3780   47.7510 C   0  0  0  0  0  0  0  0  0  0  0  0
   61.3750   33.7540   47.7120 C   0  0  0  0  0  0  0  0  0  0  0  0
   60.6040   34.4728   47.3976 H   0  0  0  0  0  0  0  0  0  0  0  0
   61.7492   33.9942   48.7181 H   0  0  0  0  0  0  0  0  0  0  0  0
   62.5540   33.8270   46.7310 C   0  0  0  0  0  0  0  0  0  0  0  0
   62.2324   33.4162   45.7626 H   0  0  0  0  0  0  0  0  0  0  0  0
   62.8513   34.8826   46.6454 H   0  0  0  0  0  0  0  0  0  0  0  0
   63.7720   33.0410   47.2160 C   0  0  0  0  0  0  0  0  0  0  0  0
   63.7877   33.0309   48.3158 H   0  0  0  0  0  0  0  0  0  0  0  0
   63.7154   32.0086   46.8406 H   0  0  0  0  0  0  0  0  0  0  0  0
   64.6894   33.5179   46.8406 H   0  0  0  0  0  0  0  0  0  0  0  0
   59.9670   31.9790   48.8250 C   0  0  0  0  0  0  0  0  0  0  0  0
   59.7164   32.6831   49.6322 H   0  0  0  0  0  0  0  0  0  0  0  0
   59.4900   30.6680   48.8480 C   0  0  0  0  0  0  0  0  0  0  0  0
   58.7650   30.2750   49.7980 O   0  0  0  0  0  0  0  0  0  0  0  0
   59.8140   29.8120   47.8470 N   0  0  0  0  0  0  0  0  0  0  0  0
   58.2090   29.3080   45.3950 N   0  0  0  0  0  0  0  0  0  0  0  0
   56.2480   27.4640   45.7320 C   0  0  0  0  0  0  0  0  0  0  0  0
   55.3170   26.5810   45.8870 N   0  0  0  0  0  0  0  0  0  0  0  0
   57.3640   32.0310   44.8790 C   0  0  0  0  0  0  0  0  0  0  0  0
   57.3400   32.6240   46.1560 C   0  0  0  0  0  0  0  0  0  0  0  0
   56.7561   32.1605   46.9649 H   0  0  0  0  0  0  0  0  0  0  0  0
   58.0560   33.8000   46.3990 C   0  0  0  0  0  0  0  0  0  0  0  0
   58.0237   34.2667   47.3945 H   0  0  0  0  0  0  0  0  0  0  0  0
   58.8120   34.3830   45.3800 C   0  0  0  0  0  0  0  0  0  0  0  0
   59.3659   35.3141   45.5702 H   0  0  0  0  0  0  0  0  0  0  0  0
   58.8650   33.7840   44.1190 C   0  0  0  0  0  0  0  0  0  0  0  0
   59.4681   34.2387   43.3193 H   0  0  0  0  0  0  0  0  0  0  0  0
   58.1520   32.6070   43.8730 C   0  0  0  0  0  0  0  0  0  0  0  0
   58.2097   32.1298   42.8836 H   0  0  0  0  0  0  0  0  0  0  0  0
   55.9480   28.7000   45.2540 N   0  0  0  0  0  0  0  0  0  0  0  0
  1  2  1  0
  2  3  2  0
  3  4  1  0
  4  5  1  0
  5  6  1  0
  6  7  1  0
  6  8  1  0
  6  9  1  0
  9 10  1  0
 10 11  2  0
 11 12  1  0
 12 13  1  0
 13 14  1  0
 13 15  1  0
 13 16  1  0
 16 17  1  0
 16 18  1  0
 16 19  1  0
 19 20  1  0
 19 21  1  0
 19 22  1  0
 12 23  2  0
 23 24  1  0
 23 25  1  0
 25 26  2  0
 25 27  1  0
  5 28  2  0
 28 29  1  0
 29 30  2  0
 30 31  1  0
 31 32  2  0
 32 33  1  0
 32 34  1  0
 34 35  1  0
 34 36  2  0
 36 37  1  0
 36 38  1  0
 38 39  1  0
 38 40  2  0
 40 41  1  0
 29 42  1  0
 42  3  1  0
 27 10  1  0
 40 31  1  0
M  CHG  3   4  -1  27  -1  42  -1
M  END
>  <UniqueID>  (23) 
22

>  <SMILES>  (23) 
[H]/N=c1/[n-]c(CSc2nc(CCC)cc(=O)[n-]2)n/c(=N/c2ccccc2)[n-]1

>  <Energy>  (23) 
40.32579319611743

>  <Genealogy>  (23) 
CCCc1cc(=O)[n-]c(SCc2nc(=Nc3ccccc3)[n-]c(=N)[n-]2)n1 (protonated)
[H]/N=c1/[n-]c(CSc2nc(CCC)cc(=O)[n-]2)n/c(=N/c2ccccc2)[n-]1 (cis-trans isomerization)
[H]/N=c1/[n-]c(CSc2nc(CCC)cc(=O)[n-]2)n/c(=N/c2ccccc2)[n-]1 (3D coordinates assigned)
[H]/N=c1/[n-]c(CSc2nc(CCC)cc(=O)[n-]2)n/c(=N/c2ccccc2)[n-]1 (optimized conformer: 40.32579319611743 kcal/mol)

>  <smiles>  (23) 
CCCc1cc(=O)[nH]c(SCc2nc(=Nc3ccccc3)[nH]c(=N)[nH]2)n1

>  <score_type>  (23) 
oracle

>  <origin>  (23) 
adg

>  <m_score__min__energy>  (23) 
-13.390000000000001

>  <m_primary>  (23) 
energy

$$$$
24:0
     RDKit          3D

 40 42  0  0  0  0  0  0  0  0999 V2000
   57.6030   22.7140   45.7030 C   0  0  0  0  0  0  0  0  0  0  0  0
   57.4170   24.0320   45.6940 C   0  0  0  0  0  0  0  0  0  0  0  0
   58.5170   24.9020   45.3980 N   0  0  0  0  0  0  0  0  0  0  0  0
   58.3870   26.1960   45.3680 C   0  0  0  0  0  0  0  0  0  0  0  0
   57.0800   26.8550   45.6260 C   0  0  0  0  0  0  0  0  0  0  0  0
   57.0130   28.3320   45.5800 C   0  0  0  0  0  0  0  0  0  0  0  0
   55.9820   28.8760   45.0970 O   0  0  0  0  0  0  0  0  0  0  0  0
   58.0840   29.1590   46.0770 N   0  0  0  0  0  0  0  0  0  0  0  0
   58.9260   28.7060   47.1970 C   0  0  0  0  0  0  0  0  0  0  0  0
   59.2460   29.8820   48.1240 C   0  0  0  0  0  0  0  0  0  0  0  0
   59.9620   31.0290   47.3770 C   0  0  0  0  0  0  0  0  0  0  0  0
   59.6760   32.3170   48.0220 N   0  0  0  0  0  0  0  0  0  0  0  0
   59.9500   32.6740   49.4140 C   0  0  0  0  0  0  0  0  0  0  0  0
   59.6420   34.1880   49.5340 C   0  0  0  0  0  0  0  0  0  0  0  0
   59.2740   34.6250   48.1960 N   0  0  0  0  0  0  0  0  0  0  0  0
   59.3160   33.5060   47.3460 C   0  0  0  0  0  0  0  0  0  0  0  0
   59.0700   33.5640   46.1130 O   0  0  0  0  0  0  0  0  0  0  0  0
   59.6400   31.0770   45.8630 C   0  0  0  0  0  0  0  0  0  0  0  0
   58.2510   30.5150   45.5340 C   0  0  0  0  0  0  0  0  0  0  0  0
   56.0000   26.1110   45.9420 C   0  0  0  0  0  0  0  0  0  0  0  0
   54.7860   26.7120   46.2620 O   0  0  0  0  0  0  0  0  0  0  0  0
   56.1050   24.6430   45.9800 C   0  0  0  0  0  0  0  0  0  0  0  0
   55.0940   23.9380   46.2410 O   0  0  0  0  0  0  0  0  0  0  0  0
   56.7625   22.0415   45.9295 H   0  0  0  0  0  0  0  0  0  0  0  0
   58.5972   22.2973   45.4840 H   0  0  0  0  0  0  0  0  0  0  0  0
   59.2666   26.8182   45.1461 H   0  0  0  0  0  0  0  0  0  0  0  0
   58.3904   27.9307   47.7645 H   0  0  0  0  0  0  0  0  0  0  0  0
   59.8656   28.2960   46.7981 H   0  0  0  0  0  0  0  0  0  0  0  0
   58.3064   30.2661   48.5478 H   0  0  0  0  0  0  0  0  0  0  0  0
   59.9194   29.5185   48.9142 H   0  0  0  0  0  0  0  0  0  0  0  0
   61.0404   30.8229   47.4453 H   0  0  0  0  0  0  0  0  0  0  0  0
   59.3029   32.0973   50.0912 H   0  0  0  0  0  0  0  0  0  0  0  0
   60.9912   32.4510   49.6902 H   0  0  0  0  0  0  0  0  0  0  0  0
   58.8101   34.3553   50.2339 H   0  0  0  0  0  0  0  0  0  0  0  0
   60.5070   34.7478   49.9191 H   0  0  0  0  0  0  0  0  0  0  0  0
   59.0130   35.5980   47.9180 H   0  0  0  0  0  0  0  0  0  0  0  0
   59.6847   32.1234   45.5269 H   0  0  0  0  0  0  0  0  0  0  0  0
   60.3822   30.4511   45.3459 H   0  0  0  0  0  0  0  0  0  0  0  0
   57.4851   31.1731   45.9703 H   0  0  0  0  0  0  0  0  0  0  0  0
   58.1444   30.4678   44.4402 H   0  0  0  0  0  0  0  0  0  0  0  0
  1  2  2  0
  2  3  1  0
  3  4  2  0
  4  5  1  0
  5  6  1  0
  6  7  2  0
  6  8  1  0
  8  9  1  0
  9 10  1  0
 10 11  1  0
 11 12  1  0
 12 13  1  0
 13 14  1  0
 14 15  1  0
 15 16  1  0
 16 17  2  0
 11 18  1  0
 18 19  1  0
  5 20  2  0
 20 21  1  0
 20 22  1  0
 22 23  2  0
 22  2  1  0
 19  8  1  0
 16 12  1  0
  1 24  1  0
  1 25  1  0
  4 26  1  0
  9 27  1  0
  9 28  1  0
 10 29  1  0
 10 30  1  0
 11 31  1  0
 13 32  1  0
 13 33  1  0
 14 34  1  0
 14 35  1  0
 15 36  1  0
 18 37  1  0
 18 38  1  0
 19 39  1  0
 19 40  1  0
M  CHG  1  21  -1
M  END
>  <UniqueID>  (24) 
23

>  <SMILES>  (24) 
C=C1N=CC(C(=O)N2CCC(N3CCNC3=O)CC2)=C([O-])C1=O

>  <Energy>  (24) 
59.68016521788118

>  <Genealogy>  (24) 
C=C1N=CC(C(=O)N2CCC(N3CCNC3=O)CC2)=C([O-])C1=O (protonated)
C=C1N=CC(C(=O)N2CCC(N3CCNC3=O)CC2)=C([O-])C1=O (3D coordinates assigned)
C=C1N=CC(C(=O)N2CCC(N3CCNC3=O)CC2)=C([O-])C1=O (nonaromatic ring conformer: 59.68016521788118 kcal/mol)

>  <smiles>  (24) 
C=C1N=CC(C(=O)N2CCC(N3CCNC3=O)CC2)=C(O)C1=O

>  <score_type>  (24) 
oracle

>  <origin>  (24) 
adg

>  <m_score__min__energy>  (24) 
-11.18

>  <m_primary>  (24) 
energy

$$$$
25:0
     RDKit          3D

 31 32  0  0  0  0  0  0  0  0999 V2000
   54.8830   22.9330   46.7883 H   0  0  0  0  0  0  0  0  0  0  0  0
   55.4750   23.8600   46.7710 C   0  0  0  0  0  0  0  0  0  0  0  0
   55.1120   25.0030   46.1530 N   0  0  0  0  0  0  0  0  0  0  0  0
   56.1390   25.8430   46.4070 C   0  0  0  0  0  0  0  0  0  0  0  0
   56.1980   27.0730   45.9890 N   0  0  0  0  0  0  0  0  0  0  0  0
   57.3860   27.8730   45.8720 C   0  0  0  0  0  0  0  0  0  0  0  0
   58.3610   27.7120   46.6560 O   0  0  0  0  0  0  0  0  0  0  0  0
   57.4840   28.8790   44.7720 C   0  0  0  0  0  0  0  0  0  0  0  0
   58.4124   29.4574   44.8885 H   0  0  0  0  0  0  0  0  0  0  0  0
   57.4897   28.3571   43.8037 H   0  0  0  0  0  0  0  0  0  0  0  0
   56.3130   29.8060   44.8240 C   0  0  0  0  0  0  0  0  0  0  0  0
   55.1430   29.3360   44.8710 O   0  0  0  0  0  0  0  0  0  0  0  0
   56.5300   31.2190   44.8710 N   0  0  0  0  0  0  0  0  0  0  0  0
   57.6930   31.8780   44.2870 C   0  0  0  0  0  0  0  0  0  0  0  0
   58.4741   31.1289   44.0902 H   0  0  0  0  0  0  0  0  0  0  0  0
   57.3942   32.3658   43.3474 H   0  0  0  0  0  0  0  0  0  0  0  0
   58.2300   32.9190   45.2300 C   0  0  0  0  0  0  0  0  0  0  0  0
   58.1010   32.7450   46.6190 C   0  0  0  0  0  0  0  0  0  0  0  0
   57.5925   31.8533   47.0142 H   0  0  0  0  0  0  0  0  0  0  0  0
   58.6160   33.7000   47.5000 C   0  0  0  0  0  0  0  0  0  0  0  0
   58.5096   33.5597   48.5858 H   0  0  0  0  0  0  0  0  0  0  0  0
   59.2660   34.8330   47.0030 C   0  0  0  0  0  0  0  0  0  0  0  0
   59.6697   35.5845   47.6974 H   0  0  0  0  0  0  0  0  0  0  0  0
   59.4030   35.0110   45.6240 C   0  0  0  0  0  0  0  0  0  0  0  0
   59.9156   35.9028   45.2341 H   0  0  0  0  0  0  0  0  0  0  0  0
   58.8900   34.0580   44.7380 C   0  0  0  0  0  0  0  0  0  0  0  0
   59.0035   34.2004   43.6532 H   0  0  0  0  0  0  0  0  0  0  0  0
   57.1160   25.2850   47.1450 N   0  0  0  0  0  0  0  0  0  0  0  0
   58.0050   25.7270   47.4680 H   0  0  0  0  0  0  0  0  0  0  0  0
   56.7000   24.0310   47.3770 C   0  0  0  0  0  0  0  0  0  0  0  0
   57.2447   23.2687   47.9534 H   0  0  0  0  0  0  0  0  0  0  0  0
  1  2  1  0
  2  3  1  0
  3  4  1  0
  4  5  2  0
  5  6  1  0
  6  7  2  0
  6  8  1  0
  8  9  1  0
  8 10  1  0
  8 11  1  0
 11 12  2  0
 11 13  1  0
 13 14  1  0
 14 15  1  0
 14 16  1  0
 14 17  1  0
 17 18  2  0
 18 19  1  0
 18 20  1  0
 20 21  1  0
 20 22  2  0
 22 23  1  0
 22 24  1  0
 24 25  1  0
 24 26  2  0
 26 27  1  0
  4 28  1  0
 28 29  1  0
 28 30  1  0
 30 31  1  0
 30  2  2  0
 26 17  1  0
M  CHG  2   3  -1  13  -1
M  END
>  <UniqueID>  (25) 
24

>  <SMILES>  (25) 
O=C(CC(=O)[N-]Cc1ccccc1)/N=c1\[n-]cc[nH]1

>  <Energy>  (25) 
56.8580976035912

>  <Genealogy>  (25) 
O=C(CC(=O)[N-]Cc1ccccc1)N=c1[n-]cc[nH]1 (protonated)
O=C(CC(=O)[N-]Cc1ccccc1)/N=c1\[n-]cc[nH]1 (cis-trans isomerization)
O=C(CC(=O)[N-]Cc1ccccc1)/N=c1\[n-]cc[nH]1 (3D coordinates assigned)
O=C(CC(=O)[N-]Cc1ccccc1)/N=c1\[n-]cc[nH]1 (optimized conformer: 56.8580976035912 kcal/mol)

>  <smiles>  (25) 
O=C(CC(=O)NCc1ccccc1)N=c1[nH]cc[nH]1

>  <score_type>  (25) 
oracle

>  <origin>  (25) 
adg

>  <m_score__min__energy>  (25) 
-10.4

>  <m_primary>  (25) 
energy

$$$$
26:0
     RDKit          3D

 45 47  0  0  0  0  0  0  0  0999 V2000
   53.3220   28.8950   53.6080 C   0  0  0  0  0  0  0  0  0  0  0  0
   54.3530   29.5560   53.0570 C   0  0  0  0  0  0  0  0  0  0  0  0
   54.3080   30.4310   51.9590 C   0  0  0  0  0  0  0  0  0  0  0  0
   53.2660   30.9730   51.2990 C   0  0  0  0  0  0  0  0  0  0  0  0
   52.1140   31.6470   51.9160 C   0  0  0  0  0  0  0  0  0  0  0  0
   51.7770   31.5100   53.2100 N   0  0  0  0  0  0  0  0  0  0  0  0
   50.6090   32.1810   53.3030 C   0  0  0  0  0  0  0  0  0  0  0  0
   49.9770   32.2960   54.3860 O   0  0  0  0  0  0  0  0  0  0  0  0
   50.1650   32.7100   52.1420 N   0  0  0  0  0  0  0  0  0  0  0  0
   51.1210   32.3490   51.2710 C   0  0  0  0  0  0  0  0  0  0  0  0
   51.0710   32.6320   49.9120 O   0  0  0  0  0  0  0  0  0  0  0  0
   55.6230   30.6910   51.6200 C   0  0  0  0  0  0  0  0  0  0  0  0
   56.4150   30.0170   52.5260 C   0  0  0  0  0  0  0  0  0  0  0  0
   57.8900   30.0410   52.4920 C   0  0  0  0  0  0  0  0  0  0  0  0
   58.5180   28.9510   52.5680 O   0  0  0  0  0  0  0  0  0  0  0  0
   58.6290   31.2830   52.4700 N   0  0  0  0  0  0  0  0  0  0  0  0
   58.6810   32.1680   53.6550 C   0  0  2  0  0  0  0  0  0  0  0  0
   57.9950   31.6130   54.8410 C   0  0  0  0  0  0  0  0  0  0  0  0
   57.4560   31.1820   55.7700 N   0  0  0  0  0  0  0  0  0  0  0  0
   58.1190   33.5690   53.3000 C   0  0  0  0  0  0  0  0  0  0  0  0
   58.2310   33.9210   51.9270 O   0  0  0  0  0  0  0  0  0  0  0  0
   59.3790   33.3480   51.3370 C   0  0  0  0  0  0  0  0  0  0  0  0
   59.1790   31.8160   51.1960 C   0  0  0  0  0  0  0  0  0  0  0  0
   60.5350   31.1630   50.8830 C   0  0  0  0  0  0  0  0  0  0  0  0
   58.2000   31.5600   50.0250 C   0  0  0  0  0  0  0  0  0  0  0  0
   55.6450   29.3530   53.4210 N   0  0  0  0  0  0  0  0  0  0  0  0
   56.1100   28.5670   54.5700 C   0  0  0  0  0  0  0  0  0  0  0  0
   53.4904   28.2348   54.4716 H   0  0  0  0  0  0  0  0  0  0  0  0
   52.3091   29.0138   53.1957 H   0  0  0  0  0  0  0  0  0  0  0  0
   53.2781   30.9053   50.2012 H   0  0  0  0  0  0  0  0  0  0  0  0
   55.9717   31.3171   50.7854 H   0  0  0  0  0  0  0  0  0  0  0  0
   59.7413   32.2541   53.9348 H   0  0  0  0  0  0  0  0  0  0  0  0
   57.0539   33.5910   53.5741 H   0  0  0  0  0  0  0  0  0  0  0  0
   58.7235   34.2983   53.8592 H   0  0  0  0  0  0  0  0  0  0  0  0
   59.5393   33.7898   50.3424 H   0  0  0  0  0  0  0  0  0  0  0  0
   60.2550   33.5462   51.9721 H   0  0  0  0  0  0  0  0  0  0  0  0
   61.0487   30.9156   51.8237 H   0  0  0  0  0  0  0  0  0  0  0  0
   60.3736   30.2438   50.3007 H   0  0  0  0  0  0  0  0  0  0  0  0
   61.1530   31.8623   50.3007 H   0  0  0  0  0  0  0  0  0  0  0  0
   57.2089   31.3008   50.4257 H   0  0  0  0  0  0  0  0  0  0  0  0
   58.1204   32.4675   49.4085 H   0  0  0  0  0  0  0  0  0  0  0  0
   58.5749   30.7297   49.4085 H   0  0  0  0  0  0  0  0  0  0  0  0
   55.8128   29.0694   55.5023 H   0  0  0  0  0  0  0  0  0  0  0  0
   55.6599   27.5640   54.5344 H   0  0  0  0  0  0  0  0  0  0  0  0
   57.2059   28.4786   54.5344 H   0  0  0  0  0  0  0  0  0  0  0  0
  1  2  2  0
  2  3  1  0
  3  4  2  3
  4  5  1  0
  5  6  1  0
  6  7  1  0
  7  8  2  0
  7  9  1  0
  9 10  1  0
 10 11  1  0
  3 12  1  0
 12 13  2  0
 13 14  1  0
 14 15  2  0
 14 16  1  0
 16 17  1  0
 17 18  1  0
 18 19  3  0
 17 20  1  0
 20 21  1  0
 21 22  1  0
 22 23  1  0
 23 24  1  0
 23 25  1  0
 13 26  1  0
 26 27  1  0
 26  2  1  0
 10  5  2  0
 23 16  1  0
  1 28  1  0
  1 29  1  0
  4 30  1  0
 12 31  1  0
 17 32  1  1
 20 33  1  0
 20 34  1  0
 22 35  1  0
 22 36  1  0
 24 37  1  0
 24 38  1  0
 24 39  1  0
 25 40  1  0
 25 41  1  0
 25 42  1  0
 27 43  1  0
 27 44  1  0
 27 45  1  0
M  CHG  3   6  -1   9  -1  11  -1
M  END
>  <UniqueID>  (26) 
25

>  <SMILES>  (26) 
C=c1c(=Cc2[n-]c(=O)[n-]c2[O-])cc(C(=O)N2[C@H](C#N)COCC2(C)C)n1C

>  <Energy>  (26) 
134.41266543322837

>  <Genealogy>  (26) 
C=c1c(=Cc2[n-]c(=O)[n-]c2[O-])cc(C(=O)N2C(C#N)COCC2(C)C)n1C (protonated)
C=c1c(=Cc2[n-]c(=O)[n-]c2[O-])cc(C(=O)N2[C@H](C#N)COCC2(C)C)n1C (chirality)
C=c1c(=Cc2[n-]c(=O)[n-]c2[O-])cc(C(=O)N2[C@H](C#N)COCC2(C)C)n1C (3D coordinates assigned)
C=c1c(=Cc2[n-]c(=O)[n-]c2[O-])cc(C(=O)N2[C@H](C#N)COCC2(C)C)n1C (nonaromatic ring conformer: 134.41266543322837 kcal/mol)

>  <smiles>  (26) 
C=c1c(=Cc2[nH]c(=O)[nH]c2O)cc(C(=O)N2C(C#N)COCC2(C)C)n1C

>  <score_type>  (26) 
oracle

>  <origin>  (26) 
adg

>  <m_score__min__energy>  (26) 
-16.010000000000002

>  <m_primary>  (26) 
energy

$$$$
27:0
     RDKit          3D

 46 48  0  0  0  0  0  0  0  0999 V2000
   57.2930   30.4650   43.2350 C   0  0  0  0  0  0  0  0  0  0  0  0
   57.4740   30.7740   44.5280 C   0  0  0  0  0  0  0  0  0  0  0  0
   57.0860   32.0140   44.9130 N   0  0  0  0  0  0  0  0  0  0  0  0
   57.3750   32.5250   46.1310 C   0  0  0  0  0  0  0  0  0  0  0  0
   56.9510   33.6760   46.4220 O   0  0  0  0  0  0  0  0  0  0  0  0
   58.1340   31.8100   47.0170 N   0  0  0  0  0  0  0  0  0  0  0  0
   58.4260   32.3800   48.3490 C   0  0  0  0  0  0  0  0  0  0  0  0
   59.8690   32.7820   48.4270 C   0  0  0  0  0  0  0  0  0  0  0  0
   60.1670   34.0000   48.5540 O   0  0  0  0  0  0  0  0  0  0  0  0
   60.8910   31.7750   48.4430 N   0  0  0  0  0  0  0  0  0  0  0  0
   62.2460   32.0470   48.8330 C   0  0  0  0  0  0  0  0  0  0  0  0
   62.7590   31.5000   50.0180 C   0  0  0  0  0  0  0  0  0  0  0  0
   64.0650   31.7870   50.4230 C   0  0  0  0  0  0  0  0  0  0  0  0
   64.8700   32.6430   49.6600 C   0  0  0  0  0  0  0  0  0  0  0  0
   66.2830   32.9210   50.0820 C   0  0  0  0  0  0  0  0  0  0  0  0
   64.3670   33.1830   48.4680 C   0  0  0  0  0  0  0  0  0  0  0  0
   63.0590   32.8920   48.0450 C   0  0  0  0  0  0  0  0  0  0  0  0
   62.5440   33.4810   46.7590 C   0  0  0  0  0  0  0  0  0  0  0  0
   58.5340   30.5350   46.6960 C   0  0  0  0  0  0  0  0  0  0  0  0
   59.2290   29.8770   47.5230 O   0  0  0  0  0  0  0  0  0  0  0  0
   58.1450   29.9340   45.4690 C   0  0  0  0  0  0  0  0  0  0  0  0
   58.3940   28.6070   45.2860 C   0  0  0  0  0  0  0  0  0  0  0  0
   57.5390   27.4820   45.7270 C   0  0  0  0  0  0  0  0  0  0  0  0
   56.1420   27.5820   45.6360 C   0  0  0  0  0  0  0  0  0  0  0  0
   55.5450   28.7530   45.1820 O   0  0  0  0  0  0  0  0  0  0  0  0
   55.3600   26.5350   46.0020 N   0  0  0  0  0  0  0  0  0  0  0  0
   55.9060   25.3730   46.4430 C   0  0  0  0  0  0  0  0  0  0  0  0
   55.1600   24.4170   46.7810 O   0  0  0  0  0  0  0  0  0  0  0  0
   57.2540   25.2390   46.5140 N   0  0  0  0  0  0  0  0  0  0  0  0
   58.0810   26.2550   46.1570 C   0  0  0  0  0  0  0  0  0  0  0  0
   59.3280   26.0810   46.2030 O   0  0  0  0  0  0  0  0  0  0  0  0
   57.5876   29.4738   42.8600 H   0  0  0  0  0  0  0  0  0  0  0  0
   56.8500   31.2029   42.5500 H   0  0  0  0  0  0  0  0  0  0  0  0
   57.7918   33.2634   48.5147 H   0  0  0  0  0  0  0  0  0  0  0  0
   58.2186   31.6234   49.1201 H   0  0  0  0  0  0  0  0  0  0  0  0
   60.6010   30.7760   48.3440 H   0  0  0  0  0  0  0  0  0  0  0  0
   62.1289   30.8405   50.6328 H   0  0  0  0  0  0  0  0  0  0  0  0
   64.4631   31.3388   51.3453 H   0  0  0  0  0  0  0  0  0  0  0  0
   66.3421   32.9326   51.1804 H   0  0  0  0  0  0  0  0  0  0  0  0
   66.9447   32.1358   49.6875 H   0  0  0  0  0  0  0  0  0  0  0  0
   66.5979   33.8983   49.6875 H   0  0  0  0  0  0  0  0  0  0  0  0
   65.0028   33.8412   47.8576 H   0  0  0  0  0  0  0  0  0  0  0  0
   61.8354   34.2915   46.9848 H   0  0  0  0  0  0  0  0  0  0  0  0
   63.3863   33.8822   46.1762 H   0  0  0  0  0  0  0  0  0  0  0  0
   62.0340   32.6998   46.1762 H   0  0  0  0  0  0  0  0  0  0  0  0
   59.3229   28.3456   44.7580 H   0  0  0  0  0  0  0  0  0  0  0  0
  1  2  2  0
  2  3  1  0
  3  4  1  0
  4  5  2  0
  4  6  1  0
  6  7  1  0
  7  8  1  0
  8  9  2  0
  8 10  1  0
 10 11  1  0
 11 12  2  0
 12 13  1  0
 13 14  2  0
 14 15  1  0
 14 16  1  0
 16 17  2  0
 17 18  1  0
  6 19  1  0
 19 20  2  0
 19 21  1  0
 21 22  2  3
 22 23  1  0
 23 24  2  0
 24 25  1  0
 24 26  1  0
 26 27  1  0
 27 28  2  0
 27 29  1  0
 29 30  1  0
 30 31  2  0
 21  2  1  0
 30 23  1  0
 17 11  1  0
  1 32  1  0
  1 33  1  0
  7 34  1  0
  7 35  1  0
 10 36  1  0
 12 37  1  0
 13 38  1  0
 15 39  1  0
 15 40  1  0
 15 41  1  0
 16 42  1  0
 18 43  1  0
 18 44  1  0
 18 45  1  0
 22 46  1  0
M  CHG  4   3  -1  25  -1  26  -1  29  -1
M  END
>  <UniqueID>  (27) 
26

>  <SMILES>  (27) 
C=c1[n-]c(=O)n(CC(=O)Nc2ccc(C)cc2C)c(=O)c1=Cc1c([O-])[n-]c(=O)[n-]c1=O

>  <Energy>  (27) 
79.94056474359081

>  <Genealogy>  (27) 
C=c1[n-]c(=O)n(CC(=O)Nc2ccc(C)cc2C)c(=O)c1=Cc1c([O-])[n-]c(=O)[n-]c1=O (protonated)
C=c1[n-]c(=O)n(CC(=O)Nc2ccc(C)cc2C)c(=O)c1=Cc1c([O-])[n-]c(=O)[n-]c1=O (3D coordinates assigned)
C=c1[n-]c(=O)n(CC(=O)Nc2ccc(C)cc2C)c(=O)c1=Cc1c([O-])[n-]c(=O)[n-]c1=O (optimized conformer: 79.94056474359081 kcal/mol)

>  <smiles>  (27) 
C=c1[nH]c(=O)n(CC(=O)Nc2ccc(C)cc2C)c(=O)c1=Cc1c(O)[nH]c(=O)[nH]c1=O

>  <score_type>  (27) 
oracle

>  <origin>  (27) 
adg

>  <m_score__min__energy>  (27) 
-17.420000000000002

>  <m_primary>  (27) 
energy

$$$$
28:0
     RDKit          3D

 50 53  0  0  0  0  0  0  0  0999 V2000
   51.1634   31.9135   53.8731 H   0  0  0  0  0  0  0  0  0  0  0  0
   51.4140   31.9070   52.8020 C   0  0  0  0  0  0  0  0  0  0  0  0
   50.7740   32.6290   51.8610 N   0  0  0  0  0  0  0  0  0  0  0  0
   51.3870   32.3190   50.7030 C   0  0  0  0  0  0  0  0  0  0  0  0
   51.0180   32.8590   49.4780 O   0  0  0  0  0  0  0  0  0  0  0  0
   52.4070   31.4100   50.8820 C   0  0  0  0  0  0  0  0  0  0  0  0
   53.0619   30.9797   50.1100 H   0  0  0  0  0  0  0  0  0  0  0  0
   52.4300   31.1560   52.2360 C   0  0  0  0  0  0  0  0  0  0  0  0
   53.3290   30.2060   52.9250 C   0  0  0  0  0  0  0  0  0  0  0  0
   52.9670   29.0090   53.0590 O   0  0  0  0  0  0  0  0  0  0  0  0
   54.5800   30.6150   53.4970 N   0  0  0  0  0  0  0  0  0  0  0  0
   55.7220   30.6270   52.8760 C   0  0  0  0  0  0  0  0  0  0  0  0
   56.2320   31.6930   52.2300 N   0  0  0  0  0  0  0  0  0  0  0  0
   57.3930   31.3190   51.7160 N   0  0  0  0  0  0  0  0  0  0  0  0
   58.1790   32.1820   50.8780 C   0  0  0  0  0  0  0  0  0  0  0  0
   58.9290   33.2190   51.4520 C   0  0  0  0  0  0  0  0  0  0  0  0
   58.9326   33.3537   52.5437 H   0  0  0  0  0  0  0  0  0  0  0  0
   59.6720   34.0820   50.6410 C   0  0  0  0  0  0  0  0  0  0  0  0
   60.2740   34.8818   51.0969 H   0  0  0  0  0  0  0  0  0  0  0  0
   59.6510   33.9300   49.2510 C   0  0  0  0  0  0  0  0  0  0  0  0
   60.2374   34.6087   48.6142 H   0  0  0  0  0  0  0  0  0  0  0  0
   58.8850   32.9160   48.6720 C   0  0  0  0  0  0  0  0  0  0  0  0
   58.8584   32.8048   47.5780 H   0  0  0  0  0  0  0  0  0  0  0  0
   58.1520   32.0420   49.4800 C   0  0  0  0  0  0  0  0  0  0  0  0
   57.5525   31.2425   49.0203 H   0  0  0  0  0  0  0  0  0  0  0  0
   57.6270   30.0200   52.0300 C   0  0  0  0  0  0  0  0  0  0  0  0
   58.8590   29.2630   51.7440 C   0  0  0  0  0  0  0  0  0  0  0  0
   59.4100   28.6150   52.6750 O   0  0  0  0  0  0  0  0  0  0  0  0
   59.4610   29.3140   50.4430 N   0  0  0  0  0  0  0  0  0  0  0  0
   59.0730   29.9630   49.7230 H   0  0  0  0  0  0  0  0  0  0  0  0
   60.5660   28.4420   50.0510 C   0  0  0  0  0  0  0  0  0  0  0  0
   60.5826   27.5566   50.7035 H   0  0  0  0  0  0  0  0  0  0  0  0
   61.5151   28.9896   50.1483 H   0  0  0  0  0  0  0  0  0  0  0  0
   60.3860   28.0100   48.6310 C   0  0  0  0  0  0  0  0  0  0  0  0
   60.3750   28.8360   47.5230 C   0  0  0  0  0  0  0  0  0  0  0  0
   60.5715   29.9181   47.5005 H   0  0  0  0  0  0  0  0  0  0  0  0
   60.0660   28.0220   46.4480 C   0  0  0  0  0  0  0  0  0  0  0  0
   59.9100   28.4870   45.0330 C   0  0  0  0  0  0  0  0  0  0  0  0
   59.5601   29.5299   45.0262 H   0  0  0  0  0  0  0  0  0  0  0  0
   60.8791   28.4220   44.5167 H   0  0  0  0  0  0  0  0  0  0  0  0
   59.1761   27.8507   44.5167 H   0  0  0  0  0  0  0  0  0  0  0  0
   59.8960   26.7480   46.8630 N   0  0  0  0  0  0  0  0  0  0  0  0
   59.4620   25.6130   46.0530 C   0  0  0  0  0  0  0  0  0  0  0  0
   59.1476   24.7907   46.7126 H   0  0  0  0  0  0  0  0  0  0  0  0
   58.6168   25.9174   45.4182 H   0  0  0  0  0  0  0  0  0  0  0  0
   60.2947   25.2759   45.4182 H   0  0  0  0  0  0  0  0  0  0  0  0
   60.0690   26.7370   48.1990 C   0  0  0  0  0  0  0  0  0  0  0  0
   59.9728   25.8520   48.8452 H   0  0  0  0  0  0  0  0  0  0  0  0
   56.5590   29.5370   52.7610 C   0  0  0  0  0  0  0  0  0  0  0  0
   56.4110   28.5219   53.1580 H   0  0  0  0  0  0  0  0  0  0  0  0
  1  2  1  0
  2  3  1  0
  3  4  1  0
  4  5  1  0
  4  6  2  0
  6  7  1  0
  6  8  1  0
  8  9  1  0
  9 10  2  0
  9 11  1  0
 11 12  2  0
 12 13  1  0
 13 14  1  0
 14 15  1  0
 15 16  2  0
 16 17  1  0
 16 18  1  0
 18 19  1  0
 18 20  2  0
 20 21  1  0
 20 22  1  0
 22 23  1  0
 22 24  2  0
 24 25  1  0
 14 26  1  0
 26 27  1  0
 27 28  2  0
 27 29  1  0
 29 30  1  0
 29 31  1  0
 31 32  1  0
 31 33  1  0
 31 34  1  0
 34 35  1  0
 35 36  1  0
 35 37  2  0
 37 38  1  0
 38 39  1  0
 38 40  1  0
 38 41  1  0
 37 42  1  0
 42 43  1  0
 43 44  1  0
 43 45  1  0
 43 46  1  0
 42 47  1  0
 47 48  1  0
 26 49  2  0
 49 50  1  0
  8  2  2  0
 49 12  1  0
 24 15  1  0
 47 34  2  0
M  CHG  3   3  -1   5  -1  13  -1
M  END
>  <UniqueID>  (28) 
27

>  <SMILES>  (28) 
Cc1cc(CNC(=O)c2c/c(=N/C(=O)c3c[n-]c([O-])c3)[n-]n2-c2ccccc2)cn1C

>  <Energy>  (28) 
141.5357905766895

>  <Genealogy>  (28) 
Cc1cc(CNC(=O)c2cc(=NC(=O)c3c[n-]c([O-])c3)[n-]n2-c2ccccc2)cn1C (protonated)
Cc1cc(CNC(=O)c2c/c(=N/C(=O)c3c[n-]c([O-])c3)[n-]n2-c2ccccc2)cn1C (cis-trans isomerization)
Cc1cc(CNC(=O)c2c/c(=N/C(=O)c3c[n-]c([O-])c3)[n-]n2-c2ccccc2)cn1C (3D coordinates assigned)
Cc1cc(CNC(=O)c2c/c(=N/C(=O)c3c[n-]c([O-])c3)[n-]n2-c2ccccc2)cn1C (optimized conformer: 141.5357905766895 kcal/mol)

>  <smiles>  (28) 
Cc1cc(CNC(=O)c2cc(=NC(=O)c3c[nH]c(O)c3)[nH]n2-c2ccccc2)cn1C

>  <score_type>  (28) 
oracle

>  <origin>  (28) 
adg

>  <m_score__min__energy>  (28) 
-17.09

>  <m_primary>  (28) 
energy

$$$$
29:0
     RDKit          3D

 55 58  0  0  0  0  0  0  0  0999 V2000
   61.1580   31.0240   46.7340 C   0  0  0  0  0  0  0  0  0  0  0  0
   61.2850   32.1720   47.2950 C   0  0  0  0  0  0  0  0  0  0  0  0
   61.5470   32.6440   48.6190 C   0  0  0  0  0  0  0  0  0  0  0  0
   60.4230   32.7950   49.4510 C   0  0  0  0  0  0  0  0  0  0  0  0
   59.0570   32.4860   48.9850 C   0  0  0  0  0  0  0  0  0  0  0  0
   58.5180   33.5110   48.1140 N   0  0  0  0  0  0  0  0  0  0  0  0
   58.4640   33.3730   46.6940 C   0  0  0  0  0  0  0  0  0  0  0  0
   57.9540   32.2100   46.1540 C   0  0  0  0  0  0  0  0  0  0  0  0
   57.8910   32.0520   44.7830 C   0  0  0  0  0  0  0  0  0  0  0  0
   57.2450   30.5950   44.0710 S   0  0  0  0  0  0  0  0  0  0  0  0
   56.0470   30.1200   44.8770 O   0  0  0  0  0  0  0  0  0  0  0  0
   56.7190   30.8530   42.6810 O   0  0  0  0  0  0  0  0  0  0  0  0
   58.4100   29.3490   44.1120 N   0  0  0  0  0  0  0  0  0  0  0  0
   57.7930   28.0730   43.8130 C   0  0  0  0  0  0  0  0  0  0  0  0
   57.4050   27.4620   45.1210 C   0  0  0  0  0  0  0  0  0  0  0  0
   58.0210   28.3330   46.1650 C   0  0  0  0  0  0  0  0  0  0  0  0
   59.0030   29.1920   45.4310 C   0  0  0  0  0  0  0  0  0  0  0  0
   58.3460   33.0770   43.9600 C   0  0  0  0  0  0  0  0  0  0  0  0
   58.8630   34.2580   44.5080 C   0  0  0  0  0  0  0  0  0  0  0  0
   58.9150   34.3900   45.8800 C   0  0  0  0  0  0  0  0  0  0  0  0
   59.4340   35.5720   46.4140 O   0  0  0  0  0  0  0  0  0  0  0  0
   60.5520   33.2460   50.7570 C   0  0  0  0  0  0  0  0  0  0  0  0
   61.7690   33.5620   51.2920 C   0  0  0  0  0  0  0  0  0  0  0  0
   62.8780   33.4170   50.5030 C   0  0  0  0  0  0  0  0  0  0  0  0
   64.0690   33.6760   51.0630 N   0  0  0  0  0  0  0  0  0  0  0  0
   65.2120   33.5010   50.3770 C   0  0  0  0  0  0  0  0  0  0  0  0
   66.3300   33.7640   50.9520 N   0  0  0  0  0  0  0  0  0  0  0  0
   65.1150   33.0600   49.1270 N   0  0  0  0  0  0  0  0  0  0  0  0
   63.9430   32.7890   48.5260 C   0  0  0  0  0  0  0  0  0  0  0  0
   63.9900   32.2820   47.3680 N   0  0  0  0  0  0  0  0  0  0  0  0
   62.7490   32.9600   49.1850 C   0  0  0  0  0  0  0  0  0  0  0  0
   60.9500   30.9587   45.6558 H   0  0  0  0  0  0  0  0  0  0  0  0
   61.2572   30.1058   47.3316 H   0  0  0  0  0  0  0  0  0  0  0  0
   61.1615   32.9978   46.5789 H   0  0  0  0  0  0  0  0  0  0  0  0
   59.0797   31.5334   48.4354 H   0  0  0  0  0  0  0  0  0  0  0  0
   58.4085   32.4287   49.8717 H   0  0  0  0  0  0  0  0  0  0  0  0
   58.1540   34.3920   48.5620 H   0  0  0  0  0  0  0  0  0  0  0  0
   57.5971   31.4075   46.8162 H   0  0  0  0  0  0  0  0  0  0  0  0
   56.9018   28.2214   43.1855 H   0  0  0  0  0  0  0  0  0  0  0  0
   58.4861   27.4195   43.2630 H   0  0  0  0  0  0  0  0  0  0  0  0
   56.3104   27.4474   45.2291 H   0  0  0  0  0  0  0  0  0  0  0  0
   57.7485   26.4203   45.2032 H   0  0  0  0  0  0  0  0  0  0  0  0
   57.2539   28.9535   46.6513 H   0  0  0  0  0  0  0  0  0  0  0  0
   58.5033   27.7442   46.9591 H   0  0  0  0  0  0  0  0  0  0  0  0
   59.1183   30.1669   45.9272 H   0  0  0  0  0  0  0  0  0  0  0  0
   60.0099   28.7505   45.3946 H   0  0  0  0  0  0  0  0  0  0  0  0
   58.2993   32.9589   42.8673 H   0  0  0  0  0  0  0  0  0  0  0  0
   59.2217   35.0670   43.8547 H   0  0  0  0  0  0  0  0  0  0  0  0
   58.9890   35.9680   47.2370 H   0  0  0  0  0  0  0  0  0  0  0  0
   59.6504   33.3520   51.3782 H   0  0  0  0  0  0  0  0  0  0  0  0
   61.8550   33.9228   52.3276 H   0  0  0  0  0  0  0  0  0  0  0  0
   64.1300   34.0250   52.0600 H   0  0  0  0  0  0  0  0  0  0  0  0
   66.3580   34.4050   51.7690 H   0  0  0  0  0  0  0  0  0  0  0  0
   66.0170   32.9240   48.6010 H   0  0  0  0  0  0  0  0  0  0  0  0
   64.8570   32.2440   46.8200 H   0  0  0  0  0  0  0  0  0  0  0  0
  1  2  2  0
  2  3  1  0
  3  4  2  0
  4  5  1  0
  5  6  1  0
  6  7  1  0
  7  8  2  0
  8  9  1  0
  9 10  1  0
 10 11  2  0
 10 12  2  0
 10 13  1  0
 13 14  1  0
 14 15  1  0
 15 16  1  0
 16 17  1  0
  9 18  2  0
 18 19  1  0
 19 20  2  0
 20 21  1  0
  4 22  1  0
 22 23  2  0
 23 24  1  0
 24 25  1  0
 25 26  1  0
 26 27  2  3
 26 28  1  0
 28 29  1  0
 29 30  2  3
 29 31  1  0
 31  3  1  0
 20  7  1  0
 31 24  2  0
 17 13  1  0
  1 32  1  0
  1 33  1  0
  2 34  1  0
  5 35  1  0
  5 36  1  0
  6 37  1  0
  8 38  1  0
 14 39  1  0
 14 40  1  0
 15 41  1  0
 15 42  1  0
 16 43  1  0
 16 44  1  0
 17 45  1  0
 17 46  1  0
 18 47  1  0
 19 48  1  0
 21 49  1  0
 22 50  1  0
 23 51  1  0
 25 52  1  0
 27 53  1  0
 28 54  1  0
 30 55  1  0
M  END
>  <smiles>  (29) 
C=Cc1c(CNc2cc(S(=O)(=O)N3CCCC3)ccc2O)ccc2[nH]c(=N)[nH]c(=N)c12

>  <score_type>  (29) 
oracle

>  <origin>  (29) 
adg

>  <m_score__min__energy>  (29) 
-9.9499999999999993

>  <m_primary>  (29) 
energy

$$$$
30:0
     RDKit          3D

 44 46  0  0  0  0  0  0  0  0999 V2000
   56.9820   30.9480   41.7230 H   0  0  0  0  0  0  0  0  0  0  0  0
   57.0640   31.8120   42.2410 O   0  0  0  0  0  0  0  0  0  0  0  0
   57.4820   31.8740   43.5730 C   0  0  0  0  0  0  0  0  0  0  0  0
   58.1740   33.0280   43.9850 C   0  0  0  0  0  0  0  0  0  0  0  0
   58.3224   33.8708   43.2939 H   0  0  0  0  0  0  0  0  0  0  0  0
   58.6660   33.0800   45.2840 C   0  0  0  0  0  0  0  0  0  0  0  0
   58.4860   32.0400   46.1640 C   0  0  0  0  0  0  0  0  0  0  0  0
   57.7880   30.8920   45.8040 C   0  0  0  0  0  0  0  0  0  0  0  0
   57.6513   30.0700   46.5221 H   0  0  0  0  0  0  0  0  0  0  0  0
   57.2580   30.8030   44.4970 C   0  0  0  0  0  0  0  0  0  0  0  0
   56.4560   29.6100   44.1470 C   0  0  0  0  0  0  0  0  0  0  0  0
   56.2130   29.3470   42.9380 O   0  0  0  0  0  0  0  0  0  0  0  0
   55.9140   28.7930   45.2000 N   0  0  0  0  0  0  0  0  0  0  0  0
   56.3630   27.6430   45.6120 C   0  0  0  0  0  0  0  0  0  0  0  0
   55.5140   26.6400   45.9810 N   0  0  0  0  0  0  0  0  0  0  0  0
   55.9700   25.4330   46.4130 C   0  0  0  0  0  0  0  0  0  0  0  0
   55.2570   24.6481   46.7054 H   0  0  0  0  0  0  0  0  0  0  0  0
   57.3430   25.1910   46.4850 C   0  0  0  0  0  0  0  0  0  0  0  0
   57.7184   24.2170   46.8320 H   0  0  0  0  0  0  0  0  0  0  0  0
   58.2340   26.1980   46.1120 C   0  0  0  0  0  0  0  0  0  0  0  0
   59.3185   26.0212   46.1636 H   0  0  0  0  0  0  0  0  0  0  0  0
   57.7460   27.4310   45.6730 C   0  0  0  0  0  0  0  0  0  0  0  0
   58.4426   28.2293   45.3775 H   0  0  0  0  0  0  0  0  0  0  0  0
   59.1120   32.4160   47.4270 C   0  0  0  0  0  0  0  0  0  0  0  0
   59.1160   31.7210   48.4780 O   0  0  0  0  0  0  0  0  0  0  0  0
   59.7220   33.7030   47.3080 N   0  0  0  0  0  0  0  0  0  0  0  0
   60.2370   34.5310   48.3970 C   0  0  0  0  0  0  0  0  0  0  0  0
   59.6294   34.3529   49.2965 H   0  0  0  0  0  0  0  0  0  0  0  0
   60.1800   35.5829   48.0805 H   0  0  0  0  0  0  0  0  0  0  0  0
   61.7080   34.2100   48.7190 C   0  0  0  0  0  0  0  0  0  0  0  0
   61.7486   33.8181   49.7460 H   0  0  0  0  0  0  0  0  0  0  0  0
   62.2535   35.1538   48.5715 H   0  0  0  0  0  0  0  0  0  0  0  0
   62.4040   33.1810   47.7930 C   0  0  0  0  0  0  0  0  0  0  0  0
   61.5948   32.5244   47.4408 H   0  0  0  0  0  0  0  0  0  0  0  0
   63.4160   32.2940   48.5320 C   0  0  0  0  0  0  0  0  0  0  0  0
   63.2823   32.4112   49.6175 H   0  0  0  0  0  0  0  0  0  0  0  0
   63.2534   31.2422   48.2540 H   0  0  0  0  0  0  0  0  0  0  0  0
   64.4374   32.5931   48.2540 H   0  0  0  0  0  0  0  0  0  0  0  0
   63.0400   33.8260   46.5540 C   0  0  0  0  0  0  0  0  0  0  0  0
   63.7798   34.5762   46.8701 H   0  0  0  0  0  0  0  0  0  0  0  0
   63.5376   33.0514   45.9520 H   0  0  0  0  0  0  0  0  0  0  0  0
   62.2585   34.3126   45.9520 H   0  0  0  0  0  0  0  0  0  0  0  0
   59.4120   34.1250   45.9770 C   0  0  0  0  0  0  0  0  0  0  0  0
   59.7170   35.2490   45.4970 O   0  0  0  0  0  0  0  0  0  0  0  0
  1  2  1  0
  2  3  1  0
  3  4  2  0
  4  5  1  0
  4  6  1  0
  6  7  2  0
  7  8  1  0
  8  9  1  0
  8 10  2  0
 10 11  1  0
 11 12  2  0
 11 13  1  0
 13 14  2  0
 14 15  1  0
 15 16  1  0
 16 17  1  0
 16 18  2  0
 18 19  1  0
 18 20  1  0
 20 21  1  0
 20 22  2  0
 22 23  1  0
  7 24  1  0
 24 25  2  0
 24 26  1  0
 26 27  1  0
 27 28  1  0
 27 29  1  0
 27 30  1  0
 30 31  1  0
 30 32  1  0
 30 33  1  0
 33 34  1  0
 33 35  1  0
 35 36  1  0
 35 37  1  0
 35 38  1  0
 33 39  1  0
 39 40  1  0
 39 41  1  0
 39 42  1  0
 26 43  1  0
 43 44  2  0
 10  3  1  0
 22 14  1  0
 43  6  1  0
M  CHG  1  15  -1
M  END
>  <UniqueID>  (30) 
28

>  <SMILES>  (30) 
CC(C)CCN1C(=O)c2cc(O)c(C(=O)/N=c3/cccc[n-]3)cc2C1=O

>  <Energy>  (30) 
81.55840344760249

>  <Genealogy>  (30) 
CC(C)CCN1C(=O)c2cc(O)c(C(=O)N=c3cccc[n-]3)cc2C1=O (protonated)
CC(C)CCN1C(=O)c2cc(O)c(C(=O)/N=c3/cccc[n-]3)cc2C1=O (cis-trans isomerization)
CC(C)CCN1C(=O)c2cc(O)c(C(=O)/N=c3/cccc[n-]3)cc2C1=O (3D coordinates assigned)
CC(C)CCN1C(=O)c2cc(O)c(C(=O)/N=c3/cccc[n-]3)cc2C1=O (nonaromatic ring conformer: 81.55840344760249 kcal/mol)

>  <smiles>  (30) 
CC(C)CCN1C(=O)c2cc(O)c(C(=O)N=c3cccc[nH]3)cc2C1=O

>  <score_type>  (30) 
oracle

>  <origin>  (30) 
adg

>  <m_score__min__energy>  (30) 
-10.109999999999999

>  <m_primary>  (30) 
energy

$$$$
31:0
     RDKit          3D

 62 66  0  0  0  0  0  0  0  0999 V2000
   59.2740   33.9800   50.3660 O   0  0  0  0  0  0  0  0  0  0  0  0
   60.2770   33.8400   49.6160 C   0  0  0  0  0  0  0  0  0  0  0  0
   61.4190   33.2200   50.0040 N   0  0  0  0  0  0  0  0  0  0  0  0
   61.6680   32.5400   51.2760 C   0  0  0  0  0  0  0  0  0  0  0  0
   62.0690   31.0840   51.0220 C   0  0  0  0  0  0  0  0  0  0  0  0
   61.2050   30.1190   51.8670 C   0  0  0  0  0  0  0  0  0  0  0  0
   60.3430   29.2020   51.0770 N   0  0  0  0  0  0  0  0  0  0  0  0
   61.1350   28.3600   50.1410 C   0  0  0  0  0  0  0  0  0  0  0  0
   60.2650   27.7330   49.0450 C   0  0  0  0  0  0  0  0  0  0  0  0
   59.5640   28.7830   48.2950 N   0  0  0  0  0  0  0  0  0  0  0  0
   59.1970   28.5950   46.9130 C   0  0  0  0  0  0  0  0  0  0  0  0
   60.1450   28.7240   45.8790 C   0  0  0  0  0  0  0  0  0  0  0  0
   59.7480   28.5400   44.5530 C   0  0  0  0  0  0  0  0  0  0  0  0
   58.4200   28.2300   44.2610 C   0  0  0  0  0  0  0  0  0  0  0  0
   57.5040   28.1060   45.3070 C   0  0  0  0  0  0  0  0  0  0  0  0
   57.9090   28.2860   46.5930 N   0  0  0  0  0  0  0  0  0  0  0  0
   59.3120   30.0760   48.9450 C   0  0  0  0  0  0  0  0  0  0  0  0
   59.1690   29.8830   50.4610 C   0  0  0  0  0  0  0  0  0  0  0  0
   62.1910   33.2300   48.8990 C   0  0  0  0  0  0  0  0  0  0  0  0
   63.4520   32.6620   48.7080 C   0  0  0  0  0  0  0  0  0  0  0  0
   64.0370   32.7810   47.4350 C   0  0  0  0  0  0  0  0  0  0  0  0
   63.3570   33.4500   46.3930 C   0  0  0  0  0  0  0  0  0  0  0  0
   62.0810   34.0010   46.6110 C   0  0  0  0  0  0  0  0  0  0  0  0
   61.5240   33.8690   47.8850 C   0  0  0  0  0  0  0  0  0  0  0  0
   60.3120   34.2680   48.3280 N   0  0  0  0  0  0  0  0  0  0  0  0
   59.2100   34.8490   47.5600 C   0  0  0  0  0  0  0  0  0  0  0  0
   58.6950   33.8480   46.5610 C   0  0  0  0  0  0  0  0  0  0  0  0
   58.3950   34.2440   45.2470 C   0  0  0  0  0  0  0  0  0  0  0  0
   57.9690   33.3000   44.3060 C   0  0  0  0  0  0  0  0  0  0  0  0
   57.8450   31.9570   44.6690 C   0  0  0  0  0  0  0  0  0  0  0  0
   58.1490   31.5540   45.9720 C   0  0  0  0  0  0  0  0  0  0  0  0
   58.5760   32.4940   46.9140 C   0  0  0  0  0  0  0  0  0  0  0  0
   62.4806   33.0536   51.8107 H   0  0  0  0  0  0  0  0  0  0  0  0
   60.7505   32.5612   51.8824 H   0  0  0  0  0  0  0  0  0  0  0  0
   61.9295   30.8526   49.9557 H   0  0  0  0  0  0  0  0  0  0  0  0
   63.1232   30.9544   51.3081 H   0  0  0  0  0  0  0  0  0  0  0  0
   61.8792   29.5077   52.4849 H   0  0  0  0  0  0  0  0  0  0  0  0
   60.5258   30.7492   52.4599 H   0  0  0  0  0  0  0  0  0  0  0  0
   59.9460   28.5330   51.7820 H   0  0  0  0  0  0  0  0  0  0  0  0
   61.9048   28.9864   49.6666 H   0  0  0  0  0  0  0  0  0  0  0  0
   61.5853   27.5421   50.7226 H   0  0  0  0  0  0  0  0  0  0  0  0
   60.9036   27.1592   48.3573 H   0  0  0  0  0  0  0  0  0  0  0  0
   59.5236   27.0670   49.5107 H   0  0  0  0  0  0  0  0  0  0  0  0
   61.1913   28.9681   46.1147 H   0  0  0  0  0  0  0  0  0  0  0  0
   60.4819   28.6394   43.7396 H   0  0  0  0  0  0  0  0  0  0  0  0
   58.0983   28.0850   43.2191 H   0  0  0  0  0  0  0  0  0  0  0  0
   56.4533   27.8624   45.0910 H   0  0  0  0  0  0  0  0  0  0  0  0
   60.1528   30.7556   48.7421 H   0  0  0  0  0  0  0  0  0  0  0  0
   58.3808   30.5049   48.5464 H   0  0  0  0  0  0  0  0  0  0  0  0
   59.0515   30.8710   50.9301 H   0  0  0  0  0  0  0  0  0  0  0  0
   58.2920   29.2405   50.6286 H   0  0  0  0  0  0  0  0  0  0  0  0
   63.9701   32.1393   49.5255 H   0  0  0  0  0  0  0  0  0  0  0  0
   65.0318   32.3499   47.2490 H   0  0  0  0  0  0  0  0  0  0  0  0
   63.8289   33.5408   45.4035 H   0  0  0  0  0  0  0  0  0  0  0  0
   61.5401   34.5185   45.8050 H   0  0  0  0  0  0  0  0  0  0  0  0
   58.3971   35.1309   48.2454 H   0  0  0  0  0  0  0  0  0  0  0  0
   59.5725   35.7392   47.0252 H   0  0  0  0  0  0  0  0  0  0  0  0
   58.4954   35.3002   44.9567 H   0  0  0  0  0  0  0  0  0  0  0  0
   57.7316   33.6159   43.2794 H   0  0  0  0  0  0  0  0  0  0  0  0
   57.5079   31.2163   43.9289 H   0  0  0  0  0  0  0  0  0  0  0  0
   58.0521   30.4959   46.2566 H   0  0  0  0  0  0  0  0  0  0  0  0
   58.8201   32.1716   47.9370 H   0  0  0  0  0  0  0  0  0  0  0  0
  1  2  2  0
  2  3  1  0
  3  4  1  0
  4  5  1  0
  5  6  1  0
  6  7  1  0
  7  8  1  0
  8  9  1  0
  9 10  1  0
 10 11  1  0
 11 12  2  0
 12 13  1  0
 13 14  2  0
 14 15  1  0
 15 16  2  0
 10 17  1  0
 17 18  1  0
  3 19  1  0
 19 20  2  0
 20 21  1  0
 21 22  2  0
 22 23  1  0
 23 24  2  0
 24 25  1  0
 25 26  1  0
 26 27  1  0
 27 28  2  0
 28 29  1  0
 29 30  2  0
 30 31  1  0
 31 32  2  0
 25  2  1  0
 32 27  1  0
 18  7  1  0
 24 19  1  0
 16 11  1  0
  4 33  1  0
  4 34  1  0
  5 35  1  0
  5 36  1  0
  6 37  1  0
  6 38  1  0
  7 39  1  0
  8 40  1  0
  8 41  1  0
  9 42  1  0
  9 43  1  0
 12 44  1  0
 13 45  1  0
 14 46  1  0
 15 47  1  0
 17 48  1  0
 17 49  1  0
 18 50  1  0
 18 51  1  0
 20 52  1  0
 21 53  1  0
 22 54  1  0
 23 55  1  0
 26 56  1  0
 26 57  1  0
 28 58  1  0
 29 59  1  0
 30 60  1  0
 31 61  1  0
 32 62  1  0
M  CHG  1   7   1
M  END
>  <UniqueID>  (31) 
29

>  <SMILES>  (31) 
O=c1n(CCC[NH+]2CCN(c3ccccn3)CC2)c2ccccc2n1Cc1ccccc1

>  <Energy>  (31) 
115.74068863231356

>  <Genealogy>  (31) 
O=c1n(CCC[NH+]2CCN(c3ccccn3)CC2)c2ccccc2n1Cc1ccccc1 (protonated)
O=c1n(CCC[NH+]2CCN(c3ccccn3)CC2)c2ccccc2n1Cc1ccccc1 (3D coordinates assigned)
O=c1n(CCC[NH+]2CCN(c3ccccn3)CC2)c2ccccc2n1Cc1ccccc1 (nonaromatic ring conformer: 115.74068863231356 kcal/mol)

>  <smiles>  (31) 
O=c1n(CCCN2CCN(c3ccccn3)CC2)c2ccccc2n1Cc1ccccc1

>  <score_type>  (31) 
oracle

>  <origin>  (31) 
adg

>  <m_score__min__energy>  (31) 
-7.4699999999999998

>  <m_primary>  (31) 
energy

$$$$
32:0
     RDKit          3D

 64 67  0  0  0  0  0  0  0  0999 V2000
   52.1584   29.9474   53.5970 H   0  0  0  0  0  0  0  0  0  0  0  0
   53.0070   29.2680   53.7650 C   0  0  0  0  0  0  0  0  0  0  0  0
   52.8806   28.3756   54.3957 H   0  0  0  0  0  0  0  0  0  0  0  0
   54.2020   29.5290   53.1980 C   0  0  0  0  0  0  0  0  0  0  0  0
   55.2440   28.6150   53.4570 C   0  0  0  0  0  0  0  0  0  0  0  0
   55.0357   27.7154   54.0548 H   0  0  0  0  0  0  0  0  0  0  0  0
   56.5290   28.8280   52.9720 C   0  0  0  0  0  0  0  0  0  0  0  0
   57.3297   28.1125   53.2108 H   0  0  0  0  0  0  0  0  0  0  0  0
   56.8080   29.9430   52.1850 C   0  0  0  0  0  0  0  0  0  0  0  0
   58.1480   30.1880   51.7120 N   0  0  0  0  0  0  0  0  0  0  0  0
   58.8620   31.3150   52.2720 C   0  0  0  0  0  0  0  0  0  0  0  0
   58.7980   31.5500   53.5100 O   0  0  0  0  0  0  0  0  0  0  0  0
   59.7050   32.1920   51.4300 C   0  0  0  0  0  0  0  0  0  0  0  0
   59.1490   33.2950   50.7600 C   0  0  0  0  0  0  0  0  0  0  0  0
   58.0773   33.5183   50.8673 H   0  0  0  0  0  0  0  0  0  0  0  0
   59.9530   34.1090   49.9580 C   0  0  0  0  0  0  0  0  0  0  0  0
   59.5110   34.9675   49.4311 H   0  0  0  0  0  0  0  0  0  0  0  0
   61.3170   33.8360   49.8230 C   0  0  0  0  0  0  0  0  0  0  0  0
   61.9457   34.4744   49.1849 H   0  0  0  0  0  0  0  0  0  0  0  0
   61.8810   32.7520   50.4990 C   0  0  0  0  0  0  0  0  0  0  0  0
   62.9557   32.5404   50.3973 H   0  0  0  0  0  0  0  0  0  0  0  0
   61.0820   31.9350   51.3050 C   0  0  0  0  0  0  0  0  0  0  0  0
   61.5323   31.0880   51.8433 H   0  0  0  0  0  0  0  0  0  0  0  0
   58.5930   29.6360   50.4130 C   0  0  0  0  0  0  0  0  0  0  0  0
   57.8669   28.8533   50.1482 H   0  0  0  0  0  0  0  0  0  0  0  0
   58.5650   30.6800   49.2680 C   0  0  0  0  0  0  0  0  0  0  0  0
   57.5263   30.7994   48.9261 H   0  0  0  0  0  0  0  0  0  0  0  0
   58.9732   31.6206   49.6663 H   0  0  0  0  0  0  0  0  0  0  0  0
   59.4370   30.2670   48.0630 C   0  0  0  0  0  0  0  0  0  0  0  0
   58.9104   30.5298   47.1337 H   0  0  0  0  0  0  0  0  0  0  0  0
   60.3970   30.7995   48.1325 H   0  0  0  0  0  0  0  0  0  0  0  0
   59.7090   28.8220   48.0660 N   0  0  0  0  0  0  0  0  0  0  0  0
   59.5660   28.0380   46.8680 C   0  0  0  0  0  0  0  0  0  0  0  0
   60.4710   27.2210   46.5470 O   0  0  0  0  0  0  0  0  0  0  0  0
   58.3410   28.1590   46.0010 C   0  0  0  0  0  0  0  0  0  0  0  0
   57.8527   27.1760   45.9291 H   0  0  0  0  0  0  0  0  0  0  0  0
   57.6612   28.8947   46.4556 H   0  0  0  0  0  0  0  0  0  0  0  0
   58.7100   28.6400   44.5920 C   0  0  0  0  0  0  0  0  0  0  0  0
   59.2812   29.5769   44.6697 H   0  0  0  0  0  0  0  0  0  0  0  0
   59.3127   27.8610   44.1022 H   0  0  0  0  0  0  0  0  0  0  0  0
   57.4550   28.8870   43.7510 C   0  0  0  0  0  0  0  0  0  0  0  0
   57.7289   29.4557   42.8502 H   0  0  0  0  0  0  0  0  0  0  0  0
   57.0189   27.9173   43.4689 H   0  0  0  0  0  0  0  0  0  0  0  0
   56.4440   29.6630   44.5350 C   0  0  0  0  0  0  0  0  0  0  0  0
   56.7200   30.8200   44.9520 O   0  0  0  0  0  0  0  0  0  0  0  0
   55.2170   29.0900   44.8490 O   0  0  0  0  0  0  0  0  0  0  0  0
   60.3160   28.2060   49.2550 C   0  0  0  0  0  0  0  0  0  0  0  0
   59.9287   27.1823   49.3648 H   0  0  0  0  0  0  0  0  0  0  0  0
   61.4078   28.1983   49.1214 H   0  0  0  0  0  0  0  0  0  0  0  0
   59.9900   29.0040   50.5300 C   0  0  0  0  0  0  0  0  0  0  0  0
   60.0126   28.3287   51.3980 H   0  0  0  0  0  0  0  0  0  0  0  0
   60.7371   29.8012   50.6575 H   0  0  0  0  0  0  0  0  0  0  0  0
   55.7920   30.8630   51.9060 C   0  0  0  0  0  0  0  0  0  0  0  0
   56.0218   31.7414   51.2850 H   0  0  0  0  0  0  0  0  0  0  0  0
   54.4750   30.6950   52.4010 C   0  0  0  0  0  0  0  0  0  0  0  0
   53.5090   31.5970   52.0770 C   0  0  0  0  0  0  0  0  0  0  0  0
   53.5144   32.5543   52.6188 H   0  0  0  0  0  0  0  0  0  0  0  0
   52.4510   31.4030   51.0590 C   0  0  0  0  0  0  0  0  0  0  0  0
   52.4670   30.4740   50.0850 N   0  0  0  0  0  0  0  0  0  0  0  0
   51.3720   30.7640   49.3530 C   0  0  0  0  0  0  0  0  0  0  0  0
   51.0330   30.0930   48.3440 O   0  0  0  0  0  0  0  0  0  0  0  0
   50.6710   31.8340   49.7840 N   0  0  0  0  0  0  0  0  0  0  0  0
   51.3740   32.2340   50.8560 C   0  0  0  0  0  0  0  0  0  0  0  0
   51.0400   33.3380   51.6300 O   0  0  0  0  0  0  0  0  0  0  0  0
  1  2  1  0
  2  3  1  0
  2  4  2  0
  4  5  1  0
  5  6  1  0
  5  7  2  0
  7  8  1  0
  7  9  1  0
  9 10  1  0
 10 11  1  0
 11 12  2  0
 11 13  1  0
 13 14  2  0
 14 15  1  0
 14 16  1  0
 16 17  1  0
 16 18  2  0
 18 19  1  0
 18 20  1  0
 20 21  1  0
 20 22  2  0
 22 23  1  0
 10 24  1  0
 24 25  1  0
 24 26  1  0
 26 27  1  0
 26 28  1  0
 26 29  1  0
 29 30  1  0
 29 31  1  0
 29 32  1  0
 32 33  1  0
 33 34  2  0
 33 35  1  0
 35 36  1  0
 35 37  1  0
 35 38  1  0
 38 39  1  0
 38 40  1  0
 38 41  1  0
 41 42  1  0
 41 43  1  0
 41 44  1  0
 44 45  2  0
 44 46  1  0
 32 47  1  0
 47 48  1  0
 47 49  1  0
 47 50  1  0
 50 51  1  0
 50 52  1  0
  9 53  2  0
 53 54  1  0
 53 55  1  0
 55 56  2  0
 56 57  1  0
 56 58  1  0
 58 59  1  0
 59 60  1  0
 60 61  2  0
 60 62  1  0
 62 63  1  0
 63 64  1  0
 55  4  1  0
 63 58  2  0
 22 13  1  0
 50 24  1  0
M  CHG  4  46  -1  59  -1  62  -1  64  -1
M  END
>  <UniqueID>  (32) 
30

>  <SMILES>  (32) 
C=c1ccc(N(C(=O)c2ccccc2)C2CCN(C(=O)CCCC(=O)[O-])CC2)c/c1=C\c1[n-]c(=O)[n-]c1[O-]

>  <Energy>  (32) 
123.91410634057125

>  <Genealogy>  (32) 
C=c1ccc(N(C(=O)c2ccccc2)C2CCN(C(=O)CCCC(=O)[O-])CC2)cc1=Cc1[n-]c(=O)[n-]c1[O-] (protonated)
C=c1ccc(N(C(=O)c2ccccc2)C2CCN(C(=O)CCCC(=O)[O-])CC2)c/c1=C\c1[n-]c(=O)[n-]c1[O-] (cis-trans isomerization)
C=c1ccc(N(C(=O)c2ccccc2)C2CCN(C(=O)CCCC(=O)[O-])CC2)c/c1=C\c1[n-]c(=O)[n-]c1[O-] (3D coordinates assigned)
C=c1ccc(N(C(=O)c2ccccc2)C2CCN(C(=O)CCCC(=O)[O-])CC2)c/c1=C\c1[n-]c(=O)[n-]c1[O-] (nonaromatic ring conformer: 123.91410634057125 kcal/mol)

>  <smiles>  (32) 
C=c1ccc(N(C(=O)c2ccccc2)C2CCN(C(=O)CCCC(=O)O)CC2)cc1=Cc1[nH]c(=O)[nH]c1O

>  <score_type>  (32) 
oracle

>  <origin>  (32) 
adg

>  <m_score__min__energy>  (32) 
-21.77

>  <m_primary>  (32) 
energy

$$$$
33:0
     RDKit          3D

 50 53  0  0  0  0  0  0  0  0999 V2000
   57.1840   30.1360   43.8870 C   0  0  0  0  0  0  0  0  0  0  0  0
   57.6150   29.7580   45.0920 C   0  0  0  0  0  0  0  0  0  0  0  0
   58.0110   30.6170   46.0040 O   0  0  0  0  0  0  0  0  0  0  0  0
   58.3780   29.9630   47.0820 C   0  0  0  0  0  0  0  0  0  0  0  0
   58.8850   30.5780   48.3340 C   0  0  0  0  0  0  0  0  0  0  0  0
   58.9700   29.8340   49.3510 O   0  0  0  0  0  0  0  0  0  0  0  0
   59.2900   31.9690   48.4380 N   0  0  0  0  0  0  0  0  0  0  0  0
   59.2780   32.8380   47.2400 C   0  0  0  0  0  0  0  0  0  0  0  0
   59.7540   34.2880   47.4620 C   0  0  0  0  0  0  0  0  0  0  0  0
   60.6720   34.4390   48.5980 N   0  0  0  0  0  0  0  0  0  0  0  0
   62.1160   34.2200   48.2880 C   0  0  0  0  0  0  0  0  0  0  0  0
   62.4390   33.6540   46.9040 C   0  0  0  0  0  0  0  0  0  0  0  0
   63.8330   33.0380   47.0330 C   0  0  0  0  0  0  0  0  0  0  0  0
   64.1590   32.9790   48.5270 C   0  0  0  0  0  0  0  0  0  0  0  0
   62.8640   33.3040   49.2540 C   0  0  0  0  0  0  0  0  0  0  0  0
   60.0750   33.9020   49.8280 C   0  0  0  0  0  0  0  0  0  0  0  0
   59.8350   32.4010   49.7400 C   0  0  0  0  0  0  0  0  0  0  0  0
   58.2160   28.6030   46.8790 C   0  0  0  0  0  0  0  0  0  0  0  0
   57.7290   28.4630   45.5890 C   0  0  0  0  0  0  0  0  0  0  0  0
   57.4040   27.3130   44.9690 C   0  0  0  0  0  0  0  0  0  0  0  0
   57.0970   26.0560   45.6890 C   0  0  0  0  0  0  0  0  0  0  0  0
   55.8070   25.7830   46.1800 C   0  0  0  0  0  0  0  0  0  0  0  0
   54.7700   26.6920   46.0030 O   0  0  0  0  0  0  0  0  0  0  0  0
   55.5680   24.6290   46.8550 N   0  0  0  0  0  0  0  0  0  0  0  0
   56.5620   23.7330   47.0860 C   0  0  0  0  0  0  0  0  0  0  0  0
   56.3160   22.6700   47.7110 O   0  0  0  0  0  0  0  0  0  0  0  0
   57.8220   23.9870   46.6490 N   0  0  0  0  0  0  0  0  0  0  0  0
   58.1120   25.1250   45.9660 C   0  0  0  0  0  0  0  0  0  0  0  0
   59.2940   25.3290   45.5800 O   0  0  0  0  0  0  0  0  0  0  0  0
   56.8624   29.3798   43.1558 H   0  0  0  0  0  0  0  0  0  0  0  0
   57.1503   31.2038   43.6249 H   0  0  0  0  0  0  0  0  0  0  0  0
   59.9316   32.3797   46.4832 H   0  0  0  0  0  0  0  0  0  0  0  0
   58.2243   32.9116   46.9330 H   0  0  0  0  0  0  0  0  0  0  0  0
   60.2690   34.6280   46.5514 H   0  0  0  0  0  0  0  0  0  0  0  0
   58.8609   34.8893   47.6875 H   0  0  0  0  0  0  0  0  0  0  0  0
   62.4535   35.2638   48.3697 H   0  0  0  0  0  0  0  0  0  0  0  0
   61.7037   32.8865   46.6208 H   0  0  0  0  0  0  0  0  0  0  0  0
   62.4052   34.4309   46.1260 H   0  0  0  0  0  0  0  0  0  0  0  0
   63.8395   32.0249   46.6045 H   0  0  0  0  0  0  0  0  0  0  0  0
   64.5792   33.6380   46.4916 H   0  0  0  0  0  0  0  0  0  0  0  0
   64.5091   31.9731   48.8020 H   0  0  0  0  0  0  0  0  0  0  0  0
   64.9576   33.6873   48.7924 H   0  0  0  0  0  0  0  0  0  0  0  0
   62.2863   32.3889   49.4512 H   0  0  0  0  0  0  0  0  0  0  0  0
   63.0357   33.7730   50.2341 H   0  0  0  0  0  0  0  0  0  0  0  0
   60.7542   34.1039   50.6694 H   0  0  0  0  0  0  0  0  0  0  0  0
   59.1015   34.3928   49.9744 H   0  0  0  0  0  0  0  0  0  0  0  0
   60.7921   31.8847   49.9058 H   0  0  0  0  0  0  0  0  0  0  0  0
   59.0869   32.1467   50.5053 H   0  0  0  0  0  0  0  0  0  0  0  0
   58.4304   27.7970   47.5962 H   0  0  0  0  0  0  0  0  0  0  0  0
   57.3644   27.3068   43.8697 H   0  0  0  0  0  0  0  0  0  0  0  0
  1  2  2  0
  2  3  1  0
  3  4  1  0
  4  5  1  0
  5  6  2  0
  5  7  1  0
  7  8  1  0
  8  9  1  0
  9 10  1  0
 10 11  1  0
 11 12  1  0
 12 13  1  0
 13 14  1  0
 14 15  1  0
 10 16  1  0
 16 17  1  0
  4 18  2  0
 18 19  1  0
 19 20  2  3
 20 21  1  0
 21 22  2  0
 22 23  1  0
 22 24  1  0
 24 25  1  0
 25 26  2  0
 25 27  1  0
 27 28  1  0
 28 29  2  0
 19  2  1  0
 28 21  1  0
 17  7  1  0
 15 11  1  0
  1 30  1  0
  1 31  1  0
  8 32  1  0
  8 33  1  0
  9 34  1  0
  9 35  1  0
 11 36  1  0
 12 37  1  0
 12 38  1  0
 13 39  1  0
 13 40  1  0
 14 41  1  0
 14 42  1  0
 15 43  1  0
 15 44  1  0
 16 45  1  0
 16 46  1  0
 17 47  1  0
 17 48  1  0
 18 49  1  0
 20 50  1  0
M  CHG  3  23  -1  24  -1  27  -1
M  END
>  <UniqueID>  (33) 
31

>  <SMILES>  (33) 
C=c1oc(C(=O)N2CCN(C3CCCC3)CC2)cc1=Cc1c([O-])[n-]c(=O)[n-]c1=O

>  <Energy>  (33) 
110.47266177336053

>  <Genealogy>  (33) 
C=c1oc(C(=O)N2CCN(C3CCCC3)CC2)cc1=Cc1c([O-])[n-]c(=O)[n-]c1=O (protonated)
C=c1oc(C(=O)N2CCN(C3CCCC3)CC2)cc1=Cc1c([O-])[n-]c(=O)[n-]c1=O (3D coordinates assigned)
C=c1oc(C(=O)N2CCN(C3CCCC3)CC2)cc1=Cc1c([O-])[n-]c(=O)[n-]c1=O (nonaromatic ring conformer: 110.47266177336053 kcal/mol)

>  <smiles>  (33) 
C=c1oc(C(=O)N2CCN(C3CCCC3)CC2)cc1=Cc1c(O)[nH]c(=O)[nH]c1=O

>  <score_type>  (33) 
oracle

>  <origin>  (33) 
adg

>  <m_score__min__energy>  (33) 
-16.120000000000001

>  <m_primary>  (33) 
energy

$$$$
34:0
     RDKit          3D

 55 58  0  0  0  0  0  0  0  0999 V2000
   55.3840   30.0860   45.6160 H   0  0  0  0  0  0  0  0  0  0  0  0
   55.5290   29.2900   45.0080 O   0  0  0  0  0  0  0  0  0  0  0  0
   56.2560   28.1630   45.3930 C   0  0  0  0  0  0  0  0  0  0  0  0
   55.5840   27.0930   45.8890 N   0  0  0  0  0  0  0  0  0  0  0  0
   56.2320   25.9600   46.2570 C   0  0  0  0  0  0  0  0  0  0  0  0
   55.5830   24.9890   46.7250 O   0  0  0  0  0  0  0  0  0  0  0  0
   57.5770   25.8690   46.1120 N   0  0  0  0  0  0  0  0  0  0  0  0
   58.3020   26.9080   45.6210 C   0  0  0  0  0  0  0  0  0  0  0  0
   59.5450   26.7770   45.4660 O   0  0  0  0  0  0  0  0  0  0  0  0
   57.6590   28.1130   45.2830 C   0  0  0  0  0  0  0  0  0  0  0  0
   58.4120   29.2500   44.7150 C   0  0  0  0  0  0  0  0  0  0  0  0
   59.2378   29.0194   44.0259 H   0  0  0  0  0  0  0  0  0  0  0  0
   58.1630   30.5520   44.9780 C   0  0  0  0  0  0  0  0  0  0  0  0
   58.4990   31.2930   46.1180 C   0  0  0  0  0  0  0  0  0  0  0  0
   59.1560   30.8430   47.3580 C   0  0  0  0  0  0  0  0  0  0  0  0
   58.5580   29.9920   48.0700 O   0  0  0  0  0  0  0  0  0  0  0  0
   60.4630   31.3200   47.7510 N   0  0  0  0  0  0  0  0  0  0  0  0
   60.9670   30.9290   49.0740 C   0  0  0  0  0  0  0  0  0  0  0  0
   60.3040   31.3452   49.8468 H   0  0  0  0  0  0  0  0  0  0  0  0
   60.9862   29.8304   49.1260 H   0  0  0  0  0  0  0  0  0  0  0  0
   62.3810   31.4440   49.3050 C   0  0  0  0  0  0  0  0  0  0  0  0
   62.6246   31.3865   50.3761 H   0  0  0  0  0  0  0  0  0  0  0  0
   63.0982   30.8307   48.7397 H   0  0  0  0  0  0  0  0  0  0  0  0
   62.4580   32.8470   48.8540 N   0  0  0  0  0  0  0  0  0  0  0  0
   63.6670   33.5040   49.4350 C   0  0  0  0  0  0  0  0  0  0  0  0
   63.8837   34.3159   48.7252 H   0  0  0  0  0  0  0  0  0  0  0  0
   64.7860   32.4620   49.6240 C   0  0  0  0  0  0  0  0  0  0  0  0
   64.6050   31.5934   48.9738 H   0  0  0  0  0  0  0  0  0  0  0  0
   65.7643   32.8891   49.3585 H   0  0  0  0  0  0  0  0  0  0  0  0
   64.7640   32.0310   51.0910 C   0  0  0  0  0  0  0  0  0  0  0  0
   64.4851   30.9698   51.1694 H   0  0  0  0  0  0  0  0  0  0  0  0
   65.7552   32.1530   51.5522 H   0  0  0  0  0  0  0  0  0  0  0  0
   63.7280   32.8970   51.7900 C   0  0  0  0  0  0  0  0  0  0  0  0
   62.7978   32.3319   51.9491 H   0  0  0  0  0  0  0  0  0  0  0  0
   64.0727   33.2291   52.7804 H   0  0  0  0  0  0  0  0  0  0  0  0
   63.4860   34.0640   50.8570 C   0  0  0  0  0  0  0  0  0  0  0  0
   62.4663   34.4551   50.9884 H   0  0  0  0  0  0  0  0  0  0  0  0
   64.1784   34.8948   51.0576 H   0  0  0  0  0  0  0  0  0  0  0  0
   62.4120   32.8780   47.3730 C   0  0  0  0  0  0  0  0  0  0  0  0
   62.1526   33.8990   47.0563 H   0  0  0  0  0  0  0  0  0  0  0  0
   63.4041   32.5633   47.0171 H   0  0  0  0  0  0  0  0  0  0  0  0
   61.3810   31.8980   46.7530 C   0  0  0  0  0  0  0  0  0  0  0  0
   60.7869   32.4420   46.0039 H   0  0  0  0  0  0  0  0  0  0  0  0
   61.9454   31.0669   46.3050 H   0  0  0  0  0  0  0  0  0  0  0  0
   58.0400   32.5830   45.9030 C   0  0  0  0  0  0  0  0  0  0  0  0
   58.1120   33.7140   46.8810 C   0  0  0  0  0  0  0  0  0  0  0  0
   58.0866   33.3148   47.9057 H   0  0  0  0  0  0  0  0  0  0  0  0
   59.0475   34.2721   46.7280 H   0  0  0  0  0  0  0  0  0  0  0  0
   57.2548   34.3862   46.7280 H   0  0  0  0  0  0  0  0  0  0  0  0
   57.4210   32.6670   44.7130 N   0  0  0  0  0  0  0  0  0  0  0  0
   56.9650   33.5190   44.3160 H   0  0  0  0  0  0  0  0  0  0  0  0
   57.4860   31.4480   44.1410 C   0  0  0  0  0  0  0  0  0  0  0  0
   56.9640   31.1960   42.9350 C   0  0  0  0  0  0  0  0  0  0  0  0
   57.0384   30.1869   42.5034 H   0  0  0  0  0  0  0  0  0  0  0  0
   56.4604   31.9979   42.3752 H   0  0  0  0  0  0  0  0  0  0  0  0
  1  2  1  0
  2  3  1  0
  3  4  1  0
  4  5  1  0
  5  6  2  0
  5  7  1  0
  7  8  1  0
  8  9  2  0
  8 10  1  0
 10 11  1  0
 11 12  1  0
 11 13  2  0
 13 14  1  0
 14 15  1  0
 15 16  2  0
 15 17  1  0
 17 18  1  0
 18 19  1  0
 18 20  1  0
 18 21  1  0
 21 22  1  0
 21 23  1  0
 21 24  1  0
 24 25  1  0
 25 26  1  0
 25 27  1  0
 27 28  1  0
 27 29  1  0
 27 30  1  0
 30 31  1  0
 30 32  1  0
 30 33  1  0
 33 34  1  0
 33 35  1  0
 33 36  1  0
 36 37  1  0
 36 38  1  0
 24 39  1  0
 39 40  1  0
 39 41  1  0
 39 42  1  0
 42 43  1  0
 42 44  1  0
 14 45  2  0
 45 46  1  0
 46 47  1  0
 46 48  1  0
 46 49  1  0
 45 50  1  0
 50 51  1  0
 50 52  1  0
 52 53  2  0
 53 54  1  0
 53 55  1  0
 10  3  2  0
 52 13  1  0
 42 17  1  0
 36 25  1  0
M  CHG  2   4  -1   7  -1
M  END
>  <UniqueID>  (34) 
32

>  <SMILES>  (34) 
C=c1[nH]c(C)c(C(=O)N2CCN(C3CCCC3)CC2)/c1=C\c1c(O)[n-]c(=O)[n-]c1=O

>  <Energy>  (34) 
111.07802350143932

>  <Genealogy>  (34) 
C=c1[nH]c(C)c(C(=O)N2CCN(C3CCCC3)CC2)c1=Cc1c(O)[n-]c(=O)[n-]c1=O (protonated)
C=c1[nH]c(C)c(C(=O)N2CCN(C3CCCC3)CC2)/c1=C\c1c(O)[n-]c(=O)[n-]c1=O (cis-trans isomerization)
C=c1[nH]c(C)c(C(=O)N2CCN(C3CCCC3)CC2)/c1=C\c1c(O)[n-]c(=O)[n-]c1=O (3D coordinates assigned)
C=c1[nH]c(C)c(C(=O)N2CCN(C3CCCC3)CC2)/c1=C\c1c(O)[n-]c(=O)[n-]c1=O (nonaromatic ring conformer: 111.07802350143932 kcal/mol)

>  <smiles>  (34) 
C=c1[nH]c(C)c(C(=O)N2CCN(C3CCCC3)CC2)c1=Cc1c(O)[nH]c(=O)[nH]c1=O

>  <score_type>  (34) 
oracle

>  <origin>  (34) 
adg

>  <m_score__min__energy>  (34) 
-13.52

>  <m_primary>  (34) 
energy

$$$$
35:0
     RDKit          3D

 46 48  0  0  0  0  0  0  0  0999 V2000
   55.1440   26.7160   45.9920 N   0  0  0  0  0  0  0  0  0  0  0  0
   56.2630   25.4320   46.2860 S   0  0  0  0  0  0  0  0  0  0  0  0
   56.2070   24.4470   45.1520 O   0  0  0  0  0  0  0  0  0  0  0  0
   55.8930   24.7250   47.5600 O   0  0  0  0  0  0  0  0  0  0  0  0
   57.8880   26.0960   46.4210 C   0  0  0  0  0  0  0  0  0  0  0  0
   59.0030   25.2710   46.2280 C   0  0  0  0  0  0  0  0  0  0  0  0
   60.2910   25.7960   46.3410 C   0  0  0  0  0  0  0  0  0  0  0  0
   60.4750   27.1460   46.6520 C   0  0  0  0  0  0  0  0  0  0  0  0
   59.3670   27.9870   46.8580 C   0  0  0  0  0  0  0  0  0  0  0  0
   59.5600   29.4190   47.1960 C   0  0  0  0  0  0  0  0  0  0  0  0
   58.7330   30.0480   48.1450 C   0  0  0  0  0  0  0  0  0  0  0  0
   58.9230   31.3940   48.4690 C   0  0  0  0  0  0  0  0  0  0  0  0
   59.9370   32.1340   47.8510 C   0  0  0  0  0  0  0  0  0  0  0  0
   60.2010   33.8140   48.3050 S   0  0  0  0  0  0  0  0  0  0  0  0
   59.6380   34.0750   49.6750 O   0  0  0  0  0  0  0  0  0  0  0  0
   61.6770   34.0910   48.3370 O   0  0  0  0  0  0  0  0  0  0  0  0
   59.4480   34.8500   47.1320 N   0  0  0  0  0  0  0  0  0  0  0  0
   58.1690   34.2780   46.7000 C   0  0  0  0  0  0  0  0  0  0  0  0
   58.3500   33.4880   45.3950 C   0  0  0  0  0  0  0  0  0  0  0  0
   57.0390   32.8850   44.8690 C   0  0  0  0  0  0  0  0  0  0  0  0
   57.1490   31.4110   44.6220 C   0  0  0  0  0  0  0  0  0  0  0  0
   58.2980   30.8130   44.2440 N   0  0  0  0  0  0  0  0  0  0  0  0
   57.9580   29.5200   44.1140 C   0  0  0  0  0  0  0  0  0  0  0  0
   56.6240   29.3690   44.4090 C   0  0  0  0  0  0  0  0  0  0  0  0
   56.1030   30.5650   44.7320 N   0  0  0  0  0  0  0  0  0  0  0  0
   60.7630   31.5160   46.9030 C   0  0  0  0  0  0  0  0  0  0  0  0
   60.5770   30.1700   46.5780 C   0  0  0  0  0  0  0  0  0  0  0  0
   58.0720   27.4490   46.7410 C   0  0  0  0  0  0  0  0  0  0  0  0
   54.8230   27.0610   46.9250 H   0  0  0  0  0  0  0  0  0  0  0  0
   58.8632   24.2069   45.9868 H   0  0  0  0  0  0  0  0  0  0  0  0
   61.1641   25.1453   46.1848 H   0  0  0  0  0  0  0  0  0  0  0  0
   61.4933   27.5534   46.7362 H   0  0  0  0  0  0  0  0  0  0  0  0
   57.9313   29.4762   48.6352 H   0  0  0  0  0  0  0  0  0  0  0  0
   58.2718   31.8744   49.2140 H   0  0  0  0  0  0  0  0  0  0  0  0
   59.2540   35.7620   47.6060 H   0  0  0  0  0  0  0  0  0  0  0  0
   57.7906   33.6038   47.4825 H   0  0  0  0  0  0  0  0  0  0  0  0
   57.4529   35.0948   46.5266 H   0  0  0  0  0  0  0  0  0  0  0  0
   58.7559   34.1653   44.6292 H   0  0  0  0  0  0  0  0  0  0  0  0
   59.0326   32.6525   45.6094 H   0  0  0  0  0  0  0  0  0  0  0  0
   56.2461   33.0610   45.6108 H   0  0  0  0  0  0  0  0  0  0  0  0
   56.8069   33.3703   43.9095 H   0  0  0  0  0  0  0  0  0  0  0  0
   58.6400   28.7093   43.8180 H   0  0  0  0  0  0  0  0  0  0  0  0
   56.0701   28.4189   44.3846 H   0  0  0  0  0  0  0  0  0  0  0  0
   61.5611   32.0928   46.4127 H   0  0  0  0  0  0  0  0  0  0  0  0
   61.2309   29.6934   45.8329 H   0  0  0  0  0  0  0  0  0  0  0  0
   57.1965   28.0952   46.9019 H   0  0  0  0  0  0  0  0  0  0  0  0
  1  2  1  0
  2  3  2  0
  2  4  2  0
  2  5  1  0
  5  6  2  0
  6  7  1  0
  7  8  2  0
  8  9  1  0
  9 10  1  0
 10 11  2  0
 11 12  1  0
 12 13  2  0
 13 14  1  0
 14 15  2  0
 14 16  2  0
 14 17  1  0
 17 18  1  0
 18 19  1  0
 19 20  1  0
 20 21  1  0
 21 22  2  0
 22 23  1  0
 23 24  2  0
 24 25  1  0
 13 26  1  0
 26 27  2  0
  9 28  2  0
 28  5  1  0
 27 10  1  0
 25 21  1  0
  1 29  1  0
  6 30  1  0
  7 31  1  0
  8 32  1  0
 11 33  1  0
 12 34  1  0
 17 35  1  0
 18 36  1  0
 18 37  1  0
 19 38  1  0
 19 39  1  0
 20 40  1  0
 20 41  1  0
 23 42  1  0
 24 43  1  0
 26 44  1  0
 27 45  1  0
 28 46  1  0
M  CHG  2   1  -1  25  -1
M  END
>  <UniqueID>  (35) 
33

>  <SMILES>  (35) 
[NH-]S(=O)(=O)c1cccc(-c2ccc(S(=O)(=O)NCCCc3ncc[n-]3)cc2)c1

>  <Energy>  (35) 
71.81961579036799

>  <Genealogy>  (35) 
[NH-]S(=O)(=O)c1cccc(-c2ccc(S(=O)(=O)NCCCc3ncc[n-]3)cc2)c1 (protonated)
[NH-]S(=O)(=O)c1cccc(-c2ccc(S(=O)(=O)NCCCc3ncc[n-]3)cc2)c1 (3D coordinates assigned)
[NH-]S(=O)(=O)c1cccc(-c2ccc(S(=O)(=O)NCCCc3ncc[n-]3)cc2)c1 (optimized conformer: 71.81961579036799 kcal/mol)

>  <smiles>  (35) 
NS(=O)(=O)c1cccc(-c2ccc(S(=O)(=O)NCCCc3ncc[nH]3)cc2)c1

>  <score_type>  (35) 
oracle

>  <origin>  (35) 
adg

>  <m_score__min__energy>  (35) 
-13.42

>  <m_primary>  (35) 
energy

$$$$
36:0
     RDKit          3D

 62 66  0  0  0  0  0  0  0  0999 V2000
   56.4550   24.1160   43.4030 C   0  0  0  0  0  0  0  0  0  0  0  0
   56.4550   22.6610   43.7380 C   0  0  0  0  0  0  0  0  0  0  0  0
   56.2750   21.6770   42.8340 N   0  0  0  0  0  0  0  0  0  0  0  0
   56.2710   20.5530   43.4930 O   0  0  0  0  0  0  0  0  0  0  0  0
   56.4260   20.7540   44.7830 C   0  0  0  0  0  0  0  0  0  0  0  0
   56.5120   19.6680   45.8060 C   0  0  0  0  0  0  0  0  0  0  0  0
   56.5470   22.1100   45.0000 C   0  0  0  0  0  0  0  0  0  0  0  0
   56.7010   22.8100   46.2840 C   0  0  0  0  0  0  0  0  0  0  0  0
   56.0470   22.4000   47.2840 O   0  0  0  0  0  0  0  0  0  0  0  0
   57.5810   23.9420   46.4050 N   0  0  0  0  0  0  0  0  0  0  0  0
   58.7900   24.0020   45.5660 C   0  0  0  0  0  0  0  0  0  0  0  0
   59.7250   25.1350   46.0000 C   0  0  0  0  0  0  0  0  0  0  0  0
   58.9500   26.4560   46.1300 C   0  0  0  0  0  0  0  0  0  0  0  0
   59.8450   27.4910   46.6530 N   0  0  0  0  0  0  0  0  0  0  0  0
   59.5810   28.9000   46.5210 C   0  0  0  0  0  0  0  0  0  0  0  0
   58.6480   29.2960   45.7690 O   0  0  0  0  0  0  0  0  0  0  0  0
   60.3900   29.8700   47.2160 N   0  0  0  0  0  0  0  0  0  0  0  0
   60.5530   31.2070   46.6230 C   0  0  0  0  0  0  0  0  0  0  0  0
   61.5270   32.0700   47.4310 C   0  0  0  0  0  0  0  0  0  0  0  0
   61.1300   32.0590   48.9170 C   0  0  0  0  0  0  0  0  0  0  0  0
   62.0680   32.8980   49.7390 C   0  0  0  0  0  0  0  0  0  0  0  0
   61.6510   33.7700   50.6750 N   0  0  0  0  0  0  0  0  0  0  0  0
   62.7360   34.2490   51.2570 N   0  0  0  0  0  0  0  0  0  0  0  0
   63.7860   33.6470   50.6680 C   0  0  0  0  0  0  0  0  0  0  0  0
   65.1830   33.8950   51.0420 C   0  0  0  0  0  0  0  0  0  0  0  0
   66.2940   33.2460   50.5200 C   0  0  0  0  0  0  0  0  0  0  0  0
   67.5020   33.6970   51.0660 C   0  0  0  0  0  0  0  0  0  0  0  0
   67.3470   34.7020   52.0120 C   0  0  0  0  0  0  0  0  0  0  0  0
   65.7050   35.0300   52.1700 S   0  0  0  0  0  0  0  0  0  0  0  0
   63.4120   32.7770   49.7110 N   0  0  0  0  0  0  0  0  0  0  0  0
   61.0220   30.6220   49.4980 C   0  0  0  0  0  0  0  0  0  0  0  0
   61.1180   29.5080   48.4410 C   0  0  0  0  0  0  0  0  0  0  0  0
   57.6930   26.3310   47.0340 C   0  0  0  0  0  0  0  0  0  0  0  0
   57.4020   24.8980   47.5040 C   0  0  0  0  0  0  0  0  0  0  0  0
   57.4921   24.4733   43.3207 H   0  0  0  0  0  0  0  0  0  0  0  0
   55.9365   24.2718   42.4455 H   0  0  0  0  0  0  0  0  0  0  0  0
   55.9365   24.6748   44.1960 H   0  0  0  0  0  0  0  0  0  0  0  0
   56.4771   20.1093   46.8130 H   0  0  0  0  0  0  0  0  0  0  0  0
   55.6658   18.9768   45.6790 H   0  0  0  0  0  0  0  0  0  0  0  0
   57.4565   19.1186   45.6790 H   0  0  0  0  0  0  0  0  0  0  0  0
   59.3275   23.0457   45.6464 H   0  0  0  0  0  0  0  0  0  0  0  0
   58.4783   24.1930   44.5285 H   0  0  0  0  0  0  0  0  0  0  0  0
   60.1731   24.8816   46.9721 H   0  0  0  0  0  0  0  0  0  0  0  0
   60.5102   25.2578   45.2395 H   0  0  0  0  0  0  0  0  0  0  0  0
   58.5908   26.7299   45.1270 H   0  0  0  0  0  0  0  0  0  0  0  0
   60.7450   27.1800   47.0850 H   0  0  0  0  0  0  0  0  0  0  0  0
   60.9387   31.0981   45.5986 H   0  0  0  0  0  0  0  0  0  0  0  0
   59.5720   31.7046   46.6239 H   0  0  0  0  0  0  0  0  0  0  0  0
   62.5454   31.6686   47.3229 H   0  0  0  0  0  0  0  0  0  0  0  0
   61.4918   33.1032   47.0551 H   0  0  0  0  0  0  0  0  0  0  0  0
   60.1254   32.5035   48.9730 H   0  0  0  0  0  0  0  0  0  0  0  0
   66.2315   32.4577   49.7553 H   0  0  0  0  0  0  0  0  0  0  0  0
   68.4823   33.2930   50.7730 H   0  0  0  0  0  0  0  0  0  0  0  0
   68.1591   35.1984   52.5635 H   0  0  0  0  0  0  0  0  0  0  0  0
   61.8365   30.4807   50.2237 H   0  0  0  0  0  0  0  0  0  0  0  0
   60.0254   30.5393   49.9563 H   0  0  0  0  0  0  0  0  0  0  0  0
   62.1763   29.3400   48.1925 H   0  0  0  0  0  0  0  0  0  0  0  0
   60.6663   28.5952   48.8565 H   0  0  0  0  0  0  0  0  0  0  0  0
   57.8413   26.9630   47.9220 H   0  0  0  0  0  0  0  0  0  0  0  0
   56.8318   26.6483   46.4276 H   0  0  0  0  0  0  0  0  0  0  0  0
   58.0907   24.6400   48.3220 H   0  0  0  0  0  0  0  0  0  0  0  0
   56.3592   24.8457   47.8502 H   0  0  0  0  0  0  0  0  0  0  0  0
  1  2  1  0
  2  3  2  0
  3  4  1  0
  4  5  1  0
  5  6  1  0
  5  7  2  0
  7  8  1  0
  8  9  2  0
  8 10  1  0
 10 11  1  0
 11 12  1  0
 12 13  1  0
 13 14  1  0
 14 15  1  0
 15 16  2  0
 15 17  1  0
 17 18  1  0
 18 19  1  0
 19 20  1  0
 20 21  1  0
 21 22  2  0
 22 23  1  0
 23 24  1  0
 24 25  1  0
 25 26  2  0
 26 27  1  0
 27 28  2  0
 28 29  1  0
 24 30  2  0
 20 31  1  0
 31 32  1  0
 13 33  1  0
 33 34  1  0
  7  2  1  0
 34 10  1  0
 32 17  1  0
 30 21  1  0
 29 25  1  0
  1 35  1  0
  1 36  1  0
  1 37  1  0
  6 38  1  0
  6 39  1  0
  6 40  1  0
 11 41  1  0
 11 42  1  0
 12 43  1  0
 12 44  1  0
 13 45  1  0
 14 46  1  0
 18 47  1  0
 18 48  1  0
 19 49  1  0
 19 50  1  0
 20 51  1  0
 26 52  1  0
 27 53  1  0
 28 54  1  0
 31 55  1  0
 31 56  1  0
 32 57  1  0
 32 58  1  0
 33 59  1  0
 33 60  1  0
 34 61  1  0
 34 62  1  0
M  CHG  1  23  -1
M  END
>  <UniqueID>  (36) 
34

>  <SMILES>  (36) 
Cc1noc(C)c1C(=O)N1CCC(NC(=O)N2CCC(c3n[n-]c(-c4cccs4)n3)CC2)CC1

>  <Energy>  (36) 
161.07983544659078

>  <Genealogy>  (36) 
Cc1noc(C)c1C(=O)N1CCC(NC(=O)N2CCC(c3n[n-]c(-c4cccs4)n3)CC2)CC1 (protonated)
Cc1noc(C)c1C(=O)N1CCC(NC(=O)N2CCC(c3n[n-]c(-c4cccs4)n3)CC2)CC1 (3D coordinates assigned)
Cc1noc(C)c1C(=O)N1CCC(NC(=O)N2CCC(c3n[n-]c(-c4cccs4)n3)CC2)CC1 (nonaromatic ring conformer: 161.07983544659078 kcal/mol)

>  <smiles>  (36) 
Cc1noc(C)c1C(=O)N1CCC(NC(=O)N2CCC(c3n[nH]c(-c4cccs4)n3)CC2)CC1

>  <score_type>  (36) 
oracle

>  <origin>  (36) 
adg

>  <m_score__min__energy>  (36) 
-8.75

>  <m_primary>  (36) 
energy

$$$$
37:0
     RDKit          3D

 50 53  0  0  0  0  0  0  0  0999 V2000
   55.1520   26.7140   46.0110 N   0  0  0  0  0  0  0  0  0  0  0  0
   55.9640   25.1890   45.9790 S   0  0  0  0  0  0  0  0  0  0  0  0
   55.4730   24.3330   47.1120 O   0  0  0  0  0  0  0  0  0  0  0  0
   55.6680   24.4930   44.6800 O   0  0  0  0  0  0  0  0  0  0  0  0
   57.6950   25.4510   46.1530 C   0  0  0  0  0  0  0  0  0  0  0  0
   58.5870   24.4300   45.8080 C   0  0  0  0  0  0  0  0  0  0  0  0
   59.9610   24.6250   45.9380 C   0  0  0  0  0  0  0  0  0  0  0  0
   60.4550   25.8410   46.4190 C   0  0  0  0  0  0  0  0  0  0  0  0
   59.5740   26.8730   46.7890 C   0  0  0  0  0  0  0  0  0  0  0  0
   60.1200   28.1590   47.2940 C   0  0  0  0  0  0  0  0  0  0  0  0
   60.9530   28.7780   46.5770 O   0  0  0  0  0  0  0  0  0  0  0  0
   59.6860   28.7260   48.5610 N   0  0  1  0  0  0  0  0  0  0  0  0
   60.8050   29.3220   49.3400 C   0  0  0  0  0  0  0  0  0  0  0  0
   61.3770   30.6280   48.7390 C   0  0  0  0  0  0  0  0  0  0  0  0
   60.2960   31.4630   48.1410 C   0  0  0  0  0  0  0  0  0  0  0  0
   60.4570   33.0120   47.5060 S   0  0  0  0  0  0  0  0  0  0  0  0
   58.8500   33.0450   46.9700 C   0  0  0  0  0  0  0  0  0  0  0  0
   58.2690   34.0150   46.3270 N   0  0  0  0  0  0  0  0  0  0  0  0
   57.5890   33.9370   45.0650 C   0  0  0  0  0  0  0  0  0  0  0  0
   56.5100   34.5580   44.8610 O   0  0  0  0  0  0  0  0  0  0  0  0
   58.1750   33.1050   43.9700 C   0  0  0  0  0  0  0  0  0  0  0  0
   57.8120   31.6590   44.1680 C   0  0  0  0  0  0  0  0  0  0  0  0
   58.8080   30.7090   44.4490 C   0  0  0  0  0  0  0  0  0  0  0  0
   58.4640   29.3700   44.6610 C   0  0  0  0  0  0  0  0  0  0  0  0
   57.1270   28.9730   44.6000 C   0  0  0  0  0  0  0  0  0  0  0  0
   56.1280   29.9150   44.3380 C   0  0  0  0  0  0  0  0  0  0  0  0
   56.4680   31.2560   44.1260 C   0  0  0  0  0  0  0  0  0  0  0  0
   58.2010   31.8920   47.2530 N   0  0  0  0  0  0  0  0  0  0  0  0
   59.0150   31.0080   47.8890 C   0  0  0  0  0  0  0  0  0  0  0  0
   58.5540   29.6660   48.3700 C   0  0  0  0  0  0  0  0  0  0  0  0
   58.1900   26.6690   46.6440 C   0  0  0  0  0  0  0  0  0  0  0  0
   55.1910   27.0990   45.0400 H   0  0  0  0  0  0  0  0  0  0  0  0
   58.2027   23.4700   45.4328 H   0  0  0  0  0  0  0  0  0  0  0  0
   60.6581   23.8203   45.6615 H   0  0  0  0  0  0  0  0  0  0  0  0
   61.5409   25.9919   46.5088 H   0  0  0  0  0  0  0  0  0  0  0  0
   59.3310   27.9450   49.1590 H   0  0  0  0  0  0  0  0  0  0  0  0
   60.4399   29.5409   50.3543 H   0  0  0  0  0  0  0  0  0  0  0  0
   61.6227   28.5863   49.3284 H   0  0  0  0  0  0  0  0  0  0  0  0
   61.8752   31.2014   49.5346 H   0  0  0  0  0  0  0  0  0  0  0  0
   62.0926   30.3635   47.9466 H   0  0  0  0  0  0  0  0  0  0  0  0
   57.7824   33.4493   43.0018 H   0  0  0  0  0  0  0  0  0  0  0  0
   59.2701   33.2067   43.9877 H   0  0  0  0  0  0  0  0  0  0  0  0
   59.8620   31.0193   44.5025 H   0  0  0  0  0  0  0  0  0  0  0  0
   59.2479   28.6288   44.8761 H   0  0  0  0  0  0  0  0  0  0  0  0
   56.8594   27.9179   44.7583 H   0  0  0  0  0  0  0  0  0  0  0  0
   55.0742   29.6022   44.2984 H   0  0  0  0  0  0  0  0  0  0  0  0
   55.6796   31.9965   43.9258 H   0  0  0  0  0  0  0  0  0  0  0  0
   58.0316   29.7928   49.3297 H   0  0  0  0  0  0  0  0  0  0  0  0
   57.8852   29.2423   47.6064 H   0  0  0  0  0  0  0  0  0  0  0  0
   57.4892   27.4714   46.9179 H   0  0  0  0  0  0  0  0  0  0  0  0
  1  2  1  0
  2  3  2  0
  2  4  2  0
  2  5  1  0
  5  6  2  0
  6  7  1  0
  7  8  2  0
  8  9  1  0
  9 10  1  0
 10 11  2  0
 10 12  1  0
 12 13  1  0
 13 14  1  0
 14 15  1  0
 15 16  1  0
 16 17  1  0
 17 18  2  3
 18 19  1  0
 19 20  2  0
 19 21  1  0
 21 22  1  0
 22 23  2  0
 23 24  1  0
 24 25  2  0
 25 26  1  0
 26 27  2  0
 17 28  1  0
 28 29  1  0
 29 30  1  0
  9 31  2  0
 31  5  1  0
 30 12  1  0
 29 15  2  0
 27 22  1  0
  1 32  1  0
  6 33  1  0
  7 34  1  0
  8 35  1  0
 12 36  1  1
 13 37  1  0
 13 38  1  0
 14 39  1  0
 14 40  1  0
 21 41  1  0
 21 42  1  0
 23 43  1  0
 24 44  1  0
 25 45  1  0
 26 46  1  0
 27 47  1  0
 30 48  1  0
 30 49  1  0
 31 50  1  0
M  CHG  3   1  -1  12   1  28  -1
M  END
>  <UniqueID>  (37) 
35

>  <SMILES>  (37) 
[NH-]S(=O)(=O)c1cccc(C(=O)[N@H+]2CCc3sc(=NC(=O)Cc4ccccc4)[n-]c3C2)c1

>  <Energy>  (37) 
97.0505166294356

>  <Genealogy>  (37) 
[NH-]S(=O)(=O)c1cccc(C(=O)[NH+]2CCc3sc(=NC(=O)Cc4ccccc4)[n-]c3C2)c1 (protonated)
[NH-]S(=O)(=O)c1cccc(C(=O)[N@H+]2CCc3sc(=NC(=O)Cc4ccccc4)[n-]c3C2)c1 (chirality)
[NH-]S(=O)(=O)c1cccc(C(=O)[N@H+]2CCc3sc(=NC(=O)Cc4ccccc4)[n-]c3C2)c1 (3D coordinates assigned)
[NH-]S(=O)(=O)c1cccc(C(=O)[N@H+]2CCc3sc(=NC(=O)Cc4ccccc4)[n-]c3C2)c1 (nonaromatic ring conformer: 97.0505166294356 kcal/mol)

>  <smiles>  (37) 
NS(=O)(=O)c1cccc(C(=O)N2CCc3sc(=NC(=O)Cc4ccccc4)[nH]c3C2)c1

>  <score_type>  (37) 
oracle

>  <origin>  (37) 
adg

>  <m_score__min__energy>  (37) 
-11.9

>  <m_primary>  (37) 
energy

$$$$
38:0
     RDKit          3D

 39 42  0  0  1  0  0  0  0  0999 V2000
   57.0680   31.3360   43.0070 N   0  0  0  0  0  0  0  0  0  0  0  0
   57.2500   30.2190   43.8290 C   0  0  0  0  0  0  0  0  0  0  0  0
   56.6880   29.0140   43.5370 N   0  0  0  0  0  0  0  0  0  0  0  0
   56.9950   28.1270   44.4390 N   0  0  0  0  0  0  0  0  0  0  0  0
   57.7770   28.7680   45.3390 C   0  0  0  0  0  0  0  0  0  0  0  0
   58.3090   28.1320   46.2910 N   0  0  0  0  0  0  0  0  0  0  0  0
   57.6620   27.2250   47.1480 C   0  0  0  0  0  0  0  0  0  0  0  0
   57.2830   25.9160   46.5840 C   0  0  0  0  0  0  0  0  0  0  0  0
   58.1300   24.8140   46.5570 C   0  0  0  0  0  0  0  0  0  0  0  0
   57.7710   23.5810   46.0720 C   0  0  0  0  0  0  0  0  0  0  0  0
   56.5050   23.3680   45.5680 C   0  0  0  0  0  0  0  0  0  0  0  0
   55.6410   24.4300   45.5780 C   0  0  0  0  0  0  0  0  0  0  0  0
   56.0020   25.6660   46.0650 C   0  0  0  0  0  0  0  0  0  0  0  0
   55.0500   26.6610   46.0190 O   0  0  0  0  0  0  0  0  0  0  0  0
   57.9770   30.0720   45.0400 C   0  0  0  0  0  0  0  0  0  0  0  0
   58.7020   31.1820   45.5970 C   0  0  0  0  0  0  0  0  0  0  0  0
   58.3390   32.4400   45.1180 N   0  0  0  0  0  0  0  0  0  0  0  0
   58.9610   33.4150   45.7460 C   0  0  0  0  0  0  0  0  0  0  0  0
   58.8990   34.7760   45.5920 C   0  0  0  0  0  0  0  0  0  0  0  0
   59.6900   35.5390   46.4220 C   0  0  0  0  0  0  0  0  0  0  0  0
   60.4880   34.9760   47.3420 N   0  0  0  0  0  0  0  0  0  0  0  0
   60.5390   33.6380   47.4840 C   0  0  0  0  0  0  0  0  0  0  0  0
   59.7610   32.8470   46.6730 C   0  0  0  0  0  0  0  0  0  0  0  0
   59.5600   31.5020   46.5330 N   0  0  0  0  0  0  0  0  0  0  0  0
   56.9510   31.2660   41.9750 H   0  0  0  0  0  0  0  0  0  0  0  0
   57.0420   32.3140   43.3990 H   0  0  0  0  0  0  0  0  0  0  0  0
   56.1050   28.8430   42.7140 H   0  0  0  0  0  0  0  0  0  0  0  0
   56.6790   27.1400   44.4280 H   0  0  0  0  0  0  0  0  0  0  0  0
   58.3340   27.0366   47.9983 H   0  0  0  0  0  0  0  0  0  0  0  0
   56.7083   27.7093   47.4047 H   0  0  0  0  0  0  0  0  0  0  0  0
   59.1506   24.9376   46.9483 H   0  0  0  0  0  0  0  0  0  0  0  0
   58.4988   22.7563   46.0854 H   0  0  0  0  0  0  0  0  0  0  0  0
   56.2023   22.3864   45.1746 H   0  0  0  0  0  0  0  0  0  0  0  0
   54.6237   24.2909   45.1834 H   0  0  0  0  0  0  0  0  0  0  0  0
   54.3800   26.7170   46.7810 H   0  0  0  0  0  0  0  0  0  0  0  0
   58.2455   35.2387   44.8378 H   0  0  0  0  0  0  0  0  0  0  0  0
   59.6670   36.6348   46.3286 H   0  0  0  0  0  0  0  0  0  0  0  0
   61.1957   33.1834   48.2403 H   0  0  0  0  0  0  0  0  0  0  0  0
   60.0360   30.8870   47.1870 H   0  0  0  0  0  0  0  0  0  0  0  0
  1  2  1  0
  2  3  1  0
  3  4  1  0
  4  5  1  0
  5  6  2  0
  6  7  1  0
  7  8  1  0
  8  9  2  0
  9 10  1  0
 10 11  2  0
 11 12  1  0
 12 13  2  0
 13 14  1  0
  5 15  1  0
 15 16  1  0
 16 17  2  0
 17 18  1  0
 18 19  2  0
 19 20  1  0
 20 21  2  0
 21 22  1  0
 22 23  2  0
 23 24  1  0
 15  2  2  0
 24 16  1  0
 13  8  1  0
 23 18  1  0
  1 25  1  0
  1 26  1  0
  3 27  1  0
  4 28  1  0
  7 29  1  0
  7 30  1  0
  9 31  1  0
 10 32  1  0
 11 33  1  0
 12 34  1  0
 14 35  1  0
 19 36  1  0
 20 37  1  0
 22 38  1  0
 24 39  1  0
M  END
>  <smiles>  (38) 
Nc1[nH][nH]c(=NCc2ccccc2O)c1-c1nc2ccncc2[nH]1

>  <score_type>  (38) 
oracle

>  <origin>  (38) 
adg

>  <m_score__min__energy>  (38) 
-8.6199999999999992

>  <m_primary>  (38) 
energy

$$$$
39:0
     RDKit          3D

 60 63  0  0  0  0  0  0  0  0999 V2000
   59.3380   26.8980   47.5970 C   0  0  0  0  0  0  0  0  0  0  0  0
   58.1400   26.1070   47.1620 C   0  0  0  0  0  0  0  0  0  0  0  0
   58.0720   24.7910   47.5040 N   0  0  0  0  0  0  0  0  0  0  0  0
   57.0280   23.9970   47.1430 C   0  0  0  0  0  0  0  0  0  0  0  0
   57.0240   22.7520   47.5020 N   0  0  0  0  0  0  0  0  0  0  0  0
   55.9760   24.5320   46.3880 C   0  0  0  0  0  0  0  0  0  0  0  0
   56.0130   25.8760   46.0230 C   0  0  0  0  0  0  0  0  0  0  0  0
   57.0900   26.6900   46.4140 C   0  0  0  0  0  0  0  0  0  0  0  0
   57.1230   28.1330   45.9810 C   0  0  0  0  0  0  0  0  0  0  0  0
   55.9180   28.4330   45.2190 N   0  0  0  0  0  0  0  0  0  0  0  0
   55.8710   29.4050   44.1730 C   0  0  0  0  0  0  0  0  0  0  0  0
   54.7740   29.9180   43.8320 O   0  0  0  0  0  0  0  0  0  0  0  0
   57.1390   29.8620   43.5190 C   0  0  0  0  0  0  0  0  0  0  0  0
   57.7650   30.9260   44.2990 N   0  0  0  0  0  0  0  0  0  0  0  0
   57.9250   32.2090   43.8940 C   0  0  0  0  0  0  0  0  0  0  0  0
   58.4500   32.9020   44.9570 C   0  0  0  0  0  0  0  0  0  0  0  0
   58.7790   34.2430   45.1210 C   0  0  0  0  0  0  0  0  0  0  0  0
   59.2740   34.6430   46.3760 C   0  0  0  0  0  0  0  0  0  0  0  0
   59.4330   33.7020   47.4320 C   0  0  0  0  0  0  0  0  0  0  0  0
   59.9410   34.1270   48.7580 C   0  0  0  0  0  0  0  0  0  0  0  0
   60.9750   34.8470   48.8240 O   0  0  0  0  0  0  0  0  0  0  0  0
   59.2700   33.7420   49.9680 N   0  0  0  0  0  0  0  0  0  0  0  0
   59.9010   33.8550   51.2830 C   0  0  0  0  0  0  0  0  0  0  0  0
   59.1290   33.0400   52.3310 C   0  0  0  0  0  0  0  0  0  0  0  0
   57.9690   32.3390   51.7370 N   0  0  0  0  0  0  0  0  0  0  0  0
   56.9780   31.9490   52.7680 C   0  0  0  0  0  0  0  0  0  0  0  0
   56.1240   30.7600   52.2980 C   0  0  0  0  0  0  0  0  0  0  0  0
   56.8780   29.5900   52.0210 O   0  0  0  0  0  0  0  0  0  0  0  0
   58.2180   29.8500   51.6310 C   0  0  0  0  0  0  0  0  0  0  0  0
   58.3960   31.1920   50.8990 C   0  0  0  0  0  0  0  0  0  0  0  0
   59.0650   32.3500   47.2200 C   0  0  0  0  0  0  0  0  0  0  0  0
   58.5800   31.9910   45.9660 C   0  0  0  0  0  0  0  0  0  0  0  0
   58.1520   30.7810   45.5650 N   0  0  0  0  0  0  0  0  0  0  0  0
   59.3799   26.9256   48.6959 H   0  0  0  0  0  0  0  0  0  0  0  0
   60.2512   26.4247   47.2071 H   0  0  0  0  0  0  0  0  0  0  0  0
   59.2615   27.9237   47.2071 H   0  0  0  0  0  0  0  0  0  0  0  0
   56.4540   22.4030   48.3050 H   0  0  0  0  0  0  0  0  0  0  0  0
   55.1296   23.8974   46.0865 H   0  0  0  0  0  0  0  0  0  0  0  0
   55.1942   26.3027   45.4251 H   0  0  0  0  0  0  0  0  0  0  0  0
   57.1684   28.7821   46.8679 H   0  0  0  0  0  0  0  0  0  0  0  0
   58.0097   28.3103   45.3546 H   0  0  0  0  0  0  0  0  0  0  0  0
   57.8336   29.0123   43.4438 H   0  0  0  0  0  0  0  0  0  0  0  0
   56.9017   30.2493   42.5172 H   0  0  0  0  0  0  0  0  0  0  0  0
   57.6808   32.6178   42.9024 H   0  0  0  0  0  0  0  0  0  0  0  0
   58.6568   34.9647   44.2998 H   0  0  0  0  0  0  0  0  0  0  0  0
   59.5416   35.6968   46.5432 H   0  0  0  0  0  0  0  0  0  0  0  0
   58.2810   33.4130   49.9290 H   0  0  0  0  0  0  0  0  0  0  0  0
   60.9326   33.4780   51.2215 H   0  0  0  0  0  0  0  0  0  0  0  0
   59.8968   34.9124   51.5860 H   0  0  0  0  0  0  0  0  0  0  0  0
   59.8071   32.2950   52.7729 H   0  0  0  0  0  0  0  0  0  0  0  0
   58.7531   33.7355   53.0958 H   0  0  0  0  0  0  0  0  0  0  0  0
   57.5102   31.6667   53.6884 H   0  0  0  0  0  0  0  0  0  0  0  0
   56.3118   32.8048   52.9516 H   0  0  0  0  0  0  0  0  0  0  0  0
   55.3937   30.5240   53.0860 H   0  0  0  0  0  0  0  0  0  0  0  0
   55.6425   31.0625   51.3564 H   0  0  0  0  0  0  0  0  0  0  0  0
   58.8474   29.8595   52.5331 H   0  0  0  0  0  0  0  0  0  0  0  0
   58.5093   29.0567   50.9268 H   0  0  0  0  0  0  0  0  0  0  0  0
   59.4574   31.3172   50.6386 H   0  0  0  0  0  0  0  0  0  0  0  0
   57.7663   31.1750   49.9972 H   0  0  0  0  0  0  0  0  0  0  0  0
   59.1600   31.6053   48.0240 H   0  0  0  0  0  0  0  0  0  0  0  0
  1  2  1  0
  2  3  1  0
  3  4  1  0
  4  5  2  3
  4  6  1  0
  6  7  2  0
  7  8  1  0
  8  9  1  0
  9 10  1  0
 10 11  1  0
 11 12  2  0
 11 13  1  0
 13 14  1  0
 14 15  1  0
 15 16  2  0
 16 17  1  0
 17 18  2  0
 18 19  1  0
 19 20  1  0
 20 21  2  0
 20 22  1  0
 22 23  1  0
 23 24  1  0
 24 25  1  0
 25 26  1  0
 26 27  1  0
 27 28  1  0
 28 29  1  0
 29 30  1  0
 19 31  2  0
 31 32  1  0
 32 33  2  0
  8  2  2  0
 33 14  1  0
 32 16  1  0
 30 25  1  0
  1 34  1  0
  1 35  1  0
  1 36  1  0
  5 37  1  0
  6 38  1  0
  7 39  1  0
  9 40  1  0
  9 41  1  0
 13 42  1  0
 13 43  1  0
 15 44  1  0
 17 45  1  0
 18 46  1  0
 22 47  1  0
 23 48  1  0
 23 49  1  0
 24 50  1  0
 24 51  1  0
 26 52  1  0
 26 53  1  0
 27 54  1  0
 27 55  1  0
 29 56  1  0
 29 57  1  0
 30 58  1  0
 30 59  1  0
 31 60  1  0
M  CHG  2   3  -1  10  -1
M  END
>  <UniqueID>  (39) 
36

>  <SMILES>  (39) 
Cc1[n-]c(=N)ccc1C[N-]C(=O)Cn1cc2ccc(C(=O)NCCN3CCOCC3)cc2n1

>  <Energy>  (39) 
109.66521663984778

>  <Genealogy>  (39) 
Cc1[n-]c(=N)ccc1C[N-]C(=O)Cn1cc2ccc(C(=O)NCCN3CCOCC3)cc2n1 (protonated)
Cc1[n-]c(=N)ccc1C[N-]C(=O)Cn1cc2ccc(C(=O)NCCN3CCOCC3)cc2n1 (3D coordinates assigned)
Cc1[n-]c(=N)ccc1C[N-]C(=O)Cn1cc2ccc(C(=O)NCCN3CCOCC3)cc2n1 (nonaromatic ring conformer: 109.66521663984778 kcal/mol)

>  <smiles>  (39) 
Cc1[nH]c(=N)ccc1CNC(=O)Cn1cc2ccc(C(=O)NCCN3CCOCC3)cc2n1

>  <score_type>  (39) 
oracle

>  <origin>  (39) 
adg

>  <m_score__min__energy>  (39) 
-12.529999999999999

>  <m_primary>  (39) 
energy

$$$$
40:0
     RDKit          3D

 45 47  0  0  0  0  0  0  0  0999 V2000
   55.1750   24.7690   45.6020 C   0  0  0  0  0  0  0  0  0  0  0  0
   55.3070   26.0640   46.1440 O   0  0  0  0  0  0  0  0  0  0  0  0
   56.6390   26.5030   45.9870 C   0  0  0  0  0  0  0  0  0  0  0  0
   56.6360   27.9330   45.5480 C   0  0  0  0  0  0  0  0  0  0  0  0
   55.5250   28.6000   45.1860 N   0  0  0  0  0  0  0  0  0  0  0  0
   55.9900   29.8260   44.8710 C   0  0  0  0  0  0  0  0  0  0  0  0
   55.2380   30.7540   44.4740 O   0  0  0  0  0  0  0  0  0  0  0  0
   57.3220   29.9800   45.0120 N   0  0  0  0  0  0  0  0  0  0  0  0
   57.7280   28.7750   45.4520 C   0  0  0  0  0  0  0  0  0  0  0  0
   59.1640   28.4360   45.7350 C   0  0  0  0  0  0  0  0  0  0  0  0
   59.9440   29.6300   46.2290 C   0  0  0  0  0  0  0  0  0  0  0  0
   61.1540   29.6730   46.0450 O   0  0  0  0  0  0  0  0  0  0  0  0
   59.2500   30.7460   46.8520 N   0  0  0  0  0  0  0  0  0  0  0  0
   59.8150   32.0550   46.4930 C   0  0  0  0  0  0  0  0  0  0  0  0
   61.1930   32.3400   47.1230 C   0  0  0  0  0  0  0  0  0  0  0  0
   61.4570   31.6760   48.4200 N   0  0  0  0  0  0  0  0  0  0  0  0
   62.7440   31.9040   49.0790 C   0  0  0  0  0  0  0  0  0  0  0  0
   63.1160   31.1760   50.2360 C   0  0  0  0  0  0  0  0  0  0  0  0
   64.3450   31.3960   50.8630 C   0  0  0  0  0  0  0  0  0  0  0  0
   65.2350   32.3420   50.3550 C   0  0  0  0  0  0  0  0  0  0  0  0
   66.7780   32.6130   51.1440 Cl  0  0  0  0  0  0  0  0  0  0  0  0
   64.8970   33.0670   49.2130 C   0  0  0  0  0  0  0  0  0  0  0  0
   63.6690   32.8540   48.5800 C   0  0  0  0  0  0  0  0  0  0  0  0
   60.5290   30.6830   48.9980 C   0  0  0  0  0  0  0  0  0  0  0  0
   59.1620   30.6190   48.3120 C   0  0  0  0  0  0  0  0  0  0  0  0
   55.1002   24.0357   46.4185 H   0  0  0  0  0  0  0  0  0  0  0  0
   54.2674   24.7216   44.9824 H   0  0  0  0  0  0  0  0  0  0  0  0
   56.0544   24.5395   44.9824 H   0  0  0  0  0  0  0  0  0  0  0  0
   57.1715   26.4133   46.9453 H   0  0  0  0  0  0  0  0  0  0  0  0
   57.1456   25.8850   45.2311 H   0  0  0  0  0  0  0  0  0  0  0  0
   59.1977   27.6485   46.5023 H   0  0  0  0  0  0  0  0  0  0  0  0
   59.6232   28.0977   44.7944 H   0  0  0  0  0  0  0  0  0  0  0  0
   58.2630   30.7470   46.4980 H   0  0  0  0  0  0  0  0  0  0  0  0
   59.9199   32.0976   45.3988 H   0  0  0  0  0  0  0  0  0  0  0  0
   59.1240   32.8166   46.8835 H   0  0  0  0  0  0  0  0  0  0  0  0
   61.9644   32.0102   46.4115 H   0  0  0  0  0  0  0  0  0  0  0  0
   61.2095   33.4201   47.3308 H   0  0  0  0  0  0  0  0  0  0  0  0
   62.4257   30.4250   50.6476 H   0  0  0  0  0  0  0  0  0  0  0  0
   64.6119   30.8204   51.7616 H   0  0  0  0  0  0  0  0  0  0  0  0
   65.5999   33.8100   48.8083 H   0  0  0  0  0  0  0  0  0  0  0  0
   63.4167   33.4335   47.6797 H   0  0  0  0  0  0  0  0  0  0  0  0
   60.9976   29.6906   48.9240 H   0  0  0  0  0  0  0  0  0  0  0  0
   60.3441   30.9942   50.0367 H   0  0  0  0  0  0  0  0  0  0  0  0
   58.6931   29.6536   48.5529 H   0  0  0  0  0  0  0  0  0  0  0  0
   58.5664   31.4665   48.6822 H   0  0  0  0  0  0  0  0  0  0  0  0
  1  2  1  0
  2  3  1  0
  3  4  1  0
  4  5  1  0
  5  6  1  0
  6  7  2  0
  6  8  1  0
  8  9  1  0
  9 10  1  0
 10 11  1  0
 11 12  2  0
 11 13  1  0
 13 14  1  0
 14 15  1  0
 15 16  1  0
 16 17  1  0
 17 18  2  0
 18 19  1  0
 19 20  2  0
 20 21  1  0
 20 22  1  0
 22 23  2  0
 16 24  1  0
 24 25  1  0
  9  4  2  0
 25 13  1  0
 23 17  1  0
  1 26  1  0
  1 27  1  0
  1 28  1  0
  3 29  1  0
  3 30  1  0
 10 31  1  0
 10 32  1  0
 13 33  1  0
 14 34  1  0
 14 35  1  0
 15 36  1  0
 15 37  1  0
 18 38  1  0
 19 39  1  0
 22 40  1  0
 23 41  1  0
 24 42  1  0
 24 43  1  0
 25 44  1  0
 25 45  1  0
M  CHG  3   5  -1   8  -1  13   1
M  END
>  <UniqueID>  (40) 
37

>  <SMILES>  (40) 
COCc1[n-]c(=O)[n-]c1CC(=O)[NH+]1CCN(c2ccc(Cl)cc2)CC1

>  <Energy>  (40) 
84.84574698944343

>  <Genealogy>  (40) 
COCc1[n-]c(=O)[n-]c1CC(=O)[NH+]1CCN(c2ccc(Cl)cc2)CC1 (protonated)
COCc1[n-]c(=O)[n-]c1CC(=O)[NH+]1CCN(c2ccc(Cl)cc2)CC1 (3D coordinates assigned)
COCc1[n-]c(=O)[n-]c1CC(=O)[NH+]1CCN(c2ccc(Cl)cc2)CC1 (nonaromatic ring conformer: 84.84574698944343 kcal/mol)

>  <smiles>  (40) 
COCc1[nH]c(=O)[nH]c1CC(=O)N1CCN(c2ccc(Cl)cc2)CC1

>  <score_type>  (40) 
oracle

>  <origin>  (40) 
adg

>  <m_score__min__energy>  (40) 
-9.1899999999999995

>  <m_primary>  (40) 
energy

$$$$
41:0
     RDKit          3D

 50 52  0  0  0  0  0  0  0  0999 V2000
   55.7000   23.6290   43.7540 C   0  0  0  0  0  0  0  0  0  0  0  0
   54.5040   23.8050   44.6860 C   0  0  0  0  0  0  0  0  0  0  0  0
   54.7390   24.9110   45.6810 C   0  0  0  0  0  0  0  0  0  0  0  0
   54.0110   25.9380   45.6330 O   0  0  0  0  0  0  0  0  0  0  0  0
   55.8440   24.8930   46.5950 N   0  0  0  0  0  0  0  0  0  0  0  0
   57.1490   25.4470   46.3790 C   0  0  0  0  0  0  0  0  0  0  0  0
   58.2700   24.6270   46.1740 C   0  0  0  0  0  0  0  0  0  0  0  0
   59.5360   25.1950   46.0120 C   0  0  0  0  0  0  0  0  0  0  0  0
   59.6960   26.5810   46.0660 C   0  0  0  0  0  0  0  0  0  0  0  0
   58.5830   27.4150   46.2800 C   0  0  0  0  0  0  0  0  0  0  0  0
   58.7250   28.8430   46.3800 N   0  0  0  0  0  0  0  0  0  0  0  0
   57.8000   29.7850   45.8120 C   0  0  0  0  0  0  0  0  0  0  0  0
   56.6580   29.4060   45.4330 O   0  0  0  0  0  0  0  0  0  0  0  0
   58.1580   31.2480   45.7570 C   0  0  0  0  0  0  0  0  0  0  0  0
   57.0020   32.0770   45.1880 C   0  0  0  0  0  0  0  0  0  0  0  0
   57.4360   33.5440   45.0510 C   0  0  0  0  0  0  0  0  0  0  0  0
   58.1040   34.0870   46.2600 N   0  0  0  0  0  0  0  0  0  0  0  0
   59.6640   34.8030   45.9170 S   0  0  0  0  0  0  0  0  0  0  0  0
   59.5900   36.2880   46.1400 O   0  0  0  0  0  0  0  0  0  0  0  0
   60.0120   34.5660   44.4740 O   0  0  0  0  0  0  0  0  0  0  0  0
   60.9490   34.1440   46.9190 C   0  0  0  0  0  0  0  0  0  0  0  0
   62.1220   33.5620   46.4590 C   0  0  0  0  0  0  0  0  0  0  0  0
   62.9800   33.1710   47.4930 C   0  0  0  0  0  0  0  0  0  0  0  0
   62.4930   33.4620   48.7610 C   0  0  0  0  0  0  0  0  0  0  0  0
   60.9950   34.2080   48.5980 S   0  0  0  0  0  0  0  0  0  0  0  0
   58.1220   33.2030   47.4440 C   0  0  0  0  0  0  0  0  0  0  0  0
   58.5930   31.7660   47.1450 C   0  0  0  0  0  0  0  0  0  0  0  0
   57.3190   26.8340   46.4640 C   0  0  0  0  0  0  0  0  0  0  0  0
   56.6138   23.4945   44.3515 H   0  0  0  0  0  0  0  0  0  0  0  0
   55.5433   22.7442   43.1195 H   0  0  0  0  0  0  0  0  0  0  0  0
   55.8048   24.5214   43.1195 H   0  0  0  0  0  0  0  0  0  0  0  0
   53.6150   24.0474   44.0852 H   0  0  0  0  0  0  0  0  0  0  0  0
   54.3571   22.8665   45.2407 H   0  0  0  0  0  0  0  0  0  0  0  0
   58.1511   23.5339   46.1408 H   0  0  0  0  0  0  0  0  0  0  0  0
   60.4094   24.5484   45.8414 H   0  0  0  0  0  0  0  0  0  0  0  0
   60.6957   27.0226   45.9408 H   0  0  0  0  0  0  0  0  0  0  0  0
   59.5050   29.2180   46.9680 H   0  0  0  0  0  0  0  0  0  0  0  0
   59.0148   31.3615   45.0766 H   0  0  0  0  0  0  0  0  0  0  0  0
   56.7225   31.6844   44.1992 H   0  0  0  0  0  0  0  0  0  0  0  0
   56.1393   32.0141   45.8675 H   0  0  0  0  0  0  0  0  0  0  0  0
   58.1345   33.6213   44.2047 H   0  0  0  0  0  0  0  0  0  0  0  0
   56.5213   34.1355   44.8977 H   0  0  0  0  0  0  0  0  0  0  0  0
   62.3532   33.4226   45.3926 H   0  0  0  0  0  0  0  0  0  0  0  0
   63.9485   32.6797   47.3182 H   0  0  0  0  0  0  0  0  0  0  0  0
   63.0015   33.2416   49.7112 H   0  0  0  0  0  0  0  0  0  0  0  0
   58.7992   33.6405   48.1923 H   0  0  0  0  0  0  0  0  0  0  0  0
   57.0849   33.1303   47.8033 H   0  0  0  0  0  0  0  0  0  0  0  0
   59.6916   31.7426   47.1961 H   0  0  0  0  0  0  0  0  0  0  0  0
   58.1247   31.1110   47.8945 H   0  0  0  0  0  0  0  0  0  0  0  0
   56.4516   27.4759   46.6775 H   0  0  0  0  0  0  0  0  0  0  0  0
  1  2  1  0
  2  3  1  0
  3  4  2  0
  3  5  1  0
  5  6  1  0
  6  7  2  0
  7  8  1  0
  8  9  2  0
  9 10  1  0
 10 11  1  0
 11 12  1  0
 12 13  2  0
 12 14  1  0
 14 15  1  0
 15 16  1  0
 16 17  1  0
 17 18  1  0
 18 19  2  0
 18 20  2  0
 18 21  1  0
 21 22  2  0
 22 23  1  0
 23 24  2  0
 24 25  1  0
 17 26  1  0
 26 27  1  0
 10 28  2  0
 28  6  1  0
 27 14  1  0
 25 21  1  0
  1 29  1  0
  1 30  1  0
  1 31  1  0
  2 32  1  0
  2 33  1  0
  7 34  1  0
  8 35  1  0
  9 36  1  0
 11 37  1  0
 14 38  1  0
 15 39  1  0
 15 40  1  0
 16 41  1  0
 16 42  1  0
 22 43  1  0
 23 44  1  0
 24 45  1  0
 26 46  1  0
 26 47  1  0
 27 48  1  0
 27 49  1  0
 28 50  1  0
M  CHG  1   5  -1
M  END
>  <UniqueID>  (41) 
38

>  <SMILES>  (41) 
CCC(=O)[N-]c1cccc(NC(=O)C2CCN(S(=O)(=O)c3cccs3)CC2)c1

>  <Energy>  (41) 
89.70119368959215

>  <Genealogy>  (41) 
CCC(=O)[N-]c1cccc(NC(=O)C2CCN(S(=O)(=O)c3cccs3)CC2)c1 (protonated)
CCC(=O)[N-]c1cccc(NC(=O)C2CCN(S(=O)(=O)c3cccs3)CC2)c1 (3D coordinates assigned)
CCC(=O)[N-]c1cccc(NC(=O)C2CCN(S(=O)(=O)c3cccs3)CC2)c1 (nonaromatic ring conformer: 89.70119368959215 kcal/mol)

>  <smiles>  (41) 
CCC(=O)Nc1cccc(NC(=O)C2CCN(S(=O)(=O)c3cccs3)CC2)c1

>  <score_type>  (41) 
oracle

>  <origin>  (41) 
adg

>  <m_score__min__energy>  (41) 
-11.17

>  <m_primary>  (41) 
energy

$$$$
42:0
     RDKit          3D

 53 56  0  0  0  0  0  0  0  0999 V2000
   52.1220   30.1900   49.8100 C   0  0  0  0  0  0  0  0  0  0  0  0
   51.8170   31.1190   50.9390 C   0  0  0  0  0  0  0  0  0  0  0  0
   51.0220   32.1960   50.8220 N   0  0  0  0  0  0  0  0  0  0  0  0
   50.9830   32.6910   52.0750 C   0  0  0  0  0  0  0  0  0  0  0  0
   50.3290   33.7230   52.3780 O   0  0  0  0  0  0  0  0  0  0  0  0
   51.6920   31.9880   52.9820 N   0  0  0  0  0  0  0  0  0  0  0  0
   52.2240   30.9910   52.2540 C   0  0  0  0  0  0  0  0  0  0  0  0
   53.0450   29.8820   52.8430 C   0  0  0  0  0  0  0  0  0  0  0  0
   54.5040   30.2510   52.8280 C   0  0  0  0  0  0  0  0  0  0  0  0
   55.2500   30.2540   54.0170 C   0  0  0  0  0  0  0  0  0  0  0  0
   56.5950   30.6320   54.0030 C   0  0  0  0  0  0  0  0  0  0  0  0
   57.2080   31.0190   52.8050 C   0  0  0  0  0  0  0  0  0  0  0  0
   58.8950   31.5210   52.8090 S   0  0  0  0  0  0  0  0  0  0  0  0
   59.0470   32.9080   52.2470 O   0  0  0  0  0  0  0  0  0  0  0  0
   59.3990   31.5180   54.2250 O   0  0  0  0  0  0  0  0  0  0  0  0
   59.8430   30.4160   51.8680 N   0  0  0  0  0  0  0  0  0  0  0  0
   59.7400   30.2360   50.4490 C   0  0  0  0  0  0  0  0  0  0  0  0
   58.7430   29.3900   49.9520 C   0  0  0  0  0  0  0  0  0  0  0  0
   58.6140   29.1760   48.5770 C   0  0  0  0  0  0  0  0  0  0  0  0
   59.4890   29.8040   47.6730 C   0  0  0  0  0  0  0  0  0  0  0  0
   59.4000   29.5830   46.2530 N   0  0  0  0  0  0  0  0  0  0  0  0
   58.4290   30.5490   45.1870 S   0  0  0  0  0  0  0  0  0  0  0  0
   58.8510   30.2890   43.7670 O   0  0  0  0  0  0  0  0  0  0  0  0
   56.9850   30.1660   45.3480 O   0  0  0  0  0  0  0  0  0  0  0  0
   58.6110   32.2540   45.5890 C   0  0  0  0  0  0  0  0  0  0  0  0
   58.8500   33.1900   44.5720 C   0  0  0  0  0  0  0  0  0  0  0  0
   58.9720   34.5480   44.8800 C   0  0  0  0  0  0  0  0  0  0  0  0
   58.8630   34.9770   46.2050 C   0  0  0  0  0  0  0  0  0  0  0  0
   58.6390   34.0470   47.2250 C   0  0  0  0  0  0  0  0  0  0  0  0
   58.5140   32.6870   46.9180 C   0  0  0  0  0  0  0  0  0  0  0  0
   60.4780   30.6630   48.1720 C   0  0  0  0  0  0  0  0  0  0  0  0
   60.6040   30.8830   49.5470 C   0  0  0  0  0  0  0  0  0  0  0  0
   56.4660   31.0180   51.6160 C   0  0  0  0  0  0  0  0  0  0  0  0
   55.1220   30.6340   51.6280 C   0  0  0  0  0  0  0  0  0  0  0  0
   52.4414   29.2171   50.2118 H   0  0  0  0  0  0  0  0  0  0  0  0
   51.2213   30.0542   49.1934 H   0  0  0  0  0  0  0  0  0  0  0  0
   52.9279   30.6145   49.1934 H   0  0  0  0  0  0  0  0  0  0  0  0
   52.7256   29.7051   53.8806 H   0  0  0  0  0  0  0  0  0  0  0  0
   52.8991   28.9706   52.2446 H   0  0  0  0  0  0  0  0  0  0  0  0
   54.7739   29.9576   54.9633 H   0  0  0  0  0  0  0  0  0  0  0  0
   57.1751   30.6256   54.9376 H   0  0  0  0  0  0  0  0  0  0  0  0
   58.0550   28.8892   50.6490 H   0  0  0  0  0  0  0  0  0  0  0  0
   57.8226   28.5118   48.1994 H   0  0  0  0  0  0  0  0  0  0  0  0
   59.8470   28.7310   45.8450 H   0  0  0  0  0  0  0  0  0  0  0  0
   58.9417   32.8542   43.5285 H   0  0  0  0  0  0  0  0  0  0  0  0
   59.1539   35.2792   44.0786 H   0  0  0  0  0  0  0  0  0  0  0  0
   58.9534   36.0465   46.4460 H   0  0  0  0  0  0  0  0  0  0  0  0
   58.5610   34.3843   48.2691 H   0  0  0  0  0  0  0  0  0  0  0  0
   58.3393   31.9567   47.7218 H   0  0  0  0  0  0  0  0  0  0  0  0
   61.1619   31.1691   47.4747 H   0  0  0  0  0  0  0  0  0  0  0  0
   61.3810   31.5640   49.9245 H   0  0  0  0  0  0  0  0  0  0  0  0
   56.9422   31.3200   50.6715 H   0  0  0  0  0  0  0  0  0  0  0  0
   54.5455   30.6321   50.6912 H   0  0  0  0  0  0  0  0  0  0  0  0
  1  2  1  0
  2  3  1  0
  3  4  1  0
  4  5  2  0
  4  6  1  0
  6  7  1  0
  7  8  1  0
  8  9  1  0
  9 10  2  0
 10 11  1  0
 11 12  2  0
 12 13  1  0
 13 14  2  0
 13 15  2  0
 13 16  1  0
 16 17  1  0
 17 18  2  0
 18 19  1  0
 19 20  2  0
 20 21  1  0
 21 22  1  0
 22 23  2  0
 22 24  2  0
 22 25  1  0
 25 26  2  0
 26 27  1  0
 27 28  2  0
 28 29  1  0
 29 30  2  0
 20 31  1  0
 31 32  2  0
 12 33  1  0
 33 34  2  0
  7  2  2  0
 34  9  1  0
 32 17  1  0
 30 25  1  0
  1 35  1  0
  1 36  1  0
  1 37  1  0
  8 38  1  0
  8 39  1  0
 10 40  1  0
 11 41  1  0
 18 42  1  0
 19 43  1  0
 21 44  1  0
 26 45  1  0
 27 46  1  0
 28 47  1  0
 29 48  1  0
 30 49  1  0
 31 50  1  0
 32 51  1  0
 33 52  1  0
 34 53  1  0
M  CHG  3   3  -1   6  -1  16  -1
M  END
>  <UniqueID>  (42) 
39

>  <SMILES>  (42) 
Cc1[n-]c(=O)[n-]c1Cc1ccc(S(=O)(=O)[N-]c2ccc(NS(=O)(=O)c3ccccc3)cc2)cc1

>  <Energy>  (42) 
88.42704193737679

>  <Genealogy>  (42) 
Cc1[n-]c(=O)[n-]c1Cc1ccc(S(=O)(=O)[N-]c2ccc(NS(=O)(=O)c3ccccc3)cc2)cc1 (protonated)
Cc1[n-]c(=O)[n-]c1Cc1ccc(S(=O)(=O)[N-]c2ccc(NS(=O)(=O)c3ccccc3)cc2)cc1 (3D coordinates assigned)
Cc1[n-]c(=O)[n-]c1Cc1ccc(S(=O)(=O)[N-]c2ccc(NS(=O)(=O)c3ccccc3)cc2)cc1 (optimized conformer: 88.42704193737679 kcal/mol)

>  <smiles>  (42) 
Cc1[nH]c(=O)[nH]c1Cc1ccc(S(=O)(=O)Nc2ccc(NS(=O)(=O)c3ccccc3)cc2)cc1

>  <score_type>  (42) 
oracle

>  <origin>  (42) 
adg

>  <m_score__min__energy>  (42) 
-15.800000000000001

>  <m_primary>  (42) 
energy

$$$$
43:0
     RDKit          3D

 60 63  0  0  0  0  0  0  0  0999 V2000
   51.2710   23.7250   45.1030 C   0  0  0  0  0  0  0  0  0  0  0  0
   52.4900   22.9250   44.9060 N   0  0  0  0  0  0  0  0  0  0  0  0
   53.6370   23.7400   44.4640 C   0  0  0  0  0  0  0  0  0  0  0  0
   54.2350   24.5810   45.6060 C   0  0  0  0  0  0  0  0  0  0  0  0
   54.5930   23.7590   46.7770 N   0  0  0  0  0  0  0  0  0  0  0  0
   55.8340   22.9800   46.5680 C   0  0  0  0  0  0  0  0  0  0  0  0
   56.9690   23.8830   46.1880 C   0  0  0  0  0  0  0  0  0  0  0  0
   57.7120   23.5650   45.2200 O   0  0  0  0  0  0  0  0  0  0  0  0
   57.1630   25.1150   46.9010 N   0  0  0  0  0  0  0  0  0  0  0  0
   57.4230   26.2720   46.3720 C   0  0  0  0  0  0  0  0  0  0  0  0
   56.4820   27.1570   45.9740 N   0  0  0  0  0  0  0  0  0  0  0  0
   57.0410   28.2820   45.4550 C   0  0  0  0  0  0  0  0  0  0  0  0
   56.2190   29.3230   44.8970 C   0  0  0  0  0  0  0  0  0  0  0  0
   55.5570   30.1570   44.4470 N   0  0  0  0  0  0  0  0  0  0  0  0
   58.4420   28.2890   45.4400 C   0  0  0  0  0  0  0  0  0  0  0  0
   59.3330   29.3480   44.9280 C   0  0  0  0  0  0  0  0  0  0  0  0
   60.5670   29.1210   44.8420 O   0  0  0  0  0  0  0  0  0  0  0  0
   58.8280   30.6180   44.4930 N   0  0  0  0  0  0  0  0  0  0  0  0
   58.5600   31.7460   45.3410 C   0  0  0  0  0  0  0  0  0  0  0  0
   57.9430   32.9070   44.8460 C   0  0  0  0  0  0  0  0  0  0  0  0
   57.7020   33.9880   45.6930 C   0  0  0  0  0  0  0  0  0  0  0  0
   58.0740   33.9210   47.0360 C   0  0  0  0  0  0  0  0  0  0  0  0
   58.6870   32.7650   47.5500 C   0  0  0  0  0  0  0  0  0  0  0  0
   59.0770   32.6940   48.9760 C   0  0  0  0  0  0  0  0  0  0  0  0
   59.8770   33.5410   49.4500 O   0  0  0  0  0  0  0  0  0  0  0  0
   58.5740   31.6620   49.8340 N   0  0  0  0  0  0  0  0  0  0  0  0
   57.5310   31.9690   50.8100 C   0  0  0  0  0  0  0  0  0  0  0  0
   57.6670   31.0440   52.0230 C   0  0  0  0  0  0  0  0  0  0  0  0
   57.7640   29.6890   51.6210 O   0  0  0  0  0  0  0  0  0  0  0  0
   58.9480   29.4880   50.8750 C   0  0  0  0  0  0  0  0  0  0  0  0
   58.8870   30.2590   49.5570 C   0  0  0  0  0  0  0  0  0  0  0  0
   58.9040   31.6710   46.6940 C   0  0  0  0  0  0  0  0  0  0  0  0
   58.9800   26.8280   46.0850 S   0  0  0  0  0  0  0  0  0  0  0  0
   53.4500   22.9320   47.2270 C   0  0  0  0  0  0  0  0  0  0  0  0
   52.8230   22.1070   46.0870 C   0  0  0  0  0  0  0  0  0  0  0  0
   51.0833   23.8482   46.1798 H   0  0  0  0  0  0  0  0  0  0  0  0
   51.4020   24.7133   44.6382 H   0  0  0  0  0  0  0  0  0  0  0  0
   50.4164   23.2116   44.6382 H   0  0  0  0  0  0  0  0  0  0  0  0
   54.4168   23.0697   44.0734 H   0  0  0  0  0  0  0  0  0  0  0  0
   53.2766   24.4338   43.6902 H   0  0  0  0  0  0  0  0  0  0  0  0
   55.1404   25.0853   45.2375 H   0  0  0  0  0  0  0  0  0  0  0  0
   53.4727   25.3072   45.9245 H   0  0  0  0  0  0  0  0  0  0  0  0
   56.0892   22.4511   47.4981 H   0  0  0  0  0  0  0  0  0  0  0  0
   55.6667   22.2602   45.7532 H   0  0  0  0  0  0  0  0  0  0  0  0
   57.6493   32.9634   43.7874 H   0  0  0  0  0  0  0  0  0  0  0  0
   57.2179   34.8950   45.3018 H   0  0  0  0  0  0  0  0  0  0  0  0
   57.8862   34.7793   47.6978 H   0  0  0  0  0  0  0  0  0  0  0  0
   57.6317   33.0150   51.1353 H   0  0  0  0  0  0  0  0  0  0  0  0
   56.5446   31.8181   50.3470 H   0  0  0  0  0  0  0  0  0  0  0  0
   58.5723   31.3181   52.5845 H   0  0  0  0  0  0  0  0  0  0  0  0
   56.7726   31.1590   52.6529 H   0  0  0  0  0  0  0  0  0  0  0  0
   59.8095   29.8405   51.4611 H   0  0  0  0  0  0  0  0  0  0  0  0
   59.0525   28.4152   50.6553 H   0  0  0  0  0  0  0  0  0  0  0  0
   59.8592   30.1928   49.0467 H   0  0  0  0  0  0  0  0  0  0  0  0
   58.1078   29.8270   48.9119 H   0  0  0  0  0  0  0  0  0  0  0  0
   59.3487   30.7472   47.0926 H   0  0  0  0  0  0  0  0  0  0  0  0
   53.8019   22.2416   48.0077 H   0  0  0  0  0  0  0  0  0  0  0  0
   52.6756   23.6158   47.6048 H   0  0  0  0  0  0  0  0  0  0  0  0
   53.5367   21.3267   45.7842 H   0  0  0  0  0  0  0  0  0  0  0  0
   51.8848   21.6765   46.4670 H   0  0  0  0  0  0  0  0  0  0  0  0
  1  2  1  0
  2  3  1  0
  3  4  1  0
  4  5  1  0
  5  6  1  0
  6  7  1  0
  7  8  2  0
  7  9  1  0
  9 10  2  3
 10 11  1  0
 11 12  1  0
 12 13  1  0
 13 14  3  0
 12 15  2  0
 15 16  1  0
 16 17  2  0
 16 18  1  0
 18 19  1  0
 19 20  2  0
 20 21  1  0
 21 22  2  0
 22 23  1  0
 23 24  1  0
 24 25  2  0
 24 26  1  0
 26 27  1  0
 27 28  1  0
 28 29  1  0
 29 30  1  0
 30 31  1  0
 23 32  2  0
 15 33  1  0
  5 34  1  0
 34 35  1  0
 35  2  1  0
 33 10  1  0
 32 19  1  0
 31 26  1  0
  1 36  1  0
  1 37  1  0
  1 38  1  0
  3 39  1  0
  3 40  1  0
  4 41  1  0
  4 42  1  0
  6 43  1  0
  6 44  1  0
 20 45  1  0
 21 46  1  0
 22 47  1  0
 27 48  1  0
 27 49  1  0
 28 50  1  0
 28 51  1  0
 30 52  1  0
 30 53  1  0
 31 54  1  0
 31 55  1  0
 32 56  1  0
 34 57  1  0
 34 58  1  0
 35 59  1  0
 35 60  1  0
M  CHG  2  11  -1  18  -1
M  END
>  <UniqueID>  (43) 
40

>  <SMILES>  (43) 
CN1CCN(CC(=O)N=c2[n-]c(C#N)c(C(=O)[N-]c3cccc(C(=O)N4CCOCC4)c3)s2)CC1

>  <Energy>  (43) 
113.75656604123428

>  <Genealogy>  (43) 
CN1CCN(CC(=O)N=c2[n-]c(C#N)c(C(=O)[N-]c3cccc(C(=O)N4CCOCC4)c3)s2)CC1 (protonated)
CN1CCN(CC(=O)N=c2[n-]c(C#N)c(C(=O)[N-]c3cccc(C(=O)N4CCOCC4)c3)s2)CC1 (3D coordinates assigned)
CN1CCN(CC(=O)N=c2[n-]c(C#N)c(C(=O)[N-]c3cccc(C(=O)N4CCOCC4)c3)s2)CC1 (nonaromatic ring conformer: 113.75656604123428 kcal/mol)

>  <smiles>  (43) 
CN1CCN(CC(=O)N=c2[nH]c(C#N)c(C(=O)Nc3cccc(C(=O)N4CCOCC4)c3)s2)CC1

>  <score_type>  (43) 
oracle

>  <origin>  (43) 
adg

>  <m_score__min__energy>  (43) 
-12.359999999999999

>  <m_primary>  (43) 
energy

$$$$
44:0
     RDKit          3D

 38 40  0  0  0  0  0  0  0  0999 V2000
   60.2773   30.2377   44.2889 H   0  0  0  0  0  0  0  0  0  0  0  0
   59.6590   29.3550   44.5090 C   0  0  0  0  0  0  0  0  0  0  0  0
   59.3174   28.7048   43.6902 H   0  0  0  0  0  0  0  0  0  0  0  0
   59.3210   29.0710   45.7780 C   0  0  0  0  0  0  0  0  0  0  0  0
   58.5420   27.9870   46.2180 C   0  0  0  0  0  0  0  0  0  0  0  0
   58.1350   26.8730   45.5800 C   0  0  0  0  0  0  0  0  0  0  0  0
   58.3896   26.7834   44.5136 H   0  0  0  0  0  0  0  0  0  0  0  0
   57.3790   25.7650   46.1860 C   0  0  0  0  0  0  0  0  0  0  0  0
   57.9330   24.6870   46.7710 N   0  0  0  0  0  0  0  0  0  0  0  0
   56.8710   24.0360   47.2930 C   0  0  0  0  0  0  0  0  0  0  0  0
   56.9830   22.9490   47.9180 O   0  0  0  0  0  0  0  0  0  0  0  0
   55.6820   24.6460   47.1010 N   0  0  0  0  0  0  0  0  0  0  0  0
   56.0240   25.7460   46.4110 C   0  0  0  0  0  0  0  0  0  0  0  0
   55.1180   26.7140   46.0020 O   0  0  0  0  0  0  0  0  0  0  0  0
   58.2350   28.2470   47.5420 C   0  0  0  0  0  0  0  0  0  0  0  0
   57.5998   27.6345   48.1987 H   0  0  0  0  0  0  0  0  0  0  0  0
   58.8760   29.4190   47.8820 C   0  0  0  0  0  0  0  0  0  0  0  0
   58.8250   30.0540   49.2380 C   0  0  0  0  0  0  0  0  0  0  0  0
   58.8877   29.2738   50.0108 H   0  0  0  0  0  0  0  0  0  0  0  0
   59.6702   30.7491   49.3494 H   0  0  0  0  0  0  0  0  0  0  0  0
   57.8797   30.6053   49.3494 H   0  0  0  0  0  0  0  0  0  0  0  0
   59.5570   29.9100   46.8200 N   0  0  0  0  0  0  0  0  0  0  0  0
   60.3050   31.1790   46.7930 C   0  0  0  0  0  0  0  0  0  0  0  0
   60.6186   31.4324   47.8164 H   0  0  0  0  0  0  0  0  0  0  0  0
   61.1804   31.0534   46.1389 H   0  0  0  0  0  0  0  0  0  0  0  0
   59.4570   32.3010   46.2460 C   0  0  0  0  0  0  0  0  0  0  0  0
   59.9880   33.4220   46.0260 O   0  0  0  0  0  0  0  0  0  0  0  0
   58.0520   32.1490   45.9720 N   0  0  0  0  0  0  0  0  0  0  0  0
   57.4820   31.5240   44.9820 C   0  0  0  0  0  0  0  0  0  0  0  0
   56.6490   30.4650   45.1920 N   0  0  0  0  0  0  0  0  0  0  0  0
   56.0620   29.7950   44.1640 C   0  0  0  0  0  0  0  0  0  0  0  0
   55.3894   28.9497   44.3714 H   0  0  0  0  0  0  0  0  0  0  0  0
   56.3130   30.1800   42.8460 C   0  0  0  0  0  0  0  0  0  0  0  0
   55.8417   29.6423   42.0101 H   0  0  0  0  0  0  0  0  0  0  0  0
   57.1680   31.2540   42.6010 C   0  0  0  0  0  0  0  0  0  0  0  0
   57.3754   31.5686   41.5675 H   0  0  0  0  0  0  0  0  0  0  0  0
   57.7610   31.9300   43.6710 C   0  0  0  0  0  0  0  0  0  0  0  0
   58.4413   32.7741   43.4849 H   0  0  0  0  0  0  0  0  0  0  0  0
  1  2  1  0
  2  3  1  0
  2  4  2  0
  4  5  1  0
  5  6  2  0
  6  7  1  0
  6  8  1  0
  8  9  1  0
  9 10  1  0
 10 11  2  0
 10 12  1  0
 12 13  1  0
 13 14  1  0
  5 15  1  0
 15 16  1  0
 15 17  2  0
 17 18  1  0
 18 19  1  0
 18 20  1  0
 18 21  1  0
 17 22  1  0
 22 23  1  0
 23 24  1  0
 23 25  1  0
 23 26  1  0
 26 27  2  0
 26 28  1  0
 28 29  2  3
 29 30  1  0
 30 31  1  0
 31 32  1  0
 31 33  2  0
 33 34  1  0
 33 35  1  0
 35 36  1  0
 35 37  2  0
 37 38  1  0
 22  4  1  0
 37 29  1  0
 13  8  2  0
M  CHG  4   9  -1  12  -1  14  -1  30  -1
M  END
>  <UniqueID>  (44) 
41

>  <SMILES>  (44) 
C=c1/c(=C\c2[n-]c(=O)[n-]c2[O-])cc(C)n1CC(=O)N=c1cccc[n-]1

>  <Energy>  (44) 
113.5566331487952

>  <Genealogy>  (44) 
C=c1c(=Cc2[n-]c(=O)[n-]c2[O-])cc(C)n1CC(=O)N=c1cccc[n-]1 (protonated)
C=c1/c(=C\c2[n-]c(=O)[n-]c2[O-])cc(C)n1CC(=O)N=c1cccc[n-]1 (cis-trans isomerization)
C=c1/c(=C\c2[n-]c(=O)[n-]c2[O-])cc(C)n1CC(=O)N=c1cccc[n-]1 (3D coordinates assigned)
C=c1/c(=C\c2[n-]c(=O)[n-]c2[O-])cc(C)n1CC(=O)N=c1cccc[n-]1 (optimized conformer: 113.5566331487952 kcal/mol)

>  <smiles>  (44) 
C=c1c(=Cc2[nH]c(=O)[nH]c2O)cc(C)n1CC(=O)N=c1cccc[nH]1

>  <score_type>  (44) 
oracle

>  <origin>  (44) 
adg

>  <m_score__min__energy>  (44) 
-16.75

>  <m_primary>  (44) 
energy

$$$$
45:0
     RDKit          3D

 42 45  0  0  0  0  0  0  0  0999 V2000
   58.0030   23.7440   44.9520 C   0  0  0  0  0  0  0  0  0  0  0  0
   57.3380   24.8520   45.2930 C   0  0  0  0  0  0  0  0  0  0  0  0
   55.9860   24.7920   45.4050 N   0  0  0  0  0  0  0  0  0  0  0  0
   55.2560   25.8830   45.7390 C   0  0  0  0  0  0  0  0  0  0  0  0
   54.0030   25.7990   45.8250 O   0  0  0  0  0  0  0  0  0  0  0  0
   55.8720   27.0650   45.9830 N   0  0  0  0  0  0  0  0  0  0  0  0
   57.2250   27.2040   45.9090 C   0  0  0  0  0  0  0  0  0  0  0  0
   57.7330   28.4250   46.1750 C   0  0  0  0  0  0  0  0  0  0  0  0
   57.2500   29.7030   45.6210 C   0  0  0  0  0  0  0  0  0  0  0  0
   56.1180   29.9300   44.8400 C   0  0  0  0  0  0  0  0  0  0  0  0
   55.1730   28.9700   44.4920 O   0  0  0  0  0  0  0  0  0  0  0  0
   56.0400   31.2160   44.4210 N   0  0  0  0  0  0  0  0  0  0  0  0
   57.1460   31.7950   44.9290 C   0  0  0  0  0  0  0  0  0  0  0  0
   57.5430   33.1190   44.7590 C   0  0  0  0  0  0  0  0  0  0  0  0
   58.7490   33.5300   45.3550 C   0  0  0  0  0  0  0  0  0  0  0  0
   59.5270   32.6270   46.1150 C   0  0  0  0  0  0  0  0  0  0  0  0
   60.7540   33.0920   46.6950 N   0  0  0  0  0  0  0  0  0  0  0  0
   60.9800   33.3530   48.0840 C   0  0  0  0  0  0  0  0  0  0  0  0
   61.1100   34.5460   48.4670 O   0  0  0  0  0  0  0  0  0  0  0  0
   60.9500   32.2830   49.0370 N   0  0  0  0  0  0  0  0  0  0  0  0
   59.8080   31.8130   49.7680 C   0  0  0  0  0  0  0  0  0  0  0  0
   59.5590   30.4350   49.8100 C   0  0  0  0  0  0  0  0  0  0  0  0
   58.4730   29.9330   50.5330 C   0  0  0  0  0  0  0  0  0  0  0  0
   57.6340   30.8050   51.2310 C   0  0  0  0  0  0  0  0  0  0  0  0
   57.8860   32.1790   51.2150 C   0  0  0  0  0  0  0  0  0  0  0  0
   58.9730   32.6850   50.4930 C   0  0  0  0  0  0  0  0  0  0  0  0
   59.1100   31.2800   46.2430 C   0  0  0  0  0  0  0  0  0  0  0  0
   57.9080   30.9090   45.6450 C   0  0  0  0  0  0  0  0  0  0  0  0
   58.0010   26.0760   45.5330 C   0  0  0  0  0  0  0  0  0  0  0  0
   59.2510   26.1570   45.3830 O   0  0  0  0  0  0  0  0  0  0  0  0
   59.0985   23.7679   44.8550 H   0  0  0  0  0  0  0  0  0  0  0  0
   57.4549   22.8082   44.7683 H   0  0  0  0  0  0  0  0  0  0  0  0
   58.5855   28.4713   46.8686 H   0  0  0  0  0  0  0  0  0  0  0  0
   55.1460   28.0650   44.9490 H   0  0  0  0  0  0  0  0  0  0  0  0
   56.9313   33.8229   44.1756 H   0  0  0  0  0  0  0  0  0  0  0  0
   59.0912   34.5677   45.2280 H   0  0  0  0  0  0  0  0  0  0  0  0
   60.2226   29.7433   49.2704 H   0  0  0  0  0  0  0  0  0  0  0  0
   58.2789   28.8504   50.5523 H   0  0  0  0  0  0  0  0  0  0  0  0
   56.7750   30.4098   51.7931 H   0  0  0  0  0  0  0  0  0  0  0  0
   57.2291   32.8643   51.7707 H   0  0  0  0  0  0  0  0  0  0  0  0
   59.1755   33.7662   50.4918 H   0  0  0  0  0  0  0  0  0  0  0  0
   59.7166   30.5490   46.7976 H   0  0  0  0  0  0  0  0  0  0  0  0
  1  2  2  0
  2  3  1  0
  3  4  1  0
  4  5  2  0
  4  6  1  0
  6  7  1  0
  7  8  2  3
  8  9  1  0
  9 10  2  0
 10 11  1  0
 10 12  1  0
 12 13  1  0
 13 14  2  0
 14 15  1  0
 15 16  2  0
 16 17  1  0
 17 18  1  0
 18 19  2  0
 18 20  1  0
 20 21  1  0
 21 22  2  0
 22 23  1  0
 23 24  2  0
 24 25  1  0
 25 26  2  0
 16 27  1  0
 27 28  2  0
  7 29  1  0
 29 30  2  0
 29  2  1  0
 28  9  1  0
 28 13  1  0
 26 21  1  0
  1 31  1  0
  1 32  1  0
  8 33  1  0
 11 34  1  0
 14 35  1  0
 15 36  1  0
 22 37  1  0
 23 38  1  0
 24 39  1  0
 25 40  1  0
 26 41  1  0
 27 42  1  0
M  CHG  5   3  -1   6  -1  12  -1  17  -1  20  -1
M  END
>  <UniqueID>  (45) 
42

>  <SMILES>  (45) 
C=c1[n-]c(=O)[n-]c(=Cc2c(O)[n-]c3ccc([N-]C(=O)[N-]c4ccccc4)cc23)c1=O

>  <Energy>  (45) 
99.66300335890898

>  <Genealogy>  (45) 
C=c1[n-]c(=O)[n-]c(=Cc2c(O)[n-]c3ccc([N-]C(=O)[N-]c4ccccc4)cc23)c1=O (protonated)
C=c1[n-]c(=O)[n-]c(=Cc2c(O)[n-]c3ccc([N-]C(=O)[N-]c4ccccc4)cc23)c1=O (3D coordinates assigned)
C=c1[n-]c(=O)[n-]c(=Cc2c(O)[n-]c3ccc([N-]C(=O)[N-]c4ccccc4)cc23)c1=O (optimized conformer: 99.66300335890898 kcal/mol)

>  <smiles>  (45) 
C=c1[nH]c(=O)[nH]c(=Cc2c(O)[nH]c3ccc(NC(=O)Nc4ccccc4)cc23)c1=O

>  <score_type>  (45) 
oracle

>  <origin>  (45) 
adg

>  <m_score__min__energy>  (45) 
-16.129999999999999

>  <m_primary>  (45) 
energy

$$$$
46:0
     RDKit          3D

 54 57  0  0  0  0  0  0  0  0999 V2000
   55.1620   29.2250   44.7200 O   0  0  0  0  0  0  0  0  0  0  0  0
   56.2880   29.7890   44.7790 C   0  0  0  0  0  0  0  0  0  0  0  0
   57.4940   29.0000   45.1700 C   0  0  0  0  0  0  0  0  0  0  0  0
   57.0830   27.6170   45.5740 C   0  0  0  0  0  0  0  0  0  0  0  0
   55.8020   27.2100   45.6310 N   0  0  0  0  0  0  0  0  0  0  0  0
   55.9040   25.9110   45.9830 C   0  0  0  0  0  0  0  0  0  0  0  0
   54.8990   25.1720   46.1480 O   0  0  0  0  0  0  0  0  0  0  0  0
   57.1670   25.4680   46.1440 N   0  0  0  0  0  0  0  0  0  0  0  0
   57.9140   26.5530   45.8690 C   0  0  0  0  0  0  0  0  0  0  0  0
   59.4110   26.5720   45.9540 C   0  0  0  0  0  0  0  0  0  0  0  0
   59.8610   27.1700   47.2590 C   0  0  0  0  0  0  0  0  0  0  0  0
   60.3930   26.4280   48.1340 O   0  0  0  0  0  0  0  0  0  0  0  0
   59.7040   28.5760   47.5200 N   0  0  0  0  0  0  0  0  0  0  0  0
   59.4660   29.0570   48.8820 C   0  0  0  0  0  0  0  0  0  0  0  0
   60.7220   29.7560   49.4020 C   0  0  0  0  0  0  0  0  0  0  0  0
   61.1990   30.7350   48.4130 N   0  0  0  0  0  0  0  0  0  0  0  0
   61.8160   31.9630   48.8540 C   0  0  0  0  0  0  0  0  0  0  0  0
   61.0290   33.0510   49.2690 C   0  0  0  0  0  0  0  0  0  0  0  0
   61.6350   34.2400   49.6910 C   0  0  0  0  0  0  0  0  0  0  0  0
   63.0280   34.3510   49.7020 C   0  0  0  0  0  0  0  0  0  0  0  0
   63.8230   33.2740   49.2880 C   0  0  0  0  0  0  0  0  0  0  0  0
   65.2130   33.3750   49.2920 O   0  0  0  0  0  0  0  0  0  0  0  0
   63.2170   32.0850   48.8650 C   0  0  0  0  0  0  0  0  0  0  0  0
   61.3730   30.2920   47.0230 C   0  0  0  0  0  0  0  0  0  0  0  0
   60.1120   29.5770   46.5280 C   0  0  0  0  0  0  0  0  0  0  0  0
   56.4260   31.1800   44.4720 N   0  0  0  0  0  0  0  0  0  0  0  0
   57.3840   32.0810   45.0440 C   0  0  0  0  0  0  0  0  0  0  0  0
   57.9660   33.0560   44.2220 C   0  0  0  0  0  0  0  0  0  0  0  0
   58.9340   33.9270   44.7350 C   0  0  0  0  0  0  0  0  0  0  0  0
   59.3380   33.8180   46.0670 C   0  0  0  0  0  0  0  0  0  0  0  0
   58.7800   32.8340   46.8900 C   0  0  0  0  0  0  0  0  0  0  0  0
   57.8100   31.9640   46.3790 C   0  0  0  0  0  0  0  0  0  0  0  0
   58.1853   28.9414   44.3163 H   0  0  0  0  0  0  0  0  0  0  0  0
   57.9937   29.4936   46.0165 H   0  0  0  0  0  0  0  0  0  0  0  0
   59.7902   25.5422   45.8787 H   0  0  0  0  0  0  0  0  0  0  0  0
   59.8047   27.1844   45.1294 H   0  0  0  0  0  0  0  0  0  0  0  0
   58.6259   29.7671   48.8786 H   0  0  0  0  0  0  0  0  0  0  0  0
   59.2234   28.2054   49.5346 H   0  0  0  0  0  0  0  0  0  0  0  0
   60.4872   30.2742   50.3435 H   0  0  0  0  0  0  0  0  0  0  0  0
   61.5074   29.0056   49.5750 H   0  0  0  0  0  0  0  0  0  0  0  0
   59.9322   32.9677   49.2621 H   0  0  0  0  0  0  0  0  0  0  0  0
   61.0139   35.0883   50.0145 H   0  0  0  0  0  0  0  0  0  0  0  0
   63.5014   35.2859   50.0364 H   0  0  0  0  0  0  0  0  0  0  0  0
   65.7660   33.0810   48.4970 H   0  0  0  0  0  0  0  0  0  0  0  0
   63.8412   31.2400   48.5389 H   0  0  0  0  0  0  0  0  0  0  0  0
   61.5672   31.1671   46.3854 H   0  0  0  0  0  0  0  0  0  0  0  0
   62.2212   29.5932   46.9750 H   0  0  0  0  0  0  0  0  0  0  0  0
   59.3033   30.3100   46.3909 H   0  0  0  0  0  0  0  0  0  0  0  0
   60.3206   29.0822   45.5680 H   0  0  0  0  0  0  0  0  0  0  0  0
   57.6603   33.1369   43.1684 H   0  0  0  0  0  0  0  0  0  0  0  0
   59.3770   34.6984   44.0880 H   0  0  0  0  0  0  0  0  0  0  0  0
   60.0956   34.5064   46.4696 H   0  0  0  0  0  0  0  0  0  0  0  0
   59.1032   32.7441   47.9376 H   0  0  0  0  0  0  0  0  0  0  0  0
   57.3788   31.1849   47.0248 H   0  0  0  0  0  0  0  0  0  0  0  0
  1  2  2  0
  2  3  1  0
  3  4  1  0
  4  5  1  0
  5  6  1  0
  6  7  2  0
  6  8  1  0
  8  9  1  0
  9 10  1  0
 10 11  1  0
 11 12  2  0
 11 13  1  0
 13 14  1  0
 14 15  1  0
 15 16  1  0
 16 17  1  0
 17 18  2  0
 18 19  1  0
 19 20  2  0
 20 21  1  0
 21 22  1  0
 21 23  2  0
 16 24  1  0
 24 25  1  0
  2 26  1  0
 26 27  1  0
 27 28  2  0
 28 29  1  0
 29 30  2  0
 30 31  1  0
 31 32  2  0
  9  4  2  0
 25 13  1  0
 32 27  1  0
 23 17  1  0
  3 33  1  0
  3 34  1  0
 10 35  1  0
 10 36  1  0
 14 37  1  0
 14 38  1  0
 15 39  1  0
 15 40  1  0
 18 41  1  0
 19 42  1  0
 20 43  1  0
 22 44  1  0
 23 45  1  0
 24 46  1  0
 24 47  1  0
 25 48  1  0
 25 49  1  0
 28 50  1  0
 29 51  1  0
 30 52  1  0
 31 53  1  0
 32 54  1  0
M  CHG  3   5  -1   8  -1  26  -1
M  END
>  <UniqueID>  (46) 
43

>  <SMILES>  (46) 
O=C(Cc1[n-]c(=O)[n-]c1CC(=O)N1CCN(c2cccc(O)c2)CC1)[N-]c1ccccc1

>  <Energy>  (46) 
90.3259807786111

>  <Genealogy>  (46) 
O=C(Cc1[n-]c(=O)[n-]c1CC(=O)N1CCN(c2cccc(O)c2)CC1)[N-]c1ccccc1 (protonated)
O=C(Cc1[n-]c(=O)[n-]c1CC(=O)N1CCN(c2cccc(O)c2)CC1)[N-]c1ccccc1 (3D coordinates assigned)
O=C(Cc1[n-]c(=O)[n-]c1CC(=O)N1CCN(c2cccc(O)c2)CC1)[N-]c1ccccc1 (nonaromatic ring conformer: 90.3259807786111 kcal/mol)

>  <smiles>  (46) 
O=C(Cc1[nH]c(=O)[nH]c1CC(=O)N1CCN(c2cccc(O)c2)CC1)Nc1ccccc1

>  <score_type>  (46) 
oracle

>  <origin>  (46) 
adg

>  <m_score__min__energy>  (46) 
-14.5

>  <m_primary>  (46) 
energy

$$$$
47:0
     RDKit          3D

 49 52  0  0  0  0  0  0  0  0999 V2000
   57.5690   22.3680   44.5720 C   0  0  0  0  0  0  0  0  0  0  0  0
   56.2600   21.8870   44.0240 C   0  0  0  0  0  0  0  0  0  0  0  0
   56.1670   21.6400   42.7930 O   0  0  0  0  0  0  0  0  0  0  0  0
   55.1000   21.7300   44.8530 N   0  0  0  0  0  0  0  0  0  0  0  0
   54.9050   22.3470   46.1620 C   0  0  0  0  0  0  0  0  0  0  0  0
   54.9810   23.8370   46.0590 C   0  0  0  0  0  0  0  0  0  0  0  0
   53.9810   24.6770   45.6250 C   0  0  0  0  0  0  0  0  0  0  0  0
   54.4200   25.9460   45.6780 N   0  0  0  0  0  0  0  0  0  0  0  0
   55.6840   25.8270   46.1440 C   0  0  0  0  0  0  0  0  0  0  0  0
   56.4890   26.8320   46.3240 N   0  0  0  0  0  0  0  0  0  0  0  0
   57.5500   27.2400   45.4460 C   0  0  0  0  0  0  0  0  0  0  0  0
   57.7940   26.6050   44.3850 O   0  0  0  0  0  0  0  0  0  0  0  0
   58.3580   28.4160   45.7940 C   0  0  0  0  0  0  0  0  0  0  0  0
   57.8750   29.6360   46.2550 C   0  0  0  0  0  0  0  0  0  0  0  0
   58.8850   30.5870   46.4650 C   0  0  0  0  0  0  0  0  0  0  0  0
   58.6080   31.9900   46.9440 C   0  0  1  0  0  0  0  0  0  0  0  0
   59.6590   32.4710   47.9480 C   0  0  0  0  0  0  0  0  0  0  0  0
   59.9260   33.9270   47.5800 C   0  0  0  0  0  0  0  0  0  0  0  0
   59.5490   34.0560   46.1100 C   0  0  0  0  0  0  0  0  0  0  0  0
   58.6630   32.9330   45.8340 N   0  0  0  0  0  0  0  0  0  0  0  0
   57.7010   32.9270   44.7650 C   0  0  0  0  0  0  0  0  0  0  0  0
   57.3430   34.0170   44.2440 O   0  0  0  0  0  0  0  0  0  0  0  0
   57.1210   31.6760   44.2460 C   0  0  0  0  0  0  0  0  0  0  0  0
   57.5640   30.9670   43.1420 C   0  0  0  0  0  0  0  0  0  0  0  0
   56.7750   29.8420   43.0640 C   0  0  0  0  0  0  0  0  0  0  0  0
   55.9030   29.9230   44.1270 C   0  0  0  0  0  0  0  0  0  0  0  0
   54.9290   28.9760   44.4220 O   0  0  0  0  0  0  0  0  0  0  0  0
   56.1070   31.0320   44.8620 N   0  0  0  0  0  0  0  0  0  0  0  0
   60.1650   30.1120   46.1790 C   0  0  0  0  0  0  0  0  0  0  0  0
   60.0310   28.5200   45.6580 S   0  0  0  0  0  0  0  0  0  0  0  0
   56.0670   24.5560   46.3880 N   0  0  0  0  0  0  0  0  0  0  0  0
   57.5333   22.3549   45.6713 H   0  0  0  0  0  0  0  0  0  0  0  0
   58.3771   21.7081   44.2235 H   0  0  0  0  0  0  0  0  0  0  0  0
   57.7576   23.3941   44.2235 H   0  0  0  0  0  0  0  0  0  0  0  0
   53.9170   22.0617   46.5524 H   0  0  0  0  0  0  0  0  0  0  0  0
   55.6978   21.9978   46.8399 H   0  0  0  0  0  0  0  0  0  0  0  0
   52.9826   24.3605   45.2887 H   0  0  0  0  0  0  0  0  0  0  0  0
   56.8086   29.8353   46.4367 H   0  0  0  0  0  0  0  0  0  0  0  0
   57.6116   31.9561   47.4087 H   0  0  0  0  0  0  0  0  0  0  0  0
   59.2732   32.3972   48.9755 H   0  0  0  0  0  0  0  0  0  0  0  0
   60.5744   31.8623   47.9087 H   0  0  0  0  0  0  0  0  0  0  0  0
   59.3078   34.5976   48.1948 H   0  0  0  0  0  0  0  0  0  0  0  0
   60.9758   34.2044   47.7559 H   0  0  0  0  0  0  0  0  0  0  0  0
   59.0297   35.0086   45.9287 H   0  0  0  0  0  0  0  0  0  0  0  0
   60.4359   34.0449   45.4594 H   0  0  0  0  0  0  0  0  0  0  0  0
   58.3829   31.2470   42.4630 H   0  0  0  0  0  0  0  0  0  0  0  0
   56.8295   29.0437   42.3092 H   0  0  0  0  0  0  0  0  0  0  0  0
   55.1370   28.2020   45.0400 H   0  0  0  0  0  0  0  0  0  0  0  0
   61.1009   30.6815   46.2775 H   0  0  0  0  0  0  0  0  0  0  0  0
  1  2  1  0
  2  3  2  0
  2  4  1  0
  4  5  1  0
  5  6  1  0
  6  7  2  0
  7  8  1  0
  8  9  1  0
  9 10  2  3
 10 11  1  0
 11 12  2  0
 11 13  1  0
 13 14  2  0
 14 15  1  0
 15 16  1  0
 16 17  1  0
 17 18  1  0
 18 19  1  0
 19 20  1  0
 20 21  1  0
 21 22  2  0
 21 23  1  0
 23 24  2  0
 24 25  1  0
 25 26  2  0
 26 27  1  0
 26 28  1  0
 15 29  2  0
 29 30  1  0
  9 31  1  0
 31  6  1  0
 30 13  1  0
 20 16  1  0
 28 23  1  0
  1 32  1  0
  1 33  1  0
  1 34  1  0
  5 35  1  0
  5 36  1  0
  7 37  1  0
 14 38  1  0
 16 39  1  1
 17 40  1  0
 17 41  1  0
 18 42  1  0
 18 43  1  0
 19 44  1  0
 19 45  1  0
 24 46  1  0
 25 47  1  0
 27 48  1  0
 29 49  1  0
M  CHG  4   4  -1   8  -1  28  -1  31  -1
M  END
>  <UniqueID>  (47) 
44

>  <SMILES>  (47) 
CC(=O)[N-]Cc1c[n-]c(=NC(=O)c2cc([C@H]3CCCN3C(=O)c3ccc(O)[n-]3)cs2)[n-]1

>  <Energy>  (47) 
129.57006073402226

>  <Genealogy>  (47) 
CC(=O)[N-]Cc1c[n-]c(=NC(=O)c2cc(C3CCCN3C(=O)c3ccc(O)[n-]3)cs2)[n-]1 (protonated)
CC(=O)[N-]Cc1c[n-]c(=NC(=O)c2cc([C@H]3CCCN3C(=O)c3ccc(O)[n-]3)cs2)[n-]1 (chirality)
CC(=O)[N-]Cc1c[n-]c(=NC(=O)c2cc([C@H]3CCCN3C(=O)c3ccc(O)[n-]3)cs2)[n-]1 (3D coordinates assigned)
CC(=O)[N-]Cc1c[n-]c(=NC(=O)c2cc([C@H]3CCCN3C(=O)c3ccc(O)[n-]3)cs2)[n-]1 (nonaromatic ring conformer: 129.57006073402226 kcal/mol)

>  <smiles>  (47) 
CC(=O)NCc1c[nH]c(=NC(=O)c2cc(C3CCCN3C(=O)c3ccc(O)[nH]3)cs2)[nH]1

>  <score_type>  (47) 
oracle

>  <origin>  (47) 
adg

>  <m_score__min__energy>  (47) 
-17.41

>  <m_primary>  (47) 
energy

$$$$
48:0
     RDKit          3D

 52 54  0  0  0  0  0  0  0  0999 V2000
   55.6760   26.6630   45.9920 O   0  0  0  0  0  0  0  0  0  0  0  0
   56.8840   27.0360   45.9920 C   0  0  0  0  0  0  0  0  0  0  0  0
   57.9070   26.0700   46.2860 N   0  0  0  0  0  0  0  0  0  0  0  0
   57.5620   24.7250   46.7550 C   0  0  0  0  0  0  0  0  0  0  0  0
   58.3100   23.6400   45.9650 C   0  0  0  0  0  0  0  0  0  0  0  0
   57.4250   22.9460   45.0040 N   0  0  0  0  0  0  0  0  0  0  0  0
   56.7510   23.9340   44.1370 C   0  0  0  0  0  0  0  0  0  0  0  0
   55.9800   23.2350   42.9990 C   0  0  0  0  0  0  0  0  0  0  0  0
   55.9010   21.8400   43.2170 O   0  0  0  0  0  0  0  0  0  0  0  0
   57.2020   21.2780   43.1870 C   0  0  0  0  0  0  0  0  0  0  0  0
   58.1660   21.9850   44.1650 C   0  0  0  0  0  0  0  0  0  0  0  0
   57.2020   28.4560   45.6640 C   0  0  0  0  0  0  0  0  0  0  0  0
   58.1060   29.2170   46.4270 C   0  0  0  0  0  0  0  0  0  0  0  0
   58.4010   30.5400   46.0790 C   0  0  0  0  0  0  0  0  0  0  0  0
   57.7860   31.1380   44.9680 C   0  0  0  0  0  0  0  0  0  0  0  0
   58.0690   32.4810   44.5580 N   0  0  0  0  0  0  0  0  0  0  0  0
   57.7510   33.9090   45.4900 S   0  0  0  0  0  0  0  0  0  0  0  0
   56.6290   34.6850   44.8570 O   0  0  0  0  0  0  0  0  0  0  0  0
   57.3260   33.4910   46.8700 O   0  0  0  0  0  0  0  0  0  0  0  0
   59.2180   34.9290   45.5970 C   0  0  0  0  0  0  0  0  0  0  0  0
   60.1270   34.4210   46.6820 C   0  0  0  0  0  0  0  0  0  0  0  0
   59.7840   34.5920   48.0350 C   0  0  0  0  0  0  0  0  0  0  0  0
   60.6640   34.1820   49.0420 C   0  0  0  0  0  0  0  0  0  0  0  0
   61.8960   33.6160   48.7080 C   0  0  0  0  0  0  0  0  0  0  0  0
   62.2450   33.4420   47.3650 C   0  0  0  0  0  0  0  0  0  0  0  0
   61.3640   33.8360   46.3530 C   0  0  0  0  0  0  0  0  0  0  0  0
   56.8540   30.4010   44.2300 C   0  0  0  0  0  0  0  0  0  0  0  0
   56.5700   29.0760   44.5690 C   0  0  0  0  0  0  0  0  0  0  0  0
   58.9140   26.3100   46.1470 H   0  0  0  0  0  0  0  0  0  0  0  0
   57.8280   24.6390   47.8189 H   0  0  0  0  0  0  0  0  0  0  0  0
   56.4824   24.5757   46.6061 H   0  0  0  0  0  0  0  0  0  0  0  0
   59.1366   24.1096   45.4116 H   0  0  0  0  0  0  0  0  0  0  0  0
   58.6846   22.8946   46.6819 H   0  0  0  0  0  0  0  0  0  0  0  0
   56.0448   24.5213   44.7423 H   0  0  0  0  0  0  0  0  0  0  0  0
   57.5147   24.5891   43.6924 H   0  0  0  0  0  0  0  0  0  0  0  0
   54.9620   23.6486   42.9484 H   0  0  0  0  0  0  0  0  0  0  0  0
   56.5170   23.4104   42.0552 H   0  0  0  0  0  0  0  0  0  0  0  0
   57.1351   20.2150   43.4620 H   0  0  0  0  0  0  0  0  0  0  0  0
   57.6008   21.4041   42.1696 H   0  0  0  0  0  0  0  0  0  0  0  0
   58.6453   21.2337   44.8098 H   0  0  0  0  0  0  0  0  0  0  0  0
   58.9301   22.5264   43.5879 H   0  0  0  0  0  0  0  0  0  0  0  0
   58.5869   28.7668   47.3079 H   0  0  0  0  0  0  0  0  0  0  0  0
   59.1201   31.1154   46.6805 H   0  0  0  0  0  0  0  0  0  0  0  0
   59.7504   34.9016   44.6348 H   0  0  0  0  0  0  0  0  0  0  0  0
   58.9204   35.9614   45.8328 H   0  0  0  0  0  0  0  0  0  0  0  0
   58.8202   35.0498   48.3024 H   0  0  0  0  0  0  0  0  0  0  0  0
   60.3850   34.3057   50.0988 H   0  0  0  0  0  0  0  0  0  0  0  0
   62.5923   33.3069   49.5015 H   0  0  0  0  0  0  0  0  0  0  0  0
   63.2151   32.9940   47.1040 H   0  0  0  0  0  0  0  0  0  0  0  0
   61.6383   33.6884   45.2980 H   0  0  0  0  0  0  0  0  0  0  0  0
   56.3410   30.8682   43.3765 H   0  0  0  0  0  0  0  0  0  0  0  0
   55.8416   28.5083   43.9715 H   0  0  0  0  0  0  0  0  0  0  0  0
  1  2  2  0
  2  3  1  0
  3  4  1  0
  4  5  1  0
  5  6  1  0
  6  7  1  0
  7  8  1  0
  8  9  1  0
  9 10  1  0
 10 11  1  0
  2 12  1  0
 12 13  2  0
 13 14  1  0
 14 15  2  0
 15 16  1  0
 16 17  1  0
 17 18  2  0
 17 19  2  0
 17 20  1  0
 20 21  1  0
 21 22  2  0
 22 23  1  0
 23 24  2  0
 24 25  1  0
 25 26  2  0
 15 27  1  0
 27 28  2  0
 11  6  1  0
 28 12  1  0
 26 21  1  0
  3 29  1  0
  4 30  1  0
  4 31  1  0
  5 32  1  0
  5 33  1  0
  7 34  1  0
  7 35  1  0
  8 36  1  0
  8 37  1  0
 10 38  1  0
 10 39  1  0
 11 40  1  0
 11 41  1  0
 13 42  1  0
 14 43  1  0
 20 44  1  0
 20 45  1  0
 22 46  1  0
 23 47  1  0
 24 48  1  0
 25 49  1  0
 26 50  1  0
 27 51  1  0
 28 52  1  0
M  CHG  1  16  -1
M  END
>  <UniqueID>  (48) 
45

>  <SMILES>  (48) 
O=C(NCCN1CCOCC1)c1ccc([N-]S(=O)(=O)Cc2ccccc2)cc1

>  <Energy>  (48) 
61.67575515982885

>  <Genealogy>  (48) 
O=C(NCCN1CCOCC1)c1ccc([N-]S(=O)(=O)Cc2ccccc2)cc1 (protonated)
O=C(NCCN1CCOCC1)c1ccc([N-]S(=O)(=O)Cc2ccccc2)cc1 (3D coordinates assigned)
O=C(NCCN1CCOCC1)c1ccc([N-]S(=O)(=O)Cc2ccccc2)cc1 (nonaromatic ring conformer: 61.67575515982885 kcal/mol)

>  <smiles>  (48) 
O=C(NCCN1CCOCC1)c1ccc(NS(=O)(=O)Cc2ccccc2)cc1

>  <score_type>  (48) 
oracle

>  <origin>  (48) 
adg

>  <m_score__min__energy>  (48) 
-10.49

>  <m_primary>  (48) 
energy

$$$$
49:0
     RDKit          3D

 57 60  0  0  0  0  0  0  0  0999 V2000
   56.3530   20.8730   45.2790 C   0  0  0  0  0  0  0  0  0  0  0  0
   56.9720   21.8860   43.9550 S   0  0  0  0  0  0  0  0  0  0  0  0
   58.1930   21.2350   43.3670 O   0  0  0  0  0  0  0  0  0  0  0  0
   55.9290   22.0110   42.8810 O   0  0  0  0  0  0  0  0  0  0  0  0
   57.3790   23.4870   44.5790 C   0  0  0  0  0  0  0  0  0  0  0  0
   57.3870   24.5950   43.7240 C   0  0  0  0  0  0  0  0  0  0  0  0
   57.7180   25.8590   44.2130 C   0  0  0  0  0  0  0  0  0  0  0  0
   58.0420   26.0150   45.5720 C   0  0  0  0  0  0  0  0  0  0  0  0
   58.4050   27.3370   46.1440 C   0  0  0  0  0  0  0  0  0  0  0  0
   58.3370   28.5140   45.3730 C   0  0  0  0  0  0  0  0  0  0  0  0
   58.6750   29.7490   45.9320 C   0  0  0  0  0  0  0  0  0  0  0  0
   59.0700   29.8390   47.2750 C   0  0  0  0  0  0  0  0  0  0  0  0
   59.4340   31.1500   47.8570 C   0  0  0  0  0  0  0  0  0  0  0  0
   58.6950   31.6490   48.7490 O   0  0  0  0  0  0  0  0  0  0  0  0
   60.6200   31.8550   47.4420 N   0  0  0  0  0  0  0  0  0  0  0  0
   61.8630   31.1220   47.1600 C   0  0  0  0  0  0  0  0  0  0  0  0
   63.0910   31.9870   47.4830 C   0  0  0  0  0  0  0  0  0  0  0  0
   62.8110   32.8530   48.6480 N   0  0  0  0  0  0  0  0  0  0  0  0
   64.0410   33.4570   49.2240 C   0  0  0  0  0  0  0  0  0  0  0  0
   64.9180   32.4850   49.9910 C   0  0  0  0  0  0  0  0  0  0  0  0
   66.3060   32.6940   50.0770 C   0  0  0  0  0  0  0  0  0  0  0  0
   67.1120   31.8040   50.7940 C   0  0  0  0  0  0  0  0  0  0  0  0
   66.5400   30.7060   51.4410 C   0  0  0  0  0  0  0  0  0  0  0  0
   65.1600   30.5000   51.3780 C   0  0  0  0  0  0  0  0  0  0  0  0
   64.3490   31.3880   50.6640 C   0  0  0  0  0  0  0  0  0  0  0  0
   61.7710   33.8680   48.3400 C   0  0  0  0  0  0  0  0  0  0  0  0
   60.6470   33.3210   47.4300 C   0  0  0  0  0  0  0  0  0  0  0  0
   59.1460   28.6680   48.0440 C   0  0  0  0  0  0  0  0  0  0  0  0
   58.8080   27.4310   47.4870 C   0  0  0  0  0  0  0  0  0  0  0  0
   58.0430   24.9170   46.3800 N   0  0  0  0  0  0  0  0  0  0  0  0
   57.7260   23.6750   45.9270 C   0  0  0  0  0  0  0  0  0  0  0  0
   57.7490   22.7020   46.7270 O   0  0  0  0  0  0  0  0  0  0  0  0
   56.6280   21.3230   46.2443 H   0  0  0  0  0  0  0  0  0  0  0  0
   55.2577   20.8030   45.2058 H   0  0  0  0  0  0  0  0  0  0  0  0
   56.7905   19.8664   45.2058 H   0  0  0  0  0  0  0  0  0  0  0  0
   57.1312   24.4687   42.6617 H   0  0  0  0  0  0  0  0  0  0  0  0
   57.7254   26.7284   43.5391 H   0  0  0  0  0  0  0  0  0  0  0  0
   58.0152   28.4603   44.3225 H   0  0  0  0  0  0  0  0  0  0  0  0
   58.6310   30.6580   45.3141 H   0  0  0  0  0  0  0  0  0  0  0  0
   61.8918   30.2106   47.7752 H   0  0  0  0  0  0  0  0  0  0  0  0
   61.8851   30.8630   46.0912 H   0  0  0  0  0  0  0  0  0  0  0  0
   63.9458   31.3338   47.7125 H   0  0  0  0  0  0  0  0  0  0  0  0
   63.3250   32.6185   46.6133 H   0  0  0  0  0  0  0  0  0  0  0  0
   62.4240   32.2390   49.4060 H   0  0  0  0  0  0  0  0  0  0  0  0
   64.6349   33.8794   48.4001 H   0  0  0  0  0  0  0  0  0  0  0  0
   63.7083   34.2165   49.9469 H   0  0  0  0  0  0  0  0  0  0  0  0
   66.7603   33.5624   49.5775 H   0  0  0  0  0  0  0  0  0  0  0  0
   68.1982   31.9689   50.8486 H   0  0  0  0  0  0  0  0  0  0  0  0
   67.1762   30.0039   51.9999 H   0  0  0  0  0  0  0  0  0  0  0  0
   64.7100   29.6373   51.8911 H   0  0  0  0  0  0  0  0  0  0  0  0
   63.2613   31.2281   50.6284 H   0  0  0  0  0  0  0  0  0  0  0  0
   61.3228   34.2091   49.2849 H   0  0  0  0  0  0  0  0  0  0  0  0
   62.2624   34.6904   47.7995 H   0  0  0  0  0  0  0  0  0  0  0  0
   59.6788   33.7005   47.7885 H   0  0  0  0  0  0  0  0  0  0  0  0
   60.8386   33.6570   46.4002 H   0  0  0  0  0  0  0  0  0  0  0  0
   59.4738   28.7235   49.0925 H   0  0  0  0  0  0  0  0  0  0  0  0
   58.8580   26.5229   48.1057 H   0  0  0  0  0  0  0  0  0  0  0  0
  1  2  1  0
  2  3  2  0
  2  4  2  0
  2  5  1  0
  5  6  2  0
  6  7  1  0
  7  8  2  0
  8  9  1  0
  9 10  2  0
 10 11  1  0
 11 12  2  0
 12 13  1  0
 13 14  2  0
 13 15  1  0
 15 16  1  0
 16 17  1  0
 17 18  1  0
 18 19  1  0
 19 20  1  0
 20 21  2  0
 21 22  1  0
 22 23  2  0
 23 24  1  0
 24 25  2  0
 18 26  1  0
 26 27  1  0
 12 28  1  0
 28 29  2  0
  8 30  1  0
 30 31  1  0
 31 32  2  0
 31  5  1  0
 29  9  1  0
 27 15  1  0
 25 20  1  0
  1 33  1  0
  1 34  1  0
  1 35  1  0
  6 36  1  0
  7 37  1  0
 10 38  1  0
 11 39  1  0
 16 40  1  0
 16 41  1  0
 17 42  1  0
 17 43  1  0
 18 44  1  0
 19 45  1  0
 19 46  1  0
 21 47  1  0
 22 48  1  0
 23 49  1  0
 24 50  1  0
 25 51  1  0
 26 52  1  0
 26 53  1  0
 27 54  1  0
 27 55  1  0
 28 56  1  0
 29 57  1  0
M  CHG  2  18   1  30  -1
M  END
>  <UniqueID>  (49) 
46

>  <SMILES>  (49) 
CS(=O)(=O)c1ccc(-c2ccc(C(=O)N3CC[NH+](Cc4ccccc4)CC3)cc2)[n-]c1=O

>  <Energy>  (49) 
78.68783440648681

>  <Genealogy>  (49) 
CS(=O)(=O)c1ccc(-c2ccc(C(=O)N3CC[NH+](Cc4ccccc4)CC3)cc2)[n-]c1=O (protonated)
CS(=O)(=O)c1ccc(-c2ccc(C(=O)N3CC[NH+](Cc4ccccc4)CC3)cc2)[n-]c1=O (3D coordinates assigned)
CS(=O)(=O)c1ccc(-c2ccc(C(=O)N3CC[NH+](Cc4ccccc4)CC3)cc2)[n-]c1=O (nonaromatic ring conformer: 78.68783440648681 kcal/mol)

>  <smiles>  (49) 
CS(=O)(=O)c1ccc(-c2ccc(C(=O)N3CCN(Cc4ccccc4)CC3)cc2)[nH]c1=O

>  <score_type>  (49) 
oracle

>  <origin>  (49) 
adg

>  <m_score__min__energy>  (49) 
-9.9800000000000004

>  <m_primary>  (49) 
energy

$$$$
50:0
     RDKit          3D

 74 78  0  0  0  0  0  0  0  0999 V2000
   58.7690   23.7800   46.2600 O   0  0  0  0  0  0  0  0  0  0  0  0
   57.7500   24.0090   46.9630 C   0  0  0  0  0  0  0  0  0  0  0  0
   57.2930   25.4320   47.1840 C   0  0  0  0  0  0  0  0  0  0  0  0
   56.3290   25.9400   46.0970 C   0  0  0  0  0  0  0  0  0  0  0  0
   56.8010   27.2260   45.4700 C   0  0  0  0  0  0  0  0  0  0  0  0
   55.9030   28.2260   45.2510 N   0  0  0  0  0  0  0  0  0  0  0  0
   56.2700   29.4090   44.6920 C   0  0  0  0  0  0  0  0  0  0  0  0
   55.4020   30.3010   44.4980 O   0  0  0  0  0  0  0  0  0  0  0  0
   57.6140   29.6170   44.3390 C   0  0  0  0  0  0  0  0  0  0  0  0
   58.0810   30.8870   43.6880 C   0  0  0  0  0  0  0  0  0  0  0  0
   58.0430   32.0220   44.6750 C   0  0  0  0  0  0  0  0  0  0  0  0
   57.4450   33.2420   44.3290 C   0  0  0  0  0  0  0  0  0  0  0  0
   57.4280   34.3010   45.2380 C   0  0  0  0  0  0  0  0  0  0  0  0
   58.0080   34.1520   46.5000 C   0  0  0  0  0  0  0  0  0  0  0  0
   58.6160   32.9400   46.8620 C   0  0  0  0  0  0  0  0  0  0  0  0
   59.2510   32.7870   48.1910 C   0  0  0  0  0  0  0  0  0  0  0  0
   58.5260   32.7010   49.2190 O   0  0  0  0  0  0  0  0  0  0  0  0
   60.6830   32.7540   48.3290 N   0  0  0  0  0  0  0  0  0  0  0  0
   61.5070   33.7990   47.7100 C   0  0  0  0  0  0  0  0  0  0  0  0
   62.9910   33.4350   47.8040 C   0  0  0  0  0  0  0  0  0  0  0  0
   63.4080   33.1900   49.2030 N   0  0  0  0  0  0  0  0  0  0  0  0
   64.7640   32.6070   49.2430 C   0  0  0  0  0  0  0  0  0  0  0  0
   65.5660   33.2260   50.3580 C   0  0  0  0  0  0  0  0  0  0  0  0
   66.9350   32.9480   50.5020 C   0  0  0  0  0  0  0  0  0  0  0  0
   67.6680   33.5430   51.5350 C   0  0  0  0  0  0  0  0  0  0  0  0
   67.0410   34.4170   52.4280 C   0  0  0  0  0  0  0  0  0  0  0  0
   65.6790   34.6950   52.2940 C   0  0  0  0  0  0  0  0  0  0  0  0
   64.9420   34.1020   51.2640 C   0  0  0  0  0  0  0  0  0  0  0  0
   62.4340   32.4080   50.0140 C   0  0  0  0  0  0  0  0  0  0  0  0
   61.3220   31.7500   49.1830 C   0  0  0  0  0  0  0  0  0  0  0  0
   58.6460   31.8830   45.9370 C   0  0  0  0  0  0  0  0  0  0  0  0
   58.5080   28.6110   44.5400 N   0  0  0  0  0  0  0  0  0  0  0  0
   58.1400   27.4260   45.0940 C   0  0  0  0  0  0  0  0  0  0  0  0
   59.0960   26.4320   45.2790 O   0  0  0  0  0  0  0  0  0  0  0  0
   57.1000   22.8970   47.5940 N   0  0  0  0  0  0  0  0  0  0  0  0
   56.4010   21.8090   46.9160 C   0  0  0  0  0  0  0  0  0  0  0  0
   56.4090   22.0170   45.4240 C   0  0  0  0  0  0  0  0  0  0  0  0
   55.5790   22.9820   44.8310 C   0  0  0  0  0  0  0  0  0  0  0  0
   55.5950   23.1680   43.4450 C   0  0  0  0  0  0  0  0  0  0  0  0
   56.4420   22.4000   42.6440 C   0  0  0  0  0  0  0  0  0  0  0  0
   57.2770   21.4440   43.2270 C   0  0  0  0  0  0  0  0  0  0  0  0
   57.2640   21.2530   44.6130 C   0  0  0  0  0  0  0  0  0  0  0  0
   56.7821   25.4871   48.1566 H   0  0  0  0  0  0  0  0  0  0  0  0
   58.1884   26.0700   47.1480 H   0  0  0  0  0  0  0  0  0  0  0  0
   56.2452   25.1737   45.3123 H   0  0  0  0  0  0  0  0  0  0  0  0
   55.3569   26.1348   46.5736 H   0  0  0  0  0  0  0  0  0  0  0  0
   59.1118   30.7530   43.3281 H   0  0  0  0  0  0  0  0  0  0  0  0
   57.4160   31.1231   42.8442 H   0  0  0  0  0  0  0  0  0  0  0  0
   56.9871   33.3651   43.3365 H   0  0  0  0  0  0  0  0  0  0  0  0
   56.9567   35.2552   44.9599 H   0  0  0  0  0  0  0  0  0  0  0  0
   57.9881   34.9888   47.2137 H   0  0  0  0  0  0  0  0  0  0  0  0
   61.2257   33.9028   46.6516 H   0  0  0  0  0  0  0  0  0  0  0  0
   61.3382   34.7474   48.2411 H   0  0  0  0  0  0  0  0  0  0  0  0
   63.1727   32.5249   47.2135 H   0  0  0  0  0  0  0  0  0  0  0  0
   63.5765   34.2812   47.4153 H   0  0  0  0  0  0  0  0  0  0  0  0
   64.6880   31.5223   49.4094 H   0  0  0  0  0  0  0  0  0  0  0  0
   65.2680   32.8067   48.2859 H   0  0  0  0  0  0  0  0  0  0  0  0
   67.4322   32.2611   49.8013 H   0  0  0  0  0  0  0  0  0  0  0  0
   68.7401   33.3225   51.6446 H   0  0  0  0  0  0  0  0  0  0  0  0
   67.6208   34.8860   53.2366 H   0  0  0  0  0  0  0  0  0  0  0  0
   65.1858   35.3806   52.9988 H   0  0  0  0  0  0  0  0  0  0  0  0
   63.8690   34.3218   51.1620 H   0  0  0  0  0  0  0  0  0  0  0  0
   62.9824   31.6174   50.5472 H   0  0  0  0  0  0  0  0  0  0  0  0
   61.9454   33.1168   50.6987 H   0  0  0  0  0  0  0  0  0  0  0  0
   61.7553   30.9580   48.5546 H   0  0  0  0  0  0  0  0  0  0  0  0
   60.5707   31.3160   49.8592 H   0  0  0  0  0  0  0  0  0  0  0  0
   59.1452   30.9394   46.2024 H   0  0  0  0  0  0  0  0  0  0  0  0
   56.9009   20.8576   47.1503 H   0  0  0  0  0  0  0  0  0  0  0  0
   55.3577   21.7887   47.2640 H   0  0  0  0  0  0  0  0  0  0  0  0
   54.9141   23.5936   45.4586 H   0  0  0  0  0  0  0  0  0  0  0  0
   54.9386   23.9213   42.9849 H   0  0  0  0  0  0  0  0  0  0  0  0
   56.4518   22.5477   41.5540 H   0  0  0  0  0  0  0  0  0  0  0  0
   57.9457   20.8405   42.5956 H   0  0  0  0  0  0  0  0  0  0  0  0
   57.9257   20.5019   45.0690 H   0  0  0  0  0  0  0  0  0  0  0  0
  1  2  2  0
  2  3  1  0
  3  4  1  0
  4  5  1  0
  5  6  1  0
  6  7  1  0
  7  8  2  0
  7  9  1  0
  9 10  1  0
 10 11  1  0
 11 12  2  0
 12 13  1  0
 13 14  2  0
 14 15  1  0
 15 16  1  0
 16 17  2  0
 16 18  1  0
 18 19  1  0
 19 20  1  0
 20 21  1  0
 21 22  1  0
 22 23  1  0
 23 24  2  0
 24 25  1  0
 25 26  2  0
 26 27  1  0
 27 28  2  0
 21 29  1  0
 29 30  1  0
 15 31  2  0
  9 32  2  0
 32 33  1  0
 33 34  1  0
  2 35  1  0
 35 36  1  0
 36 37  1  0
 37 38  2  0
 38 39  1  0
 39 40  2  0
 40 41  1  0
 41 42  2  0
 33  5  2  0
 42 37  1  0
 31 11  1  0
 30 18  1  0
 28 23  1  0
  3 43  1  0
  3 44  1  0
  4 45  1  0
  4 46  1  0
 10 47  1  0
 10 48  1  0
 12 49  1  0
 13 50  1  0
 14 51  1  0
 19 52  1  0
 19 53  1  0
 20 54  1  0
 20 55  1  0
 22 56  1  0
 22 57  1  0
 24 58  1  0
 25 59  1  0
 26 60  1  0
 27 61  1  0
 28 62  1  0
 29 63  1  0
 29 64  1  0
 30 65  1  0
 30 66  1  0
 31 67  1  0
 36 68  1  0
 36 69  1  0
 38 70  1  0
 39 71  1  0
 40 72  1  0
 41 73  1  0
 42 74  1  0
M  CHG  3   6  -1  34  -1  35  -1
M  END
>  <UniqueID>  (50) 
47

>  <SMILES>  (50) 
O=C(CCc1[n-]c(=O)c(Cc2cccc(C(=O)N3CCN(Cc4ccccc4)CC3)c2)nc1[O-])[N-]Cc1ccccc1

>  <Energy>  (50) 
91.21311812094778

>  <Genealogy>  (50) 
O=C(CCc1[n-]c(=O)c(Cc2cccc(C(=O)N3CCN(Cc4ccccc4)CC3)c2)nc1[O-])[N-]Cc1ccccc1 (protonated)
O=C(CCc1[n-]c(=O)c(Cc2cccc(C(=O)N3CCN(Cc4ccccc4)CC3)c2)nc1[O-])[N-]Cc1ccccc1 (3D coordinates assigned)
O=C(CCc1[n-]c(=O)c(Cc2cccc(C(=O)N3CCN(Cc4ccccc4)CC3)c2)nc1[O-])[N-]Cc1ccccc1 (nonaromatic ring conformer: 91.21311812094778 kcal/mol)

>  <smiles>  (50) 
O=C(CCc1[nH]c(=O)c(Cc2cccc(C(=O)N3CCN(Cc4ccccc4)CC3)c2)nc1O)NCc1ccccc1

>  <score_type>  (50) 
oracle

>  <origin>  (50) 
adg

>  <m_score__min__energy>  (50) 
-16.969999999999999

>  <m_primary>  (50) 
energy

$$$$
51:0
     RDKit          3D

 64 67  0  0  1  0  0  0  0  0999 V2000
   56.5590   29.8910   42.5460 N   0  0  0  0  0  0  0  0  0  0  0  0
   56.6050   29.8150   44.2850 S   0  0  0  0  0  0  0  0  0  0  0  0
   55.2110   29.7210   44.8600 O   0  0  0  0  0  0  0  0  0  0  0  0
   57.3670   28.5910   44.7090 O   0  0  0  0  0  0  0  0  0  0  0  0
   57.3890   31.2730   44.8740 C   0  0  0  0  0  0  0  0  0  0  0  0
   57.5760   32.3800   44.0420 C   0  0  0  0  0  0  0  0  0  0  0  0
   58.1980   33.4970   44.5620 C   0  0  0  0  0  0  0  0  0  0  0  0
   58.6130   33.4920   45.8680 C   0  0  0  0  0  0  0  0  0  0  0  0
   59.3110   34.7460   46.4500 C   0  0  0  0  0  0  0  0  0  0  0  0
   60.7390   34.4390   46.6140 C   0  0  0  0  0  0  0  0  0  0  0  0
   61.3510   33.7700   47.6420 N   0  0  0  0  0  0  0  0  0  0  0  0
   61.0130   33.1480   48.6410 C   0  0  0  0  0  0  0  0  0  0  0  0
   60.5870   33.8200   49.7820 C   0  0  0  0  0  0  0  0  0  0  0  0
   60.2130   33.0900   50.8910 C   0  0  0  0  0  0  0  0  0  0  0  0
   59.7660   33.8370   52.0880 C   0  0  0  0  0  0  0  0  0  0  0  0
   58.2880   33.9060   52.2330 C   0  0  0  0  0  0  0  0  0  0  0  0
   57.8360   32.5000   52.5350 C   0  0  0  0  0  0  0  0  0  0  0  0
   58.2370   31.8420   53.6790 C   0  0  0  0  0  0  0  0  0  0  0  0
   57.8430   30.5590   53.9870 C   0  0  0  0  0  0  0  0  0  0  0  0
   57.0100   29.9180   53.0980 C   0  0  0  0  0  0  0  0  0  0  0  0
   56.6030   30.5630   51.9540 C   0  0  0  0  0  0  0  0  0  0  0  0
   57.0040   31.8590   51.6490 C   0  0  0  0  0  0  0  0  0  0  0  0
   60.2540   31.7670   50.8820 N   0  0  0  0  0  0  0  0  0  0  0  0
   60.6700   31.1510   49.7610 C   0  0  0  0  0  0  0  0  0  0  0  0
   60.7300   29.8580   49.6950 N   0  0  0  0  0  0  0  0  0  0  0  0
   59.5790   29.0930   49.2860 C   0  0  0  0  0  0  0  0  0  0  0  0
   59.7430   28.6130   47.8980 C   0  0  0  0  0  0  0  0  0  0  0  0
   59.3270   27.3680   47.4650 C   0  0  0  0  0  0  0  0  0  0  0  0
   59.5180   26.9940   46.1470 C   0  0  0  0  0  0  0  0  0  0  0  0
   60.1170   27.8190   45.2190 C   0  0  0  0  0  0  0  0  0  0  0  0
   60.5300   29.0540   45.6460 C   0  0  0  0  0  0  0  0  0  0  0  0
   60.3460   29.4430   46.9600 C   0  0  0  0  0  0  0  0  0  0  0  0
   61.0370   31.8320   48.6770 N   0  0  0  0  0  0  0  0  0  0  0  0
   58.4270   32.3980   46.6880 C   0  0  0  0  0  0  0  0  0  0  0  0
   57.8080   31.2760   46.1840 C   0  0  0  0  0  0  0  0  0  0  0  0
   55.7780   29.3260   42.1510 H   0  0  0  0  0  0  0  0  0  0  0  0
   57.4410   29.5210   42.1200 H   0  0  0  0  0  0  0  0  0  0  0  0
   57.2352   32.3616   42.9963 H   0  0  0  0  0  0  0  0  0  0  0  0
   58.3594   34.3847   43.9327 H   0  0  0  0  0  0  0  0  0  0  0  0
   59.1888   35.5944   45.7606 H   0  0  0  0  0  0  0  0  0  0  0  0
   58.8653   35.0150   47.4190 H   0  0  0  0  0  0  0  0  0  0  0  0
   61.0043   33.8656   45.7135 H   0  0  0  0  0  0  0  0  0  0  0  0
   61.0987   35.4531   46.8424 H   0  0  0  0  0  0  0  0  0  0  0  0
   60.5489   34.9192   49.7997 H   0  0  0  0  0  0  0  0  0  0  0  0
   60.1796   33.3433   52.9797 H   0  0  0  0  0  0  0  0  0  0  0  0
   60.1261   34.8702   51.9747 H   0  0  0  0  0  0  0  0  0  0  0  0
   58.0156   34.5809   53.0578 H   0  0  0  0  0  0  0  0  0  0  0  0
   57.8108   34.2966   51.3221 H   0  0  0  0  0  0  0  0  0  0  0  0
   58.9035   32.3673   54.3789 H   0  0  0  0  0  0  0  0  0  0  0  0
   58.1814   30.0645   54.9095 H   0  0  0  0  0  0  0  0  0  0  0  0
   56.6707   28.8918   53.3025 H   0  0  0  0  0  0  0  0  0  0  0  0
   55.9368   30.0353   51.2556 H   0  0  0  0  0  0  0  0  0  0  0  0
   56.6658   32.3555   50.7275 H   0  0  0  0  0  0  0  0  0  0  0  0
   59.9740   31.1990   51.7140 H   0  0  0  0  0  0  0  0  0  0  0  0
   59.4619   28.2288   49.9564 H   0  0  0  0  0  0  0  0  0  0  0  0
   58.6880   29.7361   49.3370 H   0  0  0  0  0  0  0  0  0  0  0  0
   58.8438   26.6743   48.1688 H   0  0  0  0  0  0  0  0  0  0  0  0
   59.1782   25.9981   45.8264 H   0  0  0  0  0  0  0  0  0  0  0  0
   60.2580   27.4984   44.1762 H   0  0  0  0  0  0  0  0  0  0  0  0
   61.0125   29.7424   44.9366 H   0  0  0  0  0  0  0  0  0  0  0  0
   60.6875   30.4407   47.2730 H   0  0  0  0  0  0  0  0  0  0  0  0
   61.3450   31.3190   47.8520 H   0  0  0  0  0  0  0  0  0  0  0  0
   58.7695   32.4219   47.7330 H   0  0  0  0  0  0  0  0  0  0  0  0
   57.6506   30.3932   46.8211 H   0  0  0  0  0  0  0  0  0  0  0  0
  1  2  1  0
  2  3  2  0
  2  4  2  0
  2  5  1  0
  5  6  2  0
  6  7  1  0
  7  8  2  0
  8  9  1  0
  9 10  1  0
 10 11  1  0
 11 12  2  0
 12 13  1  0
 13 14  2  0
 14 15  1  0
 15 16  1  0
 16 17  1  0
 17 18  2  0
 18 19  1  0
 19 20  2  0
 20 21  1  0
 21 22  2  0
 14 23  1  0
 23 24  1  0
 24 25  2  0
 25 26  1  0
 26 27  1  0
 27 28  2  0
 28 29  1  0
 29 30  2  0
 30 31  1  0
 31 32  2  0
 24 33  1  0
  8 34  1  0
 34 35  2  0
 35  5  1  0
 33 12  1  0
 22 17  1  0
 32 27  1  0
  1 36  1  0
  1 37  1  0
  6 38  1  0
  7 39  1  0
  9 40  1  0
  9 41  1  0
 10 42  1  0
 10 43  1  0
 13 44  1  0
 15 45  1  0
 15 46  1  0
 16 47  1  0
 16 48  1  0
 18 49  1  0
 19 50  1  0
 20 51  1  0
 21 52  1  0
 22 53  1  0
 23 54  1  0
 26 55  1  0
 26 56  1  0
 28 57  1  0
 29 58  1  0
 30 59  1  0
 31 60  1  0
 32 61  1  0
 33 62  1  0
 34 63  1  0
 35 64  1  0
M  END
>  <smiles>  (51) 
NS(=O)(=O)c1ccc(CCN=c2cc(CCc3ccccc3)[nH]c(=NCc3ccccc3)[nH]2)cc1

>  <score_type>  (51) 
oracle

>  <origin>  (51) 
adg

>  <m_score__min__energy>  (51) 
-11.17

>  <m_primary>  (51) 
energy

$$$$
52:0
     RDKit          3D

 39 41  0  0  0  0  0  0  0  0999 V2000
   59.8602   34.7547   43.9024 H   0  0  0  0  0  0  0  0  0  0  0  0
   59.2330   34.1840   44.6030 C   0  0  0  0  0  0  0  0  0  0  0  0
   59.6297   33.2772   45.0829 H   0  0  0  0  0  0  0  0  0  0  0  0
   57.9900   34.5920   44.8710 C   0  0  0  0  0  0  0  0  0  0  0  0
   57.6060   35.5005   44.3841 H   0  0  0  0  0  0  0  0  0  0  0  0
   57.1040   33.8390   45.8220 C   0  0  0  0  0  0  0  0  0  0  0  0
   57.0215   34.4014   46.7637 H   0  0  0  0  0  0  0  0  0  0  0  0
   56.1099   33.7193   45.3665 H   0  0  0  0  0  0  0  0  0  0  0  0
   57.6630   32.5180   46.0970 N   0  0  0  0  0  0  0  0  0  0  0  0
   57.4350   31.4420   45.3630 N   0  0  0  0  0  0  0  0  0  0  0  0
   58.0760   30.4230   45.9810 C   0  0  0  0  0  0  0  0  0  0  0  0
   58.0770   29.0300   45.4740 C   0  0  0  0  0  0  0  0  0  0  0  0
   58.0260   27.9540   46.3800 C   0  0  0  0  0  0  0  0  0  0  0  0
   57.9827   28.1519   47.4612 H   0  0  0  0  0  0  0  0  0  0  0  0
   58.0300   26.6350   45.9150 C   0  0  0  0  0  0  0  0  0  0  0  0
   57.9866   25.8004   46.6303 H   0  0  0  0  0  0  0  0  0  0  0  0
   58.0890   26.3760   44.5450 C   0  0  0  0  0  0  0  0  0  0  0  0
   58.0906   25.3380   44.1810 H   0  0  0  0  0  0  0  0  0  0  0  0
   58.1460   27.4350   43.6360 C   0  0  0  0  0  0  0  0  0  0  0  0
   58.1950   27.2292   42.5565 H   0  0  0  0  0  0  0  0  0  0  0  0
   58.1410   28.7550   44.0940 C   0  0  0  0  0  0  0  0  0  0  0  0
   58.1873   29.5842   43.3727 H   0  0  0  0  0  0  0  0  0  0  0  0
   58.7070   30.8400   47.1030 N   0  0  0  0  0  0  0  0  0  0  0  0
   59.3170   30.2980   47.7520 H   0  0  0  0  0  0  0  0  0  0  0  0
   58.4070   32.1500   47.1540 C   0  0  0  0  0  0  0  0  0  0  0  0
   58.8840   33.0650   48.1530 N   0  0  0  0  0  0  0  0  0  0  0  0
   59.7410   34.0310   47.9790 C   0  0  0  0  0  0  0  0  0  0  0  0
   59.3492   35.0520   47.8610 H   0  0  0  0  0  0  0  0  0  0  0  0
   61.2070   33.8420   47.9300 C   0  0  0  0  0  0  0  0  0  0  0  0
   61.9150   33.6630   49.1280 C   0  0  0  0  0  0  0  0  0  0  0  0
   61.3801   33.6808   50.0890 H   0  0  0  0  0  0  0  0  0  0  0  0
   63.2990   33.4620   49.1040 C   0  0  0  0  0  0  0  0  0  0  0  0
   63.8522   33.3376   50.0466 H   0  0  0  0  0  0  0  0  0  0  0  0
   63.9800   33.4190   47.8850 C   0  0  0  0  0  0  0  0  0  0  0  0
   65.0698   33.2702   47.8689 H   0  0  0  0  0  0  0  0  0  0  0  0
   63.2770   33.5650   46.6860 C   0  0  0  0  0  0  0  0  0  0  0  0
   63.8126   33.5232   45.7261 H   0  0  0  0  0  0  0  0  0  0  0  0
   61.8940   33.7640   46.7060 C   0  0  0  0  0  0  0  0  0  0  0  0
   61.3407   33.8600   45.7602 H   0  0  0  0  0  0  0  0  0  0  0  0
  1  2  1  0
  2  3  1  0
  2  4  2  0
  4  5  1  0
  4  6  1  0
  6  7  1  0
  6  8  1  0
  6  9  1  0
  9 10  1  0
 10 11  2  0
 11 12  1  0
 12 13  2  0
 13 14  1  0
 13 15  1  0
 15 16  1  0
 15 17  2  0
 17 18  1  0
 17 19  1  0
 19 20  1  0
 19 21  2  0
 21 22  1  0
 11 23  1  0
 23 24  1  0
 23 25  2  0
 25 26  1  0
 26 27  2  0
 27 28  1  0
 27 29  1  0
 29 30  2  0
 30 31  1  0
 30 32  1  0
 32 33  1  0
 32 34  2  0
 34 35  1  0
 34 36  1  0
 36 37  1  0
 36 38  2  0
 38 39  1  0
 25  9  1  0
 38 29  1  0
 21 12  1  0
M  CHG  1  23   1
M  END
>  <UniqueID>  (52) 
48

>  <SMILES>  (52) 
C=CCn1nc(-c2ccccc2)[nH+]c1/N=C\c1ccccc1

>  <Energy>  (52) 
82.88692082309868

>  <Genealogy>  (52) 
C=CCn1nc(-c2ccccc2)[nH+]c1N=Cc1ccccc1 (protonated)
C=CCn1nc(-c2ccccc2)[nH+]c1/N=C\c1ccccc1 (cis-trans isomerization)
C=CCn1nc(-c2ccccc2)[nH+]c1/N=C\c1ccccc1 (3D coordinates assigned)
C=CCn1nc(-c2ccccc2)[nH+]c1/N=C\c1ccccc1 (optimized conformer: 82.88692082309868 kcal/mol)

>  <smiles>  (52) 
C=CCn1nc(-c2ccccc2)nc1N=Cc1ccccc1

>  <score_type>  (52) 
oracle

>  <origin>  (52) 
adg

>  <m_score__min__energy>  (52) 
-6.0999999999999996

>  <m_primary>  (52) 
energy

$$$$
53:0
     RDKit          3D

 38 40  0  0  0  0  0  0  0  0999 V2000
   59.8960   30.0610   50.7600 C   0  0  0  0  0  0  0  0  0  0  0  0
   59.9240   29.8410   48.9960 S   0  0  0  0  0  0  0  0  0  0  0  0
   60.9780   28.8410   48.6160 O   0  0  0  0  0  0  0  0  0  0  0  0
   58.5840   29.3310   48.5430 O   0  0  0  0  0  0  0  0  0  0  0  0
   60.2520   31.3580   48.2240 N   0  0  0  0  0  0  0  0  0  0  0  0
   61.4190   32.1890   48.5040 C   0  0  0  0  0  0  0  0  0  0  0  0
   61.3520   33.3640   47.4980 C   0  0  0  0  0  0  0  0  0  0  0  0
   60.1380   33.0580   46.6900 C   0  0  0  0  0  0  0  0  0  0  0  0
   59.6130   33.7790   45.6180 C   0  0  0  0  0  0  0  0  0  0  0  0
   58.4510   33.3020   44.9910 C   0  0  0  0  0  0  0  0  0  0  0  0
   57.8290   32.1100   45.4430 C   0  0  0  0  0  0  0  0  0  0  0  0
   56.6480   31.5850   44.8240 N   0  0  0  0  0  0  0  0  0  0  0  0
   56.4590   29.9580   44.2550 S   0  0  0  0  0  0  0  0  0  0  0  0
   55.1440   29.4180   44.7410 O   0  0  0  0  0  0  0  0  0  0  0  0
   56.4630   29.9600   42.7520 O   0  0  0  0  0  0  0  0  0  0  0  0
   57.7560   28.9450   44.8800 C   0  0  0  0  0  0  0  0  0  0  0  0
   57.4650   27.9080   45.7800 C   0  0  0  0  0  0  0  0  0  0  0  0
   58.4930   27.1090   46.2870 C   0  0  0  0  0  0  0  0  0  0  0  0
   59.8170   27.3370   45.8950 C   0  0  0  0  0  0  0  0  0  0  0  0
   61.1070   26.3340   46.5320 Cl  0  0  0  0  0  0  0  0  0  0  0  0
   60.1100   28.3660   44.9940 C   0  0  0  0  0  0  0  0  0  0  0  0
   59.0820   29.1670   44.4860 C   0  0  0  0  0  0  0  0  0  0  0  0
   58.3830   31.4100   46.5300 C   0  0  0  0  0  0  0  0  0  0  0  0
   59.5410   31.9110   47.1330 C   0  0  0  0  0  0  0  0  0  0  0  0
   60.0201   29.0856   51.2532 H   0  0  0  0  0  0  0  0  0  0  0  0
   60.7162   30.7301   51.0591 H   0  0  0  0  0  0  0  0  0  0  0  0
   58.9343   30.5034   51.0591 H   0  0  0  0  0  0  0  0  0  0  0  0
   61.3816   32.5663   49.5366 H   0  0  0  0  0  0  0  0  0  0  0  0
   62.3549   31.6204   48.4003 H   0  0  0  0  0  0  0  0  0  0  0  0
   61.2441   34.3251   48.0220 H   0  0  0  0  0  0  0  0  0  0  0  0
   62.2618   33.4587   46.8871 H   0  0  0  0  0  0  0  0  0  0  0  0
   60.0994   34.7025   45.2708 H   0  0  0  0  0  0  0  0  0  0  0  0
   58.0202   33.8560   44.1440 H   0  0  0  0  0  0  0  0  0  0  0  0
   56.4249   27.7238   46.0870 H   0  0  0  0  0  0  0  0  0  0  0  0
   58.2614   26.2997   46.9951 H   0  0  0  0  0  0  0  0  0  0  0  0
   61.1502   28.5455   44.6845 H   0  0  0  0  0  0  0  0  0  0  0  0
   59.3153   29.9734   43.7752 H   0  0  0  0  0  0  0  0  0  0  0  0
   57.9141   30.4858   46.8988 H   0  0  0  0  0  0  0  0  0  0  0  0
  1  2  1  0
  2  3  2  0
  2  4  2  0
  2  5  1  0
  5  6  1  0
  6  7  1  0
  7  8  1  0
  8  9  2  0
  9 10  1  0
 10 11  2  0
 11 12  1  0
 12 13  1  0
 13 14  2  0
 13 15  2  0
 13 16  1  0
 16 17  2  0
 17 18  1  0
 18 19  2  0
 19 20  1  0
 19 21  1  0
 21 22  2  0
 11 23  1  0
 23 24  2  0
 24  5  1  0
 24  8  1  0
 22 16  1  0
  1 25  1  0
  1 26  1  0
  1 27  1  0
  6 28  1  0
  6 29  1  0
  7 30  1  0
  7 31  1  0
  9 32  1  0
 10 33  1  0
 17 34  1  0
 18 35  1  0
 21 36  1  0
 22 37  1  0
 23 38  1  0
M  CHG  1  12  -1
M  END
>  <UniqueID>  (53) 
49

>  <SMILES>  (53) 
CS(=O)(=O)N1CCc2ccc([N-]S(=O)(=O)c3ccc(Cl)cc3)cc21

>  <Energy>  (53) 
53.78033234625035

>  <Genealogy>  (53) 
CS(=O)(=O)N1CCc2ccc([N-]S(=O)(=O)c3ccc(Cl)cc3)cc21 (protonated)
CS(=O)(=O)N1CCc2ccc([N-]S(=O)(=O)c3ccc(Cl)cc3)cc21 (3D coordinates assigned)
CS(=O)(=O)N1CCc2ccc([N-]S(=O)(=O)c3ccc(Cl)cc3)cc21 (nonaromatic ring conformer: 53.78033234625035 kcal/mol)

>  <smiles>  (53) 
CS(=O)(=O)N1CCc2ccc(NS(=O)(=O)c3ccc(Cl)cc3)cc21

>  <score_type>  (53) 
oracle

>  <origin>  (53) 
adg

>  <m_score__min__energy>  (53) 
-9.7599999999999998

>  <m_primary>  (53) 
energy

$$$$
54:0
     RDKit          3D

 47 48  0  0  0  0  0  0  0  0999 V2000
   56.3640   29.4740   42.8900 C   0  0  0  0  0  0  0  0  0  0  0  0
   56.2040   29.3700   44.3810 C   0  0  0  0  0  0  0  0  0  0  0  0
   55.1470   29.7240   44.8830 O   0  0  0  0  0  0  0  0  0  0  0  0
   57.3060   28.8390   45.2720 C   0  0  1  0  0  0  0  0  0  0  0  0
   57.4510   27.3110   45.0990 C   0  0  0  0  0  0  0  0  0  0  0  0
   57.1100   26.5450   46.3840 C   0  0  0  0  0  0  0  0  0  0  0  0
   55.8630   25.7380   46.1940 C   0  0  0  0  0  0  0  0  0  0  0  0
   54.7660   26.3220   45.9880 O   0  0  0  0  0  0  0  0  0  0  0  0
   55.9340   24.3090   46.2720 N   0  0  0  0  0  0  0  0  0  0  0  0
   56.3650   23.4120   45.2380 C   0  0  0  0  0  0  0  0  0  0  0  0
   57.4660   22.5820   45.4850 C   0  0  0  0  0  0  0  0  0  0  0  0
   57.9320   21.7090   44.4970 C   0  0  0  0  0  0  0  0  0  0  0  0
   57.3070   21.6680   43.2490 C   0  0  0  0  0  0  0  0  0  0  0  0
   56.2220   22.5090   42.9840 C   0  0  0  0  0  0  0  0  0  0  0  0
   55.7550   23.3840   43.9680 C   0  0  0  0  0  0  0  0  0  0  0  0
   58.5870   29.5930   45.0000 C   0  0  0  0  0  0  0  0  0  0  0  0
   59.4330   29.1450   44.1780 O   0  0  0  0  0  0  0  0  0  0  0  0
   58.7980   30.9320   45.5800 C   0  0  0  0  0  0  0  0  0  0  0  0
   59.2620   31.0310   46.8960 C   0  0  0  0  0  0  0  0  0  0  0  0
   59.4880   32.2820   47.4690 C   0  0  0  0  0  0  0  0  0  0  0  0
   59.2440   33.4410   46.7200 C   0  0  0  0  0  0  0  0  0  0  0  0
   59.4790   34.7840   47.2930 C   0  0  0  0  0  0  0  0  0  0  0  0
   59.6460   35.9220   46.4430 N   0  0  0  0  0  0  0  0  0  0  0  0
   59.5350   34.9390   48.5420 O   0  0  0  0  0  0  0  0  0  0  0  0
   58.7790   33.3220   45.4450 N   0  0  0  0  0  0  0  0  0  0  0  0
   58.5410   32.1170   44.8580 C   0  0  0  0  0  0  0  0  0  0  0  0
   58.0060   32.0960   43.4560 C   0  0  0  0  0  0  0  0  0  0  0  0
   57.2655   30.0600   42.6580 H   0  0  0  0  0  0  0  0  0  0  0  0
   56.4613   28.4660   42.4605 H   0  0  0  0  0  0  0  0  0  0  0  0
   55.4823   29.9721   42.4605 H   0  0  0  0  0  0  0  0  0  0  0  0
   57.0500   29.0063   46.3286 H   0  0  0  0  0  0  0  0  0  0  0  0
   56.7727   26.9796   44.2989 H   0  0  0  0  0  0  0  0  0  0  0  0
   58.5009   27.0986   44.8489 H   0  0  0  0  0  0  0  0  0  0  0  0
   57.9425   25.8720   46.6367 H   0  0  0  0  0  0  0  0  0  0  0  0
   56.9478   27.2669   47.1980 H   0  0  0  0  0  0  0  0  0  0  0  0
   57.9677   22.6172   46.4633 H   0  0  0  0  0  0  0  0  0  0  0  0
   58.7915   21.0541   44.7031 H   0  0  0  0  0  0  0  0  0  0  0  0
   57.6680   20.9747   42.4751 H   0  0  0  0  0  0  0  0  0  0  0  0
   55.7348   22.4817   41.9982 H   0  0  0  0  0  0  0  0  0  0  0  0
   54.9090   24.0527   43.7508 H   0  0  0  0  0  0  0  0  0  0  0  0
   59.4493   30.1185   47.4810 H   0  0  0  0  0  0  0  0  0  0  0  0
   59.8557   32.3587   48.5029 H   0  0  0  0  0  0  0  0  0  0  0  0
   59.8070   36.8670   46.8600 H   0  0  0  0  0  0  0  0  0  0  0  0
   59.6180   35.8350   45.4030 H   0  0  0  0  0  0  0  0  0  0  0  0
   56.9072   32.0529   43.4835 H   0  0  0  0  0  0  0  0  0  0  0  0
   58.3241   33.0073   42.9285 H   0  0  0  0  0  0  0  0  0  0  0  0
   58.3946   31.2124   42.9285 H   0  0  0  0  0  0  0  0  0  0  0  0
  1  2  1  0
  2  3  2  0
  2  4  1  0
  4  5  1  0
  5  6  1  0
  6  7  1  0
  7  8  2  0
  7  9  1  0
  9 10  1  0
 10 11  2  0
 11 12  1  0
 12 13  2  0
 13 14  1  0
 14 15  2  0
  4 16  1  0
 16 17  2  0
 16 18  1  0
 18 19  2  0
 19 20  1  0
 20 21  2  0
 21 22  1  0
 22 23  1  0
 22 24  2  0
 21 25  1  0
 25 26  2  0
 26 27  1  0
 15 10  1  0
 26 18  1  0
  1 28  1  0
  1 29  1  0
  1 30  1  0
  4 31  1  1
  5 32  1  0
  5 33  1  0
  6 34  1  0
  6 35  1  0
 11 36  1  0
 12 37  1  0
 13 38  1  0
 14 39  1  0
 15 40  1  0
 19 41  1  0
 20 42  1  0
 23 43  1  0
 23 44  1  0
 27 45  1  0
 27 46  1  0
 27 47  1  0
M  CHG  1   9  -1
M  END
>  <UniqueID>  (54) 
50

>  <SMILES>  (54) 
CC(=O)[C@@H](CCC(=O)[N-]c1ccccc1)C(=O)c1ccc(C(N)=O)nc1C

>  <Energy>  (54) 
49.09032130822063

>  <Genealogy>  (54) 
CC(=O)C(CCC(=O)[N-]c1ccccc1)C(=O)c1ccc(C(N)=O)nc1C (protonated)
CC(=O)[C@@H](CCC(=O)[N-]c1ccccc1)C(=O)c1ccc(C(N)=O)nc1C (chirality)
CC(=O)[C@@H](CCC(=O)[N-]c1ccccc1)C(=O)c1ccc(C(N)=O)nc1C (3D coordinates assigned)
CC(=O)[C@@H](CCC(=O)[N-]c1ccccc1)C(=O)c1ccc(C(N)=O)nc1C (optimized conformer: 49.09032130822063 kcal/mol)

>  <smiles>  (54) 
CC(=O)C(CCC(=O)Nc1ccccc1)C(=O)c1ccc(C(N)=O)nc1C

>  <score_type>  (54) 
oracle

>  <origin>  (54) 
adg

>  <m_score__min__energy>  (54) 
-10.529999999999999

>  <m_primary>  (54) 
energy

$$$$
55:0
     RDKit          3D

 64 66  0  0  0  0  0  0  0  0999 V2000
   58.5080   32.7740   51.7650 C   0  0  0  0  0  0  0  0  0  0  0  0
   58.2310   31.8770   50.5630 C   0  0  0  0  0  0  0  0  0  0  0  0
   58.3740   32.6060   49.3460 O   0  0  0  0  0  0  0  0  0  0  0  0
   58.4510   32.0000   48.0840 C   0  0  0  0  0  0  0  0  0  0  0  0
   58.5010   30.7430   47.9990 O   0  0  0  0  0  0  0  0  0  0  0  0
   58.4810   32.8490   46.8610 C   0  0  0  0  0  0  0  0  0  0  0  0
   59.2120   34.0520   46.8930 C   0  0  0  0  0  0  0  0  0  0  0  0
   59.2830   34.8770   45.7700 C   0  0  0  0  0  0  0  0  0  0  0  0
   58.6360   34.5100   44.5930 C   0  0  0  0  0  0  0  0  0  0  0  0
   57.9030   33.3250   44.5370 C   0  0  0  0  0  0  0  0  0  0  0  0
   57.7950   32.4950   45.6690 C   0  0  0  0  0  0  0  0  0  0  0  0
   57.0530   31.2650   45.6070 N   0  0  0  0  0  0  0  0  0  0  0  0
   56.8410   30.4330   44.4570 C   0  0  0  0  0  0  0  0  0  0  0  0
   55.9190   30.6900   43.6380 O   0  0  0  0  0  0  0  0  0  0  0  0
   57.6320   29.1700   44.2920 C   0  0  0  0  0  0  0  0  0  0  0  0
   58.2130   28.7450   45.5640 N   0  0  0  0  0  0  0  0  0  0  0  0
   58.8710   27.4800   45.7260 C   0  0  0  0  0  0  0  0  0  0  0  0
   58.8750   26.6390   44.7860 O   0  0  0  0  0  0  0  0  0  0  0  0
   59.5320   27.1380   47.0250 C   0  0  0  0  0  0  0  0  0  0  0  0
   60.1970   28.3540   47.6070 C   0  0  0  0  0  0  0  0  0  0  0  0
   60.7440   29.3340   46.7640 C   0  0  0  0  0  0  0  0  0  0  0  0
   61.3790   30.4550   47.3040 C   0  0  0  0  0  0  0  0  0  0  0  0
   61.4830   30.6140   48.6950 C   0  0  0  0  0  0  0  0  0  0  0  0
   62.1480   31.7660   49.2520 N   0  0  0  0  0  0  0  0  0  0  0  0
   61.4010   32.9740   49.6170 C   0  0  0  0  0  0  0  0  0  0  0  0
   61.9980   34.2080   48.9110 C   0  0  0  0  0  0  0  0  0  0  0  0
   63.4580   34.1010   48.6390 N   0  0  0  0  0  0  0  0  0  0  0  0
   63.7470   33.7700   47.2260 C   0  0  0  0  0  0  0  0  0  0  0  0
   62.4640   33.8020   46.4010 C   0  0  0  0  0  0  0  0  0  0  0  0
   64.1440   33.1850   49.5760 C   0  0  0  0  0  0  0  0  0  0  0  0
   63.6000   31.7520   49.4600 C   0  0  0  0  0  0  0  0  0  0  0  0
   60.9600   29.6190   49.5380 C   0  0  0  0  0  0  0  0  0  0  0  0
   60.3210   28.4980   48.9980 C   0  0  0  0  0  0  0  0  0  0  0  0
   58.3334   32.2087   52.6923 H   0  0  0  0  0  0  0  0  0  0  0  0
   59.5533   33.1151   51.7348 H   0  0  0  0  0  0  0  0  0  0  0  0
   57.8370   33.6451   51.7348 H   0  0  0  0  0  0  0  0  0  0  0  0
   58.9425   31.0381   50.5670 H   0  0  0  0  0  0  0  0  0  0  0  0
   57.1989   31.5028   50.6316 H   0  0  0  0  0  0  0  0  0  0  0  0
   59.7341   34.3453   47.8157 H   0  0  0  0  0  0  0  0  0  0  0  0
   59.8506   35.8182   45.8146 H   0  0  0  0  0  0  0  0  0  0  0  0
   58.7032   35.1562   43.7054 H   0  0  0  0  0  0  0  0  0  0  0  0
   57.4047   33.0362   43.5999 H   0  0  0  0  0  0  0  0  0  0  0  0
   56.9687   28.3767   43.9168 H   0  0  0  0  0  0  0  0  0  0  0  0
   58.4487   29.3589   43.5798 H   0  0  0  0  0  0  0  0  0  0  0  0
   58.1640   29.3990   46.3770 H   0  0  0  0  0  0  0  0  0  0  0  0
   58.7748   26.7656   47.7307 H   0  0  0  0  0  0  0  0  0  0  0  0
   60.2932   26.3642   46.8467 H   0  0  0  0  0  0  0  0  0  0  0  0
   60.6723   29.2187   45.6724 H   0  0  0  0  0  0  0  0  0  0  0  0
   61.8007   31.2189   46.6343 H   0  0  0  0  0  0  0  0  0  0  0  0
   60.3502   32.8559   49.3140 H   0  0  0  0  0  0  0  0  0  0  0  0
   61.4661   33.1189   50.7055 H   0  0  0  0  0  0  0  0  0  0  0  0
   61.4763   34.3444   47.9522 H   0  0  0  0  0  0  0  0  0  0  0  0
   61.8621   35.0615   49.5914 H   0  0  0  0  0  0  0  0  0  0  0  0
   64.4581   34.5043   46.8195 H   0  0  0  0  0  0  0  0  0  0  0  0
   64.1788   32.7595   47.1766 H   0  0  0  0  0  0  0  0  0  0  0  0
   61.5950   33.8237   47.0751 H   0  0  0  0  0  0  0  0  0  0  0  0
   62.4584   34.7006   45.7665 H   0  0  0  0  0  0  0  0  0  0  0  0
   62.4136   32.9048   45.7665 H   0  0  0  0  0  0  0  0  0  0  0  0
   65.2199   33.1789   49.3470 H   0  0  0  0  0  0  0  0  0  0  0  0
   63.9647   33.5410   50.6012 H   0  0  0  0  0  0  0  0  0  0  0  0
   64.0823   31.2501   48.6083 H   0  0  0  0  0  0  0  0  0  0  0  0
   63.8193   31.2129   50.3934 H   0  0  0  0  0  0  0  0  0  0  0  0
   61.0536   29.7222   50.6291 H   0  0  0  0  0  0  0  0  0  0  0  0
   59.9136   27.7254   49.6666 H   0  0  0  0  0  0  0  0  0  0  0  0
  1  2  1  0
  2  3  1  0
  3  4  1  0
  4  5  2  0
  4  6  1  0
  6  7  2  0
  7  8  1  0
  8  9  2  0
  9 10  1  0
 10 11  2  0
 11 12  1  0
 12 13  1  0
 13 14  2  0
 13 15  1  0
 15 16  1  0
 16 17  1  0
 17 18  2  0
 17 19  1  0
 19 20  1  0
 20 21  2  0
 21 22  1  0
 22 23  2  0
 23 24  1  0
 24 25  1  0
 25 26  1  0
 26 27  1  0
 27 28  1  0
 28 29  1  0
 27 30  1  0
 30 31  1  0
 23 32  1  0
 32 33  2  0
 11  6  1  0
 33 20  1  0
 31 24  1  0
  1 34  1  0
  1 35  1  0
  1 36  1  0
  2 37  1  0
  2 38  1  0
  7 39  1  0
  8 40  1  0
  9 41  1  0
 10 42  1  0
 15 43  1  0
 15 44  1  0
 16 45  1  0
 19 46  1  0
 19 47  1  0
 21 48  1  0
 22 49  1  0
 25 50  1  0
 25 51  1  0
 26 52  1  0
 26 53  1  0
 28 54  1  0
 28 55  1  0
 29 56  1  0
 29 57  1  0
 29 58  1  0
 30 59  1  0
 30 60  1  0
 31 61  1  0
 31 62  1  0
 32 63  1  0
 33 64  1  0
M  CHG  1  12  -1
M  END
>  <UniqueID>  (55) 
51

>  <SMILES>  (55) 
CCOC(=O)c1ccccc1[N-]C(=O)CNC(=O)Cc1ccc(N2CCN(CC)CC2)cc1

>  <Energy>  (55) 
71.67166085603127

>  <Genealogy>  (55) 
CCOC(=O)c1ccccc1[N-]C(=O)CNC(=O)Cc1ccc(N2CCN(CC)CC2)cc1 (protonated)
CCOC(=O)c1ccccc1[N-]C(=O)CNC(=O)Cc1ccc(N2CCN(CC)CC2)cc1 (3D coordinates assigned)
CCOC(=O)c1ccccc1[N-]C(=O)CNC(=O)Cc1ccc(N2CCN(CC)CC2)cc1 (nonaromatic ring conformer: 71.67166085603127 kcal/mol)

>  <smiles>  (55) 
CCOC(=O)c1ccccc1NC(=O)CNC(=O)Cc1ccc(N2CCN(CC)CC2)cc1

>  <score_type>  (55) 
oracle

>  <origin>  (55) 
adg

>  <m_score__min__energy>  (55) 
-11.51

>  <m_primary>  (55) 
energy

$$$$
56:0
     RDKit          3D

 49 52  0  0  0  0  0  0  0  0999 V2000
   57.9756   22.5472   45.0940 H   0  0  0  0  0  0  0  0  0  0  0  0
   57.2230   23.3220   45.3020 C   0  0  0  0  0  0  0  0  0  0  0  0
   57.5480   24.3990   46.0670 N   0  0  0  0  0  0  0  0  0  0  0  0
   56.6570   25.3900   46.3630 C   0  0  0  0  0  0  0  0  0  0  0  0
   57.0730   26.3700   47.1230 N   0  0  0  0  0  0  0  0  0  0  0  0
   57.8000   27.5500   46.7500 C   0  0  0  0  0  0  0  0  0  0  0  0
   58.6350   28.0730   47.5430 O   0  0  0  0  0  0  0  0  0  0  0  0
   57.6010   28.1340   45.3850 C   0  0  0  0  0  0  0  0  0  0  0  0
   58.3541   28.9182   45.2182 H   0  0  0  0  0  0  0  0  0  0  0  0
   57.7065   27.3269   44.6450 H   0  0  0  0  0  0  0  0  0  0  0  0
   56.2680   28.7170   45.2420 N   0  0  0  0  0  0  0  0  0  0  0  0
   55.8770   29.7060   44.2760 C   0  0  0  0  0  0  0  0  0  0  0  0
   54.7660   29.5790   43.6940 O   0  0  0  0  0  0  0  0  0  0  0  0
   56.7210   30.8730   43.9630 C   0  0  0  0  0  0  0  0  0  0  0  0
   57.0260   31.1770   42.6280 C   0  0  0  0  0  0  0  0  0  0  0  0
   56.6229   30.5523   41.8173 H   0  0  0  0  0  0  0  0  0  0  0  0
   57.8410   32.2720   42.3250 C   0  0  0  0  0  0  0  0  0  0  0  0
   58.0659   32.5142   41.2758 H   0  0  0  0  0  0  0  0  0  0  0  0
   58.3710   33.0600   43.3510 C   0  0  0  0  0  0  0  0  0  0  0  0
   59.0075   33.9234   43.1074 H   0  0  0  0  0  0  0  0  0  0  0  0
   58.0930   32.7520   44.6870 C   0  0  0  0  0  0  0  0  0  0  0  0
   58.8410   33.6990   45.9700 S   0  0  0  0  0  0  0  0  0  0  0  0
   57.8000   34.2660   46.8940 O   0  0  0  0  0  0  0  0  0  0  0  0
   59.6170   34.8340   45.3600 O   0  0  0  0  0  0  0  0  0  0  0  0
   59.9080   32.6780   46.8780 N   0  0  0  0  0  0  0  0  0  0  0  0
   61.2840   32.9270   47.0970 C   0  0  0  0  0  0  0  0  0  0  0  0
   62.0880   33.8660   46.4430 C   0  0  0  0  0  0  0  0  0  0  0  0
   61.6757   34.5078   45.6504 H   0  0  0  0  0  0  0  0  0  0  0  0
   63.4360   33.9680   46.8250 C   0  0  0  0  0  0  0  0  0  0  0  0
   64.0949   34.6912   46.3223 H   0  0  0  0  0  0  0  0  0  0  0  0
   63.9470   33.1470   47.8500 C   0  0  0  0  0  0  0  0  0  0  0  0
   65.0019   33.2354   48.1490 H   0  0  0  0  0  0  0  0  0  0  0  0
   63.1130   32.2160   48.4910 C   0  0  0  0  0  0  0  0  0  0  0  0
   63.5039   31.5672   49.2887 H   0  0  0  0  0  0  0  0  0  0  0  0
   61.7780   32.1320   48.0940 C   0  0  0  0  0  0  0  0  0  0  0  0
   60.7110   31.2420   48.6300 C   0  0  0  0  0  0  0  0  0  0  0  0
   60.5667   31.4058   49.7081 H   0  0  0  0  0  0  0  0  0  0  0  0
   60.9481   30.1735   48.5203 H   0  0  0  0  0  0  0  0  0  0  0  0
   59.4540   31.6670   47.8320 C   0  0  0  0  0  0  0  0  0  0  0  0
   58.6970   32.0913   48.5079 H   0  0  0  0  0  0  0  0  0  0  0  0
   58.9903   30.8097   47.3220 H   0  0  0  0  0  0  0  0  0  0  0  0
   57.2700   31.6560   44.9910 C   0  0  0  0  0  0  0  0  0  0  0  0
   57.0540   31.4092   46.0410 H   0  0  0  0  0  0  0  0  0  0  0  0
   55.3490   25.3190   45.8050 C   0  0  0  0  0  0  0  0  0  0  0  0
   54.4140   26.3400   45.9550 O   0  0  0  0  0  0  0  0  0  0  0  0
   54.9970   24.2070   45.0320 C   0  0  0  0  0  0  0  0  0  0  0  0
   53.9801   24.1248   44.6207 H   0  0  0  0  0  0  0  0  0  0  0  0
   55.9330   23.2010   44.7810 C   0  0  0  0  0  0  0  0  0  0  0  0
   55.6568   22.3226   44.1792 H   0  0  0  0  0  0  0  0  0  0  0  0
  1  2  1  0
  2  3  1  0
  3  4  1  0
  4  5  2  0
  5  6  1  0
  6  7  2  0
  6  8  1  0
  8  9  1  0
  8 10  1  0
  8 11  1  0
 11 12  1  0
 12 13  2  0
 12 14  1  0
 14 15  2  0
 15 16  1  0
 15 17  1  0
 17 18  1  0
 17 19  2  0
 19 20  1  0
 19 21  1  0
 21 22  1  0
 22 23  2  0
 22 24  2  0
 22 25  1  0
 25 26  1  0
 26 27  2  0
 27 28  1  0
 27 29  1  0
 29 30  1  0
 29 31  2  0
 31 32  1  0
 31 33  1  0
 33 34  1  0
 33 35  2  0
 35 36  1  0
 36 37  1  0
 36 38  1  0
 36 39  1  0
 39 40  1  0
 39 41  1  0
 21 42  2  0
 42 43  1  0
  4 44  1  0
 44 45  1  0
 44 46  2  0
 46 47  1  0
 46 48  1  0
 48 49  1  0
 48  2  2  0
 42 14  1  0
 39 25  1  0
 35 26  1  0
M  CHG  3   3  -1  11  -1  45  -1
M  END
>  <UniqueID>  (56) 
52

>  <SMILES>  (56) 
O=C(C[N-]C(=O)c1cccc(S(=O)(=O)N2CCc3ccccc32)c1)/N=c1/[n-]cccc1[O-]

>  <Energy>  (56) 
84.07402364404282

>  <Genealogy>  (56) 
O=C(C[N-]C(=O)c1cccc(S(=O)(=O)N2CCc3ccccc32)c1)N=c1[n-]cccc1[O-] (protonated)
O=C(C[N-]C(=O)c1cccc(S(=O)(=O)N2CCc3ccccc32)c1)/N=c1/[n-]cccc1[O-] (cis-trans isomerization)
O=C(C[N-]C(=O)c1cccc(S(=O)(=O)N2CCc3ccccc32)c1)/N=c1/[n-]cccc1[O-] (3D coordinates assigned)
O=C(C[N-]C(=O)c1cccc(S(=O)(=O)N2CCc3ccccc32)c1)/N=c1/[n-]cccc1[O-] (nonaromatic ring conformer: 84.07402364404282 kcal/mol)

>  <smiles>  (56) 
O=C(CNC(=O)c1cccc(S(=O)(=O)N2CCc3ccccc32)c1)N=c1[nH]cccc1O

>  <score_type>  (56) 
oracle

>  <origin>  (56) 
adg

>  <m_score__min__energy>  (56) 
-17.620000000000001

>  <m_primary>  (56) 
energy

$$$$
57:0
     RDKit          3D

 55 58  0  0  0  0  0  0  0  0999 V2000
   54.4210   29.3810   45.5690 H   0  0  0  0  0  0  0  0  0  0  0  0
   55.1480   29.2840   44.8270 N   0  0  0  0  0  0  0  0  0  0  0  0
   56.3570   30.0390   44.8820 C   0  0  0  0  0  0  0  0  0  0  0  0
   56.3590   31.2330   44.4820 O   0  0  0  0  0  0  0  0  0  0  0  0
   57.5990   29.3970   45.3560 C   0  0  0  0  0  0  0  0  0  0  0  0
   57.5250   28.1030   45.7750 N   0  0  0  0  0  0  0  0  0  0  0  0
   58.6120   27.3820   46.1590 C   0  0  0  0  0  0  0  0  0  0  0  0
   58.4320   26.1490   46.5430 N   0  0  0  0  0  0  0  0  0  0  0  0
   57.5050   25.1910   46.0080 C   0  0  0  0  0  0  0  0  0  0  0  0
   56.4020   24.8060   46.7800 C   0  0  0  0  0  0  0  0  0  0  0  0
   56.2337   25.2690   47.7635 H   0  0  0  0  0  0  0  0  0  0  0  0
   55.5130   23.8350   46.3060 C   0  0  0  0  0  0  0  0  0  0  0  0
   54.6375   23.5505   46.9081 H   0  0  0  0  0  0  0  0  0  0  0  0
   55.7370   23.2260   45.0670 C   0  0  0  0  0  0  0  0  0  0  0  0
   55.0333   22.4687   44.6910 H   0  0  0  0  0  0  0  0  0  0  0  0
   56.8560   23.5800   44.3060 C   0  0  0  0  0  0  0  0  0  0  0  0
   57.0370   23.0952   43.3353 H   0  0  0  0  0  0  0  0  0  0  0  0
   57.7450   24.5510   44.7800 C   0  0  0  0  0  0  0  0  0  0  0  0
   58.6349   24.8144   44.1894 H   0  0  0  0  0  0  0  0  0  0  0  0
   59.8850   27.9750   46.0760 C   0  0  0  0  0  0  0  0  0  0  0  0
   60.7844   27.3959   46.3324 H   0  0  0  0  0  0  0  0  0  0  0  0
   59.9970   29.3030   45.6660 C   0  0  0  0  0  0  0  0  0  0  0  0
   60.9902   29.7709   45.5971 H   0  0  0  0  0  0  0  0  0  0  0  0
   58.8580   30.0440   45.3420 C   0  0  0  0  0  0  0  0  0  0  0  0
   59.0170   31.4390   45.0470 N   0  0  0  0  0  0  0  0  0  0  0  0
   58.9970   32.5050   46.0080 C   0  0  0  0  0  0  0  0  0  0  0  0
   57.9650   33.2220   46.0940 O   0  0  0  0  0  0  0  0  0  0  0  0
   60.1460   32.7830   46.9000 C   0  0  0  0  0  0  0  0  0  0  0  0
   61.2010   33.6120   46.4820 C   0  0  0  0  0  0  0  0  0  0  0  0
   61.1654   34.0839   45.4890 H   0  0  0  0  0  0  0  0  0  0  0  0
   62.2950   33.8400   47.3210 C   0  0  0  0  0  0  0  0  0  0  0  0
   63.1221   34.4786   46.9775 H   0  0  0  0  0  0  0  0  0  0  0  0
   62.3470   33.2610   48.5980 C   0  0  0  0  0  0  0  0  0  0  0  0
   63.4910   33.4710   49.4490 N   0  0  0  0  0  0  0  0  0  0  0  0
   63.3700   34.1650   50.7340 C   0  0  0  0  0  0  0  0  0  0  0  0
   62.3133   34.4108   50.9158 H   0  0  0  0  0  0  0  0  0  0  0  0
   63.9705   35.0861   50.7016 H   0  0  0  0  0  0  0  0  0  0  0  0
   63.8870   33.2690   51.8750 C   0  0  0  0  0  0  0  0  0  0  0  0
   63.0483   32.6610   52.2450 H   0  0  0  0  0  0  0  0  0  0  0  0
   64.2960   33.9383   52.6462 H   0  0  0  0  0  0  0  0  0  0  0  0
   64.9870   32.3530   51.4710 N   0  0  0  0  0  0  0  0  0  0  0  0
   64.5150   30.9650   51.3180 C   0  0  0  0  0  0  0  0  0  0  0  0
   64.3629   30.5178   52.3114 H   0  0  0  0  0  0  0  0  0  0  0  0
   63.5646   30.9598   50.7642 H   0  0  0  0  0  0  0  0  0  0  0  0
   65.2652   30.3815   50.7642 H   0  0  0  0  0  0  0  0  0  0  0  0
   65.7270   32.8160   50.2770 C   0  0  0  0  0  0  0  0  0  0  0  0
   66.5195   32.0891   50.0454 H   0  0  0  0  0  0  0  0  0  0  0  0
   66.1512   33.8060   50.5006 H   0  0  0  0  0  0  0  0  0  0  0  0
   64.8070   32.9560   49.0530 C   0  0  0  0  0  0  0  0  0  0  0  0
   64.6818   31.9704   48.5808 H   0  0  0  0  0  0  0  0  0  0  0  0
   65.2650   33.6629   48.3455 H   0  0  0  0  0  0  0  0  0  0  0  0
   61.2840   32.4460   49.0220 C   0  0  0  0  0  0  0  0  0  0  0  0
   61.3133   31.9851   50.0204 H   0  0  0  0  0  0  0  0  0  0  0  0
   60.1890   32.2170   48.1830 C   0  0  0  0  0  0  0  0  0  0  0  0
   59.3558   31.5889   48.5313 H   0  0  0  0  0  0  0  0  0  0  0  0
  1  2  1  0
  2  3  1  0
  3  4  2  0
  3  5  1  0
  5  6  1  0
  6  7  1  0
  7  8  2  0
  8  9  1  0
  9 10  2  0
 10 11  1  0
 10 12  1  0
 12 13  1  0
 12 14  2  0
 14 15  1  0
 14 16  1  0
 16 17  1  0
 16 18  2  0
 18 19  1  0
  7 20  1  0
 20 21  1  0
 20 22  2  0
 22 23  1  0
 22 24  1  0
 24 25  1  0
 25 26  1  0
 26 27  2  0
 26 28  1  0
 28 29  2  0
 29 30  1  0
 29 31  1  0
 31 32  1  0
 31 33  2  0
 33 34  1  0
 34 35  1  0
 35 36  1  0
 35 37  1  0
 35 38  1  0
 38 39  1  0
 38 40  1  0
 38 41  1  0
 41 42  1  0
 42 43  1  0
 42 44  1  0
 42 45  1  0
 41 46  1  0
 46 47  1  0
 46 48  1  0
 46 49  1  0
 49 50  1  0
 49 51  1  0
 33 52  1  0
 52 53  1  0
 52 54  2  0
 54 55  1  0
 24  5  2  0
 54 28  1  0
 18  9  1  0
 49 34  1  0
M  CHG  3   2  -1   6  -1  25  -1
M  END
>  <UniqueID>  (57) 
53

>  <SMILES>  (57) 
CN1CCN(c2ccc(C(=O)[N-]c3cc/c(=N\c4ccccc4)[n-]c3C([NH-])=O)cc2)CC1

>  <Energy>  (57) 
90.98758911317796

>  <Genealogy>  (57) 
CN1CCN(c2ccc(C(=O)[N-]c3ccc(=Nc4ccccc4)[n-]c3C([NH-])=O)cc2)CC1 (protonated)
CN1CCN(c2ccc(C(=O)[N-]c3cc/c(=N\c4ccccc4)[n-]c3C([NH-])=O)cc2)CC1 (cis-trans isomerization)
CN1CCN(c2ccc(C(=O)[N-]c3cc/c(=N\c4ccccc4)[n-]c3C([NH-])=O)cc2)CC1 (3D coordinates assigned)
CN1CCN(c2ccc(C(=O)[N-]c3cc/c(=N\c4ccccc4)[n-]c3C([NH-])=O)cc2)CC1 (nonaromatic ring conformer: 90.98758911317796 kcal/mol)

>  <smiles>  (57) 
CN1CCN(c2ccc(C(=O)Nc3ccc(=Nc4ccccc4)[nH]c3C(N)=O)cc2)CC1

>  <score_type>  (57) 
oracle

>  <origin>  (57) 
adg

>  <m_score__min__energy>  (57) 
-13.779999999999999

>  <m_primary>  (57) 
energy

$$$$
58:0
     RDKit          3D

 38 39  0  0  0  0  0  0  0  0999 V2000
   59.3990   27.8430   44.1390 C   0  0  0  0  0  0  0  0  0  0  0  0
   59.9690   27.8830   45.8220 S   0  0  0  0  0  0  0  0  0  0  0  0
   60.9250   26.7430   46.0390 O   0  0  0  0  0  0  0  0  0  0  0  0
   60.6750   29.1870   46.0690 O   0  0  0  0  0  0  0  0  0  0  0  0
   58.5970   27.7220   46.8830 N   0  0  0  0  0  0  0  0  0  0  0  0
   57.3550   27.5720   46.1230 C   0  0  0  0  0  0  0  0  0  0  0  0
   56.8790   28.8990   45.6160 C   0  0  0  0  0  0  0  0  0  0  0  0
   55.6810   29.0190   45.2410 O   0  0  0  0  0  0  0  0  0  0  0  0
   57.7700   30.0270   45.6000 N   0  0  0  0  0  0  0  0  0  0  0  0
   57.4010   31.3260   45.1070 C   0  0  0  0  0  0  0  0  0  0  0  0
   56.3820   31.4560   44.3740 O   0  0  0  0  0  0  0  0  0  0  0  0
   58.2250   32.5170   45.4250 C   0  0  0  0  0  0  0  0  0  0  0  0
   59.3890   32.3780   46.2010 C   0  0  0  0  0  0  0  0  0  0  0  0
   60.1670   33.5070   46.5090 C   0  0  0  0  0  0  0  0  0  0  0  0
   61.3970   33.3760   47.3320 C   0  0  0  0  0  0  0  0  0  0  0  0
   61.3100   33.2110   48.7270 C   0  0  0  0  0  0  0  0  0  0  0  0
   62.4680   33.0840   49.4990 C   0  0  0  0  0  0  0  0  0  0  0  0
   63.7260   33.1210   48.8890 C   0  0  0  0  0  0  0  0  0  0  0  0
   65.1780   32.9610   49.8600 Cl  0  0  0  0  0  0  0  0  0  0  0  0
   63.8240   33.2840   47.5040 C   0  0  0  0  0  0  0  0  0  0  0  0
   62.6680   33.4090   46.7280 C   0  0  0  0  0  0  0  0  0  0  0  0
   59.7620   34.7580   46.0240 C   0  0  0  0  0  0  0  0  0  0  0  0
   58.6100   34.8590   45.2450 C   0  0  0  0  0  0  0  0  0  0  0  0
   57.8730   33.7530   44.9600 N   0  0  0  0  0  0  0  0  0  0  0  0
   58.3018   27.7660   44.1252 H   0  0  0  0  0  0  0  0  0  0  0  0
   59.7083   28.7651   43.6251 H   0  0  0  0  0  0  0  0  0  0  0  0
   59.8341   26.9732   43.6251 H   0  0  0  0  0  0  0  0  0  0  0  0
   57.5334   26.9023   45.2688 H   0  0  0  0  0  0  0  0  0  0  0  0
   56.5847   27.1502   46.7853 H   0  0  0  0  0  0  0  0  0  0  0  0
   58.7430   29.8840   45.9520 H   0  0  0  0  0  0  0  0  0  0  0  0
   59.6908   31.3856   46.5671 H   0  0  0  0  0  0  0  0  0  0  0  0
   60.3236   33.1818   49.2130 H   0  0  0  0  0  0  0  0  0  0  0  0
   62.3899   32.9547   50.5886 H   0  0  0  0  0  0  0  0  0  0  0  0
   64.8131   33.3140   47.0237 H   0  0  0  0  0  0  0  0  0  0  0  0
   62.7521   33.5340   45.6384 H   0  0  0  0  0  0  0  0  0  0  0  0
   60.3510   35.6573   46.2571 H   0  0  0  0  0  0  0  0  0  0  0  0
   58.2956   35.8398   44.8587 H   0  0  0  0  0  0  0  0  0  0  0  0
   57.0350   33.8720   44.3470 H   0  0  0  0  0  0  0  0  0  0  0  0
  1  2  1  0
  2  3  2  0
  2  4  2  0
  2  5  1  0
  5  6  1  0
  6  7  1  0
  7  8  2  0
  7  9  1  0
  9 10  1  0
 10 11  2  0
 10 12  1  0
 12 13  2  0
 13 14  1  0
 14 15  1  0
 15 16  2  0
 16 17  1  0
 17 18  2  0
 18 19  1  0
 18 20  1  0
 20 21  2  0
 14 22  2  0
 22 23  1  0
 23 24  2  0
 24 12  1  0
 21 15  1  0
  1 25  1  0
  1 26  1  0
  1 27  1  0
  6 28  1  0
  6 29  1  0
  9 30  1  0
 13 31  1  0
 16 32  1  0
 17 33  1  0
 20 34  1  0
 21 35  1  0
 22 36  1  0
 23 37  1  0
 24 38  1  0
M  CHG  2   5  -1  24   1
M  END
>  <UniqueID>  (58) 
54

>  <SMILES>  (58) 
CS(=O)(=O)[N-]CC(=O)NC(=O)c1cc(-c2ccc(Cl)cc2)cc[nH+]1

>  <Energy>  (58) 
39.44062533687937

>  <Genealogy>  (58) 
CS(=O)(=O)[N-]CC(=O)NC(=O)c1cc(-c2ccc(Cl)cc2)cc[nH+]1 (protonated)
CS(=O)(=O)[N-]CC(=O)NC(=O)c1cc(-c2ccc(Cl)cc2)cc[nH+]1 (3D coordinates assigned)
CS(=O)(=O)[N-]CC(=O)NC(=O)c1cc(-c2ccc(Cl)cc2)cc[nH+]1 (optimized conformer: 39.44062533687937 kcal/mol)

>  <smiles>  (58) 
CS(=O)(=O)NCC(=O)NC(=O)c1cc(-c2ccc(Cl)cc2)ccn1

>  <score_type>  (58) 
oracle

>  <origin>  (58) 
adg

>  <m_score__min__energy>  (58) 
-9.8599999999999994

>  <m_primary>  (58) 
energy

$$$$
59:0
     RDKit          3D

 44 46  0  0  0  0  0  0  0  0999 V2000
   65.0050   32.7090   49.7430 C   0  0  0  0  0  0  0  0  0  0  0  0
   63.9710   33.2260   49.0670 C   0  0  0  0  0  0  0  0  0  0  0  0
   64.0810   33.4550   47.6410 N   0  0  0  0  0  0  0  0  0  0  0  0
   62.8120   33.4340   46.9470 C   0  0  0  0  0  0  0  0  0  0  0  0
   61.6570   33.8340   47.5160 C   0  0  0  0  0  0  0  0  0  0  0  0
   60.4180   33.9130   46.7060 C   0  0  0  0  0  0  0  0  0  0  0  0
   60.1430   34.9910   46.1140 O   0  0  0  0  0  0  0  0  0  0  0  0
   59.5330   32.7830   46.5750 N   0  0  0  0  0  0  0  0  0  0  0  0
   58.0940   32.9780   46.4070 C   0  0  0  0  0  0  0  0  0  0  0  0
   57.6370   32.2600   45.1320 C   0  0  0  0  0  0  0  0  0  0  0  0
   58.0200   30.8150   45.0760 N   0  0  0  0  0  0  0  0  0  0  0  0
   56.8070   29.9470   44.9900 C   0  0  0  0  0  0  0  0  0  0  0  0
   57.0970   28.4460   44.8340 C   0  0  0  0  0  0  0  0  0  0  0  0
   57.4110   28.2450   43.3620 C   0  0  0  0  0  0  0  0  0  0  0  0
   56.6490   29.3420   42.6230 C   0  0  0  0  0  0  0  0  0  0  0  0
   56.0430   30.2480   43.6930 C   0  0  0  0  0  0  0  0  0  0  0  0
   58.9690   30.4060   46.1440 C   0  0  0  0  0  0  0  0  0  0  0  0
   60.0850   31.4390   46.3650 C   0  0  0  0  0  0  0  0  0  0  0  0
   61.6100   34.0750   48.9710 C   0  0  0  0  0  0  0  0  0  0  0  0
   60.5880   34.5750   49.5140 O   0  0  0  0  0  0  0  0  0  0  0  0
   62.7680   33.6990   49.7780 C   0  0  0  0  0  0  0  0  0  0  0  0
   62.7250   33.7720   51.0380 O   0  0  0  0  0  0  0  0  0  0  0  0
   64.9222   32.5348   50.8260 H   0  0  0  0  0  0  0  0  0  0  0  0
   65.9371   32.4585   49.2153 H   0  0  0  0  0  0  0  0  0  0  0  0
   64.6950   32.7270   47.2040 H   0  0  0  0  0  0  0  0  0  0  0  0
   64.5190   34.3930   47.4890 H   0  0  0  0  0  0  0  0  0  0  0  0
   62.7882   33.0752   45.9074 H   0  0  0  0  0  0  0  0  0  0  0  0
   57.5619   32.5619   47.2752 H   0  0  0  0  0  0  0  0  0  0  0  0
   57.8720   34.0524   46.3276 H   0  0  0  0  0  0  0  0  0  0  0  0
   56.5410   32.3298   45.0698 H   0  0  0  0  0  0  0  0  0  0  0  0
   58.1419   32.7556   44.2897 H   0  0  0  0  0  0  0  0  0  0  0  0
   56.2754   30.1581   45.9296 H   0  0  0  0  0  0  0  0  0  0  0  0
   57.9574   28.1541   45.4541 H   0  0  0  0  0  0  0  0  0  0  0  0
   56.2453   27.8297   45.1577 H   0  0  0  0  0  0  0  0  0  0  0  0
   58.4921   28.3423   43.1838 H   0  0  0  0  0  0  0  0  0  0  0  0
   57.1157   27.2430   43.0172 H   0  0  0  0  0  0  0  0  0  0  0  0
   57.3354   29.9163   41.9835 H   0  0  0  0  0  0  0  0  0  0  0  0
   55.8688   28.9160   41.9751 H   0  0  0  0  0  0  0  0  0  0  0  0
   56.1673   31.3046   43.4134 H   0  0  0  0  0  0  0  0  0  0  0  0
   54.9648   30.0647   43.8105 H   0  0  0  0  0  0  0  0  0  0  0  0
   58.4109   30.2827   47.0839 H   0  0  0  0  0  0  0  0  0  0  0  0
   59.4421   29.4643   45.8288 H   0  0  0  0  0  0  0  0  0  0  0  0
   60.6709   31.1499   47.2499 H   0  0  0  0  0  0  0  0  0  0  0  0
   60.7209   31.4608   45.4677 H   0  0  0  0  0  0  0  0  0  0  0  0
  1  2  2  0
  2  3  1  0
  3  4  1  0
  4  5  2  0
  5  6  1  0
  6  7  2  0
  6  8  1  0
  8  9  1  0
  9 10  1  0
 10 11  1  0
 11 12  1  0
 12 13  1  0
 13 14  1  0
 14 15  1  0
 15 16  1  0
 11 17  1  0
 17 18  1  0
  5 19  1  0
 19 20  2  0
 19 21  1  0
 21 22  2  0
 21  2  1  0
 18  8  1  0
 16 12  1  0
  1 23  1  0
  1 24  1  0
  3 25  1  0
  3 26  1  0
  4 27  1  0
  9 28  1  0
  9 29  1  0
 10 30  1  0
 10 31  1  0
 12 32  1  0
 13 33  1  0
 13 34  1  0
 14 35  1  0
 14 36  1  0
 15 37  1  0
 15 38  1  0
 16 39  1  0
 16 40  1  0
 17 41  1  0
 17 42  1  0
 18 43  1  0
 18 44  1  0
M  CHG  1   3   1
M  END
>  <UniqueID>  (59) 
55

>  <SMILES>  (59) 
C=C1[NH2+]C=C(C(=O)N2CCN(C3CCCC3)CC2)C(=O)C1=O

>  <Energy>  (59) 
69.16510634278154

>  <Genealogy>  (59) 
C=C1[NH2+]C=C(C(=O)N2CCN(C3CCCC3)CC2)C(=O)C1=O (protonated)
C=C1[NH2+]C=C(C(=O)N2CCN(C3CCCC3)CC2)C(=O)C1=O (3D coordinates assigned)
C=C1[NH2+]C=C(C(=O)N2CCN(C3CCCC3)CC2)C(=O)C1=O (nonaromatic ring conformer: 69.16510634278154 kcal/mol)

>  <smiles>  (59) 
C=C1NC=C(C(=O)N2CCN(C3CCCC3)CC2)C(=O)C1=O

>  <score_type>  (59) 
oracle

>  <origin>  (59) 
adg

>  <m_score__min__energy>  (59) 
-6.79

>  <m_primary>  (59) 
energy

$$$$
60:0
     RDKit          3D

 49 51  0  0  0  0  0  0  0  0999 V2000
   61.0480   34.5490   48.6720 C   0  0  0  0  0  0  0  0  0  0  0  0
   60.7570   34.3690   47.2390 N   0  0  0  0  0  0  0  0  0  0  0  0
   59.3630   34.7950   46.9500 C   0  0  0  0  0  0  0  0  0  0  0  0
   58.8350   34.1990   45.6400 C   0  0  0  0  0  0  0  0  0  0  0  0
   58.9010   32.7340   45.6900 N   0  0  0  0  0  0  0  0  0  0  0  0
   58.1260   31.9590   44.7530 C   0  0  0  0  0  0  0  0  0  0  0  0
   57.8450   32.4570   43.6290 O   0  0  0  0  0  0  0  0  0  0  0  0
   57.6280   30.6050   45.0900 C   0  0  0  0  0  0  0  0  0  0  0  0
   58.4020   29.7240   45.8580 C   0  0  0  0  0  0  0  0  0  0  0  0
   57.9150   28.4530   46.1910 C   0  0  0  0  0  0  0  0  0  0  0  0
   58.6310   27.7490   47.0300 N   0  0  0  0  0  0  0  0  0  0  0  0
   59.2780   28.1580   48.2430 C   0  0  0  0  0  0  0  0  0  0  0  0
   58.9220   29.3560   48.8830 C   0  0  0  0  0  0  0  0  0  0  0  0
   59.6020   29.7680   50.0320 C   0  0  0  0  0  0  0  0  0  0  0  0
   60.6630   29.0090   50.5430 C   0  0  0  0  0  0  0  0  0  0  0  0
   61.3060   29.4680   51.7030 O   0  0  0  0  0  0  0  0  0  0  0  0
   62.7110   29.6650   51.8430 C   0  0  0  0  0  0  0  0  0  0  0  0
   63.3590   28.4440   51.9130 F   0  0  0  0  0  0  0  0  0  0  0  0
   63.1790   30.3540   50.7410 F   0  0  0  0  0  0  0  0  0  0  0  0
   62.9780   30.4080   52.9790 F   0  0  0  0  0  0  0  0  0  0  0  0
   61.0450   27.8300   49.8750 C   0  0  0  0  0  0  0  0  0  0  0  0
   60.3630   27.4180   48.7240 C   0  0  0  0  0  0  0  0  0  0  0  0
   56.6740   28.0280   45.6280 C   0  0  0  0  0  0  0  0  0  0  0  0
   56.2030   26.6280   45.6250 C   0  0  0  0  0  0  0  0  0  0  0  0
   54.8560   26.3260   45.9860 N   0  0  0  0  0  0  0  0  0  0  0  0
   56.9690   25.7000   45.2490 O   0  0  0  0  0  0  0  0  0  0  0  0
   55.9300   28.9540   44.8820 C   0  0  0  0  0  0  0  0  0  0  0  0
   56.4170   30.1950   44.6330 N   0  0  0  0  0  0  0  0  0  0  0  0
   59.8380   32.0960   46.6240 C   0  0  0  0  0  0  0  0  0  0  0  0
   61.0800   32.9800   46.8010 C   0  0  0  0  0  0  0  0  0  0  0  0
   60.2625   34.0632   49.2695 H   0  0  0  0  0  0  0  0  0  0  0  0
   62.0218   34.0953   48.9082 H   0  0  0  0  0  0  0  0  0  0  0  0
   61.0769   35.6230   48.9082 H   0  0  0  0  0  0  0  0  0  0  0  0
   61.3950   35.0190   46.7190 H   0  0  0  0  0  0  0  0  0  0  0  0
   58.7140   34.4669   47.7754 H   0  0  0  0  0  0  0  0  0  0  0  0
   59.3588   35.8903   46.8485 H   0  0  0  0  0  0  0  0  0  0  0  0
   57.7906   34.5114   45.4931 H   0  0  0  0  0  0  0  0  0  0  0  0
   59.4542   34.5591   44.8052 H   0  0  0  0  0  0  0  0  0  0  0  0
   59.4000   30.0330   46.2021 H   0  0  0  0  0  0  0  0  0  0  0  0
   58.1053   29.9720   48.4786 H   0  0  0  0  0  0  0  0  0  0  0  0
   59.3017   30.6964   50.5398 H   0  0  0  0  0  0  0  0  0  0  0  0
   61.8830   27.2299   50.2592 H   0  0  0  0  0  0  0  0  0  0  0  0
   60.6820   26.5077   48.1952 H   0  0  0  0  0  0  0  0  0  0  0  0
   54.0980   26.3240   45.2690 H   0  0  0  0  0  0  0  0  0  0  0  0
   54.9403   28.6704   44.4946 H   0  0  0  0  0  0  0  0  0  0  0  0
   59.3458   31.9589   47.5981 H   0  0  0  0  0  0  0  0  0  0  0  0
   60.1427   31.1188   46.2213 H   0  0  0  0  0  0  0  0  0  0  0  0
   61.7326   32.5183   47.5566 H   0  0  0  0  0  0  0  0  0  0  0  0
   61.5708   33.0533   45.8193 H   0  0  0  0  0  0  0  0  0  0  0  0
  1  2  1  0
  2  3  1  0
  3  4  1  0
  4  5  1  0
  5  6  1  0
  6  7  2  0
  6  8  1  0
  8  9  2  0
  9 10  1  0
 10 11  2  3
 11 12  1  0
 12 13  2  0
 13 14  1  0
 14 15  2  0
 15 16  1  0
 16 17  1  0
 17 18  1  0
 17 19  1  0
 17 20  1  0
 15 21  1  0
 21 22  2  0
 10 23  1  0
 23 24  1  0
 24 25  1  0
 24 26  2  0
 23 27  2  0
 27 28  1  0
  5 29  1  0
 29 30  1  0
 30  2  1  0
 28  8  1  0
 22 12  1  0
  1 31  1  0
  1 32  1  0
  1 33  1  0
  2 34  1  0
  3 35  1  0
  3 36  1  0
  4 37  1  0
  4 38  1  0
  9 39  1  0
 13 40  1  0
 14 41  1  0
 21 42  1  0
 22 43  1  0
 25 44  1  0
 27 45  1  0
 29 46  1  0
 29 47  1  0
 30 48  1  0
 30 49  1  0
M  CHG  3   2   1  25  -1  28  -1
M  END
>  <UniqueID>  (60) 
56

>  <SMILES>  (60) 
C[NH+]1CCN(C(=O)c2cc(=Nc3ccc(OC(F)(F)F)cc3)c(C([NH-])=O)c[n-]2)CC1

>  <Energy>  (60) 
81.07889262892674

>  <Genealogy>  (60) 
C[NH+]1CCN(C(=O)c2cc(=Nc3ccc(OC(F)(F)F)cc3)c(C([NH-])=O)c[n-]2)CC1 (protonated)
C[NH+]1CCN(C(=O)c2cc(=Nc3ccc(OC(F)(F)F)cc3)c(C([NH-])=O)c[n-]2)CC1 (3D coordinates assigned)
C[NH+]1CCN(C(=O)c2cc(=Nc3ccc(OC(F)(F)F)cc3)c(C([NH-])=O)c[n-]2)CC1 (nonaromatic ring conformer: 81.07889262892674 kcal/mol)

>  <smiles>  (60) 
CN1CCN(C(=O)c2cc(=Nc3ccc(OC(F)(F)F)cc3)c(C(N)=O)c[nH]2)CC1

>  <score_type>  (60) 
oracle

>  <origin>  (60) 
adg

>  <m_score__min__energy>  (60) 
-10.119999999999999

>  <m_primary>  (60) 
energy

$$$$
61:0
     RDKit          3D

 52 54  0  0  0  0  0  0  0  0999 V2000
   51.4620   32.4840   51.2450 N   0  0  0  0  0  0  0  0  0  0  0  0
   51.6620   30.7700   51.3260 S   0  0  0  0  0  0  0  0  0  0  0  0
   51.4220   30.1670   49.9710 O   0  0  0  0  0  0  0  0  0  0  0  0
   50.6580   30.2030   52.2920 O   0  0  0  0  0  0  0  0  0  0  0  0
   53.2970   30.3900   51.8570 C   0  0  0  0  0  0  0  0  0  0  0  0
   53.5170   29.2880   52.6940 C   0  0  0  0  0  0  0  0  0  0  0  0
   54.8110   28.9800   53.1280 C   0  0  0  0  0  0  0  0  0  0  0  0
   55.8990   29.7650   52.7200 C   0  0  0  0  0  0  0  0  0  0  0  0
   57.2890   29.4660   53.2100 C   0  0  0  0  0  0  0  0  0  0  0  0
   58.2570   29.7210   52.1450 N   0  0  0  0  0  0  0  0  0  0  0  0
   58.7180   31.0460   51.8300 C   0  0  0  0  0  0  0  0  0  0  0  0
   58.3380   32.0260   52.5270 O   0  0  0  0  0  0  0  0  0  0  0  0
   59.5670   31.2760   50.6900 N   0  0  0  0  0  0  0  0  0  0  0  0
   60.5790   30.2980   50.2730 C   0  0  0  0  0  0  0  0  0  0  0  0
   60.3550   29.9310   48.8030 C   0  0  0  0  0  0  0  0  0  0  0  0
   60.0540   31.1200   47.9850 N   0  0  0  0  0  0  0  0  0  0  0  0
   59.6720   30.9230   46.6030 C   0  0  0  0  0  0  0  0  0  0  0  0
   59.9080   29.8140   46.0480 O   0  0  0  0  0  0  0  0  0  0  0  0
   58.9710   31.9830   45.7940 C   0  0  0  0  0  0  0  0  0  0  0  0
   57.9710   31.3830   44.8380 C   0  0  0  0  0  0  0  0  0  0  0  0
   58.0300   31.6880   43.4670 C   0  0  0  0  0  0  0  0  0  0  0  0
   57.1320   31.1000   42.5740 C   0  0  0  0  0  0  0  0  0  0  0  0
   56.1730   30.1970   43.0390 C   0  0  0  0  0  0  0  0  0  0  0  0
   56.1130   29.8770   44.3970 C   0  0  0  0  0  0  0  0  0  0  0  0
   55.1650   28.9720   44.8570 O   0  0  0  0  0  0  0  0  0  0  0  0
   57.0120   30.4630   45.2940 C   0  0  0  0  0  0  0  0  0  0  0  0
   60.1800   32.4540   48.5940 C   0  0  0  0  0  0  0  0  0  0  0  0
   59.3840   32.5040   49.9050 C   0  0  0  0  0  0  0  0  0  0  0  0
   55.6770   30.8690   51.8810 C   0  0  0  0  0  0  0  0  0  0  0  0
   54.3830   31.1760   51.4490 C   0  0  0  0  0  0  0  0  0  0  0  0
   51.0310   32.7000   50.3150 H   0  0  0  0  0  0  0  0  0  0  0  0
   52.6693   28.6628   53.0110 H   0  0  0  0  0  0  0  0  0  0  0  0
   54.9755   28.1186   53.7920 H   0  0  0  0  0  0  0  0  0  0  0  0
   57.5179   30.1090   54.0727 H   0  0  0  0  0  0  0  0  0  0  0  0
   57.3485   28.4089   53.5083 H   0  0  0  0  0  0  0  0  0  0  0  0
   58.4540   28.9390   51.4830 H   0  0  0  0  0  0  0  0  0  0  0  0
   61.5820   30.7332   50.3941 H   0  0  0  0  0  0  0  0  0  0  0  0
   60.4954   29.3943   50.8946 H   0  0  0  0  0  0  0  0  0  0  0  0
   61.2643   29.4505   48.4128 H   0  0  0  0  0  0  0  0  0  0  0  0
   59.4941   29.2486   48.7468 H   0  0  0  0  0  0  0  0  0  0  0  0
   58.4453   32.6648   46.4786 H   0  0  0  0  0  0  0  0  0  0  0  0
   59.7278   32.5224   45.2055 H   0  0  0  0  0  0  0  0  0  0  0  0
   58.7877   32.3937   43.0957 H   0  0  0  0  0  0  0  0  0  0  0  0
   57.1798   31.3481   41.5034 H   0  0  0  0  0  0  0  0  0  0  0  0
   55.4641   29.7374   42.3345 H   0  0  0  0  0  0  0  0  0  0  0  0
   56.9680   30.2023   46.3618 H   0  0  0  0  0  0  0  0  0  0  0  0
   61.2399   32.6618   48.8022 H   0  0  0  0  0  0  0  0  0  0  0  0
   59.7838   33.2093   47.8994 H   0  0  0  0  0  0  0  0  0  0  0  0
   59.7273   33.3634   50.4996 H   0  0  0  0  0  0  0  0  0  0  0  0
   58.3164   32.6015   49.6584 H   0  0  0  0  0  0  0  0  0  0  0  0
   56.5240   31.4945   51.5625 H   0  0  0  0  0  0  0  0  0  0  0  0
   54.2169   32.0380   50.7862 H   0  0  0  0  0  0  0  0  0  0  0  0
  1  2  1  0
  2  3  2  0
  2  4  2  0
  2  5  1  0
  5  6  2  0
  6  7  1  0
  7  8  2  0
  8  9  1  0
  9 10  1  0
 10 11  1  0
 11 12  2  0
 11 13  1  0
 13 14  1  0
 14 15  1  0
 15 16  1  0
 16 17  1  0
 17 18  2  0
 17 19  1  0
 19 20  1  0
 20 21  2  0
 21 22  1  0
 22 23  2  0
 23 24  1  0
 24 25  1  0
 24 26  2  0
 16 27  1  0
 27 28  1  0
  8 29  1  0
 29 30  2  0
 30  5  1  0
 28 13  1  0
 26 20  1  0
  1 31  1  0
  6 32  1  0
  7 33  1  0
  9 34  1  0
  9 35  1  0
 10 36  1  0
 14 37  1  0
 14 38  1  0
 15 39  1  0
 15 40  1  0
 19 41  1  0
 19 42  1  0
 21 43  1  0
 22 44  1  0
 23 45  1  0
 26 46  1  0
 27 47  1  0
 27 48  1  0
 28 49  1  0
 28 50  1  0
 29 51  1  0
 30 52  1  0
M  CHG  2   1  -1  25  -1
M  END
>  <UniqueID>  (61) 
57

>  <SMILES>  (61) 
[NH-]S(=O)(=O)c1ccc(CNC(=O)N2CCN(C(=O)Cc3cccc([O-])c3)CC2)cc1

>  <Energy>  (61) 
54.188411978701545

>  <Genealogy>  (61) 
[NH-]S(=O)(=O)c1ccc(CNC(=O)N2CCN(C(=O)Cc3cccc([O-])c3)CC2)cc1 (protonated)
[NH-]S(=O)(=O)c1ccc(CNC(=O)N2CCN(C(=O)Cc3cccc([O-])c3)CC2)cc1 (3D coordinates assigned)
[NH-]S(=O)(=O)c1ccc(CNC(=O)N2CCN(C(=O)Cc3cccc([O-])c3)CC2)cc1 (nonaromatic ring conformer: 54.188411978701545 kcal/mol)

>  <smiles>  (61) 
NS(=O)(=O)c1ccc(CNC(=O)N2CCN(C(=O)Cc3cccc(O)c3)CC2)cc1

>  <score_type>  (61) 
oracle

>  <origin>  (61) 
adg

>  <m_score__min__energy>  (61) 
-15

>  <m_primary>  (61) 
energy

$$$$
62:0
     RDKit          3D

 25 27  0  0  0  0  0  0  0  0999 V2000
   53.8880   26.7180   46.3770 H   0  0  0  0  0  0  0  0  0  0  0  0
   54.6900   26.1670   45.9950 N   0  0  0  0  0  0  0  0  0  0  0  0
   55.9000   26.6210   46.0510 C   0  0  0  0  0  0  0  0  0  0  0  0
   56.8660   26.0650   46.8040 N   0  0  0  0  0  0  0  0  0  0  0  0
   57.9500   26.7930   46.6000 N   0  0  0  0  0  0  0  0  0  0  0  0
   57.6040   27.7700   45.7410 C   0  0  0  0  0  0  0  0  0  0  0  0
   58.5680   28.7770   45.2050 C   0  0  0  0  0  0  0  0  0  0  0  0
   59.4160   28.8751   45.8987 H   0  0  0  0  0  0  0  0  0  0  0  0
   58.9288   28.4441   44.2206 H   0  0  0  0  0  0  0  0  0  0  0  0
   57.8900   30.1060   45.0580 C   0  0  0  0  0  0  0  0  0  0  0  0
   56.6890   30.3710   44.4130 C   0  0  0  0  0  0  0  0  0  0  0  0
   55.9390   29.4240   43.7230 O   0  0  0  0  0  0  0  0  0  0  0  0
   56.0580   28.4350   43.9090 H   0  0  0  0  0  0  0  0  0  0  0  0
   56.3140   31.6670   44.5350 N   0  0  0  0  0  0  0  0  0  0  0  0
   57.2900   32.2210   45.2800 C   0  0  0  0  0  0  0  0  0  0  0  0
   57.3620   33.5470   45.7030 C   0  0  0  0  0  0  0  0  0  0  0  0
   56.5853   34.2736   45.4222 H   0  0  0  0  0  0  0  0  0  0  0  0
   58.4560   33.9290   46.4990 C   0  0  0  0  0  0  0  0  0  0  0  0
   58.5412   34.9691   46.8466 H   0  0  0  0  0  0  0  0  0  0  0  0
   59.4470   32.9870   46.8560 C   0  0  0  0  0  0  0  0  0  0  0  0
   60.9220   33.5220   47.9440 Br  0  0  0  0  0  0  0  0  0  0  0  0
   59.3510   31.6540   46.4160 C   0  0  0  0  0  0  0  0  0  0  0  0
   60.1138   30.9097   46.6884 H   0  0  0  0  0  0  0  0  0  0  0  0
   58.2570   31.3070   45.6230 C   0  0  0  0  0  0  0  0  0  0  0  0
   56.3140   27.6940   45.3560 N   0  0  0  0  0  0  0  0  0  0  0  0
  1  2  1  0
  2  3  2  0
  3  4  1  0
  4  5  1  0
  5  6  2  0
  6  7  1  0
  7  8  1  0
  7  9  1  0
  7 10  1  0
 10 11  2  0
 11 12  1  0
 12 13  1  0
 11 14  1  0
 14 15  1  0
 15 16  2  0
 16 17  1  0
 16 18  1  0
 18 19  1  0
 18 20  2  0
 20 21  1  0
 20 22  1  0
 22 23  1  0
 22 24  2  0
  6 25  1  0
 25  3  1  0
 24 10  1  0
 24 15  1  0
M  CHG  3   4  -1  14  -1  25  -1
M  END
>  <UniqueID>  (62) 
58

>  <SMILES>  (62) 
[H]/N=c1\[n-]nc(Cc2c(O)[n-]c3ccc(Br)cc23)[n-]1

>  <Energy>  (62) 
88.82877868971909

>  <Genealogy>  (62) 
N=c1[n-]nc(Cc2c(O)[n-]c3ccc(Br)cc23)[n-]1 (protonated)
[H]/N=c1\[n-]nc(Cc2c(O)[n-]c3ccc(Br)cc23)[n-]1 (cis-trans isomerization)
[H]/N=c1\[n-]nc(Cc2c(O)[n-]c3ccc(Br)cc23)[n-]1 (3D coordinates assigned)
[H]/N=c1\[n-]nc(Cc2c(O)[n-]c3ccc(Br)cc23)[n-]1 (optimized conformer: 88.82877868971909 kcal/mol)

>  <smiles>  (62) 
N=c1[nH]nc(Cc2c(O)[nH]c3ccc(Br)cc23)[nH]1

>  <score_type>  (62) 
oracle

>  <origin>  (62) 
adg

>  <m_score__min__energy>  (62) 
-12.890000000000001

>  <m_primary>  (62) 
energy

$$$$
63:0
     RDKit          3D

 53 54  0  0  0  0  0  0  0  0999 V2000
   59.2280   29.5920   44.7630 O   0  0  0  0  0  0  0  0  0  0  0  0
   58.2430   28.9430   45.2120 C   0  0  0  0  0  0  0  0  0  0  0  0
   57.1550   28.6010   44.3420 N   0  0  0  0  0  0  0  0  0  0  0  0
   57.0220   29.1730   43.0010 C   0  0  0  0  0  0  0  0  0  0  0  0
   56.5940   30.6470   43.0590 C   0  0  0  0  0  0  0  0  0  0  0  0
   57.7730   31.6140   43.2510 C   0  0  0  0  0  0  0  0  0  0  0  0
   57.7590   32.2400   44.6230 C   0  0  0  0  0  0  0  0  0  0  0  0
   56.6650   32.3220   45.2440 O   0  0  0  0  0  0  0  0  0  0  0  0
   59.0010   32.7120   45.2670 C   0  0  0  0  0  0  0  0  0  0  0  0
   59.5390   33.7850   44.8760 O   0  0  0  0  0  0  0  0  0  0  0  0
   59.6160   31.9380   46.3090 N   0  0  0  0  0  0  0  0  0  0  0  0
   60.7360   32.4090   47.0740 C   0  0  0  0  0  0  0  0  0  0  0  0
   61.9660   31.7320   46.9950 C   0  0  0  0  0  0  0  0  0  0  0  0
   63.0840   32.2080   47.6780 C   0  0  0  0  0  0  0  0  0  0  0  0
   62.9960   33.3730   48.4380 C   0  0  0  0  0  0  0  0  0  0  0  0
   61.7850   34.0630   48.5270 C   0  0  0  0  0  0  0  0  0  0  0  0
   60.6350   33.5840   47.8640 C   0  0  0  0  0  0  0  0  0  0  0  0
   59.3270   34.3410   47.9800 C   0  0  0  0  0  0  0  0  0  0  0  0
   58.2410   33.4860   47.9000 F   0  0  0  0  0  0  0  0  0  0  0  0
   59.2140   35.2630   46.9530 F   0  0  0  0  0  0  0  0  0  0  0  0
   59.2820   35.0010   49.1950 F   0  0  0  0  0  0  0  0  0  0  0  0
   58.1950   28.5560   46.5920 N   0  0  0  0  0  0  0  0  0  0  0  0
   59.2200   28.8630   47.5510 C   0  0  0  0  0  0  0  0  0  0  0  0
   60.3300   29.3280   47.1740 O   0  0  0  0  0  0  0  0  0  0  0  0
   58.9750   28.6430   48.9460 N   0  0  0  0  0  0  0  0  0  0  0  0
   59.9660   28.9190   49.9840 C   0  0  0  0  0  0  0  0  0  0  0  0
   59.8550   30.3500   50.4290 C   0  0  0  0  0  0  0  0  0  0  0  0
   60.9780   31.0310   50.9290 C   0  0  0  0  0  0  0  0  0  0  0  0
   60.8640   32.3560   51.3580 C   0  0  0  0  0  0  0  0  0  0  0  0
   59.6290   33.0090   51.2980 C   0  0  0  0  0  0  0  0  0  0  0  0
   58.5050   32.3340   50.8200 C   0  0  0  0  0  0  0  0  0  0  0  0
   58.6140   31.0070   50.3900 C   0  0  0  0  0  0  0  0  0  0  0  0
   56.3460   28.0720   44.7440 H   0  0  0  0  0  0  0  0  0  0  0  0
   57.9904   29.1018   42.4841 H   0  0  0  0  0  0  0  0  0  0  0  0
   56.2477   28.6093   42.4600 H   0  0  0  0  0  0  0  0  0  0  0  0
   56.0843   30.9001   42.1176 H   0  0  0  0  0  0  0  0  0  0  0  0
   55.9332   30.7609   43.9310 H   0  0  0  0  0  0  0  0  0  0  0  0
   58.7142   31.0598   43.1210 H   0  0  0  0  0  0  0  0  0  0  0  0
   57.6843   32.4175   42.5050 H   0  0  0  0  0  0  0  0  0  0  0  0
   59.2790   30.9650   46.4740 H   0  0  0  0  0  0  0  0  0  0  0  0
   62.0467   30.8180   46.3883 H   0  0  0  0  0  0  0  0  0  0  0  0
   64.0376   31.6631   47.6171 H   0  0  0  0  0  0  0  0  0  0  0  0
   63.8825   33.7499   48.9690 H   0  0  0  0  0  0  0  0  0  0  0  0
   61.7271   34.9882   49.1192 H   0  0  0  0  0  0  0  0  0  0  0  0
   57.3400   28.0610   46.9340 H   0  0  0  0  0  0  0  0  0  0  0  0
   58.0590   28.2270   49.2350 H   0  0  0  0  0  0  0  0  0  0  0  0
   59.7891   28.2551   50.8430 H   0  0  0  0  0  0  0  0  0  0  0  0
   60.9735   28.7426   49.5792 H   0  0  0  0  0  0  0  0  0  0  0  0
   61.9502   30.5192   50.9829 H   0  0  0  0  0  0  0  0  0  0  0  0
   61.7473   32.8862   51.7436 H   0  0  0  0  0  0  0  0  0  0  0  0
   59.5434   34.0550   51.6276 H   0  0  0  0  0  0  0  0  0  0  0  0
   57.5321   32.8458   50.7812 H   0  0  0  0  0  0  0  0  0  0  0  0
   57.7245   30.4762   50.0200 H   0  0  0  0  0  0  0  0  0  0  0  0
  1  2  2  0
  2  3  1  0
  3  4  1  0
  4  5  1  0
  5  6  1  0
  6  7  1  0
  7  8  2  0
  7  9  1  0
  9 10  2  0
  9 11  1  0
 11 12  1  0
 12 13  2  0
 13 14  1  0
 14 15  2  0
 15 16  1  0
 16 17  2  0
 17 18  1  0
 18 19  1  0
 18 20  1  0
 18 21  1  0
  2 22  1  0
 22 23  1  0
 23 24  2  0
 23 25  1  0
 25 26  1  0
 26 27  1  0
 27 28  2  0
 28 29  1  0
 29 30  2  0
 30 31  1  0
 31 32  2  0
 17 12  1  0
 32 27  1  0
  3 33  1  0
  4 34  1  0
  4 35  1  0
  5 36  1  0
  5 37  1  0
  6 38  1  0
  6 39  1  0
 11 40  1  0
 13 41  1  0
 14 42  1  0
 15 43  1  0
 16 44  1  0
 22 45  1  0
 25 46  1  0
 26 47  1  0
 26 48  1  0
 28 49  1  0
 29 50  1  0
 30 51  1  0
 31 52  1  0
 32 53  1  0
M  END
>  <UniqueID>  (63) 
59

>  <SMILES>  (63) 
O=C(NCCCC(=O)C(=O)Nc1ccccc1C(F)(F)F)NC(=O)NCc1ccccc1

>  <Energy>  (63) 
49.94703998014456

>  <Genealogy>  (63) 
O=C(NCCCC(=O)C(=O)Nc1ccccc1C(F)(F)F)NC(=O)NCc1ccccc1 (3D coordinates assigned)
O=C(NCCCC(=O)C(=O)Nc1ccccc1C(F)(F)F)NC(=O)NCc1ccccc1 (optimized conformer: 49.94703998014456 kcal/mol)

>  <smiles>  (63) 
O=C(NCCCC(=O)C(=O)Nc1ccccc1C(F)(F)F)NC(=O)NCc1ccccc1

>  <score_type>  (63) 
oracle

>  <origin>  (63) 
adg

>  <m_score__min__energy>  (63) 
-8.3399999999999999

>  <m_primary>  (63) 
energy

$$$$
64:0
     RDKit          3D

 61 64  0  0  0  0  0  0  0  0999 V2000
   55.1590   29.0610   44.5480 N   0  0  0  0  0  0  0  0  0  0  0  0
   56.2170   29.8820   44.0580 C   0  0  0  0  0  0  0  0  0  0  0  0
   56.0860   30.4600   42.9470 O   0  0  0  0  0  0  0  0  0  0  0  0
   57.4330   30.1100   44.8610 C   0  0  0  0  0  0  0  0  0  0  0  0
   57.7290   31.3050   45.4090 N   0  0  0  0  0  0  0  0  0  0  0  0
   58.8270   31.1340   46.1720 C   0  0  0  0  0  0  0  0  0  0  0  0
   59.4810   32.2250   46.9160 C   0  0  0  0  0  0  0  0  0  0  0  0
   58.7730   33.1550   47.3880 O   0  0  0  0  0  0  0  0  0  0  0  0
   60.9050   32.2480   47.1170 N   0  0  0  0  0  0  0  0  0  0  0  0
   61.6430   33.5040   46.9500 C   0  0  0  0  0  0  0  0  0  0  0  0
   62.3880   33.8370   48.2450 C   0  0  0  0  0  0  0  0  0  0  0  0
   63.1680   32.6850   48.7290 N   0  0  0  0  0  0  0  0  0  0  0  0
   64.2030   32.8730   49.7180 C   0  0  0  0  0  0  0  0  0  0  0  0
   65.1790   32.0730   49.7580 O   0  0  0  0  0  0  0  0  0  0  0  0
   64.1780   34.0290   50.6870 C   0  0  0  0  0  0  0  0  0  0  0  0
   63.0710   33.8530   51.6930 C   0  0  0  0  0  0  0  0  0  0  0  0
   63.3520   33.8600   53.0690 C   0  0  0  0  0  0  0  0  0  0  0  0
   62.3250   33.6610   53.9980 C   0  0  0  0  0  0  0  0  0  0  0  0
   61.0160   33.4480   53.5600 C   0  0  0  0  0  0  0  0  0  0  0  0
   60.7280   33.4290   52.1910 C   0  0  0  0  0  0  0  0  0  0  0  0
   59.0850   33.1530   51.6420 Cl  0  0  0  0  0  0  0  0  0  0  0  0
   61.7540   33.6280   51.2590 C   0  0  0  0  0  0  0  0  0  0  0  0
   63.0360   31.3780   48.0640 C   0  0  0  0  0  0  0  0  0  0  0  0
   61.5660   31.0850   47.7300 C   0  0  0  0  0  0  0  0  0  0  0  0
   59.2600   29.8240   46.0990 C   0  0  0  0  0  0  0  0  0  0  0  0
   58.3800   29.1690   45.2570 C   0  0  0  0  0  0  0  0  0  0  0  0
   58.5200   27.7640   44.8360 C   0  0  0  0  0  0  0  0  0  0  0  0
   58.7680   27.5080   43.6260 O   0  0  0  0  0  0  0  0  0  0  0  0
   58.3180   26.6940   45.7700 N   0  0  0  0  0  0  0  0  0  0  0  0
   58.5010   25.2910   45.4080 C   0  0  0  0  0  0  0  0  0  0  0  0
   57.1930   24.6960   44.9660 C   0  0  0  0  0  0  0  0  0  0  0  0
   57.1400   23.8880   43.8200 C   0  0  0  0  0  0  0  0  0  0  0  0
   55.9300   23.3130   43.4190 C   0  0  0  0  0  0  0  0  0  0  0  0
   54.7670   23.5360   44.1640 C   0  0  0  0  0  0  0  0  0  0  0  0
   54.8140   24.3330   45.3100 C   0  0  0  0  0  0  0  0  0  0  0  0
   56.0220   24.9110   45.7150 C   0  0  0  0  0  0  0  0  0  0  0  0
   54.6120   29.3370   45.3930 H   0  0  0  0  0  0  0  0  0  0  0  0
   57.1870   32.1910   45.2940 H   0  0  0  0  0  0  0  0  0  0  0  0
   62.3665   33.3972   46.1284 H   0  0  0  0  0  0  0  0  0  0  0  0
   60.9371   34.3144   46.7155 H   0  0  0  0  0  0  0  0  0  0  0  0
   63.0713   34.6786   48.0583 H   0  0  0  0  0  0  0  0  0  0  0  0
   61.6457   34.0992   49.0133 H   0  0  0  0  0  0  0  0  0  0  0  0
   65.1417   34.0792   51.2149 H   0  0  0  0  0  0  0  0  0  0  0  0
   64.0029   34.9587   50.1258 H   0  0  0  0  0  0  0  0  0  0  0  0
   64.3827   34.0224   53.4174 H   0  0  0  0  0  0  0  0  0  0  0  0
   62.5488   33.6723   55.0749 H   0  0  0  0  0  0  0  0  0  0  0  0
   60.2100   33.2949   54.2927 H   0  0  0  0  0  0  0  0  0  0  0  0
   61.5278   33.6081   50.1827 H   0  0  0  0  0  0  0  0  0  0  0  0
   63.6231   31.3852   47.1338 H   0  0  0  0  0  0  0  0  0  0  0  0
   63.4069   30.5964   48.7434 H   0  0  0  0  0  0  0  0  0  0  0  0
   61.5216   30.2389   47.0284 H   0  0  0  0  0  0  0  0  0  0  0  0
   61.0421   30.8475   48.6676 H   0  0  0  0  0  0  0  0  0  0  0  0
   60.1317   29.3885   46.6093 H   0  0  0  0  0  0  0  0  0  0  0  0
   57.9500   26.9110   46.7250 H   0  0  0  0  0  0  0  0  0  0  0  0
   59.2292   25.2193   44.5867 H   0  0  0  0  0  0  0  0  0  0  0  0
   58.8696   24.7384   46.2848 H   0  0  0  0  0  0  0  0  0  0  0  0
   58.0536   23.7062   43.2349 H   0  0  0  0  0  0  0  0  0  0  0  0
   55.8926   22.6847   42.5169 H   0  0  0  0  0  0  0  0  0  0  0  0
   53.8157   23.0837   43.8472 H   0  0  0  0  0  0  0  0  0  0  0  0
   53.8991   24.5067   45.8955 H   0  0  0  0  0  0  0  0  0  0  0  0
   56.0561   25.5345   46.6206 H   0  0  0  0  0  0  0  0  0  0  0  0
  1  2  1  0
  2  3  2  0
  2  4  1  0
  4  5  1  0
  5  6  1  0
  6  7  1  0
  7  8  2  0
  7  9  1  0
  9 10  1  0
 10 11  1  0
 11 12  1  0
 12 13  1  0
 13 14  2  0
 13 15  1  0
 15 16  1  0
 16 17  2  0
 17 18  1  0
 18 19  2  0
 19 20  1  0
 20 21  1  0
 20 22  2  0
 12 23  1  0
 23 24  1  0
  6 25  2  0
 25 26  1  0
 26 27  1  0
 27 28  2  0
 27 29  1  0
 29 30  1  0
 30 31  1  0
 31 32  2  0
 32 33  1  0
 33 34  2  0
 34 35  1  0
 35 36  2  0
 26  4  2  0
 36 31  1  0
 24  9  1  0
 22 16  1  0
  1 37  1  0
  5 38  1  0
 10 39  1  0
 10 40  1  0
 11 41  1  0
 11 42  1  0
 15 43  1  0
 15 44  1  0
 17 45  1  0
 18 46  1  0
 19 47  1  0
 22 48  1  0
 23 49  1  0
 23 50  1  0
 24 51  1  0
 24 52  1  0
 25 53  1  0
 29 54  1  0
 30 55  1  0
 30 56  1  0
 32 57  1  0
 33 58  1  0
 34 59  1  0
 35 60  1  0
 36 61  1  0
M  CHG  1   1  -1
M  END
>  <UniqueID>  (64) 
60

>  <SMILES>  (64) 
[NH-]C(=O)c1[nH]c(C(=O)N2CCN(C(=O)Cc3cccc(Cl)c3)CC2)cc1C(=O)NCc1ccccc1

>  <Energy>  (64) 
96.05279466101545

>  <Genealogy>  (64) 
[NH-]C(=O)c1[nH]c(C(=O)N2CCN(C(=O)Cc3cccc(Cl)c3)CC2)cc1C(=O)NCc1ccccc1 (protonated)
[NH-]C(=O)c1[nH]c(C(=O)N2CCN(C(=O)Cc3cccc(Cl)c3)CC2)cc1C(=O)NCc1ccccc1 (3D coordinates assigned)
[NH-]C(=O)c1[nH]c(C(=O)N2CCN(C(=O)Cc3cccc(Cl)c3)CC2)cc1C(=O)NCc1ccccc1 (nonaromatic ring conformer: 96.05279466101545 kcal/mol)

>  <smiles>  (64) 
NC(=O)c1[nH]c(C(=O)N2CCN(C(=O)Cc3cccc(Cl)c3)CC2)cc1C(=O)NCc1ccccc1

>  <score_type>  (64) 
oracle

>  <origin>  (64) 
adg

>  <m_score__min__energy>  (64) 
-12.210000000000001

>  <m_primary>  (64) 
energy

$$$$
65:0
     RDKit          3D

 55 57  0  0  0  0  0  0  0  0999 V2000
   59.5380   34.6880   47.2770 C   0  0  0  0  0  0  0  0  0  0  0  0
   60.5100   33.5580   47.6340 C   0  0  2  0  0  0  0  0  0  0  0  0
   59.9700   32.7190   48.8180 C   0  0  0  0  0  0  0  0  0  0  0  0
   61.0860   31.9520   49.5900 C   0  0  1  0  0  0  0  0  0  0  0  0
   60.6000   30.7200   50.2840 N   0  0  0  0  0  0  0  0  0  0  0  0
   59.1560   30.4460   50.0160 C   0  0  0  0  0  0  0  0  0  0  0  0
   58.9010   29.4270   48.8860 C   0  0  0  0  0  0  0  0  0  0  0  0
   59.7980   28.2680   48.9780 N   0  0  0  0  0  0  0  0  0  0  0  0
   59.9850   27.4120   47.8320 C   0  0  0  0  0  0  0  0  0  0  0  0
   61.1510   27.0690   47.4980 O   0  0  0  0  0  0  0  0  0  0  0  0
   58.8460   26.9270   47.0250 C   0  0  0  0  0  0  0  0  0  0  0  0
   58.6500   27.1990   45.6730 C   0  0  0  0  0  0  0  0  0  0  0  0
   57.5170   26.5740   45.1380 C   0  0  0  0  0  0  0  0  0  0  0  0
   56.8330   25.8040   46.0640 C   0  0  0  0  0  0  0  0  0  0  0  0
   55.3790   24.8780   45.7470 S   0  0  0  0  0  0  0  0  0  0  0  0
   54.0120   25.9330   45.6870 N   0  0  0  0  0  0  0  0  0  0  0  0
   55.1800   23.8680   46.8420 O   0  0  0  0  0  0  0  0  0  0  0  0
   55.5120   24.1720   44.4270 O   0  0  0  0  0  0  0  0  0  0  0  0
   57.6270   25.8850   47.5420 S   0  0  0  0  0  0  0  0  0  0  0  0
   60.7490   28.2160   50.0880 C   0  0  0  0  0  0  0  0  0  0  0  0
   61.5070   29.5420   50.1330 C   0  0  0  0  0  0  0  0  0  0  0  0
   62.3060   31.6660   48.6770 C   0  0  0  0  0  0  0  0  0  0  0  0
   62.9650   32.9790   48.1410 C   0  0  0  0  0  0  0  0  0  0  0  0
   64.0520   33.4580   49.1280 C   0  0  0  0  0  0  0  0  0  0  0  0
   63.6470   32.6780   46.7870 C   0  0  0  0  0  0  0  0  0  0  0  0
   61.9100   34.1160   47.9520 C   0  0  0  0  0  0  0  0  0  0  0  0
   59.1479   35.1415   48.2002 H   0  0  0  0  0  0  0  0  0  0  0  0
   60.0651   35.4525   46.6873 H   0  0  0  0  0  0  0  0  0  0  0  0
   58.7033   34.2811   46.6873 H   0  0  0  0  0  0  0  0  0  0  0  0
   60.5977   32.8971   46.7591 H   0  0  0  0  0  0  0  0  0  0  0  0
   59.4605   33.3946   49.5209 H   0  0  0  0  0  0  0  0  0  0  0  0
   59.2873   31.9654   48.3986 H   0  0  0  0  0  0  0  0  0  0  0  0
   61.4164   32.6235   50.3962 H   0  0  0  0  0  0  0  0  0  0  0  0
   60.6280   30.9600   51.3050 H   0  0  0  0  0  0  0  0  0  0  0  0
   58.7023   30.0568   50.9394 H   0  0  0  0  0  0  0  0  0  0  0  0
   58.7110   31.3971   49.6882 H   0  0  0  0  0  0  0  0  0  0  0  0
   57.8603   29.0768   48.9517 H   0  0  0  0  0  0  0  0  0  0  0  0
   59.0919   29.9291   47.9261 H   0  0  0  0  0  0  0  0  0  0  0  0
   59.3199   27.8420   45.0832 H   0  0  0  0  0  0  0  0  0  0  0  0
   57.2024   26.6833   44.0896 H   0  0  0  0  0  0  0  0  0  0  0  0
   54.1990   26.7150   46.3540 H   0  0  0  0  0  0  0  0  0  0  0  0
   60.2086   28.0642   51.0340 H   0  0  0  0  0  0  0  0  0  0  0  0
   61.4522   27.3822   49.9458 H   0  0  0  0  0  0  0  0  0  0  0  0
   62.2019   29.5214   50.9855 H   0  0  0  0  0  0  0  0  0  0  0  0
   62.0393   29.6530   49.1768 H   0  0  0  0  0  0  0  0  0  0  0  0
   63.0553   31.1035   49.2533 H   0  0  0  0  0  0  0  0  0  0  0  0
   61.9507   31.0890   47.8105 H   0  0  0  0  0  0  0  0  0  0  0  0
   63.7036   33.3045   50.1600 H   0  0  0  0  0  0  0  0  0  0  0  0
   64.9755   32.8835   48.9635 H   0  0  0  0  0  0  0  0  0  0  0  0
   64.2512   34.5272   48.9635 H   0  0  0  0  0  0  0  0  0  0  0  0
   64.6399   32.2398   46.9660 H   0  0  0  0  0  0  0  0  0  0  0  0
   63.0306   31.9683   46.2157 H   0  0  0  0  0  0  0  0  0  0  0  0
   63.7559   33.6117   46.2157 H   0  0  0  0  0  0  0  0  0  0  0  0
   61.8548   34.7066   48.8784 H   0  0  0  0  0  0  0  0  0  0  0  0
   62.2290   34.7372   47.1021 H   0  0  0  0  0  0  0  0  0  0  0  0
  1  2  1  0
  2  3  1  0
  3  4  1  0
  4  5  1  0
  5  6  1  0
  6  7  1  0
  7  8  1  0
  8  9  1  0
  9 10  2  0
  9 11  1  0
 11 12  2  0
 12 13  1  0
 13 14  2  0
 14 15  1  0
 15 16  1  0
 15 17  2  0
 15 18  2  0
 14 19  1  0
  8 20  1  0
 20 21  1  0
  4 22  1  0
 22 23  1  0
 23 24  1  0
 23 25  1  0
 23 26  1  0
 26  2  1  0
 21  5  1  0
 19 11  1  0
  1 27  1  0
  1 28  1  0
  1 29  1  0
  2 30  1  6
  3 31  1  0
  3 32  1  0
  4 33  1  1
  5 34  1  0
  6 35  1  0
  6 36  1  0
  7 37  1  0
  7 38  1  0
 12 39  1  0
 13 40  1  0
 16 41  1  0
 20 42  1  0
 20 43  1  0
 21 44  1  0
 21 45  1  0
 22 46  1  0
 22 47  1  0
 24 48  1  0
 24 49  1  0
 24 50  1  0
 25 51  1  0
 25 52  1  0
 25 53  1  0
 26 54  1  0
 26 55  1  0
M  CHG  2   5   1  16  -1
M  END
>  <UniqueID>  (65) 
61

>  <SMILES>  (65) 
C[C@@H]1C[C@@H]([NH+]2CCN(C(=O)c3ccc(S([NH-])(=O)=O)s3)CC2)CC(C)(C)C1

>  <Energy>  (65) 
99.07763778609409

>  <Genealogy>  (65) 
CC1CC([NH+]2CCN(C(=O)c3ccc(S([NH-])(=O)=O)s3)CC2)CC(C)(C)C1 (protonated)
C[C@@H]1C[C@@H]([NH+]2CCN(C(=O)c3ccc(S([NH-])(=O)=O)s3)CC2)CC(C)(C)C1 (chirality)
C[C@@H]1C[C@@H]([NH+]2CCN(C(=O)c3ccc(S([NH-])(=O)=O)s3)CC2)CC(C)(C)C1 (3D coordinates assigned)
C[C@@H]1C[C@@H]([NH+]2CCN(C(=O)c3ccc(S([NH-])(=O)=O)s3)CC2)CC(C)(C)C1 (nonaromatic ring conformer: 99.07763778609409 kcal/mol)

>  <smiles>  (65) 
CC1CC(N2CCN(C(=O)c3ccc(S(N)(=O)=O)s3)CC2)CC(C)(C)C1

>  <score_type>  (65) 
oracle

>  <origin>  (65) 
adg

>  <m_score__min__energy>  (65) 
-10.85

>  <m_primary>  (65) 
energy

$$$$
66:0
     RDKit          3D

 70 74  0  0  0  0  0  0  0  0999 V2000
   67.5218   34.4358   51.7689 H   0  0  0  0  0  0  0  0  0  0  0  0
   66.4890   34.1560   51.5140 C   0  0  0  0  0  0  0  0  0  0  0  0
   65.4270   34.6370   52.2820 C   0  0  0  0  0  0  0  0  0  0  0  0
   65.6245   35.2918   53.1435 H   0  0  0  0  0  0  0  0  0  0  0  0
   64.1150   34.2880   51.9580 C   0  0  0  0  0  0  0  0  0  0  0  0
   63.2805   34.6696   52.5646 H   0  0  0  0  0  0  0  0  0  0  0  0
   63.8570   33.4520   50.8610 C   0  0  0  0  0  0  0  0  0  0  0  0
   62.5010   33.1210   50.5300 N   0  0  0  0  0  0  0  0  0  0  0  0
   62.0590   31.7280   50.6450 C   0  0  0  0  0  0  0  0  0  0  0  0
   62.6502   31.1116   49.9518 H   0  0  0  0  0  0  0  0  0  0  0  0
   62.2062   31.4149   51.6892 H   0  0  0  0  0  0  0  0  0  0  0  0
   60.5630   31.5550   50.3090 C   0  0  0  0  0  0  0  0  0  0  0  0
   60.3828   30.4930   50.0863 H   0  0  0  0  0  0  0  0  0  0  0  0
   60.0049   31.9152   51.1858 H   0  0  0  0  0  0  0  0  0  0  0  0
   60.0890   32.3550   49.1550 N   0  0  0  0  0  0  0  0  0  0  0  0
   59.4960   31.3950   47.8170 S   0  0  0  0  0  0  0  0  0  0  0  0
   58.5250   30.3620   48.3210 O   0  0  0  0  0  0  0  0  0  0  0  0
   60.6910   30.6850   47.2430 O   0  0  0  0  0  0  0  0  0  0  0  0
   58.6960   32.3480   46.5390 C   0  0  0  0  0  0  0  0  0  0  0  0
   58.7980   33.7490   46.5680 C   0  0  0  0  0  0  0  0  0  0  0  0
   59.3150   34.2377   47.4070 H   0  0  0  0  0  0  0  0  0  0  0  0
   58.2530   34.5290   45.5480 C   0  0  0  0  0  0  0  0  0  0  0  0
   58.3575   35.6236   45.5787 H   0  0  0  0  0  0  0  0  0  0  0  0
   57.5770   33.9250   44.4910 C   0  0  0  0  0  0  0  0  0  0  0  0
   57.1698   34.5396   43.6746 H   0  0  0  0  0  0  0  0  0  0  0  0
   57.4170   32.5400   44.4690 C   0  0  0  0  0  0  0  0  0  0  0  0
   56.8693   32.0686   43.6397 H   0  0  0  0  0  0  0  0  0  0  0  0
   57.9480   31.7400   45.4950 C   0  0  0  0  0  0  0  0  0  0  0  0
   57.6170   30.3010   45.4880 C   0  0  0  0  0  0  0  0  0  0  0  0
   56.5650   29.9130   44.9110 O   0  0  0  0  0  0  0  0  0  0  0  0
   58.5300   29.3470   46.0560 N   0  0  0  0  0  0  0  0  0  0  0  0
   59.4520   29.6940   46.4060 H   0  0  0  0  0  0  0  0  0  0  0  0
   58.3200   27.9260   46.0280 C   0  0  0  0  0  0  0  0  0  0  0  0
   57.0270   27.3740   45.9960 C   0  0  0  0  0  0  0  0  0  0  0  0
   56.1482   28.0355   46.0009 H   0  0  0  0  0  0  0  0  0  0  0  0
   56.8550   25.9870   45.9580 C   0  0  0  0  0  0  0  0  0  0  0  0
   55.8408   25.5625   45.9232 H   0  0  0  0  0  0  0  0  0  0  0  0
   57.9680   25.1340   45.9640 C   0  0  0  0  0  0  0  0  0  0  0  0
   57.7410   23.3880   45.8990 S   0  0  0  0  0  0  0  0  0  0  0  0
   57.3750   22.8930   47.2680 O   0  0  0  0  0  0  0  0  0  0  0  0
   59.0100   22.7150   45.4540 O   0  0  0  0  0  0  0  0  0  0  0  0
   56.4680   22.9830   44.7930 N   0  0  0  0  0  0  0  0  0  0  0  0
   55.2240   22.8950   45.1460 C   0  0  0  0  0  0  0  0  0  0  0  0
   54.1830   23.2860   44.3820 N   0  0  0  0  0  0  0  0  0  0  0  0
   53.1120   23.0590   45.0850 O   0  0  0  0  0  0  0  0  0  0  0  0
   53.4160   22.5490   46.2590 C   0  0  0  0  0  0  0  0  0  0  0  0
   52.4130   22.1610   47.2920 C   0  0  0  0  0  0  0  0  0  0  0  0
   52.8364   22.3248   48.2939 H   0  0  0  0  0  0  0  0  0  0  0  0
   51.5073   22.7736   47.1720 H   0  0  0  0  0  0  0  0  0  0  0  0
   52.1554   21.0983   47.1720 H   0  0  0  0  0  0  0  0  0  0  0  0
   54.7860   22.4120   46.3570 C   0  0  0  0  0  0  0  0  0  0  0  0
   55.3792   22.0156   47.1943 H   0  0  0  0  0  0  0  0  0  0  0  0
   59.2560   25.6810   46.0150 C   0  0  0  0  0  0  0  0  0  0  0  0
   60.1335   25.0178   46.0236 H   0  0  0  0  0  0  0  0  0  0  0  0
   59.4300   27.0680   46.0550 C   0  0  0  0  0  0  0  0  0  0  0  0
   60.4446   27.4896   46.1080 H   0  0  0  0  0  0  0  0  0  0  0  0
   60.9140   33.4980   48.7270 C   0  0  0  0  0  0  0  0  0  0  0  0
   61.6587   33.1499   47.9960 H   0  0  0  0  0  0  0  0  0  0  0  0
   60.2554   34.2554   48.2769 H   0  0  0  0  0  0  0  0  0  0  0  0
   61.6360   34.1270   49.9120 C   0  0  0  0  0  0  0  0  0  0  0  0
   62.2452   34.9747   49.5653 H   0  0  0  0  0  0  0  0  0  0  0  0
   60.9011   34.4879   50.6467 H   0  0  0  0  0  0  0  0  0  0  0  0
   64.9220   32.9560   50.0860 C   0  0  0  0  0  0  0  0  0  0  0  0
   64.6350   32.1050   49.0070 O   0  0  0  0  0  0  0  0  0  0  0  0
   63.8100   32.4540   47.9010 C   0  0  0  0  0  0  0  0  0  0  0  0
   62.8552   32.8579   48.2688 H   0  0  0  0  0  0  0  0  0  0  0  0
   64.3185   33.2141   47.2897 H   0  0  0  0  0  0  0  0  0  0  0  0
   63.6187   31.5597   47.2897 H   0  0  0  0  0  0  0  0  0  0  0  0
   66.2420   33.3190   50.4210 C   0  0  0  0  0  0  0  0  0  0  0  0
   67.0824   32.9420   49.8197 H   0  0  0  0  0  0  0  0  0  0  0  0
  1  2  1  0
  2  3  2  0
  3  4  1  0
  3  5  1  0
  5  6  1  0
  5  7  2  0
  7  8  1  0
  8  9  1  0
  9 10  1  0
  9 11  1  0
  9 12  1  0
 12 13  1  0
 12 14  1  0
 12 15  1  0
 15 16  1  0
 16 17  2  0
 16 18  2  0
 16 19  1  0
 19 20  2  0
 20 21  1  0
 20 22  1  0
 22 23  1  0
 22 24  2  0
 24 25  1  0
 24 26  1  0
 26 27  1  0
 26 28  2  0
 28 29  1  0
 29 30  2  0
 29 31  1  0
 31 32  1  0
 31 33  1  0
 33 34  2  0
 34 35  1  0
 34 36  1  0
 36 37  1  0
 36 38  2  0
 38 39  1  0
 39 40  2  0
 39 41  2  0
 39 42  1  0
 42 43  2  0
 43 44  1  0
 44 45  1  0
 45 46  1  0
 46 47  1  0
 47 48  1  0
 47 49  1  0
 47 50  1  0
 46 51  2  0
 51 52  1  0
 38 53  1  0
 53 54  1  0
 53 55  2  0
 55 56  1  0
 15 57  1  0
 57 58  1  0
 57 59  1  0
 57 60  1  0
 60 61  1  0
 60 62  1  0
  7 63  1  0
 63 64  1  0
 64 65  1  0
 65 66  1  0
 65 67  1  0
 65 68  1  0
 63 69  2  0
 69 70  1  0
 69  2  1  0
 60  8  1  0
 28 19  1  0
 55 33  1  0
 51 43  1  0
M  CHG  1  44  -1
M  END
>  <UniqueID>  (66) 
62

>  <SMILES>  (66) 
COc1ccccc1N1CCN(S(=O)(=O)c2ccccc2C(=O)Nc2ccc(S(=O)(=O)/N=c3/cc(C)o[n-]3)cc2)CC1

>  <Energy>  (66) 
134.44911949408979

>  <Genealogy>  (66) 
COc1ccccc1N1CCN(S(=O)(=O)c2ccccc2C(=O)Nc2ccc(S(=O)(=O)N=c3cc(C)o[n-]3)cc2)CC1 (protonated)
COc1ccccc1N1CCN(S(=O)(=O)c2ccccc2C(=O)Nc2ccc(S(=O)(=O)/N=c3/cc(C)o[n-]3)cc2)CC1 (cis-trans isomerization)
COc1ccccc1N1CCN(S(=O)(=O)c2ccccc2C(=O)Nc2ccc(S(=O)(=O)/N=c3/cc(C)o[n-]3)cc2)CC1 (3D coordinates assigned)
COc1ccccc1N1CCN(S(=O)(=O)c2ccccc2C(=O)Nc2ccc(S(=O)(=O)/N=c3/cc(C)o[n-]3)cc2)CC1 (nonaromatic ring conformer: 134.44911949408979 kcal/mol)

>  <smiles>  (66) 
COc1ccccc1N1CCN(S(=O)(=O)c2ccccc2C(=O)Nc2ccc(S(=O)(=O)N=c3cc(C)o[nH]3)cc2)CC1

>  <score_type>  (66) 
oracle

>  <origin>  (66) 
adg

>  <m_score__min__energy>  (66) 
-12.449999999999999

>  <m_primary>  (66) 
energy

$$$$
67:0
     RDKit          3D

 37 39  0  0  1  0  0  0  0  0999 V2000
   57.3830   26.5400   45.1370 O   0  0  0  0  0  0  0  0  0  0  0  0
   57.6500   27.7300   45.4570 C   0  0  0  0  0  0  0  0  0  0  0  0
   58.5980   27.9970   46.5100 N   0  0  0  0  0  0  0  0  0  0  0  0
   59.0590   29.1830   46.7020 C   0  0  0  0  0  0  0  0  0  0  0  0
   60.3480   29.6180   46.9070 C   0  0  0  0  0  0  0  0  0  0  0  0
   60.3160   30.9920   47.0620 C   0  0  0  0  0  0  0  0  0  0  0  0
   61.5080   31.7850   47.2960 C   0  0  0  0  0  0  0  0  0  0  0  0
   62.5820   31.3240   48.0490 C   0  0  0  0  0  0  0  0  0  0  0  0
   63.7120   32.0570   48.2800 C   0  0  0  0  0  0  0  0  0  0  0  0
   63.8360   33.3240   47.7590 C   0  0  0  0  0  0  0  0  0  0  0  0
   62.8050   33.8190   47.0140 C   0  0  0  0  0  0  0  0  0  0  0  0
   61.6560   33.0700   46.7810 C   0  0  0  0  0  0  0  0  0  0  0  0
   60.6990   33.6320   46.0410 F   0  0  0  0  0  0  0  0  0  0  0  0
   59.0330   31.3370   46.9470 N   0  0  0  0  0  0  0  0  0  0  0  0
   58.2660   30.2710   46.7310 N   0  0  0  0  0  0  0  0  0  0  0  0
   57.0470   28.8890   44.8150 C   0  0  0  0  0  0  0  0  0  0  0  0
   55.9290   29.3650   45.1490 O   0  0  0  0  0  0  0  0  0  0  0  0
   57.7180   29.5590   43.7430 N   0  0  0  0  0  0  0  0  0  0  0  0
   57.0250   30.7070   43.1730 C   0  0  0  0  0  0  0  0  0  0  0  0
   57.2130   31.9100   44.0230 C   0  0  0  0  0  0  0  0  0  0  0  0
   57.8870   33.0770   43.6940 C   0  0  0  0  0  0  0  0  0  0  0  0
   57.7800   33.8830   44.8090 C   0  0  0  0  0  0  0  0  0  0  0  0
   57.0590   33.1930   45.7570 C   0  0  0  0  0  0  0  0  0  0  0  0
   56.7360   32.0240   45.2600 O   0  0  0  0  0  0  0  0  0  0  0  0
   61.2464   28.9842   46.9416 H   0  0  0  0  0  0  0  0  0  0  0  0
   62.5188   30.3149   48.4822 H   0  0  0  0  0  0  0  0  0  0  0  0
   64.5261   31.6319   48.8853 H   0  0  0  0  0  0  0  0  0  0  0  0
   64.7416   33.9222   47.9379 H   0  0  0  0  0  0  0  0  0  0  0  0
   62.8842   34.8306   46.5892 H   0  0  0  0  0  0  0  0  0  0  0  0
   58.6590   32.2890   47.0110 H   0  0  0  0  0  0  0  0  0  0  0  0
   57.2170   30.2950   46.6080 H   0  0  0  0  0  0  0  0  0  0  0  0
   58.6480   29.2330   43.4020 H   0  0  0  0  0  0  0  0  0  0  0  0
   57.4260   30.9085   42.1687 H   0  0  0  0  0  0  0  0  0  0  0  0
   55.9504   30.4787   43.1168 H   0  0  0  0  0  0  0  0  0  0  0  0
   58.3971   33.3099   42.7477 H   0  0  0  0  0  0  0  0  0  0  0  0
   58.1962   34.8951   44.9202 H   0  0  0  0  0  0  0  0  0  0  0  0
   56.7983   33.5601   46.7606 H   0  0  0  0  0  0  0  0  0  0  0  0
  1  2  2  0
  2  3  1  0
  3  4  2  0
  4  5  1  0
  5  6  2  0
  6  7  1  0
  7  8  2  0
  8  9  1  0
  9 10  2  0
 10 11  1  0
 11 12  2  0
 12 13  1  0
  6 14  1  0
 14 15  1  0
  2 16  1  0
 16 17  2  0
 16 18  1  0
 18 19  1  0
 19 20  1  0
 20 21  2  0
 21 22  1  0
 22 23  2  0
 23 24  1  0
 15  4  1  0
 24 20  1  0
 12  7  1  0
  5 25  1  0
  8 26  1  0
  9 27  1  0
 10 28  1  0
 11 29  1  0
 14 30  1  0
 15 31  1  0
 18 32  1  0
 19 33  1  0
 19 34  1  0
 21 35  1  0
 22 36  1  0
 23 37  1  0
M  END
>  <smiles>  (67) 
O=C(N=c1cc(-c2ccccc2F)[nH][nH]1)C(=O)NCc1ccco1

>  <score_type>  (67) 
oracle

>  <origin>  (67) 
adg

>  <m_score__min__energy>  (67) 
-7.5

>  <m_primary>  (67) 
energy

$$$$
68:0
     RDKit          3D

 51 54  0  0  0  0  0  0  0  0999 V2000
   55.8450   26.9590   45.7180 N   0  0  0  0  0  0  0  0  0  0  0  0
   57.0690   26.9120   46.4500 C   0  0  0  0  0  0  0  0  0  0  0  0
   57.4660   25.8130   46.9250 O   0  0  0  0  0  0  0  0  0  0  0  0
   57.8550   28.1430   46.6370 C   0  0  0  0  0  0  0  0  0  0  0  0
   57.5320   29.2920   45.9840 N   0  0  0  0  0  0  0  0  0  0  0  0
   58.3690   30.3170   46.2780 C   0  0  0  0  0  0  0  0  0  0  0  0
   58.2340   31.6710   45.6910 C   0  0  0  0  0  0  0  0  0  0  0  0
   58.1270   32.8090   46.5120 C   0  0  0  0  0  0  0  0  0  0  0  0
   58.0120   34.0810   45.9470 C   0  0  0  0  0  0  0  0  0  0  0  0
   58.0060   34.2340   44.5600 C   0  0  0  0  0  0  0  0  0  0  0  0
   58.1090   33.1130   43.7340 C   0  0  0  0  0  0  0  0  0  0  0  0
   58.2200   31.8370   44.2930 C   0  0  0  0  0  0  0  0  0  0  0  0
   59.5580   29.8290   47.3710 S   0  0  0  0  0  0  0  0  0  0  0  0
   58.9750   28.2510   47.4650 C   0  0  0  0  0  0  0  0  0  0  0  0
   59.5070   27.1920   48.2710 N   0  0  0  0  0  0  0  0  0  0  0  0
   60.4710   27.3200   49.3240 C   0  0  0  0  0  0  0  0  0  0  0  0
   61.2550   26.3670   49.5870 O   0  0  0  0  0  0  0  0  0  0  0  0
   60.5430   28.5730   50.1110 C   0  0  0  0  0  0  0  0  0  0  0  0
   59.3980   29.0840   50.7490 C   0  0  0  0  0  0  0  0  0  0  0  0
   59.4650   30.2730   51.4810 C   0  0  0  0  0  0  0  0  0  0  0  0
   60.6730   30.9710   51.5870 C   0  0  0  0  0  0  0  0  0  0  0  0
   60.7500   32.4620   52.5190 S   0  0  0  0  0  0  0  0  0  0  0  0
   59.5570   32.5800   53.4270 O   0  0  0  0  0  0  0  0  0  0  0  0
   61.9900   32.4580   53.3680 O   0  0  0  0  0  0  0  0  0  0  0  0
   60.8030   33.8170   51.4410 N   0  0  0  0  0  0  0  0  0  0  0  0
   60.5170   33.7060   50.0450 C   0  0  0  0  0  0  0  0  0  0  0  0
   59.3250   33.7790   49.6420 O   0  0  0  0  0  0  0  0  0  0  0  0
   61.6280   33.5610   49.0780 C   0  0  0  0  0  0  0  0  0  0  0  0
   61.3330   33.6080   47.7020 C   0  0  0  0  0  0  0  0  0  0  0  0
   62.3330   33.4030   46.7490 C   0  0  0  0  0  0  0  0  0  0  0  0
   63.6400   33.1440   47.1550 C   0  0  0  0  0  0  0  0  0  0  0  0
   63.9570   33.1110   48.5130 C   0  0  0  0  0  0  0  0  0  0  0  0
   62.9710   33.3410   49.4820 C   0  0  0  0  0  0  0  0  0  0  0  0
   63.3730   33.3810   50.8190 O   0  0  0  0  0  0  0  0  0  0  0  0
   61.8200   30.4640   50.9660 C   0  0  0  0  0  0  0  0  0  0  0  0
   61.7560   29.2760   50.2320 C   0  0  0  0  0  0  0  0  0  0  0  0
   55.5310   27.8400   45.2540 H   0  0  0  0  0  0  0  0  0  0  0  0
   58.1340   32.6959   47.6061 H   0  0  0  0  0  0  0  0  0  0  0  0
   57.9260   34.9643   46.5969 H   0  0  0  0  0  0  0  0  0  0  0  0
   57.9202   35.2374   44.1175 H   0  0  0  0  0  0  0  0  0  0  0  0
   58.1028   33.2345   42.6407 H   0  0  0  0  0  0  0  0  0  0  0  0
   58.2969   30.9574   43.6370 H   0  0  0  0  0  0  0  0  0  0  0  0
   58.4429   28.5439   50.6713 H   0  0  0  0  0  0  0  0  0  0  0  0
   58.5632   30.6620   51.9764 H   0  0  0  0  0  0  0  0  0  0  0  0
   60.3025   33.8086   47.3737 H   0  0  0  0  0  0  0  0  0  0  0  0
   62.0884   33.4461   45.6774 H   0  0  0  0  0  0  0  0  0  0  0  0
   64.4233   32.9652   46.4037 H   0  0  0  0  0  0  0  0  0  0  0  0
   64.9906   32.9025   48.8263 H   0  0  0  0  0  0  0  0  0  0  0  0
   62.7270   33.4340   51.5950 H   0  0  0  0  0  0  0  0  0  0  0  0
   62.7752   31.0021   51.0557 H   0  0  0  0  0  0  0  0  0  0  0  0
   62.6622   28.8871   49.7445 H   0  0  0  0  0  0  0  0  0  0  0  0
  1  2  1  0
  2  3  2  0
  2  4  1  0
  4  5  1  0
  5  6  2  0
  6  7  1  0
  7  8  2  0
  8  9  1  0
  9 10  2  0
 10 11  1  0
 11 12  2  0
  6 13  1  0
 13 14  1  0
 14 15  1  0
 15 16  1  0
 16 17  2  0
 16 18  1  0
 18 19  2  0
 19 20  1  0
 20 21  2  0
 21 22  1  0
 22 23  2  0
 22 24  2  0
 22 25  1  0
 25 26  1  0
 26 27  2  0
 26 28  1  0
 28 29  2  0
 29 30  1  0
 30 31  2  0
 31 32  1  0
 32 33  2  0
 33 34  1  0
 21 35  1  0
 35 36  2  0
 14  4  2  0
 36 18  1  0
 12  7  1  0
 33 28  1  0
  1 37  1  0
  8 38  1  0
  9 39  1  0
 10 40  1  0
 11 41  1  0
 12 42  1  0
 19 43  1  0
 20 44  1  0
 29 45  1  0
 30 46  1  0
 31 47  1  0
 32 48  1  0
 34 49  1  0
 35 50  1  0
 36 51  1  0
M  CHG  3   1  -1  15  -1  25  -1
M  END
>  <UniqueID>  (68) 
63

>  <SMILES>  (68) 
[NH-]C(=O)c1nc(-c2ccccc2)sc1[N-]C(=O)c1ccc(S(=O)(=O)[N-]C(=O)c2ccccc2O)cc1

>  <Energy>  (68) 
96.30597056378596

>  <Genealogy>  (68) 
[NH-]C(=O)c1nc(-c2ccccc2)sc1[N-]C(=O)c1ccc(S(=O)(=O)[N-]C(=O)c2ccccc2O)cc1 (protonated)
[NH-]C(=O)c1nc(-c2ccccc2)sc1[N-]C(=O)c1ccc(S(=O)(=O)[N-]C(=O)c2ccccc2O)cc1 (3D coordinates assigned)
[NH-]C(=O)c1nc(-c2ccccc2)sc1[N-]C(=O)c1ccc(S(=O)(=O)[N-]C(=O)c2ccccc2O)cc1 (optimized conformer: 96.30597056378596 kcal/mol)

>  <smiles>  (68) 
NC(=O)c1nc(-c2ccccc2)sc1NC(=O)c1ccc(S(=O)(=O)NC(=O)c2ccccc2O)cc1

>  <score_type>  (68) 
oracle

>  <origin>  (68) 
adg

>  <m_score__min__energy>  (68) 
-14.19

>  <m_primary>  (68) 
energy

$$$$
69:0
     RDKit          3D

 51 55  0  0  0  0  0  0  0  0999 V2000
   59.4970   30.7810   47.6660 O   0  0  0  0  0  0  0  0  0  0  0  0
   59.4040   31.7420   46.8570 C   0  0  0  0  0  0  0  0  0  0  0  0
   59.9260   33.1020   47.2900 C   0  0  1  0  0  0  0  0  0  0  0  0
   61.4310   33.2880   46.9810 C   0  0  0  0  0  0  0  0  0  0  0  0
   62.3230   33.3610   48.1940 C   0  0  0  0  0  0  0  0  0  0  0  0
   63.5810   32.7350   48.1960 C   0  0  0  0  0  0  0  0  0  0  0  0
   64.4110   32.8280   49.3180 C   0  0  0  0  0  0  0  0  0  0  0  0
   63.9970   33.5540   50.4430 C   0  0  0  0  0  0  0  0  0  0  0  0
   64.8130   33.6520   51.5670 O   0  0  0  0  0  0  0  0  0  0  0  0
   62.7560   34.1950   50.4350 C   0  0  0  0  0  0  0  0  0  0  0  0
   61.9280   34.1060   49.3130 C   0  0  0  0  0  0  0  0  0  0  0  0
   59.0380   34.3050   46.8850 C   0  0  0  0  0  0  0  0  0  0  0  0
   58.3760   34.2220   45.2250 S   0  0  0  0  0  0  0  0  0  0  0  0
   57.0000   34.8260   45.2230 O   0  0  0  0  0  0  0  0  0  0  0  0
   59.2470   34.9660   44.2530 O   0  0  0  0  0  0  0  0  0  0  0  0
   58.2640   32.5450   44.7760 C   0  0  0  0  0  0  0  0  0  0  0  0
   57.4840   32.1350   43.8380 N   0  0  0  0  0  0  0  0  0  0  0  0
   57.4620   30.6820   43.8230 C   0  0  0  0  0  0  0  0  0  0  0  0
   58.3280   30.2490   45.0310 C   0  0  1  0  0  0  0  0  0  0  0  0
   59.4510   29.2890   44.5780 C   0  0  0  0  0  0  0  0  0  0  0  0
   59.4720   27.9860   45.3310 C   0  0  0  0  0  0  0  0  0  0  0  0
   60.5900   27.3660   45.8900 C   0  0  0  0  0  0  0  0  0  0  0  0
   60.2250   26.2680   46.5890 N   0  0  0  0  0  0  0  0  0  0  0  0
   58.8840   26.2070   46.5110 C   0  0  0  0  0  0  0  0  0  0  0  0
   58.0500   25.2610   47.1040 C   0  0  0  0  0  0  0  0  0  0  0  0
   56.6620   25.3980   46.9200 C   0  0  0  0  0  0  0  0  0  0  0  0
   56.1450   26.4760   46.1650 C   0  0  0  0  0  0  0  0  0  0  0  0
   54.7730   26.6010   45.9900 O   0  0  0  0  0  0  0  0  0  0  0  0
   57.0140   27.4220   45.5860 C   0  0  0  0  0  0  0  0  0  0  0  0
   58.3860   27.2460   45.7660 C   0  0  0  0  0  0  0  0  0  0  0  0
   58.8460   31.5170   45.5500 N   0  0  0  0  0  0  0  0  0  0  0  0
   59.8440   33.0993   48.3869 H   0  0  0  0  0  0  0  0  0  0  0  0
   61.7609   32.4387   46.3647 H   0  0  0  0  0  0  0  0  0  0  0  0
   61.5239   34.2580   46.4706 H   0  0  0  0  0  0  0  0  0  0  0  0
   63.9140   32.1702   47.3127 H   0  0  0  0  0  0  0  0  0  0  0  0
   65.3917   32.3298   49.3174 H   0  0  0  0  0  0  0  0  0  0  0  0
   64.7050   34.4070   52.2340 H   0  0  0  0  0  0  0  0  0  0  0  0
   62.4299   34.7709   51.3136 H   0  0  0  0  0  0  0  0  0  0  0  0
   60.9582   34.6250   49.3082 H   0  0  0  0  0  0  0  0  0  0  0  0
   58.1937   34.3594   47.5880 H   0  0  0  0  0  0  0  0  0  0  0  0
   59.6860   35.1933   46.9164 H   0  0  0  0  0  0  0  0  0  0  0  0
   56.4325   30.3109   43.9340 H   0  0  0  0  0  0  0  0  0  0  0  0
   57.8460   30.2753   42.8758 H   0  0  0  0  0  0  0  0  0  0  0  0
   57.7722   29.6899   45.7981 H   0  0  0  0  0  0  0  0  0  0  0  0
   59.3111   29.0704   43.5091 H   0  0  0  0  0  0  0  0  0  0  0  0
   60.4072   29.7935   44.7810 H   0  0  0  0  0  0  0  0  0  0  0  0
   61.6249   27.7214   45.7775 H   0  0  0  0  0  0  0  0  0  0  0  0
   60.8600   25.6160   47.1030 H   0  0  0  0  0  0  0  0  0  0  0  0
   58.4642   24.4327   47.6976 H   0  0  0  0  0  0  0  0  0  0  0  0
   55.9756   24.6630   47.3656 H   0  0  0  0  0  0  0  0  0  0  0  0
   56.6225   28.2732   45.0097 H   0  0  0  0  0  0  0  0  0  0  0  0
  1  2  2  0
  2  3  1  0
  3  4  1  0
  4  5  1  0
  5  6  2  0
  6  7  1  0
  7  8  2  0
  8  9  1  0
  8 10  1  0
 10 11  2  0
  3 12  1  0
 12 13  1  0
 13 14  2  0
 13 15  2  0
 13 16  1  0
 16 17  2  0
 17 18  1  0
 18 19  1  0
 19 20  1  0
 20 21  1  0
 21 22  2  0
 22 23  1  0
 23 24  1  0
 24 25  2  0
 25 26  1  0
 26 27  2  0
 27 28  1  0
 27 29  1  0
 29 30  2  0
 19 31  1  0
 31  2  1  0
 11  5  1  0
 31 16  1  0
 30 21  1  0
 30 24  1  0
  3 32  1  1
  4 33  1  0
  4 34  1  0
  6 35  1  0
  7 36  1  0
  9 37  1  0
 10 38  1  0
 11 39  1  0
 12 40  1  0
 12 41  1  0
 18 42  1  0
 18 43  1  0
 19 44  1  1
 20 45  1  0
 20 46  1  0
 22 47  1  0
 23 48  1  0
 25 49  1  0
 26 50  1  0
 29 51  1  0
M  CHG  1  28  -1
M  END
>  <UniqueID>  (69) 
64

>  <SMILES>  (69) 
O=C1[C@@H](Cc2ccc(O)cc2)CS(=O)(=O)C2=NC[C@@H](Cc3c[nH]c4ccc([O-])cc34)N12

>  <Energy>  (69) 
101.53128859697482

>  <Genealogy>  (69) 
O=C1C(Cc2ccc(O)cc2)CS(=O)(=O)C2=NCC(Cc3c[nH]c4ccc([O-])cc34)N12 (protonated)
O=C1[C@@H](Cc2ccc(O)cc2)CS(=O)(=O)C2=NC[C@@H](Cc3c[nH]c4ccc([O-])cc34)N12 (chirality)
O=C1[C@@H](Cc2ccc(O)cc2)CS(=O)(=O)C2=NC[C@@H](Cc3c[nH]c4ccc([O-])cc34)N12 (3D coordinates assigned)
O=C1[C@@H](Cc2ccc(O)cc2)CS(=O)(=O)C2=NC[C@@H](Cc3c[nH]c4ccc([O-])cc34)N12 (nonaromatic ring conformer: 101.53128859697482 kcal/mol)

>  <smiles>  (69) 
O=C1C(Cc2ccc(O)cc2)CS(=O)(=O)C2=NCC(Cc3c[nH]c4ccc(O)cc34)N12

>  <score_type>  (69) 
oracle

>  <origin>  (69) 
adg

>  <m_score__min__energy>  (69) 
-13.57

>  <m_primary>  (69) 
energy

$$$$
70:0
     RDKit          3D

 43 45  0  0  0  0  0  0  0  0999 V2000
   58.2020   34.7210   52.2470 H   0  0  0  0  0  0  0  0  0  0  0  0
   58.2540   33.7310   52.4580 O   0  0  0  0  0  0  0  0  0  0  0  0
   58.8400   32.8280   51.5740 C   0  0  0  0  0  0  0  0  0  0  0  0
   60.2240   32.6110   51.5870 C   0  0  0  0  0  0  0  0  0  0  0  0
   60.8582   33.1563   52.3015 H   0  0  0  0  0  0  0  0  0  0  0  0
   60.8010   31.7030   50.6940 C   0  0  0  0  0  0  0  0  0  0  0  0
   61.8869   31.5288   50.7166 H   0  0  0  0  0  0  0  0  0  0  0  0
   60.0010   31.0110   49.7670 C   0  0  0  0  0  0  0  0  0  0  0  0
   60.5980   30.0360   48.8260 C   0  0  0  0  0  0  0  0  0  0  0  0
   60.7580   28.8440   49.2080 O   0  0  0  0  0  0  0  0  0  0  0  0
   60.9850   30.4170   47.4450 C   0  0  0  0  0  0  0  0  0  0  0  0
   61.8620   31.9760   47.1810 S   0  0  0  0  0  0  0  0  0  0  0  0
   60.5510   32.9970   47.9300 C   0  0  0  0  0  0  0  0  0  0  0  0
   59.9651   32.3865   48.6328 H   0  0  0  0  0  0  0  0  0  0  0  0
   61.0028   33.8406   48.4724 H   0  0  0  0  0  0  0  0  0  0  0  0
   59.6530   33.5160   46.8460 C   0  0  0  0  0  0  0  0  0  0  0  0
   60.0850   34.5670   46.0190 C   0  0  0  0  0  0  0  0  0  0  0  0
   61.0930   34.9880   46.1485 H   0  0  0  0  0  0  0  0  0  0  0  0
   59.2370   35.0790   45.0320 C   0  0  0  0  0  0  0  0  0  0  0  0
   59.5819   35.8962   44.3814 H   0  0  0  0  0  0  0  0  0  0  0  0
   57.9520   34.5540   44.8710 C   0  0  0  0  0  0  0  0  0  0  0  0
   57.2879   34.9555   44.0914 H   0  0  0  0  0  0  0  0  0  0  0  0
   57.5100   33.5190   45.7000 C   0  0  0  0  0  0  0  0  0  0  0  0
   56.2590   33.0170   45.5490 F   0  0  0  0  0  0  0  0  0  0  0  0
   58.3540   33.0040   46.6900 C   0  0  0  0  0  0  0  0  0  0  0  0
   57.9997   32.1965   47.3476 H   0  0  0  0  0  0  0  0  0  0  0  0
   60.5950   29.6640   46.4000 C   0  0  0  0  0  0  0  0  0  0  0  0
   61.3697   29.1688   45.7961 H   0  0  0  0  0  0  0  0  0  0  0  0
   59.1810   29.4680   46.0220 C   0  0  0  0  0  0  0  0  0  0  0  0
   58.5510   30.4260   45.2160 C   0  0  0  0  0  0  0  0  0  0  0  0
   59.1073   31.3156   44.8856 H   0  0  0  0  0  0  0  0  0  0  0  0
   57.2170   30.2550   44.8300 C   0  0  0  0  0  0  0  0  0  0  0  0
   56.7321   31.0017   44.1840 H   0  0  0  0  0  0  0  0  0  0  0  0
   56.5000   29.1370   45.2640 C   0  0  0  0  0  0  0  0  0  0  0  0
   55.1760   28.9660   44.8780 O   0  0  0  0  0  0  0  0  0  0  0  0
   57.1140   28.1910   46.0910 C   0  0  0  0  0  0  0  0  0  0  0  0
   56.5464   27.3150   46.4380 H   0  0  0  0  0  0  0  0  0  0  0  0
   58.4480   28.3560   46.4780 C   0  0  0  0  0  0  0  0  0  0  0  0
   59.0160   27.4470   47.3110 F   0  0  0  0  0  0  0  0  0  0  0  0
   58.6120   31.2220   49.7720 C   0  0  0  0  0  0  0  0  0  0  0  0
   57.9726   30.6692   49.0680 H   0  0  0  0  0  0  0  0  0  0  0  0
   58.0370   32.1310   50.6670 C   0  0  0  0  0  0  0  0  0  0  0  0
   56.9497   32.2975   50.6567 H   0  0  0  0  0  0  0  0  0  0  0  0
  1  2  1  0
  2  3  1  0
  3  4  2  0
  4  5  1  0
  4  6  1  0
  6  7  1  0
  6  8  2  0
  8  9  1  0
  9 10  2  0
  9 11  1  0
 11 12  1  0
 12 13  1  0
 13 14  1  0
 13 15  1  0
 13 16  1  0
 16 17  2  0
 17 18  1  0
 17 19  1  0
 19 20  1  0
 19 21  2  0
 21 22  1  0
 21 23  1  0
 23 24  1  0
 23 25  2  0
 25 26  1  0
 11 27  2  0
 27 28  1  0
 27 29  1  0
 29 30  2  0
 30 31  1  0
 30 32  1  0
 32 33  1  0
 32 34  2  0
 34 35  1  0
 34 36  1  0
 36 37  1  0
 36 38  2  0
 38 39  1  0
  8 40  1  0
 40 41  1  0
 40 42  2  0
 42 43  1  0
 42  3  1  0
 25 16  1  0
 38 29  1  0
M  CHG  1  35  -1
M  END
>  <UniqueID>  (70) 
65

>  <SMILES>  (70) 
O=C(/C(=C/c1ccc([O-])cc1F)SCc1cccc(F)c1)c1ccc(O)cc1

>  <Energy>  (70) 
52.20185523248715

>  <Genealogy>  (70) 
O=C(C(=Cc1ccc([O-])cc1F)SCc1cccc(F)c1)c1ccc(O)cc1 (protonated)
O=C(/C(=C/c1ccc([O-])cc1F)SCc1cccc(F)c1)c1ccc(O)cc1 (cis-trans isomerization)
O=C(/C(=C/c1ccc([O-])cc1F)SCc1cccc(F)c1)c1ccc(O)cc1 (3D coordinates assigned)
O=C(/C(=C/c1ccc([O-])cc1F)SCc1cccc(F)c1)c1ccc(O)cc1 (optimized conformer: 52.20185523248715 kcal/mol)

>  <smiles>  (70) 
O=C(C(=Cc1ccc(O)cc1F)SCc1cccc(F)c1)c1ccc(O)cc1

>  <score_type>  (70) 
oracle

>  <origin>  (70) 
adg

>  <m_score__min__energy>  (70) 
-10.470000000000001

>  <m_primary>  (70) 
energy

$$$$
71:0
     RDKit          3D

 36 37  0  0  0  0  0  0  0  0999 V2000
   59.7930   30.2060   52.5260 C   0  0  0  0  0  0  0  0  0  0  0  0
   58.4620   30.3000   52.4600 C   0  0  0  0  0  0  0  0  0  0  0  0
   57.8520   31.4920   52.0400 C   0  0  0  0  0  0  0  0  0  0  0  0
   56.4600   31.5900   51.9650 C   0  0  0  0  0  0  0  0  0  0  0  0
   55.6330   30.4880   52.2820 C   0  0  0  0  0  0  0  0  0  0  0  0
   54.2730   30.5490   52.2270 C   0  0  0  0  0  0  0  0  0  0  0  0
   53.6410   31.6340   51.7150 N   0  0  0  0  0  0  0  0  0  0  0  0
   52.3270   31.3530   51.6860 C   0  0  0  0  0  0  0  0  0  0  0  0
   51.3150   32.3000   51.1980 C   0  0  0  0  0  0  0  0  0  0  0  0
   50.7060   33.0580   51.9970 O   0  0  0  0  0  0  0  0  0  0  0  0
   51.0220   32.3610   49.8410 O   0  0  0  0  0  0  0  0  0  0  0  0
   52.0950   30.0990   52.2010 C   0  0  0  0  0  0  0  0  0  0  0  0
   50.8370   29.5400   52.4020 O   0  0  0  0  0  0  0  0  0  0  0  0
   53.3220   29.5670   52.5790 C   0  0  0  0  0  0  0  0  0  0  0  0
   53.5140   28.4720   53.3450 C   0  0  0  0  0  0  0  0  0  0  0  0
   52.5380   27.9400   54.3200 C   0  0  0  0  0  0  0  0  0  0  0  0
   52.7140   26.7940   54.8200 O   0  0  0  0  0  0  0  0  0  0  0  0
   51.4640   28.7820   54.7970 N   0  0  0  0  0  0  0  0  0  0  0  0
   50.4630   27.9810   55.5200 C   0  0  0  0  0  0  0  0  0  0  0  0
   52.0040   29.8460   55.6570 C   0  0  0  0  0  0  0  0  0  0  0  0
   56.2610   29.3120   52.7540 C   0  0  0  0  0  0  0  0  0  0  0  0
   57.6530   29.2140   52.8260 C   0  0  0  0  0  0  0  0  0  0  0  0
   60.2624   29.2676   52.8564 H   0  0  0  0  0  0  0  0  0  0  0  0
   60.4195   31.0670   52.2500 H   0  0  0  0  0  0  0  0  0  0  0  0
   58.4749   32.3567   51.7675 H   0  0  0  0  0  0  0  0  0  0  0  0
   56.0003   32.5398   51.6543 H   0  0  0  0  0  0  0  0  0  0  0  0
   54.4680   27.9354   53.2356 H   0  0  0  0  0  0  0  0  0  0  0  0
   50.9820   29.2310   53.9820 H   0  0  0  0  0  0  0  0  0  0  0  0
   50.6114   28.0998   56.6035 H   0  0  0  0  0  0  0  0  0  0  0  0
   49.4536   28.3236   55.2484 H   0  0  0  0  0  0  0  0  0  0  0  0
   50.5759   26.9210   55.2484 H   0  0  0  0  0  0  0  0  0  0  0  0
   51.8642   29.5705   56.7127 H   0  0  0  0  0  0  0  0  0  0  0  0
   53.0767   29.9751   55.4507 H   0  0  0  0  0  0  0  0  0  0  0  0
   51.4749   30.7881   55.4507 H   0  0  0  0  0  0  0  0  0  0  0  0
   55.6425   28.4591   53.0701 H   0  0  0  0  0  0  0  0  0  0  0  0
   58.1176   28.2789   53.1720 H   0  0  0  0  0  0  0  0  0  0  0  0
  1  2  2  0
  2  3  1  0
  3  4  2  0
  4  5  1  0
  5  6  2  3
  6  7  1  0
  7  8  1  0
  8  9  1  0
  9 10  2  0
  9 11  1  0
  8 12  2  0
 12 13  1  0
 12 14  1  0
 14 15  2  3
 15 16  1  0
 16 17  2  0
 16 18  1  0
 18 19  1  0
 18 20  1  0
  5 21  1  0
 21 22  2  0
 22  2  1  0
 14  6  1  0
  1 23  1  0
  1 24  1  0
  3 25  1  0
  4 26  1  0
 15 27  1  0
 18 28  1  0
 19 29  1  0
 19 30  1  0
 19 31  1  0
 20 32  1  0
 20 33  1  0
 20 34  1  0
 21 35  1  0
 22 36  1  0
M  CHG  4   7  -1  11  -1  13  -1  18   1
M  END
>  <UniqueID>  (71) 
66

>  <SMILES>  (71) 
C=c1ccc(=c2[n-]c(C(=O)[O-])c([O-])c2=CC(=O)[NH+](C)C)cc1

>  <Energy>  (71) 
87.0354604474401

>  <Genealogy>  (71) 
C=c1ccc(=c2[n-]c(C(=O)[O-])c([O-])c2=CC(=O)[NH+](C)C)cc1 (protonated)
C=c1ccc(=c2[n-]c(C(=O)[O-])c([O-])c2=CC(=O)[NH+](C)C)cc1 (3D coordinates assigned)
C=c1ccc(=c2[n-]c(C(=O)[O-])c([O-])c2=CC(=O)[NH+](C)C)cc1 (optimized conformer: 87.0354604474401 kcal/mol)

>  <smiles>  (71) 
C=c1ccc(=c2[nH]c(C(=O)O)c(O)c2=CC(=O)N(C)C)cc1

>  <score_type>  (71) 
oracle

>  <origin>  (71) 
adg

>  <m_score__min__energy>  (71) 
-11.859999999999999

>  <m_primary>  (71) 
energy

$$$$
73:0
     RDKit          3D

 40 42  0  0  0  0  0  0  0  0999 V2000
   56.1424   28.8572   44.6271 H   0  0  0  0  0  0  0  0  0  0  0  0
   56.8700   29.5180   45.1210 C   0  0  0  0  0  0  0  0  0  0  0  0
   57.0920   30.8030   44.6210 C   0  0  0  0  0  0  0  0  0  0  0  0
   56.5251   31.1454   43.7427 H   0  0  0  0  0  0  0  0  0  0  0  0
   58.0300   31.6710   45.2210 C   0  0  0  0  0  0  0  0  0  0  0  0
   58.2430   33.0820   44.6350 C   0  0  0  0  0  0  0  0  0  0  0  0
   58.4150   32.9760   43.1780 N   0  0  0  0  0  0  0  0  0  0  0  0
   58.6950   31.9990   42.9270 H   0  0  0  0  0  0  0  0  0  0  0  0
   59.2000   33.5890   42.8590 H   0  0  0  0  0  0  0  0  0  0  0  0
   59.4940   33.7870   45.2100 C   0  0  0  0  0  0  0  0  0  0  0  0
   59.4547   33.7648   46.3091 H   0  0  0  0  0  0  0  0  0  0  0  0
   60.3994   33.2663   44.8649 H   0  0  0  0  0  0  0  0  0  0  0  0
   59.5175   34.8312   44.8649 H   0  0  0  0  0  0  0  0  0  0  0  0
   57.0160   33.9670   44.9600 C   0  0  0  0  0  0  0  0  0  0  0  0
   56.9019   34.0493   46.0510 H   0  0  0  0  0  0  0  0  0  0  0  0
   57.1623   34.9689   44.5300 H   0  0  0  0  0  0  0  0  0  0  0  0
   56.1115   33.5120   44.5300 H   0  0  0  0  0  0  0  0  0  0  0  0
   58.7540   31.1840   46.3350 C   0  0  0  0  0  0  0  0  0  0  0  0
   59.5045   31.8275   46.8174 H   0  0  0  0  0  0  0  0  0  0  0  0
   58.5290   29.8970   46.8310 C   0  0  0  0  0  0  0  0  0  0  0  0
   59.1143   29.5352   47.6892 H   0  0  0  0  0  0  0  0  0  0  0  0
   57.5700   29.0650   46.2500 C   0  0  0  0  0  0  0  0  0  0  0  0
   57.3970   27.7380   46.7770 N   0  0  0  0  0  0  0  0  0  0  0  0
   56.8460   26.7280   46.1690 C   0  0  0  0  0  0  0  0  0  0  0  0
   55.5440   26.3680   46.3340 N   0  0  0  0  0  0  0  0  0  0  0  0
   55.4500   25.2790   45.5590 C   0  0  0  0  0  0  0  0  0  0  0  0
   54.3280   24.4860   45.3400 C   0  0  0  0  0  0  0  0  0  0  0  0
   53.3659   24.7167   45.8207 H   0  0  0  0  0  0  0  0  0  0  0  0
   54.4660   23.3780   44.4820 C   0  0  0  0  0  0  0  0  0  0  0  0
   53.5993   22.7301   44.2843 H   0  0  0  0  0  0  0  0  0  0  0  0
   55.7180   23.0890   43.8680 C   0  0  0  0  0  0  0  0  0  0  0  0
   55.8960   21.9950   43.0080 O   0  0  0  0  0  0  0  0  0  0  0  0
   57.0450   21.1550   43.0070 C   0  0  0  0  0  0  0  0  0  0  0  0
   57.3416   20.9382   44.0438 H   0  0  0  0  0  0  0  0  0  0  0  0
   56.8106   20.2138   42.4882 H   0  0  0  0  0  0  0  0  0  0  0  0
   57.8708   21.6639   42.4882 H   0  0  0  0  0  0  0  0  0  0  0  0
   56.8250   23.9220   44.1220 C   0  0  0  0  0  0  0  0  0  0  0  0
   57.8024   23.7198   43.6595 H   0  0  0  0  0  0  0  0  0  0  0  0
   56.6480   25.0090   44.9750 C   0  0  0  0  0  0  0  0  0  0  0  0
   57.5630   25.9150   45.3510 N   0  0  0  0  0  0  0  0  0  0  0  0
  1  2  1  0
  2  3  2  0
  3  4  1  0
  3  5  1  0
  5  6  1  0
  6  7  1  0
  7  8  1  0
  7  9  1  0
  6 10  1  0
 10 11  1  0
 10 12  1  0
 10 13  1  0
  6 14  1  0
 14 15  1  0
 14 16  1  0
 14 17  1  0
  5 18  2  0
 18 19  1  0
 18 20  1  0
 20 21  1  0
 20 22  2  0
 22 23  1  0
 23 24  2  0
 24 25  1  0
 25 26  1  0
 26 27  2  0
 27 28  1  0
 27 29  1  0
 29 30  1  0
 29 31  2  0
 31 32  1  0
 32 33  1  0
 33 34  1  0
 33 35  1  0
 33 36  1  0
 31 37  1  0
 37 38  1  0
 37 39  2  0
 39 40  1  0
 22  2  1  0
 40 24  1  0
 39 26  1  0
M  CHG  2  25  -1  40  -1
M  END
>  <UniqueID>  (72) 
67

>  <SMILES>  (72) 
COc1ccc2[n-]/c(=N\c3ccc(C(C)(C)N)cc3)[n-]c2c1

>  <Energy>  (72) 
85.40087775291758

>  <Genealogy>  (72) 
COc1ccc2[n-]c(=Nc3ccc(C(C)(C)N)cc3)[n-]c2c1 (protonated)
COc1ccc2[n-]/c(=N\c3ccc(C(C)(C)N)cc3)[n-]c2c1 (cis-trans isomerization)
COc1ccc2[n-]/c(=N\c3ccc(C(C)(C)N)cc3)[n-]c2c1 (3D coordinates assigned)
COc1ccc2[n-]/c(=N\c3ccc(C(C)(C)N)cc3)[n-]c2c1 (optimized conformer: 85.40087775291758 kcal/mol)

>  <smiles>  (72) 
COc1ccc2[nH]c(=Nc3ccc(C(C)(C)N)cc3)[nH]c2c1

>  <score_type>  (72) 
oracle

>  <origin>  (72) 
adg

>  <m_score__min__energy>  (72) 
-9.9900000000000002

>  <m_primary>  (72) 
energy

$$$$
74:0
     RDKit          3D

 52 54  0  0  0  0  0  0  0  0999 V2000
   55.1370   29.5870   44.8630 O   0  0  0  0  0  0  0  0  0  0  0  0
   56.3080   29.6590   44.3980 C   0  0  0  0  0  0  0  0  0  0  0  0
   57.1640   28.4310   44.3590 C   0  0  0  0  0  0  0  0  0  0  0  0
   58.5320   28.7400   44.6190 O   0  0  0  0  0  0  0  0  0  0  0  0
   59.1780   28.4400   45.8240 C   0  0  0  0  0  0  0  0  0  0  0  0
   59.9370   29.2850   46.3740 O   0  0  0  0  0  0  0  0  0  0  0  0
   59.0070   27.0830   46.4400 C   0  0  0  0  0  0  0  0  0  0  0  0
   57.5650   26.8250   46.9030 C   0  0  0  0  0  0  0  0  0  0  0  0
   56.9560   25.6160   46.2300 C   0  0  0  0  0  0  0  0  0  0  0  0
   57.7500   24.4790   45.9960 C   0  0  0  0  0  0  0  0  0  0  0  0
   57.2160   23.3650   45.3410 C   0  0  0  0  0  0  0  0  0  0  0  0
   55.8860   23.3750   44.9160 C   0  0  0  0  0  0  0  0  0  0  0  0
   55.0850   24.4950   45.1500 C   0  0  0  0  0  0  0  0  0  0  0  0
   55.6110   25.6120   45.8070 C   0  0  0  0  0  0  0  0  0  0  0  0
   54.7920   26.7110   46.0360 O   0  0  0  0  0  0  0  0  0  0  0  0
   56.8170   30.8990   43.8910 N   0  0  0  0  0  0  0  0  0  0  0  0
   57.5100   31.8930   44.6570 C   0  0  0  0  0  0  0  0  0  0  0  0
   58.1450   31.5840   45.8750 C   0  0  0  0  0  0  0  0  0  0  0  0
   58.8410   32.5710   46.5780 C   0  0  0  0  0  0  0  0  0  0  0  0
   58.9320   33.8730   46.0660 C   0  0  0  0  0  0  0  0  0  0  0  0
   59.6970   34.9000   46.7970 C   0  0  0  0  0  0  0  0  0  0  0  0
   59.6480   36.0970   46.4070 O   0  0  0  0  0  0  0  0  0  0  0  0
   60.4760   34.5810   47.9600 N   0  0  0  0  0  0  0  0  0  0  0  0
   59.9460   34.2170   49.2730 C   0  0  0  0  0  0  0  0  0  0  0  0
   59.8860   32.7230   49.4270 C   0  0  0  0  0  0  0  0  0  0  0  0
   60.9800   31.9180   49.0740 C   0  0  0  0  0  0  0  0  0  0  0  0
   60.8800   30.5320   49.2010 C   0  0  0  0  0  0  0  0  0  0  0  0
   59.7020   29.9610   49.6860 C   0  0  0  0  0  0  0  0  0  0  0  0
   58.6360   30.7930   50.0400 C   0  0  0  0  0  0  0  0  0  0  0  0
   58.7490   32.1410   49.9010 N   0  0  0  0  0  0  0  0  0  0  0  0
   58.2950   34.1840   44.8560 C   0  0  0  0  0  0  0  0  0  0  0  0
   57.6030   33.1950   44.1510 C   0  0  0  0  0  0  0  0  0  0  0  0
   56.8067   27.7217   45.1201 H   0  0  0  0  0  0  0  0  0  0  0  0
   57.0940   27.9928   43.3525 H   0  0  0  0  0  0  0  0  0  0  0  0
   59.2803   26.3206   45.6956 H   0  0  0  0  0  0  0  0  0  0  0  0
   59.6567   27.0338   47.3263 H   0  0  0  0  0  0  0  0  0  0  0  0
   57.5662   26.6616   47.9908 H   0  0  0  0  0  0  0  0  0  0  0  0
   56.9609   27.7029   46.6303 H   0  0  0  0  0  0  0  0  0  0  0  0
   58.7979   24.4660   46.3304 H   0  0  0  0  0  0  0  0  0  0  0  0
   57.8441   22.4802   45.1604 H   0  0  0  0  0  0  0  0  0  0  0  0
   55.4686   22.4999   44.3964 H   0  0  0  0  0  0  0  0  0  0  0  0
   54.0368   24.4986   44.8164 H   0  0  0  0  0  0  0  0  0  0  0  0
   58.0930   30.5607   46.2752 H   0  0  0  0  0  0  0  0  0  0  0  0
   59.3196   32.3253   47.5374 H   0  0  0  0  0  0  0  0  0  0  0  0
   60.5985   34.6345   50.0540 H   0  0  0  0  0  0  0  0  0  0  0  0
   58.9282   34.6232   49.3682 H   0  0  0  0  0  0  0  0  0  0  0  0
   61.9080   32.3755   48.7005 H   0  0  0  0  0  0  0  0  0  0  0  0
   61.7280   29.8904   48.9194 H   0  0  0  0  0  0  0  0  0  0  0  0
   59.6137   28.8693   49.7884 H   0  0  0  0  0  0  0  0  0  0  0  0
   57.7050   30.3570   50.4313 H   0  0  0  0  0  0  0  0  0  0  0  0
   58.3400   35.2094   44.4604 H   0  0  0  0  0  0  0  0  0  0  0  0
   57.1274   33.4419   43.1903 H   0  0  0  0  0  0  0  0  0  0  0  0
  1  2  2  0
  2  3  1  0
  3  4  1  0
  4  5  1  0
  5  6  2  0
  5  7  1  0
  7  8  1  0
  8  9  1  0
  9 10  2  0
 10 11  1  0
 11 12  2  0
 12 13  1  0
 13 14  2  0
 14 15  1  0
  2 16  1  0
 16 17  1  0
 17 18  2  0
 18 19  1  0
 19 20  2  0
 20 21  1  0
 21 22  2  0
 21 23  1  0
 23 24  1  0
 24 25  1  0
 25 26  2  0
 26 27  1  0
 27 28  2  0
 28 29  1  0
 29 30  2  0
 20 31  1  0
 31 32  2  0
 14  9  1  0
 32 17  1  0
 30 25  1  0
  3 33  1  0
  3 34  1  0
  7 35  1  0
  7 36  1  0
  8 37  1  0
  8 38  1  0
 10 39  1  0
 11 40  1  0
 12 41  1  0
 13 42  1  0
 18 43  1  0
 19 44  1  0
 24 45  1  0
 24 46  1  0
 26 47  1  0
 27 48  1  0
 28 49  1  0
 29 50  1  0
 31 51  1  0
 32 52  1  0
M  CHG  3  15  -1  16  -1  23  -1
M  END
>  <UniqueID>  (73) 
68

>  <SMILES>  (73) 
O=C(COC(=O)CCc1ccccc1[O-])[N-]c1ccc(C(=O)[N-]Cc2ccccn2)cc1

>  <Energy>  (73) 
55.19519978023686

>  <Genealogy>  (73) 
O=C(COC(=O)CCc1ccccc1[O-])[N-]c1ccc(C(=O)[N-]Cc2ccccn2)cc1 (protonated)
O=C(COC(=O)CCc1ccccc1[O-])[N-]c1ccc(C(=O)[N-]Cc2ccccn2)cc1 (3D coordinates assigned)
O=C(COC(=O)CCc1ccccc1[O-])[N-]c1ccc(C(=O)[N-]Cc2ccccn2)cc1 (optimized conformer: 55.19519978023686 kcal/mol)

>  <smiles>  (73) 
O=C(COC(=O)CCc1ccccc1O)Nc1ccc(C(=O)NCc2ccccn2)cc1

>  <score_type>  (73) 
oracle

>  <origin>  (73) 
adg

>  <m_score__min__energy>  (73) 
-14.91

>  <m_primary>  (73) 
energy

$$$$
75:0
     RDKit          3D

 40 42  0  0  0  0  0  0  0  0999 V2000
   57.7661   24.7417   47.1451 H   0  0  0  0  0  0  0  0  0  0  0  0
   57.3480   24.8860   46.1380 C   0  0  0  0  0  0  0  0  0  0  0  0
   57.0150   23.6700   45.3670 C   0  0  0  0  0  0  0  0  0  0  0  0
   57.2670   23.6270   43.9850 C   0  0  0  0  0  0  0  0  0  0  0  0
   57.6759   24.5122   43.4759 H   0  0  0  0  0  0  0  0  0  0  0  0
   57.0010   22.4660   43.2540 C   0  0  0  0  0  0  0  0  0  0  0  0
   57.1879   22.4438   42.1702 H   0  0  0  0  0  0  0  0  0  0  0  0
   56.4980   21.3340   43.8990 C   0  0  0  0  0  0  0  0  0  0  0  0
   56.2834   20.4226   43.3217 H   0  0  0  0  0  0  0  0  0  0  0  0
   56.2670   21.3580   45.2770 C   0  0  0  0  0  0  0  0  0  0  0  0
   55.8762   20.4625   45.7824 H   0  0  0  0  0  0  0  0  0  0  0  0
   56.5310   22.5180   46.0180 C   0  0  0  0  0  0  0  0  0  0  0  0
   56.2270   22.5040   47.7510 Cl  0  0  0  0  0  0  0  0  0  0  0  0
   57.1850   26.1570   45.7170 C   0  0  0  0  0  0  0  0  0  0  0  0
   58.2880   26.8190   45.2720 N   0  0  0  0  0  0  0  0  0  0  0  0
   58.2440   28.0970   44.8180 C   0  0  0  0  0  0  0  0  0  0  0  0
   59.3080   28.6430   44.4170 O   0  0  0  0  0  0  0  0  0  0  0  0
   57.0140   28.7820   44.7990 C   0  0  0  0  0  0  0  0  0  0  0  0
   56.9220   30.0560   44.3670 C   0  0  0  0  0  0  0  0  0  0  0  0
   56.2773   30.2581   43.4990 H   0  0  0  0  0  0  0  0  0  0  0  0
   57.6310   31.2020   44.9830 C   0  0  0  0  0  0  0  0  0  0  0  0
   57.6830   32.4630   44.3630 C   0  0  0  0  0  0  0  0  0  0  0  0
   57.1691   32.6224   43.4036 H   0  0  0  0  0  0  0  0  0  0  0  0
   58.3840   33.5150   44.9590 C   0  0  0  0  0  0  0  0  0  0  0  0
   58.4046   34.5021   44.4741 H   0  0  0  0  0  0  0  0  0  0  0  0
   59.0610   33.3200   46.1710 C   0  0  0  0  0  0  0  0  0  0  0  0
   59.9340   34.6580   46.9200 S   0  0  0  0  0  0  0  0  0  0  0  0
   59.9280   35.8460   45.9990 O   0  0  0  0  0  0  0  0  0  0  0  0
   59.2730   35.0490   48.2130 O   0  0  0  0  0  0  0  0  0  0  0  0
   61.6090   34.1630   47.2520 C   0  0  0  0  0  0  0  0  0  0  0  0
   61.7687   34.1158   48.3393 H   0  0  0  0  0  0  0  0  0  0  0  0
   61.7928   33.1721   46.8110 H   0  0  0  0  0  0  0  0  0  0  0  0
   62.3019   34.8948   46.8110 H   0  0  0  0  0  0  0  0  0  0  0  0
   59.0290   32.0550   46.7820 C   0  0  0  0  0  0  0  0  0  0  0  0
   59.6900   31.8330   47.9860 O   0  0  0  0  0  0  0  0  0  0  0  0
   58.3270   31.0030   46.1840 C   0  0  0  0  0  0  0  0  0  0  0  0
   58.3209   30.0113   46.6599 H   0  0  0  0  0  0  0  0  0  0  0  0
   55.9130   28.1350   45.2700 N   0  0  0  0  0  0  0  0  0  0  0  0
   55.9540   26.8580   45.7300 C   0  0  0  0  0  0  0  0  0  0  0  0
   54.8970   26.3450   46.1840 O   0  0  0  0  0  0  0  0  0  0  0  0
  1  2  1  0
  2  3  1  0
  3  4  2  0
  4  5  1  0
  4  6  1  0
  6  7  1  0
  6  8  2  0
  8  9  1  0
  8 10  1  0
 10 11  1  0
 10 12  2  0
 12 13  1  0
  2 14  2  3
 14 15  1  0
 15 16  1  0
 16 17  2  0
 16 18  1  0
 18 19  2  0
 19 20  1  0
 19 21  1  0
 21 22  2  0
 22 23  1  0
 22 24  1  0
 24 25  1  0
 24 26  2  0
 26 27  1  0
 27 28  2  0
 27 29  2  0
 27 30  1  0
 30 31  1  0
 30 32  1  0
 30 33  1  0
 26 34  1  0
 34 35  1  0
 34 36  2  0
 36 37  1  0
 18 38  1  0
 38 39  1  0
 39 40  2  0
 12  3  1  0
 39 14  1  0
 36 21  1  0
M  CHG  3  15  -1  35  -1  38  -1
M  END
>  <UniqueID>  (74) 
69

>  <SMILES>  (74) 
CS(=O)(=O)c1ccc(/C=c2\[n-]c(=O)c(=Cc3ccccc3Cl)[n-]c2=O)cc1[O-]

>  <Energy>  (74) 
63.364030118833654

>  <Genealogy>  (74) 
CS(=O)(=O)c1ccc(C=c2[n-]c(=O)c(=Cc3ccccc3Cl)[n-]c2=O)cc1[O-] (protonated)
CS(=O)(=O)c1ccc(/C=c2\[n-]c(=O)c(=Cc3ccccc3Cl)[n-]c2=O)cc1[O-] (cis-trans isomerization)
CS(=O)(=O)c1ccc(/C=c2\[n-]c(=O)c(=Cc3ccccc3Cl)[n-]c2=O)cc1[O-] (3D coordinates assigned)
CS(=O)(=O)c1ccc(/C=c2\[n-]c(=O)c(=Cc3ccccc3Cl)[n-]c2=O)cc1[O-] (optimized conformer: 63.364030118833654 kcal/mol)

>  <smiles>  (74) 
CS(=O)(=O)c1ccc(C=c2[nH]c(=O)c(=Cc3ccccc3Cl)[nH]c2=O)cc1O

>  <score_type>  (74) 
oracle

>  <origin>  (74) 
adg

>  <m_score__min__energy>  (74) 
-14.27

>  <m_primary>  (74) 
energy

$$$$
76:0
     RDKit          3D

 39 41  0  0  0  0  0  0  0  0999 V2000
   55.0690   26.3360   45.9760 N   0  0  0  0  0  0  0  0  0  0  0  0
   56.7960   26.3700   45.9230 S   0  0  0  0  0  0  0  0  0  0  0  0
   57.2820   25.4660   44.8260 O   0  0  0  0  0  0  0  0  0  0  0  0
   57.3460   25.8780   47.2320 O   0  0  0  0  0  0  0  0  0  0  0  0
   57.3430   28.0170   45.6310 C   0  0  0  0  0  0  0  0  0  0  0  0
   58.6230   28.4200   46.0380 C   0  0  0  0  0  0  0  0  0  0  0  0
   59.0590   29.7260   45.7930 C   0  0  0  0  0  0  0  0  0  0  0  0
   58.2230   30.6440   45.1480 C   0  0  0  0  0  0  0  0  0  0  0  0
   58.7030   31.9410   44.9100 O   0  0  0  0  0  0  0  0  0  0  0  0
   59.2460   32.7950   45.8810 C   0  0  0  0  0  0  0  0  0  0  0  0
   58.7440   34.0970   45.9890 C   0  0  0  0  0  0  0  0  0  0  0  0
   59.2580   34.9760   46.9450 C   0  0  0  0  0  0  0  0  0  0  0  0
   60.2930   34.5670   47.7900 C   0  0  0  0  0  0  0  0  0  0  0  0
   60.8370   33.2780   47.6670 C   0  0  0  0  0  0  0  0  0  0  0  0
   61.9180   32.8250   48.5710 C   0  0  0  0  0  0  0  0  0  0  0  0
   61.6000   32.4730   49.8530 N   0  0  0  0  0  0  0  0  0  0  0  0
   62.5480   32.0850   50.7500 C   0  0  0  0  0  0  0  0  0  0  0  0
   62.2150   31.7740   51.9250 O   0  0  0  0  0  0  0  0  0  0  0  0
   63.8900   32.0330   50.3730 C   0  0  0  0  0  0  0  0  0  0  0  0
   64.2460   32.3710   49.0690 C   0  0  0  0  0  0  0  0  0  0  0  0
   63.2670   32.7600   48.1460 C   0  0  0  0  0  0  0  0  0  0  0  0
   63.6500   33.0300   46.7910 N   0  0  0  0  0  0  0  0  0  0  0  0
   60.3070   32.3940   46.7130 C   0  0  0  0  0  0  0  0  0  0  0  0
   56.9500   30.2300   44.7160 C   0  0  0  0  0  0  0  0  0  0  0  0
   56.5130   28.9250   44.9610 C   0  0  0  0  0  0  0  0  0  0  0  0
   54.7690   27.0940   46.6280 H   0  0  0  0  0  0  0  0  0  0  0  0
   59.2855   27.7074   46.5510 H   0  0  0  0  0  0  0  0  0  0  0  0
   60.0665   30.0338   46.1097 H   0  0  0  0  0  0  0  0  0  0  0  0
   57.9396   34.4301   45.3167 H   0  0  0  0  0  0  0  0  0  0  0  0
   58.8471   35.9926   47.0329 H   0  0  0  0  0  0  0  0  0  0  0  0
   60.6827   35.2564   48.5535 H   0  0  0  0  0  0  0  0  0  0  0  0
   60.6030   32.5190   50.1680 H   0  0  0  0  0  0  0  0  0  0  0  0
   64.6593   31.7283   51.0978 H   0  0  0  0  0  0  0  0  0  0  0  0
   65.3018   32.3321   48.7627 H   0  0  0  0  0  0  0  0  0  0  0  0
   64.5670   32.6890   46.4230 H   0  0  0  0  0  0  0  0  0  0  0  0
   63.0060   33.4960   46.1160 H   0  0  0  0  0  0  0  0  0  0  0  0
   60.7245   31.3810   46.6157 H   0  0  0  0  0  0  0  0  0  0  0  0
   56.2958   30.9359   44.1833 H   0  0  0  0  0  0  0  0  0  0  0  0
   55.5136   28.6099   44.6264 H   0  0  0  0  0  0  0  0  0  0  0  0
  1  2  1  0
  2  3  2  0
  2  4  2  0
  2  5  1  0
  5  6  2  0
  6  7  1  0
  7  8  2  0
  8  9  1  0
  9 10  1  0
 10 11  2  0
 11 12  1  0
 12 13  2  0
 13 14  1  0
 14 15  1  0
 15 16  1  0
 16 17  1  0
 17 18  2  0
 17 19  1  0
 19 20  2  0
 20 21  1  0
 21 22  1  0
 14 23  2  0
  8 24  1  0
 24 25  2  0
 25  5  1  0
 23 10  1  0
 21 15  2  0
  1 26  1  0
  6 27  1  0
  7 28  1  0
 11 29  1  0
 12 30  1  0
 13 31  1  0
 16 32  1  0
 19 33  1  0
 20 34  1  0
 22 35  1  0
 22 36  1  0
 23 37  1  0
 24 38  1  0
 25 39  1  0
M  CHG  1   1  -1
M  END
>  <UniqueID>  (75) 
70

>  <SMILES>  (75) 
[NH-]S(=O)(=O)c1ccc(Oc2cccc(-c3[nH]c(=O)ccc3N)c2)cc1

>  <Energy>  (75) 
55.239738764722055

>  <Genealogy>  (75) 
[NH-]S(=O)(=O)c1ccc(Oc2cccc(-c3[nH]c(=O)ccc3N)c2)cc1 (protonated)
[NH-]S(=O)(=O)c1ccc(Oc2cccc(-c3[nH]c(=O)ccc3N)c2)cc1 (3D coordinates assigned)
[NH-]S(=O)(=O)c1ccc(Oc2cccc(-c3[nH]c(=O)ccc3N)c2)cc1 (optimized conformer: 55.239738764722055 kcal/mol)

>  <smiles>  (75) 
Nc1ccc(=O)[nH]c1-c1cccc(Oc2ccc(S(N)(=O)=O)cc2)c1

>  <score_type>  (75) 
oracle

>  <origin>  (75) 
adg

>  <m_score__min__energy>  (75) 
-10.59

>  <m_primary>  (75) 
energy

$$$$
77:0
     RDKit          3D

 48 50  0  0  0  0  0  0  0  0999 V2000
   59.9440   34.9630   47.1520 C   0  0  0  0  0  0  0  0  0  0  0  0
   58.8910   34.5760   46.1500 C   0  0  0  0  0  0  0  0  0  0  0  0
   58.9680   35.0820   45.0390 O   0  0  0  0  0  0  0  0  0  0  0  0
   57.8080   33.6400   46.4280 N   0  0  0  0  0  0  0  0  0  0  0  0
   57.0250   33.2650   45.2280 C   0  0  0  0  0  0  0  0  0  0  0  0
   57.6110   32.0910   44.4400 C   0  0  0  0  0  0  0  0  0  0  0  0
   57.9560   30.9860   45.3380 N   0  0  0  0  0  0  0  0  0  0  0  0
   57.7140   29.6230   44.9270 C   0  0  0  0  0  0  0  0  0  0  0  0
   56.7410   29.3600   44.1690 O   0  0  0  0  0  0  0  0  0  0  0  0
   58.5720   28.5120   45.3920 C   0  0  0  0  0  0  0  0  0  0  0  0
   59.9550   28.7080   45.5290 C   0  0  0  0  0  0  0  0  0  0  0  0
   60.7720   27.6770   45.9990 C   0  0  0  0  0  0  0  0  0  0  0  0
   60.2150   26.4410   46.3350 C   0  0  0  0  0  0  0  0  0  0  0  0
   58.8400   26.2330   46.2010 C   0  0  0  0  0  0  0  0  0  0  0  0
   58.0130   27.2620   45.7290 C   0  0  0  0  0  0  0  0  0  0  0  0
   56.6050   27.0470   45.6120 N   0  0  0  0  0  0  0  0  0  0  0  0
   55.8680   25.5540   46.0800 S   0  0  0  0  0  0  0  0  0  0  0  0
   56.2350   25.2390   47.5010 O   0  0  0  0  0  0  0  0  0  0  0  0
   54.3730   25.6760   45.9790 O   0  0  0  0  0  0  0  0  0  0  0  0
   56.4490   24.2740   45.0200 C   0  0  0  0  0  0  0  0  0  0  0  0
   55.8090   24.0070   43.8010 C   0  0  0  0  0  0  0  0  0  0  0  0
   56.2730   22.9800   42.9740 C   0  0  0  0  0  0  0  0  0  0  0  0
   57.3790   22.2150   43.3600 C   0  0  0  0  0  0  0  0  0  0  0  0
   58.0210   22.4790   44.5730 C   0  0  0  0  0  0  0  0  0  0  0  0
   57.5570   23.5050   45.4020 C   0  0  0  0  0  0  0  0  0  0  0  0
   58.7540   31.2810   46.5330 C   0  0  0  0  0  0  0  0  0  0  0  0
   58.2020   32.4990   47.2880 C   0  0  0  0  0  0  0  0  0  0  0  0
   59.5522   34.8190   48.1697 H   0  0  0  0  0  0  0  0  0  0  0  0
   60.8347   34.3335   47.0095 H   0  0  0  0  0  0  0  0  0  0  0  0
   60.2151   36.0195   47.0095 H   0  0  0  0  0  0  0  0  0  0  0  0
   57.1270   34.1790   47.0170 H   0  0  0  0  0  0  0  0  0  0  0  0
   56.0092   32.9920   45.5500 H   0  0  0  0  0  0  0  0  0  0  0  0
   57.0386   34.1358   44.5560 H   0  0  0  0  0  0  0  0  0  0  0  0
   56.8692   31.7422   43.7065 H   0  0  0  0  0  0  0  0  0  0  0  0
   58.5239   32.4291   43.9279 H   0  0  0  0  0  0  0  0  0  0  0  0
   60.3983   29.6794   45.2647 H   0  0  0  0  0  0  0  0  0  0  0  0
   61.8549   27.8387   46.1046 H   0  0  0  0  0  0  0  0  0  0  0  0
   60.8597   25.6304   46.7056 H   0  0  0  0  0  0  0  0  0  0  0  0
   58.4047   25.2584   46.4668 H   0  0  0  0  0  0  0  0  0  0  0  0
   54.9396   24.6073   43.4949 H   0  0  0  0  0  0  0  0  0  0  0  0
   55.7681   22.7731   42.0189 H   0  0  0  0  0  0  0  0  0  0  0  0
   57.7430   21.4063   42.7092 H   0  0  0  0  0  0  0  0  0  0  0  0
   58.8920   21.8792   44.8758 H   0  0  0  0  0  0  0  0  0  0  0  0
   58.0631   23.7093   46.3570 H   0  0  0  0  0  0  0  0  0  0  0  0
   58.7351   30.4071   47.2008 H   0  0  0  0  0  0  0  0  0  0  0  0
   59.7826   31.5071   46.2156 H   0  0  0  0  0  0  0  0  0  0  0  0
   57.3163   32.1768   47.8553 H   0  0  0  0  0  0  0  0  0  0  0  0
   59.0200   32.8625   47.9274 H   0  0  0  0  0  0  0  0  0  0  0  0
  1  2  1  0
  2  3  2  0
  2  4  1  0
  4  5  1  0
  5  6  1  0
  6  7  1  0
  7  8  1  0
  8  9  2  0
  8 10  1  0
 10 11  2  0
 11 12  1  0
 12 13  2  0
 13 14  1  0
 14 15  2  0
 15 16  1  0
 16 17  1  0
 17 18  2  0
 17 19  2  0
 17 20  1  0
 20 21  2  0
 21 22  1  0
 22 23  2  0
 23 24  1  0
 24 25  2  0
  7 26  1  0
 26 27  1  0
 27  4  1  0
 15 10  1  0
 25 20  1  0
  1 28  1  0
  1 29  1  0
  1 30  1  0
  4 31  1  0
  5 32  1  0
  5 33  1  0
  6 34  1  0
  6 35  1  0
 11 36  1  0
 12 37  1  0
 13 38  1  0
 14 39  1  0
 21 40  1  0
 22 41  1  0
 23 42  1  0
 24 43  1  0
 25 44  1  0
 26 45  1  0
 26 46  1  0
 27 47  1  0
 27 48  1  0
M  CHG  2   4   1  16  -1
M  END
>  <UniqueID>  (76) 
71

>  <SMILES>  (76) 
CC(=O)[NH+]1CCN(C(=O)c2ccccc2[N-]S(=O)(=O)c2ccccc2)CC1

>  <Energy>  (76) 
70.95412243618003

>  <Genealogy>  (76) 
CC(=O)[NH+]1CCN(C(=O)c2ccccc2[N-]S(=O)(=O)c2ccccc2)CC1 (protonated)
CC(=O)[NH+]1CCN(C(=O)c2ccccc2[N-]S(=O)(=O)c2ccccc2)CC1 (3D coordinates assigned)
CC(=O)[NH+]1CCN(C(=O)c2ccccc2[N-]S(=O)(=O)c2ccccc2)CC1 (nonaromatic ring conformer: 70.95412243618003 kcal/mol)

>  <smiles>  (76) 
CC(=O)N1CCN(C(=O)c2ccccc2NS(=O)(=O)c2ccccc2)CC1

>  <score_type>  (76) 
oracle

>  <origin>  (76) 
adg

>  <m_score__min__energy>  (76) 
-9.3699999999999992

>  <m_primary>  (76) 
energy

$$$$
78:0
     RDKit          3D

 53 56  0  0  0  0  0  0  0  0999 V2000
   58.0660   34.2230   46.8380 O   0  0  0  0  0  0  0  0  0  0  0  0
   58.8320   33.3110   46.4180 C   0  0  0  0  0  0  0  0  0  0  0  0
   60.1470   33.1780   46.9790 N   0  0  0  0  0  0  0  0  0  0  0  0
   60.6860   34.1820   47.8960 C   0  0  0  0  0  0  0  0  0  0  0  0
   62.0000   33.7310   48.4620 C   0  0  0  0  0  0  0  0  0  0  0  0
   62.5150   34.3170   49.6280 C   0  0  0  0  0  0  0  0  0  0  0  0
   63.7220   33.8500   50.1530 C   0  0  0  0  0  0  0  0  0  0  0  0
   64.3950   32.8040   49.5210 C   0  0  0  0  0  0  0  0  0  0  0  0
   63.8470   32.2350   48.3700 C   0  0  0  0  0  0  0  0  0  0  0  0
   62.6710   32.7030   47.8720 N   0  0  0  0  0  0  0  0  0  0  0  0
   58.3490   32.3830   45.3690 C   0  0  0  0  0  0  0  0  0  0  0  0
   57.8310   32.8920   44.1650 C   0  0  0  0  0  0  0  0  0  0  0  0
   57.3780   32.0270   43.1670 C   0  0  0  0  0  0  0  0  0  0  0  0
   57.4420   30.6450   43.3530 C   0  0  0  0  0  0  0  0  0  0  0  0
   57.9670   30.1100   44.5410 C   0  0  0  0  0  0  0  0  0  0  0  0
   58.0440   28.6390   44.7350 C   0  0  0  0  0  0  0  0  0  0  0  0
   58.1720   28.0940   46.0250 C   0  0  0  0  0  0  0  0  0  0  0  0
   58.2450   26.7120   46.2080 C   0  0  0  0  0  0  0  0  0  0  0  0
   58.1820   25.8430   45.1060 C   0  0  0  0  0  0  0  0  0  0  0  0
   58.2690   24.3760   45.2910 C   0  0  0  0  0  0  0  0  0  0  0  0
   59.2230   23.9020   45.9650 O   0  0  0  0  0  0  0  0  0  0  0  0
   57.2990   23.4810   44.7110 N   0  0  0  0  0  0  0  0  0  0  0  0
   56.8360   22.3050   45.4510 C   0  0  0  0  0  0  0  0  0  0  0  0
   56.6990   21.1170   44.4940 C   0  0  0  0  0  0  0  0  0  0  0  0
   55.9050   21.4620   43.3730 O   0  0  0  0  0  0  0  0  0  0  0  0
   56.5580   22.4620   42.6130 C   0  0  0  0  0  0  0  0  0  0  0  0
   56.6770   23.7630   43.4130 C   0  0  0  0  0  0  0  0  0  0  0  0
   58.0730   26.3860   43.8160 C   0  0  0  0  0  0  0  0  0  0  0  0
   57.9990   27.7690   43.6320 C   0  0  0  0  0  0  0  0  0  0  0  0
   58.4240   30.9880   45.5420 C   0  0  0  0  0  0  0  0  0  0  0  0
   60.7080   32.3220   46.7720 H   0  0  0  0  0  0  0  0  0  0  0  0
   60.8323   35.1267   47.3519 H   0  0  0  0  0  0  0  0  0  0  0  0
   59.9746   34.3244   48.7228 H   0  0  0  0  0  0  0  0  0  0  0  0
   61.9735   35.1361   50.1238 H   0  0  0  0  0  0  0  0  0  0  0  0
   64.1409   34.3057   51.0623 H   0  0  0  0  0  0  0  0  0  0  0  0
   65.3477   32.4314   49.9255 H   0  0  0  0  0  0  0  0  0  0  0  0
   64.3668   31.4073   47.8653 H   0  0  0  0  0  0  0  0  0  0  0  0
   57.7823   33.9797   44.0082 H   0  0  0  0  0  0  0  0  0  0  0  0
   56.9693   32.4359   42.2311 H   0  0  0  0  0  0  0  0  0  0  0  0
   57.0788   29.9703   42.5638 H   0  0  0  0  0  0  0  0  0  0  0  0
   58.2150   28.7625   46.8975 H   0  0  0  0  0  0  0  0  0  0  0  0
   58.3526   26.3005   47.2224 H   0  0  0  0  0  0  0  0  0  0  0  0
   57.5631   22.0585   46.2388 H   0  0  0  0  0  0  0  0  0  0  0  0
   55.8586   22.5216   45.9068 H   0  0  0  0  0  0  0  0  0  0  0  0
   57.6988   20.8153   44.1484 H   0  0  0  0  0  0  0  0  0  0  0  0
   56.2120   20.2883   45.0288 H   0  0  0  0  0  0  0  0  0  0  0  0
   57.5651   22.1106   42.3443 H   0  0  0  0  0  0  0  0  0  0  0  0
   55.9663   22.6585   41.7067 H   0  0  0  0  0  0  0  0  0  0  0  0
   57.2979   24.4806   42.8566 H   0  0  0  0  0  0  0  0  0  0  0  0
   55.6759   24.1908   43.5703 H   0  0  0  0  0  0  0  0  0  0  0  0
   58.0456   25.7172   42.9431 H   0  0  0  0  0  0  0  0  0  0  0  0
   57.9048   28.1801   42.6161 H   0  0  0  0  0  0  0  0  0  0  0  0
   58.8454   30.5785   46.4719 H   0  0  0  0  0  0  0  0  0  0  0  0
  1  2  2  0
  2  3  1  0
  3  4  1  0
  4  5  1  0
  5  6  2  0
  6  7  1  0
  7  8  2  0
  8  9  1  0
  9 10  2  0
  2 11  1  0
 11 12  2  0
 12 13  1  0
 13 14  2  0
 14 15  1  0
 15 16  1  0
 16 17  2  0
 17 18  1  0
 18 19  2  0
 19 20  1  0
 20 21  2  0
 20 22  1  0
 22 23  1  0
 23 24  1  0
 24 25  1  0
 25 26  1  0
 26 27  1  0
 19 28  1  0
 28 29  2  0
 15 30  2  0
 10  5  1  0
 30 11  1  0
 29 16  1  0
 27 22  1  0
  3 31  1  0
  4 32  1  0
  4 33  1  0
  6 34  1  0
  7 35  1  0
  8 36  1  0
  9 37  1  0
 12 38  1  0
 13 39  1  0
 14 40  1  0
 17 41  1  0
 18 42  1  0
 23 43  1  0
 23 44  1  0
 24 45  1  0
 24 46  1  0
 26 47  1  0
 26 48  1  0
 27 49  1  0
 27 50  1  0
 28 51  1  0
 29 52  1  0
 30 53  1  0
M  END
>  <UniqueID>  (77) 
72

>  <SMILES>  (77) 
O=C(NCc1ccccn1)c1cccc(-c2ccc(C(=O)N3CCOCC3)cc2)c1

>  <Energy>  (77) 
69.37538405458052

>  <Genealogy>  (77) 
O=C(NCc1ccccn1)c1cccc(-c2ccc(C(=O)N3CCOCC3)cc2)c1 (3D coordinates assigned)
O=C(NCc1ccccn1)c1cccc(-c2ccc(C(=O)N3CCOCC3)cc2)c1 (nonaromatic ring conformer: 69.37538405458052 kcal/mol)

>  <smiles>  (77) 
O=C(NCc1ccccn1)c1cccc(-c2ccc(C(=O)N3CCOCC3)cc2)c1

>  <score_type>  (77) 
oracle

>  <origin>  (77) 
adg

>  <m_score__min__energy>  (77) 
-9.4900000000000002

>  <m_primary>  (77) 
energy

$$$$
79:0
     RDKit          3D

 57 60  0  0  0  0  0  0  0  0999 V2000
   53.4040   24.8680   45.5760 O   0  0  0  0  0  0  0  0  0  0  0  0
   54.6570   24.9300   45.4690 C   0  0  0  0  0  0  0  0  0  0  0  0
   55.3420   26.0570   46.0300 N   0  0  0  0  0  0  0  0  0  0  0  0
   56.6030   25.9880   46.7570 C   0  0  0  0  0  0  0  0  0  0  0  0
   57.5450   27.0230   46.2150 C   0  0  0  0  0  0  0  0  0  0  0  0
   57.4530   27.4280   44.8760 C   0  0  0  0  0  0  0  0  0  0  0  0
   58.3040   28.4170   44.3790 C   0  0  0  0  0  0  0  0  0  0  0  0
   59.2420   29.0210   45.2190 C   0  0  0  0  0  0  0  0  0  0  0  0
   59.3300   28.6490   46.5710 C   0  0  0  0  0  0  0  0  0  0  0  0
   60.3200   29.2880   47.4710 C   0  0  0  0  0  0  0  0  0  0  0  0
   60.2310   29.1070   48.7140 O   0  0  0  0  0  0  0  0  0  0  0  0
   61.4140   30.0660   46.9670 N   0  0  0  0  0  0  0  0  0  0  0  0
   61.7080   31.4300   47.3020 C   0  0  0  0  0  0  0  0  0  0  0  0
   62.9980   31.9660   47.1490 C   0  0  0  0  0  0  0  0  0  0  0  0
   63.2440   33.3050   47.4620 C   0  0  0  0  0  0  0  0  0  0  0  0
   62.2060   34.1230   47.9130 C   0  0  0  0  0  0  0  0  0  0  0  0
   60.9090   33.6060   48.0500 C   0  0  0  0  0  0  0  0  0  0  0  0
   59.7890   34.5020   48.5130 C   0  0  0  0  0  0  0  0  0  0  0  0
   58.8990   34.8390   47.3820 N   0  0  0  0  0  0  0  0  0  0  0  0
   57.9750   33.7170   47.0980 C   0  0  0  0  0  0  0  0  0  0  0  0
   57.3780   33.8320   45.6900 C   0  0  0  0  0  0  0  0  0  0  0  0
   58.4140   33.7910   44.6400 N   0  0  0  0  0  0  0  0  0  0  0  0
   59.7480   34.2150   45.1010 C   0  0  0  0  0  0  0  0  0  0  0  0
   59.6560   35.2970   46.1880 C   0  0  0  0  0  0  0  0  0  0  0  0
   60.6650   32.2590   47.7360 C   0  0  0  0  0  0  0  0  0  0  0  0
   58.4790   27.6430   47.0610 C   0  0  0  0  0  0  0  0  0  0  0  0
   55.3680   23.8580   44.7450 C   0  0  0  0  0  0  0  0  0  0  0  0
   56.2690   24.1540   43.7120 C   0  0  0  0  0  0  0  0  0  0  0  0
   56.9440   23.1240   43.0560 C   0  0  0  0  0  0  0  0  0  0  0  0
   56.7220   21.8020   43.4490 C   0  0  0  0  0  0  0  0  0  0  0  0
   55.8610   21.5290   44.4660 N   0  0  0  0  0  0  0  0  0  0  0  0
   55.1930   22.5170   45.1200 C   0  0  0  0  0  0  0  0  0  0  0  0
   56.4223   26.1789   47.8251 H   0  0  0  0  0  0  0  0  0  0  0  0
   57.0445   24.9879   46.6351 H   0  0  0  0  0  0  0  0  0  0  0  0
   56.7069   26.9644   44.2139 H   0  0  0  0  0  0  0  0  0  0  0  0
   58.2355   28.7209   43.3240 H   0  0  0  0  0  0  0  0  0  0  0  0
   59.9162   29.7929   44.8196 H   0  0  0  0  0  0  0  0  0  0  0  0
   63.8164   31.3294   46.7817 H   0  0  0  0  0  0  0  0  0  0  0  0
   64.2584   33.7162   47.3529 H   0  0  0  0  0  0  0  0  0  0  0  0
   62.4058   35.1758   48.1616 H   0  0  0  0  0  0  0  0  0  0  0  0
   59.2077   33.9839   49.2900 H   0  0  0  0  0  0  0  0  0  0  0  0
   60.2183   35.4300   48.9186 H   0  0  0  0  0  0  0  0  0  0  0  0
   58.5271   32.7689   47.1771 H   0  0  0  0  0  0  0  0  0  0  0  0
   57.1530   33.7497   47.8283 H   0  0  0  0  0  0  0  0  0  0  0  0
   56.6801   32.9966   45.5318 H   0  0  0  0  0  0  0  0  0  0  0  0
   56.8640   34.8020   45.6194 H   0  0  0  0  0  0  0  0  0  0  0  0
   58.4940   32.8080   44.2850 H   0  0  0  0  0  0  0  0  0  0  0  0
   60.2777   33.3423   45.5106 H   0  0  0  0  0  0  0  0  0  0  0  0
   60.2897   34.6372   44.2417 H   0  0  0  0  0  0  0  0  0  0  0  0
   60.6745   35.5718   46.4997 H   0  0  0  0  0  0  0  0  0  0  0  0
   59.1190   36.1565   45.7604 H   0  0  0  0  0  0  0  0  0  0  0  0
   59.6476   31.8518   47.8315 H   0  0  0  0  0  0  0  0  0  0  0  0
   58.5452   27.3388   48.1160 H   0  0  0  0  0  0  0  0  0  0  0  0
   56.4438   25.1996   43.4185 H   0  0  0  0  0  0  0  0  0  0  0  0
   57.6436   23.3506   42.2380 H   0  0  0  0  0  0  0  0  0  0  0  0
   57.2439   20.9811   42.9356 H   0  0  0  0  0  0  0  0  0  0  0  0
   54.5126   22.2638   45.9464 H   0  0  0  0  0  0  0  0  0  0  0  0
  1  2  2  0
  2  3  1  0
  3  4  1  0
  4  5  1  0
  5  6  2  0
  6  7  1  0
  7  8  2  0
  8  9  1  0
  9 10  1  0
 10 11  2  0
 10 12  1  0
 12 13  1  0
 13 14  2  0
 14 15  1  0
 15 16  2  0
 16 17  1  0
 17 18  1  0
 18 19  1  0
 19 20  1  0
 20 21  1  0
 21 22  1  0
 22 23  1  0
 23 24  1  0
 17 25  2  0
  9 26  2  0
  2 27  1  0
 27 28  2  0
 28 29  1  0
 29 30  2  0
 30 31  1  0
 31 32  2  0
 26  5  1  0
 32 27  1  0
 25 13  1  0
 24 19  1  0
  4 33  1  0
  4 34  1  0
  6 35  1  0
  7 36  1  0
  8 37  1  0
 14 38  1  0
 15 39  1  0
 16 40  1  0
 18 41  1  0
 18 42  1  0
 20 43  1  0
 20 44  1  0
 21 45  1  0
 21 46  1  0
 22 47  1  0
 23 48  1  0
 23 49  1  0
 24 50  1  0
 24 51  1  0
 25 52  1  0
 26 53  1  0
 28 54  1  0
 29 55  1  0
 30 56  1  0
 32 57  1  0
M  CHG  2   3  -1  12  -1
M  END
>  <UniqueID>  (78) 
73

>  <SMILES>  (78) 
O=C([N-]Cc1cccc(C(=O)[N-]c2cccc(CN3CCNCC3)c2)c1)c1cccnc1

>  <Energy>  (78) 
81.5165846014127

>  <Genealogy>  (78) 
O=C([N-]Cc1cccc(C(=O)[N-]c2cccc(CN3CCNCC3)c2)c1)c1cccnc1 (protonated)
O=C([N-]Cc1cccc(C(=O)[N-]c2cccc(CN3CCNCC3)c2)c1)c1cccnc1 (3D coordinates assigned)
O=C([N-]Cc1cccc(C(=O)[N-]c2cccc(CN3CCNCC3)c2)c1)c1cccnc1 (nonaromatic ring conformer: 81.5165846014127 kcal/mol)

>  <smiles>  (78) 
O=C(NCc1cccc(C(=O)Nc2cccc(CN3CCNCC3)c2)c1)c1cccnc1

>  <score_type>  (78) 
oracle

>  <origin>  (78) 
adg

>  <m_score__min__energy>  (78) 
-14.609999999999999

>  <m_primary>  (78) 
energy

$$$$
80:0
     RDKit          3D

 51 54  0  0  0  0  0  0  0  0999 V2000
   56.8570   30.7850   42.4650 C   0  0  0  0  0  0  0  0  0  0  0  0
   57.4170   31.4100   43.6590 N   0  0  0  0  0  0  0  0  0  0  0  0
   57.5890   32.7130   43.7790 N   0  0  0  0  0  0  0  0  0  0  0  0
   58.1600   32.8940   44.9860 C   0  0  0  0  0  0  0  0  0  0  0  0
   58.4820   34.2410   45.5550 C   0  0  0  0  0  0  0  0  0  0  0  0
   59.9970   34.4730   45.5970 C   0  0  0  0  0  0  0  0  0  0  0  0
   60.5220   34.2770   46.9660 N   0  0  0  0  0  0  0  0  0  0  0  0
   61.1390   32.9370   47.1510 C   0  0  0  0  0  0  0  0  0  0  0  0
   60.2000   31.9250   47.8260 C   0  0  0  0  0  0  0  0  0  0  0  0
   59.6400   32.4740   49.0670 N   0  0  0  0  0  0  0  0  0  0  0  0
   58.9120   31.6180   49.9650 C   0  0  0  0  0  0  0  0  0  0  0  0
   59.2790   30.2730   50.1190 C   0  0  0  0  0  0  0  0  0  0  0  0
   58.5520   29.4550   50.9880 C   0  0  0  0  0  0  0  0  0  0  0  0
   57.4970   29.9600   51.6780 N   0  0  0  0  0  0  0  0  0  0  0  0
   57.1170   31.2610   51.5470 C   0  0  0  0  0  0  0  0  0  0  0  0
   57.8150   32.1110   50.6870 C   0  0  0  0  0  0  0  0  0  0  0  0
   59.7330   33.9160   49.3140 C   0  0  0  0  0  0  0  0  0  0  0  0
   59.5170   34.6530   47.9920 C   0  0  0  0  0  0  0  0  0  0  0  0
   58.3460   31.7370   45.6580 N   0  0  0  0  0  0  0  0  0  0  0  0
   57.8560   30.8230   44.7950 C   0  0  0  0  0  0  0  0  0  0  0  0
   57.8350   29.3740   45.0950 C   0  0  0  0  0  0  0  0  0  0  0  0
   59.0470   28.6760   45.2170 C   0  0  0  0  0  0  0  0  0  0  0  0
   59.0490   27.3120   45.5230 C   0  0  0  0  0  0  0  0  0  0  0  0
   57.8430   26.6350   45.7200 C   0  0  0  0  0  0  0  0  0  0  0  0
   56.6290   27.3260   45.6240 C   0  0  0  0  0  0  0  0  0  0  0  0
   55.4190   26.6650   45.8350 O   0  0  0  0  0  0  0  0  0  0  0  0
   56.6260   28.6920   45.3190 C   0  0  0  0  0  0  0  0  0  0  0  0
   56.1501   29.9960   42.7614 H   0  0  0  0  0  0  0  0  0  0  0  0
   56.3305   31.5433   41.8668 H   0  0  0  0  0  0  0  0  0  0  0  0
   57.6683   30.3446   41.8668 H   0  0  0  0  0  0  0  0  0  0  0  0
   58.0168   35.0164   44.9287 H   0  0  0  0  0  0  0  0  0  0  0  0
   58.0919   34.2893   46.5824 H   0  0  0  0  0  0  0  0  0  0  0  0
   60.4894   33.7623   44.9170 H   0  0  0  0  0  0  0  0  0  0  0  0
   60.2034   35.5076   45.2856 H   0  0  0  0  0  0  0  0  0  0  0  0
   61.4243   32.5444   46.1639 H   0  0  0  0  0  0  0  0  0  0  0  0
   62.0087   33.0665   47.8119 H   0  0  0  0  0  0  0  0  0  0  0  0
   59.3778   31.6820   47.1369 H   0  0  0  0  0  0  0  0  0  0  0  0
   60.7768   31.0211   48.0714 H   0  0  0  0  0  0  0  0  0  0  0  0
   60.1335   29.8648   49.5594 H   0  0  0  0  0  0  0  0  0  0  0  0
   58.8350   28.3995   51.1134 H   0  0  0  0  0  0  0  0  0  0  0  0
   56.2589   31.6428   52.1196 H   0  0  0  0  0  0  0  0  0  0  0  0
   57.5065   33.1610   50.5763 H   0  0  0  0  0  0  0  0  0  0  0  0
   58.9613   34.2185   50.0372 H   0  0  0  0  0  0  0  0  0  0  0  0
   60.7231   34.1636   49.7245 H   0  0  0  0  0  0  0  0  0  0  0  0
   58.5143   34.4092   47.6109 H   0  0  0  0  0  0  0  0  0  0  0  0
   59.6220   35.7305   48.1866 H   0  0  0  0  0  0  0  0  0  0  0  0
   60.0002   29.2053   45.0710 H   0  0  0  0  0  0  0  0  0  0  0  0
   60.0026   26.7704   45.6089 H   0  0  0  0  0  0  0  0  0  0  0  0
   57.8471   25.5594   45.9505 H   0  0  0  0  0  0  0  0  0  0  0  0
   55.1460   26.3400   46.7550 H   0  0  0  0  0  0  0  0  0  0  0  0
   55.6718   29.2354   45.2541 H   0  0  0  0  0  0  0  0  0  0  0  0
  1  2  1  0
  2  3  1  0
  3  4  2  0
  4  5  1  0
  5  6  1  0
  6  7  1  0
  7  8  1  0
  8  9  1  0
  9 10  1  0
 10 11  1  0
 11 12  2  0
 12 13  1  0
 13 14  2  0
 14 15  1  0
 15 16  2  0
 10 17  1  0
 17 18  1  0
  4 19  1  0
 19 20  2  0
 20 21  1  0
 21 22  2  0
 22 23  1  0
 23 24  2  0
 24 25  1  0
 25 26  1  0
 25 27  2  0
 20  2  1  0
 27 21  1  0
 18  7  1  0
 16 11  1  0
  1 28  1  0
  1 29  1  0
  1 30  1  0
  5 31  1  0
  5 32  1  0
  6 33  1  0
  6 34  1  0
  8 35  1  0
  8 36  1  0
  9 37  1  0
  9 38  1  0
 12 39  1  0
 13 40  1  0
 15 41  1  0
 16 42  1  0
 17 43  1  0
 17 44  1  0
 18 45  1  0
 18 46  1  0
 22 47  1  0
 23 48  1  0
 24 49  1  0
 26 50  1  0
 27 51  1  0
M  END
>  <UniqueID>  (79) 
74

>  <SMILES>  (79) 
Cn1nc(CCN2CCN(c3ccncc3)CC2)nc1-c1cccc(O)c1

>  <Energy>  (79) 
101.94391431458504

>  <Genealogy>  (79) 
Cn1nc(CCN2CCN(c3ccncc3)CC2)nc1-c1cccc(O)c1 (3D coordinates assigned)
Cn1nc(CCN2CCN(c3ccncc3)CC2)nc1-c1cccc(O)c1 (nonaromatic ring conformer: 101.94391431458504 kcal/mol)

>  <smiles>  (79) 
Cn1nc(CCN2CCN(c3ccncc3)CC2)nc1-c1cccc(O)c1

>  <score_type>  (79) 
oracle

>  <origin>  (79) 
adg

>  <m_score__min__energy>  (79) 
-8.7799999999999994

>  <m_primary>  (79) 
energy

$$$$
81:0
     RDKit          3D

 43 45  0  0  0  0  0  0  0  0999 V2000
   54.7100   26.3160   45.9890 N   0  0  0  0  0  0  0  0  0  0  0  0
   56.2900   25.6190   46.0220 S   0  0  0  0  0  0  0  0  0  0  0  0
   56.5600   25.0440   47.3850 O   0  0  0  0  0  0  0  0  0  0  0  0
   56.3730   24.5130   45.0070 O   0  0  0  0  0  0  0  0  0  0  0  0
   57.4830   26.8610   45.6550 C   0  0  0  0  0  0  0  0  0  0  0  0
   58.8400   26.5310   45.5620 C   0  0  0  0  0  0  0  0  0  0  0  0
   59.7830   27.5180   45.2720 C   0  0  0  0  0  0  0  0  0  0  0  0
   59.3760   28.8380   45.0640 C   0  0  0  0  0  0  0  0  0  0  0  0
   58.0150   29.1870   45.1340 C   0  0  0  0  0  0  0  0  0  0  0  0
   57.6070   30.6010   44.9100 C   0  0  0  0  0  0  0  0  0  0  0  0
   56.4340   30.8350   44.5040 O   0  0  0  0  0  0  0  0  0  0  0  0
   58.5250   31.7070   45.1180 N   0  0  0  0  0  0  0  0  0  0  0  0
   57.7730   32.9850   45.1700 C   0  0  0  0  0  0  0  0  0  0  0  0
   58.4960   34.0320   46.0230 C   0  0  0  0  0  0  0  0  0  0  0  0
   58.5600   33.5870   47.4280 N   0  0  0  0  0  0  0  0  0  0  0  0
   59.3610   34.5370   48.2450 C   0  0  0  0  0  0  0  0  0  0  0  0
   60.8630   34.5740   47.9540 C   0  0  0  0  0  0  0  0  0  0  0  0
   61.1400   34.1020   49.3780 C   0  0  0  0  0  0  0  0  0  0  0  0
   59.6420   34.0590   49.6690 C   0  0  0  0  0  0  0  0  0  0  0  0
   58.8390   32.1330   47.5910 C   0  0  0  0  0  0  0  0  0  0  0  0
   59.3870   31.4720   46.3090 C   0  0  0  0  0  0  0  0  0  0  0  0
   57.0730   28.1850   45.4380 C   0  0  0  0  0  0  0  0  0  0  0  0
   54.7010   27.0850   46.6940 H   0  0  0  0  0  0  0  0  0  0  0  0
   59.1639   25.4914   45.7178 H   0  0  0  0  0  0  0  0  0  0  0  0
   60.8493   27.2559   45.2070 H   0  0  0  0  0  0  0  0  0  0  0  0
   60.1264   29.6115   44.8435 H   0  0  0  0  0  0  0  0  0  0  0  0
   59.1800   31.7530   44.3040 H   0  0  0  0  0  0  0  0  0  0  0  0
   57.6600   33.3743   44.1474 H   0  0  0  0  0  0  0  0  0  0  0  0
   56.7919   32.7879   45.6267 H   0  0  0  0  0  0  0  0  0  0  0  0
   59.5173   34.1715   45.6390 H   0  0  0  0  0  0  0  0  0  0  0  0
   57.9430   34.9815   45.9716 H   0  0  0  0  0  0  0  0  0  0  0  0
   58.7540   35.4352   48.0587 H   0  0  0  0  0  0  0  0  0  0  0  0
   61.1884   33.8695   47.1744 H   0  0  0  0  0  0  0  0  0  0  0  0
   61.3358   35.4878   47.5648 H   0  0  0  0  0  0  0  0  0  0  0  0
   61.6351   33.1214   49.4357 H   0  0  0  0  0  0  0  0  0  0  0  0
   61.8131   34.6782   50.0299 H   0  0  0  0  0  0  0  0  0  0  0  0
   59.2550   33.0536   49.8912 H   0  0  0  0  0  0  0  0  0  0  0  0
   59.2239   34.5967   50.5327 H   0  0  0  0  0  0  0  0  0  0  0  0
   59.5805   32.0071   48.3937 H   0  0  0  0  0  0  0  0  0  0  0  0
   57.8843   31.6416   47.8298 H   0  0  0  0  0  0  0  0  0  0  0  0
   60.3872   31.8813   46.1038 H   0  0  0  0  0  0  0  0  0  0  0  0
   59.4152   30.3866   46.4852 H   0  0  0  0  0  0  0  0  0  0  0  0
   56.0058   28.4430   45.5059 H   0  0  0  0  0  0  0  0  0  0  0  0
  1  2  1  0
  2  3  2  0
  2  4  2  0
  2  5  1  0
  5  6  2  0
  6  7  1  0
  7  8  2  0
  8  9  1  0
  9 10  1  0
 10 11  2  0
 10 12  1  0
 12 13  1  0
 13 14  1  0
 14 15  1  0
 15 16  1  0
 16 17  1  0
 17 18  1  0
 18 19  1  0
 15 20  1  0
 20 21  1  0
  9 22  2  0
 22  5  1  0
 21 12  1  0
 19 16  1  0
  1 23  1  0
  6 24  1  0
  7 25  1  0
  8 26  1  0
 12 27  1  0
 13 28  1  0
 13 29  1  0
 14 30  1  0
 14 31  1  0
 16 32  1  0
 17 33  1  0
 17 34  1  0
 18 35  1  0
 18 36  1  0
 19 37  1  0
 19 38  1  0
 20 39  1  0
 20 40  1  0
 21 41  1  0
 21 42  1  0
 22 43  1  0
M  CHG  2   1  -1  12   1
M  END
>  <UniqueID>  (80) 
75

>  <SMILES>  (80) 
[NH-]S(=O)(=O)c1cccc(C(=O)[NH+]2CCN(C3CCC3)CC2)c1

>  <Energy>  (80) 
126.12811421978594

>  <Genealogy>  (80) 
[NH-]S(=O)(=O)c1cccc(C(=O)[NH+]2CCN(C3CCC3)CC2)c1 (protonated)
[NH-]S(=O)(=O)c1cccc(C(=O)[NH+]2CCN(C3CCC3)CC2)c1 (3D coordinates assigned)
[NH-]S(=O)(=O)c1cccc(C(=O)[NH+]2CCN(C3CCC3)CC2)c1 (nonaromatic ring conformer: 126.12811421978594 kcal/mol)

>  <smiles>  (80) 
NS(=O)(=O)c1cccc(C(=O)N2CCN(C3CCC3)CC2)c1

>  <score_type>  (80) 
oracle

>  <origin>  (80) 
adg

>  <m_score__min__energy>  (80) 
-9.9199999999999999

>  <m_primary>  (80) 
energy

$$$$
82:0
     RDKit          3D

 65 69  0  0  1  0  0  0  0  0999 V2000
   61.6890   31.6920   47.3300 N   0  0  0  0  0  0  0  0  0  0  0  0
   62.6040   33.0440   47.9370 S   0  0  0  0  0  0  0  0  0  0  0  0
   61.6670   34.0510   48.5190 O   0  0  0  0  0  0  0  0  0  0  0  0
   63.4030   33.6570   46.8030 O   0  0  0  0  0  0  0  0  0  0  0  0
   63.7430   32.4690   49.1420 C   0  0  0  0  0  0  0  0  0  0  0  0
   67.5790   26.7130   50.5080 C   0  0  0  0  0  0  0  0  0  0  0  0
   66.4030   26.3080   51.0600 C   0  0  0  0  0  0  0  0  0  0  0  0
   65.6080   27.2340   51.6920 C   0  0  0  0  0  0  0  0  0  0  0  0
   64.5030   26.8970   52.2380 N   0  0  0  0  0  0  0  0  0  0  0  0
   67.4650   30.4050   51.3790 C   0  0  0  0  0  0  0  0  0  0  0  0
   63.3600   31.3920   49.8990 C   0  0  0  0  0  0  0  0  0  0  0  0
   58.7710   28.9650   44.6760 C   0  0  0  0  0  0  0  0  0  0  0  0
   64.9740   33.0910   49.2780 C   0  0  0  0  0  0  0  0  0  0  0  0
   65.8250   32.5840   50.2200 C   0  0  0  0  0  0  0  0  0  0  0  0
   65.4140   31.4890   50.9760 C   0  0  0  0  0  0  0  0  0  0  0  0
   66.2590   31.0580   51.8430 N   0  0  0  0  0  0  0  0  0  0  0  0
   63.4960   27.7530   52.7000 C   0  0  0  0  0  0  0  0  0  0  0  0
   63.6930   28.2620   53.8690 O   0  0  0  0  0  0  0  0  0  0  0  0
   62.2760   28.1360   52.0420 C   0  0  0  0  0  0  0  0  0  0  0  0
   60.9530   27.9370   52.3690 C   0  0  0  0  0  0  0  0  0  0  0  0
   60.1770   28.4940   51.3890 N   0  0  0  0  0  0  0  0  0  0  0  0
   60.9850   29.0220   50.4810 C   0  0  0  0  0  0  0  0  0  0  0  0
   60.5930   29.7260   49.2200 C   0  0  0  0  0  0  0  0  0  0  0  0
   60.1710   30.8790   49.3830 O   0  0  0  0  0  0  0  0  0  0  0  0
   60.7610   28.9800   48.0510 N   0  0  0  0  0  0  0  0  0  0  0  0
   60.1250   29.0050   46.9600 C   0  0  0  0  0  0  0  0  0  0  0  0
   59.3220   30.0820   46.6900 C   0  0  0  0  0  0  0  0  0  0  0  0
   58.6180   30.0650   45.5070 C   0  0  0  0  0  0  0  0  0  0  0  0
   57.7350   31.1610   45.1620 C   0  0  0  0  0  0  0  0  0  0  0  0
   56.5710   30.8410   44.7570 O   0  0  0  0  0  0  0  0  0  0  0  0
   58.1360   32.5440   45.2630 N   0  0  0  0  0  0  0  0  0  0  0  0
   59.2640   33.3270   45.6540 C   0  0  0  0  0  0  0  0  0  0  0  0
   58.3810   34.5500   45.7690 C   0  0  0  0  0  0  0  0  0  0  0  0
   57.4230   33.7580   44.9290 C   0  0  0  0  0  0  0  0  0  0  0  0
   67.9540   28.0580   50.5950 C   0  0  0  0  0  0  0  0  0  0  0  0
   59.5870   27.8980   44.9740 C   0  0  0  0  0  0  0  0  0  0  0  0
   60.2610   27.9420   46.1350 N   0  0  0  0  0  0  0  0  0  0  0  0
   62.2470   28.8070   50.8730 N   0  0  0  0  0  0  0  0  0  0  0  0
   64.2150   30.9090   50.8220 N   0  0  0  0  0  0  0  0  0  0  0  0
   65.9610   28.5350   51.7810 N   0  0  0  0  0  0  0  0  0  0  0  0
   67.1380   28.9470   51.2310 C   0  0  0  0  0  0  0  0  0  0  0  0
   60.6650   31.8940   47.5150 H   0  0  0  0  0  0  0  0  0  0  0  0
   61.8990   30.8880   47.9960 H   0  0  0  0  0  0  0  0  0  0  0  0
   68.2300   25.9882   49.9972 H   0  0  0  0  0  0  0  0  0  0  0  0
   66.0930   25.2542   51.0012 H   0  0  0  0  0  0  0  0  0  0  0  0
   67.7741   30.8242   50.4101 H   0  0  0  0  0  0  0  0  0  0  0  0
   68.2929   30.5544   52.0877 H   0  0  0  0  0  0  0  0  0  0  0  0
   58.2108   28.9446   43.7295 H   0  0  0  0  0  0  0  0  0  0  0  0
   65.2537   33.9539   48.6558 H   0  0  0  0  0  0  0  0  0  0  0  0
   66.8167   33.0329   50.3781 H   0  0  0  0  0  0  0  0  0  0  0  0
   60.5829   27.4184   53.2657 H   0  0  0  0  0  0  0  0  0  0  0  0
   59.1240   28.4850   51.3900 H   0  0  0  0  0  0  0  0  0  0  0  0
   59.2430   30.9264   47.3905 H   0  0  0  0  0  0  0  0  0  0  0  0
   59.7205   33.0126   46.6041 H   0  0  0  0  0  0  0  0  0  0  0  0
   60.1672   33.3514   45.0267 H   0  0  0  0  0  0  0  0  0  0  0  0
   58.0323   34.7844   46.7856 H   0  0  0  0  0  0  0  0  0  0  0  0
   58.7169   35.5646   45.5087 H   0  0  0  0  0  0  0  0  0  0  0  0
   56.3838   33.7822   45.2889 H   0  0  0  0  0  0  0  0  0  0  0  0
   57.2475   34.0298   43.8777 H   0  0  0  0  0  0  0  0  0  0  0  0
   68.9024   28.3970   50.1526 H   0  0  0  0  0  0  0  0  0  0  0  0
   62.3720   30.9302   49.7555 H   0  0  0  0  0  0  0  0  0  0  0  0
   60.8740   27.1340   46.3530 H   0  0  0  0  0  0  0  0  0  0  0  0
   63.8900   30.0980   51.3740 H   0  0  0  0  0  0  0  0  0  0  0  0
   65.3370   29.2470   52.2720 H   0  0  0  0  0  0  0  0  0  0  0  0
   59.6836   27.0430   44.2887 H   0  0  0  0  0  0  0  0  0  0  0  0
  1  2  1  0
  2  3  2  0
  2  4  2  0
  2  5  1  0
  5  6  1  0
  6  7  2  0
  7  8  1  0
  8  9  2  0
  9 10  1  0
 10 11  1  0
 11 12  2  0
 12 13  1  0
 13 14  2  0
 14 15  1  0
 15 16  2  0
 16 17  1  0
 17 18  2  0
 17 19  1  0
 19 20  2  0
 20 21  1  0
 21 22  1  0
 22 23  1  0
 23 24  2  0
 23 25  1  0
 25 26  2  0
 26 27  1  0
 27 28  2  0
 28 29  1  0
 29 30  2  0
 29 31  1  0
 31 32  1  0
 32 33  1  0
 33 34  1  0
 28 35  1  0
 35 36  2  0
 36 37  1  0
 22 38  2  0
 15 39  1  0
  8 40  1  0
 40 41  1  0
 41  5  2  0
 39 11  1  0
 38 19  1  0
 37 26  1  0
 34 31  1  0
  1 42  1  0
  1 43  1  0
  6 44  1  0
  7 45  1  0
 10 46  1  0
 10 47  1  0
 12 48  1  0
 13 49  1  0
 14 50  1  0
 20 51  1  0
 21 52  1  0
 27 53  1  0
 32 54  1  0
 32 55  1  0
 33 56  1  0
 33 57  1  0
 34 58  1  0
 34 59  1  0
 35 60  1  0
 36 61  1  0
 37 62  1  0
 39 63  1  0
 40 64  1  0
 41 65  1  0
M  END
>  <smiles>  (81) 
NS(=O)(=O)c1ccc(=NCc2cccc(=NC(=O)c3c[nH]c(C(=O)N=c4cc(C(=O)N5CCC5)cc[nH]4)n3)[nH]2)[nH]c1

>  <score_type>  (81) 
oracle

>  <origin>  (81) 
adg

>  <m_score__min__energy>  (81) 
-10.76

>  <m_primary>  (81) 
energy

$$$$
83:0
     RDKit          3D

 51 54  0  0  0  0  0  0  0  0999 V2000
   56.2720   29.1780   45.9190 H   0  0  0  0  0  0  0  0  0  0  0  0
   55.9390   28.4030   45.3600 O   0  0  0  0  0  0  0  0  0  0  0  0
   56.0490   27.0830   45.7940 C   0  0  0  0  0  0  0  0  0  0  0  0
   54.9900   26.2710   45.9450 N   0  0  0  0  0  0  0  0  0  0  0  0
   55.5540   25.1220   46.3720 C   0  0  0  0  0  0  0  0  0  0  0  0
   54.8780   24.0930   46.6380 O   0  0  0  0  0  0  0  0  0  0  0  0
   56.8960   25.1640   46.5020 N   0  0  0  0  0  0  0  0  0  0  0  0
   57.2130   26.4150   46.1200 C   0  0  0  0  0  0  0  0  0  0  0  0
   58.5780   26.9910   46.1330 C   0  0  0  0  0  0  0  0  0  0  0  0
   59.2935   26.6183   45.3852 H   0  0  0  0  0  0  0  0  0  0  0  0
   59.0110   27.9380   46.9920 C   0  0  0  0  0  0  0  0  0  0  0  0
   58.5170   29.2280   47.1320 C   0  0  0  0  0  0  0  0  0  0  0  0
   57.7075   29.6870   46.5454 H   0  0  0  0  0  0  0  0  0  0  0  0
   59.2360   29.8240   48.1480 C   0  0  0  0  0  0  0  0  0  0  0  0
   59.0130   31.2080   48.6130 C   0  0  0  0  0  0  0  0  0  0  0  0
   58.1800   31.4120   49.5350 O   0  0  0  0  0  0  0  0  0  0  0  0
   59.7380   32.3170   48.0390 N   0  0  0  0  0  0  0  0  0  0  0  0
   59.7620   33.6260   48.7060 C   0  0  0  0  0  0  0  0  0  0  0  0
   59.2645   33.5421   49.6835 H   0  0  0  0  0  0  0  0  0  0  0  0
   60.8091   33.9372   48.8354 H   0  0  0  0  0  0  0  0  0  0  0  0
   59.0320   34.6860   47.8560 C   0  0  0  0  0  0  0  0  0  0  0  0
   57.9887   34.7495   48.1988 H   0  0  0  0  0  0  0  0  0  0  0  0
   59.5719   35.6353   47.9876 H   0  0  0  0  0  0  0  0  0  0  0  0
   59.0320   34.3670   46.3410 C   0  0  0  0  0  0  0  0  0  0  0  0
   59.0360   35.3047   45.7660 H   0  0  0  0  0  0  0  0  0  0  0  0
   57.8230   33.5990   46.0160 N   0  0  0  0  0  0  0  0  0  0  0  0
   57.6220   32.8080   44.9990 C   0  0  0  0  0  0  0  0  0  0  0  0
   56.9000   31.6700   45.1980 N   0  0  0  0  0  0  0  0  0  0  0  0
   56.6420   30.7870   44.1970 C   0  0  0  0  0  0  0  0  0  0  0  0
   56.0544   29.8799   44.4017 H   0  0  0  0  0  0  0  0  0  0  0  0
   57.1220   31.0310   42.9110 C   0  0  0  0  0  0  0  0  0  0  0  0
   56.9182   30.3194   42.0973 H   0  0  0  0  0  0  0  0  0  0  0  0
   57.8640   32.1880   42.6670 C   0  0  0  0  0  0  0  0  0  0  0  0
   58.2475   32.3934   41.6567 H   0  0  0  0  0  0  0  0  0  0  0  0
   58.1190   33.0850   43.7080 C   0  0  0  0  0  0  0  0  0  0  0  0
   58.7021   33.9990   43.5224 H   0  0  0  0  0  0  0  0  0  0  0  0
   60.2970   33.5680   45.9620 C   0  0  0  0  0  0  0  0  0  0  0  0
   60.3023   33.3946   44.8758 H   0  0  0  0  0  0  0  0  0  0  0  0
   61.1832   34.1470   46.2610 H   0  0  0  0  0  0  0  0  0  0  0  0
   60.3240   32.2120   46.6900 C   0  0  0  0  0  0  0  0  0  0  0  0
   59.7482   31.4796   46.1051 H   0  0  0  0  0  0  0  0  0  0  0  0
   61.3717   31.8923   46.7903 H   0  0  0  0  0  0  0  0  0  0  0  0
   60.1530   28.9640   48.6500 N   0  0  0  0  0  0  0  0  0  0  0  0
   61.0350   29.1870   49.8010 C   0  0  0  0  0  0  0  0  0  0  0  0
   60.4666   29.0433   50.7318 H   0  0  0  0  0  0  0  0  0  0  0  0
   61.8700   28.4717   49.7671 H   0  0  0  0  0  0  0  0  0  0  0  0
   61.4297   30.2132   49.7671 H   0  0  0  0  0  0  0  0  0  0  0  0
   60.0210   27.8050   47.9540 C   0  0  0  0  0  0  0  0  0  0  0  0
   60.7630   26.7100   48.1850 C   0  0  0  0  0  0  0  0  0  0  0  0
   61.5319   26.7225   48.9716 H   0  0  0  0  0  0  0  0  0  0  0  0
   60.6020   25.8005   47.5877 H   0  0  0  0  0  0  0  0  0  0  0  0
  1  2  1  0
  2  3  1  0
  3  4  1  0
  4  5  1  0
  5  6  2  0
  5  7  1  0
  7  8  1  0
  8  9  1  0
  9 10  1  0
  9 11  2  0
 11 12  1  0
 12 13  1  0
 12 14  2  0
 14 15  1  0
 15 16  2  0
 15 17  1  0
 17 18  1  0
 18 19  1  0
 18 20  1  0
 18 21  1  0
 21 22  1  0
 21 23  1  0
 21 24  1  0
 24 25  1  0
 24 26  1  0
 26 27  2  3
 27 28  1  0
 28 29  1  0
 29 30  1  0
 29 31  2  0
 31 32  1  0
 31 33  1  0
 33 34  1  0
 33 35  2  0
 35 36  1  0
 24 37  1  0
 37 38  1  0
 37 39  1  0
 37 40  1  0
 40 41  1  0
 40 42  1  0
 14 43  1  0
 43 44  1  0
 44 45  1  0
 44 46  1  0
 44 47  1  0
 43 48  1  0
 48 49  2  0
 49 50  1  0
 49 51  1  0
  8  3  2  0
 48 11  1  0
 40 17  1  0
 35 27  1  0
M  CHG  3   4  -1   7  -1  28  -1
M  END
>  <UniqueID>  (82) 
76

>  <SMILES>  (82) 
C=c1/c(=C/c2[n-]c(=O)[n-]c2O)cc(C(=O)N2CCC(N=c3cccc[n-]3)CC2)n1C

>  <Energy>  (82) 
128.37036407423236

>  <Genealogy>  (82) 
C=c1c(=Cc2[n-]c(=O)[n-]c2O)cc(C(=O)N2CCC(N=c3cccc[n-]3)CC2)n1C (protonated)
C=c1/c(=C/c2[n-]c(=O)[n-]c2O)cc(C(=O)N2CCC(N=c3cccc[n-]3)CC2)n1C (cis-trans isomerization)
C=c1/c(=C/c2[n-]c(=O)[n-]c2O)cc(C(=O)N2CCC(N=c3cccc[n-]3)CC2)n1C (3D coordinates assigned)
C=c1/c(=C/c2[n-]c(=O)[n-]c2O)cc(C(=O)N2CCC(N=c3cccc[n-]3)CC2)n1C (nonaromatic ring conformer: 128.37036407423236 kcal/mol)

>  <smiles>  (82) 
C=c1c(=Cc2[nH]c(=O)[nH]c2O)cc(C(=O)N2CCC(N=c3cccc[nH]3)CC2)n1C

>  <score_type>  (82) 
oracle

>  <origin>  (82) 
adg

>  <m_score__min__energy>  (82) 
-15.07

>  <m_primary>  (82) 
energy

$$$$
84:0
     RDKit          3D

 50 53  0  0  0  0  0  0  0  0999 V2000
   57.0070   31.2850   42.5000 O   0  0  0  0  0  0  0  0  0  0  0  0
   56.9160   30.4510   43.4380 C   0  0  0  0  0  0  0  0  0  0  0  0
   56.8580   28.9800   43.1090 C   0  0  0  0  0  0  0  0  0  0  0  0
   57.8260   28.2100   43.9140 N   0  0  1  0  0  0  0  0  0  0  0  0
   57.2710   27.8140   45.1830 C   0  0  0  0  0  0  0  0  0  0  0  0
   57.0270   28.6160   46.1230 O   0  0  0  0  0  0  0  0  0  0  0  0
   57.1120   26.3830   45.2700 C   0  0  0  0  0  0  0  0  0  0  0  0
   56.5940   25.7490   46.2270 O   0  0  0  0  0  0  0  0  0  0  0  0
   57.6310   25.7900   44.0960 N   0  0  0  0  0  0  0  0  0  0  0  0
   57.3740   24.4170   43.6400 C   0  0  0  0  0  0  0  0  0  0  0  0
   55.8890   24.0530   43.7460 C   0  0  0  0  0  0  0  0  0  0  0  0
   55.8340   22.6850   44.4050 C   0  0  0  0  0  0  0  0  0  0  0  0
   57.1060   22.5730   45.2240 C   0  0  0  0  0  0  0  0  0  0  0  0
   58.1480   23.3920   44.4790 C   0  0  0  0  0  0  0  0  0  0  0  0
   58.0500   26.9140   43.3100 C   0  0  0  0  0  0  0  0  0  0  0  0
   58.5760   26.7870   42.1710 O   0  0  0  0  0  0  0  0  0  0  0  0
   56.9940   30.9180   44.7910 N   0  0  0  0  0  0  0  0  0  0  0  0
   57.7680   32.0410   45.2340 C   0  0  0  0  0  0  0  0  0  0  0  0
   57.4060   33.3410   44.8480 C   0  0  0  0  0  0  0  0  0  0  0  0
   58.1450   34.4410   45.2850 C   0  0  0  0  0  0  0  0  0  0  0  0
   59.2570   34.2530   46.1080 C   0  0  0  0  0  0  0  0  0  0  0  0
   59.6370   32.9640   46.4880 C   0  0  0  0  0  0  0  0  0  0  0  0
   58.9080   31.8450   46.0460 C   0  0  0  0  0  0  0  0  0  0  0  0
   59.3190   30.4910   46.4840 C   0  0  0  0  0  0  0  0  0  0  0  0
   60.0420   29.6570   45.6130 C   0  0  0  0  0  0  0  0  0  0  0  0
   60.4430   28.3820   46.0270 C   0  0  0  0  0  0  0  0  0  0  0  0
   60.1190   27.9280   47.3080 C   0  0  0  0  0  0  0  0  0  0  0  0
   59.3920   28.7460   48.1770 C   0  0  0  0  0  0  0  0  0  0  0  0
   58.9910   30.0220   47.7680 C   0  0  0  0  0  0  0  0  0  0  0  0
   55.8440   28.6068   43.3151 H   0  0  0  0  0  0  0  0  0  0  0  0
   57.1122   28.8525   42.0464 H   0  0  0  0  0  0  0  0  0  0  0  0
   58.7350   28.7120   44.0430 H   0  0  0  0  0  0  0  0  0  0  0  0
   57.7020   24.3844   42.5905 H   0  0  0  0  0  0  0  0  0  0  0  0
   55.3576   24.7942   44.3610 H   0  0  0  0  0  0  0  0  0  0  0  0
   55.4075   24.0412   42.7570 H   0  0  0  0  0  0  0  0  0  0  0  0
   54.9506   22.6080   45.0559 H   0  0  0  0  0  0  0  0  0  0  0  0
   55.7576   21.8785   43.6609 H   0  0  0  0  0  0  0  0  0  0  0  0
   56.9490   22.9795   46.2340 H   0  0  0  0  0  0  0  0  0  0  0  0
   57.4215   21.5260   45.3431 H   0  0  0  0  0  0  0  0  0  0  0  0
   58.8093   23.9057   45.1922 H   0  0  0  0  0  0  0  0  0  0  0  0
   58.7793   22.7524   43.8447 H   0  0  0  0  0  0  0  0  0  0  0  0
   56.5332   33.4938   44.1961 H   0  0  0  0  0  0  0  0  0  0  0  0
   57.8514   35.4566   44.9810 H   0  0  0  0  0  0  0  0  0  0  0  0
   59.8346   35.1214   46.4576 H   0  0  0  0  0  0  0  0  0  0  0  0
   60.5131   32.8226   47.1379 H   0  0  0  0  0  0  0  0  0  0  0  0
   60.2935   30.0085   44.6015 H   0  0  0  0  0  0  0  0  0  0  0  0
   61.0139   27.7365   45.3433 H   0  0  0  0  0  0  0  0  0  0  0  0
   60.4364   26.9261   47.6327 H   0  0  0  0  0  0  0  0  0  0  0  0
   59.1348   28.3859   49.1840 H   0  0  0  0  0  0  0  0  0  0  0  0
   58.4163   30.6615   48.4542 H   0  0  0  0  0  0  0  0  0  0  0  0
  1  2  2  0
  2  3  1  0
  3  4  1  0
  4  5  1  0
  5  6  2  0
  5  7  1  0
  7  8  2  0
  7  9  1  0
  9 10  1  0
 10 11  1  0
 11 12  1  0
 12 13  1  0
 13 14  1  0
  9 15  1  0
 15 16  2  0
  2 17  1  0
 17 18  1  0
 18 19  2  0
 19 20  1  0
 20 21  2  0
 21 22  1  0
 22 23  2  0
 23 24  1  0
 24 25  2  0
 25 26  1  0
 26 27  2  0
 27 28  1  0
 28 29  2  0
 15  4  1  0
 23 18  1  0
 29 24  1  0
 14 10  1  0
  3 30  1  0
  3 31  1  0
  4 32  1  1
 10 33  1  0
 11 34  1  0
 11 35  1  0
 12 36  1  0
 12 37  1  0
 13 38  1  0
 13 39  1  0
 14 40  1  0
 14 41  1  0
 19 42  1  0
 20 43  1  0
 21 44  1  0
 22 45  1  0
 25 46  1  0
 26 47  1  0
 27 48  1  0
 28 49  1  0
 29 50  1  0
M  CHG  2   4   1  17  -1
M  END
>  <UniqueID>  (83) 
77

>  <SMILES>  (83) 
O=C(C[N@H+]1C(=O)C(=O)N(C2CCCC2)C1=O)[N-]c1ccccc1-c1ccccc1

>  <Energy>  (83) 
87.66385701936531

>  <Genealogy>  (83) 
O=C(C[NH+]1C(=O)C(=O)N(C2CCCC2)C1=O)[N-]c1ccccc1-c1ccccc1 (protonated)
O=C(C[N@H+]1C(=O)C(=O)N(C2CCCC2)C1=O)[N-]c1ccccc1-c1ccccc1 (chirality)
O=C(C[N@H+]1C(=O)C(=O)N(C2CCCC2)C1=O)[N-]c1ccccc1-c1ccccc1 (3D coordinates assigned)
O=C(C[N@H+]1C(=O)C(=O)N(C2CCCC2)C1=O)[N-]c1ccccc1-c1ccccc1 (nonaromatic ring conformer: 87.66385701936531 kcal/mol)

>  <smiles>  (83) 
O=C(CN1C(=O)C(=O)N(C2CCCC2)C1=O)Nc1ccccc1-c1ccccc1

>  <score_type>  (83) 
oracle

>  <origin>  (83) 
adg

>  <m_score__min__energy>  (83) 
-9.3399999999999999

>  <m_primary>  (83) 
energy

$$$$
85:0
     RDKit          3D

 43 45  0  0  0  0  0  0  0  0999 V2000
   58.3480   29.0940   44.4390 O   0  0  0  0  0  0  0  0  0  0  0  0
   58.3920   28.5680   45.5840 C   0  0  0  0  0  0  0  0  0  0  0  0
   57.5270   27.4050   45.8700 C   0  0  0  0  0  0  0  0  0  0  0  0
   58.0850   26.2290   46.3930 C   0  0  0  0  0  0  0  0  0  0  0  0
   57.2720   25.1270   46.6620 C   0  0  0  0  0  0  0  0  0  0  0  0
   55.8990   25.2140   46.4200 C   0  0  0  0  0  0  0  0  0  0  0  0
   55.1520   24.2290   46.6530 O   0  0  0  0  0  0  0  0  0  0  0  0
   55.3670   26.3670   45.9360 N   0  0  0  0  0  0  0  0  0  0  0  0
   56.1350   27.4570   45.6660 C   0  0  0  0  0  0  0  0  0  0  0  0
   55.5250   28.6200   45.2110 O   0  0  0  0  0  0  0  0  0  0  0  0
   59.2540   29.1260   46.5940 N   0  0  0  0  0  0  0  0  0  0  0  0
   60.5390   29.7320   46.2240 C   0  0  0  0  0  0  0  0  0  0  0  0
   60.6370   31.1750   46.7560 C   0  0  0  0  0  0  0  0  0  0  0  0
   59.8730   31.3870   48.0100 N   0  0  0  0  0  0  0  0  0  0  0  0
   60.3680   32.5320   48.8050 C   0  0  0  0  0  0  0  0  0  0  0  0
   59.5880   33.8430   48.5670 C   0  0  0  0  0  0  0  0  0  0  0  0
   58.9590   33.8380   47.2000 C   0  0  0  0  0  0  0  0  0  0  0  0
   59.5780   34.5080   46.1320 C   0  0  0  0  0  0  0  0  0  0  0  0
   58.9750   34.5290   44.8700 C   0  0  0  0  0  0  0  0  0  0  0  0
   57.7460   33.8920   44.6700 C   0  0  0  0  0  0  0  0  0  0  0  0
   57.1170   33.2360   45.7310 C   0  0  0  0  0  0  0  0  0  0  0  0
   57.7170   33.2110   46.9940 C   0  0  0  0  0  0  0  0  0  0  0  0
   59.6690   30.1590   48.8000 C   0  0  0  0  0  0  0  0  0  0  0  0
   58.8040   29.1870   47.9920 C   0  0  0  0  0  0  0  0  0  0  0  0
   59.1656   26.1753   46.5915 H   0  0  0  0  0  0  0  0  0  0  0  0
   57.7081   24.1991   47.0606 H   0  0  0  0  0  0  0  0  0  0  0  0
   61.3566   29.1335   46.6522 H   0  0  0  0  0  0  0  0  0  0  0  0
   60.6151   29.7548   45.1269 H   0  0  0  0  0  0  0  0  0  0  0  0
   61.6952   31.4062   46.9476 H   0  0  0  0  0  0  0  0  0  0  0  0
   60.2024   31.8361   45.9918 H   0  0  0  0  0  0  0  0  0  0  0  0
   60.2915   32.2722   49.8711 H   0  0  0  0  0  0  0  0  0  0  0  0
   61.4053   32.7158   48.4883 H   0  0  0  0  0  0  0  0  0  0  0  0
   58.7999   33.9392   49.3283 H   0  0  0  0  0  0  0  0  0  0  0  0
   60.2854   34.6908   48.6359 H   0  0  0  0  0  0  0  0  0  0  0  0
   60.5401   35.0179   46.2885 H   0  0  0  0  0  0  0  0  0  0  0  0
   59.4679   35.0470   44.0341 H   0  0  0  0  0  0  0  0  0  0  0  0
   57.2743   33.9075   43.6764 H   0  0  0  0  0  0  0  0  0  0  0  0
   56.1487   32.7386   45.5728 H   0  0  0  0  0  0  0  0  0  0  0  0
   57.2160   32.6993   47.8290 H   0  0  0  0  0  0  0  0  0  0  0  0
   60.6419   29.6941   49.0176 H   0  0  0  0  0  0  0  0  0  0  0  0
   59.1675   30.4046   49.7477 H   0  0  0  0  0  0  0  0  0  0  0  0
   58.8758   28.1841   48.4380 H   0  0  0  0  0  0  0  0  0  0  0  0
   57.7628   29.5414   48.0121 H   0  0  0  0  0  0  0  0  0  0  0  0
  1  2  2  0
  2  3  1  0
  3  4  1  0
  4  5  2  0
  5  6  1  0
  6  7  2  0
  6  8  1  0
  8  9  1  0
  9 10  1  0
  2 11  1  0
 11 12  1  0
 12 13  1  0
 13 14  1  0
 14 15  1  0
 15 16  1  0
 16 17  1  0
 17 18  2  0
 18 19  1  0
 19 20  2  0
 20 21  1  0
 21 22  2  0
 14 23  1  0
 23 24  1  0
  9  3  2  0
 24 11  1  0
 22 17  1  0
  4 25  1  0
  5 26  1  0
 12 27  1  0
 12 28  1  0
 13 29  1  0
 13 30  1  0
 15 31  1  0
 15 32  1  0
 16 33  1  0
 16 34  1  0
 18 35  1  0
 19 36  1  0
 20 37  1  0
 21 38  1  0
 22 39  1  0
 23 40  1  0
 23 41  1  0
 24 42  1  0
 24 43  1  0
M  CHG  2   8  -1  10  -1
M  END
>  <UniqueID>  (84) 
78

>  <SMILES>  (84) 
O=C(c1ccc(=O)[n-]c1[O-])N1CCN(CCc2ccccc2)CC1

>  <Energy>  (84) 
59.065716011921964

>  <Genealogy>  (84) 
O=C(c1ccc(=O)[n-]c1[O-])N1CCN(CCc2ccccc2)CC1 (protonated)
O=C(c1ccc(=O)[n-]c1[O-])N1CCN(CCc2ccccc2)CC1 (3D coordinates assigned)
O=C(c1ccc(=O)[n-]c1[O-])N1CCN(CCc2ccccc2)CC1 (nonaromatic ring conformer: 59.065716011921964 kcal/mol)

>  <smiles>  (84) 
O=C(c1ccc(=O)[nH]c1O)N1CCN(CCc2ccccc2)CC1

>  <score_type>  (84) 
oracle

>  <origin>  (84) 
adg

>  <m_score__min__energy>  (84) 
-14.619999999999999

>  <m_primary>  (84) 
energy

$$$$
86:0
     RDKit          3D

 48 50  0  0  0  0  0  0  0  0999 V2000
   64.7470   32.9310   49.3950 C   0  0  0  0  0  0  0  0  0  0  0  0
   63.4820   33.6230   49.8150 C   0  0  0  0  0  0  0  0  0  0  0  0
   63.4920   34.2750   50.8960 O   0  0  0  0  0  0  0  0  0  0  0  0
   62.2790   33.5760   49.0090 N   0  0  0  0  0  0  0  0  0  0  0  0
   60.9780   33.8580   49.6460 C   0  0  0  0  0  0  0  0  0  0  0  0
   60.0200   34.5130   48.6500 C   0  0  0  0  0  0  0  0  0  0  0  0
   59.9910   33.7310   47.4140 N   0  0  0  0  0  0  0  0  0  0  0  0
   58.8810   32.8600   47.1270 C   0  0  0  0  0  0  0  0  0  0  0  0
   58.2250   32.3560   48.0800 O   0  0  0  0  0  0  0  0  0  0  0  0
   58.4890   32.5430   45.7340 C   0  0  0  0  0  0  0  0  0  0  0  0
   58.8850   33.3830   44.6790 C   0  0  0  0  0  0  0  0  0  0  0  0
   58.5010   33.0970   43.3650 C   0  0  0  0  0  0  0  0  0  0  0  0
   57.7280   31.9680   43.0900 C   0  0  0  0  0  0  0  0  0  0  0  0
   57.3450   31.1080   44.1300 C   0  0  0  0  0  0  0  0  0  0  0  0
   56.3770   29.6770   43.7990 S   0  0  0  0  0  0  0  0  0  0  0  0
   55.9320   29.6490   42.3660 O   0  0  0  0  0  0  0  0  0  0  0  0
   55.1590   29.7020   44.6780 O   0  0  0  0  0  0  0  0  0  0  0  0
   57.2970   28.2440   44.1370 N   0  0  0  0  0  0  0  0  0  0  0  0
   58.0840   28.0680   45.3290 C   0  0  0  0  0  0  0  0  0  0  0  0
   59.3570   28.6570   45.4000 C   0  0  0  0  0  0  0  0  0  0  0  0
   60.1440   28.5080   46.5450 C   0  0  0  0  0  0  0  0  0  0  0  0
   59.6720   27.7590   47.6280 C   0  0  0  0  0  0  0  0  0  0  0  0
   60.7400   27.5700   49.1920 Br  0  0  0  0  0  0  0  0  0  0  0  0
   58.4130   27.1580   47.5610 C   0  0  0  0  0  0  0  0  0  0  0  0
   57.6210   27.3090   46.4200 C   0  0  0  0  0  0  0  0  0  0  0  0
   57.7340   31.3920   45.4450 C   0  0  0  0  0  0  0  0  0  0  0  0
   61.2790   33.5530   46.7390 C   0  0  0  0  0  0  0  0  0  0  0  0
   62.2760   32.8930   47.6990 C   0  0  0  0  0  0  0  0  0  0  0  0
   65.3103   32.6229   50.2882 H   0  0  0  0  0  0  0  0  0  0  0  0
   64.4976   32.0437   48.7946 H   0  0  0  0  0  0  0  0  0  0  0  0
   65.3597   33.6196   48.7946 H   0  0  0  0  0  0  0  0  0  0  0  0
   60.5386   32.9149   50.0030 H   0  0  0  0  0  0  0  0  0  0  0  0
   61.1383   34.5469   50.4884 H   0  0  0  0  0  0  0  0  0  0  0  0
   59.0098   34.5508   49.0837 H   0  0  0  0  0  0  0  0  0  0  0  0
   60.3630   35.5346   48.4293 H   0  0  0  0  0  0  0  0  0  0  0  0
   59.5005   34.2704   44.8880 H   0  0  0  0  0  0  0  0  0  0  0  0
   58.8090   33.7637   42.5461 H   0  0  0  0  0  0  0  0  0  0  0  0
   57.4187   31.7523   42.0566 H   0  0  0  0  0  0  0  0  0  0  0  0
   57.3490   27.5230   43.3810 H   0  0  0  0  0  0  0  0  0  0  0  0
   59.7373   29.2398   44.5481 H   0  0  0  0  0  0  0  0  0  0  0  0
   61.1362   28.9804   46.5948 H   0  0  0  0  0  0  0  0  0  0  0  0
   58.0437   26.5636   48.4097 H   0  0  0  0  0  0  0  0  0  0  0  0
   56.6307   26.8323   46.3741 H   0  0  0  0  0  0  0  0  0  0  0  0
   57.4468   30.7094   46.2584 H   0  0  0  0  0  0  0  0  0  0  0  0
   61.1435   32.9128   45.8548 H   0  0  0  0  0  0  0  0  0  0  0  0
   61.6667   34.5341   46.4273 H   0  0  0  0  0  0  0  0  0  0  0  0
   61.9937   31.8396   47.8429 H   0  0  0  0  0  0  0  0  0  0  0  0
   63.2834   32.9652   47.2632 H   0  0  0  0  0  0  0  0  0  0  0  0
  1  2  1  0
  2  3  2  0
  2  4  1  0
  4  5  1  0
  5  6  1  0
  6  7  1  0
  7  8  1  0
  8  9  2  0
  8 10  1  0
 10 11  2  0
 11 12  1  0
 12 13  2  0
 13 14  1  0
 14 15  1  0
 15 16  2  0
 15 17  2  0
 15 18  1  0
 18 19  1  0
 19 20  2  0
 20 21  1  0
 21 22  2  0
 22 23  1  0
 22 24  1  0
 24 25  2  0
 14 26  2  0
  7 27  1  0
 27 28  1  0
 28  4  1  0
 26 10  1  0
 25 19  1  0
  1 29  1  0
  1 30  1  0
  1 31  1  0
  5 32  1  0
  5 33  1  0
  6 34  1  0
  6 35  1  0
 11 36  1  0
 12 37  1  0
 13 38  1  0
 18 39  1  0
 20 40  1  0
 21 41  1  0
 24 42  1  0
 25 43  1  0
 26 44  1  0
 27 45  1  0
 27 46  1  0
 28 47  1  0
 28 48  1  0
M  END
>  <UniqueID>  (85) 
79

>  <SMILES>  (85) 
CC(=O)N1CCN(C(=O)c2cccc(S(=O)(=O)Nc3ccc(Br)cc3)c2)CC1

>  <Energy>  (85) 
56.43972415933352

>  <Genealogy>  (85) 
CC(=O)N1CCN(C(=O)c2cccc(S(=O)(=O)Nc3ccc(Br)cc3)c2)CC1 (3D coordinates assigned)
CC(=O)N1CCN(C(=O)c2cccc(S(=O)(=O)Nc3ccc(Br)cc3)c2)CC1 (nonaromatic ring conformer: 56.43972415933352 kcal/mol)

>  <smiles>  (85) 
CC(=O)N1CCN(C(=O)c2cccc(S(=O)(=O)Nc3ccc(Br)cc3)c2)CC1

>  <score_type>  (85) 
oracle

>  <origin>  (85) 
adg

>  <m_score__min__energy>  (85) 
-9.6099999999999994

>  <m_primary>  (85) 
energy

$$$$
87:0
     RDKit          3D

 47 50  0  0  0  0  0  0  0  0999 V2000
   53.9860   26.2710   46.3720 H   0  0  0  0  0  0  0  0  0  0  0  0
   54.8610   26.3430   45.8660 O   0  0  0  0  0  0  0  0  0  0  0  0
   55.9160   25.4840   46.1540 C   0  0  0  0  0  0  0  0  0  0  0  0
   55.8980   24.5790   47.1460 N   0  0  0  0  0  0  0  0  0  0  0  0
   57.1240   24.0180   47.0550 C   0  0  0  0  0  0  0  0  0  0  0  0
   57.5110   23.1100   47.8330 O   0  0  0  0  0  0  0  0  0  0  0  0
   57.9040   24.5160   46.0730 N   0  0  0  0  0  0  0  0  0  0  0  0
   57.1150   25.4320   45.4850 C   0  0  0  0  0  0  0  0  0  0  0  0
   57.5560   26.3570   44.4290 C   0  0  0  0  0  0  0  0  0  0  0  0
   57.6389   25.9571   43.4076 H   0  0  0  0  0  0  0  0  0  0  0  0
   57.8660   27.6540   44.6140 C   0  0  0  0  0  0  0  0  0  0  0  0
   57.1080   28.6940   44.0980 C   0  0  0  0  0  0  0  0  0  0  0  0
   56.2251   28.6030   43.4482 H   0  0  0  0  0  0  0  0  0  0  0  0
   57.6750   29.8650   44.5570 C   0  0  0  0  0  0  0  0  0  0  0  0
   57.1030   31.2090   44.3330 C   0  0  0  0  0  0  0  0  0  0  0  0
   56.5367   31.3799   43.4056 H   0  0  0  0  0  0  0  0  0  0  0  0
   57.2270   32.2050   45.1650 N   0  0  0  0  0  0  0  0  0  0  0  0
   58.3700   32.5140   45.9750 C   0  0  0  0  0  0  0  0  0  0  0  0
   58.4860   31.9340   47.2440 C   0  0  0  0  0  0  0  0  0  0  0  0
   57.7151   31.2336   47.5977 H   0  0  0  0  0  0  0  0  0  0  0  0
   59.5760   32.2400   48.0640 C   0  0  0  0  0  0  0  0  0  0  0  0
   59.6750   31.7572   49.0474 H   0  0  0  0  0  0  0  0  0  0  0  0
   60.5450   33.1620   47.6360 C   0  0  0  0  0  0  0  0  0  0  0  0
   61.6580   33.4970   48.4800 N   0  0  0  0  0  0  0  0  0  0  0  0
   62.9960   33.5920   47.8920 C   0  0  0  0  0  0  0  0  0  0  0  0
   63.1043   32.8330   47.1032 H   0  0  0  0  0  0  0  0  0  0  0  0
   63.1355   34.5938   47.4596 H   0  0  0  0  0  0  0  0  0  0  0  0
   64.0500   33.3540   48.9770 C   0  0  0  0  0  0  0  0  0  0  0  0
   63.9915   32.3082   49.3129 H   0  0  0  0  0  0  0  0  0  0  0  0
   65.0434   33.5666   48.5551 H   0  0  0  0  0  0  0  0  0  0  0  0
   63.8360   34.2090   50.0840 O   0  0  0  0  0  0  0  0  0  0  0  0
   62.6050   33.8930   50.7070 C   0  0  0  0  0  0  0  0  0  0  0  0
   62.6053   32.8289   50.9856 H   0  0  0  0  0  0  0  0  0  0  0  0
   62.4915   34.5247   51.6004 H   0  0  0  0  0  0  0  0  0  0  0  0
   61.4280   34.1640   49.7640 C   0  0  0  0  0  0  0  0  0  0  0  0
   60.5020   33.7783   50.2153 H   0  0  0  0  0  0  0  0  0  0  0  0
   61.3362   35.2477   49.5994 H   0  0  0  0  0  0  0  0  0  0  0  0
   60.4110   33.7700   46.3800 C   0  0  0  0  0  0  0  0  0  0  0  0
   61.1593   34.5027   46.0436 H   0  0  0  0  0  0  0  0  0  0  0  0
   59.3300   33.4490   45.5530 C   0  0  0  0  0  0  0  0  0  0  0  0
   59.2310   33.9302   44.5688 H   0  0  0  0  0  0  0  0  0  0  0  0
   58.7470   29.5960   45.3270 N   0  0  0  0  0  0  0  0  0  0  0  0
   59.3560   30.2900   45.8170 H   0  0  0  0  0  0  0  0  0  0  0  0
   58.9050   28.2570   45.3380 C   0  0  0  0  0  0  0  0  0  0  0  0
   59.9840   27.6780   45.8730 C   0  0  0  0  0  0  0  0  0  0  0  0
   60.0811   26.5823   45.8651 H   0  0  0  0  0  0  0  0  0  0  0  0
   60.7751   28.2971   46.3213 H   0  0  0  0  0  0  0  0  0  0  0  0
  1  2  1  0
  2  3  1  0
  3  4  1  0
  4  5  1  0
  5  6  2  0
  5  7  1  0
  7  8  1  0
  8  9  1  0
  9 10  1  0
  9 11  2  0
 11 12  1  0
 12 13  1  0
 12 14  2  0
 14 15  1  0
 15 16  1  0
 15 17  2  3
 17 18  1  0
 18 19  2  0
 19 20  1  0
 19 21  1  0
 21 22  1  0
 21 23  2  0
 23 24  1  0
 24 25  1  0
 25 26  1  0
 25 27  1  0
 25 28  1  0
 28 29  1  0
 28 30  1  0
 28 31  1  0
 31 32  1  0
 32 33  1  0
 32 34  1  0
 32 35  1  0
 35 36  1  0
 35 37  1  0
 23 38  1  0
 38 39  1  0
 38 40  2  0
 40 41  1  0
 14 42  1  0
 42 43  1  0
 42 44  1  0
 44 45  2  0
 45 46  1  0
 45 47  1  0
  8  3  2  0
 44 11  1  0
 40 18  1  0
 35 24  1  0
M  CHG  2   4  -1   7  -1
M  END
>  <UniqueID>  (86) 
80

>  <SMILES>  (86) 
C=c1[nH]c(C=Nc2ccc(N3CCOCC3)cc2)c/c1=C/c1[n-]c(=O)[n-]c1O

>  <Energy>  (86) 
131.48857580577996

>  <Genealogy>  (86) 
C=c1[nH]c(C=Nc2ccc(N3CCOCC3)cc2)cc1=Cc1[n-]c(=O)[n-]c1O (protonated)
C=c1[nH]c(C=Nc2ccc(N3CCOCC3)cc2)c/c1=C/c1[n-]c(=O)[n-]c1O (cis-trans isomerization)
C=c1[nH]c(C=Nc2ccc(N3CCOCC3)cc2)c/c1=C/c1[n-]c(=O)[n-]c1O (3D coordinates assigned)
C=c1[nH]c(C=Nc2ccc(N3CCOCC3)cc2)c/c1=C/c1[n-]c(=O)[n-]c1O (nonaromatic ring conformer: 131.48857580577996 kcal/mol)

>  <smiles>  (86) 
C=c1[nH]c(C=Nc2ccc(N3CCOCC3)cc2)cc1=Cc1[nH]c(=O)[nH]c1O

>  <score_type>  (86) 
oracle

>  <origin>  (86) 
adg

>  <m_score__min__energy>  (86) 
-13.56

>  <m_primary>  (86) 
energy

$$$$
88:0
     RDKit          3D

 36 37  0  0  0  0  0  0  0  0999 V2000
   61.1820   31.8490   49.2220 O   0  0  0  0  0  0  0  0  0  0  0  0
   60.3530   31.0890   48.6560 C   0  0  0  0  0  0  0  0  0  0  0  0
   58.9700   30.9650   49.2360 C   0  0  0  0  0  0  0  0  0  0  0  0
   58.1850   32.1680   48.9580 N   0  0  0  0  0  0  0  0  0  0  0  0
   58.4570   33.0480   47.8530 C   0  0  0  0  0  0  0  0  0  0  0  0
   57.8650   32.7860   46.6060 C   0  0  0  0  0  0  0  0  0  0  0  0
   58.1380   33.6050   45.5060 C   0  0  0  0  0  0  0  0  0  0  0  0
   58.9980   34.6980   45.6430 C   0  0  0  0  0  0  0  0  0  0  0  0
   59.2720   35.5090   44.5480 O   0  0  0  0  0  0  0  0  0  0  0  0
   59.5810   34.9770   46.8820 C   0  0  0  0  0  0  0  0  0  0  0  0
   59.3120   34.1590   47.9850 C   0  0  0  0  0  0  0  0  0  0  0  0
   60.7740   30.3520   47.4960 N   0  0  0  0  0  0  0  0  0  0  0  0
   60.5580   28.9290   47.2480 C   0  0  0  0  0  0  0  0  0  0  0  0
   60.0170   28.7020   45.8340 C   0  0  0  0  0  0  0  0  0  0  0  0
   58.6370   28.1030   45.8820 C   0  0  0  0  0  0  0  0  0  0  0  0
   58.4380   26.8120   46.3960 C   0  0  0  0  0  0  0  0  0  0  0  0
   57.1580   26.2500   46.4140 C   0  0  0  0  0  0  0  0  0  0  0  0
   56.0680   26.9690   45.9110 C   0  0  0  0  0  0  0  0  0  0  0  0
   54.7980   26.4060   45.9330 O   0  0  0  0  0  0  0  0  0  0  0  0
   56.2600   28.2520   45.3840 C   0  0  0  0  0  0  0  0  0  0  0  0
   55.1830   28.9690   44.8780 O   0  0  0  0  0  0  0  0  0  0  0  0
   57.5420   28.8150   45.3640 C   0  0  0  0  0  0  0  0  0  0  0  0
   58.4675   30.0943   48.7895 H   0  0  0  0  0  0  0  0  0  0  0  0
   59.0525   30.8394   50.3257 H   0  0  0  0  0  0  0  0  0  0  0  0
   57.3520   32.3720   49.5580 H   0  0  0  0  0  0  0  0  0  0  0  0
   57.1822   31.9309   46.4943 H   0  0  0  0  0  0  0  0  0  0  0  0
   57.6753   33.3887   44.5318 H   0  0  0  0  0  0  0  0  0  0  0  0
   60.2527   35.8413   46.9904 H   0  0  0  0  0  0  0  0  0  0  0  0
   59.7703   34.3848   48.9591 H   0  0  0  0  0  0  0  0  0  0  0  0
   61.5127   28.3941   47.3595 H   0  0  0  0  0  0  0  0  0  0  0  0
   59.8219   28.5515   47.9730 H   0  0  0  0  0  0  0  0  0  0  0  0
   59.9742   29.6654   45.3048 H   0  0  0  0  0  0  0  0  0  0  0  0
   60.6863   28.0062   45.3068 H   0  0  0  0  0  0  0  0  0  0  0  0
   59.2928   26.2401   46.7863 H   0  0  0  0  0  0  0  0  0  0  0  0
   57.0074   25.2406   46.8244 H   0  0  0  0  0  0  0  0  0  0  0  0
   57.6925   29.8191   44.9409 H   0  0  0  0  0  0  0  0  0  0  0  0
  1  2  2  0
  2  3  1  0
  3  4  1  0
  4  5  1  0
  5  6  2  0
  6  7  1  0
  7  8  2  0
  8  9  1  0
  8 10  1  0
 10 11  2  0
  2 12  1  0
 12 13  1  0
 13 14  1  0
 14 15  1  0
 15 16  2  0
 16 17  1  0
 17 18  2  0
 18 19  1  0
 18 20  1  0
 20 21  1  0
 20 22  2  0
 11  5  1  0
 22 15  1  0
  3 23  1  0
  3 24  1  0
  4 25  1  0
  6 26  1  0
  7 27  1  0
 10 28  1  0
 11 29  1  0
 13 30  1  0
 13 31  1  0
 14 32  1  0
 14 33  1  0
 16 34  1  0
 17 35  1  0
 22 36  1  0
M  CHG  4   9  -1  12  -1  19  -1  21  -1
M  END
>  <UniqueID>  (87) 
81

>  <SMILES>  (87) 
O=C(CNc1ccc([O-])cc1)[N-]CCc1ccc([O-])c([O-])c1

>  <Energy>  (87) 
31.367004441965037

>  <Genealogy>  (87) 
O=C(CNc1ccc([O-])cc1)[N-]CCc1ccc([O-])c([O-])c1 (protonated)
O=C(CNc1ccc([O-])cc1)[N-]CCc1ccc([O-])c([O-])c1 (3D coordinates assigned)
O=C(CNc1ccc([O-])cc1)[N-]CCc1ccc([O-])c([O-])c1 (optimized conformer: 31.367004441965037 kcal/mol)

>  <smiles>  (87) 
O=C(CNc1ccc(O)cc1)NCCc1ccc(O)c(O)c1

>  <score_type>  (87) 
oracle

>  <origin>  (87) 
adg

>  <m_score__min__energy>  (87) 
-16.440000000000001

>  <m_primary>  (87) 
energy

$$$$
