0:0
     RDKit          3D

 51 54  0  0  0  0  0  0  0  0999 V2000
   54.4084   27.9903   54.9177 H   0  0  0  0  0  0  0  0  0  0  0  0
   53.8090   28.5220   54.1640 C   0  0  0  0  0  0  0  0  0  0  0  0
   52.7268   28.3382   54.0922 H   0  0  0  0  0  0  0  0  0  0  0  0
   54.3980   29.3950   53.3320 C   0  0  0  0  0  0  0  0  0  0  0  0
   53.7870   30.1550   52.3180 C   0  0  0  0  0  0  0  0  0  0  0  0
   52.4900   30.3290   51.9970 C   0  0  0  0  0  0  0  0  0  0  0  0
   52.0222   29.5634   51.3606 H   0  0  0  0  0  0  0  0  0  0  0  0
   51.6480   31.4530   52.4240 C   0  0  0  0  0  0  0  0  0  0  0  0
   51.3200   31.7010   53.7030 N   0  0  0  0  0  0  0  0  0  0  0  0
   50.4820   32.7580   53.6090 C   0  0  0  0  0  0  0  0  0  0  0  0
   49.9630   33.3020   54.6190 O   0  0  0  0  0  0  0  0  0  0  0  0
   50.2390   33.1820   52.3520 N   0  0  0  0  0  0  0  0  0  0  0  0
   50.9780   32.3380   51.6120 C   0  0  0  0  0  0  0  0  0  0  0  0
   51.0270   32.3700   50.2230 O   0  0  0  0  0  0  0  0  0  0  0  0
   54.8170   30.7780   51.6280 C   0  0  0  0  0  0  0  0  0  0  0  0
   54.7151   31.4419   50.7569 H   0  0  0  0  0  0  0  0  0  0  0  0
   55.9930   30.4050   52.2440 C   0  0  0  0  0  0  0  0  0  0  0  0
   57.3340   30.8120   51.7930 C   0  0  0  0  0  0  0  0  0  0  0  0
   58.3300   30.1310   52.1650 O   0  0  0  0  0  0  0  0  0  0  0  0
   57.5100   31.9630   50.9320 N   0  0  1  0  0  0  0  0  0  0  0  0
   56.5560   32.3200   50.6760 H   0  0  0  0  0  0  0  0  0  0  0  0
   58.2080   33.0660   51.6590 C   0  0  0  0  0  0  0  0  0  0  0  0
   58.2304   32.8193   52.7307 H   0  0  0  0  0  0  0  0  0  0  0  0
   57.6503   33.9932   51.4606 H   0  0  0  0  0  0  0  0  0  0  0  0
   59.6490   33.2880   51.1790 C   0  0  0  0  0  0  0  0  0  0  0  0
   60.2351   32.3732   51.3513 H   0  0  0  0  0  0  0  0  0  0  0  0
   60.0905   34.1256   51.7389 H   0  0  0  0  0  0  0  0  0  0  0  0
   59.6590   33.6250   49.6730 C   0  0  1  0  0  0  0  0  0  0  0  0
   59.3064   34.6618   49.5698 H   0  0  0  0  0  0  0  0  0  0  0  0
   61.0670   33.5600   49.1080 C   0  0  0  0  0  0  0  0  0  0  0  0
   61.2900   33.5070   47.7170 C   0  0  0  0  0  0  0  0  0  0  0  0
   60.4338   33.4923   47.0265 H   0  0  0  0  0  0  0  0  0  0  0  0
   62.5930   33.4730   47.2090 C   0  0  0  0  0  0  0  0  0  0  0  0
   62.7581   33.4328   46.1222 H   0  0  0  0  0  0  0  0  0  0  0  0
   63.6840   33.4900   48.0800 C   0  0  0  0  0  0  0  0  0  0  0  0
   64.7081   33.4656   47.6793 H   0  0  0  0  0  0  0  0  0  0  0  0
   63.4750   33.5380   49.4610 C   0  0  0  0  0  0  0  0  0  0  0  0
   64.3359   33.5514   50.1456 H   0  0  0  0  0  0  0  0  0  0  0  0
   62.1760   33.5690   49.9750 C   0  0  0  0  0  0  0  0  0  0  0  0
   62.0191   33.6006   51.0633 H   0  0  0  0  0  0  0  0  0  0  0  0
   58.6650   32.7490   48.8630 C   0  0  0  0  0  0  0  0  0  0  0  0
   59.1699   32.3858   47.9557 H   0  0  0  0  0  0  0  0  0  0  0  0
   57.7924   33.3698   48.6119 H   0  0  0  0  0  0  0  0  0  0  0  0
   58.1700   31.5410   49.6720 C   0  0  0  0  0  0  0  0  0  0  0  0
   59.0288   30.8985   49.9163 H   0  0  0  0  0  0  0  0  0  0  0  0
   57.4337   30.9963   49.0627 H   0  0  0  0  0  0  0  0  0  0  0  0
   55.7440   29.5810   53.2860 N   0  0  0  0  0  0  0  0  0  0  0  0
   56.7360   29.0390   54.2200 C   0  0  0  0  0  0  0  0  0  0  0  0
   56.4044   29.2202   55.2530 H   0  0  0  0  0  0  0  0  0  0  0  0
   56.8433   27.9569   54.0538 H   0  0  0  0  0  0  0  0  0  0  0  0
   57.7045   29.5333   54.0538 H   0  0  0  0  0  0  0  0  0  0  0  0
  1  2  1  0
  2  3  1  0
  2  4  2  0
  4  5  1  0
  5  6  2  0
  6  7  1  0
  6  8  1  0
  8  9  1  0
  9 10  1  0
 10 11  2  0
 10 12  1  0
 12 13  1  0
 13 14  1  0
  5 15  1  0
 15 16  1  0
 15 17  2  0
 17 18  1  0
 18 19  2  0
 18 20  1  0
 20 21  1  1
 20 22  1  0
 22 23  1  0
 22 24  1  0
 22 25  1  0
 25 26  1  0
 25 27  1  0
 25 28  1  0
 28 29  1  6
 28 30  1  0
 30 31  2  0
 31 32  1  0
 31 33  1  0
 33 34  1  0
 33 35  2  0
 35 36  1  0
 35 37  1  0
 37 38  1  0
 37 39  2  0
 39 40  1  0
 28 41  1  0
 41 42  1  0
 41 43  1  0
 41 44  1  0
 44 45  1  0
 44 46  1  0
 17 47  1  0
 47 48  1  0
 48 49  1  0
 48 50  1  0
 48 51  1  0
 47  4  1  0
 13  8  2  0
 44 20  1  0
 39 30  1  0
M  CHG  4   9  -1  12  -1  14  -1  20   1
M  END
>  <UniqueID>  (1) 
1

>  <SMILES>  (1) 
C=c1/c(=C\c2[n-]c(=O)[n-]c2[O-])cc(C(=O)[NH+]2CCC(c3ccccc3)CC2)n1C

>  <Energy>  (1) 
141.41805201824897

>  <Genealogy>  (1) 
C=c1c(=Cc2[n-]c(=O)[n-]c2[O-])cc(C(=O)[NH+]2CCC(c3ccccc3)CC2)n1C (protonated)
C=c1/c(=C\c2[n-]c(=O)[n-]c2[O-])cc(C(=O)[NH+]2CCC(c3ccccc3)CC2)n1C (cis-trans isomerization)
C=c1/c(=C\c2[n-]c(=O)[n-]c2[O-])cc(C(=O)[NH+]2CCC(c3ccccc3)CC2)n1C (3D coordinates assigned)
C=c1/c(=C\c2[n-]c(=O)[n-]c2[O-])cc(C(=O)[NH+]2CCC(c3ccccc3)CC2)n1C (nonaromatic ring conformer: 141.41805201824897 kcal/mol)

>  <smiles>  (1) 
C=c1c(=Cc2[nH]c(=O)[nH]c2O)cc(C(=O)N2CCC(c3ccccc3)CC2)n1C

>  <score_type>  (1) 
oracle

>  <origin>  (1) 
adg

>  <m_score__min__energy>  (1) 
-17.32

>  <m_primary>  (1) 
energy

$$$$
1:0
     RDKit          3D

 58 60  0  0  0  0  0  0  0  0999 V2000
   54.5510   22.6920   48.2480 C   0  0  0  0  0  0  0  0  0  0  0  0
   54.1210   22.5570   46.8970 O   0  0  0  0  0  0  0  0  0  0  0  0
   54.9600   22.6800   45.7780 C   0  0  0  0  0  0  0  0  0  0  0  0
   55.7640   21.6130   45.3310 C   0  0  0  0  0  0  0  0  0  0  0  0
   56.5790   21.7640   44.2080 C   0  0  0  0  0  0  0  0  0  0  0  0
   56.6010   22.9760   43.5160 C   0  0  0  0  0  0  0  0  0  0  0  0
   55.8100   24.0420   43.9480 C   0  0  0  0  0  0  0  0  0  0  0  0
   54.9940   23.9080   45.0830 C   0  0  0  0  0  0  0  0  0  0  0  0
   54.1330   25.0590   45.5250 C   0  0  0  0  0  0  0  0  0  0  0  0
   54.9820   26.1660   45.9460 N   0  0  0  0  0  0  0  0  0  0  0  0
   56.2700   26.0310   46.5610 C   0  0  0  0  0  0  0  0  0  0  0  0
   56.5070   24.9970   47.2400 O   0  0  0  0  0  0  0  0  0  0  0  0
   57.3320   27.1000   46.4600 C   0  0  0  0  0  0  0  0  0  0  0  0
   57.5480   27.5680   45.0110 C   0  0  0  0  0  0  0  0  0  0  0  0
   57.9730   29.0170   44.8900 C   0  0  0  0  0  0  0  0  0  0  0  0
   59.1310   29.2930   44.4830 O   0  0  0  0  0  0  0  0  0  0  0  0
   57.0970   30.1140   45.2150 N   0  0  0  0  0  0  0  0  0  0  0  0
   57.3980   31.3250   45.5870 C   0  0  0  0  0  0  0  0  0  0  0  0
   58.1020   31.5010   46.7370 N   0  0  0  0  0  0  0  0  0  0  0  0
   58.4550   32.7400   47.1780 C   0  0  0  0  0  0  0  0  0  0  0  0
   59.2410   32.8870   48.4270 C   0  0  0  0  0  0  0  0  0  0  0  0
   58.6340   33.0080   49.5260 O   0  0  0  0  0  0  0  0  0  0  0  0
   60.6810   32.9140   48.4150 N   0  0  0  0  0  0  0  0  0  0  0  0
   61.3950   33.9260   49.1970 C   0  0  0  0  0  0  0  0  0  0  0  0
   62.6350   33.3100   49.8580 C   0  0  0  0  0  0  0  0  0  0  0  0
   63.4710   32.5530   48.9040 N   0  0  0  0  0  0  0  0  0  0  0  0
   64.2210   33.4290   47.9870 C   0  0  0  0  0  0  0  0  0  0  0  0
   62.6950   31.5160   48.1920 C   0  0  0  0  0  0  0  0  0  0  0  0
   61.4540   32.0810   47.4880 C   0  0  0  0  0  0  0  0  0  0  0  0
   58.1000   33.8610   46.4160 C   0  0  0  0  0  0  0  0  0  0  0  0
   57.3850   33.6660   45.2340 C   0  0  0  0  0  0  0  0  0  0  0  0
   57.0490   34.6510   44.5260 O   0  0  0  0  0  0  0  0  0  0  0  0
   57.0530   32.4090   44.8440 N   0  0  0  0  0  0  0  0  0  0  0  0
   53.7231   22.4321   48.9240 H   0  0  0  0  0  0  0  0  0  0  0  0
   55.4000   22.0172   48.4317 H   0  0  0  0  0  0  0  0  0  0  0  0
   54.8620   23.7310   48.4317 H   0  0  0  0  0  0  0  0  0  0  0  0
   55.7494   20.6545   45.8706 H   0  0  0  0  0  0  0  0  0  0  0  0
   57.2052   20.9262   43.8676 H   0  0  0  0  0  0  0  0  0  0  0  0
   57.2421   23.0912   42.6296 H   0  0  0  0  0  0  0  0  0  0  0  0
   55.8260   24.9932   43.3957 H   0  0  0  0  0  0  0  0  0  0  0  0
   53.4959   25.3828   44.6888 H   0  0  0  0  0  0  0  0  0  0  0  0
   53.4996   24.7416   46.3665 H   0  0  0  0  0  0  0  0  0  0  0  0
   57.0252   27.9630   47.0692 H   0  0  0  0  0  0  0  0  0  0  0  0
   58.2784   26.6715   46.8215 H   0  0  0  0  0  0  0  0  0  0  0  0
   58.3281   26.9393   44.5568 H   0  0  0  0  0  0  0  0  0  0  0  0
   56.5791   27.4759   44.4983 H   0  0  0  0  0  0  0  0  0  0  0  0
   61.7071   34.7449   48.5322 H   0  0  0  0  0  0  0  0  0  0  0  0
   60.7257   34.3112   49.9803 H   0  0  0  0  0  0  0  0  0  0  0  0
   63.2409   34.1187   50.2926 H   0  0  0  0  0  0  0  0  0  0  0  0
   62.2867   32.6053   50.6275 H   0  0  0  0  0  0  0  0  0  0  0  0
   64.8274   34.1373   48.5705 H   0  0  0  0  0  0  0  0  0  0  0  0
   64.8800   32.8177   47.3529 H   0  0  0  0  0  0  0  0  0  0  0  0
   63.5155   33.9860   47.3529 H   0  0  0  0  0  0  0  0  0  0  0  0
   63.3441   31.0471   47.4378 H   0  0  0  0  0  0  0  0  0  0  0  0
   62.3487   30.7886   48.9410 H   0  0  0  0  0  0  0  0  0  0  0  0
   61.7698   32.6907   46.6286 H   0  0  0  0  0  0  0  0  0  0  0  0
   60.8246   31.2464   47.1453 H   0  0  0  0  0  0  0  0  0  0  0  0
   58.3792   34.8735   46.7429 H   0  0  0  0  0  0  0  0  0  0  0  0
  1  2  1  0
  2  3  1  0
  3  4  2  0
  4  5  1  0
  5  6  2  0
  6  7  1  0
  7  8  2  0
  8  9  1  0
  9 10  1  0
 10 11  1  0
 11 12  2  0
 11 13  1  0
 13 14  1  0
 14 15  1  0
 15 16  2  0
 15 17  1  0
 17 18  2  3
 18 19  1  0
 19 20  1  0
 20 21  1  0
 21 22  2  0
 21 23  1  0
 23 24  1  0
 24 25  1  0
 25 26  1  0
 26 27  1  0
 26 28  1  0
 28 29  1  0
 20 30  2  0
 30 31  1  0
 31 32  2  0
 31 33  1  0
  8  3  1  0
 33 18  1  0
 29 23  1  0
  1 34  1  0
  1 35  1  0
  1 36  1  0
  4 37  1  0
  5 38  1  0
  6 39  1  0
  7 40  1  0
  9 41  1  0
  9 42  1  0
 13 43  1  0
 13 44  1  0
 14 45  1  0
 14 46  1  0
 24 47  1  0
 24 48  1  0
 25 49  1  0
 25 50  1  0
 27 51  1  0
 27 52  1  0
 27 53  1  0
 28 54  1  0
 28 55  1  0
 29 56  1  0
 29 57  1  0
 30 58  1  0
M  CHG  3  10  -1  19  -1  33  -1
M  END
>  <UniqueID>  (2) 
2

>  <SMILES>  (2) 
COc1ccccc1C[N-]C(=O)CCC(=O)N=c1[n-]c(C(=O)N2CCN(C)CC2)cc(=O)[n-]1

>  <Energy>  (2) 
67.1150549222058

>  <Genealogy>  (2) 
COc1ccccc1C[N-]C(=O)CCC(=O)N=c1[n-]c(C(=O)N2CCN(C)CC2)cc(=O)[n-]1 (protonated)
COc1ccccc1C[N-]C(=O)CCC(=O)N=c1[n-]c(C(=O)N2CCN(C)CC2)cc(=O)[n-]1 (3D coordinates assigned)
COc1ccccc1C[N-]C(=O)CCC(=O)N=c1[n-]c(C(=O)N2CCN(C)CC2)cc(=O)[n-]1 (nonaromatic ring conformer: 67.1150549222058 kcal/mol)

>  <smiles>  (2) 
COc1ccccc1CNC(=O)CCC(=O)N=c1[nH]c(C(=O)N2CCN(C)CC2)cc(=O)[nH]1

>  <score_type>  (2) 
oracle

>  <origin>  (2) 
adg

>  <m_score__min__energy>  (2) 
-13.18

>  <m_primary>  (2) 
energy

$$$$
2:0
     RDKit          3D

 53 56  0  0  0  0  0  0  0  0999 V2000
   60.7760   28.0000   49.9720 C   0  0  0  0  0  0  0  0  0  0  0  0
   60.4740   28.0690   48.4990 C   0  0  0  0  0  0  0  0  0  0  0  0
   60.7070   26.9400   47.6980 C   0  0  0  0  0  0  0  0  0  0  0  0
   60.4070   26.9630   46.3370 C   0  0  0  0  0  0  0  0  0  0  0  0
   59.8740   28.1130   45.7550 C   0  0  0  0  0  0  0  0  0  0  0  0
   59.6310   29.2560   46.5290 C   0  0  0  0  0  0  0  0  0  0  0  0
   59.0160   30.4630   45.8710 C   0  0  0  0  0  0  0  0  0  0  0  0
   59.8910   29.2220   47.9200 C   0  0  0  0  0  0  0  0  0  0  0  0
   59.6300   30.3740   48.7330 N   0  0  0  0  0  0  0  0  0  0  0  0
   58.5090   30.5310   49.4130 N   0  0  0  0  0  0  0  0  0  0  0  0
   58.5650   31.6750   50.0740 N   0  0  0  0  0  0  0  0  0  0  0  0
   59.7220   32.2750   49.8390 N   0  0  0  0  0  0  0  0  0  0  0  0
   60.3870   31.4700   48.9830 C   0  0  0  0  0  0  0  0  0  0  0  0
   61.8150   31.7730   48.5360 C   0  0  2  0  0  0  0  0  0  0  0  0
   62.1870   31.2160   47.1480 C   0  0  0  0  0  0  0  0  0  0  0  0
   62.8010   31.2290   49.6140 C   0  0  0  0  0  0  0  0  0  0  0  0
   63.1830   32.4130   50.5120 C   0  0  0  0  0  0  0  0  0  0  0  0
   62.7660   33.5790   49.7130 C   0  0  0  0  0  0  0  0  0  0  0  0
   63.0250   34.7700   50.0290 O   0  0  0  0  0  0  0  0  0  0  0  0
   62.0220   33.2260   48.5570 N   0  0  0  0  0  0  0  0  0  0  0  0
   61.4960   34.2040   47.5950 C   0  0  0  0  0  0  0  0  0  0  0  0
   60.0520   34.5940   47.9300 C   0  0  0  0  0  0  0  0  0  0  0  0
   59.1220   34.1720   46.8250 C   0  0  0  0  0  0  0  0  0  0  0  0
   57.8680   33.6120   47.1300 C   0  0  0  0  0  0  0  0  0  0  0  0
   57.0220   33.1760   46.1050 C   0  0  0  0  0  0  0  0  0  0  0  0
   57.4240   33.2930   44.7690 C   0  0  0  0  0  0  0  0  0  0  0  0
   58.6750   33.8390   44.4570 C   0  0  0  0  0  0  0  0  0  0  0  0
   59.5240   34.2720   45.4810 C   0  0  0  0  0  0  0  0  0  0  0  0
   59.8602   28.2092   50.5443 H   0  0  0  0  0  0  0  0  0  0  0  0
   61.1442   26.9946   50.2241 H   0  0  0  0  0  0  0  0  0  0  0  0
   61.5443   28.7457   50.2241 H   0  0  0  0  0  0  0  0  0  0  0  0
   61.1298   26.0297   48.1481 H   0  0  0  0  0  0  0  0  0  0  0  0
   60.5912   26.0712   45.7199 H   0  0  0  0  0  0  0  0  0  0  0  0
   59.6424   28.1230   44.6797 H   0  0  0  0  0  0  0  0  0  0  0  0
   58.6605   31.1606   46.6437 H   0  0  0  0  0  0  0  0  0  0  0  0
   59.7694   30.9628   45.2444 H   0  0  0  0  0  0  0  0  0  0  0  0
   58.1689   30.1472   45.2444 H   0  0  0  0  0  0  0  0  0  0  0  0
   62.7943   30.3068   47.2685 H   0  0  0  0  0  0  0  0  0  0  0  0
   61.2692   30.9730   46.5924 H   0  0  0  0  0  0  0  0  0  0  0  0
   62.7630   31.9707   46.5924 H   0  0  0  0  0  0  0  0  0  0  0  0
   62.3127   30.4445   50.2108 H   0  0  0  0  0  0  0  0  0  0  0  0
   63.6930   30.7897   49.1436 H   0  0  0  0  0  0  0  0  0  0  0  0
   62.6419   32.3748   51.4689 H   0  0  0  0  0  0  0  0  0  0  0  0
   64.2497   32.4288   50.7803 H   0  0  0  0  0  0  0  0  0  0  0  0
   62.1256   35.1056   47.6202 H   0  0  0  0  0  0  0  0  0  0  0  0
   61.5090   33.7479   46.5941 H   0  0  0  0  0  0  0  0  0  0  0  0
   59.7511   34.0991   48.8651 H   0  0  0  0  0  0  0  0  0  0  0  0
   59.9961   35.6866   48.0441 H   0  0  0  0  0  0  0  0  0  0  0  0
   57.5514   33.5166   48.1791 H   0  0  0  0  0  0  0  0  0  0  0  0
   56.0413   32.7414   46.3485 H   0  0  0  0  0  0  0  0  0  0  0  0
   56.7559   32.9554   43.9630 H   0  0  0  0  0  0  0  0  0  0  0  0
   58.9902   33.9275   43.4068 H   0  0  0  0  0  0  0  0  0  0  0  0
   60.5100   34.6924   45.2340 H   0  0  0  0  0  0  0  0  0  0  0  0
  1  2  1  0
  2  3  2  0
  3  4  1  0
  4  5  2  0
  5  6  1  0
  6  7  1  0
  6  8  2  0
  8  9  1  0
  9 10  1  0
 10 11  2  0
 11 12  1  0
 12 13  2  0
 13 14  1  0
 14 15  1  6
 14 16  1  0
 16 17  1  0
 17 18  1  0
 18 19  2  0
 18 20  1  0
 20 21  1  0
 21 22  1  0
 22 23  1  0
 23 24  2  0
 24 25  1  0
 25 26  2  0
 26 27  1  0
 27 28  2  0
  8  2  1  0
 13  9  1  0
 20 14  1  0
 28 23  1  0
  1 29  1  0
  1 30  1  0
  1 31  1  0
  3 32  1  0
  4 33  1  0
  5 34  1  0
  7 35  1  0
  7 36  1  0
  7 37  1  0
 15 38  1  0
 15 39  1  0
 15 40  1  0
 16 41  1  0
 16 42  1  0
 17 43  1  0
 17 44  1  0
 21 45  1  0
 21 46  1  0
 22 47  1  0
 22 48  1  0
 24 49  1  0
 25 50  1  0
 26 51  1  0
 27 52  1  0
 28 53  1  0
M  END
>  <UniqueID>  (3) 
3

>  <SMILES>  (3) 
Cc1cccc(C)c1-n1nnnc1[C@]1(C)CCC(=O)N1CCc1ccccc1

>  <Energy>  (3) 
108.82533654218788

>  <Genealogy>  (3) 
Cc1cccc(C)c1-n1nnnc1[C@]1(C)CCC(=O)N1CCc1ccccc1 (chirality)
Cc1cccc(C)c1-n1nnnc1[C@]1(C)CCC(=O)N1CCc1ccccc1 (3D coordinates assigned)
Cc1cccc(C)c1-n1nnnc1[C@]1(C)CCC(=O)N1CCc1ccccc1 (nonaromatic ring conformer: 108.82533654218788 kcal/mol)

>  <smiles>  (3) 
Cc1cccc(C)c1-n1nnnc1C1(C)CCC(=O)N1CCc1ccccc1

>  <score_type>  (3) 
oracle

>  <origin>  (3) 
adg

>  <m_score__min__energy>  (3) 
-9.1400000000000006

>  <m_primary>  (3) 
energy

$$$$
3:0
     RDKit          3D

 56 59  0  0  0  0  0  0  0  0999 V2000
   55.1480   29.4180   44.4780 O   0  0  0  0  0  0  0  0  0  0  0  0
   56.3700   29.6970   44.2330 C   0  0  0  0  0  0  0  0  0  0  0  0
   57.3420   28.6000   44.3560 C   0  0  0  0  0  0  0  0  0  0  0  0
   58.4080   28.9260   45.3560 C   0  0  0  0  0  0  0  0  0  0  0  0
   59.7370   29.0510   45.0200 C   0  0  0  0  0  0  0  0  0  0  0  0
   60.6520   29.3600   46.0380 C   0  0  0  0  0  0  0  0  0  0  0  0
   60.1920   29.5260   47.3270 C   0  0  0  0  0  0  0  0  0  0  0  0
   61.0450   29.8540   48.4590 C   0  0  0  0  0  0  0  0  0  0  0  0
   61.1190   28.9330   49.3580 O   0  0  0  0  0  0  0  0  0  0  0  0
   61.7580   31.0390   48.6370 N   0  0  0  0  0  0  0  0  0  0  0  0
   61.7860   32.1730   47.7420 C   0  0  0  0  0  0  0  0  0  0  0  0
   61.1220   33.3340   48.4480 C   0  0  0  0  0  0  0  0  0  0  0  0
   61.7080   33.5290   49.8130 C   0  0  0  0  0  0  0  0  0  0  0  0
   62.9010   34.4240   49.7280 C   0  0  0  0  0  0  0  0  0  0  0  0
   64.1460   33.8280   50.2640 C   0  0  0  0  0  0  0  0  0  0  0  0
   65.0310   33.0770   49.5240 C   0  0  0  0  0  0  0  0  0  0  0  0
   66.1550   32.5770   50.1370 C   0  0  0  0  0  0  0  0  0  0  0  0
   66.4490   32.7820   51.4630 C   0  0  0  0  0  0  0  0  0  0  0  0
   65.5620   33.5330   52.2010 C   0  0  0  0  0  0  0  0  0  0  0  0
   64.4300   34.0460   51.6120 C   0  0  0  0  0  0  0  0  0  0  0  0
   61.8990   32.2940   50.6200 C   0  0  0  0  0  0  0  0  0  0  0  0
   62.5780   31.1840   49.8590 C   0  0  0  0  0  0  0  0  0  0  0  0
   58.8280   29.3880   47.6260 C   0  0  0  0  0  0  0  0  0  0  0  0
   57.9640   29.0920   46.6330 N   0  0  0  0  0  0  0  0  0  0  0  0
   56.6580   31.0270   43.8690 N   0  0  0  0  0  0  0  0  0  0  0  0
   57.2600   31.9040   44.5600 C   0  0  0  0  0  0  0  0  0  0  0  0
   57.7720   32.9770   43.8850 N   0  0  0  0  0  0  0  0  0  0  0  0
   58.4320   33.9540   44.5320 C   0  0  0  0  0  0  0  0  0  0  0  0
   58.6110   33.9030   45.9030 C   0  0  0  0  0  0  0  0  0  0  0  0
   58.0860   32.8100   46.5710 C   0  0  0  0  0  0  0  0  0  0  0  0
   57.4290   31.8510   45.8750 N   0  0  0  0  0  0  0  0  0  0  0  0
   56.8155   27.6894   44.6778 H   0  0  0  0  0  0  0  0  0  0  0  0
   57.8197   28.4485   43.3768 H   0  0  0  0  0  0  0  0  0  0  0  0
   60.0726   28.9124   43.9817 H   0  0  0  0  0  0  0  0  0  0  0  0
   61.7227   29.4684   45.8104 H   0  0  0  0  0  0  0  0  0  0  0  0
   62.8268   32.4302   47.4959 H   0  0  0  0  0  0  0  0  0  0  0  0
   61.2570   31.9381   46.8066 H   0  0  0  0  0  0  0  0  0  0  0  0
   61.2715   34.2494   47.8567 H   0  0  0  0  0  0  0  0  0  0  0  0
   60.0485   33.1177   48.5516 H   0  0  0  0  0  0  0  0  0  0  0  0
   60.9462   34.0425   50.4179 H   0  0  0  0  0  0  0  0  0  0  0  0
   63.0673   34.6777   48.6707 H   0  0  0  0  0  0  0  0  0  0  0  0
   62.6799   35.3053   50.3480 H   0  0  0  0  0  0  0  0  0  0  0  0
   64.8416   32.8801   48.4585 H   0  0  0  0  0  0  0  0  0  0  0  0
   66.8560   31.9813   49.5339 H   0  0  0  0  0  0  0  0  0  0  0  0
   67.3583   32.3622   51.9178 H   0  0  0  0  0  0  0  0  0  0  0  0
   65.7595   33.7235   53.2662 H   0  0  0  0  0  0  0  0  0  0  0  0
   63.7322   34.6422   52.2183 H   0  0  0  0  0  0  0  0  0  0  0  0
   62.5134   32.5421   51.4980 H   0  0  0  0  0  0  0  0  0  0  0  0
   60.8996   31.9315   50.9027 H   0  0  0  0  0  0  0  0  0  0  0  0
   63.6127   31.4586   49.6060 H   0  0  0  0  0  0  0  0  0  0  0  0
   62.6456   30.2514   50.4383 H   0  0  0  0  0  0  0  0  0  0  0  0
   58.4677   29.5195   48.6570 H   0  0  0  0  0  0  0  0  0  0  0  0
   58.8350   34.8051   43.9635 H   0  0  0  0  0  0  0  0  0  0  0  0
   59.1484   34.6983   46.4402 H   0  0  0  0  0  0  0  0  0  0  0  0
   58.2016   32.7206   47.6612 H   0  0  0  0  0  0  0  0  0  0  0  0
   57.0300   31.0180   46.3750 H   0  0  0  0  0  0  0  0  0  0  0  0
  1  2  2  0
  2  3  1  0
  3  4  1  0
  4  5  2  0
  5  6  1  0
  6  7  2  0
  7  8  1  0
  8  9  2  0
  8 10  1  0
 10 11  1  0
 11 12  1  0
 12 13  1  0
 13 14  1  0
 14 15  1  0
 15 16  2  0
 16 17  1  0
 17 18  2  0
 18 19  1  0
 19 20  2  0
 13 21  1  0
 21 22  1  0
  7 23  1  0
 23 24  2  0
  2 25  1  0
 25 26  2  3
 26 27  1  0
 27 28  2  0
 28 29  1  0
 29 30  2  0
 30 31  1  0
 24  4  1  0
 31 26  1  0
 22 10  1  0
 20 15  1  0
  3 32  1  0
  3 33  1  0
  5 34  1  0
  6 35  1  0
 11 36  1  0
 11 37  1  0
 12 38  1  0
 12 39  1  0
 13 40  1  0
 14 41  1  0
 14 42  1  0
 16 43  1  0
 17 44  1  0
 18 45  1  0
 19 46  1  0
 20 47  1  0
 21 48  1  0
 21 49  1  0
 22 50  1  0
 22 51  1  0
 23 52  1  0
 28 53  1  0
 29 54  1  0
 30 55  1  0
 31 56  1  0
M  END
>  <smiles>  (4) 
O=C(Cc1ccc(C(=O)N2CCC(Cc3ccccc3)CC2)cn1)N=c1nccc[nH]1

>  <score_type>  (4) 
oracle

>  <origin>  (4) 
adg

>  <m_score__min__energy>  (4) 
-10.26

>  <m_primary>  (4) 
energy

$$$$
4:0
     RDKit          3D

 46 49  0  0  0  0  0  0  0  0999 V2000
   56.6250   20.5900   50.4800 O   0  0  0  0  0  0  0  0  0  0  0  0
   56.3280   21.3560   49.5250 C   0  0  0  0  0  0  0  0  0  0  0  0
   57.2900   22.1350   48.9730 N   0  0  0  0  0  0  0  0  0  0  0  0
   57.0340   22.9320   47.9360 N   0  0  0  0  0  0  0  0  0  0  0  0
   55.7950   23.0220   47.3810 C   0  0  0  0  0  0  0  0  0  0  0  0
   55.6300   23.8850   46.1540 C   0  0  0  0  0  0  0  0  0  0  0  0
   56.7040   24.9490   46.0680 C   0  0  0  0  0  0  0  0  0  0  0  0
   58.0570   24.5730   46.0150 C   0  0  0  0  0  0  0  0  0  0  0  0
   59.0590   25.5440   45.9460 C   0  0  0  0  0  0  0  0  0  0  0  0
   58.7230   26.8980   45.9320 C   0  0  0  0  0  0  0  0  0  0  0  0
   57.3820   27.2890   45.9830 C   0  0  0  0  0  0  0  0  0  0  0  0
   57.0600   28.6800   46.0100 N   0  0  0  0  0  0  0  0  0  0  0  0
   56.6430   29.5240   44.5590 S   0  0  0  0  0  0  0  0  0  0  0  0
   55.1520   29.6810   44.4550 O   0  0  0  0  0  0  0  0  0  0  0  0
   57.1230   28.7340   43.3740 O   0  0  0  0  0  0  0  0  0  0  0  0
   57.4190   31.1050   44.5670 C   0  0  0  0  0  0  0  0  0  0  0  0
   57.6870   31.7710   43.3650 C   0  0  0  0  0  0  0  0  0  0  0  0
   58.3110   32.9800   43.3780 N   0  0  0  0  0  0  0  0  0  0  0  0
   58.6940   33.5730   44.5400 C   0  0  0  0  0  0  0  0  0  0  0  0
   58.4530   32.9390   45.7610 C   0  0  0  0  0  0  0  0  0  0  0  0
   58.9970   33.7690   47.3930 Br  0  0  0  0  0  0  0  0  0  0  0  0
   57.8150   31.6960   45.7730 C   0  0  0  0  0  0  0  0  0  0  0  0
   56.3690   26.3170   46.0180 C   0  0  0  0  0  0  0  0  0  0  0  0
   55.0350   26.7130   45.9890 O   0  0  0  0  0  0  0  0  0  0  0  0
   54.7400   22.2690   47.9450 C   0  0  0  0  0  0  0  0  0  0  0  0
   55.0200   21.4090   49.0200 C   0  0  0  0  0  0  0  0  0  0  0  0
   53.9390   20.4770   49.5150 C   0  0  0  0  0  0  0  0  0  0  0  0
   52.5560   21.1550   49.5960 C   0  0  0  0  0  0  0  0  0  0  0  0
   52.3280   22.3000   48.5830 C   0  0  0  0  0  0  0  0  0  0  0  0
   53.3250   22.3010   47.4180 C   0  0  0  0  0  0  0  0  0  0  0  0
   55.6877   23.2474   45.2595 H   0  0  0  0  0  0  0  0  0  0  0  0
   54.6538   24.3880   46.2178 H   0  0  0  0  0  0  0  0  0  0  0  0
   58.3289   23.5072   46.0279 H   0  0  0  0  0  0  0  0  0  0  0  0
   60.1154   25.2403   45.9026 H   0  0  0  0  0  0  0  0  0  0  0  0
   59.5151   27.6595   45.8807 H   0  0  0  0  0  0  0  0  0  0  0  0
   57.3924   31.3158   42.4079 H   0  0  0  0  0  0  0  0  0  0  0  0
   59.1939   34.5526   44.5185 H   0  0  0  0  0  0  0  0  0  0  0  0
   57.6243   31.1831   46.7273 H   0  0  0  0  0  0  0  0  0  0  0  0
   53.8710   19.6211   48.8274 H   0  0  0  0  0  0  0  0  0  0  0  0
   54.2136   20.1623   50.5326 H   0  0  0  0  0  0  0  0  0  0  0  0
   51.7887   20.3866   49.4204 H   0  0  0  0  0  0  0  0  0  0  0  0
   52.4966   21.6124   50.5946 H   0  0  0  0  0  0  0  0  0  0  0  0
   51.3128   22.2019   48.1710 H   0  0  0  0  0  0  0  0  0  0  0  0
   52.4706   23.2445   49.1285 H   0  0  0  0  0  0  0  0  0  0  0  0
   53.1508   21.4152   46.7895 H   0  0  0  0  0  0  0  0  0  0  0  0
   53.1830   23.2157   46.8238 H   0  0  0  0  0  0  0  0  0  0  0  0
  1  2  2  0
  2  3  1  0
  3  4  1  0
  4  5  2  0
  5  6  1  0
  6  7  1  0
  7  8  2  0
  8  9  1  0
  9 10  2  0
 10 11  1  0
 11 12  1  0
 12 13  1  0
 13 14  2  0
 13 15  2  0
 13 16  1  0
 16 17  2  0
 17 18  1  0
 18 19  2  0
 19 20  1  0
 20 21  1  0
 20 22  2  0
 11 23  2  0
 23 24  1  0
  5 25  1  0
 25 26  2  0
 26 27  1  0
 27 28  1  0
 28 29  1  0
 29 30  1  0
 26  2  1  0
 23  7  1  0
 30 25  1  0
 22 16  1  0
  6 31  1  0
  6 32  1  0
  8 33  1  0
  9 34  1  0
 10 35  1  0
 17 36  1  0
 19 37  1  0
 22 38  1  0
 27 39  1  0
 27 40  1  0
 28 41  1  0
 28 42  1  0
 29 43  1  0
 29 44  1  0
 30 45  1  0
 30 46  1  0
M  CHG  3   3  -1  12  -1  24  -1
M  END
>  <UniqueID>  (5) 
4

>  <SMILES>  (5) 
O=c1[n-]nc(Cc2cccc([N-]S(=O)(=O)c3cncc(Br)c3)c2[O-])c2c1CCCC2

>  <Energy>  (5) 
65.51570052909547

>  <Genealogy>  (5) 
O=c1[n-]nc(Cc2cccc([N-]S(=O)(=O)c3cncc(Br)c3)c2[O-])c2c1CCCC2 (protonated)
O=c1[n-]nc(Cc2cccc([N-]S(=O)(=O)c3cncc(Br)c3)c2[O-])c2c1CCCC2 (3D coordinates assigned)
O=c1[n-]nc(Cc2cccc([N-]S(=O)(=O)c3cncc(Br)c3)c2[O-])c2c1CCCC2 (nonaromatic ring conformer: 65.51570052909547 kcal/mol)

>  <smiles>  (5) 
O=c1[nH]nc(Cc2cccc(NS(=O)(=O)c3cncc(Br)c3)c2O)c2c1CCCC2

>  <score_type>  (5) 
oracle

>  <origin>  (5) 
adg

>  <m_score__min__energy>  (5) 
-16.550000000000001

>  <m_primary>  (5) 
energy

$$$$
5:0
     RDKit          3D

 51 54  0  0  0  0  0  0  0  0999 V2000
   52.5015   28.1135   54.2621 H   0  0  0  0  0  0  0  0  0  0  0  0
   53.5580   28.4120   54.3310 C   0  0  0  0  0  0  0  0  0  0  0  0
   54.2517   27.8377   54.9626 H   0  0  0  0  0  0  0  0  0  0  0  0
   53.9990   29.4730   53.6470 C   0  0  0  0  0  0  0  0  0  0  0  0
   53.3070   30.2430   52.6990 C   0  0  0  0  0  0  0  0  0  0  0  0
   52.0100   30.2450   52.3360 C   0  0  0  0  0  0  0  0  0  0  0  0
   51.2845   29.8493   53.0620 H   0  0  0  0  0  0  0  0  0  0  0  0
   51.4800   30.7300   51.0540 C   0  0  0  0  0  0  0  0  0  0  0  0
   51.4800   29.9990   49.9250 N   0  0  0  0  0  0  0  0  0  0  0  0
   51.0350   30.8680   48.9920 C   0  0  0  0  0  0  0  0  0  0  0  0
   50.8790   30.5460   47.7850 O   0  0  0  0  0  0  0  0  0  0  0  0
   50.7800   32.1130   49.4490 N   0  0  0  0  0  0  0  0  0  0  0  0
   51.0820   32.0140   50.7530 C   0  0  0  0  0  0  0  0  0  0  0  0
   51.0220   33.0790   51.6440 O   0  0  0  0  0  0  0  0  0  0  0  0
   54.2500   31.0880   52.1360 C   0  0  0  0  0  0  0  0  0  0  0  0
   54.0802   31.8120   51.3254 H   0  0  0  0  0  0  0  0  0  0  0  0
   55.4450   30.8470   52.7880 C   0  0  0  0  0  0  0  0  0  0  0  0
   56.7210   31.5400   52.4940 C   0  0  0  0  0  0  0  0  0  0  0  0
   56.6770   32.6580   51.9090 O   0  0  0  0  0  0  0  0  0  0  0  0
   58.0020   30.9300   52.8110 N   0  0  0  0  0  0  0  0  0  0  0  0
   57.9240   30.5130   53.7690 H   0  0  0  0  0  0  0  0  0  0  0  0
   58.2980   29.8240   51.8740 C   0  0  0  0  0  0  0  0  0  0  0  0
   59.2136   29.3123   52.2053 H   0  0  0  0  0  0  0  0  0  0  0  0
   57.4388   29.1372   51.8739 H   0  0  0  0  0  0  0  0  0  0  0  0
   58.5040   30.3320   50.4360 C   0  0  0  0  0  0  0  0  0  0  0  0
   59.1004   29.5967   49.8760 H   0  0  0  0  0  0  0  0  0  0  0  0
   57.5188   30.4653   49.9652 H   0  0  0  0  0  0  0  0  0  0  0  0
   59.2040   31.6210   50.4330 N   0  0  0  0  0  0  0  0  0  0  0  0
   59.1500   32.4730   49.2710 C   0  0  0  0  0  0  0  0  0  0  0  0
   59.7550   33.7410   49.2870 C   0  0  0  0  0  0  0  0  0  0  0  0
   60.2626   34.0919   50.1976 H   0  0  0  0  0  0  0  0  0  0  0  0
   59.7170   34.5600   48.1550 C   0  0  0  0  0  0  0  0  0  0  0  0
   60.1900   35.5528   48.1814 H   0  0  0  0  0  0  0  0  0  0  0  0
   59.0760   34.1200   46.9810 C   0  0  0  0  0  0  0  0  0  0  0  0
   59.0100   34.9040   45.8190 O   0  0  0  0  0  0  0  0  0  0  0  0
   58.9790   34.3800   44.4960 C   0  0  0  0  0  0  0  0  0  0  0  0
   58.9141   33.2827   44.5377 H   0  0  0  0  0  0  0  0  0  0  0  0
   58.1029   34.7792   43.9639 H   0  0  0  0  0  0  0  0  0  0  0  0
   59.8961   34.6731   43.9639 H   0  0  0  0  0  0  0  0  0  0  0  0
   58.4820   32.8530   46.9620 C   0  0  0  0  0  0  0  0  0  0  0  0
   57.9814   32.4986   46.0489 H   0  0  0  0  0  0  0  0  0  0  0  0
   58.5200   32.0340   48.0950 C   0  0  0  0  0  0  0  0  0  0  0  0
   58.0530   31.0385   48.0649 H   0  0  0  0  0  0  0  0  0  0  0  0
   59.9790   32.0020   51.6180 C   0  0  0  0  0  0  0  0  0  0  0  0
   60.8318   31.3158   51.7274 H   0  0  0  0  0  0  0  0  0  0  0  0
   60.3338   33.0354   51.4907 H   0  0  0  0  0  0  0  0  0  0  0  0
   59.1060   31.9310   52.8880 C   0  0  0  0  0  0  0  0  0  0  0  0
   59.7528   31.6678   53.7379 H   0  0  0  0  0  0  0  0  0  0  0  0
   58.6334   32.9174   53.0046 H   0  0  0  0  0  0  0  0  0  0  0  0
   55.2860   29.8720   53.7040 N   0  0  0  0  0  0  0  0  0  0  0  0
   56.0290   29.4510   54.3050 H   0  0  0  0  0  0  0  0  0  0  0  0
  1  2  1  0
  2  3  1  0
  2  4  2  0
  4  5  1  0
  5  6  2  0
  6  7  1  0
  6  8  1  0
  8  9  1  0
  9 10  1  0
 10 11  2  0
 10 12  1  0
 12 13  1  0
 13 14  1  0
  5 15  1  0
 15 16  1  0
 15 17  2  0
 17 18  1  0
 18 19  2  0
 18 20  1  0
 20 21  1  0
 20 22  1  0
 22 23  1  0
 22 24  1  0
 22 25  1  0
 25 26  1  0
 25 27  1  0
 25 28  1  0
 28 29  1  0
 29 30  2  0
 30 31  1  0
 30 32  1  0
 32 33  1  0
 32 34  2  0
 34 35  1  0
 35 36  1  0
 36 37  1  0
 36 38  1  0
 36 39  1  0
 34 40  1  0
 40 41  1  0
 40 42  2  0
 42 43  1  0
 28 44  1  0
 44 45  1  0
 44 46  1  0
 44 47  1  0
 47 48  1  0
 47 49  1  0
 17 50  1  0
 50 51  1  0
 50  4  1  0
 13  8  2  0
 47 20  1  0
 42 29  1  0
M  CHG  4   9  -1  12  -1  14  -1  20   1
M  END
>  <UniqueID>  (6) 
5

>  <SMILES>  (6) 
C=c1[nH]c(C(=O)[NH+]2CCN(c3ccc(OC)cc3)CC2)c/c1=C/c1[n-]c(=O)[n-]c1[O-]

>  <Energy>  (6) 
135.5987747331524

>  <Genealogy>  (6) 
C=c1[nH]c(C(=O)[NH+]2CCN(c3ccc(OC)cc3)CC2)cc1=Cc1[n-]c(=O)[n-]c1[O-] (protonated)
C=c1[nH]c(C(=O)[NH+]2CCN(c3ccc(OC)cc3)CC2)c/c1=C/c1[n-]c(=O)[n-]c1[O-] (cis-trans isomerization)
C=c1[nH]c(C(=O)[NH+]2CCN(c3ccc(OC)cc3)CC2)c/c1=C/c1[n-]c(=O)[n-]c1[O-] (3D coordinates assigned)
C=c1[nH]c(C(=O)[NH+]2CCN(c3ccc(OC)cc3)CC2)c/c1=C/c1[n-]c(=O)[n-]c1[O-] (nonaromatic ring conformer: 135.5987747331524 kcal/mol)

>  <smiles>  (6) 
C=c1[nH]c(C(=O)N2CCN(c3ccc(OC)cc3)CC2)cc1=Cc1[nH]c(=O)[nH]c1O

>  <score_type>  (6) 
oracle

>  <origin>  (6) 
adg

>  <m_score__min__energy>  (6) 
-16.73

>  <m_primary>  (6) 
energy

$$$$
6:0
     RDKit          3D

 39 40  0  0  0  0  0  0  0  0999 V2000
   59.5070   31.6620   49.1140 C   0  0  0  0  0  0  0  0  0  0  0  0
   58.6460   31.2680   47.9100 C   0  0  2  0  0  0  0  0  0  0  0  0
   59.1330   30.0200   47.3150 N   0  0  0  0  0  0  0  0  0  0  0  0
   59.5360   28.9010   48.1200 C   0  0  0  0  0  0  0  0  0  0  0  0
   59.4650   28.9650   49.3770 O   0  0  0  0  0  0  0  0  0  0  0  0
   60.0170   27.6370   47.4740 C   0  0  0  0  0  0  0  0  0  0  0  0
   59.2210   26.4990   47.9230 N   0  0  0  0  0  0  0  0  0  0  0  0
   58.1210   25.9110   47.2140 C   0  0  0  0  0  0  0  0  0  0  0  0
   57.2340   25.3090   47.8770 O   0  0  0  0  0  0  0  0  0  0  0  0
   57.9490   26.0690   45.7240 C   0  0  0  0  0  0  0  0  0  0  0  0
   57.3850   27.4290   45.3780 C   0  0  0  0  0  0  0  0  0  0  0  0
   56.0140   27.6990   45.5280 C   0  0  0  0  0  0  0  0  0  0  0  0
   55.1420   26.7160   45.9790 O   0  0  0  0  0  0  0  0  0  0  0  0
   55.5280   28.9330   45.2370 N   0  0  0  0  0  0  0  0  0  0  0  0
   56.3470   29.9260   44.8080 C   0  0  0  0  0  0  0  0  0  0  0  0
   55.8730   31.0610   44.5410 O   0  0  0  0  0  0  0  0  0  0  0  0
   57.6780   29.6980   44.6680 N   0  0  0  0  0  0  0  0  0  0  0  0
   58.2140   28.4820   44.9460 C   0  0  0  0  0  0  0  0  0  0  0  0
   59.4560   28.3130   44.8150 O   0  0  0  0  0  0  0  0  0  0  0  0
   58.6430   32.3780   46.8820 C   0  0  0  0  0  0  0  0  0  0  0  0
   57.4390   32.7740   46.2720 C   0  0  0  0  0  0  0  0  0  0  0  0
   57.4300   33.8090   45.3320 C   0  0  0  0  0  0  0  0  0  0  0  0
   58.6190   34.4630   44.9980 C   0  0  0  0  0  0  0  0  0  0  0  0
   59.8190   34.0840   45.6050 C   0  0  0  0  0  0  0  0  0  0  0  0
   59.8330   33.0500   46.5460 C   0  0  0  0  0  0  0  0  0  0  0  0
   58.9718   31.4171   50.0433 H   0  0  0  0  0  0  0  0  0  0  0  0
   60.4575   31.1092   49.0817 H   0  0  0  0  0  0  0  0  0  0  0  0
   59.7100   32.7426   49.0817 H   0  0  0  0  0  0  0  0  0  0  0  0
   57.6144   31.1067   48.2561 H   0  0  0  0  0  0  0  0  0  0  0  0
   59.1880   29.9330   46.2740 H   0  0  0  0  0  0  0  0  0  0  0  0
   59.9286   27.7323   46.3817 H   0  0  0  0  0  0  0  0  0  0  0  0
   61.0671   27.4703   47.7561 H   0  0  0  0  0  0  0  0  0  0  0  0
   58.9277   25.9520   45.2357 H   0  0  0  0  0  0  0  0  0  0  0  0
   57.2447   25.3008   45.3720 H   0  0  0  0  0  0  0  0  0  0  0  0
   56.4994   32.2666   46.5359 H   0  0  0  0  0  0  0  0  0  0  0  0
   56.4855   34.1090   44.8546 H   0  0  0  0  0  0  0  0  0  0  0  0
   58.6101   35.2761   44.2572 H   0  0  0  0  0  0  0  0  0  0  0  0
   60.7543   34.5999   45.3421 H   0  0  0  0  0  0  0  0  0  0  0  0
   60.7792   32.7602   47.0263 H   0  0  0  0  0  0  0  0  0  0  0  0
  1  2  1  0
  2  3  1  0
  3  4  1  0
  4  5  2  0
  4  6  1  0
  6  7  1  0
  7  8  1  0
  8  9  2  0
  8 10  1  0
 10 11  1  0
 11 12  2  0
 12 13  1  0
 12 14  1  0
 14 15  1  0
 15 16  2  0
 15 17  1  0
 17 18  1  0
 18 19  2  0
  2 20  1  0
 20 21  2  0
 21 22  1  0
 22 23  2  0
 23 24  1  0
 24 25  2  0
 18 11  1  0
 25 20  1  0
  1 26  1  0
  1 27  1  0
  1 28  1  0
  2 29  1  1
  3 30  1  0
  6 31  1  0
  6 32  1  0
 10 33  1  0
 10 34  1  0
 21 35  1  0
 22 36  1  0
 23 37  1  0
 24 38  1  0
 25 39  1  0
M  CHG  4   7  -1  13  -1  14  -1  17  -1
M  END
>  <UniqueID>  (7) 
6

>  <SMILES>  (7) 
C[C@H](NC(=O)C[N-]C(=O)Cc1c([O-])[n-]c(=O)[n-]c1=O)c1ccccc1

>  <Energy>  (7) 
34.8982377166207

>  <Genealogy>  (7) 
CC(NC(=O)C[N-]C(=O)Cc1c([O-])[n-]c(=O)[n-]c1=O)c1ccccc1 (protonated)
C[C@H](NC(=O)C[N-]C(=O)Cc1c([O-])[n-]c(=O)[n-]c1=O)c1ccccc1 (chirality)
C[C@H](NC(=O)C[N-]C(=O)Cc1c([O-])[n-]c(=O)[n-]c1=O)c1ccccc1 (3D coordinates assigned)
C[C@H](NC(=O)C[N-]C(=O)Cc1c([O-])[n-]c(=O)[n-]c1=O)c1ccccc1 (optimized conformer: 34.8982377166207 kcal/mol)

>  <smiles>  (7) 
CC(NC(=O)CNC(=O)Cc1c(O)[nH]c(=O)[nH]c1=O)c1ccccc1

>  <score_type>  (7) 
oracle

>  <origin>  (7) 
adg

>  <m_score__min__energy>  (7) 
-16.199999999999999

>  <m_primary>  (7) 
energy

$$$$
7:0
     RDKit          3D

 58 61  0  0  0  0  0  0  0  0999 V2000
   54.0570   25.1060   45.2230 H   0  0  0  0  0  0  0  0  0  0  0  0
   54.2670   24.0980   45.4040 N   0  0  0  0  0  0  0  0  0  0  0  0
   55.4190   23.5840   45.1130 C   0  0  0  0  0  0  0  0  0  0  0  0
   55.5160   22.6640   44.1150 N   0  0  0  0  0  0  0  0  0  0  0  0
   56.7070   22.1070   43.7770 C   0  0  0  0  0  0  0  0  0  0  0  0
   56.7604   21.3580   42.9732 H   0  0  0  0  0  0  0  0  0  0  0  0
   57.8660   22.4930   44.4590 C   0  0  0  0  0  0  0  0  0  0  0  0
   59.1880   21.8740   44.1340 C   0  0  0  0  0  0  0  0  0  0  0  0
   59.7162   21.6267   45.0666 H   0  0  0  0  0  0  0  0  0  0  0  0
   59.0292   20.9566   43.5482 H   0  0  0  0  0  0  0  0  0  0  0  0
   59.7909   22.5834   43.5482 H   0  0  0  0  0  0  0  0  0  0  0  0
   57.7700   23.4010   45.4660 N   0  0  0  0  0  0  0  0  0  0  0  0
   56.5800   23.9600   45.8180 C   0  0  0  0  0  0  0  0  0  0  0  0
   56.5510   24.9810   46.9280 C   0  0  0  0  0  0  0  0  0  0  0  0
   57.5111   24.9501   47.4640 H   0  0  0  0  0  0  0  0  0  0  0  0
   55.7136   24.7322   47.5965 H   0  0  0  0  0  0  0  0  0  0  0  0
   56.3300   26.3790   46.4050 C   0  0  0  0  0  0  0  0  0  0  0  0
   55.1830   26.7180   46.0050 O   0  0  0  0  0  0  0  0  0  0  0  0
   57.4240   27.2750   46.1790 N   0  0  0  0  0  0  0  0  0  0  0  0
   57.3360   28.5810   45.5920 C   0  0  0  0  0  0  0  0  0  0  0  0
   56.7120   28.7520   44.3470 C   0  0  0  0  0  0  0  0  0  0  0  0
   56.2856   27.8818   43.8265 H   0  0  0  0  0  0  0  0  0  0  0  0
   56.6280   30.0140   43.7650 C   0  0  0  0  0  0  0  0  0  0  0  0
   56.1184   30.1406   42.7984 H   0  0  0  0  0  0  0  0  0  0  0  0
   57.1890   31.1170   44.4060 C   0  0  0  0  0  0  0  0  0  0  0  0
   57.1074   32.1135   43.9475 H   0  0  0  0  0  0  0  0  0  0  0  0
   57.8570   30.9680   45.6310 C   0  0  0  0  0  0  0  0  0  0  0  0
   58.4830   32.1580   46.2440 C   0  0  0  0  0  0  0  0  0  0  0  0
   58.8590   32.1250   47.5510 N   0  0  0  0  0  0  0  0  0  0  0  0
   59.4570   33.1790   48.1680 C   0  0  0  0  0  0  0  0  0  0  0  0
   59.8050   33.0490   49.4190 N   0  0  0  0  0  0  0  0  0  0  0  0
   59.0130   32.4980   50.4830 C   0  0  0  0  0  0  0  0  0  0  0  0
   59.1730   32.9920   51.7810 C   0  0  0  0  0  0  0  0  0  0  0  0
   59.8797   33.8118   51.9770 H   0  0  0  0  0  0  0  0  0  0  0  0
   58.4290   32.4380   52.8310 C   0  0  0  0  0  0  0  0  0  0  0  0
   58.5370   33.0000   54.2160 C   0  0  0  0  0  0  0  0  0  0  0  0
   58.3825   32.1962   54.9509 H   0  0  0  0  0  0  0  0  0  0  0  0
   59.5359   33.4387   54.3569 H   0  0  0  0  0  0  0  0  0  0  0  0
   57.7719   33.7776   54.3569 H   0  0  0  0  0  0  0  0  0  0  0  0
   57.5300   31.3990   52.5580 C   0  0  0  0  0  0  0  0  0  0  0  0
   56.9143   30.9731   53.3640 H   0  0  0  0  0  0  0  0  0  0  0  0
   57.4210   30.9080   51.2560 C   0  0  0  0  0  0  0  0  0  0  0  0
   56.7316   30.0789   51.0385 H   0  0  0  0  0  0  0  0  0  0  0  0
   58.1650   31.4520   50.2550 N   0  0  0  0  0  0  0  0  0  0  0  0
   58.0850   31.0440   49.2960 H   0  0  0  0  0  0  0  0  0  0  0  0
   59.7220   34.3460   47.4240 C   0  0  0  0  0  0  0  0  0  0  0  0
   60.2309   35.1987   47.8971 H   0  0  0  0  0  0  0  0  0  0  0  0
   59.3350   34.4160   46.0800 C   0  0  0  0  0  0  0  0  0  0  0  0
   59.6450   35.6370   45.2650 C   0  0  0  0  0  0  0  0  0  0  0  0
   59.8594   36.4814   45.9366 H   0  0  0  0  0  0  0  0  0  0  0  0
   60.5220   35.4414   44.6305 H   0  0  0  0  0  0  0  0  0  0  0  0
   58.7809   35.8834   44.6305 H   0  0  0  0  0  0  0  0  0  0  0  0
   58.7270   33.3060   45.4810 C   0  0  0  0  0  0  0  0  0  0  0  0
   58.4432   33.3359   44.4187 H   0  0  0  0  0  0  0  0  0  0  0  0
   57.9370   29.6860   46.2330 C   0  0  0  0  0  0  0  0  0  0  0  0
   58.5650   29.5120   47.5150 N   0  0  0  0  0  0  0  0  0  0  0  0
   58.4950   28.6170   48.0470 H   0  0  0  0  0  0  0  0  0  0  0  0
   59.1730   30.2560   47.9270 H   0  0  0  0  0  0  0  0  0  0  0  0
  1  2  1  0
  2  3  2  3
  3  4  1  0
  4  5  1  0
  5  6  1  0
  5  7  2  0
  7  8  1  0
  8  9  1  0
  8 10  1  0
  8 11  1  0
  7 12  1  0
 12 13  2  0
 13 14  1  0
 14 15  1  0
 14 16  1  0
 14 17  1  0
 17 18  2  0
 17 19  1  0
 19 20  1  0
 20 21  2  0
 21 22  1  0
 21 23  1  0
 23 24  1  0
 23 25  2  0
 25 26  1  0
 25 27  1  0
 27 28  1  0
 28 29  1  0
 29 30  1  0
 30 31  2  0
 31 32  1  0
 32 33  2  0
 33 34  1  0
 33 35  1  0
 35 36  1  0
 36 37  1  0
 36 38  1  0
 36 39  1  0
 35 40  2  0
 40 41  1  0
 40 42  1  0
 42 43  1  0
 42 44  2  0
 44 45  1  0
 30 46  1  0
 46 47  1  0
 46 48  2  0
 48 49  1  0
 49 50  1  0
 49 51  1  0
 49 52  1  0
 48 53  1  0
 53 54  1  0
 27 55  2  0
 55 56  1  0
 56 57  1  0
 56 58  1  0
 13  3  1  0
 55 20  1  0
 53 28  2  0
 44 32  1  0
M  CHG  4   4  -1  19  -1  29  -1  44   1
M  END
>  <UniqueID>  (8) 
7

>  <SMILES>  (8) 
Cc1cc[nH+]c(/N=c2\cc(C)cc(-c3cccc([N-]C(=O)Cc4nc(C)c[n-]c4=N)c3N)[n-]2)c1

>  <Energy>  (8) 
84.50790179940365

>  <Genealogy>  (8) 
Cc1cc[nH+]c(N=c2cc(C)cc(-c3cccc([N-]C(=O)Cc4nc(C)c[n-]c4=N)c3N)[n-]2)c1 (protonated)
Cc1cc[nH+]c(/N=c2\cc(C)cc(-c3cccc([N-]C(=O)Cc4nc(C)c[n-]c4=N)c3N)[n-]2)c1 (cis-trans isomerization)
Cc1cc[nH+]c(/N=c2\cc(C)cc(-c3cccc([N-]C(=O)Cc4nc(C)c[n-]c4=N)c3N)[n-]2)c1 (3D coordinates assigned)
Cc1cc[nH+]c(/N=c2\cc(C)cc(-c3cccc([N-]C(=O)Cc4nc(C)c[n-]c4=N)c3N)[n-]2)c1 (optimized conformer: 84.50790179940365 kcal/mol)

>  <smiles>  (8) 
Cc1ccnc(N=c2cc(C)cc(-c3cccc(NC(=O)Cc4nc(C)c[nH]c4=N)c3N)[nH]2)c1

>  <score_type>  (8) 
oracle

>  <origin>  (8) 
adg

>  <m_score__min__energy>  (8) 
-11.82

>  <m_primary>  (8) 
energy

$$$$
8:0
     RDKit          3D

 73 77  0  0  0  0  0  0  0  0999 V2000
   60.7040   30.4160   46.7550 C   0  0  0  0  0  0  0  0  0  0  0  0
   60.9370   30.1500   48.2050 C   0  0  0  0  0  0  0  0  0  0  0  0
   61.4310   31.0650   49.0590 N   0  0  0  0  0  0  0  0  0  0  0  0
   61.5750   30.4790   50.2380 N   0  0  0  0  0  0  0  0  0  0  0  0
   62.0730   31.1680   51.3960 C   0  0  0  0  0  0  0  0  0  0  0  0
   61.4920   30.9160   52.6490 C   0  0  0  0  0  0  0  0  0  0  0  0
   61.8890   31.6450   53.7730 C   0  0  0  0  0  0  0  0  0  0  0  0
   62.8590   32.6400   53.6540 C   0  0  0  0  0  0  0  0  0  0  0  0
   63.4450   32.9020   52.4130 C   0  0  0  0  0  0  0  0  0  0  0  0
   63.0730   32.1610   51.2780 C   0  0  0  0  0  0  0  0  0  0  0  0
   63.7590   32.4190   49.9910 C   0  0  0  0  0  0  0  0  0  0  0  0
   64.6930   31.6560   49.6270 O   0  0  0  0  0  0  0  0  0  0  0  0
   63.3530   33.5070   49.1390 N   0  0  0  0  0  0  0  0  0  0  0  0
   62.4110   34.5240   49.6170 C   0  0  0  0  0  0  0  0  0  0  0  0
   61.1440   34.4920   48.8030 C   0  0  0  0  0  0  0  0  0  0  0  0
   61.0770   33.9320   47.5790 C   0  0  0  0  0  0  0  0  0  0  0  0
   59.7980   33.9570   46.8320 C   0  0  0  0  0  0  0  0  0  0  0  0
   58.6450   33.3700   47.3820 C   0  0  0  0  0  0  0  0  0  0  0  0
   57.4340   33.4080   46.6840 C   0  0  0  0  0  0  0  0  0  0  0  0
   57.3590   34.0380   45.4390 C   0  0  0  0  0  0  0  0  0  0  0  0
   58.4980   34.6260   44.8860 C   0  0  0  0  0  0  0  0  0  0  0  0
   59.7140   34.5860   45.5760 C   0  0  0  0  0  0  0  0  0  0  0  0
   62.2320   33.1230   47.0140 C   0  0  0  0  0  0  0  0  0  0  0  0
   63.5630   33.4470   47.6940 C   0  0  0  0  0  0  0  0  0  0  0  0
   61.1940   29.1840   50.1550 C   0  0  0  0  0  0  0  0  0  0  0  0
   61.2460   28.1890   51.2770 C   0  0  0  0  0  0  0  0  0  0  0  0
   60.7670   28.9390   48.8600 C   0  0  0  0  0  0  0  0  0  0  0  0
   60.3130   27.6320   48.2660 C   0  0  0  0  0  0  0  0  0  0  0  0
   59.0940   27.7840   47.4000 C   0  0  0  0  0  0  0  0  0  0  0  0
   58.2390   28.6810   47.6410 O   0  0  0  0  0  0  0  0  0  0  0  0
   58.9180   26.9090   46.2790 N   0  0  0  0  0  0  0  0  0  0  0  0
   57.6640   26.8270   45.5300 C   0  0  0  0  0  0  0  0  0  0  0  0
   57.8650   27.2390   44.0670 C   0  0  0  0  0  0  0  0  0  0  0  0
   57.7170   28.7290   43.8910 C   0  0  0  0  0  0  0  0  0  0  0  0
   58.5680   29.6140   44.5770 C   0  0  0  0  0  0  0  0  0  0  0  0
   58.4560   30.9940   44.3780 C   0  0  0  0  0  0  0  0  0  0  0  0
   57.5030   31.4990   43.4900 C   0  0  0  0  0  0  0  0  0  0  0  0
   56.6590   30.6240   42.7990 C   0  0  0  0  0  0  0  0  0  0  0  0
   56.7670   29.2450   42.9950 C   0  0  0  0  0  0  0  0  0  0  0  0
   59.9829   31.2393   46.6445 H   0  0  0  0  0  0  0  0  0  0  0  0
   61.6543   30.6942   46.2759 H   0  0  0  0  0  0  0  0  0  0  0  0
   60.3031   29.5106   46.2759 H   0  0  0  0  0  0  0  0  0  0  0  0
   60.7191   30.1394   52.7465 H   0  0  0  0  0  0  0  0  0  0  0  0
   61.4359   31.4339   54.7529 H   0  0  0  0  0  0  0  0  0  0  0  0
   63.1631   33.2192   54.5383 H   0  0  0  0  0  0  0  0  0  0  0  0
   64.2031   33.6940   52.3235 H   0  0  0  0  0  0  0  0  0  0  0  0
   62.1690   34.3264   50.6717 H   0  0  0  0  0  0  0  0  0  0  0  0
   62.8753   35.5159   49.5145 H   0  0  0  0  0  0  0  0  0  0  0  0
   60.2349   34.9449   49.2255 H   0  0  0  0  0  0  0  0  0  0  0  0
   58.6957   32.8790   48.3650 H   0  0  0  0  0  0  0  0  0  0  0  0
   56.5372   32.9403   47.1165 H   0  0  0  0  0  0  0  0  0  0  0  0
   56.4034   34.0706   44.8952 H   0  0  0  0  0  0  0  0  0  0  0  0
   58.4391   35.1217   43.9058 H   0  0  0  0  0  0  0  0  0  0  0  0
   60.6091   35.0485   45.1346 H   0  0  0  0  0  0  0  0  0  0  0  0
   62.0154   32.0537   47.1543 H   0  0  0  0  0  0  0  0  0  0  0  0
   62.3300   33.3799   45.9489 H   0  0  0  0  0  0  0  0  0  0  0  0
   64.2980   32.6629   47.4598 H   0  0  0  0  0  0  0  0  0  0  0  0
   63.9415   34.4141   47.3315 H   0  0  0  0  0  0  0  0  0  0  0  0
   61.2182   28.7203   52.2398 H   0  0  0  0  0  0  0  0  0  0  0  0
   60.3820   27.5118   51.2069 H   0  0  0  0  0  0  0  0  0  0  0  0
   62.1759   27.6055   51.2069 H   0  0  0  0  0  0  0  0  0  0  0  0
   61.1299   27.2197   47.6555 H   0  0  0  0  0  0  0  0  0  0  0  0
   60.0500   26.9614   49.0973 H   0  0  0  0  0  0  0  0  0  0  0  0
   59.7110   26.2980   45.9840 H   0  0  0  0  0  0  0  0  0  0  0  0
   57.2928   25.7921   45.5637 H   0  0  0  0  0  0  0  0  0  0  0  0
   56.9381   27.5142   45.9891 H   0  0  0  0  0  0  0  0  0  0  0  0
   58.8733   26.9389   43.7457 H   0  0  0  0  0  0  0  0  0  0  0  0
   57.0971   26.7400   43.4577 H   0  0  0  0  0  0  0  0  0  0  0  0
   59.3239   29.2198   45.2721 H   0  0  0  0  0  0  0  0  0  0  0  0
   59.1194   31.6828   44.9216 H   0  0  0  0  0  0  0  0  0  0  0  0
   57.4166   32.5845   43.3344 H   0  0  0  0  0  0  0  0  0  0  0  0
   55.9088   31.0222   42.0999 H   0  0  0  0  0  0  0  0  0  0  0  0
   56.1048   28.5603   42.4449 H   0  0  0  0  0  0  0  0  0  0  0  0
  1  2  1  0
  2  3  2  0
  3  4  1  0
  4  5  1  0
  5  6  2  0
  6  7  1  0
  7  8  2  0
  8  9  1  0
  9 10  2  0
 10 11  1  0
 11 12  2  0
 11 13  1  0
 13 14  1  0
 14 15  1  0
 15 16  2  0
 16 17  1  0
 17 18  2  0
 18 19  1  0
 19 20  2  0
 20 21  1  0
 21 22  2  0
 16 23  1  0
 23 24  1  0
  4 25  1  0
 25 26  1  0
 25 27  2  0
 27 28  1  0
 28 29  1  0
 29 30  2  0
 29 31  1  0
 31 32  1  0
 32 33  1  0
 33 34  1  0
 34 35  2  0
 35 36  1  0
 36 37  2  0
 37 38  1  0
 38 39  2  0
 27  2  1  0
 39 34  1  0
 10  5  1  0
 24 13  1  0
 22 17  1  0
  1 40  1  0
  1 41  1  0
  1 42  1  0
  6 43  1  0
  7 44  1  0
  8 45  1  0
  9 46  1  0
 14 47  1  0
 14 48  1  0
 15 49  1  0
 18 50  1  0
 19 51  1  0
 20 52  1  0
 21 53  1  0
 22 54  1  0
 23 55  1  0
 23 56  1  0
 24 57  1  0
 24 58  1  0
 26 59  1  0
 26 60  1  0
 26 61  1  0
 28 62  1  0
 28 63  1  0
 31 64  1  0
 32 65  1  0
 32 66  1  0
 33 67  1  0
 33 68  1  0
 35 69  1  0
 36 70  1  0
 37 71  1  0
 38 72  1  0
 39 73  1  0
M  END
>  <UniqueID>  (9) 
8

>  <SMILES>  (9) 
Cc1nn(-c2ccccc2C(=O)N2CC=C(c3ccccc3)CC2)c(C)c1CC(=O)NCCc1ccccc1

>  <Energy>  (9) 
115.99904808812894

>  <Genealogy>  (9) 
Cc1nn(-c2ccccc2C(=O)N2CC=C(c3ccccc3)CC2)c(C)c1CC(=O)NCCc1ccccc1 (3D coordinates assigned)
Cc1nn(-c2ccccc2C(=O)N2CC=C(c3ccccc3)CC2)c(C)c1CC(=O)NCCc1ccccc1 (nonaromatic ring conformer: 115.99904808812894 kcal/mol)

>  <smiles>  (9) 
Cc1nn(-c2ccccc2C(=O)N2CC=C(c3ccccc3)CC2)c(C)c1CC(=O)NCCc1ccccc1

>  <score_type>  (9) 
oracle

>  <origin>  (9) 
adg

>  <m_score__min__energy>  (9) 
-11.31

>  <m_primary>  (9) 
energy

$$$$
9:0
     RDKit          3D

 45 47  0  0  0  0  0  0  0  0999 V2000
   52.7829   28.7075   53.3782 H   0  0  0  0  0  0  0  0  0  0  0  0
   53.8370   28.4230   53.2440 C   0  0  0  0  0  0  0  0  0  0  0  0
   54.1705   27.4082   53.5065 H   0  0  0  0  0  0  0  0  0  0  0  0
   54.7180   29.3160   52.7590 C   0  0  0  0  0  0  0  0  0  0  0  0
   54.3840   30.6870   52.5200 C   0  0  0  0  0  0  0  0  0  0  0  0
   53.1260   31.1870   52.4100 C   0  0  0  0  0  0  0  0  0  0  0  0
   52.6578   31.5611   53.3324 H   0  0  0  0  0  0  0  0  0  0  0  0
   52.3270   31.2770   51.1740 C   0  0  0  0  0  0  0  0  0  0  0  0
   52.3180   30.3210   50.2280 N   0  0  0  0  0  0  0  0  0  0  0  0
   51.3910   30.7600   49.3490 C   0  0  0  0  0  0  0  0  0  0  0  0
   51.1020   30.1300   48.2990 O   0  0  0  0  0  0  0  0  0  0  0  0
   50.7890   31.9190   49.6900 N   0  0  0  0  0  0  0  0  0  0  0  0
   51.3820   32.2270   50.8540 C   0  0  0  0  0  0  0  0  0  0  0  0
   51.0420   33.3340   51.6220 O   0  0  0  0  0  0  0  0  0  0  0  0
   55.4460   31.5950   52.3690 C   0  0  0  0  0  0  0  0  0  0  0  0
   55.2312   32.6730   52.3272 H   0  0  0  0  0  0  0  0  0  0  0  0
   56.7680   31.1570   52.2710 C   0  0  0  0  0  0  0  0  0  0  0  0
   57.8450   32.1490   52.0790 C   0  0  0  0  0  0  0  0  0  0  0  0
   58.2250   32.8350   53.0660 O   0  0  0  0  0  0  0  0  0  0  0  0
   58.4700   32.3340   50.7960 N   0  0  0  0  0  0  0  0  0  0  0  0
   58.5190   31.3130   49.7610 C   0  0  0  0  0  0  0  0  0  0  0  0
   59.0567   30.4243   50.1230 H   0  0  0  0  0  0  0  0  0  0  0  0
   57.5121   30.9813   49.4674 H   0  0  0  0  0  0  0  0  0  0  0  0
   59.2660   31.9490   48.5960 C   0  0  0  0  0  0  0  0  0  0  0  0
   59.9559   31.2232   48.1408 H   0  0  0  0  0  0  0  0  0  0  0  0
   58.5774   32.2801   47.8047 H   0  0  0  0  0  0  0  0  0  0  0  0
   60.0510   33.1320   49.1990 C   0  0  0  0  0  0  0  0  0  0  0  0
   60.1320   34.3130   48.2130 C   0  0  0  0  0  0  0  0  0  0  0  0
   60.1967   35.2563   48.7752 H   0  0  0  0  0  0  0  0  0  0  0  0
   61.0246   34.2015   47.5799 H   0  0  0  0  0  0  0  0  0  0  0  0
   59.2325   34.3244   47.5799 H   0  0  0  0  0  0  0  0  0  0  0  0
   61.4770   32.6780   49.5780 C   0  0  0  0  0  0  0  0  0  0  0  0
   61.5731   32.6474   50.6734 H   0  0  0  0  0  0  0  0  0  0  0  0
   61.6645   31.6757   49.1653 H   0  0  0  0  0  0  0  0  0  0  0  0
   62.2095   33.3874   49.1653 H   0  0  0  0  0  0  0  0  0  0  0  0
   59.2590   33.5100   50.4650 C   0  0  0  0  0  0  0  0  0  0  0  0
   59.9454   33.7565   51.2884 H   0  0  0  0  0  0  0  0  0  0  0  0
   58.6248   34.3936   50.3007 H   0  0  0  0  0  0  0  0  0  0  0  0
   57.0370   29.7800   52.3540 C   0  0  0  0  0  0  0  0  0  0  0  0
   58.4430   29.2550   52.2230 C   0  0  0  0  0  0  0  0  0  0  0  0
   58.8697   29.0957   53.2243 H   0  0  0  0  0  0  0  0  0  0  0  0
   58.4288   28.3016   51.6745 H   0  0  0  0  0  0  0  0  0  0  0  0
   59.0571   29.9844   51.6745 H   0  0  0  0  0  0  0  0  0  0  0  0
   56.0180   28.9120   52.6110 N   0  0  0  0  0  0  0  0  0  0  0  0
   56.2590   27.9010   52.7440 H   0  0  0  0  0  0  0  0  0  0  0  0
  1  2  1  0
  2  3  1  0
  2  4  2  0
  4  5  1  0
  5  6  2  0
  6  7  1  0
  6  8  1  0
  8  9  1  0
  9 10  1  0
 10 11  2  0
 10 12  1  0
 12 13  1  0
 13 14  1  0
  5 15  1  0
 15 16  1  0
 15 17  2  0
 17 18  1  0
 18 19  2  0
 18 20  1  0
 20 21  1  0
 21 22  1  0
 21 23  1  0
 21 24  1  0
 24 25  1  0
 24 26  1  0
 24 27  1  0
 27 28  1  0
 28 29  1  0
 28 30  1  0
 28 31  1  0
 27 32  1  0
 32 33  1  0
 32 34  1  0
 32 35  1  0
 27 36  1  0
 36 37  1  0
 36 38  1  0
 17 39  1  0
 39 40  1  0
 40 41  1  0
 40 42  1  0
 40 43  1  0
 39 44  2  0
 44 45  1  0
 44  4  1  0
 13  8  2  0
 36 20  1  0
M  CHG  4   9  -1  12  -1  14  -1  44   1
M  END
>  <UniqueID>  (10) 
9

>  <SMILES>  (10) 
C=c1[nH+]c(C)c(C(=O)N2CCC(C)(C)C2)c/c1=C/c1[n-]c(=O)[n-]c1[O-]

>  <Energy>  (10) 
101.34228744441428

>  <Genealogy>  (10) 
C=c1[nH+]c(C)c(C(=O)N2CCC(C)(C)C2)cc1=Cc1[n-]c(=O)[n-]c1[O-] (protonated)
C=c1[nH+]c(C)c(C(=O)N2CCC(C)(C)C2)c/c1=C/c1[n-]c(=O)[n-]c1[O-] (cis-trans isomerization)
C=c1[nH+]c(C)c(C(=O)N2CCC(C)(C)C2)c/c1=C/c1[n-]c(=O)[n-]c1[O-] (3D coordinates assigned)
C=c1[nH+]c(C)c(C(=O)N2CCC(C)(C)C2)c/c1=C/c1[n-]c(=O)[n-]c1[O-] (nonaromatic ring conformer: 101.34228744441428 kcal/mol)

>  <smiles>  (10) 
C=c1nc(C)c(C(=O)N2CCC(C)(C)C2)cc1=Cc1[nH]c(=O)[nH]c1O

>  <score_type>  (10) 
oracle

>  <origin>  (10) 
adg

>  <m_score__min__energy>  (10) 
-15.52

>  <m_primary>  (10) 
energy

$$$$
10:0
     RDKit          3D

 49 52  0  0  0  0  0  0  0  0999 V2000
   60.3060   29.9110   46.1410 C   0  0  0  0  0  0  0  0  0  0  0  0
   59.9390   31.3460   46.3960 C   0  0  0  0  0  0  0  0  0  0  0  0
   60.7730   32.1240   47.2310 C   0  0  0  0  0  0  0  0  0  0  0  0
   60.4630   33.4690   47.5200 C   0  0  0  0  0  0  0  0  0  0  0  0
   61.3010   34.2120   48.3420 O   0  0  0  0  0  0  0  0  0  0  0  0
   59.3080   34.0610   46.9860 C   0  0  0  0  0  0  0  0  0  0  0  0
   58.4900   33.2810   46.1760 C   0  0  0  0  0  0  0  0  0  0  0  0
   57.3460   33.6720   45.5820 N   0  0  0  0  0  0  0  0  0  0  0  0
   56.9470   32.5620   44.9210 C   0  0  0  0  0  0  0  0  0  0  0  0
   57.7820   31.5060   45.0840 N   0  0  0  0  0  0  0  0  0  0  0  0
   57.6190   30.2150   44.4040 C   0  0  0  0  0  0  0  0  0  0  0  0
   56.3050   29.5740   44.7740 C   0  0  0  0  0  0  0  0  0  0  0  0
   55.2290   30.1680   44.5040 O   0  0  0  0  0  0  0  0  0  0  0  0
   56.2370   28.2280   45.2570 N   0  0  0  0  0  0  0  0  0  0  0  0
   57.2950   27.4880   45.8790 C   0  0  0  0  0  0  0  0  0  0  0  0
   57.9680   27.9720   47.0130 C   0  0  0  0  0  0  0  0  0  0  0  0
   58.9770   27.2150   47.6090 C   0  0  0  0  0  0  0  0  0  0  0  0
   59.2920   25.9490   47.1110 C   0  0  0  0  0  0  0  0  0  0  0  0
   58.5850   25.4200   46.0160 C   0  0  0  0  0  0  0  0  0  0  0  0
   58.8910   24.0640   45.5040 C   0  0  0  0  0  0  0  0  0  0  0  0
   60.0530   23.5930   45.6330 O   0  0  0  0  0  0  0  0  0  0  0  0
   57.8920   23.2710   44.8500 N   0  0  0  0  0  0  0  0  0  0  0  0
   57.2670   23.7790   43.6170 C   0  0  0  0  0  0  0  0  0  0  0  0
   56.5230   22.6700   42.8610 C   0  0  0  0  0  0  0  0  0  0  0  0
   55.7780   21.8650   43.7490 O   0  0  0  0  0  0  0  0  0  0  0  0
   56.6740   21.1270   44.5540 C   0  0  0  0  0  0  0  0  0  0  0  0
   57.4260   22.0510   45.5170 C   0  0  0  0  0  0  0  0  0  0  0  0
   57.5950   26.2060   45.4000 C   0  0  0  0  0  0  0  0  0  0  0  0
   58.7750   31.9720   45.8820 C   0  0  0  0  0  0  0  0  0  0  0  0
   60.4391   29.3904   47.1008 H   0  0  0  0  0  0  0  0  0  0  0  0
   59.5036   29.4236   45.5678 H   0  0  0  0  0  0  0  0  0  0  0  0
   61.2439   29.8687   45.5678 H   0  0  0  0  0  0  0  0  0  0  0  0
   61.6787   31.6729   47.6625 H   0  0  0  0  0  0  0  0  0  0  0  0
   59.0574   35.1101   47.2017 H   0  0  0  0  0  0  0  0  0  0  0  0
   56.0333   32.5197   44.3100 H   0  0  0  0  0  0  0  0  0  0  0  0
   57.6480   30.3748   43.3161 H   0  0  0  0  0  0  0  0  0  0  0  0
   58.4358   29.5477   44.7163 H   0  0  0  0  0  0  0  0  0  0  0  0
   57.6983   28.9522   47.4330 H   0  0  0  0  0  0  0  0  0  0  0  0
   59.5259   27.6165   48.4736 H   0  0  0  0  0  0  0  0  0  0  0  0
   60.0972   25.3624   47.5774 H   0  0  0  0  0  0  0  0  0  0  0  0
   56.5523   24.5727   43.8802 H   0  0  0  0  0  0  0  0  0  0  0  0
   58.0622   24.1665   42.9632 H   0  0  0  0  0  0  0  0  0  0  0  0
   55.8394   23.1283   42.1312 H   0  0  0  0  0  0  0  0  0  0  0  0
   57.2632   22.0364   42.3504 H   0  0  0  0  0  0  0  0  0  0  0  0
   56.1085   20.3836   45.1350 H   0  0  0  0  0  0  0  0  0  0  0  0
   57.4049   20.6270   43.9015 H   0  0  0  0  0  0  0  0  0  0  0  0
   56.7526   22.3307   46.3406 H   0  0  0  0  0  0  0  0  0  0  0  0
   58.3067   21.5093   45.8924 H   0  0  0  0  0  0  0  0  0  0  0  0
   57.0493   25.8094   44.5312 H   0  0  0  0  0  0  0  0  0  0  0  0
  1  2  1  0
  2  3  2  0
  3  4  1  0
  4  5  1  0
  4  6  2  0
  6  7  1  0
  7  8  1  0
  8  9  2  0
  9 10  1  0
 10 11  1  0
 11 12  1  0
 12 13  2  0
 12 14  1  0
 14 15  1  0
 15 16  2  0
 16 17  1  0
 17 18  2  0
 18 19  1  0
 19 20  1  0
 20 21  2  0
 20 22  1  0
 22 23  1  0
 23 24  1  0
 24 25  1  0
 25 26  1  0
 26 27  1  0
 19 28  2  0
 10 29  1  0
 29  2  1  0
 29  7  2  0
 28 15  1  0
 27 22  1  0
  1 30  1  0
  1 31  1  0
  1 32  1  0
  3 33  1  0
  6 34  1  0
  9 35  1  0
 11 36  1  0
 11 37  1  0
 16 38  1  0
 17 39  1  0
 18 40  1  0
 23 41  1  0
 23 42  1  0
 24 43  1  0
 24 44  1  0
 26 45  1  0
 26 46  1  0
 27 47  1  0
 27 48  1  0
 28 49  1  0
M  CHG  2   5  -1  14  -1
M  END
>  <UniqueID>  (11) 
10

>  <SMILES>  (11) 
Cc1cc([O-])cc2ncn(CC(=O)[N-]c3cccc(C(=O)N4CCOCC4)c3)c12

>  <Energy>  (11) 
106.60942409125231

>  <Genealogy>  (11) 
Cc1cc([O-])cc2ncn(CC(=O)[N-]c3cccc(C(=O)N4CCOCC4)c3)c12 (protonated)
Cc1cc([O-])cc2ncn(CC(=O)[N-]c3cccc(C(=O)N4CCOCC4)c3)c12 (3D coordinates assigned)
Cc1cc([O-])cc2ncn(CC(=O)[N-]c3cccc(C(=O)N4CCOCC4)c3)c12 (nonaromatic ring conformer: 106.60942409125231 kcal/mol)

>  <smiles>  (11) 
Cc1cc(O)cc2ncn(CC(=O)Nc3cccc(C(=O)N4CCOCC4)c3)c12

>  <score_type>  (11) 
oracle

>  <origin>  (11) 
adg

>  <m_score__min__energy>  (11) 
-12.220000000000001

>  <m_primary>  (11) 
energy

$$$$
11:0
     RDKit          3D

 35 37  0  0  0  0  0  0  0  0999 V2000
   55.1500   29.3340   44.8500 N   0  0  0  0  0  0  0  0  0  0  0  0
   56.7170   29.3090   44.1220 S   0  0  0  0  0  0  0  0  0  0  0  0
   57.4920   28.1270   44.6350 O   0  0  0  0  0  0  0  0  0  0  0  0
   56.5730   29.1810   42.6320 O   0  0  0  0  0  0  0  0  0  0  0  0
   57.5730   30.7970   44.5180 C   0  0  0  0  0  0  0  0  0  0  0  0
   57.3920   31.9440   43.7360 C   0  0  0  0  0  0  0  0  0  0  0  0
   58.0700   33.1220   44.0540 C   0  0  0  0  0  0  0  0  0  0  0  0
   58.9240   33.1660   45.1580 C   0  0  0  0  0  0  0  0  0  0  0  0
   59.0980   32.0280   45.9720 C   0  0  0  0  0  0  0  0  0  0  0  0
   60.0400   32.0270   47.1640 C   0  0  1  0  0  0  0  0  0  0  0  0
   60.5650   33.3860   47.3980 N   0  0  0  0  0  0  0  0  0  0  0  0
   59.6220   34.2350   48.1370 C   0  0  0  0  0  0  0  0  0  0  0  0
   59.3640   33.6820   49.5400 C   0  0  0  0  0  0  0  0  0  0  0  0
   59.0440   32.2130   49.5090 C   0  0  0  0  0  0  0  0  0  0  0  0
   58.4430   31.6160   50.6290 C   0  0  0  0  0  0  0  0  0  0  0  0
   58.1880   30.2420   50.6460 C   0  0  0  0  0  0  0  0  0  0  0  0
   57.5860   29.6620   51.7560 O   0  0  0  0  0  0  0  0  0  0  0  0
   58.5420   29.4520   49.5510 C   0  0  0  0  0  0  0  0  0  0  0  0
   59.1530   30.0320   48.4370 C   0  0  0  0  0  0  0  0  0  0  0  0
   59.4170   31.4130   48.4080 C   0  0  0  0  0  0  0  0  0  0  0  0
   58.4230   30.8420   45.6310 C   0  0  0  0  0  0  0  0  0  0  0  0
   55.1600   28.6270   45.6190 H   0  0  0  0  0  0  0  0  0  0  0  0
   56.7146   31.9169   42.8698 H   0  0  0  0  0  0  0  0  0  0  0  0
   57.9311   34.0190   43.4326 H   0  0  0  0  0  0  0  0  0  0  0  0
   59.4645   34.0945   45.3941 H   0  0  0  0  0  0  0  0  0  0  0  0
   60.8907   31.3732   46.9216 H   0  0  0  0  0  0  0  0  0  0  0  0
   61.4520   33.3140   47.9520 H   0  0  0  0  0  0  0  0  0  0  0  0
   60.0418   35.2482   48.2220 H   0  0  0  0  0  0  0  0  0  0  0  0
   58.6682   34.2557   47.5894 H   0  0  0  0  0  0  0  0  0  0  0  0
   60.2622   33.8382   50.1554 H   0  0  0  0  0  0  0  0  0  0  0  0
   58.4985   34.2125   49.9637 H   0  0  0  0  0  0  0  0  0  0  0  0
   58.1714   32.2334   51.4979 H   0  0  0  0  0  0  0  0  0  0  0  0
   58.3394   28.3709   49.5655 H   0  0  0  0  0  0  0  0  0  0  0  0
   59.4295   29.4046   47.5768 H   0  0  0  0  0  0  0  0  0  0  0  0
   58.5640   29.9401   46.2447 H   0  0  0  0  0  0  0  0  0  0  0  0
  1  2  1  0
  2  3  2  0
  2  4  2  0
  2  5  1  0
  5  6  2  0
  6  7  1  0
  7  8  2  0
  8  9  1  0
  9 10  1  0
 10 11  1  0
 11 12  1  0
 12 13  1  0
 13 14  1  0
 14 15  2  0
 15 16  1  0
 16 17  1  0
 16 18  2  0
 18 19  1  0
 19 20  2  0
  9 21  2  0
 21  5  1  0
 20 10  1  0
 20 14  1  0
  1 22  1  0
  6 23  1  0
  7 24  1  0
  8 25  1  0
 10 26  1  6
 11 27  1  0
 12 28  1  0
 12 29  1  0
 13 30  1  0
 13 31  1  0
 15 32  1  0
 18 33  1  0
 19 34  1  0
 21 35  1  0
M  CHG  2   1  -1  17  -1
M  END
>  <UniqueID>  (12) 
11

>  <SMILES>  (12) 
[NH-]S(=O)(=O)c1cccc([C@H]2NCCc3cc([O-])ccc32)c1

>  <Energy>  (12) 
41.043814830532085

>  <Genealogy>  (12) 
[NH-]S(=O)(=O)c1cccc(C2NCCc3cc([O-])ccc32)c1 (protonated)
[NH-]S(=O)(=O)c1cccc([C@H]2NCCc3cc([O-])ccc32)c1 (chirality)
[NH-]S(=O)(=O)c1cccc([C@H]2NCCc3cc([O-])ccc32)c1 (3D coordinates assigned)
[NH-]S(=O)(=O)c1cccc([C@H]2NCCc3cc([O-])ccc32)c1 (nonaromatic ring conformer: 41.043814830532085 kcal/mol)

>  <smiles>  (12) 
NS(=O)(=O)c1cccc(C2NCCc3cc(O)ccc32)c1

>  <score_type>  (12) 
oracle

>  <origin>  (12) 
adg

>  <m_score__min__energy>  (12) 
-11.789999999999999

>  <m_primary>  (12) 
energy

$$$$
12:0
     RDKit          3D

 45 47  0  0  0  0  0  0  0  0999 V2000
   60.7358   35.3970   46.3575 H   0  0  0  0  0  0  0  0  0  0  0  0
   60.6440   34.3320   46.6170 C   0  0  0  0  0  0  0  0  0  0  0  0
   61.5750   33.8110   47.4470 C   0  0  0  0  0  0  0  0  0  0  0  0
   63.0010   33.8100   47.0470 C   0  0  0  0  0  0  0  0  0  0  0  0
   63.3900   34.4320   46.0230 O   0  0  0  0  0  0  0  0  0  0  0  0
   63.9540   33.0800   47.8180 N   0  0  0  0  0  0  0  0  0  0  0  0
   63.5710   32.3440   48.9790 C   0  0  0  0  0  0  0  0  0  0  0  0
   64.4420   31.6610   49.5810 O   0  0  0  0  0  0  0  0  0  0  0  0
   62.2130   32.3940   49.4570 N   0  0  0  0  0  0  0  0  0  0  0  0
   61.7850   31.5860   50.6130 C   0  0  0  0  0  0  0  0  0  0  0  0
   60.9560   32.0999   51.1216 H   0  0  0  0  0  0  0  0  0  0  0  0
   62.6442   31.4671   51.2895 H   0  0  0  0  0  0  0  0  0  0  0  0
   61.3150   30.1880   50.1770 C   0  0  0  0  0  0  0  0  0  0  0  0
   61.0868   29.6019   51.0794 H   0  0  0  0  0  0  0  0  0  0  0  0
   62.1293   29.7474   49.5831 H   0  0  0  0  0  0  0  0  0  0  0  0
   60.0660   30.2040   49.2810 C   0  0  0  0  0  0  0  0  0  0  0  0
   59.7941   31.2498   49.0750 H   0  0  0  0  0  0  0  0  0  0  0  0
   59.2655   29.6735   49.8175 H   0  0  0  0  0  0  0  0  0  0  0  0
   60.2850   29.4850   47.9510 C   0  0  0  0  0  0  0  0  0  0  0  0
   60.6006   28.4487   48.1420 H   0  0  0  0  0  0  0  0  0  0  0  0
   59.3469   29.4826   47.3767 H   0  0  0  0  0  0  0  0  0  0  0  0
   61.0652   30.0060   47.3767 H   0  0  0  0  0  0  0  0  0  0  0  0
   61.2590   33.2410   48.7830 C   0  0  0  0  0  0  0  0  0  0  0  0
   60.1790   33.5440   49.3640 O   0  0  0  0  0  0  0  0  0  0  0  0
   59.5130   33.5840   46.0310 C   0  0  0  0  0  0  0  0  0  0  0  0
   59.5490   32.1820   46.0130 C   0  0  0  0  0  0  0  0  0  0  0  0
   60.4313   31.6520   46.4013 H   0  0  0  0  0  0  0  0  0  0  0  0
   58.4690   31.4550   45.5040 C   0  0  0  0  0  0  0  0  0  0  0  0
   58.5116   30.3560   45.4858 H   0  0  0  0  0  0  0  0  0  0  0  0
   57.3330   32.1140   45.0170 C   0  0  0  0  0  0  0  0  0  0  0  0
   56.2740   31.3400   44.5230 O   0  0  0  0  0  0  0  0  0  0  0  0
   56.4090   30.1520   43.7920 C   0  0  0  0  0  0  0  0  0  0  0  0
   56.2510   30.1370   42.5410 O   0  0  0  0  0  0  0  0  0  0  0  0
   56.7960   28.9190   44.4830 C   0  0  0  0  0  0  0  0  0  0  0  0
   55.9910   28.2210   45.2490 O   0  0  0  0  0  0  0  0  0  0  0  0
   56.6490   27.1820   45.7100 C   0  0  0  0  0  0  0  0  0  0  0  0
   56.2334   26.4165   46.3817 H   0  0  0  0  0  0  0  0  0  0  0  0
   57.9410   27.1960   45.2240 C   0  0  0  0  0  0  0  0  0  0  0  0
   58.7326   26.4600   45.4283 H   0  0  0  0  0  0  0  0  0  0  0  0
   58.0380   28.3190   44.4310 C   0  0  0  0  0  0  0  0  0  0  0  0
   58.9207   28.6649   43.8732 H   0  0  0  0  0  0  0  0  0  0  0  0
   57.2750   33.5180   45.0830 C   0  0  0  0  0  0  0  0  0  0  0  0
   56.3758   34.0454   44.7319 H   0  0  0  0  0  0  0  0  0  0  0  0
   58.3530   34.2460   45.5920 C   0  0  0  0  0  0  0  0  0  0  0  0
   58.2940   35.3429   45.6497 H   0  0  0  0  0  0  0  0  0  0  0  0
  1  2  1  0
  2  3  2  0
  3  4  1  0
  4  5  2  0
  4  6  1  0
  6  7  1  0
  7  8  2  0
  7  9  1  0
  9 10  1  0
 10 11  1  0
 10 12  1  0
 10 13  1  0
 13 14  1  0
 13 15  1  0
 13 16  1  0
 16 17  1  0
 16 18  1  0
 16 19  1  0
 19 20  1  0
 19 21  1  0
 19 22  1  0
  9 23  1  0
 23 24  2  0
  2 25  1  0
 25 26  2  0
 26 27  1  0
 26 28  1  0
 28 29  1  0
 28 30  2  0
 30 31  1  0
 31 32  1  0
 32 33  2  0
 32 34  1  0
 34 35  1  0
 35 36  1  0
 36 37  1  0
 36 38  2  0
 38 39  1  0
 38 40  1  0
 40 41  1  0
 30 42  1  0
 42 43  1  0
 42 44  2  0
 44 45  1  0
 23  3  1  0
 44 25  1  0
 40 34  2  0
M  CHG  1   6  -1
M  END
>  <UniqueID>  (13) 
12

>  <SMILES>  (13) 
CCCCN1C(=O)[N-]C(=O)/C(=C/c2ccc(OC(=O)c3ccco3)cc2)C1=O

>  <Energy>  (13) 
79.71146967051133

>  <Genealogy>  (13) 
CCCCN1C(=O)[N-]C(=O)C(=Cc2ccc(OC(=O)c3ccco3)cc2)C1=O (protonated)
CCCCN1C(=O)[N-]C(=O)/C(=C/c2ccc(OC(=O)c3ccco3)cc2)C1=O (cis-trans isomerization)
CCCCN1C(=O)[N-]C(=O)/C(=C/c2ccc(OC(=O)c3ccco3)cc2)C1=O (3D coordinates assigned)
CCCCN1C(=O)[N-]C(=O)/C(=C/c2ccc(OC(=O)c3ccco3)cc2)C1=O (nonaromatic ring conformer: 79.71146967051133 kcal/mol)

>  <smiles>  (13) 
CCCCN1C(=O)NC(=O)C(=Cc2ccc(OC(=O)c3ccco3)cc2)C1=O

>  <score_type>  (13) 
oracle

>  <origin>  (13) 
adg

>  <m_score__min__energy>  (13) 
-9.5

>  <m_primary>  (13) 
energy

$$$$
13:0
     RDKit          3D

 45 47  0  0  0  0  0  0  0  0999 V2000
   57.7830   28.5190   44.5450 C   0  0  0  0  0  0  0  0  0  0  0  0
   56.7090   29.4780   44.9290 C   0  0  0  0  0  0  0  0  0  0  0  0
   55.5380   29.0540   45.1250 O   0  0  0  0  0  0  0  0  0  0  0  0
   57.0140   30.8760   45.0070 N   0  0  0  0  0  0  0  0  0  0  0  0
   57.7880   31.5440   46.0110 C   0  0  0  0  0  0  0  0  0  0  0  0
   57.7250   32.9370   46.2120 C   0  0  0  0  0  0  0  0  0  0  0  0
   58.4890   33.5370   47.2190 C   0  0  0  0  0  0  0  0  0  0  0  0
   59.3070   32.7570   48.0470 C   0  0  0  0  0  0  0  0  0  0  0  0
   60.2440   33.5210   49.3280 S   0  0  0  0  0  0  0  0  0  0  0  0
   59.7880   34.9400   49.4920 O   0  0  0  0  0  0  0  0  0  0  0  0
   61.7080   33.5280   48.9860 O   0  0  0  0  0  0  0  0  0  0  0  0
   60.0160   32.6710   50.8280 N   0  0  0  0  0  0  0  0  0  0  0  0
   58.7850   32.0700   51.2500 C   0  0  0  0  0  0  0  0  0  0  0  0
   57.7490   32.8180   51.8380 C   0  0  0  0  0  0  0  0  0  0  0  0
   56.5580   32.1920   52.2170 C   0  0  0  0  0  0  0  0  0  0  0  0
   56.3690   30.8250   51.9820 C   0  0  0  0  0  0  0  0  0  0  0  0
   55.1310   30.2020   52.3570 N   0  0  0  0  0  0  0  0  0  0  0  0
   53.8520   30.8590   52.2860 C   0  0  0  0  0  0  0  0  0  0  0  0
   53.4040   31.3700   51.0590 C   0  0  0  0  0  0  0  0  0  0  0  0
   52.1510   31.9810   50.9620 C   0  0  0  0  0  0  0  0  0  0  0  0
   51.3240   32.0720   52.0870 C   0  0  0  0  0  0  0  0  0  0  0  0
   50.0760   32.6730   51.9730 O   0  0  0  0  0  0  0  0  0  0  0  0
   51.7540   31.5490   53.3180 C   0  0  0  0  0  0  0  0  0  0  0  0
   50.9490   31.6150   54.4520 O   0  0  0  0  0  0  0  0  0  0  0  0
   53.0120   30.9420   53.4120 C   0  0  0  0  0  0  0  0  0  0  0  0
   57.4100   30.0730   51.4160 C   0  0  0  0  0  0  0  0  0  0  0  0
   58.6110   30.6930   51.0590 C   0  0  0  0  0  0  0  0  0  0  0  0
   59.3540   31.3680   47.8610 C   0  0  0  0  0  0  0  0  0  0  0  0
   58.5940   30.7680   46.8540 C   0  0  0  0  0  0  0  0  0  0  0  0
   58.2466   28.1050   45.4526 H   0  0  0  0  0  0  0  0  0  0  0  0
   57.3494   27.7021   43.9495 H   0  0  0  0  0  0  0  0  0  0  0  0
   58.5458   29.0420   43.9495 H   0  0  0  0  0  0  0  0  0  0  0  0
   57.0737   33.5543   45.5758 H   0  0  0  0  0  0  0  0  0  0  0  0
   58.4472   34.6269   47.3614 H   0  0  0  0  0  0  0  0  0  0  0  0
   57.8764   33.8985   52.0000 H   0  0  0  0  0  0  0  0  0  0  0  0
   55.7638   32.7776   52.7032 H   0  0  0  0  0  0  0  0  0  0  0  0
   55.1670   29.2360   52.7470 H   0  0  0  0  0  0  0  0  0  0  0  0
   54.0431   31.2893   50.1673 H   0  0  0  0  0  0  0  0  0  0  0  0
   51.8139   32.3915   49.9987 H   0  0  0  0  0  0  0  0  0  0  0  0
   50.0280   32.0210   54.4230 H   0  0  0  0  0  0  0  0  0  0  0  0
   53.3466   30.5265   54.3740 H   0  0  0  0  0  0  0  0  0  0  0  0
   57.2806   28.9929   51.2529 H   0  0  0  0  0  0  0  0  0  0  0  0
   59.4258   30.0951   50.6247 H   0  0  0  0  0  0  0  0  0  0  0  0
   59.9911   30.7490   48.5098 H   0  0  0  0  0  0  0  0  0  0  0  0
   58.6288   29.6765   46.7219 H   0  0  0  0  0  0  0  0  0  0  0  0
  1  2  1  0
  2  3  2  0
  2  4  1  0
  4  5  1  0
  5  6  2  0
  6  7  1  0
  7  8  2  0
  8  9  1  0
  9 10  2  0
  9 11  2  0
  9 12  1  0
 12 13  1  0
 13 14  2  0
 14 15  1  0
 15 16  2  0
 16 17  1  0
 17 18  1  0
 18 19  2  0
 19 20  1  0
 20 21  2  0
 21 22  1  0
 21 23  1  0
 23 24  1  0
 23 25  2  0
 16 26  1  0
 26 27  2  0
  8 28  1  0
 28 29  2  0
 29  5  1  0
 27 13  1  0
 25 18  1  0
  1 30  1  0
  1 31  1  0
  1 32  1  0
  6 33  1  0
  7 34  1  0
 14 35  1  0
 15 36  1  0
 17 37  1  0
 19 38  1  0
 20 39  1  0
 24 40  1  0
 25 41  1  0
 26 42  1  0
 27 43  1  0
 28 44  1  0
 29 45  1  0
M  CHG  3   4  -1  12  -1  22  -1
M  END
>  <UniqueID>  (14) 
13

>  <SMILES>  (14) 
CC(=O)[N-]c1ccc(S(=O)(=O)[N-]c2ccc(Nc3ccc([O-])c(O)c3)cc2)cc1

>  <Energy>  (14) 
58.7928499402146

>  <Genealogy>  (14) 
CC(=O)[N-]c1ccc(S(=O)(=O)[N-]c2ccc(Nc3ccc([O-])c(O)c3)cc2)cc1 (protonated)
CC(=O)[N-]c1ccc(S(=O)(=O)[N-]c2ccc(Nc3ccc([O-])c(O)c3)cc2)cc1 (3D coordinates assigned)
CC(=O)[N-]c1ccc(S(=O)(=O)[N-]c2ccc(Nc3ccc([O-])c(O)c3)cc2)cc1 (optimized conformer: 58.7928499402146 kcal/mol)

>  <smiles>  (14) 
CC(=O)Nc1ccc(S(=O)(=O)Nc2ccc(Nc3ccc(O)c(O)c3)cc2)cc1

>  <score_type>  (14) 
oracle

>  <origin>  (14) 
adg

>  <m_score__min__energy>  (14) 
-14.98

>  <m_primary>  (14) 
energy

$$$$
14:0
     RDKit          3D

 50 53  0  0  0  0  0  0  0  0999 V2000
   58.5230   25.9010   47.0810 C   0  0  0  0  0  0  0  0  0  0  0  0
   58.3420   27.3100   46.6840 N   0  0  0  0  0  0  0  0  0  0  0  0
   59.1750   28.2720   47.1910 C   0  0  0  0  0  0  0  0  0  0  0  0
   60.0960   27.9360   47.9860 O   0  0  0  0  0  0  0  0  0  0  0  0
   58.9960   29.6280   46.8390 C   0  0  0  0  0  0  0  0  0  0  0  0
   59.8160   30.6980   47.2940 C   0  0  0  0  0  0  0  0  0  0  0  0
   61.2590   30.4660   48.3550 S   0  0  0  0  0  0  0  0  0  0  0  0
   62.4360   31.2440   47.1950 C   0  0  0  0  0  0  0  0  0  0  0  0
   62.5910   32.7100   47.4850 C   0  0  0  0  0  0  0  0  0  0  0  0
   63.7370   33.2290   47.4270 O   0  0  0  0  0  0  0  0  0  0  0  0
   61.4700   33.5450   47.7970 N   0  0  0  0  0  0  0  0  0  0  0  0
   61.2590   34.1960   49.0830 C   0  0  0  0  0  0  0  0  0  0  0  0
   60.1920   33.4730   49.8350 C   0  0  0  0  0  0  0  0  0  0  0  0
   60.0650   33.4250   51.2090 C   0  0  0  0  0  0  0  0  0  0  0  0
   58.9370   32.6680   51.4490 C   0  0  0  0  0  0  0  0  0  0  0  0
   58.4480   32.3050   50.2100 C   0  0  0  0  0  0  0  0  0  0  0  0
   59.2170   32.8020   49.2670 O   0  0  0  0  0  0  0  0  0  0  0  0
   59.5250   31.9740   46.9190 N   0  0  0  0  0  0  0  0  0  0  0  0
   58.4820   32.2530   46.0960 C   0  0  0  0  0  0  0  0  0  0  0  0
   58.2020   33.6760   45.6750 C   0  0  0  0  0  0  0  0  0  0  0  0
   59.2280   34.2450   44.6970 C   0  0  0  0  0  0  0  0  0  0  0  0
   59.6480   35.2740   45.7390 C   0  0  0  0  0  0  0  0  0  0  0  0
   58.6200   34.7140   46.7140 C   0  0  0  0  0  0  0  0  0  0  0  0
   57.7040   31.2420   45.6370 N   0  0  0  0  0  0  0  0  0  0  0  0
   57.9260   29.9440   45.9780 C   0  0  0  0  0  0  0  0  0  0  0  0
   57.1060   28.9600   45.4910 N   0  0  0  0  0  0  0  0  0  0  0  0
   55.9750   29.3210   44.6170 C   0  0  0  0  0  0  0  0  0  0  0  0
   57.2930   27.6580   45.8730 C   0  0  0  0  0  0  0  0  0  0  0  0
   56.4860   26.7680   45.4790 O   0  0  0  0  0  0  0  0  0  0  0  0
   58.5324   25.8276   48.1785 H   0  0  0  0  0  0  0  0  0  0  0  0
   57.6950   25.2979   46.6803 H   0  0  0  0  0  0  0  0  0  0  0  0
   59.4766   25.5267   46.6803 H   0  0  0  0  0  0  0  0  0  0  0  0
   63.4153   30.7527   47.2932 H   0  0  0  0  0  0  0  0  0  0  0  0
   62.0470   31.1290   46.1725 H   0  0  0  0  0  0  0  0  0  0  0  0
   62.1939   34.1762   49.6622 H   0  0  0  0  0  0  0  0  0  0  0  0
   60.9515   35.2396   48.9206 H   0  0  0  0  0  0  0  0  0  0  0  0
   60.7245   33.8921   51.9553 H   0  0  0  0  0  0  0  0  0  0  0  0
   58.5128   32.4064   52.4296 H   0  0  0  0  0  0  0  0  0  0  0  0
   57.5506   31.6925   50.0380 H   0  0  0  0  0  0  0  0  0  0  0  0
   60.1280   32.7550   47.2650 H   0  0  0  0  0  0  0  0  0  0  0  0
   57.1479   33.5735   45.3778 H   0  0  0  0  0  0  0  0  0  0  0  0
   60.0230   33.5379   44.4179 H   0  0  0  0  0  0  0  0  0  0  0  0
   58.9208   34.5647   43.6903 H   0  0  0  0  0  0  0  0  0  0  0  0
   60.6896   35.1702   46.0771 H   0  0  0  0  0  0  0  0  0  0  0  0
   59.6513   36.3456   45.4908 H   0  0  0  0  0  0  0  0  0  0  0  0
   59.0553   34.2844   47.6283 H   0  0  0  0  0  0  0  0  0  0  0  0
   57.8706   35.3749   47.1741 H   0  0  0  0  0  0  0  0  0  0  0  0
   55.1080   29.5977   45.2348 H   0  0  0  0  0  0  0  0  0  0  0  0
   56.2597   30.1729   43.9820 H   0  0  0  0  0  0  0  0  0  0  0  0
   55.7135   28.4617   43.9820 H   0  0  0  0  0  0  0  0  0  0  0  0
  1  2  1  0
  2  3  1  0
  3  4  2  0
  3  5  1  0
  5  6  2  0
  6  7  1  0
  7  8  1  0
  8  9  1  0
  9 10  2  0
  9 11  1  0
 11 12  1  0
 12 13  1  0
 13 14  2  0
 14 15  1  0
 15 16  2  0
 16 17  1  0
  6 18  1  0
 18 19  2  0
 19 20  1  0
 20 21  1  0
 21 22  1  0
 22 23  1  0
 19 24  1  0
 24 25  2  0
 25 26  1  0
 26 27  1  0
 26 28  1  0
 28 29  2  0
 28  2  1  0
 25  5  1  0
 17 13  1  0
 23 20  1  0
  1 30  1  0
  1 31  1  0
  1 32  1  0
  8 33  1  0
  8 34  1  0
 12 35  1  0
 12 36  1  0
 14 37  1  0
 15 38  1  0
 16 39  1  0
 18 40  1  0
 20 41  1  0
 21 42  1  0
 21 43  1  0
 22 44  1  0
 22 45  1  0
 23 46  1  0
 23 47  1  0
 27 48  1  0
 27 49  1  0
 27 50  1  0
M  CHG  2  11  -1  18   1
M  END
>  <UniqueID>  (15) 
14

>  <SMILES>  (15) 
Cn1c(=O)c2c(SCC(=O)[N-]Cc3ccco3)[nH+]c(C3CCC3)nc2n(C)c1=O

>  <Energy>  (15) 
145.9470026896753

>  <Genealogy>  (15) 
Cn1c(=O)c2c(SCC(=O)[N-]Cc3ccco3)[nH+]c(C3CCC3)nc2n(C)c1=O (protonated)
Cn1c(=O)c2c(SCC(=O)[N-]Cc3ccco3)[nH+]c(C3CCC3)nc2n(C)c1=O (3D coordinates assigned)
Cn1c(=O)c2c(SCC(=O)[N-]Cc3ccco3)[nH+]c(C3CCC3)nc2n(C)c1=O (nonaromatic ring conformer: 145.9470026896753 kcal/mol)

>  <smiles>  (15) 
Cn1c(=O)c2c(SCC(=O)NCc3ccco3)nc(C3CCC3)nc2n(C)c1=O

>  <score_type>  (15) 
oracle

>  <origin>  (15) 
adg

>  <m_score__min__energy>  (15) 
-9.6699999999999999

>  <m_primary>  (15) 
energy

$$$$
15:0
     RDKit          3D

 59 61  0  0  0  0  0  0  0  0999 V2000
   57.9320   33.5690   52.3570 C   0  0  0  0  0  0  0  0  0  0  0  0
   59.2780   32.9030   52.0340 C   0  0  0  0  0  0  0  0  0  0  0  0
   59.9250   32.3310   53.3120 C   0  0  0  0  0  0  0  0  0  0  0  0
   60.2150   33.8420   51.2130 C   0  0  2  0  0  0  0  0  0  0  0  0
   59.6600   34.0750   49.8740 N   0  0  0  0  0  0  0  0  0  0  0  0
   59.2970   32.9960   49.0000 C   0  0  0  0  0  0  0  0  0  0  0  0
   59.1880   31.8250   49.4590 O   0  0  0  0  0  0  0  0  0  0  0  0
   59.0130   33.2420   47.5710 C   0  0  0  0  0  0  0  0  0  0  0  0
   59.7270   34.2310   46.8740 C   0  0  0  0  0  0  0  0  0  0  0  0
   59.4280   34.5050   45.5380 C   0  0  0  0  0  0  0  0  0  0  0  0
   58.4210   33.7950   44.8860 C   0  0  0  0  0  0  0  0  0  0  0  0
   57.7120   32.7930   45.5560 C   0  0  0  0  0  0  0  0  0  0  0  0
   56.6410   32.1400   44.8660 N   0  0  0  0  0  0  0  0  0  0  0  0
   56.6330   30.5150   44.2450 S   0  0  0  0  0  0  0  0  0  0  0  0
   56.9040   30.5740   42.7660 O   0  0  0  0  0  0  0  0  0  0  0  0
   55.2650   29.9220   44.4560 O   0  0  0  0  0  0  0  0  0  0  0  0
   57.8380   29.4600   44.9820 C   0  0  0  0  0  0  0  0  0  0  0  0
   59.1820   29.5430   44.5820 C   0  0  0  0  0  0  0  0  0  0  0  0
   60.1220   28.6360   45.0810 C   0  0  0  0  0  0  0  0  0  0  0  0
   59.7260   27.6470   45.9920 C   0  0  0  0  0  0  0  0  0  0  0  0
   60.8900   26.4620   46.5580 Cl  0  0  0  0  0  0  0  0  0  0  0  0
   58.3940   27.5850   46.4210 C   0  0  0  0  0  0  0  0  0  0  0  0
   57.4510   28.4850   45.9150 C   0  0  0  0  0  0  0  0  0  0  0  0
   57.9960   32.5330   46.9070 C   0  0  0  0  0  0  0  0  0  0  0  0
   61.6490   33.3560   51.0950 C   0  0  0  0  0  0  0  0  0  0  0  0
   62.5970   34.1720   51.2200 O   0  0  0  0  0  0  0  0  0  0  0  0
   61.9750   31.9670   50.9270 N   0  0  0  0  0  0  0  0  0  0  0  0
   62.9480   31.4030   49.9950 C   0  0  0  0  0  0  0  0  0  0  0  0
   63.0820   32.2590   48.7650 C   0  0  0  0  0  0  0  0  0  0  0  0
   63.9100   33.3590   48.6560 C   0  0  0  0  0  0  0  0  0  0  0  0
   63.7410   33.8560   47.3790 C   0  0  0  0  0  0  0  0  0  0  0  0
   62.8320   33.0300   46.7500 C   0  0  0  0  0  0  0  0  0  0  0  0
   62.4480   32.0460   47.5880 N   0  0  0  0  0  0  0  0  0  0  0  0
   61.4750   31.0060   47.2680 C   0  0  0  0  0  0  0  0  0  0  0  0
   57.8062   33.6313   53.4480 H   0  0  0  0  0  0  0  0  0  0  0  0
   57.9113   34.5813   51.9271 H   0  0  0  0  0  0  0  0  0  0  0  0
   57.1147   32.9713   51.9271 H   0  0  0  0  0  0  0  0  0  0  0  0
   59.0922   32.0445   51.3719 H   0  0  0  0  0  0  0  0  0  0  0  0
   59.4350   32.7642   54.1965 H   0  0  0  0  0  0  0  0  0  0  0  0
   59.8058   31.2376   53.3255 H   0  0  0  0  0  0  0  0  0  0  0  0
   60.9956   32.5833   53.3255 H   0  0  0  0  0  0  0  0  0  0  0  0
   60.2574   34.7815   51.7836 H   0  0  0  0  0  0  0  0  0  0  0  0
   59.5520   35.0590   49.5310 H   0  0  0  0  0  0  0  0  0  0  0  0
   60.5249   34.7918   47.3829 H   0  0  0  0  0  0  0  0  0  0  0  0
   59.9883   35.2829   44.9987 H   0  0  0  0  0  0  0  0  0  0  0  0
   58.1824   34.0246   43.8370 H   0  0  0  0  0  0  0  0  0  0  0  0
   59.4960   30.3240   43.8739 H   0  0  0  0  0  0  0  0  0  0  0  0
   61.1719   28.6986   44.7588 H   0  0  0  0  0  0  0  0  0  0  0  0
   58.0892   26.8268   47.1574 H   0  0  0  0  0  0  0  0  0  0  0  0
   56.4043   28.4290   46.2485 H   0  0  0  0  0  0  0  0  0  0  0  0
   57.4189   31.7695   47.4493 H   0  0  0  0  0  0  0  0  0  0  0  0
   63.9260   31.3362   50.4940 H   0  0  0  0  0  0  0  0  0  0  0  0
   62.5999   30.4054   49.6891 H   0  0  0  0  0  0  0  0  0  0  0  0
   64.5747   33.7609   49.4349 H   0  0  0  0  0  0  0  0  0  0  0  0
   64.2350   34.7388   46.9470 H   0  0  0  0  0  0  0  0  0  0  0  0
   62.4737   33.1557   45.7176 H   0  0  0  0  0  0  0  0  0  0  0  0
   61.0753   30.5787   48.1995 H   0  0  0  0  0  0  0  0  0  0  0  0
   60.6524   31.4414   46.6817 H   0  0  0  0  0  0  0  0  0  0  0  0
   61.9641   30.2142   46.6817 H   0  0  0  0  0  0  0  0  0  0  0  0
  1  2  1  0
  2  3  1  0
  2  4  1  0
  4  5  1  0
  5  6  1  0
  6  7  2  0
  6  8  1  0
  8  9  2  0
  9 10  1  0
 10 11  2  0
 11 12  1  0
 12 13  1  0
 13 14  1  0
 14 15  2  0
 14 16  2  0
 14 17  1  0
 17 18  2  0
 18 19  1  0
 19 20  2  0
 20 21  1  0
 20 22  1  0
 22 23  2  0
 12 24  2  0
  4 25  1  0
 25 26  2  0
 25 27  1  0
 27 28  1  0
 28 29  1  0
 29 30  2  0
 30 31  1  0
 31 32  2  0
 32 33  1  0
 33 34  1  0
 24  8  1  0
 33 29  1  0
 23 17  1  0
  1 35  1  0
  1 36  1  0
  1 37  1  0
  2 38  1  0
  3 39  1  0
  3 40  1  0
  3 41  1  0
  4 42  1  1
  5 43  1  0
  9 44  1  0
 10 45  1  0
 11 46  1  0
 18 47  1  0
 19 48  1  0
 22 49  1  0
 23 50  1  0
 24 51  1  0
 28 52  1  0
 28 53  1  0
 30 54  1  0
 31 55  1  0
 32 56  1  0
 34 57  1  0
 34 58  1  0
 34 59  1  0
M  CHG  2  13  -1  27  -1
M  END
>  <UniqueID>  (16) 
15

>  <SMILES>  (16) 
CC(C)[C@H](NC(=O)c1cccc([N-]S(=O)(=O)c2ccc(Cl)cc2)c1)C(=O)[N-]Cc1cccn1C

>  <Energy>  (16) 
83.86835006785022

>  <Genealogy>  (16) 
CC(C)C(NC(=O)c1cccc([N-]S(=O)(=O)c2ccc(Cl)cc2)c1)C(=O)[N-]Cc1cccn1C (protonated)
CC(C)[C@H](NC(=O)c1cccc([N-]S(=O)(=O)c2ccc(Cl)cc2)c1)C(=O)[N-]Cc1cccn1C (chirality)
CC(C)[C@H](NC(=O)c1cccc([N-]S(=O)(=O)c2ccc(Cl)cc2)c1)C(=O)[N-]Cc1cccn1C (3D coordinates assigned)
CC(C)[C@H](NC(=O)c1cccc([N-]S(=O)(=O)c2ccc(Cl)cc2)c1)C(=O)[N-]Cc1cccn1C (optimized conformer: 83.86835006785022 kcal/mol)

>  <smiles>  (16) 
CC(C)C(NC(=O)c1cccc(NS(=O)(=O)c2ccc(Cl)cc2)c1)C(=O)NCc1cccn1C

>  <score_type>  (16) 
oracle

>  <origin>  (16) 
adg

>  <m_score__min__energy>  (16) 
-13

>  <m_primary>  (16) 
energy

$$$$
16:0
     RDKit          3D

 61 63  0  0  0  0  0  0  0  0999 V2000
   57.8230   26.7300   45.9620 C   0  0  0  0  0  0  0  0  0  0  0  0
   56.3650   27.0690   45.8880 C   0  0  0  0  0  0  0  0  0  0  0  0
   55.5260   26.2660   46.3750 O   0  0  0  0  0  0  0  0  0  0  0  0
   55.8930   28.2610   45.2460 N   0  0  0  0  0  0  0  0  0  0  0  0
   56.6340   29.4730   45.0470 C   0  0  0  0  0  0  0  0  0  0  0  0
   56.3020   30.2990   43.9650 C   0  0  0  0  0  0  0  0  0  0  0  0
   56.9830   31.5020   43.7610 C   0  0  0  0  0  0  0  0  0  0  0  0
   57.9870   31.9100   44.6460 C   0  0  0  0  0  0  0  0  0  0  0  0
   58.6360   33.1300   44.4020 O   0  0  0  0  0  0  0  0  0  0  0  0
   58.4620   34.3070   45.1880 C   0  0  0  0  0  0  0  0  0  0  0  0
   59.6280   34.4800   46.1120 C   0  0  0  0  0  0  0  0  0  0  0  0
   59.7890   35.5800   46.7060 O   0  0  0  0  0  0  0  0  0  0  0  0
   60.5360   33.3870   46.3340 N   0  0  0  0  0  0  0  0  0  0  0  0
   61.5550   33.3850   47.3490 C   0  0  0  0  0  0  0  0  0  0  0  0
   62.7310   32.6290   47.2050 C   0  0  0  0  0  0  0  0  0  0  0  0
   63.7180   32.6620   48.1940 C   0  0  0  0  0  0  0  0  0  0  0  0
   63.5460   33.4530   49.3410 C   0  0  0  0  0  0  0  0  0  0  0  0
   64.6220   33.5120   50.3970 C   0  0  0  0  0  0  0  0  0  0  0  0
   65.2600   32.1620   50.6200 C   0  0  0  0  0  0  0  0  0  0  0  0
   66.4130   31.9360   50.1630 O   0  0  0  0  0  0  0  0  0  0  0  0
   64.5730   31.0960   51.2890 N   0  0  0  0  0  0  0  0  0  0  0  0
   63.2860   30.5190   50.9060 C   0  0  0  0  0  0  0  0  0  0  0  0
   62.1320   31.3030   51.5430 C   0  0  0  0  0  0  0  0  0  0  0  0
   60.8340   30.8520   50.9980 N   0  0  0  0  0  0  0  0  0  0  0  0
   60.0320   32.0060   50.5450 C   0  0  0  0  0  0  0  0  0  0  0  0
   58.8690   31.5390   49.6510 C   0  0  0  0  0  0  0  0  0  0  0  0
   59.2650   30.8150   48.4920 O   0  0  0  0  0  0  0  0  0  0  0  0
   60.5960   30.3260   48.5500 C   0  0  0  0  0  0  0  0  0  0  0  0
   60.9880   29.8130   49.9470 C   0  0  0  0  0  0  0  0  0  0  0  0
   62.3870   34.2330   49.4700 C   0  0  0  0  0  0  0  0  0  0  0  0
   61.4020   34.2020   48.4790 C   0  0  0  0  0  0  0  0  0  0  0  0
   58.3060   31.0920   45.7470 C   0  0  0  0  0  0  0  0  0  0  0  0
   57.6280   29.8860   45.9480 C   0  0  0  0  0  0  0  0  0  0  0  0
   58.1298   26.6587   47.0159 H   0  0  0  0  0  0  0  0  0  0  0  0
   58.0012   25.7665   45.4622 H   0  0  0  0  0  0  0  0  0  0  0  0
   58.4080   27.5161   45.4622 H   0  0  0  0  0  0  0  0  0  0  0  0
   55.5014   29.9990   43.2728 H   0  0  0  0  0  0  0  0  0  0  0  0
   56.7276   32.1336   42.8974 H   0  0  0  0  0  0  0  0  0  0  0  0
   58.3896   35.1813   44.5244 H   0  0  0  0  0  0  0  0  0  0  0  0
   57.5405   34.2132   45.7814 H   0  0  0  0  0  0  0  0  0  0  0  0
   60.5110   32.5860   45.6640 H   0  0  0  0  0  0  0  0  0  0  0  0
   62.8754   32.0078   46.3088 H   0  0  0  0  0  0  0  0  0  0  0  0
   64.6341   32.0652   48.0731 H   0  0  0  0  0  0  0  0  0  0  0  0
   65.3970   34.2240   50.0769 H   0  0  0  0  0  0  0  0  0  0  0  0
   64.1583   33.8324   51.3416 H   0  0  0  0  0  0  0  0  0  0  0  0
   63.1857   30.5538   49.8111 H   0  0  0  0  0  0  0  0  0  0  0  0
   63.2449   29.4780   51.2590 H   0  0  0  0  0  0  0  0  0  0  0  0
   62.1428   31.1422   52.6311 H   0  0  0  0  0  0  0  0  0  0  0  0
   62.2605   32.3715   51.3152 H   0  0  0  0  0  0  0  0  0  0  0  0
   59.6257   32.5307   51.4222 H   0  0  0  0  0  0  0  0  0  0  0  0
   60.6777   32.6808   49.9638 H   0  0  0  0  0  0  0  0  0  0  0  0
   58.2131   30.8920   50.2519 H   0  0  0  0  0  0  0  0  0  0  0  0
   58.3670   32.4498   49.2925 H   0  0  0  0  0  0  0  0  0  0  0  0
   60.6972   29.4990   47.8318 H   0  0  0  0  0  0  0  0  0  0  0  0
   61.2654   31.1646   48.3077 H   0  0  0  0  0  0  0  0  0  0  0  0
   60.3466   28.9563   50.2011 H   0  0  0  0  0  0  0  0  0  0  0  0
   62.0496   29.5269   49.9125 H   0  0  0  0  0  0  0  0  0  0  0  0
   62.2529   34.8720   50.3553 H   0  0  0  0  0  0  0  0  0  0  0  0
   60.5002   34.8228   48.5859 H   0  0  0  0  0  0  0  0  0  0  0  0
   59.0915   31.4031   46.4514 H   0  0  0  0  0  0  0  0  0  0  0  0
   57.8747   29.2576   46.8165 H   0  0  0  0  0  0  0  0  0  0  0  0
  1  2  1  0
  2  3  2  0
  2  4  1  0
  4  5  1  0
  5  6  2  0
  6  7  1  0
  7  8  2  0
  8  9  1  0
  9 10  1  0
 10 11  1  0
 11 12  2  0
 11 13  1  0
 13 14  1  0
 14 15  2  0
 15 16  1  0
 16 17  2  0
 17 18  1  0
 18 19  1  0
 19 20  2  0
 19 21  1  0
 21 22  1  0
 22 23  1  0
 23 24  1  0
 24 25  1  0
 25 26  1  0
 26 27  1  0
 27 28  1  0
 28 29  1  0
 17 30  1  0
 30 31  2  0
  8 32  1  0
 32 33  2  0
 33  5  1  0
 31 14  1  0
 29 24  1  0
  1 34  1  0
  1 35  1  0
  1 36  1  0
  6 37  1  0
  7 38  1  0
 10 39  1  0
 10 40  1  0
 13 41  1  0
 15 42  1  0
 16 43  1  0
 18 44  1  0
 18 45  1  0
 22 46  1  0
 22 47  1  0
 23 48  1  0
 23 49  1  0
 25 50  1  0
 25 51  1  0
 26 52  1  0
 26 53  1  0
 28 54  1  0
 28 55  1  0
 29 56  1  0
 29 57  1  0
 30 58  1  0
 31 59  1  0
 32 60  1  0
 33 61  1  0
M  CHG  2   4  -1  21  -1
M  END
>  <UniqueID>  (17) 
16

>  <SMILES>  (17) 
CC(=O)[N-]c1ccc(OCC(=O)Nc2ccc(CC(=O)[N-]CCN3CCOCC3)cc2)cc1

>  <Energy>  (17) 
79.33726113934111

>  <Genealogy>  (17) 
CC(=O)[N-]c1ccc(OCC(=O)Nc2ccc(CC(=O)[N-]CCN3CCOCC3)cc2)cc1 (protonated)
CC(=O)[N-]c1ccc(OCC(=O)Nc2ccc(CC(=O)[N-]CCN3CCOCC3)cc2)cc1 (3D coordinates assigned)
CC(=O)[N-]c1ccc(OCC(=O)Nc2ccc(CC(=O)[N-]CCN3CCOCC3)cc2)cc1 (nonaromatic ring conformer: 79.33726113934111 kcal/mol)

>  <smiles>  (17) 
CC(=O)Nc1ccc(OCC(=O)Nc2ccc(CC(=O)NCCN3CCOCC3)cc2)cc1

>  <score_type>  (17) 
oracle

>  <origin>  (17) 
adg

>  <m_score__min__energy>  (17) 
-11.41

>  <m_primary>  (17) 
energy

$$$$
17:0
     RDKit          3D

 44 46  0  0  0  0  0  0  0  0999 V2000
   59.1380   34.6570   47.8680 O   0  0  0  0  0  0  0  0  0  0  0  0
   59.1270   33.7150   47.0310 C   0  0  0  0  0  0  0  0  0  0  0  0
   59.2310   34.0240   45.5650 C   0  0  0  0  0  0  0  0  0  0  0  0
   58.7150   32.9430   44.7960 O   0  0  0  0  0  0  0  0  0  0  0  0
   57.4060   32.4700   44.9390 C   0  0  0  0  0  0  0  0  0  0  0  0
   56.6010   33.0400   45.7250 O   0  0  0  0  0  0  0  0  0  0  0  0
   56.9730   31.2510   44.1880 C   0  0  0  0  0  0  0  0  0  0  0  0
   57.3180   30.0420   44.9380 N   0  0  0  0  0  0  0  0  0  0  0  0
   56.4910   29.0070   45.2100 C   0  0  0  0  0  0  0  0  0  0  0  0
   55.1490   28.9630   44.8490 O   0  0  0  0  0  0  0  0  0  0  0  0
   57.1700   28.0090   45.8780 C   0  0  0  0  0  0  0  0  0  0  0  0
   58.4660   28.4390   46.0110 C   0  0  0  0  0  0  0  0  0  0  0  0
   58.5340   29.6840   45.4180 C   0  0  0  0  0  0  0  0  0  0  0  0
   59.6940   30.4490   45.3110 O   0  0  0  0  0  0  0  0  0  0  0  0
   59.5530   27.6410   46.6570 C   0  0  0  0  0  0  0  0  0  0  0  0
   59.0450   26.3030   47.1580 C   0  0  0  0  0  0  0  0  0  0  0  0
   57.7680   25.8810   47.0280 C   0  0  0  0  0  0  0  0  0  0  0  0
   56.6700   26.6860   46.3610 C   0  0  0  0  0  0  0  0  0  0  0  0
   59.0590   32.3660   47.5140 N   0  0  0  0  0  0  0  0  0  0  0  0
   59.9580   31.7740   48.5010 C   0  0  0  0  0  0  0  0  0  0  0  0
   61.3440   32.3460   48.3750 C   0  0  0  0  0  0  0  0  0  0  0  0
   61.8530   33.2120   49.3590 C   0  0  0  0  0  0  0  0  0  0  0  0
   63.1440   33.7340   49.2370 C   0  0  0  0  0  0  0  0  0  0  0  0
   63.9340   33.4000   48.1340 C   0  0  0  0  0  0  0  0  0  0  0  0
   63.4310   32.5470   47.1460 C   0  0  0  0  0  0  0  0  0  0  0  0
   62.1410   32.0230   47.2630 C   0  0  0  0  0  0  0  0  0  0  0  0
   58.6547   34.9345   45.3440 H   0  0  0  0  0  0  0  0  0  0  0  0
   60.2889   34.1761   45.3049 H   0  0  0  0  0  0  0  0  0  0  0  0
   55.8840   31.2858   44.0370 H   0  0  0  0  0  0  0  0  0  0  0  0
   57.4880   31.2280   43.2163 H   0  0  0  0  0  0  0  0  0  0  0  0
   59.7860   31.3480   45.7650 H   0  0  0  0  0  0  0  0  0  0  0  0
   60.3520   27.4661   45.9215 H   0  0  0  0  0  0  0  0  0  0  0  0
   59.9291   28.2098   47.5201 H   0  0  0  0  0  0  0  0  0  0  0  0
   59.7607   25.6342   47.6585 H   0  0  0  0  0  0  0  0  0  0  0  0
   57.5087   24.8911   47.4315 H   0  0  0  0  0  0  0  0  0  0  0  0
   56.2816   26.1170   45.5034 H   0  0  0  0  0  0  0  0  0  0  0  0
   55.8793   26.8686   47.1036 H   0  0  0  0  0  0  0  0  0  0  0  0
   59.5726   31.9823   49.5100 H   0  0  0  0  0  0  0  0  0  0  0  0
   60.0078   30.6892   48.3255 H   0  0  0  0  0  0  0  0  0  0  0  0
   61.2333   33.4795   50.2275 H   0  0  0  0  0  0  0  0  0  0  0  0
   63.5387   34.4089   50.0108 H   0  0  0  0  0  0  0  0  0  0  0  0
   64.9515   33.8078   48.0426 H   0  0  0  0  0  0  0  0  0  0  0  0
   64.0520   32.2884   46.2756 H   0  0  0  0  0  0  0  0  0  0  0  0
   61.7477   31.3554   46.4822 H   0  0  0  0  0  0  0  0  0  0  0  0
  1  2  2  0
  2  3  1  0
  3  4  1  0
  4  5  1  0
  5  6  2  0
  5  7  1  0
  7  8  1  0
  8  9  1  0
  9 10  1  0
  9 11  2  0
 11 12  1  0
 12 13  2  0
 13 14  1  0
 12 15  1  0
 15 16  1  0
 16 17  2  0
 17 18  1  0
  2 19  1  0
 19 20  1  0
 20 21  1  0
 21 22  2  0
 22 23  1  0
 23 24  2  0
 24 25  1  0
 25 26  2  0
 13  8  1  0
 26 21  1  0
 18 11  1  0
  3 27  1  0
  3 28  1  0
  7 29  1  0
  7 30  1  0
 14 31  1  0
 15 32  1  0
 15 33  1  0
 16 34  1  0
 17 35  1  0
 18 36  1  0
 18 37  1  0
 20 38  1  0
 20 39  1  0
 22 40  1  0
 23 41  1  0
 24 42  1  0
 25 43  1  0
 26 44  1  0
M  CHG  2  10  -1  19  -1
M  END
>  <UniqueID>  (18) 
17

>  <SMILES>  (18) 
O=C(COC(=O)Cn1c([O-])c2c(c1O)CC=CC2)[N-]Cc1ccccc1

>  <Energy>  (18) 
71.09594007852986

>  <Genealogy>  (18) 
O=C(COC(=O)Cn1c([O-])c2c(c1O)CC=CC2)[N-]Cc1ccccc1 (protonated)
O=C(COC(=O)Cn1c([O-])c2c(c1O)CC=CC2)[N-]Cc1ccccc1 (3D coordinates assigned)
O=C(COC(=O)Cn1c([O-])c2c(c1O)CC=CC2)[N-]Cc1ccccc1 (nonaromatic ring conformer: 71.09594007852986 kcal/mol)

>  <smiles>  (18) 
O=C(COC(=O)Cn1c(O)c2c(c1O)CC=CC2)NCc1ccccc1

>  <score_type>  (18) 
oracle

>  <origin>  (18) 
adg

>  <m_score__min__energy>  (18) 
-13.1

>  <m_primary>  (18) 
energy

$$$$
18:0
     RDKit          3D

 66 69  0  0  0  0  0  0  0  0999 V2000
   59.1290   34.9380   44.8580 C   0  0  0  0  0  0  0  0  0  0  0  0
   58.5660   33.5460   44.7720 C   0  0  0  0  0  0  0  0  0  0  0  0
   58.1190   33.0850   43.5200 C   0  0  0  0  0  0  0  0  0  0  0  0
   57.6110   31.7950   43.3730 C   0  0  0  0  0  0  0  0  0  0  0  0
   57.5540   30.9310   44.4690 C   0  0  0  0  0  0  0  0  0  0  0  0
   56.8890   29.3060   44.2860 S   0  0  0  0  0  0  0  0  0  0  0  0
   55.5110   29.2740   44.8870 O   0  0  0  0  0  0  0  0  0  0  0  0
   56.7610   28.9870   42.8230 O   0  0  0  0  0  0  0  0  0  0  0  0
   57.8880   28.0920   45.0540 N   0  0  0  0  0  0  0  0  0  0  0  0
   57.1600   27.4110   46.1280 C   0  0  0  0  0  0  0  0  0  0  0  0
   56.6040   26.1100   45.5750 C   0  0  0  0  0  0  0  0  0  0  0  0
   57.3900   25.8350   44.3100 C   0  0  0  0  0  0  0  0  0  0  0  0
   58.2860   27.0500   44.1010 C   0  0  0  0  0  0  0  0  0  0  0  0
   58.0090   31.3700   45.7160 C   0  0  0  0  0  0  0  0  0  0  0  0
   58.5090   32.6720   45.8910 C   0  0  0  0  0  0  0  0  0  0  0  0
   59.0160   33.1370   47.5340 S   0  0  0  0  0  0  0  0  0  0  0  0
   58.9570   34.6360   47.6360 O   0  0  0  0  0  0  0  0  0  0  0  0
   58.0810   32.5920   48.5770 O   0  0  0  0  0  0  0  0  0  0  0  0
   60.6500   32.5940   47.8810 N   0  0  0  0  0  0  0  0  0  0  0  0
   61.4520   33.6910   48.4640 C   0  0  0  0  0  0  0  0  0  0  0  0
   62.9310   33.4470   48.2970 C   0  0  0  0  0  0  0  0  0  0  0  0
   63.4650   33.6940   47.1800 O   0  0  0  0  0  0  0  0  0  0  0  0
   63.7240   32.8680   49.3580 N   0  0  0  0  0  0  0  0  0  0  0  0
   65.1760   33.0900   49.3750 C   0  0  0  0  0  0  0  0  0  0  0  0
   65.8870   31.9590   50.1290 C   0  0  0  0  0  0  0  0  0  0  0  0
   65.2890   31.7370   51.3910 O   0  0  0  0  0  0  0  0  0  0  0  0
   63.9680   31.2690   51.2110 C   0  0  0  0  0  0  0  0  0  0  0  0
   63.0940   32.3560   50.5840 C   0  0  0  0  0  0  0  0  0  0  0  0
   60.6200   31.4270   48.7840 C   0  0  0  0  0  0  0  0  0  0  0  0
   60.5570   30.1530   47.9830 C   0  0  0  0  0  0  0  0  0  0  0  0
   60.2350   28.9420   48.6220 C   0  0  0  0  0  0  0  0  0  0  0  0
   60.1700   27.7550   47.8860 C   0  0  0  0  0  0  0  0  0  0  0  0
   60.4230   27.7680   46.5130 C   0  0  0  0  0  0  0  0  0  0  0  0
   60.7330   28.9710   45.8680 C   0  0  0  0  0  0  0  0  0  0  0  0
   60.8030   30.1600   46.6000 C   0  0  0  0  0  0  0  0  0  0  0  0
   59.2440   35.2224   45.9144 H   0  0  0  0  0  0  0  0  0  0  0  0
   60.1100   34.9681   44.3613 H   0  0  0  0  0  0  0  0  0  0  0  0
   58.4448   35.6416   44.3613 H   0  0  0  0  0  0  0  0  0  0  0  0
   58.1710   33.7509   42.6460 H   0  0  0  0  0  0  0  0  0  0  0  0
   57.2535   31.4561   42.3895 H   0  0  0  0  0  0  0  0  0  0  0  0
   57.8427   27.1985   46.9639 H   0  0  0  0  0  0  0  0  0  0  0  0
   56.3417   28.0479   46.4951 H   0  0  0  0  0  0  0  0  0  0  0  0
   56.7445   25.2940   46.2992 H   0  0  0  0  0  0  0  0  0  0  0  0
   55.5246   26.1813   45.3756 H   0  0  0  0  0  0  0  0  0  0  0  0
   57.9989   24.9266   44.4280 H   0  0  0  0  0  0  0  0  0  0  0  0
   56.7248   25.6716   43.4493 H   0  0  0  0  0  0  0  0  0  0  0  0
   59.3359   26.7708   44.2737 H   0  0  0  0  0  0  0  0  0  0  0  0
   58.1821   27.4220   43.0710 H   0  0  0  0  0  0  0  0  0  0  0  0
   57.9751   30.6843   46.5755 H   0  0  0  0  0  0  0  0  0  0  0  0
   61.1867   34.6330   47.9618 H   0  0  0  0  0  0  0  0  0  0  0  0
   61.2314   33.7439   49.5404 H   0  0  0  0  0  0  0  0  0  0  0  0
   65.5484   33.1246   48.3405 H   0  0  0  0  0  0  0  0  0  0  0  0
   65.3830   34.0417   49.8864 H   0  0  0  0  0  0  0  0  0  0  0  0
   65.8252   31.0357   49.5342 H   0  0  0  0  0  0  0  0  0  0  0  0
   66.9370   32.2476   50.2847 H   0  0  0  0  0  0  0  0  0  0  0  0
   63.9825   30.3902   50.5495 H   0  0  0  0  0  0  0  0  0  0  0  0
   63.5500   30.9991   52.1921 H   0  0  0  0  0  0  0  0  0  0  0  0
   62.1089   31.9332   50.3373 H   0  0  0  0  0  0  0  0  0  0  0  0
   62.9785   33.1823   51.3008 H   0  0  0  0  0  0  0  0  0  0  0  0
   61.5293   31.4227   49.4030 H   0  0  0  0  0  0  0  0  0  0  0  0
   59.7295   31.4922   49.4265 H   0  0  0  0  0  0  0  0  0  0  0  0
   60.0338   28.9288   49.7034 H   0  0  0  0  0  0  0  0  0  0  0  0
   59.9192   26.8096   48.3894 H   0  0  0  0  0  0  0  0  0  0  0  0
   60.3787   26.8317   45.9374 H   0  0  0  0  0  0  0  0  0  0  0  0
   60.9217   28.9808   44.7843 H   0  0  0  0  0  0  0  0  0  0  0  0
   61.0513   31.1034   46.0917 H   0  0  0  0  0  0  0  0  0  0  0  0
  1  2  1  0
  2  3  2  0
  3  4  1  0
  4  5  2  0
  5  6  1  0
  6  7  2  0
  6  8  2  0
  6  9  1  0
  9 10  1  0
 10 11  1  0
 11 12  1  0
 12 13  1  0
  5 14  1  0
 14 15  2  0
 15 16  1  0
 16 17  2  0
 16 18  2  0
 16 19  1  0
 19 20  1  0
 20 21  1  0
 21 22  2  0
 21 23  1  0
 23 24  1  0
 24 25  1  0
 25 26  1  0
 26 27  1  0
 27 28  1  0
 19 29  1  0
 29 30  1  0
 30 31  2  0
 31 32  1  0
 32 33  2  0
 33 34  1  0
 34 35  2  0
 15  2  1  0
 28 23  1  0
 35 30  1  0
 13  9  1  0
  1 36  1  0
  1 37  1  0
  1 38  1  0
  3 39  1  0
  4 40  1  0
 10 41  1  0
 10 42  1  0
 11 43  1  0
 11 44  1  0
 12 45  1  0
 12 46  1  0
 13 47  1  0
 13 48  1  0
 14 49  1  0
 20 50  1  0
 20 51  1  0
 24 52  1  0
 24 53  1  0
 25 54  1  0
 25 55  1  0
 27 56  1  0
 27 57  1  0
 28 58  1  0
 28 59  1  0
 29 60  1  0
 29 61  1  0
 31 62  1  0
 32 63  1  0
 33 64  1  0
 34 65  1  0
 35 66  1  0
M  END
>  <UniqueID>  (19) 
18

>  <SMILES>  (19) 
Cc1ccc(S(=O)(=O)N2CCCC2)cc1S(=O)(=O)N(CC(=O)N1CCOCC1)Cc1ccccc1

>  <Energy>  (19) 
70.88455045863947

>  <Genealogy>  (19) 
Cc1ccc(S(=O)(=O)N2CCCC2)cc1S(=O)(=O)N(CC(=O)N1CCOCC1)Cc1ccccc1 (3D coordinates assigned)
Cc1ccc(S(=O)(=O)N2CCCC2)cc1S(=O)(=O)N(CC(=O)N1CCOCC1)Cc1ccccc1 (nonaromatic ring conformer: 70.88455045863947 kcal/mol)

>  <smiles>  (19) 
Cc1ccc(S(=O)(=O)N2CCCC2)cc1S(=O)(=O)N(CC(=O)N1CCOCC1)Cc1ccccc1

>  <score_type>  (19) 
oracle

>  <origin>  (19) 
adg

>  <m_score__min__energy>  (19) 
-10.73

>  <m_primary>  (19) 
energy

$$$$
19:0
     RDKit          3D

 65 69  0  0  0  0  0  0  0  0999 V2000
   56.9882   28.1759   42.6383 H   0  0  0  0  0  0  0  0  0  0  0  0
   57.3970   28.5110   43.6030 C   0  0  0  0  0  0  0  0  0  0  0  0
   57.1950   29.9220   43.9920 C   0  0  0  0  0  0  0  0  0  0  0  0
   56.1730   30.2100   44.6720 O   0  0  0  0  0  0  0  0  0  0  0  0
   58.0930   30.9700   43.5870 N   0  0  0  0  0  0  0  0  0  0  0  0
   58.9080   30.7630   42.9680 H   0  0  0  0  0  0  0  0  0  0  0  0
   57.8350   32.3760   43.8970 C   0  0  0  0  0  0  0  0  0  0  0  0
   58.4533   33.0110   43.2455 H   0  0  0  0  0  0  0  0  0  0  0  0
   56.7693   32.5907   43.7293 H   0  0  0  0  0  0  0  0  0  0  0  0
   58.1730   32.6620   45.3360 C   0  0  0  0  0  0  0  0  0  0  0  0
   59.4510   32.3740   45.8430 C   0  0  0  0  0  0  0  0  0  0  0  0
   60.2196   31.9490   45.1807 H   0  0  0  0  0  0  0  0  0  0  0  0
   59.7510   32.6250   47.1860 C   0  0  0  0  0  0  0  0  0  0  0  0
   60.7580   32.4075   47.5715 H   0  0  0  0  0  0  0  0  0  0  0  0
   58.7720   33.1540   48.0460 C   0  0  0  0  0  0  0  0  0  0  0  0
   59.0850   33.4080   49.4700 C   0  0  0  0  0  0  0  0  0  0  0  0
   59.8590   34.3580   49.7760 O   0  0  0  0  0  0  0  0  0  0  0  0
   58.4980   32.6110   50.5140 N   0  0  0  0  0  0  0  0  0  0  0  0
   58.5360   31.1460   50.4480 C   0  0  0  0  0  0  0  0  0  0  0  0
   58.7299   30.8374   49.4101 H   0  0  0  0  0  0  0  0  0  0  0  0
   59.3351   30.7855   51.1125 H   0  0  0  0  0  0  0  0  0  0  0  0
   57.1960   30.5370   50.9140 C   0  0  0  0  0  0  0  0  0  0  0  0
   56.6259   30.2237   50.0270 H   0  0  0  0  0  0  0  0  0  0  0  0
   57.4314   29.6872   51.5716 H   0  0  0  0  0  0  0  0  0  0  0  0
   56.3680   31.4890   51.6970 N   0  0  0  0  0  0  0  0  0  0  0  0
   55.3210   30.7840   52.4640 C   0  0  0  0  0  0  0  0  0  0  0  0
   55.6047   29.7271   52.5757 H   0  0  0  0  0  0  0  0  0  0  0  0
   55.2248   31.2591   53.4515 H   0  0  0  0  0  0  0  0  0  0  0  0
   53.9950   30.8680   51.7540 C   0  0  0  0  0  0  0  0  0  0  0  0
   53.5940   29.8350   50.8910 C   0  0  0  0  0  0  0  0  0  0  0  0
   54.2620   28.9796   50.7118 H   0  0  0  0  0  0  0  0  0  0  0  0
   52.3480   29.8910   50.2590 C   0  0  0  0  0  0  0  0  0  0  0  0
   52.0420   29.0842   49.5767 H   0  0  0  0  0  0  0  0  0  0  0  0
   51.4910   30.9690   50.4920 C   0  0  0  0  0  0  0  0  0  0  0  0
   50.5107   31.0102   49.9947 H   0  0  0  0  0  0  0  0  0  0  0  0
   51.8800   31.9960   51.3580 C   0  0  0  0  0  0  0  0  0  0  0  0
   51.0250   33.0640   51.5970 O   0  0  0  0  0  0  0  0  0  0  0  0
   53.1280   31.9480   51.9870 C   0  0  0  0  0  0  0  0  0  0  0  0
   53.4315   32.7584   52.6661 H   0  0  0  0  0  0  0  0  0  0  0  0
   57.2070   32.3020   52.5950 C   0  0  0  0  0  0  0  0  0  0  0  0
   56.5653   32.8809   53.2755 H   0  0  0  0  0  0  0  0  0  0  0  0
   57.8618   31.6456   53.1870 H   0  0  0  0  0  0  0  0  0  0  0  0
   58.0580   33.2590   51.7530 C   0  0  0  0  0  0  0  0  0  0  0  0
   57.4602   34.1478   51.5026 H   0  0  0  0  0  0  0  0  0  0  0  0
   58.9459   33.5464   52.3352 H   0  0  0  0  0  0  0  0  0  0  0  0
   57.4970   33.4480   47.5340 C   0  0  0  0  0  0  0  0  0  0  0  0
   56.7267   33.8708   48.1958 H   0  0  0  0  0  0  0  0  0  0  0  0
   57.2010   33.2070   46.1900 C   0  0  0  0  0  0  0  0  0  0  0  0
   56.2010   33.4456   45.7988 H   0  0  0  0  0  0  0  0  0  0  0  0
   58.0500   27.6150   44.3580 C   0  0  0  0  0  0  0  0  0  0  0  0
   57.9564   26.5503   44.0979 H   0  0  0  0  0  0  0  0  0  0  0  0
   58.8920   27.9800   45.5250 C   0  0  0  0  0  0  0  0  0  0  0  0
   59.7510   29.1160   45.5300 C   0  0  0  0  0  0  0  0  0  0  0  0
   59.8055   29.7610   44.6406 H   0  0  0  0  0  0  0  0  0  0  0  0
   60.5310   29.4220   46.6610 C   0  0  0  0  0  0  0  0  0  0  0  0
   61.1919   30.3012   46.6740 H   0  0  0  0  0  0  0  0  0  0  0  0
   60.4390   28.5770   47.7610 C   0  0  0  0  0  0  0  0  0  0  0  0
   59.6350   27.4850   47.7630 C   0  0  0  0  0  0  0  0  0  0  0  0
   58.8490   27.1450   46.6660 C   0  0  0  0  0  0  0  0  0  0  0  0
   58.2104   26.2495   46.6857 H   0  0  0  0  0  0  0  0  0  0  0  0
   59.7470   26.8330   48.9760 O   0  0  0  0  0  0  0  0  0  0  0  0
   60.6820   27.5610   49.7860 C   0  0  0  0  0  0  0  0  0  0  0  0
   60.1983   27.9196   50.7066 H   0  0  0  0  0  0  0  0  0  0  0  0
   61.5313   26.9357   50.0985 H   0  0  0  0  0  0  0  0  0  0  0  0
   61.0990   28.6670   48.9720 O   0  0  0  0  0  0  0  0  0  0  0  0
  1  2  1  0
  2  3  1  0
  3  4  2  0
  3  5  1  0
  5  6  1  0
  5  7  1  0
  7  8  1  0
  7  9  1  0
  7 10  1  0
 10 11  2  0
 11 12  1  0
 11 13  1  0
 13 14  1  0
 13 15  2  0
 15 16  1  0
 16 17  2  0
 16 18  1  0
 18 19  1  0
 19 20  1  0
 19 21  1  0
 19 22  1  0
 22 23  1  0
 22 24  1  0
 22 25  1  0
 25 26  1  0
 26 27  1  0
 26 28  1  0
 26 29  1  0
 29 30  2  0
 30 31  1  0
 30 32  1  0
 32 33  1  0
 32 34  2  0
 34 35  1  0
 34 36  1  0
 36 37  1  0
 36 38  2  0
 38 39  1  0
 25 40  1  0
 40 41  1  0
 40 42  1  0
 40 43  1  0
 43 44  1  0
 43 45  1  0
 15 46  1  0
 46 47  1  0
 46 48  2  0
 48 49  1  0
  2 50  2  0
 50 51  1  0
 50 52  1  0
 52 53  2  0
 53 54  1  0
 53 55  1  0
 55 56  1  0
 55 57  2  0
 57 58  1  0
 58 59  2  0
 59 60  1  0
 58 61  1  0
 61 62  1  0
 62 63  1  0
 62 64  1  0
 62 65  1  0
 48 10  1  0
 59 52  1  0
 43 18  1  0
 65 57  1  0
 38 29  1  0
M  CHG  1  37  -1
M  END
>  <UniqueID>  (20) 
19

>  <SMILES>  (20) 
O=C(/C=C/c1ccc2c(c1)OCO2)NCc1ccc(C(=O)N2CCN(Cc3cccc([O-])c3)CC2)cc1

>  <Energy>  (20) 
108.54228975714022

>  <Genealogy>  (20) 
O=C(C=Cc1ccc2c(c1)OCO2)NCc1ccc(C(=O)N2CCN(Cc3cccc([O-])c3)CC2)cc1 (protonated)
O=C(/C=C/c1ccc2c(c1)OCO2)NCc1ccc(C(=O)N2CCN(Cc3cccc([O-])c3)CC2)cc1 (cis-trans isomerization)
O=C(/C=C/c1ccc2c(c1)OCO2)NCc1ccc(C(=O)N2CCN(Cc3cccc([O-])c3)CC2)cc1 (3D coordinates assigned)
O=C(/C=C/c1ccc2c(c1)OCO2)NCc1ccc(C(=O)N2CCN(Cc3cccc([O-])c3)CC2)cc1 (nonaromatic ring conformer: 108.54228975714022 kcal/mol)

>  <smiles>  (20) 
O=C(C=Cc1ccc2c(c1)OCO2)NCc1ccc(C(=O)N2CCN(Cc3cccc(O)c3)CC2)cc1

>  <score_type>  (20) 
oracle

>  <origin>  (20) 
adg

>  <m_score__min__energy>  (20) 
-13.94

>  <m_primary>  (20) 
energy

$$$$
20:0
     RDKit          3D

 57 61  0  0  0  0  0  0  0  0999 V2000
   55.2520   26.7160   46.0150 O   0  0  0  0  0  0  0  0  0  0  0  0
   56.5040   26.6370   45.8900 C   0  0  0  0  0  0  0  0  0  0  0  0
   57.1400   25.3790   46.1460 N   0  0  0  0  0  0  0  0  0  0  0  0
   57.2130   24.2690   45.2380 C   0  0  0  0  0  0  0  0  0  0  0  0
   56.5230   24.3480   44.0210 C   0  0  0  0  0  0  0  0  0  0  0  0
   56.5360   23.2700   43.1290 C   0  0  0  0  0  0  0  0  0  0  0  0
   57.2350   22.1010   43.4530 C   0  0  0  0  0  0  0  0  0  0  0  0
   57.9110   22.0080   44.6700 C   0  0  0  0  0  0  0  0  0  0  0  0
   57.8970   23.0830   45.5670 C   0  0  0  0  0  0  0  0  0  0  0  0
   57.2670   27.8200   45.4290 C   0  0  0  0  0  0  0  0  0  0  0  0
   58.6040   27.6950   45.0180 C   0  0  0  0  0  0  0  0  0  0  0  0
   59.3030   28.8080   44.5430 C   0  0  0  0  0  0  0  0  0  0  0  0
   58.6750   30.0540   44.4730 C   0  0  0  0  0  0  0  0  0  0  0  0
   57.3480   30.2030   44.8930 C   0  0  0  0  0  0  0  0  0  0  0  0
   56.7470   31.5010   44.8110 N   0  0  0  0  0  0  0  0  0  0  0  0
   57.5960   33.0150   44.8080 S   0  0  0  0  0  0  0  0  0  0  0  0
   58.4050   33.0960   43.5450 O   0  0  0  0  0  0  0  0  0  0  0  0
   56.6410   34.1730   44.8230 O   0  0  0  0  0  0  0  0  0  0  0  0
   58.6780   33.0800   46.2000 C   0  0  0  0  0  0  0  0  0  0  0  0
   59.5880   34.1350   46.3400 C   0  0  0  0  0  0  0  0  0  0  0  0
   60.4980   34.1450   47.4000 C   0  0  0  0  0  0  0  0  0  0  0  0
   60.5410   33.0810   48.3220 C   0  0  0  0  0  0  0  0  0  0  0  0
   59.5780   32.0550   48.2150 C   0  0  0  0  0  0  0  0  0  0  0  0
   58.6660   32.0500   47.1480 C   0  0  0  0  0  0  0  0  0  0  0  0
   59.5600   30.9380   49.2210 C   0  0  0  0  0  0  0  0  0  0  0  0
   59.9950   31.4630   50.5870 C   0  0  0  0  0  0  0  0  0  0  0  0
   61.3950   32.0780   50.5010 C   0  0  0  0  0  0  0  0  0  0  0  0
   61.5150   33.0490   49.3990 N   0  0  0  0  0  0  0  0  0  0  0  0
   62.7540   33.7790   49.3170 C   0  0  0  0  0  0  0  0  0  0  0  0
   62.9250   34.7920   50.0520 O   0  0  0  0  0  0  0  0  0  0  0  0
   63.8660   33.2980   48.4120 C   0  0  0  0  0  0  0  0  0  0  0  0
   63.5150   32.0990   47.5440 C   0  0  0  0  0  0  0  0  0  0  0  0
   63.6520   33.4790   46.9140 C   0  0  0  0  0  0  0  0  0  0  0  0
   56.6410   29.0770   45.3560 C   0  0  0  0  0  0  0  0  0  0  0  0
   55.9680   25.2627   43.7654 H   0  0  0  0  0  0  0  0  0  0  0  0
   55.9968   23.3410   42.1728 H   0  0  0  0  0  0  0  0  0  0  0  0
   57.2512   21.2564   42.7485 H   0  0  0  0  0  0  0  0  0  0  0  0
   58.4565   21.0876   44.9255 H   0  0  0  0  0  0  0  0  0  0  0  0
   58.4213   23.0009   46.5305 H   0  0  0  0  0  0  0  0  0  0  0  0
   59.1035   26.7163   45.0702 H   0  0  0  0  0  0  0  0  0  0  0  0
   60.3503   28.7028   44.2234 H   0  0  0  0  0  0  0  0  0  0  0  0
   59.2266   30.9232   44.0855 H   0  0  0  0  0  0  0  0  0  0  0  0
   59.5864   34.9597   45.6120 H   0  0  0  0  0  0  0  0  0  0  0  0
   61.1886   34.9933   47.5159 H   0  0  0  0  0  0  0  0  0  0  0  0
   57.9371   31.2313   47.0561 H   0  0  0  0  0  0  0  0  0  0  0  0
   58.5413   30.5296   49.2946 H   0  0  0  0  0  0  0  0  0  0  0  0
   60.2544   30.1483   48.8983 H   0  0  0  0  0  0  0  0  0  0  0  0
   59.2822   32.2299   50.9244 H   0  0  0  0  0  0  0  0  0  0  0  0
   60.0158   30.6264   51.3009 H   0  0  0  0  0  0  0  0  0  0  0  0
   61.6145   32.5907   51.4491 H   0  0  0  0  0  0  0  0  0  0  0  0
   62.1083   31.2629   50.3091 H   0  0  0  0  0  0  0  0  0  0  0  0
   64.6756   33.5551   49.1109 H   0  0  0  0  0  0  0  0  0  0  0  0
   64.2709   31.3255   47.3433 H   0  0  0  0  0  0  0  0  0  0  0  0
   62.7308   31.3279   47.5639 H   0  0  0  0  0  0  0  0  0  0  0  0
   64.5070   33.7025   46.2590 H   0  0  0  0  0  0  0  0  0  0  0  0
   63.0085   34.1177   46.2912 H   0  0  0  0  0  0  0  0  0  0  0  0
   55.5900   29.1814   45.6633 H   0  0  0  0  0  0  0  0  0  0  0  0
  1  2  2  0
  2  3  1  0
  3  4  1  0
  4  5  2  0
  5  6  1  0
  6  7  2  0
  7  8  1  0
  8  9  2  0
  2 10  1  0
 10 11  2  0
 11 12  1  0
 12 13  2  0
 13 14  1  0
 14 15  1  0
 15 16  1  0
 16 17  2  0
 16 18  2  0
 16 19  1  0
 19 20  2  0
 20 21  1  0
 21 22  2  0
 22 23  1  0
 23 24  2  0
 23 25  1  0
 25 26  1  0
 26 27  1  0
 27 28  1  0
 28 29  1  0
 29 30  2  0
 29 31  1  0
 31 32  1  0
 32 33  1  0
 14 34  2  0
  9  4  1  0
 34 10  1  0
 24 19  1  0
 33 31  1  0
 28 22  1  0
  5 35  1  0
  6 36  1  0
  7 37  1  0
  8 38  1  0
  9 39  1  0
 11 40  1  0
 12 41  1  0
 13 42  1  0
 20 43  1  0
 21 44  1  0
 24 45  1  0
 25 46  1  0
 25 47  1  0
 26 48  1  0
 26 49  1  0
 27 50  1  0
 27 51  1  0
 31 52  1  0
 32 53  1  0
 32 54  1  0
 33 55  1  0
 33 56  1  0
 34 57  1  0
M  CHG  2   3  -1  15  -1
M  END
>  <UniqueID>  (21) 
20

>  <SMILES>  (21) 
O=C([N-]c1ccccc1)c1cccc([N-]S(=O)(=O)c2ccc3c(c2)CCCN3C(=O)C2CC2)c1

>  <Energy>  (21) 
343.8465701416514

>  <Genealogy>  (21) 
O=C([N-]c1ccccc1)c1cccc([N-]S(=O)(=O)c2ccc3c(c2)CCCN3C(=O)C2CC2)c1 (protonated)
O=C([N-]c1ccccc1)c1cccc([N-]S(=O)(=O)c2ccc3c(c2)CCCN3C(=O)C2CC2)c1 (3D coordinates assigned)
O=C([N-]c1ccccc1)c1cccc([N-]S(=O)(=O)c2ccc3c(c2)CCCN3C(=O)C2CC2)c1 (nonaromatic ring conformer: 343.8465701416514 kcal/mol)

>  <smiles>  (21) 
O=C(Nc1ccccc1)c1cccc(NS(=O)(=O)c2ccc3c(c2)CCCN3C(=O)C2CC2)c1

>  <score_type>  (21) 
oracle

>  <origin>  (21) 
adg

>  <m_score__min__energy>  (21) 
-13.69

>  <m_primary>  (21) 
energy

$$$$
21:0
     RDKit          3D

 35 36  0  0  0  0  0  0  0  0999 V2000
   57.1100   31.4570   42.2400 O   0  0  0  0  0  0  0  0  0  0  0  0
   57.3610   31.3640   43.4710 C   0  0  0  0  0  0  0  0  0  0  0  0
   57.7150   30.0220   44.0440 C   0  0  0  0  0  0  0  0  0  0  0  0
   56.2740   29.2530   44.8610 S   0  0  0  0  0  0  0  0  0  0  0  0
   57.1910   27.8560   45.5280 C   0  0  0  0  0  0  0  0  0  0  0  0
   58.5890   27.9100   45.5710 C   0  0  0  0  0  0  0  0  0  0  0  0
   59.3020   26.8300   46.0890 C   0  0  0  0  0  0  0  0  0  0  0  0
   58.6170   25.7110   46.5590 C   0  0  0  0  0  0  0  0  0  0  0  0
   57.2210   25.6920   46.5120 C   0  0  0  0  0  0  0  0  0  0  0  0
   56.5350   26.7560   46.0050 N   0  0  0  0  0  0  0  0  0  0  0  0
   55.1600   26.7080   45.9770 O   0  0  0  0  0  0  0  0  0  0  0  0
   57.3450   32.5540   44.2690 N   0  0  0  0  0  0  0  0  0  0  0  0
   58.5050   33.3830   44.5790 C   0  0  0  0  0  0  0  0  0  0  0  0
   58.6270   33.6290   46.0530 C   0  0  0  0  0  0  0  0  0  0  0  0
   58.0090   34.6010   46.5630 O   0  0  0  0  0  0  0  0  0  0  0  0
   59.3470   32.7110   46.8880 N   0  0  0  0  0  0  0  0  0  0  0  0
   60.7740   32.6790   47.0110 C   0  0  0  0  0  0  0  0  0  0  0  0
   61.4960   33.8420   46.7130 C   0  0  0  0  0  0  0  0  0  0  0  0
   62.8920   33.8520   46.7960 C   0  0  0  0  0  0  0  0  0  0  0  0
   63.5760   32.7030   47.1980 C   0  0  0  0  0  0  0  0  0  0  0  0
   62.8630   31.5490   47.5350 C   0  0  0  0  0  0  0  0  0  0  0  0
   61.4650   31.5280   47.4510 C   0  0  0  0  0  0  0  0  0  0  0  0
   60.5530   29.9550   48.0610 Br  0  0  0  0  0  0  0  0  0  0  0  0
   58.0604   29.3649   43.2323 H   0  0  0  0  0  0  0  0  0  0  0  0
   58.5078   30.1611   44.7937 H   0  0  0  0  0  0  0  0  0  0  0  0
   59.1210   28.7980   45.1988 H   0  0  0  0  0  0  0  0  0  0  0  0
   60.4009   26.8608   46.1267 H   0  0  0  0  0  0  0  0  0  0  0  0
   59.1705   24.8507   46.9633 H   0  0  0  0  0  0  0  0  0  0  0  0
   56.6725   24.8148   46.8857 H   0  0  0  0  0  0  0  0  0  0  0  0
   59.4133   32.8732   44.2254 H   0  0  0  0  0  0  0  0  0  0  0  0
   58.3796   34.3535   44.0765 H   0  0  0  0  0  0  0  0  0  0  0  0
   60.9607   34.7544   46.4114 H   0  0  0  0  0  0  0  0  0  0  0  0
   63.4513   34.7652   46.5445 H   0  0  0  0  0  0  0  0  0  0  0  0
   64.6748   32.7060   47.2494 H   0  0  0  0  0  0  0  0  0  0  0  0
   63.4036   30.6509   47.8685 H   0  0  0  0  0  0  0  0  0  0  0  0
  1  2  2  0
  2  3  1  0
  3  4  1  0
  4  5  1  0
  5  6  2  0
  6  7  1  0
  7  8  2  0
  8  9  1  0
  9 10  2  0
 10 11  1  0
  2 12  1  0
 12 13  1  0
 13 14  1  0
 14 15  2  0
 14 16  1  0
 16 17  1  0
 17 18  2  0
 18 19  1  0
 19 20  2  0
 20 21  1  0
 21 22  2  0
 22 23  1  0
 10  5  1  0
 22 17  1  0
  3 24  1  0
  3 25  1  0
  6 26  1  0
  7 27  1  0
  8 28  1  0
  9 29  1  0
 13 30  1  0
 13 31  1  0
 18 32  1  0
 19 33  1  0
 20 34  1  0
 21 35  1  0
M  CHG  4  10   1  11  -1  12  -1  16  -1
M  END
>  <UniqueID>  (22) 
21

>  <SMILES>  (22) 
O=C(CSc1cccc[n+]1[O-])[N-]CC(=O)[N-]c1ccccc1Br

>  <Energy>  (22) 
36.607925609259304

>  <Genealogy>  (22) 
O=C(CSc1cccc[n+]1[O-])[N-]CC(=O)[N-]c1ccccc1Br (protonated)
O=C(CSc1cccc[n+]1[O-])[N-]CC(=O)[N-]c1ccccc1Br (3D coordinates assigned)
O=C(CSc1cccc[n+]1[O-])[N-]CC(=O)[N-]c1ccccc1Br (optimized conformer: 36.607925609259304 kcal/mol)

>  <smiles>  (22) 
O=C(CSc1cccc[n+]1[O-])NCC(=O)Nc1ccccc1Br

>  <score_type>  (22) 
oracle

>  <origin>  (22) 
adg

>  <m_score__min__energy>  (22) 
-11.67

>  <m_primary>  (22) 
energy

$$$$
22:0
     RDKit          3D

 32 34  0  0  0  0  0  0  0  0999 V2000
   60.6000   30.0640   48.7930 O   0  0  0  0  0  0  0  0  0  0  0  0
   60.8300   30.4110   47.6040 C   0  0  0  0  0  0  0  0  0  0  0  0
   61.6030   31.6620   47.3390 C   0  0  0  0  0  0  0  0  0  0  0  0
   60.8370   33.0870   48.1890 S   0  0  0  0  0  0  0  0  0  0  0  0
   59.6160   33.4100   46.9070 C   0  0  0  0  0  0  0  0  0  0  0  0
   59.8240   34.4600   46.0040 C   0  0  0  0  0  0  0  0  0  0  0  0
   58.8920   34.7140   44.9930 C   0  0  0  0  0  0  0  0  0  0  0  0
   57.7450   33.9220   44.8840 C   0  0  0  0  0  0  0  0  0  0  0  0
   57.5260   32.8800   45.7900 C   0  0  0  0  0  0  0  0  0  0  0  0
   58.4570   32.6210   46.8080 C   0  0  0  0  0  0  0  0  0  0  0  0
   58.2360   31.5850   47.7130 O   0  0  0  0  0  0  0  0  0  0  0  0
   60.2720   29.6850   46.5020 N   0  0  0  0  0  0  0  0  0  0  0  0
   59.3010   28.6320   46.5680 C   0  0  0  0  0  0  0  0  0  0  0  0
   59.6250   27.4640   47.3000 C   0  0  0  0  0  0  0  0  0  0  0  0
   58.7060   26.4040   47.4090 C   0  0  0  0  0  0  0  0  0  0  0  0
   57.4710   26.5530   46.7860 C   0  0  0  0  0  0  0  0  0  0  0  0
   56.4500   25.6830   46.7690 N   0  0  0  0  0  0  0  0  0  0  0  0
   55.5200   26.3530   46.0420 C   0  0  0  0  0  0  0  0  0  0  0  0
   54.3860   25.8680   45.7890 O   0  0  0  0  0  0  0  0  0  0  0  0
   55.8970   27.5820   45.6090 N   0  0  0  0  0  0  0  0  0  0  0  0
   57.1430   27.6800   46.0960 C   0  0  0  0  0  0  0  0  0  0  0  0
   58.0260   28.7500   45.9650 C   0  0  0  0  0  0  0  0  0  0  0  0
   62.6327   31.5345   47.7044 H   0  0  0  0  0  0  0  0  0  0  0  0
   61.6034   31.8547   46.2560 H   0  0  0  0  0  0  0  0  0  0  0  0
   60.7236   35.0871   46.0903 H   0  0  0  0  0  0  0  0  0  0  0  0
   59.0613   35.5372   44.2832 H   0  0  0  0  0  0  0  0  0  0  0  0
   57.0147   34.1188   44.0852 H   0  0  0  0  0  0  0  0  0  0  0  0
   56.6208   32.2609   45.7047 H   0  0  0  0  0  0  0  0  0  0  0  0
   58.8240   30.7590   47.7280 H   0  0  0  0  0  0  0  0  0  0  0  0
   60.6069   27.3843   47.7893 H   0  0  0  0  0  0  0  0  0  0  0  0
   58.9553   25.4896   47.9673 H   0  0  0  0  0  0  0  0  0  0  0  0
   57.7414   29.6567   45.4110 H   0  0  0  0  0  0  0  0  0  0  0  0
  1  2  2  0
  2  3  1  0
  3  4  1  0
  4  5  1  0
  5  6  2  0
  6  7  1  0
  7  8  2  0
  8  9  1  0
  9 10  2  0
 10 11  1  0
  2 12  1  0
 12 13  1  0
 13 14  2  0
 14 15  1  0
 15 16  2  0
 16 17  1  0
 17 18  1  0
 18 19  2  0
 18 20  1  0
 20 21  1  0
 21 22  2  0
 10  5  1  0
 22 13  1  0
 21 16  1  0
  3 23  1  0
  3 24  1  0
  6 25  1  0
  7 26  1  0
  8 27  1  0
  9 28  1  0
 11 29  1  0
 14 30  1  0
 15 31  1  0
 22 32  1  0
M  CHG  3  12  -1  17  -1  20  -1
M  END
>  <UniqueID>  (23) 
22

>  <SMILES>  (23) 
O=C(CSc1ccccc1O)[N-]c1ccc2[n-]c(=O)[n-]c2c1

>  <Energy>  (23) 
67.008318897058

>  <Genealogy>  (23) 
O=C(CSc1ccccc1O)[N-]c1ccc2[n-]c(=O)[n-]c2c1 (protonated)
O=C(CSc1ccccc1O)[N-]c1ccc2[n-]c(=O)[n-]c2c1 (3D coordinates assigned)
O=C(CSc1ccccc1O)[N-]c1ccc2[n-]c(=O)[n-]c2c1 (optimized conformer: 67.008318897058 kcal/mol)

>  <smiles>  (23) 
O=C(CSc1ccccc1O)Nc1ccc2[nH]c(=O)[nH]c2c1

>  <score_type>  (23) 
oracle

>  <origin>  (23) 
adg

>  <m_score__min__energy>  (23) 
-11.73

>  <m_primary>  (23) 
energy

$$$$
23:0
     RDKit          3D

 41 44  0  0  0  0  0  0  0  0999 V2000
   62.7662   30.8370   48.2445 H   0  0  0  0  0  0  0  0  0  0  0  0
   62.4680   31.5380   47.4510 C   0  0  0  0  0  0  0  0  0  0  0  0
   63.1491   31.7402   46.6112 H   0  0  0  0  0  0  0  0  0  0  0  0
   61.2820   32.1420   47.5070 C   0  0  0  0  0  0  0  0  0  0  0  0
   60.8960   33.0540   46.4730 N   0  0  0  0  0  0  0  0  0  0  0  0
   59.7820   33.7350   46.5000 C   0  0  0  0  0  0  0  0  0  0  0  0
   59.3790   34.5370   45.2970 C   0  0  0  0  0  0  0  0  0  0  0  0
   58.9542   35.4970   45.6256 H   0  0  0  0  0  0  0  0  0  0  0  0
   60.2651   34.7144   44.6698 H   0  0  0  0  0  0  0  0  0  0  0  0
   58.3280   33.7700   44.4770 C   0  0  0  0  0  0  0  0  0  0  0  0
   57.7026   34.4960   43.9367 H   0  0  0  0  0  0  0  0  0  0  0  0
   58.8634   33.1048   43.7835 H   0  0  0  0  0  0  0  0  0  0  0  0
   57.4370   32.9120   45.3430 C   0  0  0  0  0  0  0  0  0  0  0  0
   57.0070   31.7900   44.8700 N   0  0  0  0  0  0  0  0  0  0  0  0
   57.8140   30.8330   44.1410 C   0  0  0  0  0  0  0  0  0  0  0  0
   57.1526   30.1909   43.5407 H   0  0  0  0  0  0  0  0  0  0  0  0
   58.5104   31.3882   43.4954 H   0  0  0  0  0  0  0  0  0  0  0  0
   58.6210   29.9680   45.0760 C   0  0  0  0  0  0  0  0  0  0  0  0
   58.2230   29.8230   46.4160 C   0  0  0  0  0  0  0  0  0  0  0  0
   57.3616   30.3919   46.7960 H   0  0  0  0  0  0  0  0  0  0  0  0
   58.9170   28.9590   47.2680 C   0  0  0  0  0  0  0  0  0  0  0  0
   58.6023   28.8519   48.3166 H   0  0  0  0  0  0  0  0  0  0  0  0
   60.0100   28.2310   46.7900 C   0  0  0  0  0  0  0  0  0  0  0  0
   60.5524   27.5490   47.4614 H   0  0  0  0  0  0  0  0  0  0  0  0
   60.4140   28.3690   45.4600 C   0  0  0  0  0  0  0  0  0  0  0  0
   61.2820   27.8047   45.0883 H   0  0  0  0  0  0  0  0  0  0  0  0
   59.7170   29.2230   44.6010 C   0  0  0  0  0  0  0  0  0  0  0  0
   60.0261   29.3135   43.5492 H   0  0  0  0  0  0  0  0  0  0  0  0
   57.0420   33.4660   47.0270 S   0  0  0  0  0  0  0  0  0  0  0  0
   58.7730   33.6330   47.6390 C   0  0  1  0  0  0  0  0  0  0  0  0
   58.8337   34.5856   48.1857 H   0  0  0  0  0  0  0  0  0  0  0  0
   59.1180   32.5430   48.6140 C   0  0  0  0  0  0  0  0  0  0  0  0
   58.4720   32.3190   49.7050 N   0  0  0  0  0  0  0  0  0  0  0  0
   57.5800   32.7870   49.9770 H   0  0  0  0  0  0  0  0  0  0  0  0
   59.2290   31.4080   50.5620 C   0  0  0  0  0  0  0  0  0  0  0  0
   59.4541   31.8826   51.5285 H   0  0  0  0  0  0  0  0  0  0  0  0
   58.6686   30.4887   50.7877 H   0  0  0  0  0  0  0  0  0  0  0  0
   60.5270   31.1210   49.7830 C   0  0  0  0  0  0  0  0  0  0  0  0
   61.4069   31.4780   50.3382 H   0  0  0  0  0  0  0  0  0  0  0  0
   60.6988   30.0478   49.6134 H   0  0  0  0  0  0  0  0  0  0  0  0
   60.3500   31.8700   48.5510 N   0  0  0  0  0  0  0  0  0  0  0  0
  1  2  1  0
  2  3  1  0
  2  4  2  0
  4  5  1  0
  5  6  2  0
  6  7  1  0
  7  8  1  0
  7  9  1  0
  7 10  1  0
 10 11  1  0
 10 12  1  0
 10 13  1  0
 13 14  2  0
 14 15  1  0
 15 16  1  0
 15 17  1  0
 15 18  1  0
 18 19  2  0
 19 20  1  0
 19 21  1  0
 21 22  1  0
 21 23  2  0
 23 24  1  0
 23 25  1  0
 25 26  1  0
 25 27  2  0
 27 28  1  0
 13 29  1  0
 29 30  1  0
 30 31  1  1
 30 32  1  0
 32 33  2  0
 33 34  1  0
 33 35  1  0
 35 36  1  0
 35 37  1  0
 35 38  1  0
 38 39  1  0
 38 40  1  0
 38 41  1  0
 41  4  1  0
 30  6  1  0
 41 32  1  0
 27 18  1  0
M  CHG  1  33   1
M  END
>  <UniqueID>  (24) 
23

>  <SMILES>  (24) 
C=C1N=C2CC/C(=N/Cc3ccccc3)S[C@H]2C2=[NH+]CCN12

>  <Energy>  (24) 
58.236055344293376

>  <Genealogy>  (24) 
C=C1N=C2CCC(=NCc3ccccc3)SC2C2=[NH+]CCN12 (protonated)
C=C1N=C2CCC(=NCc3ccccc3)S[C@H]2C2=[NH+]CCN12 (chirality)
C=C1N=C2CC/C(=N/Cc3ccccc3)S[C@H]2C2=[NH+]CCN12 (cis-trans isomerization)
C=C1N=C2CC/C(=N/Cc3ccccc3)S[C@H]2C2=[NH+]CCN12 (3D coordinates assigned)
C=C1N=C2CC/C(=N/Cc3ccccc3)S[C@H]2C2=[NH+]CCN12 (nonaromatic ring conformer: 58.236055344293376 kcal/mol)

>  <smiles>  (24) 
C=C1N=C2CCC(=NCc3ccccc3)SC2C2=NCCN12

>  <score_type>  (24) 
oracle

>  <origin>  (24) 
adg

>  <m_score__min__energy>  (24) 
-6.0800000000000001

>  <m_primary>  (24) 
energy

$$$$
24:0
     RDKit          3D

 42 45  0  0  0  0  0  0  0  0999 V2000
   55.1700   28.9700   44.8780 O   0  0  0  0  0  0  0  0  0  0  0  0
   56.2420   28.3730   45.5330 C   0  0  0  0  0  0  0  0  0  0  0  0
   57.3980   29.1170   45.7870 C   0  0  0  0  0  0  0  0  0  0  0  0
   58.4890   28.5340   46.4510 C   0  0  0  0  0  0  0  0  0  0  0  0
   59.7060   29.3340   46.7240 C   0  0  0  0  0  0  0  0  0  0  0  0
   59.8730   30.0770   47.8420 N   0  0  0  0  0  0  0  0  0  0  0  0
   61.0720   30.7250   47.8730 C   0  0  0  0  0  0  0  0  0  0  0  0
   61.4530   31.5890   49.0210 C   0  0  0  0  0  0  0  0  0  0  0  0
   62.7430   32.1520   49.0750 C   0  0  0  0  0  0  0  0  0  0  0  0
   63.1200   32.9670   50.1460 C   0  0  0  0  0  0  0  0  0  0  0  0
   62.2180   33.2300   51.1830 C   0  0  0  0  0  0  0  0  0  0  0  0
   62.5830   34.0400   52.2560 O   0  0  0  0  0  0  0  0  0  0  0  0
   60.9380   32.6730   51.1440 C   0  0  0  0  0  0  0  0  0  0  0  0
   60.5550   31.8570   50.0750 C   0  0  0  0  0  0  0  0  0  0  0  0
   61.8820   30.4900   46.7580 C   0  0  0  0  0  0  0  0  0  0  0  0
   61.0560   29.4510   45.7280 S   0  0  0  0  0  0  0  0  0  0  0  0
   58.4030   27.1890   46.8540 C   0  0  0  0  0  0  0  0  0  0  0  0
   57.2480   26.4320   46.5930 C   0  0  0  0  0  0  0  0  0  0  0  0
   57.1700   25.0040   47.0740 C   0  0  0  0  0  0  0  0  0  0  0  0
   57.3190   24.0530   45.9170 C   0  0  0  0  0  0  0  0  0  0  0  0
   58.5610   23.4540   45.6470 C   0  0  0  0  0  0  0  0  0  0  0  0
   58.6920   22.5450   44.5930 C   0  0  0  0  0  0  0  0  0  0  0  0
   57.5840   22.2210   43.8060 C   0  0  0  0  0  0  0  0  0  0  0  0
   56.3420   22.8050   44.0720 C   0  0  0  0  0  0  0  0  0  0  0  0
   56.2070   23.7150   45.1270 C   0  0  0  0  0  0  0  0  0  0  0  0
   56.1610   27.0360   45.9360 C   0  0  0  0  0  0  0  0  0  0  0  0
   54.9970   26.3160   45.6810 O   0  0  0  0  0  0  0  0  0  0  0  0
   57.4532   30.1671   45.4642 H   0  0  0  0  0  0  0  0  0  0  0  0
   63.4606   31.9483   48.2665 H   0  0  0  0  0  0  0  0  0  0  0  0
   64.1294   33.4033   50.1739 H   0  0  0  0  0  0  0  0  0  0  0  0
   62.5860   33.6900   53.2070 H   0  0  0  0  0  0  0  0  0  0  0  0
   60.2274   32.8772   51.9584 H   0  0  0  0  0  0  0  0  0  0  0  0
   59.5454   31.4207   50.0560 H   0  0  0  0  0  0  0  0  0  0  0  0
   62.8835   30.9111   46.5855 H   0  0  0  0  0  0  0  0  0  0  0  0
   59.2500   26.7241   47.3798 H   0  0  0  0  0  0  0  0  0  0  0  0
   57.9761   24.8212   47.7998 H   0  0  0  0  0  0  0  0  0  0  0  0
   56.1910   24.8396   47.5479 H   0  0  0  0  0  0  0  0  0  0  0  0
   59.4345   23.7015   46.2680 H   0  0  0  0  0  0  0  0  0  0  0  0
   59.6686   22.0843   44.3830 H   0  0  0  0  0  0  0  0  0  0  0  0
   57.6890   21.5060   42.9767 H   0  0  0  0  0  0  0  0  0  0  0  0
   55.4702   22.5492   43.4518 H   0  0  0  0  0  0  0  0  0  0  0  0
   55.2268   24.1672   45.3385 H   0  0  0  0  0  0  0  0  0  0  0  0
  1  2  1  0
  2  3  2  0
  3  4  1  0
  4  5  1  0
  5  6  2  0
  6  7  1  0
  7  8  1  0
  8  9  2  0
  9 10  1  0
 10 11  2  0
 11 12  1  0
 11 13  1  0
 13 14  2  0
  7 15  2  0
 15 16  1  0
  4 17  2  0
 17 18  1  0
 18 19  1  0
 19 20  1  0
 20 21  2  0
 21 22  1  0
 22 23  2  0
 23 24  1  0
 24 25  2  0
 18 26  2  0
 26 27  1  0
 26  2  1  0
 16  5  1  0
 25 20  1  0
 14  8  1  0
  3 28  1  0
  9 29  1  0
 10 30  1  0
 12 31  1  0
 13 32  1  0
 14 33  1  0
 15 34  1  0
 17 35  1  0
 19 36  1  0
 19 37  1  0
 21 38  1  0
 22 39  1  0
 23 40  1  0
 24 41  1  0
 25 42  1  0
M  CHG  2   1  -1  27  -1
M  END
>  <UniqueID>  (25) 
24

>  <SMILES>  (25) 
[O-]c1cc(-c2nc(-c3ccc(O)cc3)cs2)cc(Cc2ccccc2)c1[O-]

>  <Energy>  (25) 
78.97914301336792

>  <Genealogy>  (25) 
[O-]c1cc(-c2nc(-c3ccc(O)cc3)cs2)cc(Cc2ccccc2)c1[O-] (protonated)
[O-]c1cc(-c2nc(-c3ccc(O)cc3)cs2)cc(Cc2ccccc2)c1[O-] (3D coordinates assigned)
[O-]c1cc(-c2nc(-c3ccc(O)cc3)cs2)cc(Cc2ccccc2)c1[O-] (optimized conformer: 78.97914301336792 kcal/mol)

>  <smiles>  (25) 
Oc1ccc(-c2csc(-c3cc(O)c(O)c(Cc4ccccc4)c3)n2)cc1

>  <score_type>  (25) 
oracle

>  <origin>  (25) 
adg

>  <m_score__min__energy>  (25) 
-12.960000000000001

>  <m_primary>  (25) 
energy

$$$$
25:0
     RDKit          3D

 64 67  0  0  0  0  0  0  0  0999 V2000
   58.9140   22.2790   45.1110 C   0  0  0  0  0  0  0  0  0  0  0  0
   57.8060   23.2930   45.1470 C   0  0  0  0  0  0  0  0  0  0  0  0
   58.0720   24.6360   44.8570 C   0  0  0  0  0  0  0  0  0  0  0  0
   57.0650   25.6040   44.9560 C   0  0  0  0  0  0  0  0  0  0  0  0
   57.3950   26.9550   44.5990 N   0  0  0  0  0  0  0  0  0  0  0  0
   57.1010   28.1310   45.3650 C   0  0  0  0  0  0  0  0  0  0  0  0
   55.9660   28.6620   45.2410 O   0  0  0  0  0  0  0  0  0  0  0  0
   58.0940   28.7480   46.2760 C   0  0  0  0  0  0  0  0  0  0  0  0
   58.6900   29.9730   45.9330 C   0  0  0  0  0  0  0  0  0  0  0  0
   59.6390   30.5570   46.7760 C   0  0  0  0  0  0  0  0  0  0  0  0
   59.9980   29.9320   47.9800 C   0  0  0  0  0  0  0  0  0  0  0  0
   61.0230   30.5530   48.8920 C   0  0  0  0  0  0  0  0  0  0  0  0
   60.4360   31.6930   49.6220 N   0  0  0  0  0  0  0  0  0  0  0  0
   58.9890   31.4990   49.8340 C   0  0  0  0  0  0  0  0  0  0  0  0
   58.3970   32.6410   50.6910 C   0  0  0  0  0  0  0  0  0  0  0  0
   59.3110   33.7970   50.8280 N   0  0  0  0  0  0  0  0  0  0  0  0
   60.3080   33.6390   51.9180 C   0  0  0  0  0  0  0  0  0  0  0  0
   59.6820   34.0190   53.2650 C   0  0  0  0  0  0  0  0  0  0  0  0
   58.5730   34.8590   53.0850 O   0  0  0  0  0  0  0  0  0  0  0  0
   59.9210   34.1430   49.5290 C   0  0  0  0  0  0  0  0  0  0  0  0
   60.6800   32.9530   48.8930 C   0  0  0  0  0  0  0  0  0  0  0  0
   59.3890   28.7190   48.3350 C   0  0  0  0  0  0  0  0  0  0  0  0
   58.4400   28.1340   47.4920 C   0  0  0  0  0  0  0  0  0  0  0  0
   55.7820   25.2310   45.4250 C   0  0  0  0  0  0  0  0  0  0  0  0
   54.7940   26.1860   45.6750 O   0  0  0  0  0  0  0  0  0  0  0  0
   55.4980   23.8710   45.6830 C   0  0  0  0  0  0  0  0  0  0  0  0
   54.1640   23.4600   46.1800 C   0  0  0  0  0  0  0  0  0  0  0  0
   53.1590   23.5750   45.4300 O   0  0  0  0  0  0  0  0  0  0  0  0
   53.9830   22.9460   47.5030 N   0  0  0  0  0  0  0  0  0  0  0  0
   52.8680   22.3440   48.2580 C   0  0  0  0  0  0  0  0  0  0  0  0
   53.6500   22.0550   49.4990 C   0  0  0  0  0  0  0  0  0  0  0  0
   54.7700   22.6680   48.7250 C   0  0  0  0  0  0  0  0  0  0  0  0
   56.5200   22.9170   45.5570 C   0  0  0  0  0  0  0  0  0  0  0  0
   59.2027   22.0148   46.1390 H   0  0  0  0  0  0  0  0  0  0  0  0
   58.5689   21.3773   44.5838 H   0  0  0  0  0  0  0  0  0  0  0  0
   59.7816   22.7025   44.5838 H   0  0  0  0  0  0  0  0  0  0  0  0
   59.0844   24.9348   44.5475 H   0  0  0  0  0  0  0  0  0  0  0  0
   58.4081   30.4751   44.9958 H   0  0  0  0  0  0  0  0  0  0  0  0
   60.1072   31.5117   46.4944 H   0  0  0  0  0  0  0  0  0  0  0  0
   61.3698   29.7994   49.6144 H   0  0  0  0  0  0  0  0  0  0  0  0
   61.8685   30.9128   48.2872 H   0  0  0  0  0  0  0  0  0  0  0  0
   58.4816   31.4813   48.8582 H   0  0  0  0  0  0  0  0  0  0  0  0
   58.8369   30.5475   50.3646 H   0  0  0  0  0  0  0  0  0  0  0  0
   57.4648   32.9856   50.2195 H   0  0  0  0  0  0  0  0  0  0  0  0
   58.2235   32.2383   51.6998 H   0  0  0  0  0  0  0  0  0  0  0  0
   60.6432   32.5920   51.9552 H   0  0  0  0  0  0  0  0  0  0  0  0
   61.1648   34.3000   51.7203 H   0  0  0  0  0  0  0  0  0  0  0  0
   59.3596   33.1036   53.7828 H   0  0  0  0  0  0  0  0  0  0  0  0
   60.4343   34.5551   53.8622 H   0  0  0  0  0  0  0  0  0  0  0  0
   58.7020   35.3100   52.2070 H   0  0  0  0  0  0  0  0  0  0  0  0
   59.1253   34.4624   48.8399 H   0  0  0  0  0  0  0  0  0  0  0  0
   60.6502   34.9472   49.7066 H   0  0  0  0  0  0  0  0  0  0  0  0
   60.3448   32.8326   47.8523 H   0  0  0  0  0  0  0  0  0  0  0  0
   61.7572   33.1711   48.9395 H   0  0  0  0  0  0  0  0  0  0  0  0
   59.6595   28.2264   49.2806 H   0  0  0  0  0  0  0  0  0  0  0  0
   57.9610   27.1872   47.7820 H   0  0  0  0  0  0  0  0  0  0  0  0
   54.7630   27.0860   45.2170 H   0  0  0  0  0  0  0  0  0  0  0  0
   52.0430   23.0506   48.4315 H   0  0  0  0  0  0  0  0  0  0  0  0
   52.3457   21.4976   47.7880 H   0  0  0  0  0  0  0  0  0  0  0  0
   53.3359   22.6068   50.3973 H   0  0  0  0  0  0  0  0  0  0  0  0
   53.7023   21.0649   49.9754 H   0  0  0  0  0  0  0  0  0  0  0  0
   55.1607   23.5823   49.1955 H   0  0  0  0  0  0  0  0  0  0  0  0
   55.6841   22.0678   48.6063 H   0  0  0  0  0  0  0  0  0  0  0  0
   56.3087   21.8614   45.7829 H   0  0  0  0  0  0  0  0  0  0  0  0
  1  2  1  0
  2  3  2  0
  3  4  1  0
  4  5  1  0
  5  6  1  0
  6  7  2  0
  6  8  1  0
  8  9  2  0
  9 10  1  0
 10 11  2  0
 11 12  1  0
 12 13  1  0
 13 14  1  0
 14 15  1  0
 15 16  1  0
 16 17  1  0
 17 18  1  0
 18 19  1  0
 16 20  1  0
 20 21  1  0
 11 22  1  0
 22 23  2  0
  4 24  2  0
 24 25  1  0
 24 26  1  0
 26 27  1  0
 27 28  2  0
 27 29  1  0
 29 30  1  0
 30 31  1  0
 31 32  1  0
 26 33  2  0
 33  2  1  0
 23  8  1  0
 32 29  1  0
 21 13  1  0
  1 34  1  0
  1 35  1  0
  1 36  1  0
  3 37  1  0
  9 38  1  0
 10 39  1  0
 12 40  1  0
 12 41  1  0
 14 42  1  0
 14 43  1  0
 15 44  1  0
 15 45  1  0
 17 46  1  0
 17 47  1  0
 18 48  1  0
 18 49  1  0
 19 50  1  0
 20 51  1  0
 20 52  1  0
 21 53  1  0
 21 54  1  0
 22 55  1  0
 23 56  1  0
 25 57  1  0
 30 58  1  0
 30 59  1  0
 31 60  1  0
 31 61  1  0
 32 62  1  0
 32 63  1  0
 33 64  1  0
M  CHG  1   5  -1
M  END
>  <UniqueID>  (26) 
25

>  <SMILES>  (26) 
Cc1cc([N-]C(=O)c2ccc(CN3CCN(CCO)CC3)cc2)c(O)c(C(=O)N2CCC2)c1

>  <Energy>  (26) 
133.59575114858288

>  <Genealogy>  (26) 
Cc1cc([N-]C(=O)c2ccc(CN3CCN(CCO)CC3)cc2)c(O)c(C(=O)N2CCC2)c1 (protonated)
Cc1cc([N-]C(=O)c2ccc(CN3CCN(CCO)CC3)cc2)c(O)c(C(=O)N2CCC2)c1 (3D coordinates assigned)
Cc1cc([N-]C(=O)c2ccc(CN3CCN(CCO)CC3)cc2)c(O)c(C(=O)N2CCC2)c1 (nonaromatic ring conformer: 133.59575114858288 kcal/mol)

>  <smiles>  (26) 
Cc1cc(NC(=O)c2ccc(CN3CCN(CCO)CC3)cc2)c(O)c(C(=O)N2CCC2)c1

>  <score_type>  (26) 
oracle

>  <origin>  (26) 
adg

>  <m_score__min__energy>  (26) 
-12.15

>  <m_primary>  (26) 
energy

$$$$
26:0
     RDKit          3D

 38 40  0  0  0  0  0  0  0  0999 V2000
   57.9290   31.2380   43.2160 N   0  0  0  0  0  0  0  0  0  0  0  0
   57.3200   31.1700   44.8320 S   0  0  0  0  0  0  0  0  0  0  0  0
   56.3130   30.0600   44.9480 O   0  0  0  0  0  0  0  0  0  0  0  0
   56.6480   32.4740   45.1570 O   0  0  0  0  0  0  0  0  0  0  0  0
   58.6550   30.8690   45.9450 C   0  0  0  0  0  0  0  0  0  0  0  0
   58.7670   31.6140   47.1300 C   0  0  0  0  0  0  0  0  0  0  0  0
   59.8240   31.3830   48.0120 C   0  0  0  0  0  0  0  0  0  0  0  0
   60.7740   30.4020   47.7220 C   0  0  0  0  0  0  0  0  0  0  0  0
   60.6730   29.6540   46.5470 C   0  0  0  0  0  0  0  0  0  0  0  0
   59.6220   29.8930   45.6410 C   0  0  0  0  0  0  0  0  0  0  0  0
   59.4960   29.1440   44.4600 O   0  0  0  0  0  0  0  0  0  0  0  0
   58.7990   27.9320   44.3400 C   0  0  0  0  0  0  0  0  0  0  0  0
   58.4960   27.4530   43.0610 C   0  0  0  0  0  0  0  0  0  0  0  0
   57.7970   26.2540   42.9030 C   0  0  0  0  0  0  0  0  0  0  0  0
   57.4030   25.5190   44.0240 C   0  0  0  0  0  0  0  0  0  0  0  0
   57.7250   25.9700   45.3150 C   0  0  0  0  0  0  0  0  0  0  0  0
   57.2720   25.2030   46.5290 C   0  0  0  0  0  0  0  0  0  0  0  0
   55.9580   24.5070   46.2490 C   0  0  0  0  0  0  0  0  0  0  0  0
   54.7890   25.2410   45.9750 C   0  0  0  0  0  0  0  0  0  0  0  0
   54.7970   26.6310   45.9960 O   0  0  0  0  0  0  0  0  0  0  0  0
   53.6310   24.5910   45.6890 N   0  0  0  0  0  0  0  0  0  0  0  0
   53.5760   23.2370   45.6550 C   0  0  0  0  0  0  0  0  0  0  0  0
   52.4910   22.6590   45.3880 O   0  0  0  0  0  0  0  0  0  0  0  0
   54.6890   22.5050   45.9080 N   0  0  0  0  0  0  0  0  0  0  0  0
   55.8730   23.1040   46.2000 C   0  0  0  0  0  0  0  0  0  0  0  0
   56.8850   22.3880   46.4220 O   0  0  0  0  0  0  0  0  0  0  0  0
   58.4330   27.1730   45.4660 C   0  0  0  0  0  0  0  0  0  0  0  0
   58.3690   30.3120   43.0170 H   0  0  0  0  0  0  0  0  0  0  0  0
   58.0174   32.3841   47.3646 H   0  0  0  0  0  0  0  0  0  0  0  0
   59.9084   31.9741   48.9358 H   0  0  0  0  0  0  0  0  0  0  0  0
   61.6037   30.2178   48.4203 H   0  0  0  0  0  0  0  0  0  0  0  0
   61.4178   28.8746   46.3283 H   0  0  0  0  0  0  0  0  0  0  0  0
   58.8100   28.0238   42.1747 H   0  0  0  0  0  0  0  0  0  0  0  0
   57.5563   25.8878   41.8941 H   0  0  0  0  0  0  0  0  0  0  0  0
   56.8386   24.5837   43.8953 H   0  0  0  0  0  0  0  0  0  0  0  0
   58.0326   24.4519   46.7886 H   0  0  0  0  0  0  0  0  0  0  0  0
   57.1349   25.9043   47.3653 H   0  0  0  0  0  0  0  0  0  0  0  0
   58.7035   27.5245   46.4726 H   0  0  0  0  0  0  0  0  0  0  0  0
  1  2  1  0
  2  3  2  0
  2  4  2  0
  2  5  1  0
  5  6  2  0
  6  7  1  0
  7  8  2  0
  8  9  1  0
  9 10  2  0
 10 11  1  0
 11 12  1  0
 12 13  2  0
 13 14  1  0
 14 15  2  0
 15 16  1  0
 16 17  1  0
 17 18  1  0
 18 19  2  0
 19 20  1  0
 19 21  1  0
 21 22  1  0
 22 23  2  0
 22 24  1  0
 24 25  1  0
 25 26  2  0
 16 27  2  0
 10  5  1  0
 27 12  1  0
 25 18  1  0
  1 28  1  0
  6 29  1  0
  7 30  1  0
  8 31  1  0
  9 32  1  0
 13 33  1  0
 14 34  1  0
 15 35  1  0
 17 36  1  0
 17 37  1  0
 27 38  1  0
M  CHG  4   1  -1  20  -1  21  -1  24  -1
M  END
>  <UniqueID>  (27) 
26

>  <SMILES>  (27) 
[NH-]S(=O)(=O)c1ccccc1Oc1cccc(Cc2c([O-])[n-]c(=O)[n-]c2=O)c1

>  <Energy>  (27) 
48.47528223855505

>  <Genealogy>  (27) 
[NH-]S(=O)(=O)c1ccccc1Oc1cccc(Cc2c([O-])[n-]c(=O)[n-]c2=O)c1 (protonated)
[NH-]S(=O)(=O)c1ccccc1Oc1cccc(Cc2c([O-])[n-]c(=O)[n-]c2=O)c1 (3D coordinates assigned)
[NH-]S(=O)(=O)c1ccccc1Oc1cccc(Cc2c([O-])[n-]c(=O)[n-]c2=O)c1 (optimized conformer: 48.47528223855505 kcal/mol)

>  <smiles>  (27) 
NS(=O)(=O)c1ccccc1Oc1cccc(Cc2c(O)[nH]c(=O)[nH]c2=O)c1

>  <score_type>  (27) 
oracle

>  <origin>  (27) 
adg

>  <m_score__min__energy>  (27) 
-17.379999999999999

>  <m_primary>  (27) 
energy

$$$$
27:0
     RDKit          3D

 50 54  0  0  0  0  0  0  0  0999 V2000
   58.1050   24.4120   46.2590 O   0  0  0  0  0  0  0  0  0  0  0  0
   57.6480   24.7580   45.1360 C   0  0  0  0  0  0  0  0  0  0  0  0
   57.2650   23.7500   44.1880 N   0  0  0  0  0  0  0  0  0  0  0  0
   57.2720   22.3330   44.5440 C   0  0  0  0  0  0  0  0  0  0  0  0
   56.7760   21.4330   43.4260 C   0  0  0  0  0  0  0  0  0  0  0  0
   58.2610   21.5040   43.7440 C   0  0  0  0  0  0  0  0  0  0  0  0
   57.5260   26.2000   44.8120 C   0  0  0  0  0  0  0  0  0  0  0  0
   56.7420   27.0430   45.6170 C   0  0  0  0  0  0  0  0  0  0  0  0
   56.6230   28.3980   45.3100 C   0  0  0  0  0  0  0  0  0  0  0  0
   57.2750   28.9110   44.1770 C   0  0  0  0  0  0  0  0  0  0  0  0
   57.2030   30.2680   43.8320 O   0  0  0  0  0  0  0  0  0  0  0  0
   57.8100   31.3190   44.5370 C   0  0  0  0  0  0  0  0  0  0  0  0
   58.0880   32.5100   43.8590 C   0  0  0  0  0  0  0  0  0  0  0  0
   58.6900   33.5810   44.5260 C   0  0  0  0  0  0  0  0  0  0  0  0
   59.0050   33.4770   45.8840 C   0  0  0  0  0  0  0  0  0  0  0  0
   58.6910   32.2990   46.5870 C   0  0  0  0  0  0  0  0  0  0  0  0
   58.1020   31.2210   45.9090 C   0  0  0  0  0  0  0  0  0  0  0  0
   59.0550   32.1720   48.0430 C   0  0  0  0  0  0  0  0  0  0  0  0
   59.1580   33.5460   48.7170 C   0  0  0  0  0  0  0  0  0  0  0  0
   60.0410   34.5100   47.9010 C   0  0  1  0  0  0  0  0  0  0  0  0
   61.5120   34.1570   48.0190 C   0  0  0  0  0  0  0  0  0  0  0  0
   62.2740   33.7440   46.9110 C   0  0  0  0  0  0  0  0  0  0  0  0
   63.6150   33.3960   47.0730 C   0  0  0  0  0  0  0  0  0  0  0  0
   64.1890   33.4540   48.3440 C   0  0  0  0  0  0  0  0  0  0  0  0
   63.4420   33.8410   49.4100 N   0  0  0  0  0  0  0  0  0  0  0  0
   62.1330   34.1850   49.2790 C   0  0  0  0  0  0  0  0  0  0  0  0
   59.6180   34.5550   46.5330 O   0  0  0  0  0  0  0  0  0  0  0  0
   58.0320   28.0810   43.4130 N   0  0  0  0  0  0  0  0  0  0  0  0
   58.1680   26.7590   43.6940 C   0  0  0  0  0  0  0  0  0  0  0  0
   57.1180   24.0030   43.1870 H   0  0  0  0  0  0  0  0  0  0  0  0
   57.0449   22.4528   45.6136 H   0  0  0  0  0  0  0  0  0  0  0  0
   56.2052   20.5233   43.6643 H   0  0  0  0  0  0  0  0  0  0  0  0
   56.1659   21.5789   42.5224 H   0  0  0  0  0  0  0  0  0  0  0  0
   58.7649   20.6457   44.2124 H   0  0  0  0  0  0  0  0  0  0  0  0
   59.1709   21.7225   43.1658 H   0  0  0  0  0  0  0  0  0  0  0  0
   56.2195   26.6323   46.4936 H   0  0  0  0  0  0  0  0  0  0  0  0
   56.0226   29.0604   45.9509 H   0  0  0  0  0  0  0  0  0  0  0  0
   57.8313   32.6048   42.7936 H   0  0  0  0  0  0  0  0  0  0  0  0
   58.9166   34.5088   43.9803 H   0  0  0  0  0  0  0  0  0  0  0  0
   57.8675   30.2945   46.4535 H   0  0  0  0  0  0  0  0  0  0  0  0
   58.2821   31.5796   48.5546 H   0  0  0  0  0  0  0  0  0  0  0  0
   60.0356   31.6784   48.1125 H   0  0  0  0  0  0  0  0  0  0  0  0
   58.1496   33.9758   48.8087 H   0  0  0  0  0  0  0  0  0  0  0  0
   59.6175   33.4113   49.7073 H   0  0  0  0  0  0  0  0  0  0  0  0
   59.9177   35.5176   48.3247 H   0  0  0  0  0  0  0  0  0  0  0  0
   61.8111   33.6954   45.9143 H   0  0  0  0  0  0  0  0  0  0  0  0
   64.2146   33.0788   46.2071 H   0  0  0  0  0  0  0  0  0  0  0  0
   65.2469   33.1861   48.4822 H   0  0  0  0  0  0  0  0  0  0  0  0
   61.5563   34.4873   50.1656 H   0  0  0  0  0  0  0  0  0  0  0  0
   58.7844   26.1222   43.0424 H   0  0  0  0  0  0  0  0  0  0  0  0
  1  2  2  0
  2  3  1  0
  3  4  1  0
  4  5  1  0
  5  6  1  0
  2  7  1  0
  7  8  2  0
  8  9  1  0
  9 10  2  0
 10 11  1  0
 11 12  1  0
 12 13  2  0
 13 14  1  0
 14 15  2  0
 15 16  1  0
 16 17  2  0
 16 18  1  0
 18 19  1  0
 19 20  1  0
 20 21  1  0
 21 22  2  0
 22 23  1  0
 23 24  2  0
 24 25  1  0
 25 26  2  0
 20 27  1  0
 10 28  1  0
 28 29  2  0
  6  4  1  0
 29  7  1  0
 17 12  1  0
 26 21  1  0
 27 15  1  0
  3 30  1  0
  4 31  1  0
  5 32  1  0
  5 33  1  0
  6 34  1  0
  6 35  1  0
  8 36  1  0
  9 37  1  0
 13 38  1  0
 14 39  1  0
 17 40  1  0
 18 41  1  0
 18 42  1  0
 19 43  1  0
 19 44  1  0
 20 45  1  1
 22 46  1  0
 23 47  1  0
 24 48  1  0
 26 49  1  0
 29 50  1  0
M  END
>  <UniqueID>  (28) 
27

>  <SMILES>  (28) 
O=C(NC1CC1)c1ccc(Oc2ccc3c(c2)CC[C@@H](c2cccnc2)O3)nc1

>  <Energy>  (28) 
329.11170047263835

>  <Genealogy>  (28) 
O=C(NC1CC1)c1ccc(Oc2ccc3c(c2)CC[C@@H](c2cccnc2)O3)nc1 (chirality)
O=C(NC1CC1)c1ccc(Oc2ccc3c(c2)CC[C@@H](c2cccnc2)O3)nc1 (3D coordinates assigned)
O=C(NC1CC1)c1ccc(Oc2ccc3c(c2)CC[C@@H](c2cccnc2)O3)nc1 (nonaromatic ring conformer: 329.11170047263835 kcal/mol)

>  <smiles>  (28) 
O=C(NC1CC1)c1ccc(Oc2ccc3c(c2)CCC(c2cccnc2)O3)nc1

>  <score_type>  (28) 
oracle

>  <origin>  (28) 
adg

>  <m_score__min__energy>  (28) 
-8.6899999999999995

>  <m_primary>  (28) 
energy

$$$$
28:0
     RDKit          3D

 31 31  0  0  0  0  0  0  0  0999 V2000
   50.4300   33.1250   47.7090 H   0  0  0  0  0  0  0  0  0  0  0  0
   50.0810   32.7670   48.6270 N   0  0  0  0  0  0  0  0  0  0  0  0
   50.7970   31.9690   49.3510 C   0  0  0  0  0  0  0  0  0  0  0  0
   51.0370   30.6860   49.0080 N   0  0  0  0  0  0  0  0  0  0  0  0
   51.8000   30.2310   50.0160 C   0  0  0  0  0  0  0  0  0  0  0  0
   52.1999   29.2100   50.1030 H   0  0  0  0  0  0  0  0  0  0  0  0
   52.0010   31.2470   50.9220 C   0  0  0  0  0  0  0  0  0  0  0  0
   52.7860   31.1530   52.1940 C   0  0  0  0  0  0  0  0  0  0  0  0
   53.4799   32.0049   52.2467 H   0  0  0  0  0  0  0  0  0  0  0  0
   52.0751   31.1658   53.0333 H   0  0  0  0  0  0  0  0  0  0  0  0
   53.5920   29.8530   52.2770 C   0  0  0  0  0  0  0  0  0  0  0  0
   53.0577   29.1383   52.9202 H   0  0  0  0  0  0  0  0  0  0  0  0
   53.7065   29.4448   51.2620 H   0  0  0  0  0  0  0  0  0  0  0  0
   54.9190   30.0980   52.8340 N   0  0  0  0  0  0  0  0  0  0  0  0
   55.9300   30.8560   52.1660 C   0  0  0  0  0  0  0  0  0  0  0  0
   55.9620   32.1040   52.3300 O   0  0  0  0  0  0  0  0  0  0  0  0
   56.8730   30.2060   51.3550 O   0  0  0  0  0  0  0  0  0  0  0  0
   58.2000   30.6660   51.0580 C   0  0  0  0  0  0  0  0  0  0  0  0
   58.1540   32.0500   50.3820 C   0  0  0  0  0  0  0  0  0  0  0  0
   58.1279   32.8340   51.1531 H   0  0  0  0  0  0  0  0  0  0  0  0
   59.0483   32.1818   49.7552 H   0  0  0  0  0  0  0  0  0  0  0  0
   57.2530   32.1221   49.7552 H   0  0  0  0  0  0  0  0  0  0  0  0
   58.9470   30.7930   52.3940 C   0  0  0  0  0  0  0  0  0  0  0  0
   58.2360   30.6721   53.2246 H   0  0  0  0  0  0  0  0  0  0  0  0
   59.7205   30.0135   52.4571 H   0  0  0  0  0  0  0  0  0  0  0  0
   59.4195   31.7844   52.4571 H   0  0  0  0  0  0  0  0  0  0  0  0
   58.9420   29.6530   50.1650 C   0  0  0  0  0  0  0  0  0  0  0  0
   59.4737   28.9271   50.7977 H   0  0  0  0  0  0  0  0  0  0  0  0
   58.2164   29.1237   49.5299 H   0  0  0  0  0  0  0  0  0  0  0  0
   59.6656   30.1851   49.5299 H   0  0  0  0  0  0  0  0  0  0  0  0
   51.3600   32.3560   50.5130 N   0  0  0  0  0  0  0  0  0  0  0  0
  1  2  1  0
  2  3  2  0
  3  4  1  0
  4  5  1  0
  5  6  1  0
  5  7  2  0
  7  8  1  0
  8  9  1  0
  8 10  1  0
  8 11  1  0
 11 12  1  0
 11 13  1  0
 11 14  1  0
 14 15  1  0
 15 16  2  0
 15 17  1  0
 17 18  1  0
 18 19  1  0
 19 20  1  0
 19 21  1  0
 19 22  1  0
 18 23  1  0
 23 24  1  0
 23 25  1  0
 23 26  1  0
 18 27  1  0
 27 28  1  0
 27 29  1  0
 27 30  1  0
  7 31  1  0
 31  3  1  0
M  CHG  3   4  -1  14  -1  31  -1
M  END
>  <UniqueID>  (29) 
28

>  <SMILES>  (29) 
[H]/N=c1\[n-]cc(CC[N-]C(=O)OC(C)(C)C)[n-]1

>  <Energy>  (29) 
44.73589763909832

>  <Genealogy>  (29) 
CC(C)(C)OC(=O)[N-]CCc1c[n-]c(=N)[n-]1 (protonated)
[H]/N=c1\[n-]cc(CC[N-]C(=O)OC(C)(C)C)[n-]1 (cis-trans isomerization)
[H]/N=c1\[n-]cc(CC[N-]C(=O)OC(C)(C)C)[n-]1 (3D coordinates assigned)
[H]/N=c1\[n-]cc(CC[N-]C(=O)OC(C)(C)C)[n-]1 (optimized conformer: 44.73589763909832 kcal/mol)

>  <smiles>  (29) 
CC(C)(C)OC(=O)NCCc1c[nH]c(=N)[nH]1

>  <score_type>  (29) 
oracle

>  <origin>  (29) 
adg

>  <m_score__min__energy>  (29) 
-11.779999999999999

>  <m_primary>  (29) 
energy

$$$$
29:0
     RDKit          3D

 49 52  0  0  0  0  0  0  0  0999 V2000
   57.4980   30.1350   43.6680 C   0  0  0  0  0  0  0  0  0  0  0  0
   58.1400   30.2520   44.8410 C   0  0  0  0  0  0  0  0  0  0  0  0
   58.4770   29.2170   45.7270 C   0  0  0  0  0  0  0  0  0  0  0  0
   58.4520   27.8780   45.5760 C   0  0  0  0  0  0  0  0  0  0  0  0
   57.2750   27.0150   45.7650 C   0  0  0  0  0  0  0  0  0  0  0  0
   57.3080   25.7770   46.2930 N   0  0  0  0  0  0  0  0  0  0  0  0
   56.0020   25.4480   46.3970 C   0  0  0  0  0  0  0  0  0  0  0  0
   55.6160   24.3360   46.8430 O   0  0  0  0  0  0  0  0  0  0  0  0
   55.1410   26.4090   45.9980 N   0  0  0  0  0  0  0  0  0  0  0  0
   55.9650   27.3980   45.6150 C   0  0  0  0  0  0  0  0  0  0  0  0
   55.5270   28.6290   45.1420 O   0  0  0  0  0  0  0  0  0  0  0  0
   58.9030   29.8290   46.8930 C   0  0  0  0  0  0  0  0  0  0  0  0
   58.8970   31.1870   46.6580 C   0  0  0  0  0  0  0  0  0  0  0  0
   59.3510   32.1910   47.6410 C   0  0  0  0  0  0  0  0  0  0  0  0
   58.4990   32.7170   48.4050 O   0  0  0  0  0  0  0  0  0  0  0  0
   60.7420   32.5510   47.7670 N   0  0  0  0  0  0  0  0  0  0  0  0
   61.8070   31.6100   47.3810 C   0  0  0  0  0  0  0  0  0  0  0  0
   62.9240   31.6110   48.4320 C   0  0  0  0  0  0  0  0  0  0  0  0
   63.2920   32.9770   48.8290 N   0  0  0  0  0  0  0  0  0  0  0  0
   64.2590   33.1730   49.8740 C   0  0  0  0  0  0  0  0  0  0  0  0
   65.5560   32.6540   49.7340 C   0  0  0  0  0  0  0  0  0  0  0  0
   66.5060   32.8490   50.7420 C   0  0  0  0  0  0  0  0  0  0  0  0
   66.1670   33.5600   51.8970 C   0  0  0  0  0  0  0  0  0  0  0  0
   67.3590   33.8020   53.1600 Cl  0  0  0  0  0  0  0  0  0  0  0  0
   64.8750   34.0750   52.0450 C   0  0  0  0  0  0  0  0  0  0  0  0
   63.9210   33.8840   51.0400 C   0  0  0  0  0  0  0  0  0  0  0  0
   62.6650   34.3620   51.2170 F   0  0  0  0  0  0  0  0  0  0  0  0
   62.5950   34.1290   48.2490 C   0  0  0  0  0  0  0  0  0  0  0  0
   61.0830   33.8860   48.2820 C   0  0  0  0  0  0  0  0  0  0  0  0
   58.4250   31.4510   45.4160 N   0  0  0  0  0  0  0  0  0  0  0  0
   58.1100   32.7750   44.8640 C   0  0  0  0  0  0  0  0  0  0  0  0
   57.2921   31.0297   43.0621 H   0  0  0  0  0  0  0  0  0  0  0  0
   57.1778   29.1444   43.3127 H   0  0  0  0  0  0  0  0  0  0  0  0
   59.3931   27.3876   45.2863 H   0  0  0  0  0  0  0  0  0  0  0  0
   59.1913   29.3274   47.8285 H   0  0  0  0  0  0  0  0  0  0  0  0
   61.3851   30.5973   47.3007 H   0  0  0  0  0  0  0  0  0  0  0  0
   62.2261   31.9211   46.4127 H   0  0  0  0  0  0  0  0  0  0  0  0
   62.5787   31.0619   49.3204 H   0  0  0  0  0  0  0  0  0  0  0  0
   63.8103   31.1299   47.9926 H   0  0  0  0  0  0  0  0  0  0  0  0
   65.8262   32.0918   48.8280 H   0  0  0  0  0  0  0  0  0  0  0  0
   67.5214   32.4423   50.6257 H   0  0  0  0  0  0  0  0  0  0  0  0
   64.6082   34.6323   52.9551 H   0  0  0  0  0  0  0  0  0  0  0  0
   62.8333   35.0317   48.8307 H   0  0  0  0  0  0  0  0  0  0  0  0
   62.9200   34.2654   47.2070 H   0  0  0  0  0  0  0  0  0  0  0  0
   60.7297   33.9699   49.3203 H   0  0  0  0  0  0  0  0  0  0  0  0
   60.5978   34.6379   47.6423 H   0  0  0  0  0  0  0  0  0  0  0  0
   57.9411   33.4848   45.6872 H   0  0  0  0  0  0  0  0  0  0  0  0
   58.9502   33.1238   44.2457 H   0  0  0  0  0  0  0  0  0  0  0  0
   57.2027   32.7081   44.2457 H   0  0  0  0  0  0  0  0  0  0  0  0
  1  2  2  0
  2  3  1  0
  3  4  2  3
  4  5  1  0
  5  6  1  0
  6  7  1  0
  7  8  2  0
  7  9  1  0
  9 10  1  0
 10 11  1  0
  3 12  1  0
 12 13  2  0
 13 14  1  0
 14 15  2  0
 14 16  1  0
 16 17  1  0
 17 18  1  0
 18 19  1  0
 19 20  1  0
 20 21  2  0
 21 22  1  0
 22 23  2  0
 23 24  1  0
 23 25  1  0
 25 26  2  0
 26 27  1  0
 19 28  1  0
 28 29  1  0
 13 30  1  0
 30 31  1  0
 30  2  1  0
 10  5  2  0
 29 16  1  0
 26 20  1  0
  1 32  1  0
  1 33  1  0
  4 34  1  0
 12 35  1  0
 17 36  1  0
 17 37  1  0
 18 38  1  0
 18 39  1  0
 21 40  1  0
 22 41  1  0
 25 42  1  0
 28 43  1  0
 28 44  1  0
 29 45  1  0
 29 46  1  0
 31 47  1  0
 31 48  1  0
 31 49  1  0
M  CHG  3   6  -1   9  -1  11  -1
M  END
>  <UniqueID>  (30) 
29

>  <SMILES>  (30) 
C=c1c(=Cc2[n-]c(=O)[n-]c2[O-])cc(C(=O)N2CCN(c3ccc(Cl)cc3F)CC2)n1C

>  <Energy>  (30) 
132.239002315513

>  <Genealogy>  (30) 
C=c1c(=Cc2[n-]c(=O)[n-]c2[O-])cc(C(=O)N2CCN(c3ccc(Cl)cc3F)CC2)n1C (protonated)
C=c1c(=Cc2[n-]c(=O)[n-]c2[O-])cc(C(=O)N2CCN(c3ccc(Cl)cc3F)CC2)n1C (3D coordinates assigned)
C=c1c(=Cc2[n-]c(=O)[n-]c2[O-])cc(C(=O)N2CCN(c3ccc(Cl)cc3F)CC2)n1C (nonaromatic ring conformer: 132.239002315513 kcal/mol)

>  <smiles>  (30) 
C=c1c(=Cc2[nH]c(=O)[nH]c2O)cc(C(=O)N2CCN(c3ccc(Cl)cc3F)CC2)n1C

>  <score_type>  (30) 
oracle

>  <origin>  (30) 
adg

>  <m_score__min__energy>  (30) 
-17.34

>  <m_primary>  (30) 
energy

$$$$
30:0
     RDKit          3D

 45 48  0  0  0  0  0  0  0  0999 V2000
   55.2400   26.0550   46.0510 O   0  0  0  0  0  0  0  0  0  0  0  0
   56.3790   25.5180   45.9950 C   0  0  0  0  0  0  0  0  0  0  0  0
   57.4020   26.0550   46.7060 N   0  0  0  0  0  0  0  0  0  0  0  0
   58.6550   25.5240   46.6690 C   0  0  0  0  0  0  0  0  0  0  0  0
   59.7540   26.1010   47.4710 C   0  0  0  0  0  0  0  0  0  0  0  0
   60.3190   27.3020   47.2630 C   0  0  0  0  0  0  0  0  0  0  0  0
   59.6700   28.4210   46.5530 C   0  0  0  0  0  0  0  0  0  0  0  0
   59.2690   29.5560   47.2680 C   0  0  0  0  0  0  0  0  0  0  0  0
   58.6230   30.6090   46.6140 C   0  0  0  0  0  0  0  0  0  0  0  0
   58.3880   30.5450   45.2320 C   0  0  0  0  0  0  0  0  0  0  0  0
   57.5260   31.8510   44.4120 S   0  0  0  0  0  0  0  0  0  0  0  0
   56.0480   31.5920   44.4980 O   0  0  0  0  0  0  0  0  0  0  0  0
   57.9130   31.8580   42.9590 O   0  0  0  0  0  0  0  0  0  0  0  0
   57.8720   33.4200   45.0990 N   0  0  0  0  0  0  0  0  0  0  0  0
   59.2490   33.8430   44.8470 C   0  0  0  0  0  0  0  0  0  0  0  0
   59.6230   34.7990   45.9710 C   0  0  0  0  0  0  0  0  0  0  0  0
   58.5880   34.5670   47.0630 C   0  0  0  0  0  0  0  0  0  0  0  0
   57.7210   33.4290   46.5530 C   0  0  0  0  0  0  0  0  0  0  0  0
   58.8440   29.4360   44.5060 C   0  0  0  0  0  0  0  0  0  0  0  0
   59.4840   28.3810   45.1600 C   0  0  0  0  0  0  0  0  0  0  0  0
   58.8880   24.4060   45.9340 N   0  0  0  0  0  0  0  0  0  0  0  0
   57.9010   23.8240   45.2050 C   0  0  0  0  0  0  0  0  0  0  0  0
   58.1710   22.6780   44.4460 C   0  0  0  0  0  0  0  0  0  0  0  0
   57.1550   22.0820   43.6930 C   0  0  0  0  0  0  0  0  0  0  0  0
   55.8670   22.6260   43.6950 C   0  0  0  0  0  0  0  0  0  0  0  0
   55.5860   23.7680   44.4510 C   0  0  0  0  0  0  0  0  0  0  0  0
   56.6020   24.3750   45.2120 C   0  0  0  0  0  0  0  0  0  0  0  0
   60.1408   25.4983   48.3059 H   0  0  0  0  0  0  0  0  0  0  0  0
   61.3365   27.4624   47.6489 H   0  0  0  0  0  0  0  0  0  0  0  0
   59.4631   29.6193   48.3489 H   0  0  0  0  0  0  0  0  0  0  0  0
   58.2976   31.4912   47.1848 H   0  0  0  0  0  0  0  0  0  0  0  0
   59.9204   32.9717   44.8507 H   0  0  0  0  0  0  0  0  0  0  0  0
   59.3409   34.3300   43.8650 H   0  0  0  0  0  0  0  0  0  0  0  0
   60.6332   34.5762   46.3451 H   0  0  0  0  0  0  0  0  0  0  0  0
   59.6307   35.8453   45.6315 H   0  0  0  0  0  0  0  0  0  0  0  0
   59.0787   34.2854   48.0063 H   0  0  0  0  0  0  0  0  0  0  0  0
   57.9987   35.4723   47.2706 H   0  0  0  0  0  0  0  0  0  0  0  0
   58.0595   32.4722   46.9773 H   0  0  0  0  0  0  0  0  0  0  0  0
   56.6693   33.5647   46.8455 H   0  0  0  0  0  0  0  0  0  0  0  0
   58.6971   29.3965   43.4166 H   0  0  0  0  0  0  0  0  0  0  0  0
   59.8437   27.5160   44.5834 H   0  0  0  0  0  0  0  0  0  0  0  0
   59.1830   22.2468   44.4425 H   0  0  0  0  0  0  0  0  0  0  0  0
   57.3695   21.1825   43.0973 H   0  0  0  0  0  0  0  0  0  0  0  0
   55.0718   22.1537   43.0995 H   0  0  0  0  0  0  0  0  0  0  0  0
   54.5709   24.1918   44.4509 H   0  0  0  0  0  0  0  0  0  0  0  0
  1  2  2  0
  2  3  1  0
  3  4  2  0
  4  5  1  0
  5  6  2  3
  6  7  1  0
  7  8  2  0
  8  9  1  0
  9 10  2  0
 10 11  1  0
 11 12  2  0
 11 13  2  0
 11 14  1  0
 14 15  1  0
 15 16  1  0
 16 17  1  0
 17 18  1  0
 10 19  1  0
 19 20  2  0
  4 21  1  0
 21 22  1  0
 22 23  2  0
 23 24  1  0
 24 25  2  0
 25 26  1  0
 26 27  2  0
 27  2  1  0
 20  7  1  0
 27 22  1  0
 18 14  1  0
  5 28  1  0
  6 29  1  0
  8 30  1  0
  9 31  1  0
 15 32  1  0
 15 33  1  0
 16 34  1  0
 16 35  1  0
 17 36  1  0
 17 37  1  0
 18 38  1  0
 18 39  1  0
 19 40  1  0
 20 41  1  0
 23 42  1  0
 24 43  1  0
 25 44  1  0
 26 45  1  0
M  CHG  1  21  -1
M  END
>  <UniqueID>  (31) 
30

>  <SMILES>  (31) 
O=c1nc(C=Cc2ccc(S(=O)(=O)N3CCCC3)cc2)[n-]c2ccccc12

>  <Energy>  (31) 
60.866991497572286

>  <Genealogy>  (31) 
O=c1nc(C=Cc2ccc(S(=O)(=O)N3CCCC3)cc2)[n-]c2ccccc12 (protonated)
O=c1nc(C=Cc2ccc(S(=O)(=O)N3CCCC3)cc2)[n-]c2ccccc12 (3D coordinates assigned)
O=c1nc(C=Cc2ccc(S(=O)(=O)N3CCCC3)cc2)[n-]c2ccccc12 (nonaromatic ring conformer: 60.866991497572286 kcal/mol)

>  <smiles>  (31) 
O=c1nc(C=Cc2ccc(S(=O)(=O)N3CCCC3)cc2)[nH]c2ccccc12

>  <score_type>  (31) 
oracle

>  <origin>  (31) 
adg

>  <m_score__min__energy>  (31) 
-11.029999999999999

>  <m_primary>  (31) 
energy

$$$$
31:0
     RDKit          3D

 49 52  0  0  0  0  0  0  0  0999 V2000
   55.5010   29.4860   44.9680 O   0  0  0  0  0  0  0  0  0  0  0  0
   56.7340   29.7400   44.8740 C   0  0  0  0  0  0  0  0  0  0  0  0
   57.1960   30.9410   44.2350 N   0  0  0  0  0  0  0  0  0  0  0  0
   57.7750   32.0930   44.8650 C   0  0  0  0  0  0  0  0  0  0  0  0
   57.3860   33.3620   44.4180 C   0  0  0  0  0  0  0  0  0  0  0  0
   57.9540   34.5140   44.9630 C   0  0  0  0  0  0  0  0  0  0  0  0
   58.9270   34.4140   45.9590 C   0  0  0  0  0  0  0  0  0  0  0  0
   59.3180   33.1520   46.4430 C   0  0  0  0  0  0  0  0  0  0  0  0
   60.3060   33.0730   47.4880 N   0  0  0  0  0  0  0  0  0  0  0  0
   61.6980   33.4030   47.3000 C   0  0  0  0  0  0  0  0  0  0  0  0
   62.0910   33.8460   46.1880 O   0  0  0  0  0  0  0  0  0  0  0  0
   62.6720   33.2960   48.4200 C   0  0  0  0  0  0  0  0  0  0  0  0
   63.8050   32.4660   48.3260 C   0  0  0  0  0  0  0  0  0  0  0  0
   64.7020   32.3640   49.3980 C   0  0  0  0  0  0  0  0  0  0  0  0
   64.4860   33.0960   50.5660 C   0  0  0  0  0  0  0  0  0  0  0  0
   63.3770   33.9370   50.6650 C   0  0  0  0  0  0  0  0  0  0  0  0
   62.4750   34.0420   49.5980 C   0  0  0  0  0  0  0  0  0  0  0  0
   58.7210   31.9980   45.9080 C   0  0  0  0  0  0  0  0  0  0  0  0
   57.7140   28.8010   45.4530 C   0  0  0  0  0  0  0  0  0  0  0  0
   57.8570   27.5120   44.9160 C   0  0  0  0  0  0  0  0  0  0  0  0
   58.7040   26.5810   45.5240 C   0  0  0  0  0  0  0  0  0  0  0  0
   59.4430   26.9370   46.6550 C   0  0  0  0  0  0  0  0  0  0  0  0
   60.2840   25.9890   47.2390 O   0  0  0  0  0  0  0  0  0  0  0  0
   59.3460   28.2410   47.1830 C   0  0  0  0  0  0  0  0  0  0  0  0
   60.1560   28.6540   48.3520 C   0  0  0  0  0  0  0  0  0  0  0  0
   60.3590   27.7620   49.4220 C   0  0  0  0  0  0  0  0  0  0  0  0
   61.1060   28.1550   50.5370 C   0  0  0  0  0  0  0  0  0  0  0  0
   61.6580   29.4380   50.5960 C   0  0  0  0  0  0  0  0  0  0  0  0
   62.5870   29.9360   52.0040 Cl  0  0  0  0  0  0  0  0  0  0  0  0
   61.4650   30.3300   49.5370 C   0  0  0  0  0  0  0  0  0  0  0  0
   60.7150   29.9410   48.4200 C   0  0  0  0  0  0  0  0  0  0  0  0
   58.4740   29.1660   46.5780 C   0  0  0  0  0  0  0  0  0  0  0  0
   56.6247   33.4514   43.6290 H   0  0  0  0  0  0  0  0  0  0  0  0
   57.6340   35.5043   44.6067 H   0  0  0  0  0  0  0  0  0  0  0  0
   59.3896   35.3249   46.3668 H   0  0  0  0  0  0  0  0  0  0  0  0
   59.9490   33.0130   48.4670 H   0  0  0  0  0  0  0  0  0  0  0  0
   63.9876   31.8934   47.4047 H   0  0  0  0  0  0  0  0  0  0  0  0
   65.5790   31.7048   49.3183 H   0  0  0  0  0  0  0  0  0  0  0  0
   65.1890   33.0102   51.4077 H   0  0  0  0  0  0  0  0  0  0  0  0
   63.2104   34.5192   51.5833 H   0  0  0  0  0  0  0  0  0  0  0  0
   61.6066   34.7121   49.6811 H   0  0  0  0  0  0  0  0  0  0  0  0
   58.9940   31.0097   46.3065 H   0  0  0  0  0  0  0  0  0  0  0  0
   57.2986   27.2326   44.0104 H   0  0  0  0  0  0  0  0  0  0  0  0
   58.7890   25.5651   45.1108 H   0  0  0  0  0  0  0  0  0  0  0  0
   59.9279   26.7508   49.3808 H   0  0  0  0  0  0  0  0  0  0  0  0
   61.2596   27.4528   51.3697 H   0  0  0  0  0  0  0  0  0  0  0  0
   61.9026   31.3383   49.5811 H   0  0  0  0  0  0  0  0  0  0  0  0
   60.5627   30.6476   47.5908 H   0  0  0  0  0  0  0  0  0  0  0  0
   58.3866   30.1826   46.9889 H   0  0  0  0  0  0  0  0  0  0  0  0
  1  2  2  0
  2  3  1  0
  3  4  1  0
  4  5  2  0
  5  6  1  0
  6  7  2  0
  7  8  1  0
  8  9  1  0
  9 10  1  0
 10 11  2  0
 10 12  1  0
 12 13  2  0
 13 14  1  0
 14 15  2  0
 15 16  1  0
 16 17  2  0
  8 18  2  0
  2 19  1  0
 19 20  2  0
 20 21  1  0
 21 22  2  0
 22 23  1  0
 22 24  1  0
 24 25  1  0
 25 26  2  0
 26 27  1  0
 27 28  2  0
 28 29  1  0
 28 30  1  0
 30 31  2  0
 24 32  2  0
 18  4  1  0
 32 19  1  0
 17 12  1  0
 31 25  1  0
  5 33  1  0
  6 34  1  0
  7 35  1  0
  9 36  1  0
 13 37  1  0
 14 38  1  0
 15 39  1  0
 16 40  1  0
 17 41  1  0
 18 42  1  0
 20 43  1  0
 21 44  1  0
 26 45  1  0
 27 46  1  0
 30 47  1  0
 31 48  1  0
 32 49  1  0
M  CHG  2   3  -1  23  -1
M  END
>  <UniqueID>  (32) 
31

>  <SMILES>  (32) 
O=C([N-]c1cccc(NC(=O)c2ccccc2)c1)c1ccc([O-])c(-c2ccc(Cl)cc2)c1

>  <Energy>  (32) 
73.55865259636704

>  <Genealogy>  (32) 
O=C([N-]c1cccc(NC(=O)c2ccccc2)c1)c1ccc([O-])c(-c2ccc(Cl)cc2)c1 (protonated)
O=C([N-]c1cccc(NC(=O)c2ccccc2)c1)c1ccc([O-])c(-c2ccc(Cl)cc2)c1 (3D coordinates assigned)
O=C([N-]c1cccc(NC(=O)c2ccccc2)c1)c1ccc([O-])c(-c2ccc(Cl)cc2)c1 (optimized conformer: 73.55865259636704 kcal/mol)

>  <smiles>  (32) 
O=C(Nc1cccc(NC(=O)c2ccc(O)c(-c3ccc(Cl)cc3)c2)c1)c1ccccc1

>  <score_type>  (32) 
oracle

>  <origin>  (32) 
adg

>  <m_score__min__energy>  (32) 
-12.949999999999999

>  <m_primary>  (32) 
energy

$$$$
32:0
     RDKit          3D

 47 49  0  0  0  0  0  0  0  0999 V2000
   57.5020   34.1960   46.7300 O   0  0  0  0  0  0  0  0  0  0  0  0
   58.5580   33.7440   46.2020 C   0  0  0  0  0  0  0  0  0  0  0  0
   58.4770   33.0630   44.8570 C   0  0  0  0  0  0  0  0  0  0  0  0
   57.8380   31.7010   44.9490 C   0  0  0  0  0  0  0  0  0  0  0  0
   58.3260   30.7560   45.8650 C   0  0  0  0  0  0  0  0  0  0  0  0
   57.7230   29.4970   45.9680 C   0  0  0  0  0  0  0  0  0  0  0  0
   56.6250   29.1750   45.1600 C   0  0  0  0  0  0  0  0  0  0  0  0
   56.0240   27.9220   45.2460 O   0  0  0  0  0  0  0  0  0  0  0  0
   56.1310   30.1190   44.2500 C   0  0  0  0  0  0  0  0  0  0  0  0
   56.7280   31.3790   44.1510 C   0  0  0  0  0  0  0  0  0  0  0  0
   59.8170   33.9060   46.8890 N   0  0  0  0  0  0  0  0  0  0  0  0
   59.8140   34.0360   48.3550 C   0  0  0  0  0  0  0  0  0  0  0  0
   61.2300   33.9030   48.9430 C   0  0  0  0  0  0  0  0  0  0  0  0
   61.9500   32.8160   48.2620 N   0  0  0  0  0  0  0  0  0  0  0  0
   62.5330   31.7560   49.0340 C   0  0  0  0  0  0  0  0  0  0  0  0
   61.9520   30.6310   49.0640 O   0  0  0  0  0  0  0  0  0  0  0  0
   63.7530   31.9680   49.7810 N   0  0  0  0  0  0  0  0  0  0  0  0
   64.0900   31.0500   50.8750 C   0  0  0  0  0  0  0  0  0  0  0  0
   65.5900   31.1090   51.1910 C   0  0  0  0  0  0  0  0  0  0  0  0
   66.0170   32.4440   51.3600 O   0  0  0  0  0  0  0  0  0  0  0  0
   65.8870   33.1420   50.1390 C   0  0  0  0  0  0  0  0  0  0  0  0
   64.4130   33.2830   49.7520 C   0  0  0  0  0  0  0  0  0  0  0  0
   61.9620   32.7260   46.7960 C   0  0  0  0  0  0  0  0  0  0  0  0
   61.1120   33.8440   46.1840 C   0  0  0  0  0  0  0  0  0  0  0  0
   57.8806   33.6895   44.1775 H   0  0  0  0  0  0  0  0  0  0  0  0
   59.5025   32.9315   44.4814 H   0  0  0  0  0  0  0  0  0  0  0  0
   59.1856   31.0058   46.5043 H   0  0  0  0  0  0  0  0  0  0  0  0
   58.1121   28.7590   46.6849 H   0  0  0  0  0  0  0  0  0  0  0  0
   56.2480   27.1830   44.5920 H   0  0  0  0  0  0  0  0  0  0  0  0
   55.2710   29.8678   43.6118 H   0  0  0  0  0  0  0  0  0  0  0  0
   56.3269   32.1213   43.4453 H   0  0  0  0  0  0  0  0  0  0  0  0
   59.4077   35.0221   48.6243 H   0  0  0  0  0  0  0  0  0  0  0  0
   59.1943   33.2269   48.7689 H   0  0  0  0  0  0  0  0  0  0  0  0
   61.7751   34.8478   48.8008 H   0  0  0  0  0  0  0  0  0  0  0  0
   61.1584   33.6755   50.0168 H   0  0  0  0  0  0  0  0  0  0  0  0
   63.5207   31.3336   51.7725 H   0  0  0  0  0  0  0  0  0  0  0  0
   63.8337   30.0253   50.5679 H   0  0  0  0  0  0  0  0  0  0  0  0
   65.7853   30.5484   52.1171 H   0  0  0  0  0  0  0  0  0  0  0  0
   66.1440   30.6665   50.3500 H   0  0  0  0  0  0  0  0  0  0  0  0
   66.3297   34.1432   50.2463 H   0  0  0  0  0  0  0  0  0  0  0  0
   66.4075   32.5775   49.3513 H   0  0  0  0  0  0  0  0  0  0  0  0
   63.9131   33.9565   50.4637 H   0  0  0  0  0  0  0  0  0  0  0  0
   64.3465   33.6962   48.7347 H   0  0  0  0  0  0  0  0  0  0  0  0
   62.9972   32.8195   46.4358 H   0  0  0  0  0  0  0  0  0  0  0  0
   61.5428   31.7545   46.4953 H   0  0  0  0  0  0  0  0  0  0  0  0
   61.6358   34.8054   46.2903 H   0  0  0  0  0  0  0  0  0  0  0  0
   60.9437   33.6398   45.1163 H   0  0  0  0  0  0  0  0  0  0  0  0
  1  2  2  0
  2  3  1  0
  3  4  1  0
  4  5  2  0
  5  6  1  0
  6  7  2  0
  7  8  1  0
  7  9  1  0
  9 10  2  0
  2 11  1  0
 11 12  1  0
 12 13  1  0
 13 14  1  0
 14 15  1  0
 15 16  2  0
 15 17  1  0
 17 18  1  0
 18 19  1  0
 19 20  1  0
 20 21  1  0
 21 22  1  0
 14 23  1  0
 23 24  1  0
 10  4  1  0
 24 11  1  0
 22 17  1  0
  3 25  1  0
  3 26  1  0
  5 27  1  0
  6 28  1  0
  8 29  1  0
  9 30  1  0
 10 31  1  0
 12 32  1  0
 12 33  1  0
 13 34  1  0
 13 35  1  0
 18 36  1  0
 18 37  1  0
 19 38  1  0
 19 39  1  0
 21 40  1  0
 21 41  1  0
 22 42  1  0
 22 43  1  0
 23 44  1  0
 23 45  1  0
 24 46  1  0
 24 47  1  0
M  END
>  <UniqueID>  (33) 
32

>  <SMILES>  (33) 
O=C(Cc1ccc(O)cc1)N1CCN(C(=O)N2CCOCC2)CC1

>  <Energy>  (33) 
55.170011445903256

>  <Genealogy>  (33) 
O=C(Cc1ccc(O)cc1)N1CCN(C(=O)N2CCOCC2)CC1 (3D coordinates assigned)
O=C(Cc1ccc(O)cc1)N1CCN(C(=O)N2CCOCC2)CC1 (nonaromatic ring conformer: 55.170011445903256 kcal/mol)

>  <smiles>  (33) 
O=C(Cc1ccc(O)cc1)N1CCN(C(=O)N2CCOCC2)CC1

>  <score_type>  (33) 
oracle

>  <origin>  (33) 
adg

>  <m_score__min__energy>  (33) 
-7.7800000000000002

>  <m_primary>  (33) 
energy

$$$$
33:0
     RDKit          3D

 57 61  0  0  0  0  0  0  0  0999 V2000
   57.6474   30.8087   47.3188 H   0  0  0  0  0  0  0  0  0  0  0  0
   58.2110   30.1730   46.6200 C   0  0  0  0  0  0  0  0  0  0  0  0
   59.5500   30.1730   46.6430 C   0  0  0  0  0  0  0  0  0  0  0  0
   60.2880   31.0190   47.6140 C   0  0  0  0  0  0  0  0  0  0  0  0
   61.1110   30.3930   48.5660 C   0  0  0  0  0  0  0  0  0  0  0  0
   61.1462   29.2948   48.6180 H   0  0  0  0  0  0  0  0  0  0  0  0
   61.8840   31.1520   49.4460 C   0  0  0  0  0  0  0  0  0  0  0  0
   62.5225   30.6502   50.1880 H   0  0  0  0  0  0  0  0  0  0  0  0
   61.8490   32.5440   49.3870 C   0  0  0  0  0  0  0  0  0  0  0  0
   62.4668   33.1390   50.0757 H   0  0  0  0  0  0  0  0  0  0  0  0
   61.0300   33.1840   48.4540 C   0  0  0  0  0  0  0  0  0  0  0  0
   61.0071   34.2829   48.4116 H   0  0  0  0  0  0  0  0  0  0  0  0
   60.2350   32.4360   47.5690 C   0  0  0  0  0  0  0  0  0  0  0  0
   59.3270   33.1590   46.6490 C   0  0  0  0  0  0  0  0  0  0  0  0
   59.8410   33.8500   45.5380 C   0  0  0  0  0  0  0  0  0  0  0  0
   60.9245   33.8535   45.3482 H   0  0  0  0  0  0  0  0  0  0  0  0
   58.9800   34.5330   44.6730 C   0  0  0  0  0  0  0  0  0  0  0  0
   59.3882   35.0788   43.8096 H   0  0  0  0  0  0  0  0  0  0  0  0
   57.6020   34.5230   44.9040 C   0  0  0  0  0  0  0  0  0  0  0  0
   56.9264   35.0628   44.2242 H   0  0  0  0  0  0  0  0  0  0  0  0
   57.0820   33.8270   45.9990 C   0  0  0  0  0  0  0  0  0  0  0  0
   55.9968   33.8169   46.1784 H   0  0  0  0  0  0  0  0  0  0  0  0
   57.9390   33.1440   46.8660 C   0  0  0  0  0  0  0  0  0  0  0  0
   57.5249   32.5919   47.7226 H   0  0  0  0  0  0  0  0  0  0  0  0
   60.2950   29.2960   45.6660 C   0  0  0  0  0  0  0  0  0  0  0  0
   60.2923   29.7759   44.6762 H   0  0  0  0  0  0  0  0  0  0  0  0
   61.3262   29.1651   46.0258 H   0  0  0  0  0  0  0  0  0  0  0  0
   59.6320   27.9120   45.5570 C   0  0  0  0  0  0  0  0  0  0  0  0
   59.9816   27.4229   44.6359 H   0  0  0  0  0  0  0  0  0  0  0  0
   59.9119   27.3313   46.4483 H   0  0  0  0  0  0  0  0  0  0  0  0
   58.1600   28.0030   45.5180 N   0  0  0  0  0  0  0  0  0  0  0  0
   57.3850   26.8030   45.3550 C   0  0  0  0  0  0  0  0  0  0  0  0
   56.2460   26.5720   46.1390 C   0  0  0  0  0  0  0  0  0  0  0  0
   55.9406   27.3115   46.8939 H   0  0  0  0  0  0  0  0  0  0  0  0
   55.5180   25.4370   45.9690 N   0  0  0  0  0  0  0  0  0  0  0  0
   55.8410   24.4940   45.0440 C   0  0  0  0  0  0  0  0  0  0  0  0
   55.0870   23.4330   44.9490 N   0  0  0  0  0  0  0  0  0  0  0  0
   54.0750   23.0010   45.8730 C   0  0  0  0  0  0  0  0  0  0  0  0
   52.8960   22.8690   45.4510 O   0  0  0  0  0  0  0  0  0  0  0  0
   54.4040   22.6180   47.2700 C   0  0  0  0  0  0  0  0  0  0  0  0
   55.7450   22.5710   47.6940 C   0  0  0  0  0  0  0  0  0  0  0  0
   56.5497   22.8198   46.9865 H   0  0  0  0  0  0  0  0  0  0  0  0
   56.0630   22.2110   49.0060 C   0  0  0  0  0  0  0  0  0  0  0  0
   57.3590   22.1710   49.4030 F   0  0  0  0  0  0  0  0  0  0  0  0
   55.0480   21.8890   49.9090 C   0  0  0  0  0  0  0  0  0  0  0  0
   55.2995   21.6079   50.9423 H   0  0  0  0  0  0  0  0  0  0  0  0
   53.7140   21.9240   49.5000 C   0  0  0  0  0  0  0  0  0  0  0  0
   52.9161   21.6674   50.2123 H   0  0  0  0  0  0  0  0  0  0  0  0
   53.3870   22.2840   48.1880 C   0  0  0  0  0  0  0  0  0  0  0  0
   52.0800   22.3280   47.8270 F   0  0  0  0  0  0  0  0  0  0  0  0
   56.9890   24.6830   44.2480 C   0  0  0  0  0  0  0  0  0  0  0  0
   57.2814   23.9231   43.5083 H   0  0  0  0  0  0  0  0  0  0  0  0
   57.7520   25.8410   44.4050 C   0  0  0  0  0  0  0  0  0  0  0  0
   58.6441   25.9988   43.7810 H   0  0  0  0  0  0  0  0  0  0  0  0
   57.4820   29.3040   45.6390 C   0  0  0  0  0  0  0  0  0  0  0  0
   57.4649   29.7986   44.6566 H   0  0  0  0  0  0  0  0  0  0  0  0
   56.4532   29.1434   45.9938 H   0  0  0  0  0  0  0  0  0  0  0  0
  1  2  1  0
  2  3  2  0
  3  4  1  0
  4  5  2  0
  5  6  1  0
  5  7  1  0
  7  8  1  0
  7  9  2  0
  9 10  1  0
  9 11  1  0
 11 12  1  0
 11 13  2  0
 13 14  1  0
 14 15  2  0
 15 16  1  0
 15 17  1  0
 17 18  1  0
 17 19  2  0
 19 20  1  0
 19 21  1  0
 21 22  1  0
 21 23  2  0
 23 24  1  0
  3 25  1  0
 25 26  1  0
 25 27  1  0
 25 28  1  0
 28 29  1  0
 28 30  1  0
 28 31  1  0
 31 32  1  0
 32 33  2  0
 33 34  1  0
 33 35  1  0
 35 36  1  0
 36 37  2  0
 37 38  1  0
 38 39  2  0
 38 40  1  0
 40 41  2  0
 41 42  1  0
 41 43  1  0
 43 44  1  0
 43 45  2  0
 45 46  1  0
 45 47  1  0
 47 48  1  0
 47 49  2  0
 49 50  1  0
 36 51  1  0
 51 52  1  0
 51 53  2  0
 53 54  1  0
 31 55  1  0
 55 56  1  0
 55 57  1  0
 55  2  1  0
 13  4  1  0
 23 14  1  0
 53 32  1  0
 49 40  1  0
M  CHG  1  35  -1
M  END
>  <UniqueID>  (34) 
33

>  <SMILES>  (34) 
O=C(/N=c1\ccc(N2CC=C(c3ccccc3-c3ccccc3)CC2)c[n-]1)c1cc(F)ccc1F

>  <Energy>  (34) 
93.22251648388423

>  <Genealogy>  (34) 
O=C(N=c1ccc(N2CC=C(c3ccccc3-c3ccccc3)CC2)c[n-]1)c1cc(F)ccc1F (protonated)
O=C(/N=c1\ccc(N2CC=C(c3ccccc3-c3ccccc3)CC2)c[n-]1)c1cc(F)ccc1F (cis-trans isomerization)
O=C(/N=c1\ccc(N2CC=C(c3ccccc3-c3ccccc3)CC2)c[n-]1)c1cc(F)ccc1F (3D coordinates assigned)
O=C(/N=c1\ccc(N2CC=C(c3ccccc3-c3ccccc3)CC2)c[n-]1)c1cc(F)ccc1F (nonaromatic ring conformer: 93.22251648388423 kcal/mol)

>  <smiles>  (34) 
O=C(N=c1ccc(N2CC=C(c3ccccc3-c3ccccc3)CC2)c[nH]1)c1cc(F)ccc1F

>  <score_type>  (34) 
oracle

>  <origin>  (34) 
adg

>  <m_score__min__energy>  (34) 
-11.92

>  <m_primary>  (34) 
energy

$$$$
34:0
     RDKit          3D

 57 60  0  0  0  0  0  0  0  0999 V2000
   60.0020   27.5330   46.1240 C   0  0  0  0  0  0  0  0  0  0  0  0
   59.0660   28.2090   45.4370 C   0  0  0  0  0  0  0  0  0  0  0  0
   58.0360   27.6400   44.6740 C   0  0  0  0  0  0  0  0  0  0  0  0
   57.7780   26.3230   44.5110 C   0  0  0  0  0  0  0  0  0  0  0  0
   57.2210   25.4220   45.5430 C   0  0  0  0  0  0  0  0  0  0  0  0
   57.7980   24.2970   46.0030 N   0  0  0  0  0  0  0  0  0  0  0  0
   56.9440   23.8710   46.9590 C   0  0  0  0  0  0  0  0  0  0  0  0
   57.1420   22.8230   47.6260 O   0  0  0  0  0  0  0  0  0  0  0  0
   55.8660   24.6600   47.1460 N   0  0  0  0  0  0  0  0  0  0  0  0
   56.0590   25.6390   46.2460 C   0  0  0  0  0  0  0  0  0  0  0  0
   55.1920   26.7110   46.0680 O   0  0  0  0  0  0  0  0  0  0  0  0
   57.3100   28.7020   44.1540 C   0  0  0  0  0  0  0  0  0  0  0  0
   57.9170   29.8570   44.5990 C   0  0  0  0  0  0  0  0  0  0  0  0
   57.3930   31.2360   44.3230 C   0  0  0  0  0  0  0  0  0  0  0  0
   58.9840   29.5680   45.3820 N   0  0  0  0  0  0  0  0  0  0  0  0
   59.8160   30.5600   46.0840 C   0  0  0  0  0  0  0  0  0  0  0  0
   59.3190   30.7660   47.4930 C   0  0  0  0  0  0  0  0  0  0  0  0
   59.1720   29.6720   48.3630 C   0  0  0  0  0  0  0  0  0  0  0  0
   58.7440   29.8700   49.6780 C   0  0  0  0  0  0  0  0  0  0  0  0
   58.4500   31.1600   50.1390 C   0  0  0  0  0  0  0  0  0  0  0  0
   57.9480   31.3950   51.8110 S   0  0  0  0  0  0  0  0  0  0  0  0
   59.1250   31.2290   52.7330 O   0  0  0  0  0  0  0  0  0  0  0  0
   57.4140   32.7920   51.9600 O   0  0  0  0  0  0  0  0  0  0  0  0
   56.7050   30.2370   52.2160 N   0  0  0  0  0  0  0  0  0  0  0  0
   56.9310   29.6490   53.5580 C   0  0  0  0  0  0  0  0  0  0  0  0
   56.0170   30.2600   54.6350 C   0  0  0  0  0  0  0  0  0  0  0  0
   54.5780   30.1350   54.2960 N   0  0  0  0  0  0  0  0  0  0  0  0
   53.9630   28.9850   54.9770 C   0  0  0  0  0  0  0  0  0  0  0  0
   54.3120   30.0770   52.8390 C   0  0  0  0  0  0  0  0  0  0  0  0
   55.3710   30.8520   52.0500 C   0  0  0  0  0  0  0  0  0  0  0  0
   58.5900   32.2520   49.2730 C   0  0  0  0  0  0  0  0  0  0  0  0
   59.0220   32.0570   47.9580 C   0  0  0  0  0  0  0  0  0  0  0  0
   60.7688   28.0795   46.6927 H   0  0  0  0  0  0  0  0  0  0  0  0
   60.0016   26.4330   46.1178 H   0  0  0  0  0  0  0  0  0  0  0  0
   58.0013   25.8843   43.5273 H   0  0  0  0  0  0  0  0  0  0  0  0
   55.1580   27.4650   46.7440 H   0  0  0  0  0  0  0  0  0  0  0  0
   56.4206   28.6351   43.5101 H   0  0  0  0  0  0  0  0  0  0  0  0
   57.1972   31.7512   45.2750 H   0  0  0  0  0  0  0  0  0  0  0  0
   58.1384   31.8028   43.7459 H   0  0  0  0  0  0  0  0  0  0  0  0
   56.4593   31.1647   43.7459 H   0  0  0  0  0  0  0  0  0  0  0  0
   60.8558   30.2025   46.1158 H   0  0  0  0  0  0  0  0  0  0  0  0
   59.7596   31.5167   45.5441 H   0  0  0  0  0  0  0  0  0  0  0  0
   59.3949   28.6554   48.0069 H   0  0  0  0  0  0  0  0  0  0  0  0
   58.6373   29.0092   50.3546 H   0  0  0  0  0  0  0  0  0  0  0  0
   56.7386   28.5672   53.5053 H   0  0  0  0  0  0  0  0  0  0  0  0
   57.9713   29.8633   53.8441 H   0  0  0  0  0  0  0  0  0  0  0  0
   56.2010   29.7433   55.5885 H   0  0  0  0  0  0  0  0  0  0  0  0
   56.2523   31.3323   54.7043 H   0  0  0  0  0  0  0  0  0  0  0  0
   54.0361   29.1217   56.0660 H   0  0  0  0  0  0  0  0  0  0  0  0
   52.9045   28.9103   54.6871 H   0  0  0  0  0  0  0  0  0  0  0  0
   54.4885   28.0632   54.6871 H   0  0  0  0  0  0  0  0  0  0  0  0
   54.3209   29.0260   52.5145 H   0  0  0  0  0  0  0  0  0  0  0  0
   53.3306   30.5349   52.6462 H   0  0  0  0  0  0  0  0  0  0  0  0
   55.1017   30.8464   50.9835 H   0  0  0  0  0  0  0  0  0  0  0  0
   55.4089   31.8834   52.4304 H   0  0  0  0  0  0  0  0  0  0  0  0
   58.3591   33.2668   49.6291 H   0  0  0  0  0  0  0  0  0  0  0  0
   59.1298   32.9196   47.2840 H   0  0  0  0  0  0  0  0  0  0  0  0
  1  2  2  0
  2  3  1  0
  3  4  2  3
  4  5  1  0
  5  6  1  0
  6  7  1  0
  7  8  2  0
  7  9  1  0
  9 10  1  0
 10 11  1  0
  3 12  1  0
 12 13  2  0
 13 14  1  0
 13 15  1  0
 15 16  1  0
 16 17  1  0
 17 18  2  0
 18 19  1  0
 19 20  2  0
 20 21  1  0
 21 22  2  0
 21 23  2  0
 21 24  1  0
 24 25  1  0
 25 26  1  0
 26 27  1  0
 27 28  1  0
 27 29  1  0
 29 30  1  0
 20 31  1  0
 31 32  2  0
 15  2  1  0
 32 17  1  0
 10  5  2  0
 30 24  1  0
  1 33  1  0
  1 34  1  0
  4 35  1  0
 11 36  1  0
 12 37  1  0
 14 38  1  0
 14 39  1  0
 14 40  1  0
 16 41  1  0
 16 42  1  0
 18 43  1  0
 19 44  1  0
 25 45  1  0
 25 46  1  0
 26 47  1  0
 26 48  1  0
 28 49  1  0
 28 50  1  0
 28 51  1  0
 29 52  1  0
 29 53  1  0
 30 54  1  0
 30 55  1  0
 31 56  1  0
 32 57  1  0
M  CHG  2   6  -1   9  -1
M  END
>  <UniqueID>  (35) 
34

>  <SMILES>  (35) 
C=c1c(=Cc2[n-]c(=O)[n-]c2O)cc(C)n1Cc1ccc(S(=O)(=O)N2CCN(C)CC2)cc1

>  <Energy>  (35) 
130.8882845569594

>  <Genealogy>  (35) 
C=c1c(=Cc2[n-]c(=O)[n-]c2O)cc(C)n1Cc1ccc(S(=O)(=O)N2CCN(C)CC2)cc1 (protonated)
C=c1c(=Cc2[n-]c(=O)[n-]c2O)cc(C)n1Cc1ccc(S(=O)(=O)N2CCN(C)CC2)cc1 (3D coordinates assigned)
C=c1c(=Cc2[n-]c(=O)[n-]c2O)cc(C)n1Cc1ccc(S(=O)(=O)N2CCN(C)CC2)cc1 (nonaromatic ring conformer: 130.8882845569594 kcal/mol)

>  <smiles>  (35) 
C=c1c(=Cc2[nH]c(=O)[nH]c2O)cc(C)n1Cc1ccc(S(=O)(=O)N2CCN(C)CC2)cc1

>  <score_type>  (35) 
oracle

>  <origin>  (35) 
adg

>  <m_score__min__energy>  (35) 
-13.42

>  <m_primary>  (35) 
energy

$$$$
35:0
     RDKit          3D

 48 51  0  0  0  0  0  0  0  0999 V2000
   58.8000   27.2620   46.0680 O   0  0  0  0  0  0  0  0  0  0  0  0
   57.7560   27.8360   45.6530 C   0  0  0  0  0  0  0  0  0  0  0  0
   56.6310   27.0510   45.2450 N   0  0  0  0  0  0  0  0  0  0  0  0
   56.1890   25.5650   46.0210 S   0  0  0  0  0  0  0  0  0  0  0  0
   54.6920   25.4400   45.9890 O   0  0  0  0  0  0  0  0  0  0  0  0
   56.6540   25.6100   47.4500 O   0  0  0  0  0  0  0  0  0  0  0  0
   56.9070   24.1750   45.1900 C   0  0  0  0  0  0  0  0  0  0  0  0
   56.1220   23.4520   44.2760 C   0  0  0  0  0  0  0  0  0  0  0  0
   56.6710   22.3670   43.5980 C   0  0  0  0  0  0  0  0  0  0  0  0
   57.9930   22.0040   43.8310 C   0  0  0  0  0  0  0  0  0  0  0  0
   58.7490   22.7310   44.7500 C   0  0  0  0  0  0  0  0  0  0  0  0
   58.2090   23.7900   45.4180 N   0  0  0  0  0  0  0  0  0  0  0  0
   59.0210   24.4390   46.3280 O   0  0  0  0  0  0  0  0  0  0  0  0
   57.6970   29.3140   45.5870 C   0  0  0  0  0  0  0  0  0  0  0  0
   56.9940   29.9560   44.5510 C   0  0  0  0  0  0  0  0  0  0  0  0
   56.9550   31.3500   44.4770 C   0  0  0  0  0  0  0  0  0  0  0  0
   57.6120   32.1300   45.4400 C   0  0  0  0  0  0  0  0  0  0  0  0
   57.6380   33.6300   45.3100 C   0  0  0  0  0  0  0  0  0  0  0  0
   59.2230   34.2050   44.5990 S   0  0  0  0  0  0  0  0  0  0  0  0
   60.1060   34.1950   46.1590 C   0  0  0  0  0  0  0  0  0  0  0  0
   59.4670   34.5960   47.3370 C   0  0  0  0  0  0  0  0  0  0  0  0
   60.1590   34.5310   48.5500 C   0  0  0  0  0  0  0  0  0  0  0  0
   61.4790   34.0630   48.5740 C   0  0  0  0  0  0  0  0  0  0  0  0
   62.1980   33.9680   49.7750 C   0  0  0  0  0  0  0  0  0  0  0  0
   63.5120   33.4870   49.7650 C   0  0  0  0  0  0  0  0  0  0  0  0
   64.1120   33.1010   48.5620 C   0  0  0  0  0  0  0  0  0  0  0  0
   63.4040   33.1960   47.3610 C   0  0  0  0  0  0  0  0  0  0  0  0
   62.0890   33.6770   47.3600 C   0  0  0  0  0  0  0  0  0  0  0  0
   61.3930   33.7570   46.1960 N   0  0  0  0  0  0  0  0  0  0  0  0
   58.3030   31.4940   46.4820 C   0  0  0  0  0  0  0  0  0  0  0  0
   58.3480   30.1000   46.5540 C   0  0  0  0  0  0  0  0  0  0  0  0
   55.0763   23.7425   44.0966 H   0  0  0  0  0  0  0  0  0  0  0  0
   56.0610   21.7988   42.8804 H   0  0  0  0  0  0  0  0  0  0  0  0
   58.4378   21.1521   43.2959 H   0  0  0  0  0  0  0  0  0  0  0  0
   59.7947   22.4464   44.9385 H   0  0  0  0  0  0  0  0  0  0  0  0
   58.7320   25.2600   46.8420 H   0  0  0  0  0  0  0  0  0  0  0  0
   56.4707   29.3548   43.7929 H   0  0  0  0  0  0  0  0  0  0  0  0
   56.4059   31.8391   43.6589 H   0  0  0  0  0  0  0  0  0  0  0  0
   56.8142   33.9477   44.6539 H   0  0  0  0  0  0  0  0  0  0  0  0
   57.5264   34.0686   46.3126 H   0  0  0  0  0  0  0  0  0  0  0  0
   58.4291   34.9593   47.3092 H   0  0  0  0  0  0  0  0  0  0  0  0
   59.6684   34.8464   49.4827 H   0  0  0  0  0  0  0  0  0  0  0  0
   61.7295   34.2711   50.7230 H   0  0  0  0  0  0  0  0  0  0  0  0
   64.0752   33.4122   50.7069 H   0  0  0  0  0  0  0  0  0  0  0  0
   65.1444   32.7215   48.5613 H   0  0  0  0  0  0  0  0  0  0  0  0
   63.8796   32.8930   46.4166 H   0  0  0  0  0  0  0  0  0  0  0  0
   58.8129   32.0973   47.2476 H   0  0  0  0  0  0  0  0  0  0  0  0
   58.8970   29.6133   47.3736 H   0  0  0  0  0  0  0  0  0  0  0  0
  1  2  2  0
  2  3  1  0
  3  4  1  0
  4  5  2  0
  4  6  2  0
  4  7  1  0
  7  8  2  0
  8  9  1  0
  9 10  2  0
 10 11  1  0
 11 12  2  0
 12 13  1  0
  2 14  1  0
 14 15  2  0
 15 16  1  0
 16 17  2  0
 17 18  1  0
 18 19  1  0
 19 20  1  0
 20 21  2  0
 21 22  1  0
 22 23  2  0
 23 24  1  0
 24 25  2  0
 25 26  1  0
 26 27  2  0
 27 28  1  0
 28 29  2  0
 17 30  1  0
 30 31  2  0
 12  7  1  0
 31 14  1  0
 29 20  1  0
 28 23  1  0
  8 32  1  0
  9 33  1  0
 10 34  1  0
 11 35  1  0
 13 36  1  0
 15 37  1  0
 16 38  1  0
 18 39  1  0
 18 40  1  0
 21 41  1  0
 22 42  1  0
 24 43  1  0
 25 44  1  0
 26 45  1  0
 27 46  1  0
 30 47  1  0
 31 48  1  0
M  CHG  2   3  -1  12   1
M  END
>  <UniqueID>  (36) 
35

>  <SMILES>  (36) 
O=C([N-]S(=O)(=O)c1cccc[n+]1O)c1ccc(CSc2ccc3ccccc3n2)cc1

>  <Energy>  (36) 
56.171235536900994

>  <Genealogy>  (36) 
O=C([N-]S(=O)(=O)c1cccc[n+]1O)c1ccc(CSc2ccc3ccccc3n2)cc1 (protonated)
O=C([N-]S(=O)(=O)c1cccc[n+]1O)c1ccc(CSc2ccc3ccccc3n2)cc1 (3D coordinates assigned)
O=C([N-]S(=O)(=O)c1cccc[n+]1O)c1ccc(CSc2ccc3ccccc3n2)cc1 (optimized conformer: 56.171235536900994 kcal/mol)

>  <smiles>  (36) 
O=C(NS(=O)(=O)c1cccc[n+]1[O-])c1ccc(CSc2ccc3ccccc3n2)cc1

>  <score_type>  (36) 
oracle

>  <origin>  (36) 
adg

>  <m_score__min__energy>  (36) 
-10.23

>  <m_primary>  (36) 
energy

$$$$
36:0
     RDKit          3D

 38 40  0  0  0  0  0  0  0  0999 V2000
   62.1190   32.7590   49.0340 H   0  0  0  0  0  0  0  0  0  0  0  0
   61.4170   33.4570   49.2490 O   0  0  0  0  0  0  0  0  0  0  0  0
   60.3860   33.2000   50.1480 C   0  0  0  0  0  0  0  0  0  0  0  0
   59.2340   32.5400   49.7090 C   0  0  0  0  0  0  0  0  0  0  0  0
   59.1475   32.2304   48.6570 H   0  0  0  0  0  0  0  0  0  0  0  0
   58.1920   32.2720   50.6010 C   0  0  0  0  0  0  0  0  0  0  0  0
   57.2881   31.7539   50.2481 H   0  0  0  0  0  0  0  0  0  0  0  0
   58.2950   32.6620   51.9470 C   0  0  0  0  0  0  0  0  0  0  0  0
   57.1960   32.3200   52.9220 C   0  0  0  0  0  0  0  0  0  0  0  0
   56.9731   33.2061   53.5345 H   0  0  0  0  0  0  0  0  0  0  0  0
   57.5400   31.4855   53.5508 H   0  0  0  0  0  0  0  0  0  0  0  0
   55.9120   31.8790   52.1940 C   0  0  0  0  0  0  0  0  0  0  0  0
   56.1215   31.8112   51.1163 H   0  0  0  0  0  0  0  0  0  0  0  0
   55.1316   32.6252   52.4043 H   0  0  0  0  0  0  0  0  0  0  0  0
   55.4180   30.5510   52.6730 N   0  0  0  0  0  0  0  0  0  0  0  0
   56.3240   29.5180   52.8380 C   0  0  0  0  0  0  0  0  0  0  0  0
   57.3710   29.3490   52.0030 C   0  0  0  0  0  0  0  0  0  0  0  0
   57.5427   30.0636   51.1845 H   0  0  0  0  0  0  0  0  0  0  0  0
   58.0525   28.4967   52.1410 H   0  0  0  0  0  0  0  0  0  0  0  0
   56.1210   28.5900   53.8820 C   0  0  0  0  0  0  0  0  0  0  0  0
   56.9720   27.6970   54.1460 O   0  0  0  0  0  0  0  0  0  0  0  0
   54.9890   28.6510   54.6180 N   0  0  0  0  0  0  0  0  0  0  0  0
   54.0060   29.5330   54.3370 C   0  0  0  0  0  0  0  0  0  0  0  0
   52.9470   29.4980   55.0210 O   0  0  0  0  0  0  0  0  0  0  0  0
   54.1680   30.4490   53.2710 C   0  0  0  0  0  0  0  0  0  0  0  0
   53.0990   31.1940   52.8880 C   0  0  0  0  0  0  0  0  0  0  0  0
   52.7741   31.9969   53.5661 H   0  0  0  0  0  0  0  0  0  0  0  0
   52.3390   31.0150   51.6390 C   0  0  0  0  0  0  0  0  0  0  0  0
   52.5530   30.0040   50.7780 N   0  0  0  0  0  0  0  0  0  0  0  0
   51.7380   30.2990   49.7420 C   0  0  0  0  0  0  0  0  0  0  0  0
   51.6430   29.5650   48.7250 O   0  0  0  0  0  0  0  0  0  0  0  0
   51.0400   31.4470   49.8770 N   0  0  0  0  0  0  0  0  0  0  0  0
   51.4430   31.8970   51.0760 C   0  0  0  0  0  0  0  0  0  0  0  0
   51.0140   33.0950   51.6340 O   0  0  0  0  0  0  0  0  0  0  0  0
   59.4520   33.3270   52.3840 C   0  0  0  0  0  0  0  0  0  0  0  0
   59.5398   33.6400   53.4349 H   0  0  0  0  0  0  0  0  0  0  0  0
   60.4930   33.5930   51.4890 C   0  0  0  0  0  0  0  0  0  0  0  0
   61.3979   34.1119   51.8383 H   0  0  0  0  0  0  0  0  0  0  0  0
  1  2  1  0
  2  3  1  0
  3  4  2  0
  4  5  1  0
  4  6  1  0
  6  7  1  0
  6  8  2  0
  8  9  1  0
  9 10  1  0
  9 11  1  0
  9 12  1  0
 12 13  1  0
 12 14  1  0
 12 15  1  0
 15 16  1  0
 16 17  2  0
 17 18  1  0
 17 19  1  0
 16 20  1  0
 20 21  2  0
 20 22  1  0
 22 23  1  0
 23 24  2  0
 23 25  1  0
 25 26  2  0
 26 27  1  0
 26 28  1  0
 28 29  1  0
 29 30  1  0
 30 31  2  0
 30 32  1  0
 32 33  1  0
 33 34  1  0
  8 35  1  0
 35 36  1  0
 35 37  2  0
 37 38  1  0
 37  3  1  0
 25 15  1  0
 33 28  2  0
M  CHG  4  22  -1  29  -1  32  -1  34  -1
M  END
>  <UniqueID>  (37) 
36

>  <SMILES>  (37) 
C=c1c(=O)[n-]c(=O)/c(=C/c2[n-]c(=O)[n-]c2[O-])n1CCc1ccc(O)cc1

>  <Energy>  (37) 
104.34767948775146

>  <Genealogy>  (37) 
C=c1c(=O)[n-]c(=O)c(=Cc2[n-]c(=O)[n-]c2[O-])n1CCc1ccc(O)cc1 (protonated)
C=c1c(=O)[n-]c(=O)/c(=C/c2[n-]c(=O)[n-]c2[O-])n1CCc1ccc(O)cc1 (cis-trans isomerization)
C=c1c(=O)[n-]c(=O)/c(=C/c2[n-]c(=O)[n-]c2[O-])n1CCc1ccc(O)cc1 (3D coordinates assigned)
C=c1c(=O)[n-]c(=O)/c(=C/c2[n-]c(=O)[n-]c2[O-])n1CCc1ccc(O)cc1 (optimized conformer: 104.34767948775146 kcal/mol)

>  <smiles>  (37) 
C=c1c(=O)[nH]c(=O)c(=Cc2[nH]c(=O)[nH]c2O)n1CCc1ccc(O)cc1

>  <score_type>  (37) 
oracle

>  <origin>  (37) 
adg

>  <m_score__min__energy>  (37) 
-15.66

>  <m_primary>  (37) 
energy

$$$$
37:0
     RDKit          3D

 52 54  0  0  0  0  0  0  0  0999 V2000
   57.7900   27.6960   43.1290 C   0  0  0  0  0  0  0  0  0  0  0  0
   58.3670   27.8800   44.3290 C   0  0  0  0  0  0  0  0  0  0  0  0
   58.5830   26.8930   45.3010 C   0  0  0  0  0  0  0  0  0  0  0  0
   58.2790   25.5790   45.2050 C   0  0  0  0  0  0  0  0  0  0  0  0
   57.4860   24.8010   46.1820 C   0  0  0  0  0  0  0  0  0  0  0  0
   57.9070   23.7200   46.8610 N   0  0  0  0  0  0  0  0  0  0  0  0
   56.8210   23.3460   47.5710 C   0  0  0  0  0  0  0  0  0  0  0  0
   56.8250   22.3540   48.3460 O   0  0  0  0  0  0  0  0  0  0  0  0
   55.7290   24.1160   47.3800 N   0  0  0  0  0  0  0  0  0  0  0  0
   56.1660   25.0290   46.4950 C   0  0  0  0  0  0  0  0  0  0  0  0
   55.3730   26.0480   45.9780 O   0  0  0  0  0  0  0  0  0  0  0  0
   59.1420   27.5460   46.3910 C   0  0  0  0  0  0  0  0  0  0  0  0
   59.2640   28.8750   46.0430 C   0  0  0  0  0  0  0  0  0  0  0  0
   59.7760   29.9170   46.9520 C   0  0  0  0  0  0  0  0  0  0  0  0
   59.0020   30.3310   48.0450 C   0  0  0  0  0  0  0  0  0  0  0  0
   59.4890   31.3030   48.9240 C   0  0  0  0  0  0  0  0  0  0  0  0
   60.7560   31.8570   48.7240 C   0  0  0  0  0  0  0  0  0  0  0  0
   61.5510   31.4390   47.6470 C   0  0  0  0  0  0  0  0  0  0  0  0
   62.8900   32.0240   47.4590 C   0  0  0  0  0  0  0  0  0  0  0  0
   63.0500   33.0850   46.7970 O   0  0  0  0  0  0  0  0  0  0  0  0
   61.0560   30.4620   46.7640 C   0  0  0  0  0  0  0  0  0  0  0  0
   58.8050   29.0840   44.7850 N   0  0  0  0  0  0  0  0  0  0  0  0
   58.6320   30.3950   44.1370 C   0  0  0  0  0  0  0  0  0  0  0  0
   57.1520   30.7650   44.0830 C   0  0  0  0  0  0  0  0  0  0  0  0
   56.8320   31.6450   45.2020 N   0  0  0  0  0  0  0  0  0  0  0  0
   57.6520   33.1710   45.0380 S   0  0  0  0  0  0  0  0  0  0  0  0
   56.6500   34.2650   45.2730 O   0  0  0  0  0  0  0  0  0  0  0  0
   58.2000   33.3190   43.6450 O   0  0  0  0  0  0  0  0  0  0  0  0
   58.9680   33.3540   46.2550 C   0  0  0  0  0  0  0  0  0  0  0  0
   58.5180   34.1890   47.4580 C   0  0  0  0  0  0  0  0  0  0  0  0
   60.2240   33.9460   45.6130 C   0  0  0  0  0  0  0  0  0  0  0  0
   57.6702   28.5453   42.4403 H   0  0  0  0  0  0  0  0  0  0  0  0
   57.4377   26.6961   42.8357 H   0  0  0  0  0  0  0  0  0  0  0  0
   58.6546   25.0408   44.3222 H   0  0  0  0  0  0  0  0  0  0  0  0
   55.5040   26.3720   45.0290 H   0  0  0  0  0  0  0  0  0  0  0  0
   59.4322   27.0905   47.3493 H   0  0  0  0  0  0  0  0  0  0  0  0
   58.0083   29.8897   48.2116 H   0  0  0  0  0  0  0  0  0  0  0  0
   58.8737   31.6321   49.7744 H   0  0  0  0  0  0  0  0  0  0  0  0
   61.1321   32.6255   49.4153 H   0  0  0  0  0  0  0  0  0  0  0  0
   63.7647   31.5268   47.9036 H   0  0  0  0  0  0  0  0  0  0  0  0
   61.6759   30.1230   45.9209 H   0  0  0  0  0  0  0  0  0  0  0  0
   59.1768   31.1589   44.7112 H   0  0  0  0  0  0  0  0  0  0  0  0
   59.0268   30.3435   43.1116 H   0  0  0  0  0  0  0  0  0  0  0  0
   56.9372   31.2821   43.1362 H   0  0  0  0  0  0  0  0  0  0  0  0
   56.5421   29.8518   44.1472 H   0  0  0  0  0  0  0  0  0  0  0  0
   59.2137   32.3494   46.6298 H   0  0  0  0  0  0  0  0  0  0  0  0
   58.7967   33.6719   48.3881 H   0  0  0  0  0  0  0  0  0  0  0  0
   59.0078   35.1734   47.4249 H   0  0  0  0  0  0  0  0  0  0  0  0
   57.4265   34.3212   47.4249 H   0  0  0  0  0  0  0  0  0  0  0  0
   60.9187   34.2735   46.4005 H   0  0  0  0  0  0  0  0  0  0  0  0
   60.7111   33.1827   44.9884 H   0  0  0  0  0  0  0  0  0  0  0  0
   59.9453   34.8075   44.9884 H   0  0  0  0  0  0  0  0  0  0  0  0
  1  2  2  0
  2  3  1  0
  3  4  2  3
  4  5  1  0
  5  6  1  0
  6  7  1  0
  7  8  2  0
  7  9  1  0
  9 10  1  0
 10 11  1  0
  3 12  1  0
 12 13  2  0
 13 14  1  0
 14 15  2  0
 15 16  1  0
 16 17  2  0
 17 18  1  0
 18 19  1  0
 19 20  2  0
 18 21  2  0
 13 22  1  0
 22 23  1  0
 23 24  1  0
 24 25  1  0
 25 26  1  0
 26 27  2  0
 26 28  2  0
 26 29  1  0
 29 30  1  0
 29 31  1  0
 22  2  1  0
 10  5  2  0
 21 14  1  0
  1 32  1  0
  1 33  1  0
  4 34  1  0
 11 35  1  0
 12 36  1  0
 15 37  1  0
 16 38  1  0
 17 39  1  0
 19 40  1  0
 21 41  1  0
 23 42  1  0
 23 43  1  0
 24 44  1  0
 24 45  1  0
 29 46  1  0
 30 47  1  0
 30 48  1  0
 30 49  1  0
 31 50  1  0
 31 51  1  0
 31 52  1  0
M  CHG  3   6  -1   9  -1  25  -1
M  END
>  <UniqueID>  (38) 
37

>  <SMILES>  (38) 
C=c1c(=Cc2[n-]c(=O)[n-]c2O)cc(-c2cccc(C=O)c2)n1CC[N-]S(=O)(=O)C(C)C

>  <Energy>  (38) 
109.96051986329154

>  <Genealogy>  (38) 
C=c1c(=Cc2[n-]c(=O)[n-]c2O)cc(-c2cccc(C=O)c2)n1CC[N-]S(=O)(=O)C(C)C (protonated)
C=c1c(=Cc2[n-]c(=O)[n-]c2O)cc(-c2cccc(C=O)c2)n1CC[N-]S(=O)(=O)C(C)C (3D coordinates assigned)
C=c1c(=Cc2[n-]c(=O)[n-]c2O)cc(-c2cccc(C=O)c2)n1CC[N-]S(=O)(=O)C(C)C (optimized conformer: 109.96051986329154 kcal/mol)

>  <smiles>  (38) 
C=c1c(=Cc2[nH]c(=O)[nH]c2O)cc(-c2cccc(C=O)c2)n1CCNS(=O)(=O)C(C)C

>  <score_type>  (38) 
oracle

>  <origin>  (38) 
adg

>  <m_score__min__energy>  (38) 
-14.199999999999999

>  <m_primary>  (38) 
energy

$$$$
38:0
     RDKit          3D

 28 30  0  0  0  0  0  0  0  0999 V2000
   56.3990   30.1740   42.9170 C   0  0  0  0  0  0  0  0  0  0  0  0
   57.0960   30.3610   44.2260 C   0  0  0  0  0  0  0  0  0  0  0  0
   57.3660   31.5580   44.8760 C   0  0  0  0  0  0  0  0  0  0  0  0
   57.0790   32.8180   44.3650 O   0  0  0  0  0  0  0  0  0  0  0  0
   57.9460   31.3680   46.0840 N   0  0  0  0  0  0  0  0  0  0  0  0
   58.0270   30.0280   46.2000 C   0  0  0  0  0  0  0  0  0  0  0  0
   58.5440   29.3190   47.2800 C   0  0  0  0  0  0  0  0  0  0  0  0
   58.5250   27.9130   47.2210 C   0  0  0  0  0  0  0  0  0  0  0  0
   57.9850   27.2440   46.0930 C   0  0  0  0  0  0  0  0  0  0  0  0
   57.9830   25.8070   46.0420 N   0  0  0  0  0  0  0  0  0  0  0  0
   56.9280   24.9680   45.9400 C   0  0  0  0  0  0  0  0  0  0  0  0
   55.5050   25.3670   45.9910 C   0  0  0  0  0  0  0  0  0  0  0  0
   54.6010   24.4920   46.0300 O   0  0  0  0  0  0  0  0  0  0  0  0
   55.1460   26.7080   45.9980 O   0  0  0  0  0  0  0  0  0  0  0  0
   57.4320   23.6780   45.8470 C   0  0  0  0  0  0  0  0  0  0  0  0
   56.7010   22.4950   45.7640 O   0  0  0  0  0  0  0  0  0  0  0  0
   58.7790   23.6970   45.8790 N   0  0  0  0  0  0  0  0  0  0  0  0
   59.0710   25.0070   45.9980 C   0  0  0  0  0  0  0  0  0  0  0  0
   60.2540   25.4380   46.0410 O   0  0  0  0  0  0  0  0  0  0  0  0
   57.4770   27.9940   45.0100 C   0  0  0  0  0  0  0  0  0  0  0  0
   57.5150   29.3850   45.1000 C   0  0  0  0  0  0  0  0  0  0  0  0
   55.3508   29.8928   43.0966 H   0  0  0  0  0  0  0  0  0  0  0  0
   56.4339   31.1133   42.3455 H   0  0  0  0  0  0  0  0  0  0  0  0
   56.8994   29.3783   42.3455 H   0  0  0  0  0  0  0  0  0  0  0  0
   58.9559   29.8427   48.1552 H   0  0  0  0  0  0  0  0  0  0  0  0
   58.9330   27.3272   48.0579 H   0  0  0  0  0  0  0  0  0  0  0  0
   55.6930   22.4730   45.8320 H   0  0  0  0  0  0  0  0  0  0  0  0
   57.0632   27.4955   44.1210 H   0  0  0  0  0  0  0  0  0  0  0  0
  1  2  1  0
  2  3  2  0
  3  4  1  0
  3  5  1  0
  5  6  1  0
  6  7  2  0
  7  8  1  0
  8  9  2  0
  9 10  1  0
 10 11  1  0
 11 12  1  0
 12 13  2  0
 12 14  1  0
 11 15  2  0
 15 16  1  0
 15 17  1  0
 17 18  1  0
 18 19  2  0
  9 20  1  0
 20 21  2  0
 21  2  1  0
 21  6  1  0
 18 10  1  0
  1 22  1  0
  1 23  1  0
  1 24  1  0
  7 25  1  0
  8 26  1  0
 16 27  1  0
 20 28  1  0
M  CHG  4   4  -1   5  -1  14  -1  17  -1
M  END
>  <UniqueID>  (39) 
38

>  <SMILES>  (39) 
Cc1c([O-])[n-]c2ccc(-n3c(C(=O)[O-])c(O)[n-]c3=O)cc12

>  <Energy>  (39) 
102.92730057461284

>  <Genealogy>  (39) 
Cc1c([O-])[n-]c2ccc(-n3c(C(=O)[O-])c(O)[n-]c3=O)cc12 (protonated)
Cc1c([O-])[n-]c2ccc(-n3c(C(=O)[O-])c(O)[n-]c3=O)cc12 (3D coordinates assigned)
Cc1c([O-])[n-]c2ccc(-n3c(C(=O)[O-])c(O)[n-]c3=O)cc12 (optimized conformer: 102.92730057461284 kcal/mol)

>  <smiles>  (39) 
Cc1c(O)[nH]c2ccc(-n3c(C(=O)O)c(O)[nH]c3=O)cc12

>  <score_type>  (39) 
oracle

>  <origin>  (39) 
adg

>  <m_score__min__energy>  (39) 
-14.220000000000001

>  <m_primary>  (39) 
energy

$$$$
39:0
     RDKit          3D

 60 63  0  0  0  0  0  0  0  0999 V2000
   58.9480   34.6270   46.5820 O   0  0  0  0  0  0  0  0  0  0  0  0
   58.9260   33.4940   46.0200 C   0  0  0  0  0  0  0  0  0  0  0  0
   57.7360   33.1040   45.1990 C   0  0  0  0  0  0  0  0  0  0  0  0
   57.2860   31.7810   45.6230 N   0  0  0  0  0  0  0  0  0  0  0  0
   57.1210   30.6890   44.7100 C   0  0  0  0  0  0  0  0  0  0  0  0
   56.3790   30.8250   43.6960 O   0  0  0  0  0  0  0  0  0  0  0  0
   57.8080   29.3990   44.9680 C   0  0  0  0  0  0  0  0  0  0  0  0
   59.2060   29.3040   44.8700 C   0  0  0  0  0  0  0  0  0  0  0  0
   59.8500   28.0830   45.0900 C   0  0  0  0  0  0  0  0  0  0  0  0
   59.1100   26.9470   45.4080 C   0  0  0  0  0  0  0  0  0  0  0  0
   57.7140   27.0250   45.5410 C   0  0  0  0  0  0  0  0  0  0  0  0
   56.8050   25.5830   46.0170 S   0  0  0  0  0  0  0  0  0  0  0  0
   55.3380   25.9030   45.8720 O   0  0  0  0  0  0  0  0  0  0  0  0
   57.0820   25.2760   47.4620 O   0  0  0  0  0  0  0  0  0  0  0  0
   57.1840   24.2080   45.0000 N   0  0  0  0  0  0  0  0  0  0  0  0
   56.7390   24.4460   43.6270 C   0  0  0  0  0  0  0  0  0  0  0  0
   56.5630   23.0820   42.9850 C   0  0  0  0  0  0  0  0  0  0  0  0
   56.3200   22.1370   44.1520 C   0  0  0  0  0  0  0  0  0  0  0  0
   56.4740   22.9910   45.4060 C   0  0  0  0  0  0  0  0  0  0  0  0
   57.0650   28.2520   45.3230 C   0  0  0  0  0  0  0  0  0  0  0  0
   60.0270   32.5760   46.1710 N   0  0  0  0  0  0  0  0  0  0  0  0
   61.2640   32.9080   46.8330 C   0  0  0  0  0  0  0  0  0  0  0  0
   62.1750   33.8160   46.2510 C   0  0  0  0  0  0  0  0  0  0  0  0
   63.3960   34.0820   46.8690 C   0  0  0  0  0  0  0  0  0  0  0  0
   63.7350   33.4290   48.0530 C   0  0  0  0  0  0  0  0  0  0  0  0
   62.8490   32.5090   48.6270 C   0  0  0  0  0  0  0  0  0  0  0  0
   61.6250   32.2310   48.0130 C   0  0  0  0  0  0  0  0  0  0  0  0
   60.7380   31.2810   48.6170 N   0  0  0  0  0  0  0  0  0  0  0  0
   60.7910   29.8950   48.1440 C   0  0  0  0  0  0  0  0  0  0  0  0
   59.8040   28.9770   48.8880 C   0  0  0  0  0  0  0  0  0  0  0  0
   58.5900   29.6460   49.1390 O   0  0  0  0  0  0  0  0  0  0  0  0
   58.8280   30.6710   50.0710 C   0  0  0  0  0  0  0  0  0  0  0  0
   59.6360   31.8020   49.4350 C   0  0  0  0  0  0  0  0  0  0  0  0
   56.9278   33.8351   45.3485 H   0  0  0  0  0  0  0  0  0  0  0  0
   58.0074   33.0831   44.1332 H   0  0  0  0  0  0  0  0  0  0  0  0
   59.7980   30.1964   44.6185 H   0  0  0  0  0  0  0  0  0  0  0  0
   60.9454   28.0193   45.0116 H   0  0  0  0  0  0  0  0  0  0  0  0
   59.6211   25.9842   45.5557 H   0  0  0  0  0  0  0  0  0  0  0  0
   55.7838   24.9915   43.6269 H   0  0  0  0  0  0  0  0  0  0  0  0
   57.4698   25.0536   43.0731 H   0  0  0  0  0  0  0  0  0  0  0  0
   55.7019   23.0832   42.3005 H   0  0  0  0  0  0  0  0  0  0  0  0
   57.4366   22.7876   42.3848 H   0  0  0  0  0  0  0  0  0  0  0  0
   55.3068   21.7121   44.0982 H   0  0  0  0  0  0  0  0  0  0  0  0
   57.0229   21.2909   44.1454 H   0  0  0  0  0  0  0  0  0  0  0  0
   55.4853   23.2469   45.8146 H   0  0  0  0  0  0  0  0  0  0  0  0
   57.0280   22.4509   46.1879 H   0  0  0  0  0  0  0  0  0  0  0  0
   55.9722   28.3194   45.4295 H   0  0  0  0  0  0  0  0  0  0  0  0
   59.9030   31.6020   45.8060 H   0  0  0  0  0  0  0  0  0  0  0  0
   61.9201   34.3162   45.3050 H   0  0  0  0  0  0  0  0  0  0  0  0
   64.0920   34.8073   46.4223 H   0  0  0  0  0  0  0  0  0  0  0  0
   64.7005   33.6368   48.5374 H   0  0  0  0  0  0  0  0  0  0  0  0
   63.1179   32.0027   49.5658 H   0  0  0  0  0  0  0  0  0  0  0  0
   60.5467   29.8792   47.0716 H   0  0  0  0  0  0  0  0  0  0  0  0
   61.8061   29.5166   48.3347 H   0  0  0  0  0  0  0  0  0  0  0  0
   59.6049   28.0874   48.2723 H   0  0  0  0  0  0  0  0  0  0  0  0
   60.2509   28.6851   49.8498 H   0  0  0  0  0  0  0  0  0  0  0  0
   57.8652   31.0691   50.4238 H   0  0  0  0  0  0  0  0  0  0  0  0
   59.4013   30.2570   50.9136 H   0  0  0  0  0  0  0  0  0  0  0  0
   58.9703   32.4023   48.7975 H   0  0  0  0  0  0  0  0  0  0  0  0
   60.0644   32.4160   50.2409 H   0  0  0  0  0  0  0  0  0  0  0  0
  1  2  2  0
  2  3  1  0
  3  4  1  0
  4  5  1  0
  5  6  2  0
  5  7  1  0
  7  8  2  0
  8  9  1  0
  9 10  2  0
 10 11  1  0
 11 12  1  0
 12 13  2  0
 12 14  2  0
 12 15  1  0
 15 16  1  0
 16 17  1  0
 17 18  1  0
 18 19  1  0
 11 20  2  0
  2 21  1  0
 21 22  1  0
 22 23  2  0
 23 24  1  0
 24 25  2  0
 25 26  1  0
 26 27  2  0
 27 28  1  0
 28 29  1  0
 29 30  1  0
 30 31  1  0
 31 32  1  0
 32 33  1  0
 20  7  1  0
 27 22  1  0
 33 28  1  0
 19 15  1  0
  3 34  1  0
  3 35  1  0
  8 36  1  0
  9 37  1  0
 10 38  1  0
 16 39  1  0
 16 40  1  0
 17 41  1  0
 17 42  1  0
 18 43  1  0
 18 44  1  0
 19 45  1  0
 19 46  1  0
 20 47  1  0
 21 48  1  0
 23 49  1  0
 24 50  1  0
 25 51  1  0
 26 52  1  0
 29 53  1  0
 29 54  1  0
 30 55  1  0
 30 56  1  0
 32 57  1  0
 32 58  1  0
 33 59  1  0
 33 60  1  0
M  CHG  1   4  -1
M  END
>  <UniqueID>  (40) 
39

>  <SMILES>  (40) 
O=C(C[N-]C(=O)c1cccc(S(=O)(=O)N2CCCC2)c1)Nc1ccccc1N1CCOCC1

>  <Energy>  (40) 
70.7393803807884

>  <Genealogy>  (40) 
O=C(C[N-]C(=O)c1cccc(S(=O)(=O)N2CCCC2)c1)Nc1ccccc1N1CCOCC1 (protonated)
O=C(C[N-]C(=O)c1cccc(S(=O)(=O)N2CCCC2)c1)Nc1ccccc1N1CCOCC1 (3D coordinates assigned)
O=C(C[N-]C(=O)c1cccc(S(=O)(=O)N2CCCC2)c1)Nc1ccccc1N1CCOCC1 (nonaromatic ring conformer: 70.7393803807884 kcal/mol)

>  <smiles>  (40) 
O=C(CNC(=O)c1cccc(S(=O)(=O)N2CCCC2)c1)Nc1ccccc1N1CCOCC1

>  <score_type>  (40) 
oracle

>  <origin>  (40) 
adg

>  <m_score__min__energy>  (40) 
-11.91

>  <m_primary>  (40) 
energy

$$$$
40:0
     RDKit          3D

 40 42  0  0  0  0  0  0  0  0999 V2000
   52.6480   28.5490   52.8520 C   0  0  0  0  0  0  0  0  0  0  0  0
   53.8930   29.0400   52.9850 C   0  0  0  0  0  0  0  0  0  0  0  0
   54.8400   28.2270   53.5480 N   0  0  0  0  0  0  0  0  0  0  0  0
   56.1650   28.5170   53.5080 C   0  0  0  0  0  0  0  0  0  0  0  0
   56.6200   29.6670   52.8610 C   0  0  0  0  0  0  0  0  0  0  0  0
   58.0640   29.9750   52.7700 C   0  0  0  0  0  0  0  0  0  0  0  0
   58.7040   30.2700   53.8150 O   0  0  0  0  0  0  0  0  0  0  0  0
   58.7480   29.9940   51.5140 N   0  0  0  0  0  0  0  0  0  0  0  0
   60.1170   30.2970   51.0600 C   0  0  0  0  0  0  0  0  0  0  0  0
   59.8190   30.2390   49.5920 C   0  0  0  0  0  0  0  0  0  0  0  0
   59.9750   31.5910   48.8730 C   0  0  0  0  0  0  0  0  0  0  0  0
   58.6220   32.2580   48.6090 C   0  0  0  0  0  0  0  0  0  0  0  0
   58.0540   32.7280   49.8020 O   0  0  0  0  0  0  0  0  0  0  0  0
   58.4330   29.9300   50.0730 C   0  0  0  0  0  0  0  0  0  0  0  0
   55.6750   30.5600   52.3440 C   0  0  0  0  0  0  0  0  0  0  0  0
   54.2930   30.3110   52.4600 C   0  0  0  0  0  0  0  0  0  0  0  0
   53.4550   31.3090   52.0790 C   0  0  0  0  0  0  0  0  0  0  0  0
   52.4160   31.2270   51.0350 C   0  0  0  0  0  0  0  0  0  0  0  0
   52.4550   30.3460   50.0210 N   0  0  0  0  0  0  0  0  0  0  0  0
   51.3890   30.6900   49.2650 C   0  0  0  0  0  0  0  0  0  0  0  0
   51.0770   30.0750   48.2130 O   0  0  0  0  0  0  0  0  0  0  0  0
   50.6920   31.7540   49.7200 N   0  0  0  0  0  0  0  0  0  0  0  0
   51.3610   32.0910   50.8330 C   0  0  0  0  0  0  0  0  0  0  0  0
   51.0350   33.1830   51.6270 O   0  0  0  0  0  0  0  0  0  0  0  0
   51.8571   29.1690   52.4048 H   0  0  0  0  0  0  0  0  0  0  0  0
   52.4206   27.5274   53.1905 H   0  0  0  0  0  0  0  0  0  0  0  0
   54.5650   27.3200   53.9900 H   0  0  0  0  0  0  0  0  0  0  0  0
   56.8863   27.8403   53.9894 H   0  0  0  0  0  0  0  0  0  0  0  0
   60.4608   31.2904   51.3838 H   0  0  0  0  0  0  0  0  0  0  0  0
   60.9220   29.6463   51.4322 H   0  0  0  0  0  0  0  0  0  0  0  0
   60.3638   29.6186   48.8651 H   0  0  0  0  0  0  0  0  0  0  0  0
   60.5842   32.2588   49.4999 H   0  0  0  0  0  0  0  0  0  0  0  0
   60.4588   31.4067   47.9025 H   0  0  0  0  0  0  0  0  0  0  0  0
   58.7658   33.1041   47.9209 H   0  0  0  0  0  0  0  0  0  0  0  0
   57.9438   31.5135   48.1665 H   0  0  0  0  0  0  0  0  0  0  0  0
   57.0690   32.6880   49.6860 H   0  0  0  0  0  0  0  0  0  0  0  0
   57.6980   30.6883   49.7652 H   0  0  0  0  0  0  0  0  0  0  0  0
   57.9696   29.0037   49.7027 H   0  0  0  0  0  0  0  0  0  0  0  0
   56.0176   31.4742   51.8372 H   0  0  0  0  0  0  0  0  0  0  0  0
   53.5611   32.2723   52.5994 H   0  0  0  0  0  0  0  0  0  0  0  0
  1  2  2  0
  2  3  1  0
  3  4  2  0
  4  5  1  0
  5  6  1  0
  6  7  2  0
  6  8  1  0
  8  9  1  0
  9 10  1  0
 10 11  1  0
 11 12  1  0
 12 13  1  0
 10 14  1  0
  5 15  2  0
 15 16  1  0
 16 17  2  3
 17 18  1  0
 18 19  1  0
 19 20  1  0
 20 21  2  0
 20 22  1  0
 22 23  1  0
 23 24  1  0
 16  2  1  0
 23 18  2  0
 14  8  1  0
  1 25  1  0
  1 26  1  0
  3 27  1  0
  4 28  1  0
  9 29  1  0
  9 30  1  0
 10 31  1  0
 11 32  1  0
 11 33  1  0
 12 34  1  0
 12 35  1  0
 13 36  1  0
 14 37  1  0
 14 38  1  0
 15 39  1  0
 17 40  1  0
M  CHG  4   3   1  19  -1  22  -1  24  -1
M  END
>  <UniqueID>  (41) 
40

>  <SMILES>  (41) 
C=c1[nH+]cc(C(=O)N2CC(CCO)C2)cc1=Cc1[n-]c(=O)[n-]c1[O-]

>  <Energy>  (41) 
136.581193953485

>  <Genealogy>  (41) 
C=c1[nH+]cc(C(=O)N2CC(CCO)C2)cc1=Cc1[n-]c(=O)[n-]c1[O-] (protonated)
C=c1[nH+]cc(C(=O)N2CC(CCO)C2)cc1=Cc1[n-]c(=O)[n-]c1[O-] (3D coordinates assigned)
C=c1[nH+]cc(C(=O)N2CC(CCO)C2)cc1=Cc1[n-]c(=O)[n-]c1[O-] (nonaromatic ring conformer: 136.581193953485 kcal/mol)

>  <smiles>  (41) 
C=c1ncc(C(=O)N2CC(CCO)C2)cc1=Cc1[nH]c(=O)[nH]c1O

>  <score_type>  (41) 
oracle

>  <origin>  (41) 
adg

>  <m_score__min__energy>  (41) 
-14.83

>  <m_primary>  (41) 
energy

$$$$
41:0
     RDKit          3D

 57 60  0  0  0  0  0  0  0  0999 V2000
   54.5630   28.2240   53.1010 C   0  0  0  0  0  0  0  0  0  0  0  0
   55.0760   29.4480   52.8890 C   0  0  0  0  0  0  0  0  0  0  0  0
   54.3680   30.6060   52.5300 C   0  0  0  0  0  0  0  0  0  0  0  0
   53.0460   30.8570   52.4710 C   0  0  0  0  0  0  0  0  0  0  0  0
   52.2720   31.1030   51.2450 C   0  0  0  0  0  0  0  0  0  0  0  0
   52.2400   30.2820   50.1800 N   0  0  0  0  0  0  0  0  0  0  0  0
   51.3090   30.8450   49.3790 C   0  0  0  0  0  0  0  0  0  0  0  0
   51.0010   30.3670   48.2570 O   0  0  0  0  0  0  0  0  0  0  0  0
   50.7290   31.9570   49.8790 N   0  0  0  0  0  0  0  0  0  0  0  0
   51.3400   32.0980   51.0680 C   0  0  0  0  0  0  0  0  0  0  0  0
   51.0540   33.1110   51.9750 O   0  0  0  0  0  0  0  0  0  0  0  0
   55.3200   31.5640   52.2320 C   0  0  0  0  0  0  0  0  0  0  0  0
   56.5560   30.9940   52.4670 C   0  0  0  0  0  0  0  0  0  0  0  0
   57.8360   31.7270   52.3630 C   0  0  0  0  0  0  0  0  0  0  0  0
   58.3170   32.2710   53.3930 O   0  0  0  0  0  0  0  0  0  0  0  0
   58.5180   31.8640   51.1010 N   0  0  0  0  0  0  0  0  0  0  0  0
   59.4320   32.9890   50.8810 C   0  0  0  0  0  0  0  0  0  0  0  0
   59.3690   33.4110   49.4120 C   0  0  0  0  0  0  0  0  0  0  0  0
   59.6570   32.2910   48.4780 N   0  0  0  0  0  0  0  0  0  0  0  0
   59.0430   32.4090   47.1280 C   0  0  0  0  0  0  0  0  0  0  0  0
   58.8020   31.0450   46.4320 C   0  0  0  0  0  0  0  0  0  0  0  0
   57.7070   31.1530   45.3570 C   0  0  0  0  0  0  0  0  0  0  0  0
   57.6890   32.4500   44.7960 O   0  0  0  0  0  0  0  0  0  0  0  0
   57.1610   33.3870   45.7260 C   0  0  0  0  0  0  0  0  0  0  0  0
   57.7490   33.2470   47.1510 C   0  0  0  0  0  0  0  0  0  0  0  0
   59.5720   30.9270   49.0550 C   0  0  0  0  0  0  0  0  0  0  0  0
   58.4580   30.7850   50.1040 C   0  0  0  0  0  0  0  0  0  0  0  0
   56.4130   29.7070   52.8670 N   0  0  0  0  0  0  0  0  0  0  0  0
   57.5060   28.7660   53.1560 C   0  0  0  0  0  0  0  0  0  0  0  0
   58.1010   29.0440   54.5340 C   0  0  0  0  0  0  0  0  0  0  0  0
   55.2250   27.3909   53.3796 H   0  0  0  0  0  0  0  0  0  0  0  0
   53.4811   28.0553   52.9960 H   0  0  0  0  0  0  0  0  0  0  0  0
   52.4969   30.8800   53.4239 H   0  0  0  0  0  0  0  0  0  0  0  0
   51.4220   33.0790   52.9170 H   0  0  0  0  0  0  0  0  0  0  0  0
   55.1289   32.5868   51.8752 H   0  0  0  0  0  0  0  0  0  0  0  0
   59.1349   33.8342   51.5193 H   0  0  0  0  0  0  0  0  0  0  0  0
   60.4585   32.6849   51.1336 H   0  0  0  0  0  0  0  0  0  0  0  0
   58.3604   33.7952   49.1996 H   0  0  0  0  0  0  0  0  0  0  0  0
   60.1399   34.1798   49.2549 H   0  0  0  0  0  0  0  0  0  0  0  0
   59.7895   32.9422   46.5209 H   0  0  0  0  0  0  0  0  0  0  0  0
   59.7380   30.7139   45.9584 H   0  0  0  0  0  0  0  0  0  0  0  0
   58.4732   30.3204   47.1915 H   0  0  0  0  0  0  0  0  0  0  0  0
   57.9057   30.4181   44.5630 H   0  0  0  0  0  0  0  0  0  0  0  0
   56.7307   30.9539   45.8230 H   0  0  0  0  0  0  0  0  0  0  0  0
   57.3779   34.4009   45.3587 H   0  0  0  0  0  0  0  0  0  0  0  0
   56.0814   33.1908   45.8027 H   0  0  0  0  0  0  0  0  0  0  0  0
   57.9741   34.2477   47.5484 H   0  0  0  0  0  0  0  0  0  0  0  0
   57.0108   32.7394   47.7893 H   0  0  0  0  0  0  0  0  0  0  0  0
   59.3788   30.2136   48.2403 H   0  0  0  0  0  0  0  0  0  0  0  0
   60.5273   30.7248   49.5614 H   0  0  0  0  0  0  0  0  0  0  0  0
   57.4825   30.8204   49.5969 H   0  0  0  0  0  0  0  0  0  0  0  0
   58.5934   29.8254   50.6244 H   0  0  0  0  0  0  0  0  0  0  0  0
   57.1147   27.7382   53.1314 H   0  0  0  0  0  0  0  0  0  0  0  0
   58.2926   28.8908   52.3973 H   0  0  0  0  0  0  0  0  0  0  0  0
   57.3957   28.7145   55.3112 H   0  0  0  0  0  0  0  0  0  0  0  0
   59.0482   28.4952   54.6419 H   0  0  0  0  0  0  0  0  0  0  0  0
   58.2878   30.1226   54.6419 H   0  0  0  0  0  0  0  0  0  0  0  0
  1  2  2  0
  2  3  1  0
  3  4  2  3
  4  5  1  0
  5  6  1  0
  6  7  1  0
  7  8  2  0
  7  9  1  0
  9 10  1  0
 10 11  1  0
  3 12  1  0
 12 13  2  0
 13 14  1  0
 14 15  2  0
 14 16  1  0
 16 17  1  0
 17 18  1  0
 18 19  1  0
 19 20  1  0
 20 21  1  0
 21 22  1  0
 22 23  1  0
 23 24  1  0
 24 25  1  0
 19 26  1  0
 26 27  1  0
 13 28  1  0
 28 29  1  0
 29 30  1  0
 28  2  1  0
 10  5  2  0
 27 16  1  0
 25 20  1  0
  1 31  1  0
  1 32  1  0
  4 33  1  0
 11 34  1  0
 12 35  1  0
 17 36  1  0
 17 37  1  0
 18 38  1  0
 18 39  1  0
 20 40  1  0
 21 41  1  0
 21 42  1  0
 22 43  1  0
 22 44  1  0
 24 45  1  0
 24 46  1  0
 25 47  1  0
 25 48  1  0
 26 49  1  0
 26 50  1  0
 27 51  1  0
 27 52  1  0
 29 53  1  0
 29 54  1  0
 30 55  1  0
 30 56  1  0
 30 57  1  0
M  CHG  2   6  -1   9  -1
M  END
>  <UniqueID>  (42) 
41

>  <SMILES>  (42) 
C=c1c(=Cc2[n-]c(=O)[n-]c2O)cc(C(=O)N2CCN(C3CCOCC3)CC2)n1CC

>  <Energy>  (42) 
147.944663579479

>  <Genealogy>  (42) 
C=c1c(=Cc2[n-]c(=O)[n-]c2O)cc(C(=O)N2CCN(C3CCOCC3)CC2)n1CC (protonated)
C=c1c(=Cc2[n-]c(=O)[n-]c2O)cc(C(=O)N2CCN(C3CCOCC3)CC2)n1CC (3D coordinates assigned)
C=c1c(=Cc2[n-]c(=O)[n-]c2O)cc(C(=O)N2CCN(C3CCOCC3)CC2)n1CC (nonaromatic ring conformer: 147.944663579479 kcal/mol)

>  <smiles>  (42) 
C=c1c(=Cc2[nH]c(=O)[nH]c2O)cc(C(=O)N2CCN(C3CCOCC3)CC2)n1CC

>  <score_type>  (42) 
oracle

>  <origin>  (42) 
adg

>  <m_score__min__energy>  (42) 
-14.08

>  <m_primary>  (42) 
energy

$$$$
42:0
     RDKit          3D

 48 50  0  0  0  0  0  0  0  0999 V2000
   59.5420   32.9400   48.5340 C   0  0  0  0  0  0  0  0  0  0  0  0
   59.4210   33.7470   47.2670 C   0  0  0  0  0  0  0  0  0  0  0  0
   60.0150   35.0230   47.2120 C   0  0  0  0  0  0  0  0  0  0  0  0
   59.9390   35.7930   46.0510 C   0  0  0  0  0  0  0  0  0  0  0  0
   59.2710   35.3040   44.9280 C   0  0  0  0  0  0  0  0  0  0  0  0
   58.6730   34.0440   44.9610 C   0  0  0  0  0  0  0  0  0  0  0  0
   58.7470   33.2470   46.1190 C   0  0  0  0  0  0  0  0  0  0  0  0
   58.0530   31.9020   46.1120 C   0  0  0  0  0  0  0  0  0  0  0  0
   57.5840   31.5470   44.7320 C   0  0  0  0  0  0  0  0  0  0  0  0
   58.4090   31.4690   43.7810 O   0  0  0  0  0  0  0  0  0  0  0  0
   56.1900   31.3240   44.4940 N   0  0  0  0  0  0  0  0  0  0  0  0
   55.6800   30.0860   43.9230 C   0  0  0  0  0  0  0  0  0  0  0  0
   56.4580   28.9300   44.4680 C   0  0  0  0  0  0  0  0  0  0  0  0
   55.9000   28.1360   45.2780 O   0  0  0  0  0  0  0  0  0  0  0  0
   57.8080   28.7040   44.0260 N   0  0  0  0  0  0  0  0  0  0  0  0
   58.6410   27.6060   44.5260 C   0  0  2  0  0  0  0  0  0  0  0  0
   57.8100   26.3150   44.5340 C   0  0  0  0  0  0  0  0  0  0  0  0
   58.5380   25.2020   45.2870 C   0  0  0  0  0  0  0  0  0  0  0  0
   58.6960   25.5920   46.7600 C   0  0  0  0  0  0  0  0  0  0  0  0
   59.2830   26.9740   46.9270 C   0  0  0  0  0  0  0  0  0  0  0  0
   59.8530   27.3200   48.1640 C   0  0  0  0  0  0  0  0  0  0  0  0
   60.3790   28.5960   48.3710 C   0  0  0  0  0  0  0  0  0  0  0  0
   60.3370   29.5440   47.3490 C   0  0  0  0  0  0  0  0  0  0  0  0
   59.7600   29.2210   46.1190 C   0  0  0  0  0  0  0  0  0  0  0  0
   59.1970   27.9490   45.9000 C   0  0  0  0  0  0  0  0  0  0  0  0
   59.4422   33.6059   49.4038 H   0  0  0  0  0  0  0  0  0  0  0  0
   58.7479   32.1793   48.5615 H   0  0  0  0  0  0  0  0  0  0  0  0
   60.5243   32.4457   48.5615 H   0  0  0  0  0  0  0  0  0  0  0  0
   60.5438   35.4161   48.0928 H   0  0  0  0  0  0  0  0  0  0  0  0
   60.4069   36.7881   46.0210 H   0  0  0  0  0  0  0  0  0  0  0  0
   59.2157   35.9136   44.0140 H   0  0  0  0  0  0  0  0  0  0  0  0
   58.1392   33.6702   44.0748 H   0  0  0  0  0  0  0  0  0  0  0  0
   58.7565   31.1323   46.4621 H   0  0  0  0  0  0  0  0  0  0  0  0
   57.1783   31.9552   46.7769 H   0  0  0  0  0  0  0  0  0  0  0  0
   54.6182   29.9705   44.1862 H   0  0  0  0  0  0  0  0  0  0  0  0
   55.7843   30.1158   42.8284 H   0  0  0  0  0  0  0  0  0  0  0  0
   58.2080   29.3410   43.2980 H   0  0  0  0  0  0  0  0  0  0  0  0
   59.5069   27.4506   43.8657 H   0  0  0  0  0  0  0  0  0  0  0  0
   56.8454   26.5107   45.0251 H   0  0  0  0  0  0  0  0  0  0  0  0
   57.6534   25.9916   43.4943 H   0  0  0  0  0  0  0  0  0  0  0  0
   57.9561   24.2712   45.2157 H   0  0  0  0  0  0  0  0  0  0  0  0
   59.5325   25.0513   44.8417 H   0  0  0  0  0  0  0  0  0  0  0  0
   57.7069   25.5673   47.2406 H   0  0  0  0  0  0  0  0  0  0  0  0
   59.3869   24.8741   47.2261 H   0  0  0  0  0  0  0  0  0  0  0  0
   59.8849   26.5787   48.9761 H   0  0  0  0  0  0  0  0  0  0  0  0
   60.8274   28.8544   49.3417 H   0  0  0  0  0  0  0  0  0  0  0  0
   60.7587   30.5468   47.5119 H   0  0  0  0  0  0  0  0  0  0  0  0
   59.7451   29.9686   45.3122 H   0  0  0  0  0  0  0  0  0  0  0  0
  1  2  1  0
  2  3  2  0
  3  4  1  0
  4  5  2  0
  5  6  1  0
  6  7  2  0
  7  8  1  0
  8  9  1  0
  9 10  2  0
  9 11  1  0
 11 12  1  0
 12 13  1  0
 13 14  2  0
 13 15  1  0
 15 16  1  0
 16 17  1  0
 17 18  1  0
 18 19  1  0
 19 20  1  0
 20 21  2  0
 21 22  1  0
 22 23  2  0
 23 24  1  0
 24 25  2  0
  7  2  1  0
 25 16  1  0
 25 20  1  0
  1 26  1  0
  1 27  1  0
  1 28  1  0
  3 29  1  0
  4 30  1  0
  5 31  1  0
  6 32  1  0
  8 33  1  0
  8 34  1  0
 12 35  1  0
 12 36  1  0
 15 37  1  0
 16 38  1  6
 17 39  1  0
 17 40  1  0
 18 41  1  0
 18 42  1  0
 19 43  1  0
 19 44  1  0
 21 45  1  0
 22 46  1  0
 23 47  1  0
 24 48  1  0
M  CHG  1  11  -1
M  END
>  <UniqueID>  (43) 
42

>  <SMILES>  (43) 
Cc1ccccc1CC(=O)[N-]CC(=O)N[C@@H]1CCCc2ccccc21

>  <Energy>  (43) 
44.73585988951353

>  <Genealogy>  (43) 
Cc1ccccc1CC(=O)[N-]CC(=O)NC1CCCc2ccccc21 (protonated)
Cc1ccccc1CC(=O)[N-]CC(=O)N[C@@H]1CCCc2ccccc21 (chirality)
Cc1ccccc1CC(=O)[N-]CC(=O)N[C@@H]1CCCc2ccccc21 (3D coordinates assigned)
Cc1ccccc1CC(=O)[N-]CC(=O)N[C@@H]1CCCc2ccccc21 (nonaromatic ring conformer: 44.73585988951353 kcal/mol)

>  <smiles>  (43) 
Cc1ccccc1CC(=O)NCC(=O)NC1CCCc2ccccc21

>  <score_type>  (43) 
oracle

>  <origin>  (43) 
adg

>  <m_score__min__energy>  (43) 
-11.4

>  <m_primary>  (43) 
energy

$$$$
43:0
     RDKit          3D

 38 40  0  0  0  0  0  0  0  0999 V2000
   57.9700   31.7190   52.1060 O   0  0  0  0  0  0  0  0  0  0  0  0
   57.5530   30.6230   51.6440 C   0  0  0  0  0  0  0  0  0  0  0  0
   58.4430   29.7970   50.7660 C   0  0  0  0  0  0  0  0  0  0  0  0
   58.5790   30.4420   49.4180 C   0  0  0  0  0  0  0  0  0  0  0  0
   58.9270   31.7810   49.2360 C   0  0  0  0  0  0  0  0  0  0  0  0
   58.9490   32.0920   47.5790 S   0  0  0  0  0  0  0  0  0  0  0  0
   58.5270   30.5180   47.1740 C   0  0  0  0  0  0  0  0  0  0  0  0
   58.3500   30.1070   45.9550 N   0  0  0  0  0  0  0  0  0  0  0  0
   57.1820   29.4270   45.4630 C   0  0  0  0  0  0  0  0  0  0  0  0
   56.2740   30.0510   44.8430 O   0  0  0  0  0  0  0  0  0  0  0  0
   57.0410   27.9830   45.6900 C   0  0  0  0  0  0  0  0  0  0  0  0
   58.0630   27.1090   46.0070 C   0  0  0  0  0  0  0  0  0  0  0  0
   57.4650   25.8710   46.1270 C   0  0  0  0  0  0  0  0  0  0  0  0
   56.1190   26.0650   45.8770 C   0  0  0  0  0  0  0  0  0  0  0  0
   55.8980   27.3350   45.6200 O   0  0  0  0  0  0  0  0  0  0  0  0
   58.3660   29.7430   48.2680 N   0  0  0  0  0  0  0  0  0  0  0  0
   56.2110   30.1890   51.9070 N   0  0  0  0  0  0  0  0  0  0  0  0
   55.2190   31.0760   52.5140 C   0  0  0  0  0  0  0  0  0  0  0  0
   53.9130   30.9910   51.7690 C   0  0  0  0  0  0  0  0  0  0  0  0
   53.6700   29.9200   50.8900 C   0  0  0  0  0  0  0  0  0  0  0  0
   52.4270   29.7980   50.2550 C   0  0  0  0  0  0  0  0  0  0  0  0
   51.4190   30.7360   50.5030 C   0  0  0  0  0  0  0  0  0  0  0  0
   51.6500   31.7970   51.3850 C   0  0  0  0  0  0  0  0  0  0  0  0
   50.6420   32.7260   51.6330 O   0  0  0  0  0  0  0  0  0  0  0  0
   52.8920   31.9220   52.0230 C   0  0  0  0  0  0  0  0  0  0  0  0
   59.4363   29.7128   51.2310 H   0  0  0  0  0  0  0  0  0  0  0  0
   58.0012   28.7971   50.6440 H   0  0  0  0  0  0  0  0  0  0  0  0
   59.1481   32.5060   50.0332 H   0  0  0  0  0  0  0  0  0  0  0  0
   59.1286   27.3492   46.1364 H   0  0  0  0  0  0  0  0  0  0  0  0
   57.9602   24.9199   46.3725 H   0  0  0  0  0  0  0  0  0  0  0  0
   55.3511   25.2775   45.8910 H   0  0  0  0  0  0  0  0  0  0  0  0
   55.9300   29.2270   51.6020 H   0  0  0  0  0  0  0  0  0  0  0  0
   55.0591   30.7784   53.5609 H   0  0  0  0  0  0  0  0  0  0  0  0
   55.5896   32.1106   52.4675 H   0  0  0  0  0  0  0  0  0  0  0  0
   54.4580   29.1762   50.7006 H   0  0  0  0  0  0  0  0  0  0  0  0
   52.2436   28.9644   49.5612 H   0  0  0  0  0  0  0  0  0  0  0  0
   50.4436   30.6391   50.0038 H   0  0  0  0  0  0  0  0  0  0  0  0
   53.0676   32.7511   52.7242 H   0  0  0  0  0  0  0  0  0  0  0  0
  1  2  2  0
  2  3  1  0
  3  4  1  0
  4  5  2  0
  5  6  1  0
  6  7  1  0
  7  8  2  3
  8  9  1  0
  9 10  2  0
  9 11  1  0
 11 12  2  0
 12 13  1  0
 13 14  2  0
 14 15  1  0
  7 16  1  0
  2 17  1  0
 17 18  1  0
 18 19  1  0
 19 20  2  0
 20 21  1  0
 21 22  2  0
 22 23  1  0
 23 24  1  0
 23 25  2  0
 16  4  1  0
 25 19  1  0
 15 11  1  0
  3 26  1  0
  3 27  1  0
  5 28  1  0
 12 29  1  0
 13 30  1  0
 14 31  1  0
 17 32  1  0
 18 33  1  0
 18 34  1  0
 20 35  1  0
 21 36  1  0
 22 37  1  0
 25 38  1  0
M  CHG  2  16  -1  24  -1
M  END
>  <UniqueID>  (44) 
43

>  <SMILES>  (44) 
O=C(Cc1csc(=NC(=O)c2ccco2)[n-]1)NCc1cccc([O-])c1

>  <Energy>  (44) 
90.81588018139729

>  <Genealogy>  (44) 
O=C(Cc1csc(=NC(=O)c2ccco2)[n-]1)NCc1cccc([O-])c1 (protonated)
O=C(Cc1csc(=NC(=O)c2ccco2)[n-]1)NCc1cccc([O-])c1 (3D coordinates assigned)
O=C(Cc1csc(=NC(=O)c2ccco2)[n-]1)NCc1cccc([O-])c1 (optimized conformer: 90.81588018139729 kcal/mol)

>  <smiles>  (44) 
O=C(Cc1csc(=NC(=O)c2ccco2)[nH]1)NCc1cccc(O)c1

>  <score_type>  (44) 
oracle

>  <origin>  (44) 
adg

>  <m_score__min__energy>  (44) 
-13.289999999999999

>  <m_primary>  (44) 
energy

$$$$
44:0
     RDKit          3D

 50 53  0  0  0  0  0  0  0  0999 V2000
   58.1256   31.4444   44.5072 H   0  0  0  0  0  0  0  0  0  0  0  0
   57.9290   30.3780   44.6920 C   0  0  0  0  0  0  0  0  0  0  0  0
   57.3731   29.7847   43.9511 H   0  0  0  0  0  0  0  0  0  0  0  0
   58.3680   29.8000   45.8230 C   0  0  0  0  0  0  0  0  0  0  0  0
   58.1890   28.4540   46.1870 C   0  0  0  0  0  0  0  0  0  0  0  0
   57.7740   27.3910   45.4710 C   0  0  0  0  0  0  0  0  0  0  0  0
   57.8455   27.4639   44.3758 H   0  0  0  0  0  0  0  0  0  0  0  0
   57.2330   26.1400   46.0280 C   0  0  0  0  0  0  0  0  0  0  0  0
   57.9790   25.1320   46.5190 N   0  0  0  0  0  0  0  0  0  0  0  0
   57.0590   24.2840   47.0280 C   0  0  0  0  0  0  0  0  0  0  0  0
   57.3720   23.1930   47.5730 O   0  0  0  0  0  0  0  0  0  0  0  0
   55.7790   24.7010   46.9170 N   0  0  0  0  0  0  0  0  0  0  0  0
   55.9110   25.8840   46.2950 C   0  0  0  0  0  0  0  0  0  0  0  0
   54.8420   26.7140   45.9810 O   0  0  0  0  0  0  0  0  0  0  0  0
   58.5490   28.3610   47.5160 C   0  0  0  0  0  0  0  0  0  0  0  0
   58.4766   27.4668   48.1525 H   0  0  0  0  0  0  0  0  0  0  0  0
   59.0160   29.6000   47.8940 C   0  0  0  0  0  0  0  0  0  0  0  0
   59.4920   29.9060   49.2550 C   0  0  0  0  0  0  0  0  0  0  0  0
   58.6740   30.3530   50.1040 O   0  0  0  0  0  0  0  0  0  0  0  0
   60.8510   29.6480   49.6310 N   0  0  0  0  0  0  0  0  0  0  0  0
   61.4570   29.0820   48.9950 H   0  0  0  0  0  0  0  0  0  0  0  0
   61.3960   30.0540   50.9230 C   0  0  0  0  0  0  0  0  0  0  0  0
   60.5758   30.3905   51.5742 H   0  0  0  0  0  0  0  0  0  0  0  0
   61.9108   29.1969   51.3816 H   0  0  0  0  0  0  0  0  0  0  0  0
   62.3790   31.1780   50.7400 C   0  0  0  0  0  0  0  0  0  0  0  0
   63.7590   30.9260   50.8310 C   0  0  0  0  0  0  0  0  0  0  0  0
   64.1182   29.9034   51.0186 H   0  0  0  0  0  0  0  0  0  0  0  0
   64.6760   31.9700   50.6840 C   0  0  0  0  0  0  0  0  0  0  0  0
   65.7549   31.7668   50.7526 H   0  0  0  0  0  0  0  0  0  0  0  0
   64.2250   33.2720   50.4500 C   0  0  0  0  0  0  0  0  0  0  0  0
   64.9487   34.0922   50.3343 H   0  0  0  0  0  0  0  0  0  0  0  0
   62.8540   33.5320   50.3630 C   0  0  0  0  0  0  0  0  0  0  0  0
   62.4170   34.7960   50.1390 F   0  0  0  0  0  0  0  0  0  0  0  0
   61.9330   32.4890   50.5100 C   0  0  0  0  0  0  0  0  0  0  0  0
   60.8548   32.6972   50.4451 H   0  0  0  0  0  0  0  0  0  0  0  0
   58.9130   30.4860   46.8700 N   0  0  0  0  0  0  0  0  0  0  0  0
   59.1440   31.9390   46.9770 C   0  0  0  0  0  0  0  0  0  0  0  0
   58.7076   32.4394   46.1000 H   0  0  0  0  0  0  0  0  0  0  0  0
   58.6711   32.3048   47.9004 H   0  0  0  0  0  0  0  0  0  0  0  0
   60.6190   32.2420   47.0360 C   0  0  0  0  0  0  0  0  0  0  0  0
   61.5570   31.1980   47.0900 C   0  0  0  0  0  0  0  0  0  0  0  0
   61.2125   30.1534   47.1048 H   0  0  0  0  0  0  0  0  0  0  0  0
   62.9260   31.4790   47.1250 C   0  0  0  0  0  0  0  0  0  0  0  0
   63.6549   30.6563   47.1675 H   0  0  0  0  0  0  0  0  0  0  0  0
   63.3690   32.8030   47.1060 C   0  0  0  0  0  0  0  0  0  0  0  0
   64.4465   33.0227   47.1328 H   0  0  0  0  0  0  0  0  0  0  0  0
   62.4440   33.8490   47.0530 C   0  0  0  0  0  0  0  0  0  0  0  0
   62.7941   34.8917   47.0372 H   0  0  0  0  0  0  0  0  0  0  0  0
   61.0740   33.5720   47.0200 C   0  0  0  0  0  0  0  0  0  0  0  0
   60.3490   34.3984   46.9813 H   0  0  0  0  0  0  0  0  0  0  0  0
  1  2  1  0
  2  3  1  0
  2  4  2  0
  4  5  1  0
  5  6  2  0
  6  7  1  0
  6  8  1  0
  8  9  1  0
  9 10  1  0
 10 11  2  0
 10 12  1  0
 12 13  1  0
 13 14  1  0
  5 15  1  0
 15 16  1  0
 15 17  2  0
 17 18  1  0
 18 19  2  0
 18 20  1  0
 20 21  1  0
 20 22  1  0
 22 23  1  0
 22 24  1  0
 22 25  1  0
 25 26  2  0
 26 27  1  0
 26 28  1  0
 28 29  1  0
 28 30  2  0
 30 31  1  0
 30 32  1  0
 32 33  1  0
 32 34  2  0
 34 35  1  0
 17 36  1  0
 36 37  1  0
 37 38  1  0
 37 39  1  0
 37 40  1  0
 40 41  2  0
 41 42  1  0
 41 43  1  0
 43 44  1  0
 43 45  2  0
 45 46  1  0
 45 47  1  0
 47 48  1  0
 47 49  2  0
 49 50  1  0
 36  4  1  0
 49 40  1  0
 13  8  2  0
 34 25  1  0
M  CHG  3   9  -1  12  -1  14  -1
M  END
>  <UniqueID>  (45) 
44

>  <SMILES>  (45) 
C=c1/c(=C\c2[n-]c(=O)[n-]c2[O-])cc(C(=O)NCc2cccc(F)c2)n1Cc1ccccc1

>  <Energy>  (45) 
125.78028247245386

>  <Genealogy>  (45) 
C=c1c(=Cc2[n-]c(=O)[n-]c2[O-])cc(C(=O)NCc2cccc(F)c2)n1Cc1ccccc1 (protonated)
C=c1/c(=C\c2[n-]c(=O)[n-]c2[O-])cc(C(=O)NCc2cccc(F)c2)n1Cc1ccccc1 (cis-trans isomerization)
C=c1/c(=C\c2[n-]c(=O)[n-]c2[O-])cc(C(=O)NCc2cccc(F)c2)n1Cc1ccccc1 (3D coordinates assigned)
C=c1/c(=C\c2[n-]c(=O)[n-]c2[O-])cc(C(=O)NCc2cccc(F)c2)n1Cc1ccccc1 (optimized conformer: 125.78028247245386 kcal/mol)

>  <smiles>  (45) 
C=c1c(=Cc2[nH]c(=O)[nH]c2O)cc(C(=O)NCc2cccc(F)c2)n1Cc1ccccc1

>  <score_type>  (45) 
oracle

>  <origin>  (45) 
adg

>  <m_score__min__energy>  (45) 
-17.77

>  <m_primary>  (45) 
energy

$$$$
45:0
     RDKit          3D

 53 56  0  0  0  0  0  0  0  0999 V2000
   60.6830   27.5840   47.5070 C   0  0  0  0  0  0  0  0  0  0  0  0
   59.2940   27.3410   46.9800 C   0  0  0  0  0  0  0  0  0  0  0  0
   58.7010   26.0880   47.1540 C   0  0  0  0  0  0  0  0  0  0  0  0
   57.3640   25.8740   46.8050 C   0  0  0  0  0  0  0  0  0  0  0  0
   56.7080   24.5550   47.1460 C   0  0  0  0  0  0  0  0  0  0  0  0
   56.5490   23.7210   45.9410 N   0  0  0  0  0  0  0  0  0  0  0  0
   57.6270   23.0390   45.4470 C   0  0  0  0  0  0  0  0  0  0  0  0
   57.5090   22.2630   44.2960 C   0  0  0  0  0  0  0  0  0  0  0  0
   58.5820   21.5910   43.8080 F   0  0  0  0  0  0  0  0  0  0  0  0
   56.2710   22.1950   43.6620 C   0  0  0  0  0  0  0  0  0  0  0  0
   56.1270   21.5050   42.6200 O   0  0  0  0  0  0  0  0  0  0  0  0
   55.2160   22.8740   44.1760 N   0  0  0  0  0  0  0  0  0  0  0  0
   55.3390   23.6280   45.2990 C   0  0  0  0  0  0  0  0  0  0  0  0
   54.3260   24.2340   45.7410 O   0  0  0  0  0  0  0  0  0  0  0  0
   56.6310   26.9110   46.1960 C   0  0  0  0  0  0  0  0  0  0  0  0
   55.2620   26.7250   45.9980 O   0  0  0  0  0  0  0  0  0  0  0  0
   57.2730   28.1260   45.8320 C   0  0  0  0  0  0  0  0  0  0  0  0
   56.5830   29.1110   44.8630 C   0  0  2  0  0  0  0  0  0  0  0  0
   57.0580   28.9810   43.4040 C   0  0  0  0  0  0  0  0  0  0  0  0
   57.0060   30.3880   42.8320 C   0  0  0  0  0  0  0  0  0  0  0  0
   56.5580   31.2650   43.9850 C   0  0  0  0  0  0  0  0  0  0  0  0
   56.8090   30.5190   45.2120 N   0  0  0  0  0  0  0  0  0  0  0  0
   58.5560   28.3880   46.3950 C   0  0  0  0  0  0  0  0  0  0  0  0
   59.1140   29.7090   46.4290 N   0  0  0  0  0  0  0  0  0  0  0  0
   58.9070   30.6350   47.5040 C   0  0  0  0  0  0  0  0  0  0  0  0
   58.6060   30.2050   48.6520 O   0  0  0  0  0  0  0  0  0  0  0  0
   59.0550   32.0900   47.2720 C   0  0  0  0  0  0  0  0  0  0  0  0
   59.2500   32.9710   48.3540 C   0  0  0  0  0  0  0  0  0  0  0  0
   59.3820   34.3450   48.1320 C   0  0  0  0  0  0  0  0  0  0  0  0
   59.3200   34.8550   46.8340 C   0  0  0  0  0  0  0  0  0  0  0  0
   59.1260   33.9920   45.7540 C   0  0  0  0  0  0  0  0  0  0  0  0
   58.9930   32.6170   45.9680 C   0  0  0  0  0  0  0  0  0  0  0  0
   60.6637   27.5806   48.6068 H   0  0  0  0  0  0  0  0  0  0  0  0
   61.3549   26.7898   47.1496 H   0  0  0  0  0  0  0  0  0  0  0  0
   61.0454   28.5592   47.1496 H   0  0  0  0  0  0  0  0  0  0  0  0
   59.2931   25.2598   47.5706 H   0  0  0  0  0  0  0  0  0  0  0  0
   57.3336   24.0192   47.8751 H   0  0  0  0  0  0  0  0  0  0  0  0
   55.7126   24.7559   47.5689 H   0  0  0  0  0  0  0  0  0  0  0  0
   58.5961   23.1039   45.9634 H   0  0  0  0  0  0  0  0  0  0  0  0
   54.7500   25.9660   46.4280 H   0  0  0  0  0  0  0  0  0  0  0  0
   55.5226   28.8347   44.9590 H   0  0  0  0  0  0  0  0  0  0  0  0
   58.0852   28.5892   43.3678 H   0  0  0  0  0  0  0  0  0  0  0  0
   56.4285   28.2844   42.8309 H   0  0  0  0  0  0  0  0  0  0  0  0
   57.9995   30.6969   42.4748 H   0  0  0  0  0  0  0  0  0  0  0  0
   56.3253   30.4587   41.9708 H   0  0  0  0  0  0  0  0  0  0  0  0
   57.1311   32.2039   43.9901 H   0  0  0  0  0  0  0  0  0  0  0  0
   55.4920   31.5201   43.8924 H   0  0  0  0  0  0  0  0  0  0  0  0
   57.8280   30.6500   45.4280 H   0  0  0  0  0  0  0  0  0  0  0  0
   59.2987   32.5755   49.3793 H   0  0  0  0  0  0  0  0  0  0  0  0
   59.5351   35.0259   48.9823 H   0  0  0  0  0  0  0  0  0  0  0  0
   59.4240   35.9365   46.6623 H   0  0  0  0  0  0  0  0  0  0  0  0
   59.0777   34.3951   44.7317 H   0  0  0  0  0  0  0  0  0  0  0  0
   58.8390   31.9429   45.1125 H   0  0  0  0  0  0  0  0  0  0  0  0
  1  2  1  0
  2  3  2  0
  3  4  1  0
  4  5  1  0
  5  6  1  0
  6  7  1  0
  7  8  2  0
  8  9  1  0
  8 10  1  0
 10 11  2  0
 10 12  1  0
 12 13  1  0
 13 14  2  0
  4 15  2  0
 15 16  1  0
 15 17  1  0
 17 18  1  0
 18 19  1  0
 19 20  1  0
 20 21  1  0
 21 22  1  0
 17 23  2  0
 23 24  1  0
 24 25  1  0
 25 26  2  0
 25 27  1  0
 27 28  2  0
 28 29  1  0
 29 30  2  0
 30 31  1  0
 31 32  2  0
 23  2  1  0
 32 27  1  0
 13  6  1  0
 22 18  1  0
  1 33  1  0
  1 34  1  0
  1 35  1  0
  3 36  1  0
  5 37  1  0
  5 38  1  0
  7 39  1  0
 16 40  1  0
 18 41  1  6
 19 42  1  0
 19 43  1  0
 20 44  1  0
 20 45  1  0
 21 46  1  0
 21 47  1  0
 22 48  1  0
 28 49  1  0
 29 50  1  0
 30 51  1  0
 31 52  1  0
 32 53  1  0
M  CHG  2  12  -1  24  -1
M  END
>  <UniqueID>  (46) 
45

>  <SMILES>  (46) 
Cc1cc(Cn2cc(F)c(=O)[n-]c2=O)c(O)c([C@@H]2CCCN2)c1[N-]C(=O)c1ccccc1

>  <Energy>  (46) 
80.26581521063379

>  <Genealogy>  (46) 
Cc1cc(Cn2cc(F)c(=O)[n-]c2=O)c(O)c(C2CCCN2)c1[N-]C(=O)c1ccccc1 (protonated)
Cc1cc(Cn2cc(F)c(=O)[n-]c2=O)c(O)c([C@@H]2CCCN2)c1[N-]C(=O)c1ccccc1 (chirality)
Cc1cc(Cn2cc(F)c(=O)[n-]c2=O)c(O)c([C@@H]2CCCN2)c1[N-]C(=O)c1ccccc1 (3D coordinates assigned)
Cc1cc(Cn2cc(F)c(=O)[n-]c2=O)c(O)c([C@@H]2CCCN2)c1[N-]C(=O)c1ccccc1 (nonaromatic ring conformer: 80.26581521063379 kcal/mol)

>  <smiles>  (46) 
Cc1cc(Cn2cc(F)c(=O)[nH]c2=O)c(O)c(C2CCCN2)c1NC(=O)c1ccccc1

>  <score_type>  (46) 
oracle

>  <origin>  (46) 
adg

>  <m_score__min__energy>  (46) 
-13.48

>  <m_primary>  (46) 
energy

$$$$
46:0
     RDKit          3D

 62 65  0  0  0  0  0  0  0  0999 V2000
   57.0820   21.4600   42.9960 C   0  0  0  0  0  0  0  0  0  0  0  0
   56.5840   22.1700   44.2250 C   0  0  0  0  0  0  0  0  0  0  0  0
   56.7020   23.5670   44.3130 C   0  0  0  0  0  0  0  0  0  0  0  0
   56.2700   24.2600   45.4590 C   0  0  0  0  0  0  0  0  0  0  0  0
   56.3910   25.7390   45.5170 C   0  0  0  0  0  0  0  0  0  0  0  0
   55.4670   26.4050   46.0550 O   0  0  0  0  0  0  0  0  0  0  0  0
   57.5500   26.4160   44.9910 N   0  0  0  0  0  0  0  0  0  0  0  0
   57.7180   27.8430   45.0310 C   0  0  0  0  0  0  0  0  0  0  0  0
   59.0060   28.3770   45.1840 C   0  0  0  0  0  0  0  0  0  0  0  0
   59.2000   29.7610   45.2080 C   0  0  0  0  0  0  0  0  0  0  0  0
   58.1130   30.6340   45.0470 C   0  0  0  0  0  0  0  0  0  0  0  0
   58.3240   32.0990   45.0960 C   0  0  0  0  0  0  0  0  0  0  0  0
   58.0920   32.7810   44.0600 O   0  0  0  0  0  0  0  0  0  0  0  0
   58.7920   32.7600   46.2890 N   0  0  0  0  0  0  0  0  0  0  0  0
   58.4020   34.1480   46.5850 C   0  0  0  0  0  0  0  0  0  0  0  0
   59.6210   35.0040   46.9700 C   0  0  0  0  0  0  0  0  0  0  0  0
   60.7460   34.2130   47.6680 C   0  0  0  0  0  0  0  0  0  0  0  0
   60.2490   32.9170   48.3270 C   0  0  1  0  0  0  0  0  0  0  0  0
   59.2650   33.2290   49.3960 N   0  0  0  0  0  0  0  0  0  0  0  0
   58.5740   32.0270   49.9120 C   0  0  0  0  0  0  0  0  0  0  0  0
   57.8180   32.3600   51.2120 C   0  0  0  0  0  0  0  0  0  0  0  0
   57.1580   31.0970   51.8170 C   0  0  0  0  0  0  0  0  0  0  0  0
   57.6170   29.8880   51.2280 O   0  0  0  0  0  0  0  0  0  0  0  0
   59.0300   29.8680   51.2030 C   0  0  0  0  0  0  0  0  0  0  0  0
   59.5770   30.8840   50.1830 C   0  0  0  0  0  0  0  0  0  0  0  0
   59.6480   32.0110   47.2240 C   0  0  0  0  0  0  0  0  0  0  0  0
   56.8260   30.0980   44.8770 C   0  0  0  0  0  0  0  0  0  0  0  0
   56.6310   28.7150   44.8630 C   0  0  0  0  0  0  0  0  0  0  0  0
   55.7030   23.5310   46.5190 C   0  0  0  0  0  0  0  0  0  0  0  0
   55.5980   22.1390   46.4450 C   0  0  0  0  0  0  0  0  0  0  0  0
   56.0440   21.4520   45.3120 C   0  0  0  0  0  0  0  0  0  0  0  0
   55.8940   19.5380   45.2970 Br  0  0  0  0  0  0  0  0  0  0  0  0
   57.6900   20.5932   43.2944 H   0  0  0  0  0  0  0  0  0  0  0  0
   56.2248   21.1180   42.3974 H   0  0  0  0  0  0  0  0  0  0  0  0
   57.6954   22.1495   42.3974 H   0  0  0  0  0  0  0  0  0  0  0  0
   57.1387   24.1277   43.4734 H   0  0  0  0  0  0  0  0  0  0  0  0
   58.3440   25.8560   44.6140 H   0  0  0  0  0  0  0  0  0  0  0  0
   59.8688   27.7023   45.2857 H   0  0  0  0  0  0  0  0  0  0  0  0
   60.2112   30.1686   45.3540 H   0  0  0  0  0  0  0  0  0  0  0  0
   57.9258   34.5836   45.6942 H   0  0  0  0  0  0  0  0  0  0  0  0
   57.7041   34.1375   47.4352 H   0  0  0  0  0  0  0  0  0  0  0  0
   60.0312   35.4540   46.0539 H   0  0  0  0  0  0  0  0  0  0  0  0
   59.2672   35.7573   47.6893 H   0  0  0  0  0  0  0  0  0  0  0  0
   61.5096   33.9551   46.9194 H   0  0  0  0  0  0  0  0  0  0  0  0
   61.1521   34.8528   48.4653 H   0  0  0  0  0  0  0  0  0  0  0  0
   61.0800   32.3814   48.8092 H   0  0  0  0  0  0  0  0  0  0  0  0
   58.5310   33.8770   49.0220 H   0  0  0  0  0  0  0  0  0  0  0  0
   57.8583   31.6967   49.1448 H   0  0  0  0  0  0  0  0  0  0  0  0
   58.5267   32.7786   51.9417 H   0  0  0  0  0  0  0  0  0  0  0  0
   57.0267   33.0872   50.9774 H   0  0  0  0  0  0  0  0  0  0  0  0
   57.3810   31.0679   52.8938 H   0  0  0  0  0  0  0  0  0  0  0  0
   56.0780   31.1667   51.6201 H   0  0  0  0  0  0  0  0  0  0  0  0
   59.4113   30.1212   52.2032 H   0  0  0  0  0  0  0  0  0  0  0  0
   59.3617   28.8614   50.9083 H   0  0  0  0  0  0  0  0  0  0  0  0
   60.5095   31.3152   50.5760 H   0  0  0  0  0  0  0  0  0  0  0  0
   59.7530   30.3538   49.2354 H   0  0  0  0  0  0  0  0  0  0  0  0
   60.4708   31.5499   46.6580 H   0  0  0  0  0  0  0  0  0  0  0  0
   59.0232   31.2514   47.7166 H   0  0  0  0  0  0  0  0  0  0  0  0
   55.9655   30.7721   44.7540 H   0  0  0  0  0  0  0  0  0  0  0  0
   55.6197   28.3068   44.7195 H   0  0  0  0  0  0  0  0  0  0  0  0
   55.3395   24.0595   47.4126 H   0  0  0  0  0  0  0  0  0  0  0  0
   55.1608   21.5796   47.2852 H   0  0  0  0  0  0  0  0  0  0  0  0
  1  2  1  0
  2  3  2  0
  3  4  1  0
  4  5  1  0
  5  6  2  0
  5  7  1  0
  7  8  1  0
  8  9  2  0
  9 10  1  0
 10 11  2  0
 11 12  1  0
 12 13  2  0
 12 14  1  0
 14 15  1  0
 15 16  1  0
 16 17  1  0
 17 18  1  0
 18 19  1  0
 19 20  1  0
 20 21  1  0
 21 22  1  0
 22 23  1  0
 23 24  1  0
 24 25  1  0
 18 26  1  0
 11 27  1  0
 27 28  2  0
  4 29  2  0
 29 30  1  0
 30 31  2  0
 31 32  1  0
 31  2  1  0
 28  8  1  0
 26 14  1  0
 25 20  1  0
  1 33  1  0
  1 34  1  0
  1 35  1  0
  3 36  1  0
  7 37  1  0
  9 38  1  0
 10 39  1  0
 15 40  1  0
 15 41  1  0
 16 42  1  0
 16 43  1  0
 17 44  1  0
 17 45  1  0
 18 46  1  1
 19 47  1  0
 20 48  1  0
 21 49  1  0
 21 50  1  0
 22 51  1  0
 22 52  1  0
 24 53  1  0
 24 54  1  0
 25 55  1  0
 25 56  1  0
 26 57  1  0
 26 58  1  0
 27 59  1  0
 28 60  1  0
 29 61  1  0
 30 62  1  0
M  END
>  <UniqueID>  (47) 
46

>  <SMILES>  (47) 
Cc1cc(C(=O)Nc2ccc(C(=O)N3CCC[C@@H](NC4CCOCC4)C3)cc2)ccc1Br

>  <Energy>  (47) 
89.28573800123245

>  <Genealogy>  (47) 
Cc1cc(C(=O)Nc2ccc(C(=O)N3CCC[C@@H](NC4CCOCC4)C3)cc2)ccc1Br (chirality)
Cc1cc(C(=O)Nc2ccc(C(=O)N3CCC[C@@H](NC4CCOCC4)C3)cc2)ccc1Br (3D coordinates assigned)
Cc1cc(C(=O)Nc2ccc(C(=O)N3CCC[C@@H](NC4CCOCC4)C3)cc2)ccc1Br (nonaromatic ring conformer: 89.28573800123245 kcal/mol)

>  <smiles>  (47) 
Cc1cc(C(=O)Nc2ccc(C(=O)N3CCCC(NC4CCOCC4)C3)cc2)ccc1Br

>  <score_type>  (47) 
oracle

>  <origin>  (47) 
adg

>  <m_score__min__energy>  (47) 
-9.3699999999999992

>  <m_primary>  (47) 
energy

$$$$
47:0
     RDKit          3D

 49 52  0  0  0  0  0  0  0  0999 V2000
   57.4410   30.3780   44.0390 C   0  0  0  0  0  0  0  0  0  0  0  0
   58.2560   30.2020   45.0930 C   0  0  0  0  0  0  0  0  0  0  0  0
   58.7560   28.9820   45.5820 C   0  0  0  0  0  0  0  0  0  0  0  0
   58.4420   27.7090   45.2740 C   0  0  0  0  0  0  0  0  0  0  0  0
   57.2630   26.9790   45.7640 C   0  0  0  0  0  0  0  0  0  0  0  0
   57.2900   25.7290   46.2610 N   0  0  0  0  0  0  0  0  0  0  0  0
   55.9830   25.4370   46.4440 C   0  0  0  0  0  0  0  0  0  0  0  0
   55.5940   24.3310   46.9060 O   0  0  0  0  0  0  0  0  0  0  0  0
   55.1270   26.4130   46.0710 N   0  0  0  0  0  0  0  0  0  0  0  0
   55.9540   27.3740   45.6290 C   0  0  0  0  0  0  0  0  0  0  0  0
   55.5200   28.5930   45.1170 O   0  0  0  0  0  0  0  0  0  0  0  0
   59.7260   29.3100   46.5150 C   0  0  0  0  0  0  0  0  0  0  0  0
   59.7520   30.6850   46.6000 C   0  0  0  0  0  0  0  0  0  0  0  0
   60.7060   31.4350   47.4420 C   0  0  0  0  0  0  0  0  0  0  0  0
   61.6780   32.0180   46.8800 O   0  0  0  0  0  0  0  0  0  0  0  0
   60.4370   31.6610   48.8480 N   0  0  0  0  0  0  0  0  0  0  0  0
   59.3330   32.6430   49.0170 C   0  0  0  0  0  0  0  0  0  0  0  0
   58.7040   32.5800   50.4150 C   0  0  0  0  0  0  0  0  0  0  0  0
   58.2480   31.2170   50.7100 N   0  0  0  0  0  0  0  0  0  0  0  0
   57.2680   30.9720   51.7330 C   0  0  0  0  0  0  0  0  0  0  0  0
   56.3460   30.1370   51.5210 O   0  0  0  0  0  0  0  0  0  0  0  0
   57.4110   31.5760   53.1040 C   0  0  0  0  0  0  0  0  0  0  0  0
   57.5580   30.6210   54.2840 C   0  0  0  0  0  0  0  0  0  0  0  0
   58.7820   31.3390   53.7350 C   0  0  0  0  0  0  0  0  0  0  0  0
   58.7380   30.1050   49.8930 C   0  0  0  0  0  0  0  0  0  0  0  0
   60.2110   30.3550   49.5350 C   0  0  0  0  0  0  0  0  0  0  0  0
   58.8410   31.2290   45.7610 N   0  0  0  0  0  0  0  0  0  0  0  0
   58.5760   32.6600   45.5820 C   0  0  0  0  0  0  0  0  0  0  0  0
   57.1188   31.3910   43.7560 H   0  0  0  0  0  0  0  0  0  0  0  0
   57.0961   29.5091   43.4593 H   0  0  0  0  0  0  0  0  0  0  0  0
   59.1242   27.1704   44.5998 H   0  0  0  0  0  0  0  0  0  0  0  0
   60.3554   28.6069   47.0802 H   0  0  0  0  0  0  0  0  0  0  0  0
   61.2910   32.0910   49.2770 H   0  0  0  0  0  0  0  0  0  0  0  0
   59.7323   33.6550   48.8544 H   0  0  0  0  0  0  0  0  0  0  0  0
   58.5497   32.3967   48.2851 H   0  0  0  0  0  0  0  0  0  0  0  0
   59.4521   32.8817   51.1629 H   0  0  0  0  0  0  0  0  0  0  0  0
   57.8402   33.2602   50.4485 H   0  0  0  0  0  0  0  0  0  0  0  0
   56.7566   32.4371   52.9032 H   0  0  0  0  0  0  0  0  0  0  0  0
   57.1541   30.8982   55.2689 H   0  0  0  0  0  0  0  0  0  0  0  0
   57.2926   29.5699   54.4702 H   0  0  0  0  0  0  0  0  0  0  0  0
   59.2620   32.1354   54.3226 H   0  0  0  0  0  0  0  0  0  0  0  0
   59.7664   31.0222   53.3601 H   0  0  0  0  0  0  0  0  0  0  0  0
   58.6508   29.1658   50.4589 H   0  0  0  0  0  0  0  0  0  0  0  0
   58.1405   30.0301   48.9725 H   0  0  0  0  0  0  0  0  0  0  0  0
   60.8031   30.3408   50.4619 H   0  0  0  0  0  0  0  0  0  0  0  0
   60.5163   29.5618   48.8367 H   0  0  0  0  0  0  0  0  0  0  0  0
   58.4867   33.1423   46.5666 H   0  0  0  0  0  0  0  0  0  0  0  0
   59.4044   33.1191   45.0226 H   0  0  0  0  0  0  0  0  0  0  0  0
   57.6381   32.7921   45.0226 H   0  0  0  0  0  0  0  0  0  0  0  0
  1  2  2  0
  2  3  1  0
  3  4  2  3
  4  5  1  0
  5  6  1  0
  6  7  1  0
  7  8  2  0
  7  9  1  0
  9 10  1  0
 10 11  1  0
  3 12  1  0
 12 13  2  0
 13 14  1  0
 14 15  2  0
 14 16  1  0
 16 17  1  0
 17 18  1  0
 18 19  1  0
 19 20  1  0
 20 21  2  0
 20 22  1  0
 22 23  1  0
 23 24  1  0
 19 25  1  0
 25 26  1  0
 13 27  1  0
 27 28  1  0
 27  2  1  0
 10  5  2  0
 26 16  1  0
 24 22  1  0
  1 29  1  0
  1 30  1  0
  4 31  1  0
 12 32  1  0
 16 33  1  0
 17 34  1  0
 17 35  1  0
 18 36  1  0
 18 37  1  0
 22 38  1  0
 23 39  1  0
 23 40  1  0
 24 41  1  0
 24 42  1  0
 25 43  1  0
 25 44  1  0
 26 45  1  0
 26 46  1  0
 28 47  1  0
 28 48  1  0
 28 49  1  0
M  CHG  4   6  -1   9  -1  11  -1  16   1
M  END
>  <UniqueID>  (48) 
47

>  <SMILES>  (48) 
C=c1c(=Cc2[n-]c(=O)[n-]c2[O-])cc(C(=O)[NH+]2CCN(C(=O)C3CC3)CC2)n1C

>  <Energy>  (48) 
401.8799114540254

>  <Genealogy>  (48) 
C=c1c(=Cc2[n-]c(=O)[n-]c2[O-])cc(C(=O)[NH+]2CCN(C(=O)C3CC3)CC2)n1C (protonated)
C=c1c(=Cc2[n-]c(=O)[n-]c2[O-])cc(C(=O)[NH+]2CCN(C(=O)C3CC3)CC2)n1C (3D coordinates assigned)
C=c1c(=Cc2[n-]c(=O)[n-]c2[O-])cc(C(=O)[NH+]2CCN(C(=O)C3CC3)CC2)n1C (nonaromatic ring conformer: 401.8799114540254 kcal/mol)

>  <smiles>  (48) 
C=c1c(=Cc2[nH]c(=O)[nH]c2O)cc(C(=O)N2CCN(C(=O)C3CC3)CC2)n1C

>  <score_type>  (48) 
oracle

>  <origin>  (48) 
adg

>  <m_score__min__energy>  (48) 
-16.109999999999999

>  <m_primary>  (48) 
energy

$$$$
48:0
     RDKit          3D

 31 32  0  0  0  0  0  0  0  0999 V2000
   55.9290   28.2610   44.2250 H   0  0  0  0  0  0  0  0  0  0  0  0
   55.5060   28.9690   44.8100 O   0  0  0  0  0  0  0  0  0  0  0  0
   55.6950   30.3010   44.5250 N   0  0  0  0  0  0  0  0  0  0  0  0
   56.8030   30.7110   43.9960 C   0  0  0  0  0  0  0  0  0  0  0  0
   57.1439   30.2710   43.0472 H   0  0  0  0  0  0  0  0  0  0  0  0
   57.6170   31.7580   44.6430 C   0  0  0  0  0  0  0  0  0  0  0  0
   58.5600   31.4510   45.6350 C   0  0  0  0  0  0  0  0  0  0  0  0
   58.7110   30.4079   45.9498 H   0  0  0  0  0  0  0  0  0  0  0  0
   59.3060   32.4750   46.2210 C   0  0  0  0  0  0  0  0  0  0  0  0
   60.0501   32.2320   46.9938 H   0  0  0  0  0  0  0  0  0  0  0  0
   59.1220   33.7770   45.8450 N   0  0  0  0  0  0  0  0  0  0  0  0
   59.9210   34.8340   46.4820 C   0  0  0  0  0  0  0  0  0  0  0  0
   59.3415   35.7690   46.4896 H   0  0  0  0  0  0  0  0  0  0  0  0
   60.8518   34.9648   45.9107 H   0  0  0  0  0  0  0  0  0  0  0  0
   60.2730   34.4590   47.9000 C   0  0  0  0  0  0  0  0  0  0  0  0
   59.3830   34.5780   48.7840 O   0  0  0  0  0  0  0  0  0  0  0  0
   61.6350   34.0050   48.2920 C   0  0  0  0  0  0  0  0  0  0  0  0
   62.1080   34.1390   49.6130 C   0  0  0  0  0  0  0  0  0  0  0  0
   61.4641   34.5950   50.3794 H   0  0  0  0  0  0  0  0  0  0  0  0
   63.3890   33.6970   49.9570 C   0  0  0  0  0  0  0  0  0  0  0  0
   63.7467   33.8045   50.9916 H   0  0  0  0  0  0  0  0  0  0  0  0
   64.2150   33.1200   48.9920 C   0  0  0  0  0  0  0  0  0  0  0  0
   65.4570   32.6920   49.3290 F   0  0  0  0  0  0  0  0  0  0  0  0
   63.7640   32.9870   47.6780 C   0  0  0  0  0  0  0  0  0  0  0  0
   64.4164   32.5346   46.9166 H   0  0  0  0  0  0  0  0  0  0  0  0
   62.4840   33.4280   47.3280 C   0  0  0  0  0  0  0  0  0  0  0  0
   62.1369   33.3232   46.2895 H   0  0  0  0  0  0  0  0  0  0  0  0
   58.2160   34.0920   44.8690 C   0  0  0  0  0  0  0  0  0  0  0  0
   58.0886   35.1404   44.5615 H   0  0  0  0  0  0  0  0  0  0  0  0
   57.4520   33.0950   44.2600 C   0  0  0  0  0  0  0  0  0  0  0  0
   56.7218   33.3589   43.4808 H   0  0  0  0  0  0  0  0  0  0  0  0
  1  2  1  0
  2  3  1  0
  3  4  2  0
  4  5  1  0
  4  6  1  0
  6  7  2  0
  7  8  1  0
  7  9  1  0
  9 10  1  0
  9 11  2  0
 11 12  1  0
 12 13  1  0
 12 14  1  0
 12 15  1  0
 15 16  2  0
 15 17  1  0
 17 18  2  0
 18 19  1  0
 18 20  1  0
 20 21  1  0
 20 22  2  0
 22 23  1  0
 22 24  1  0
 24 25  1  0
 24 26  2  0
 26 27  1  0
 11 28  1  0
 28 29  1  0
 28 30  2  0
 30 31  1  0
 30  6  1  0
 26 17  1  0
M  CHG  1  11   1
M  END
>  <UniqueID>  (49) 
48

>  <SMILES>  (49) 
O=C(C[n+]1ccc(/C=N/O)cc1)c1ccc(F)cc1

>  <Energy>  (49) 
32.28298981278158

>  <Genealogy>  (49) 
O=C(C[n+]1ccc(/C=N/O)cc1)c1ccc(F)cc1 (cis-trans isomerization)
O=C(C[n+]1ccc(/C=N/O)cc1)c1ccc(F)cc1 (3D coordinates assigned)
O=C(C[n+]1ccc(/C=N/O)cc1)c1ccc(F)cc1 (optimized conformer: 32.28298981278158 kcal/mol)

>  <smiles>  (49) 
O=C(C[n+]1ccc(C=NO)cc1)c1ccc(F)cc1

>  <score_type>  (49) 
oracle

>  <origin>  (49) 
adg

>  <m_score__min__energy>  (49) 
-6.5099999999999998

>  <m_primary>  (49) 
energy

$$$$
49:0
     RDKit          3D

 27 29  0  0  0  0  0  0  0  0999 V2000
   53.5160   25.3560   45.6330 N   0  0  0  0  0  0  0  0  0  0  0  0
   53.9350   24.0350   45.2940 C   0  0  0  0  0  0  0  0  0  0  0  0
   53.0590   23.1740   45.0170 O   0  0  0  0  0  0  0  0  0  0  0  0
   55.3810   23.6800   45.2650 C   0  0  0  0  0  0  0  0  0  0  0  0
   55.8250   22.3270   45.2390 C   0  0  0  0  0  0  0  0  0  0  0  0
   54.9160   21.2740   45.2400 O   0  0  0  0  0  0  0  0  0  0  0  0
   57.2050   22.0240   45.2130 C   0  0  0  0  0  0  0  0  0  0  0  0
   58.1650   23.0480   45.2110 C   0  0  0  0  0  0  0  0  0  0  0  0
   57.7090   24.3590   45.2360 C   0  0  0  0  0  0  0  0  0  0  0  0
   58.4510   25.4770   45.2390 N   0  0  0  0  0  0  0  0  0  0  0  0
   57.5140   26.4610   45.2680 C   0  0  0  0  0  0  0  0  0  0  0  0
   57.8650   27.9040   45.2810 C   0  0  0  0  0  0  0  0  0  0  0  0
   59.2200   28.2870   45.3460 C   0  0  0  0  0  0  0  0  0  0  0  0
   59.5790   29.6370   45.3610 C   0  0  0  0  0  0  0  0  0  0  0  0
   58.5950   30.6250   45.3100 C   0  0  0  0  0  0  0  0  0  0  0  0
   57.2470   30.2640   45.2460 C   0  0  0  0  0  0  0  0  0  0  0  0
   56.8760   28.9140   45.2310 C   0  0  0  0  0  0  0  0  0  0  0  0
   55.5240   28.5970   45.1660 O   0  0  0  0  0  0  0  0  0  0  0  0
   56.2350   26.0010   45.2830 N   0  0  0  0  0  0  0  0  0  0  0  0
   56.3830   24.6670   45.2620 C   0  0  0  0  0  0  0  0  0  0  0  0
   54.0470   26.1910   45.3020 H   0  0  0  0  0  0  0  0  0  0  0  0
   57.5307   20.9735   45.1941 H   0  0  0  0  0  0  0  0  0  0  0  0
   59.2409   22.8197   45.1903 H   0  0  0  0  0  0  0  0  0  0  0  0
   60.0027   27.5151   45.3853 H   0  0  0  0  0  0  0  0  0  0  0  0
   60.6402   29.9219   45.4132 H   0  0  0  0  0  0  0  0  0  0  0  0
   58.8805   31.6873   45.3202 H   0  0  0  0  0  0  0  0  0  0  0  0
   56.4729   31.0445   45.2072 H   0  0  0  0  0  0  0  0  0  0  0  0
  1  2  1  0
  2  3  2  0
  2  4  1  0
  4  5  2  0
  5  6  1  0
  5  7  1  0
  7  8  2  0
  8  9  1  0
  9 10  1  0
 10 11  1  0
 11 12  1  0
 12 13  2  0
 13 14  1  0
 14 15  2  0
 15 16  1  0
 16 17  2  0
 17 18  1  0
 11 19  2  0
 19 20  1  0
 20  4  1  0
 20  9  2  0
 17 12  1  0
  1 21  1  0
  7 22  1  0
  8 23  1  0
 13 24  1  0
 14 25  1  0
 15 26  1  0
 16 27  1  0
M  CHG  4   1  -1   6  -1  10  -1  18  -1
M  END
>  <UniqueID>  (50) 
49

>  <SMILES>  (50) 
[NH-]C(=O)c1c([O-])ccc2[n-]c(-c3ccccc3[O-])nc12

>  <Energy>  (50) 
69.31075973256029

>  <Genealogy>  (50) 
[NH-]C(=O)c1c([O-])ccc2[n-]c(-c3ccccc3[O-])nc12 (protonated)
[NH-]C(=O)c1c([O-])ccc2[n-]c(-c3ccccc3[O-])nc12 (3D coordinates assigned)
[NH-]C(=O)c1c([O-])ccc2[n-]c(-c3ccccc3[O-])nc12 (optimized conformer: 69.31075973256029 kcal/mol)

>  <smiles>  (50) 
NC(=O)c1c(O)ccc2[nH]c(-c3ccccc3O)nc12

>  <score_type>  (50) 
oracle

>  <origin>  (50) 
adg

>  <m_score__min__energy>  (50) 
-14.58

>  <m_primary>  (50) 
energy

$$$$
50:0
     RDKit          3D

 44 46  0  0  0  0  0  0  0  0999 V2000
   56.8990   30.0770   44.3360 C   0  0  0  0  0  0  0  0  0  0  0  0
   57.6300   29.7410   45.6170 C   0  0  0  0  0  0  0  0  0  0  0  0
   57.7960   28.3820   45.9890 C   0  0  0  0  0  0  0  0  0  0  0  0
   57.1840   27.3290   45.2270 N   0  0  0  0  0  0  0  0  0  0  0  0
   57.6440   25.9690   45.2600 C   0  0  0  0  0  0  0  0  0  0  0  0
   58.6420   25.6470   45.9590 O   0  0  0  0  0  0  0  0  0  0  0  0
   56.9890   24.9380   44.3940 C   0  0  0  0  0  0  0  0  0  0  0  0
   55.6670   24.5490   44.9780 C   0  0  0  0  0  0  0  0  0  0  0  0
   55.1100   23.3330   44.8360 N   0  0  0  0  0  0  0  0  0  0  0  0
   53.9140   23.4680   45.4500 C   0  0  0  0  0  0  0  0  0  0  0  0
   53.0870   22.5230   45.5350 O   0  0  0  0  0  0  0  0  0  0  0  0
   53.6710   24.6940   45.9600 N   0  0  0  0  0  0  0  0  0  0  0  0
   54.7890   25.3680   45.6460 C   0  0  0  0  0  0  0  0  0  0  0  0
   54.9990   26.7050   45.9610 O   0  0  0  0  0  0  0  0  0  0  0  0
   58.5190   28.0590   47.1470 C   0  0  0  0  0  0  0  0  0  0  0  0
   59.0690   29.0600   47.9400 C   0  0  0  0  0  0  0  0  0  0  0  0
   58.8810   30.3980   47.6060 C   0  0  0  0  0  0  0  0  0  0  0  0
   58.1490   30.7590   46.4660 C   0  0  0  0  0  0  0  0  0  0  0  0
   57.9290   32.5010   46.1760 S   0  0  0  0  0  0  0  0  0  0  0  0
   57.6000   33.1410   47.4960 O   0  0  0  0  0  0  0  0  0  0  0  0
   56.7710   32.7620   45.2530 O   0  0  0  0  0  0  0  0  0  0  0  0
   59.4050   33.2210   45.5620 N   0  0  0  0  0  0  0  0  0  0  0  0
   59.2530   34.6420   45.1840 C   0  0  0  0  0  0  0  0  0  0  0  0
   59.6500   35.6080   46.3160 C   0  0  0  0  0  0  0  0  0  0  0  0
   59.5290   34.9830   47.5730 O   0  0  0  0  0  0  0  0  0  0  0  0
   60.5020   33.9630   47.6970 C   0  0  0  0  0  0  0  0  0  0  0  0
   60.5370   33.0070   46.4810 C   0  0  0  0  0  0  0  0  0  0  0  0
   55.9238   30.5252   44.5771 H   0  0  0  0  0  0  0  0  0  0  0  0
   57.4959   30.7911   43.7497 H   0  0  0  0  0  0  0  0  0  0  0  0
   56.7457   29.1590   43.7497 H   0  0  0  0  0  0  0  0  0  0  0  0
   56.4210   27.5780   44.5590 H   0  0  0  0  0  0  0  0  0  0  0  0
   56.8353   25.3519   43.3865 H   0  0  0  0  0  0  0  0  0  0  0  0
   57.6352   24.0497   44.3359 H   0  0  0  0  0  0  0  0  0  0  0  0
   58.6520   27.0044   47.4302 H   0  0  0  0  0  0  0  0  0  0  0  0
   59.6537   28.7940   48.8329 H   0  0  0  0  0  0  0  0  0  0  0  0
   59.3124   31.1826   48.2449 H   0  0  0  0  0  0  0  0  0  0  0  0
   59.8909   34.8433   44.3107 H   0  0  0  0  0  0  0  0  0  0  0  0
   58.1894   34.8129   44.9614 H   0  0  0  0  0  0  0  0  0  0  0  0
   60.6931   35.9253   46.1700 H   0  0  0  0  0  0  0  0  0  0  0  0
   58.9775   36.4781   46.2888 H   0  0  0  0  0  0  0  0  0  0  0  0
   61.4909   34.4333   47.8013 H   0  0  0  0  0  0  0  0  0  0  0  0
   60.2368   33.3620   48.5793 H   0  0  0  0  0  0  0  0  0  0  0  0
   61.4747   33.1714   45.9299 H   0  0  0  0  0  0  0  0  0  0  0  0
   60.4674   31.9778   46.8629 H   0  0  0  0  0  0  0  0  0  0  0  0
  1  2  1  0
  2  3  2  0
  3  4  1  0
  4  5  1  0
  5  6  2  0
  5  7  1  0
  7  8  1  0
  8  9  1  0
  9 10  1  0
 10 11  2  0
 10 12  1  0
 12 13  1  0
 13 14  1  0
  3 15  1  0
 15 16  2  0
 16 17  1  0
 17 18  2  0
 18 19  1  0
 19 20  2  0
 19 21  2  0
 19 22  1  0
 22 23  1  0
 23 24  1  0
 24 25  1  0
 25 26  1  0
 26 27  1  0
 18  2  1  0
 27 22  1  0
 13  8  2  0
  1 28  1  0
  1 29  1  0
  1 30  1  0
  4 31  1  0
  7 32  1  0
  7 33  1  0
 15 34  1  0
 16 35  1  0
 17 36  1  0
 23 37  1  0
 23 38  1  0
 24 39  1  0
 24 40  1  0
 26 41  1  0
 26 42  1  0
 27 43  1  0
 27 44  1  0
M  CHG  3   9  -1  12  -1  14  -1
M  END
>  <UniqueID>  (51) 
50

>  <SMILES>  (51) 
Cc1c(NC(=O)Cc2[n-]c(=O)[n-]c2[O-])cccc1S(=O)(=O)N1CCOCC1

>  <Energy>  (51) 
91.91542942362271

>  <Genealogy>  (51) 
Cc1c(NC(=O)Cc2[n-]c(=O)[n-]c2[O-])cccc1S(=O)(=O)N1CCOCC1 (protonated)
Cc1c(NC(=O)Cc2[n-]c(=O)[n-]c2[O-])cccc1S(=O)(=O)N1CCOCC1 (3D coordinates assigned)
Cc1c(NC(=O)Cc2[n-]c(=O)[n-]c2[O-])cccc1S(=O)(=O)N1CCOCC1 (nonaromatic ring conformer: 91.91542942362271 kcal/mol)

>  <smiles>  (51) 
Cc1c(NC(=O)Cc2[nH]c(=O)[nH]c2O)cccc1S(=O)(=O)N1CCOCC1

>  <score_type>  (51) 
oracle

>  <origin>  (51) 
adg

>  <m_score__min__energy>  (51) 
-15.81

>  <m_primary>  (51) 
energy

$$$$
51:0
     RDKit          3D

 37 39  0  0  0  0  0  0  0  0999 V2000
   54.9630   26.3270   45.9360 N   0  0  0  0  0  0  0  0  0  0  0  0
   56.3170   25.9730   45.6700 C   0  0  0  0  0  0  0  0  0  0  0  0
   56.5750   25.2090   44.7020 O   0  0  0  0  0  0  0  0  0  0  0  0
   57.4180   26.5170   46.4930 C   0  0  0  0  0  0  0  0  0  0  0  0
   58.0670   25.8480   47.5150 C   0  0  0  0  0  0  0  0  0  0  0  0
   57.7700   24.5780   47.9950 O   0  0  0  0  0  0  0  0  0  0  0  0
   59.0760   26.6620   47.9650 C   0  0  0  0  0  0  0  0  0  0  0  0
   59.9500   26.3560   49.0020 O   0  0  0  0  0  0  0  0  0  0  0  0
   59.0900   27.8180   47.2710 N   0  0  0  0  0  0  0  0  0  0  0  0
   59.9850   28.9230   47.4960 C   0  0  0  0  0  0  0  0  0  0  0  0
   60.6310   29.5480   46.4180 C   0  0  0  0  0  0  0  0  0  0  0  0
   61.5070   30.6130   46.6400 C   0  0  0  0  0  0  0  0  0  0  0  0
   61.7470   31.0680   47.9440 C   0  0  0  0  0  0  0  0  0  0  0  0
   62.8420   32.4190   48.2250 S   0  0  0  0  0  0  0  0  0  0  0  0
   63.6680   32.8050   46.7580 N   0  0  0  0  0  0  0  0  0  0  0  0
   62.0630   33.6150   48.6940 O   0  0  0  0  0  0  0  0  0  0  0  0
   63.8450   32.0510   49.2820 O   0  0  0  0  0  0  0  0  0  0  0  0
   61.0910   30.4580   49.0210 C   0  0  0  0  0  0  0  0  0  0  0  0
   60.2150   29.3920   48.7990 C   0  0  0  0  0  0  0  0  0  0  0  0
   58.0760   27.7440   46.3700 C   0  0  0  0  0  0  0  0  0  0  0  0
   57.7540   28.8120   45.4010 C   0  0  0  0  0  0  0  0  0  0  0  0
   57.3900   28.4870   44.0840 C   0  0  0  0  0  0  0  0  0  0  0  0
   57.0520   29.4970   43.1780 C   0  0  0  0  0  0  0  0  0  0  0  0
   57.0650   30.8340   43.5830 C   0  0  0  0  0  0  0  0  0  0  0  0
   56.7340   31.8130   42.7040 F   0  0  0  0  0  0  0  0  0  0  0  0
   57.4170   31.1640   44.8960 C   0  0  0  0  0  0  0  0  0  0  0  0
   57.7580   30.1560   45.8030 C   0  0  0  0  0  0  0  0  0  0  0  0
   54.7280   27.0840   46.6150 H   0  0  0  0  0  0  0  0  0  0  0  0
   60.4463   29.1969   45.3920 H   0  0  0  0  0  0  0  0  0  0  0  0
   62.0099   31.0960   45.7893 H   0  0  0  0  0  0  0  0  0  0  0  0
   64.5220   32.2040   46.7220 H   0  0  0  0  0  0  0  0  0  0  0  0
   61.2660   30.8194   50.0451 H   0  0  0  0  0  0  0  0  0  0  0  0
   59.7031   28.9181   49.6495 H   0  0  0  0  0  0  0  0  0  0  0  0
   57.3708   27.4347   43.7643 H   0  0  0  0  0  0  0  0  0  0  0  0
   56.7755   29.2385   42.1452 H   0  0  0  0  0  0  0  0  0  0  0  0
   57.4255   32.2167   45.2150 H   0  0  0  0  0  0  0  0  0  0  0  0
   58.0305   30.4179   46.8360 H   0  0  0  0  0  0  0  0  0  0  0  0
  1  2  1  0
  2  3  2  0
  2  4  1  0
  4  5  1  0
  5  6  1  0
  5  7  2  0
  7  8  1  0
  7  9  1  0
  9 10  1  0
 10 11  2  0
 11 12  1  0
 12 13  2  0
 13 14  1  0
 14 15  1  0
 14 16  2  0
 14 17  2  0
 13 18  1  0
 18 19  2  0
  9 20  1  0
 20 21  1  0
 21 22  2  0
 22 23  1  0
 23 24  2  0
 24 25  1  0
 24 26  1  0
 26 27  2  0
 20  4  2  0
 27 21  1  0
 19 10  1  0
  1 28  1  0
 11 29  1  0
 12 30  1  0
 15 31  1  0
 18 32  1  0
 19 33  1  0
 22 34  1  0
 23 35  1  0
 26 36  1  0
 27 37  1  0
M  CHG  4   1  -1   6  -1   8  -1  15  -1
M  END
>  <UniqueID>  (52) 
51

>  <SMILES>  (52) 
[NH-]C(=O)c1c([O-])c([O-])n(-c2ccc(S([NH-])(=O)=O)cc2)c1-c1ccc(F)cc1

>  <Energy>  (52) 
80.5718465609606

>  <Genealogy>  (52) 
[NH-]C(=O)c1c([O-])c([O-])n(-c2ccc(S([NH-])(=O)=O)cc2)c1-c1ccc(F)cc1 (protonated)
[NH-]C(=O)c1c([O-])c([O-])n(-c2ccc(S([NH-])(=O)=O)cc2)c1-c1ccc(F)cc1 (3D coordinates assigned)
[NH-]C(=O)c1c([O-])c([O-])n(-c2ccc(S([NH-])(=O)=O)cc2)c1-c1ccc(F)cc1 (optimized conformer: 80.5718465609606 kcal/mol)

>  <smiles>  (52) 
NC(=O)c1c(O)c(O)n(-c2ccc(S(N)(=O)=O)cc2)c1-c1ccc(F)cc1

>  <score_type>  (52) 
oracle

>  <origin>  (52) 
adg

>  <m_score__min__energy>  (52) 
-14.26

>  <m_primary>  (52) 
energy

$$$$
52:0
     RDKit          3D

 37 39  0  0  0  0  0  0  0  0999 V2000
   58.5415   32.1066   50.4553 H   0  0  0  0  0  0  0  0  0  0  0  0
   59.4310   32.1680   49.8110 C   0  0  0  0  0  0  0  0  0  0  0  0
   59.4430   31.5170   48.5760 C   0  0  0  0  0  0  0  0  0  0  0  0
   58.5597   30.9471   48.2520 H   0  0  0  0  0  0  0  0  0  0  0  0
   60.5740   31.5830   47.7420 C   0  0  0  0  0  0  0  0  0  0  0  0
   60.5620   30.8520   46.4160 C   0  0  0  0  0  0  0  0  0  0  0  0
   61.4255   30.1718   46.3740 H   0  0  0  0  0  0  0  0  0  0  0  0
   60.6138   31.5970   45.6084 H   0  0  0  0  0  0  0  0  0  0  0  0
   59.3210   30.0660   46.2470 N   0  0  0  0  0  0  0  0  0  0  0  0
   59.1970   28.7940   46.9200 C   0  0  0  0  0  0  0  0  0  0  0  0
   60.0570   28.4450   47.7760 O   0  0  0  0  0  0  0  0  0  0  0  0
   58.0670   27.8900   46.6180 C   0  0  0  0  0  0  0  0  0  0  0  0
   58.0380   26.5770   47.1140 C   0  0  0  0  0  0  0  0  0  0  0  0
   58.8677   26.2054   47.7333 H   0  0  0  0  0  0  0  0  0  0  0  0
   56.9600   25.7440   46.8230 C   0  0  0  0  0  0  0  0  0  0  0  0
   56.9358   24.7134   47.2068 H   0  0  0  0  0  0  0  0  0  0  0  0
   55.9120   26.2280   46.0410 C   0  0  0  0  0  0  0  0  0  0  0  0
   54.9320   25.4820   45.7730 O   0  0  0  0  0  0  0  0  0  0  0  0
   55.9450   27.5060   45.5680 N   0  0  0  0  0  0  0  0  0  0  0  0
   55.1450   27.8410   44.9840 H   0  0  0  0  0  0  0  0  0  0  0  0
   56.9940   28.3430   45.8340 C   0  0  0  0  0  0  0  0  0  0  0  0
   56.9890   29.7310   45.3310 C   0  0  0  0  0  0  0  0  0  0  0  0
   55.9200   30.2140   44.8700 O   0  0  0  0  0  0  0  0  0  0  0  0
   58.2200   30.5620   45.4450 C   0  0  0  0  0  0  0  0  0  0  0  0
   58.3210   31.7400   44.8860 N   0  0  0  0  0  0  0  0  0  0  0  0
   58.0270   33.0210   45.4570 C   0  0  0  0  0  0  0  0  0  0  0  0
   56.9950   33.1580   46.1630 O   0  0  0  0  0  0  0  0  0  0  0  0
   59.0040   34.1530   45.3610 C   0  0  0  0  0  0  0  0  0  0  0  0
   59.2865   34.4803   46.3725 H   0  0  0  0  0  0  0  0  0  0  0  0
   59.9013   33.8180   44.8200 H   0  0  0  0  0  0  0  0  0  0  0  0
   58.5414   34.9917   44.8200 H   0  0  0  0  0  0  0  0  0  0  0  0
   61.6960   32.3300   48.1680 C   0  0  0  0  0  0  0  0  0  0  0  0
   63.1400   32.4970   47.1780 Cl  0  0  0  0  0  0  0  0  0  0  0  0
   61.6730   32.9800   49.4090 C   0  0  0  0  0  0  0  0  0  0  0  0
   62.5480   33.5593   49.7388 H   0  0  0  0  0  0  0  0  0  0  0  0
   60.5460   32.8970   50.2300 C   0  0  0  0  0  0  0  0  0  0  0  0
   60.5280   33.7130   51.7820 Cl  0  0  0  0  0  0  0  0  0  0  0  0
  1  2  1  0
  2  3  2  0
  3  4  1  0
  3  5  1  0
  5  6  1  0
  6  7  1  0
  6  8  1  0
  6  9  1  0
  9 10  1  0
 10 11  2  0
 10 12  1  0
 12 13  1  0
 13 14  1  0
 13 15  2  0
 15 16  1  0
 15 17  1  0
 17 18  2  0
 17 19  1  0
 19 20  1  0
 19 21  1  0
 21 22  1  0
 22 23  2  0
 22 24  1  0
 24 25  2  0
 25 26  1  0
 26 27  2  0
 26 28  1  0
 28 29  1  0
 28 30  1  0
 28 31  1  0
  5 32  2  0
 32 33  1  0
 32 34  1  0
 34 35  1  0
 34 36  2  0
 36 37  1  0
 36  2  1  0
 24  9  1  0
 21 12  2  0
M  END
>  <UniqueID>  (53) 
52

>  <SMILES>  (53) 
CC(=O)/N=C1\C(=O)c2[nH]c(=O)ccc2C(=O)N1Cc1ccc(Cl)cc1Cl

>  <Energy>  (53) 
54.05002527414302

>  <Genealogy>  (53) 
CC(=O)/N=C1\C(=O)c2[nH]c(=O)ccc2C(=O)N1Cc1ccc(Cl)cc1Cl (cis-trans isomerization)
CC(=O)/N=C1\C(=O)c2[nH]c(=O)ccc2C(=O)N1Cc1ccc(Cl)cc1Cl (3D coordinates assigned)
CC(=O)/N=C1\C(=O)c2[nH]c(=O)ccc2C(=O)N1Cc1ccc(Cl)cc1Cl (nonaromatic ring conformer: 54.05002527414302 kcal/mol)

>  <smiles>  (53) 
CC(=O)N=C1C(=O)c2[nH]c(=O)ccc2C(=O)N1Cc1ccc(Cl)cc1Cl

>  <score_type>  (53) 
oracle

>  <origin>  (53) 
adg

>  <m_score__min__energy>  (53) 
-8.5800000000000001

>  <m_primary>  (53) 
energy

$$$$
53:0
     RDKit          3D

 34 36  0  0  0  0  0  0  0  0999 V2000
   57.6470   20.7210   44.3880 N   0  0  0  0  0  0  0  0  0  0  0  0
   57.1790   21.9980   43.9540 C   0  0  0  0  0  0  0  0  0  0  0  0
   56.2650   22.0580   43.0870 O   0  0  0  0  0  0  0  0  0  0  0  0
   57.7420   23.1950   44.5130 N   0  0  0  0  0  0  0  0  0  0  0  0
   57.3840   24.5220   44.0870 C   0  0  0  0  0  0  0  0  0  0  0  0
   56.6670   24.6850   43.0630 O   0  0  0  0  0  0  0  0  0  0  0  0
   57.8600   25.7130   44.8210 C   0  0  0  0  0  0  0  0  0  0  0  0
   58.5810   25.6770   46.0020 C   0  0  0  0  0  0  0  0  0  0  0  0
   58.8480   26.9900   46.3370 C   0  0  0  0  0  0  0  0  0  0  0  0
   59.6970   27.3980   47.4670 C   0  0  0  0  0  0  0  0  0  0  0  0
   59.2790   28.1970   48.3450 O   0  0  0  0  0  0  0  0  0  0  0  0
   58.2660   27.7780   45.3480 C   0  0  0  0  0  0  0  0  0  0  0  0
   58.2240   29.2500   45.2830 C   0  0  0  0  0  0  0  0  0  0  0  0
   58.0080   29.9850   44.1200 C   0  0  0  0  0  0  0  0  0  0  0  0
   57.9730   31.2990   44.5320 C   0  0  0  0  0  0  0  0  0  0  0  0
   57.7820   32.4720   43.8040 C   0  0  0  0  0  0  0  0  0  0  0  0
   57.7740   33.6890   44.5120 C   0  0  0  0  0  0  0  0  0  0  0  0
   57.9500   33.7010   45.9140 C   0  0  0  0  0  0  0  0  0  0  0  0
   58.1370   32.4980   46.6200 C   0  0  0  0  0  0  0  0  0  0  0  0
   58.1470   31.3100   45.8910 C   0  0  0  0  0  0  0  0  0  0  0  0
   58.2940   30.0630   46.3650 N   0  0  0  0  0  0  0  0  0  0  0  0
   57.6800   26.9900   44.4250 N   0  0  0  0  0  0  0  0  0  0  0  0
   58.4000   20.6480   45.1070 H   0  0  0  0  0  0  0  0  0  0  0  0
   57.2400   19.8460   43.9890 H   0  0  0  0  0  0  0  0  0  0  0  0
   58.4680   23.0770   45.2530 H   0  0  0  0  0  0  0  0  0  0  0  0
   58.8819   24.7799   46.5629 H   0  0  0  0  0  0  0  0  0  0  0  0
   60.7181   26.9965   47.5462 H   0  0  0  0  0  0  0  0  0  0  0  0
   57.8909   29.6003   43.0961 H   0  0  0  0  0  0  0  0  0  0  0  0
   57.6422   32.4478   42.7132 H   0  0  0  0  0  0  0  0  0  0  0  0
   57.6299   34.6357   43.9707 H   0  0  0  0  0  0  0  0  0  0  0  0
   57.9408   34.6574   46.4574 H   0  0  0  0  0  0  0  0  0  0  0  0
   58.2709   32.4953   47.7118 H   0  0  0  0  0  0  0  0  0  0  0  0
   58.3890   29.7820   47.3670 H   0  0  0  0  0  0  0  0  0  0  0  0
   57.1790   27.3220   43.5720 H   0  0  0  0  0  0  0  0  0  0  0  0
  1  2  1  0
  2  3  2  0
  2  4  1  0
  4  5  1  0
  5  6  2  0
  5  7  1  0
  7  8  2  0
  8  9  1  0
  9 10  1  0
 10 11  2  0
  9 12  2  0
 12 13  1  0
 13 14  2  0
 14 15  1  0
 15 16  2  0
 16 17  1  0
 17 18  2  0
 18 19  1  0
 19 20  2  0
 20 21  1  0
 12 22  1  0
 22  7  1  0
 21 13  1  0
 20 15  1  0
  1 23  1  0
  1 24  1  0
  4 25  1  0
  8 26  1  0
 10 27  1  0
 14 28  1  0
 16 29  1  0
 17 30  1  0
 18 31  1  0
 19 32  1  0
 21 33  1  0
 22 34  1  0
M  END
>  <UniqueID>  (54) 
53

>  <SMILES>  (54) 
NC(=O)NC(=O)c1cc(C=O)c(-c2cc3ccccc3[nH]2)[nH]1

>  <Energy>  (54) 
97.38841794171714

>  <Genealogy>  (54) 
NC(=O)NC(=O)c1cc(C=O)c(-c2cc3ccccc3[nH]2)[nH]1 (3D coordinates assigned)
NC(=O)NC(=O)c1cc(C=O)c(-c2cc3ccccc3[nH]2)[nH]1 (optimized conformer: 97.38841794171714 kcal/mol)

>  <smiles>  (54) 
NC(=O)NC(=O)c1cc(C=O)c(-c2cc3ccccc3[nH]2)[nH]1

>  <score_type>  (54) 
oracle

>  <origin>  (54) 
adg

>  <m_score__min__energy>  (54) 
-7.6699999999999999

>  <m_primary>  (54) 
energy

$$$$
54:0
     RDKit          3D

 43 46  0  0  0  0  0  0  0  0999 V2000
   54.3680   28.9810   44.4690 H   0  0  0  0  0  0  0  0  0  0  0  0
   55.1510   29.6330   44.7030 N   0  0  0  0  0  0  0  0  0  0  0  0
   56.3560   29.1970   44.8880 C   0  0  0  0  0  0  0  0  0  0  0  0
   56.5670   28.0600   45.6070 N   0  0  0  0  0  0  0  0  0  0  0  0
   57.8160   27.5630   45.8140 C   0  0  0  0  0  0  0  0  0  0  0  0
   57.9501   26.6462   46.4068 H   0  0  0  0  0  0  0  0  0  0  0  0
   58.9350   28.2170   45.2730 C   0  0  0  0  0  0  0  0  0  0  0  0
   60.3230   27.6840   45.5070 C   0  0  0  0  0  0  0  0  0  0  0  0
   60.6157   27.0536   44.6544 H   0  0  0  0  0  0  0  0  0  0  0  0
   61.0141   28.5336   45.6102 H   0  0  0  0  0  0  0  0  0  0  0  0
   60.3750   26.8690   46.7600 C   0  0  0  0  0  0  0  0  0  0  0  0
   60.2230   25.6200   46.6950 O   0  0  0  0  0  0  0  0  0  0  0  0
   60.7450   27.5010   47.9940 N   0  0  0  0  0  0  0  0  0  0  0  0
   60.3060   28.6250   48.4890 C   0  0  0  0  0  0  0  0  0  0  0  0
   60.3990   29.7450   47.7220 N   0  0  0  0  0  0  0  0  0  0  0  0
   59.9570   30.9520   48.1600 C   0  0  0  0  0  0  0  0  0  0  0  0
   60.1430   32.1140   47.3350 N   0  0  0  0  0  0  0  0  0  0  0  0
   59.1590   32.8050   46.5800 C   0  0  0  0  0  0  0  0  0  0  0  0
   57.8750   32.3600   46.2370 C   0  0  0  0  0  0  0  0  0  0  0  0
   57.5043   31.3860   46.5889 H   0  0  0  0  0  0  0  0  0  0  0  0
   57.0720   33.1870   45.4330 C   0  0  0  0  0  0  0  0  0  0  0  0
   56.0526   32.8706   45.1669 H   0  0  0  0  0  0  0  0  0  0  0  0
   57.5690   34.4200   44.9670 C   0  0  0  0  0  0  0  0  0  0  0  0
   56.9327   35.0680   44.3463 H   0  0  0  0  0  0  0  0  0  0  0  0
   58.8740   34.8250   45.2920 C   0  0  0  0  0  0  0  0  0  0  0  0
   59.2751   35.7800   44.9216 H   0  0  0  0  0  0  0  0  0  0  0  0
   59.6510   33.9880   46.0960 C   0  0  0  0  0  0  0  0  0  0  0  0
   61.0690   34.1770   46.5090 C   0  0  0  0  0  0  0  0  0  0  0  0
   61.1774   35.0646   47.1497 H   0  0  0  0  0  0  0  0  0  0  0  0
   61.7462   34.3401   45.6576 H   0  0  0  0  0  0  0  0  0  0  0  0
   61.3890   32.8820   47.2970 C   0  0  0  0  0  0  0  0  0  0  0  0
   61.7181   33.1272   48.3176 H   0  0  0  0  0  0  0  0  0  0  0  0
   62.1998   32.3109   46.8211 H   0  0  0  0  0  0  0  0  0  0  0  0
   59.4130   31.0550   49.4460 C   0  0  0  0  0  0  0  0  0  0  0  0
   59.0806   32.0269   49.8395 H   0  0  0  0  0  0  0  0  0  0  0  0
   59.3020   29.9000   50.2160 C   0  0  0  0  0  0  0  0  0  0  0  0
   58.8604   29.9531   51.2220 H   0  0  0  0  0  0  0  0  0  0  0  0
   59.7370   28.7070   49.7300 N   0  0  0  0  0  0  0  0  0  0  0  0
   59.5860   27.8670   50.3270 H   0  0  0  0  0  0  0  0  0  0  0  0
   58.7360   29.3980   44.5440 C   0  0  0  0  0  0  0  0  0  0  0  0
   59.5989   29.9381   44.1273 H   0  0  0  0  0  0  0  0  0  0  0  0
   57.4430   29.8900   44.3460 C   0  0  0  0  0  0  0  0  0  0  0  0
   57.2820   30.8130   43.7697 H   0  0  0  0  0  0  0  0  0  0  0  0
  1  2  1  0
  2  3  2  0
  3  4  1  0
  4  5  1  0
  5  6  1  0
  5  7  2  0
  7  8  1  0
  8  9  1  0
  8 10  1  0
  8 11  1  0
 11 12  2  0
 11 13  1  0
 13 14  2  3
 14 15  1  0
 15 16  2  0
 16 17  1  0
 17 18  1  0
 18 19  2  0
 19 20  1  0
 19 21  1  0
 21 22  1  0
 21 23  2  0
 23 24  1  0
 23 25  1  0
 25 26  1  0
 25 27  2  0
 27 28  1  0
 28 29  1  0
 28 30  1  0
 28 31  1  0
 31 32  1  0
 31 33  1  0
 16 34  1  0
 34 35  1  0
 34 36  2  0
 36 37  1  0
 36 38  1  0
 38 39  1  0
  7 40  1  0
 40 41  1  0
 40 42  2  0
 42 43  1  0
 42  3  1  0
 38 14  1  0
 31 17  1  0
 27 18  1  0
M  CHG  1   4  -1
M  END
>  <UniqueID>  (55) 
54

>  <SMILES>  (55) 
[H]/N=c1/ccc(CC(=O)N=c2nc(N3CCc4ccccc43)cc[nH]2)c[n-]1

>  <Energy>  (55) 
72.69742226663038

>  <Genealogy>  (55) 
N=c1ccc(CC(=O)N=c2nc(N3CCc4ccccc43)cc[nH]2)c[n-]1 (protonated)
[H]/N=c1/ccc(CC(=O)N=c2nc(N3CCc4ccccc43)cc[nH]2)c[n-]1 (cis-trans isomerization)
[H]/N=c1/ccc(CC(=O)N=c2nc(N3CCc4ccccc43)cc[nH]2)c[n-]1 (3D coordinates assigned)
[H]/N=c1/ccc(CC(=O)N=c2nc(N3CCc4ccccc43)cc[nH]2)c[n-]1 (nonaromatic ring conformer: 72.69742226663038 kcal/mol)

>  <smiles>  (55) 
N=c1ccc(CC(=O)N=c2nc(N3CCc4ccccc43)cc[nH]2)c[nH]1

>  <score_type>  (55) 
oracle

>  <origin>  (55) 
adg

>  <m_score__min__energy>  (55) 
-11.01

>  <m_primary>  (55) 
energy

$$$$
55:0
     RDKit          3D

 60 63  0  0  0  0  0  0  0  0999 V2000
   65.8080   32.9470   49.8200 C   0  0  0  0  0  0  0  0  0  0  0  0
   64.4970   32.2190   49.7940 C   0  0  0  0  0  0  0  0  0  0  0  0
   64.2900   31.3260   50.6610 O   0  0  0  0  0  0  0  0  0  0  0  0
   63.4800   32.5270   48.8160 N   0  0  0  0  0  0  0  0  0  0  0  0
   62.3310   31.6170   48.6660 C   0  0  0  0  0  0  0  0  0  0  0  0
   61.8430   31.5960   47.2140 C   0  0  0  0  0  0  0  0  0  0  0  0
   61.6880   32.9700   46.7320 N   0  0  0  0  0  0  0  0  0  0  0  0
   60.3790   33.5520   46.5890 C   0  0  0  0  0  0  0  0  0  0  0  0
   60.1310   34.6620   47.1350 O   0  0  0  0  0  0  0  0  0  0  0  0
   59.3220   32.8780   45.7980 C   0  0  0  0  0  0  0  0  0  0  0  0
   58.8330   33.4570   44.6150 C   0  0  0  0  0  0  0  0  0  0  0  0
   57.8090   32.8360   43.8940 C   0  0  0  0  0  0  0  0  0  0  0  0
   57.2680   31.6290   44.3430 C   0  0  0  0  0  0  0  0  0  0  0  0
   57.7620   31.0250   45.5030 C   0  0  0  0  0  0  0  0  0  0  0  0
   57.1510   29.8200   45.9860 N   0  0  0  0  0  0  0  0  0  0  0  0
   57.7160   28.6750   46.2610 C   0  0  0  0  0  0  0  0  0  0  0  0
   57.2040   27.5650   45.6730 N   0  0  0  0  0  0  0  0  0  0  0  0
   57.7060   26.3220   45.8870 C   0  0  0  0  0  0  0  0  0  0  0  0
   57.0760   25.1560   45.2160 C   0  0  0  0  0  0  0  0  0  0  0  0
   57.8460   24.2200   44.4980 C   0  0  0  0  0  0  0  0  0  0  0  0
   57.2320   23.1380   43.8630 C   0  0  0  0  0  0  0  0  0  0  0  0
   55.8470   22.9750   43.9330 C   0  0  0  0  0  0  0  0  0  0  0  0
   55.0660   23.8980   44.6390 C   0  0  0  0  0  0  0  0  0  0  0  0
   53.3170   23.7120   44.7170 S   0  0  0  0  0  0  0  0  0  0  0  0
   52.9330   22.2290   45.5160 N   0  0  0  0  0  0  0  0  0  0  0  0
   52.7090   24.8600   45.4730 O   0  0  0  0  0  0  0  0  0  0  0  0
   52.7490   23.6960   43.3250 O   0  0  0  0  0  0  0  0  0  0  0  0
   55.6800   24.9880   45.2690 C   0  0  0  0  0  0  0  0  0  0  0  0
   58.7910   26.1790   46.7620 C   0  0  0  0  0  0  0  0  0  0  0  0
   59.3450   27.2770   47.3550 N   0  0  0  0  0  0  0  0  0  0  0  0
   60.4980   27.1120   48.2500 C   0  0  0  0  0  0  0  0  0  0  0  0
   58.8450   28.5300   47.1070 C   0  0  0  0  0  0  0  0  0  0  0  0
   59.4170   29.5370   47.6060 O   0  0  0  0  0  0  0  0  0  0  0  0
   58.7640   31.6670   46.2470 C   0  0  0  0  0  0  0  0  0  0  0  0
   62.8720   33.8280   46.8120 C   0  0  0  0  0  0  0  0  0  0  0  0
   63.3610   33.8860   48.2590 C   0  0  0  0  0  0  0  0  0  0  0  0
   66.1128   33.1162   50.8633 H   0  0  0  0  0  0  0  0  0  0  0  0
   66.5724   32.3441   49.3079 H   0  0  0  0  0  0  0  0  0  0  0  0
   65.7003   33.9145   49.3079 H   0  0  0  0  0  0  0  0  0  0  0  0
   62.6341   30.6012   48.9598 H   0  0  0  0  0  0  0  0  0  0  0  0
   61.5123   31.9720   49.3092 H   0  0  0  0  0  0  0  0  0  0  0  0
   62.5774   31.0683   46.5878 H   0  0  0  0  0  0  0  0  0  0  0  0
   60.8749   31.0766   47.1597 H   0  0  0  0  0  0  0  0  0  0  0  0
   59.2586   34.4049   44.2539 H   0  0  0  0  0  0  0  0  0  0  0  0
   57.4286   33.2987   42.9714 H   0  0  0  0  0  0  0  0  0  0  0  0
   56.4507   31.1522   43.7821 H   0  0  0  0  0  0  0  0  0  0  0  0
   58.9375   24.3420   44.4371 H   0  0  0  0  0  0  0  0  0  0  0  0
   57.8418   22.4116   43.3057 H   0  0  0  0  0  0  0  0  0  0  0  0
   55.3687   22.1201   43.4327 H   0  0  0  0  0  0  0  0  0  0  0  0
   53.6700   21.5380   45.2490 H   0  0  0  0  0  0  0  0  0  0  0  0
   55.0641   25.7207   45.8111 H   0  0  0  0  0  0  0  0  0  0  0  0
   59.1978   25.1788   46.9719 H   0  0  0  0  0  0  0  0  0  0  0  0
   60.1603   27.1603   49.2958 H   0  0  0  0  0  0  0  0  0  0  0  0
   60.9713   26.1370   48.0622 H   0  0  0  0  0  0  0  0  0  0  0  0
   61.2258   27.9151   48.0622 H   0  0  0  0  0  0  0  0  0  0  0  0
   59.1158   31.2199   47.1885 H   0  0  0  0  0  0  0  0  0  0  0  0
   63.6669   33.4169   46.1723 H   0  0  0  0  0  0  0  0  0  0  0  0
   62.6147   34.8415   46.4705 H   0  0  0  0  0  0  0  0  0  0  0  0
   64.3445   34.3777   48.2898 H   0  0  0  0  0  0  0  0  0  0  0  0
   62.6350   34.4549   48.8584 H   0  0  0  0  0  0  0  0  0  0  0  0
  1  2  1  0
  2  3  2  0
  2  4  1  0
  4  5  1  0
  5  6  1  0
  6  7  1  0
  7  8  1  0
  8  9  2  0
  8 10  1  0
 10 11  2  0
 11 12  1  0
 12 13  2  0
 13 14  1  0
 14 15  1  0
 15 16  2  3
 16 17  1  0
 17 18  1  0
 18 19  1  0
 19 20  2  0
 20 21  1  0
 21 22  2  0
 22 23  1  0
 23 24  1  0
 24 25  1  0
 24 26  2  0
 24 27  2  0
 23 28  2  0
 18 29  2  0
 29 30  1  0
 30 31  1  0
 30 32  1  0
 32 33  2  0
 14 34  2  0
  7 35  1  0
 35 36  1  0
 36  4  1  0
 34 10  1  0
 32 16  1  0
 28 19  1  0
  1 37  1  0
  1 38  1  0
  1 39  1  0
  5 40  1  0
  5 41  1  0
  6 42  1  0
  6 43  1  0
 11 44  1  0
 12 45  1  0
 13 46  1  0
 20 47  1  0
 21 48  1  0
 22 49  1  0
 25 50  1  0
 28 51  1  0
 29 52  1  0
 31 53  1  0
 31 54  1  0
 31 55  1  0
 34 56  1  0
 35 57  1  0
 35 58  1  0
 36 59  1  0
 36 60  1  0
M  CHG  2  17  -1  25  -1
M  END
>  <UniqueID>  (56) 
55

>  <SMILES>  (56) 
CC(=O)N1CCN(C(=O)c2cccc(N=c3[n-]c(-c4cccc(S([NH-])(=O)=O)c4)cn(C)c3=O)c2)CC1

>  <Energy>  (56) 
87.63031457256088

>  <Genealogy>  (56) 
CC(=O)N1CCN(C(=O)c2cccc(N=c3[n-]c(-c4cccc(S([NH-])(=O)=O)c4)cn(C)c3=O)c2)CC1 (protonated)
CC(=O)N1CCN(C(=O)c2cccc(N=c3[n-]c(-c4cccc(S([NH-])(=O)=O)c4)cn(C)c3=O)c2)CC1 (3D coordinates assigned)
CC(=O)N1CCN(C(=O)c2cccc(N=c3[n-]c(-c4cccc(S([NH-])(=O)=O)c4)cn(C)c3=O)c2)CC1 (nonaromatic ring conformer: 87.63031457256088 kcal/mol)

>  <smiles>  (56) 
CC(=O)N1CCN(C(=O)c2cccc(N=c3[nH]c(-c4cccc(S(N)(=O)=O)c4)cn(C)c3=O)c2)CC1

>  <score_type>  (56) 
oracle

>  <origin>  (56) 
adg

>  <m_score__min__energy>  (56) 
-13.75

>  <m_primary>  (56) 
energy

$$$$
56:0
     RDKit          3D

 63 66  0  0  0  0  0  0  0  0999 V2000
   66.7160   28.5380   51.6120 C   0  0  0  0  0  0  0  0  0  0  0  0
   66.0020   29.7690   51.2350 N   0  0  0  0  0  0  0  0  0  0  0  0
   66.9460   30.8790   50.9430 C   0  0  0  0  0  0  0  0  0  0  0  0
   67.0320   31.9000   52.0890 C   0  0  0  0  0  0  0  0  0  0  0  0
   65.7100   32.4940   52.4150 N   0  0  0  0  0  0  0  0  0  0  0  0
   65.4990   33.7890   51.7360 C   0  0  0  0  0  0  0  0  0  0  0  0
   64.5150   33.6520   50.6030 C   0  0  0  0  0  0  0  0  0  0  0  0
   64.9150   33.0660   49.3920 C   0  0  0  0  0  0  0  0  0  0  0  0
   64.0140   32.9590   48.3290 C   0  0  0  0  0  0  0  0  0  0  0  0
   62.6980   33.4410   48.4550 C   0  0  0  0  0  0  0  0  0  0  0  0
   61.7380   33.3710   47.3260 C   0  0  0  0  0  0  0  0  0  0  0  0
   62.1710   33.4970   46.1470 O   0  0  0  0  0  0  0  0  0  0  0  0
   60.3470   33.0800   47.5490 N   0  0  0  0  0  0  0  0  0  0  0  0
   59.3500   33.1110   46.5130 C   0  0  0  0  0  0  0  0  0  0  0  0
   59.2410   34.1980   45.6300 C   0  0  0  0  0  0  0  0  0  0  0  0
   58.2850   34.1840   44.6090 C   0  0  0  0  0  0  0  0  0  0  0  0
   57.4280   33.0900   44.4640 C   0  0  0  0  0  0  0  0  0  0  0  0
   57.5080   32.0080   45.3560 C   0  0  0  0  0  0  0  0  0  0  0  0
   56.6590   30.8590   45.2380 N   0  0  0  0  0  0  0  0  0  0  0  0
   56.4240   29.9390   43.7890 S   0  0  0  0  0  0  0  0  0  0  0  0
   55.0250   29.3960   43.7560 O   0  0  0  0  0  0  0  0  0  0  0  0
   56.6610   30.8140   42.5920 O   0  0  0  0  0  0  0  0  0  0  0  0
   57.6120   28.6060   43.7610 C   0  0  0  0  0  0  0  0  0  0  0  0
   58.5180   28.6760   44.9590 C   0  0  0  0  0  0  0  0  0  0  0  0
   59.7900   29.2650   44.8580 C   0  0  0  0  0  0  0  0  0  0  0  0
   60.6180   29.3510   45.9830 C   0  0  0  0  0  0  0  0  0  0  0  0
   60.1790   28.8580   47.2160 C   0  0  0  0  0  0  0  0  0  0  0  0
   58.9070   28.2840   47.3270 C   0  0  0  0  0  0  0  0  0  0  0  0
   58.0760   28.1980   46.2040 C   0  0  0  0  0  0  0  0  0  0  0  0
   58.4570   32.0340   46.3860 C   0  0  0  0  0  0  0  0  0  0  0  0
   62.2980   34.0110   49.6780 C   0  0  0  0  0  0  0  0  0  0  0  0
   63.1990   34.1180   50.7410 C   0  0  0  0  0  0  0  0  0  0  0  0
   64.5710   31.5800   52.1480 C   0  0  0  0  0  0  0  0  0  0  0  0
   64.9870   30.1080   52.2560 C   0  0  0  0  0  0  0  0  0  0  0  0
   66.7606   28.4611   52.7084 H   0  0  0  0  0  0  0  0  0  0  0  0
   66.1835   27.6659   51.2046 H   0  0  0  0  0  0  0  0  0  0  0  0
   67.7374   28.5672   51.2046 H   0  0  0  0  0  0  0  0  0  0  0  0
   67.9467   30.4548   50.7735 H   0  0  0  0  0  0  0  0  0  0  0  0
   66.5729   31.4078   50.0535 H   0  0  0  0  0  0  0  0  0  0  0  0
   67.4233   31.3948   52.9843 H   0  0  0  0  0  0  0  0  0  0  0  0
   67.6963   32.7146   51.7649 H   0  0  0  0  0  0  0  0  0  0  0  0
   65.1107   34.5172   52.4633 H   0  0  0  0  0  0  0  0  0  0  0  0
   66.4608   34.1294   51.3249 H   0  0  0  0  0  0  0  0  0  0  0  0
   65.9423   32.6893   49.2790 H   0  0  0  0  0  0  0  0  0  0  0  0
   64.3364   32.4940   47.3857 H   0  0  0  0  0  0  0  0  0  0  0  0
   60.0820   32.6310   48.4550 H   0  0  0  0  0  0  0  0  0  0  0  0
   59.9102   35.0638   45.7419 H   0  0  0  0  0  0  0  0  0  0  0  0
   58.2077   35.0366   43.9183 H   0  0  0  0  0  0  0  0  0  0  0  0
   56.6890   33.0761   43.6494 H   0  0  0  0  0  0  0  0  0  0  0  0
   57.0767   27.6451   43.7688 H   0  0  0  0  0  0  0  0  0  0  0  0
   58.2225   28.6955   42.8503 H   0  0  0  0  0  0  0  0  0  0  0  0
   60.1360   29.6598   43.8913 H   0  0  0  0  0  0  0  0  0  0  0  0
   61.6154   29.8069   45.8974 H   0  0  0  0  0  0  0  0  0  0  0  0
   60.8330   28.9213   48.0982 H   0  0  0  0  0  0  0  0  0  0  0  0
   58.5602   27.9002   48.2978 H   0  0  0  0  0  0  0  0  0  0  0  0
   57.0735   27.7547   46.2965 H   0  0  0  0  0  0  0  0  0  0  0  0
   58.5035   31.2016   47.1036 H   0  0  0  0  0  0  0  0  0  0  0  0
   61.2671   34.3755   49.7983 H   0  0  0  0  0  0  0  0  0  0  0  0
   62.8748   34.5697   51.6902 H   0  0  0  0  0  0  0  0  0  0  0  0
   63.7745   31.7799   52.8799 H   0  0  0  0  0  0  0  0  0  0  0  0
   64.2187   31.7622   51.1220 H   0  0  0  0  0  0  0  0  0  0  0  0
   65.4073   29.9252   53.2560 H   0  0  0  0  0  0  0  0  0  0  0  0
   64.0995   29.4794   52.0909 H   0  0  0  0  0  0  0  0  0  0  0  0
  1  2  1  0
  2  3  1  0
  3  4  1  0
  4  5  1  0
  5  6  1  0
  6  7  1  0
  7  8  2  0
  8  9  1  0
  9 10  2  0
 10 11  1  0
 11 12  2  0
 11 13  1  0
 13 14  1  0
 14 15  2  0
 15 16  1  0
 16 17  2  0
 17 18  1  0
 18 19  1  0
 19 20  1  0
 20 21  2  0
 20 22  2  0
 20 23  1  0
 23 24  1  0
 24 25  2  0
 25 26  1  0
 26 27  2  0
 27 28  1  0
 28 29  2  0
 18 30  2  0
 10 31  1  0
 31 32  2  0
  5 33  1  0
 33 34  1  0
 34  2  1  0
 32  7  1  0
 30 14  1  0
 29 24  1  0
  1 35  1  0
  1 36  1  0
  1 37  1  0
  3 38  1  0
  3 39  1  0
  4 40  1  0
  4 41  1  0
  6 42  1  0
  6 43  1  0
  8 44  1  0
  9 45  1  0
 13 46  1  0
 15 47  1  0
 16 48  1  0
 17 49  1  0
 23 50  1  0
 23 51  1  0
 25 52  1  0
 26 53  1  0
 27 54  1  0
 28 55  1  0
 29 56  1  0
 30 57  1  0
 31 58  1  0
 32 59  1  0
 33 60  1  0
 33 61  1  0
 34 62  1  0
 34 63  1  0
M  CHG  1  19  -1
M  END
>  <UniqueID>  (57) 
56

>  <SMILES>  (57) 
CN1CCN(Cc2ccc(C(=O)Nc3cccc([N-]S(=O)(=O)Cc4ccccc4)c3)cc2)CC1

>  <Energy>  (57) 
83.88844832515356

>  <Genealogy>  (57) 
CN1CCN(Cc2ccc(C(=O)Nc3cccc([N-]S(=O)(=O)Cc4ccccc4)c3)cc2)CC1 (protonated)
CN1CCN(Cc2ccc(C(=O)Nc3cccc([N-]S(=O)(=O)Cc4ccccc4)c3)cc2)CC1 (3D coordinates assigned)
CN1CCN(Cc2ccc(C(=O)Nc3cccc([N-]S(=O)(=O)Cc4ccccc4)c3)cc2)CC1 (nonaromatic ring conformer: 83.88844832515356 kcal/mol)

>  <smiles>  (57) 
CN1CCN(Cc2ccc(C(=O)Nc3cccc(NS(=O)(=O)Cc4ccccc4)c3)cc2)CC1

>  <score_type>  (57) 
oracle

>  <origin>  (57) 
adg

>  <m_score__min__energy>  (57) 
-12.1

>  <m_primary>  (57) 
energy

$$$$
57:0
     RDKit          3D

 42 44  0  0  0  0  0  0  0  0999 V2000
   56.9280   19.5890   43.4130 H   0  0  0  0  0  0  0  0  0  0  0  0
   56.2910   20.3480   43.7440 N   0  0  0  0  0  0  0  0  0  0  0  0
   56.5280   21.0370   44.8160 C   0  0  0  0  0  0  0  0  0  0  0  0
   56.8030   20.3760   46.0170 C   0  0  0  0  0  0  0  0  0  0  0  0
   56.8189   19.2768   46.0548 H   0  0  0  0  0  0  0  0  0  0  0  0
   57.0570   21.1240   47.1670 C   0  0  0  0  0  0  0  0  0  0  0  0
   57.2740   20.6132   48.1167 H   0  0  0  0  0  0  0  0  0  0  0  0
   57.0370   22.4830   47.1170 N   0  0  0  0  0  0  0  0  0  0  0  0
   56.7750   23.1610   45.9650 C   0  0  0  0  0  0  0  0  0  0  0  0
   56.7610   24.6400   45.9750 C   0  0  0  0  0  0  0  0  0  0  0  0
   55.7310   25.2540   46.3680 O   0  0  0  0  0  0  0  0  0  0  0  0
   57.9020   25.3800   45.5050 N   0  0  0  0  0  0  0  0  0  0  0  0
   58.5870   24.8900   44.8870 H   0  0  0  0  0  0  0  0  0  0  0  0
   58.0920   26.7880   45.7290 C   0  0  0  0  0  0  0  0  0  0  0  0
   59.0230   27.2600   46.6700 C   0  0  0  0  0  0  0  0  0  0  0  0
   59.6100   26.5453   47.2656 H   0  0  0  0  0  0  0  0  0  0  0  0
   59.2060   28.6310   46.8520 C   0  0  0  0  0  0  0  0  0  0  0  0
   59.9298   28.9928   47.5971 H   0  0  0  0  0  0  0  0  0  0  0  0
   58.4740   29.5460   46.0920 C   0  0  0  0  0  0  0  0  0  0  0  0
   58.6177   30.6252   46.2489 H   0  0  0  0  0  0  0  0  0  0  0  0
   57.5550   29.0970   45.1280 C   0  0  0  0  0  0  0  0  0  0  0  0
   56.7850   30.0670   44.3140 C   0  0  0  0  0  0  0  0  0  0  0  0
   56.4100   29.7530   43.1500 O   0  0  0  0  0  0  0  0  0  0  0  0
   56.4190   31.3400   44.8660 N   0  0  0  0  0  0  0  0  0  0  0  0
   57.3030   32.4270   45.1710 C   0  0  0  0  0  0  0  0  0  0  0  0
   57.4210   32.8440   46.5020 C   0  0  0  0  0  0  0  0  0  0  0  0
   56.8288   32.3467   47.2842 H   0  0  0  0  0  0  0  0  0  0  0  0
   58.2860   33.8880   46.8450 C   0  0  0  0  0  0  0  0  0  0  0  0
   58.3677   34.2095   47.8938 H   0  0  0  0  0  0  0  0  0  0  0  0
   59.0500   34.5270   45.8570 C   0  0  0  0  0  0  0  0  0  0  0  0
   60.0090   35.6180   46.2300 C   0  0  0  0  0  0  0  0  0  0  0  0
   60.0732   35.6910   47.3257 H   0  0  0  0  0  0  0  0  0  0  0  0
   61.0032   35.3886   45.8189 H   0  0  0  0  0  0  0  0  0  0  0  0
   59.6540   36.5746   45.8189 H   0  0  0  0  0  0  0  0  0  0  0  0
   58.9660   34.0830   44.5290 C   0  0  0  0  0  0  0  0  0  0  0  0
   59.5854   34.5571   43.7534 H   0  0  0  0  0  0  0  0  0  0  0  0
   58.0990   33.0410   44.1860 C   0  0  0  0  0  0  0  0  0  0  0  0
   58.0388   32.6997   43.1420 H   0  0  0  0  0  0  0  0  0  0  0  0
   57.3760   27.7110   44.9500 C   0  0  0  0  0  0  0  0  0  0  0  0
   56.6668   27.3476   44.1917 H   0  0  0  0  0  0  0  0  0  0  0  0
   56.5110   22.4400   44.7870 C   0  0  0  0  0  0  0  0  0  0  0  0
   56.2927   22.9720   43.8493 H   0  0  0  0  0  0  0  0  0  0  0  0
  1  2  1  0
  2  3  2  0
  3  4  1  0
  4  5  1  0
  4  6  2  0
  6  7  1  0
  6  8  1  0
  8  9  1  0
  9 10  1  0
 10 11  2  0
 10 12  1  0
 12 13  1  0
 12 14  1  0
 14 15  2  0
 15 16  1  0
 15 17  1  0
 17 18  1  0
 17 19  2  0
 19 20  1  0
 19 21  1  0
 21 22  1  0
 22 23  2  0
 22 24  1  0
 24 25  1  0
 25 26  2  0
 26 27  1  0
 26 28  1  0
 28 29  1  0
 28 30  2  0
 30 31  1  0
 31 32  1  0
 31 33  1  0
 31 34  1  0
 30 35  1  0
 35 36  1  0
 35 37  2  0
 37 38  1  0
 21 39  2  0
 39 40  1  0
  9 41  2  0
 41 42  1  0
 41  3  1  0
 39 14  1  0
 37 25  1  0
M  CHG  2   8  -1  24  -1
M  END
>  <UniqueID>  (58) 
57

>  <SMILES>  (58) 
[H]/N=c1/cc[n-]c(C(=O)Nc2cccc(C(=O)[N-]c3ccc(C)cc3)c2)c1

>  <Energy>  (58) 
53.41400115778463

>  <Genealogy>  (58) 
Cc1ccc([N-]C(=O)c2cccc(NC(=O)c3cc(=N)cc[n-]3)c2)cc1 (protonated)
[H]/N=c1/cc[n-]c(C(=O)Nc2cccc(C(=O)[N-]c3ccc(C)cc3)c2)c1 (cis-trans isomerization)
[H]/N=c1/cc[n-]c(C(=O)Nc2cccc(C(=O)[N-]c3ccc(C)cc3)c2)c1 (3D coordinates assigned)
[H]/N=c1/cc[n-]c(C(=O)Nc2cccc(C(=O)[N-]c3ccc(C)cc3)c2)c1 (optimized conformer: 53.41400115778463 kcal/mol)

>  <smiles>  (58) 
Cc1ccc(NC(=O)c2cccc(NC(=O)c3cc(=N)cc[nH]3)c2)cc1

>  <score_type>  (58) 
oracle

>  <origin>  (58) 
adg

>  <m_score__min__energy>  (58) 
-11.81

>  <m_primary>  (58) 
energy

$$$$
58:0
     RDKit          3D

 62 65  0  0  0  0  0  0  0  0999 V2000
   59.7240   30.1450   47.3460 N   0  0  0  0  0  0  0  0  0  0  0  0
   58.7920   29.5610   46.6620 C   0  0  0  0  0  0  0  0  0  0  0  0
   58.4690   28.2700   46.9340 N   0  0  0  0  0  0  0  0  0  0  0  0
   57.5110   27.5930   46.2480 C   0  0  0  0  0  0  0  0  0  0  0  0
   57.2240   26.1800   46.6070 C   0  0  0  0  0  0  0  0  0  0  0  0
   56.1530   25.5060   45.9940 C   0  0  0  0  0  0  0  0  0  0  0  0
   55.8620   24.1800   46.3270 C   0  0  0  0  0  0  0  0  0  0  0  0
   56.6290   23.5100   47.2860 C   0  0  0  0  0  0  0  0  0  0  0  0
   56.2680   21.8300   47.6800 S   0  0  0  0  0  0  0  0  0  0  0  0
   54.7850   21.6920   47.8880 O   0  0  0  0  0  0  0  0  0  0  0  0
   56.9680   21.4410   48.9530 O   0  0  0  0  0  0  0  0  0  0  0  0
   56.7770   20.7890   46.3730 N   0  0  0  0  0  0  0  0  0  0  0  0
   55.6020   20.1260   45.7690 C   0  0  0  0  0  0  0  0  0  0  0  0
   55.9220   19.6220   44.3570 C   0  0  0  0  0  0  0  0  0  0  0  0
   56.2730   20.7270   43.4440 N   0  0  0  0  0  0  0  0  0  0  0  0
   56.8360   21.9080   44.1240 C   0  0  0  0  0  0  0  0  0  0  0  0
   57.6120   21.5290   45.3960 C   0  0  0  0  0  0  0  0  0  0  0  0
   57.6950   24.1740   47.9060 C   0  0  0  0  0  0  0  0  0  0  0  0
   57.9890   25.5000   47.5740 C   0  0  0  0  0  0  0  0  0  0  0  0
   56.7960   28.2570   45.2390 C   0  0  0  0  0  0  0  0  0  0  0  0
   57.0850   29.5980   44.9310 C   0  0  0  0  0  0  0  0  0  0  0  0
   56.2430   30.3010   43.9320 C   0  0  0  0  0  0  0  0  0  0  0  0
   54.8840   29.9120   43.7370 N   0  0  0  0  0  0  0  0  0  0  0  0
   56.7070   31.2630   43.2650 O   0  0  0  0  0  0  0  0  0  0  0  0
   58.1300   30.2500   45.6310 C   0  0  0  0  0  0  0  0  0  0  0  0
   58.5340   31.5910   45.3060 N   0  0  0  0  0  0  0  0  0  0  0  0
   58.4150   32.6750   46.2410 C   0  0  0  0  0  0  0  0  0  0  0  0
   57.9860   32.4670   47.4090 O   0  0  0  0  0  0  0  0  0  0  0  0
   58.7520   34.0740   45.8180 C   0  0  0  0  0  0  0  0  0  0  0  0
   59.4330   34.8600   46.9470 C   0  0  0  0  0  0  0  0  0  0  0  0
   60.7290   34.2210   47.3770 C   0  0  0  0  0  0  0  0  0  0  0  0
   61.0180   34.0440   48.7410 C   0  0  0  0  0  0  0  0  0  0  0  0
   62.2320   33.4750   49.1360 C   0  0  0  0  0  0  0  0  0  0  0  0
   63.1710   33.0900   48.1750 C   0  0  0  0  0  0  0  0  0  0  0  0
   62.8950   33.2730   46.8170 C   0  0  0  0  0  0  0  0  0  0  0  0
   61.6800   33.8360   46.4170 C   0  0  0  0  0  0  0  0  0  0  0  0
   59.6970   31.1710   47.5440 H   0  0  0  0  0  0  0  0  0  0  0  0
   55.5383   26.0272   45.2453 H   0  0  0  0  0  0  0  0  0  0  0  0
   55.0269   23.6615   45.8332 H   0  0  0  0  0  0  0  0  0  0  0  0
   55.3077   19.2726   46.3976 H   0  0  0  0  0  0  0  0  0  0  0  0
   54.7823   20.8566   45.7033 H   0  0  0  0  0  0  0  0  0  0  0  0
   56.7701   18.9237   44.4125 H   0  0  0  0  0  0  0  0  0  0  0  0
   55.0240   19.1252   43.9610 H   0  0  0  0  0  0  0  0  0  0  0  0
   56.9800   20.3690   42.7580 H   0  0  0  0  0  0  0  0  0  0  0  0
   57.5188   22.4233   43.4325 H   0  0  0  0  0  0  0  0  0  0  0  0
   55.9999   22.5590   44.4191 H   0  0  0  0  0  0  0  0  0  0  0  0
   58.4665   20.8969   45.1125 H   0  0  0  0  0  0  0  0  0  0  0  0
   57.9403   22.4622   45.8770 H   0  0  0  0  0  0  0  0  0  0  0  0
   58.3037   23.6499   48.6575 H   0  0  0  0  0  0  0  0  0  0  0  0
   58.8236   26.0155   48.0716 H   0  0  0  0  0  0  0  0  0  0  0  0
   56.0064   27.7261   44.6870 H   0  0  0  0  0  0  0  0  0  0  0  0
   54.3710   29.3680   44.4660 H   0  0  0  0  0  0  0  0  0  0  0  0
   58.7150   31.8230   44.3040 H   0  0  0  0  0  0  0  0  0  0  0  0
   59.4309   34.0313   44.9536 H   0  0  0  0  0  0  0  0  0  0  0  0
   57.8152   34.5888   45.5584 H   0  0  0  0  0  0  0  0  0  0  0  0
   59.6402   35.8811   46.5942 H   0  0  0  0  0  0  0  0  0  0  0  0
   58.7544   34.8686   47.8127 H   0  0  0  0  0  0  0  0  0  0  0  0
   60.2857   34.3546   49.5008 H   0  0  0  0  0  0  0  0  0  0  0  0
   62.4487   33.3300   50.2047 H   0  0  0  0  0  0  0  0  0  0  0  0
   64.1265   32.6433   48.4871 H   0  0  0  0  0  0  0  0  0  0  0  0
   63.6359   32.9731   46.0613 H   0  0  0  0  0  0  0  0  0  0  0  0
   61.4675   33.9782   45.3471 H   0  0  0  0  0  0  0  0  0  0  0  0
  1  2  2  3
  2  3  1  0
  3  4  1  0
  4  5  1  0
  5  6  2  0
  6  7  1  0
  7  8  2  0
  8  9  1  0
  9 10  2  0
  9 11  2  0
  9 12  1  0
 12 13  1  0
 13 14  1  0
 14 15  1  0
 15 16  1  0
 16 17  1  0
  8 18  1  0
 18 19  2  0
  4 20  2  0
 20 21  1  0
 21 22  1  0
 22 23  1  0
 22 24  2  0
 21 25  2  0
 25 26  1  0
 26 27  1  0
 27 28  2  0
 27 29  1  0
 29 30  1  0
 30 31  1  0
 31 32  2  0
 32 33  1  0
 33 34  2  0
 34 35  1  0
 35 36  2  0
 25  2  1  0
 36 31  1  0
 19  5  1  0
 17 12  1  0
  1 37  1  0
  6 38  1  0
  7 39  1  0
 13 40  1  0
 13 41  1  0
 14 42  1  0
 14 43  1  0
 15 44  1  0
 16 45  1  0
 16 46  1  0
 17 47  1  0
 17 48  1  0
 18 49  1  0
 19 50  1  0
 20 51  1  0
 23 52  1  0
 26 53  1  0
 29 54  1  0
 29 55  1  0
 30 56  1  0
 30 57  1  0
 32 58  1  0
 33 59  1  0
 34 60  1  0
 35 61  1  0
 36 62  1  0
M  CHG  2   3  -1  23  -1
M  END
>  <UniqueID>  (59) 
58

>  <SMILES>  (59) 
N=c1[n-]c(-c2ccc(S(=O)(=O)N3CCNCC3)cc2)cc(C([NH-])=O)c1NC(=O)CCc1ccccc1

>  <Energy>  (59) 
81.78180954750023

>  <Genealogy>  (59) 
N=c1[n-]c(-c2ccc(S(=O)(=O)N3CCNCC3)cc2)cc(C([NH-])=O)c1NC(=O)CCc1ccccc1 (protonated)
N=c1[n-]c(-c2ccc(S(=O)(=O)N3CCNCC3)cc2)cc(C([NH-])=O)c1NC(=O)CCc1ccccc1 (3D coordinates assigned)
N=c1[n-]c(-c2ccc(S(=O)(=O)N3CCNCC3)cc2)cc(C([NH-])=O)c1NC(=O)CCc1ccccc1 (nonaromatic ring conformer: 81.78180954750023 kcal/mol)

>  <smiles>  (59) 
N=c1[nH]c(-c2ccc(S(=O)(=O)N3CCNCC3)cc2)cc(C(N)=O)c1NC(=O)CCc1ccccc1

>  <score_type>  (59) 
oracle

>  <origin>  (59) 
adg

>  <m_score__min__energy>  (59) 
-12.82

>  <m_primary>  (59) 
energy

$$$$
59:0
     RDKit          3D

 44 46  0  0  0  0  0  0  0  0999 V2000
   57.5710   31.7600   42.7470 O   0  0  0  0  0  0  0  0  0  0  0  0
   56.7140   31.0840   43.3760 C   0  0  0  0  0  0  0  0  0  0  0  0
   57.1070   29.8950   44.1610 C   0  0  0  0  0  0  0  0  0  0  0  0
   58.4640   29.5980   44.3700 C   0  0  0  0  0  0  0  0  0  0  0  0
   58.8370   28.4860   45.1280 C   0  0  0  0  0  0  0  0  0  0  0  0
   57.8620   27.6570   45.7060 C   0  0  0  0  0  0  0  0  0  0  0  0
   58.2910   26.5390   46.5790 C   0  0  0  0  0  0  0  0  0  0  0  0
   57.6600   25.4500   46.5260 O   0  0  0  0  0  0  0  0  0  0  0  0
   59.4180   26.6470   47.5350 C   0  0  0  0  0  0  0  0  0  0  0  0
   59.4720   27.4760   48.5910 C   0  0  0  0  0  0  0  0  0  0  0  0
   59.8850   28.8940   48.5310 C   0  0  0  0  0  0  0  0  0  0  0  0
   60.7700   29.3420   47.5380 C   0  0  0  0  0  0  0  0  0  0  0  0
   61.1160   30.6920   47.4550 C   0  0  0  0  0  0  0  0  0  0  0  0
   60.6050   31.6150   48.3860 C   0  0  0  0  0  0  0  0  0  0  0  0
   60.9060   32.9850   48.3400 O   0  0  0  0  0  0  0  0  0  0  0  0
   59.9460   34.0430   48.3870 C   0  0  0  0  0  0  0  0  0  0  0  0
   59.0800   34.0360   47.1560 C   0  0  0  0  0  0  0  0  0  0  0  0
   59.5010   34.6850   45.9830 C   0  0  0  0  0  0  0  0  0  0  0  0
   58.6960   34.6650   44.8400 C   0  0  0  0  0  0  0  0  0  0  0  0
   57.4730   33.9890   44.8550 C   0  0  0  0  0  0  0  0  0  0  0  0
   57.0540   33.3290   46.0130 C   0  0  0  0  0  0  0  0  0  0  0  0
   57.8550   33.3470   47.1590 C   0  0  0  0  0  0  0  0  0  0  0  0
   59.7590   31.1580   49.4030 C   0  0  0  0  0  0  0  0  0  0  0  0
   59.4030   29.8080   49.4840 C   0  0  0  0  0  0  0  0  0  0  0  0
   58.5520   29.3860   50.5000 O   0  0  0  0  0  0  0  0  0  0  0  0
   56.5010   27.9260   45.4620 C   0  0  0  0  0  0  0  0  0  0  0  0
   55.5140   27.0840   45.9640 O   0  0  0  0  0  0  0  0  0  0  0  0
   56.1270   29.0440   44.7040 C   0  0  0  0  0  0  0  0  0  0  0  0
   54.7750   29.3010   44.4960 O   0  0  0  0  0  0  0  0  0  0  0  0
   55.6562   31.3835   43.3404 H   0  0  0  0  0  0  0  0  0  0  0  0
   59.2383   30.2460   43.9335 H   0  0  0  0  0  0  0  0  0  0  0  0
   59.9032   28.2576   45.2735 H   0  0  0  0  0  0  0  0  0  0  0  0
   60.2853   25.9919   47.3655 H   0  0  0  0  0  0  0  0  0  0  0  0
   59.1879   27.0694   49.5728 H   0  0  0  0  0  0  0  0  0  0  0  0
   61.1939   28.6244   46.8201 H   0  0  0  0  0  0  0  0  0  0  0  0
   61.7915   31.0358   46.6578 H   0  0  0  0  0  0  0  0  0  0  0  0
   59.3104   33.9137   49.2754 H   0  0  0  0  0  0  0  0  0  0  0  0
   60.4818   35.0025   48.4349 H   0  0  0  0  0  0  0  0  0  0  0  0
   60.4671   35.2106   45.9639 H   0  0  0  0  0  0  0  0  0  0  0  0
   59.0260   35.1824   43.9271 H   0  0  0  0  0  0  0  0  0  0  0  0
   56.8403   33.9765   43.9553 H   0  0  0  0  0  0  0  0  0  0  0  0
   56.0927   32.7945   46.0232 H   0  0  0  0  0  0  0  0  0  0  0  0
   57.5251   32.8199   48.0664 H   0  0  0  0  0  0  0  0  0  0  0  0
   59.3697   31.8687   50.1469 H   0  0  0  0  0  0  0  0  0  0  0  0
  1  2  2  0
  2  3  1  0
  3  4  2  0
  4  5  1  0
  5  6  2  0
  6  7  1  0
  7  8  2  0
  7  9  1  0
  9 10  2  3
 10 11  1  0
 11 12  2  0
 12 13  1  0
 13 14  2  0
 14 15  1  0
 15 16  1  0
 16 17  1  0
 17 18  2  0
 18 19  1  0
 19 20  2  0
 20 21  1  0
 21 22  2  0
 14 23  1  0
 23 24  2  0
 24 25  1  0
  6 26  1  0
 26 27  1  0
 26 28  2  0
 28 29  1  0
 28  3  1  0
 24 11  1  0
 22 17  1  0
  2 30  1  0
  4 31  1  0
  5 32  1  0
  9 33  1  0
 10 34  1  0
 12 35  1  0
 13 36  1  0
 16 37  1  0
 16 38  1  0
 18 39  1  0
 19 40  1  0
 20 41  1  0
 21 42  1  0
 22 43  1  0
 23 44  1  0
M  CHG  3  25  -1  27  -1  29  -1
M  END
>  <UniqueID>  (60) 
59

>  <SMILES>  (60) 
O=Cc1ccc(C(=O)C=Cc2ccc(OCc3ccccc3)cc2[O-])c([O-])c1[O-]

>  <Energy>  (60) 
59.411001822816985

>  <Genealogy>  (60) 
O=Cc1ccc(C(=O)C=Cc2ccc(OCc3ccccc3)cc2[O-])c([O-])c1[O-] (protonated)
O=Cc1ccc(C(=O)C=Cc2ccc(OCc3ccccc3)cc2[O-])c([O-])c1[O-] (3D coordinates assigned)
O=Cc1ccc(C(=O)C=Cc2ccc(OCc3ccccc3)cc2[O-])c([O-])c1[O-] (optimized conformer: 59.411001822816985 kcal/mol)

>  <smiles>  (60) 
O=Cc1ccc(C(=O)C=Cc2ccc(OCc3ccccc3)cc2O)c(O)c1O

>  <score_type>  (60) 
oracle

>  <origin>  (60) 
adg

>  <m_score__min__energy>  (60) 
-17.149999999999999

>  <m_primary>  (60) 
energy

$$$$
60:0
     RDKit          3D

 73 77  0  0  0  0  0  0  0  0999 V2000
   60.6830   28.9620   44.9430 C   0  0  0  0  0  0  0  0  0  0  0  0
   59.4400   28.2000   45.3140 C   0  0  0  0  0  0  0  0  0  0  0  0
   59.5480   27.0000   46.0330 C   0  0  0  0  0  0  0  0  0  0  0  0
   58.4070   26.2730   46.3750 C   0  0  0  0  0  0  0  0  0  0  0  0
   57.1330   26.7300   45.9990 C   0  0  0  0  0  0  0  0  0  0  0  0
   55.9210   25.9650   46.3650 C   0  0  0  0  0  0  0  0  0  0  0  0
   54.7850   26.3360   45.9690 O   0  0  0  0  0  0  0  0  0  0  0  0
   56.0160   24.8380   47.1780 O   0  0  0  0  0  0  0  0  0  0  0  0
   57.0230   27.9370   45.2890 C   0  0  0  0  0  0  0  0  0  0  0  0
   58.1700   28.6670   44.9230 C   0  0  0  0  0  0  0  0  0  0  0  0
   58.0650   29.9300   44.2480 N   0  0  0  0  0  0  0  0  0  0  0  0
   57.3760   31.0940   44.7230 C   0  0  0  0  0  0  0  0  0  0  0  0
   56.1170   31.1530   44.6790 O   0  0  0  0  0  0  0  0  0  0  0  0
   58.1530   32.2530   45.2110 C   0  0  0  0  0  0  0  0  0  0  0  0
   58.1650   33.4210   44.4330 C   0  0  0  0  0  0  0  0  0  0  0  0
   58.8640   34.5500   44.8570 C   0  0  0  0  0  0  0  0  0  0  0  0
   59.5500   34.5360   46.0680 C   0  0  0  0  0  0  0  0  0  0  0  0
   59.5590   33.3850   46.8700 C   0  0  0  0  0  0  0  0  0  0  0  0
   60.3050   33.4320   48.1460 C   0  0  0  0  0  0  0  0  0  0  0  0
   59.6460   33.5960   49.3680 C   0  0  0  0  0  0  0  0  0  0  0  0
   60.3590   33.6110   50.5340 N   0  0  0  0  0  0  0  0  0  0  0  0
   59.6560   33.8040   51.8080 C   0  0  0  0  0  0  0  0  0  0  0  0
   61.7230   33.4640   50.5160 C   0  0  0  0  0  0  0  0  0  0  0  0
   62.3700   33.5250   51.5980 O   0  0  0  0  0  0  0  0  0  0  0  0
   62.3910   33.2910   49.2760 C   0  0  0  0  0  0  0  0  0  0  0  0
   63.6830   33.1250   49.1600 N   0  0  0  0  0  0  0  0  0  0  0  0
   64.5470   32.2650   49.9170 C   0  0  0  0  0  0  0  0  0  0  0  0
   65.8930   32.6070   50.1180 C   0  0  0  0  0  0  0  0  0  0  0  0
   66.6960   31.8380   50.9630 C   0  0  0  0  0  0  0  0  0  0  0  0
   66.1610   30.7220   51.6230 C   0  0  0  0  0  0  0  0  0  0  0  0
   67.1650   29.7680   52.7180 S   0  0  0  0  0  0  0  0  0  0  0  0
   66.3250   29.2880   53.8710 O   0  0  0  0  0  0  0  0  0  0  0  0
   68.2600   30.6390   53.2730 O   0  0  0  0  0  0  0  0  0  0  0  0
   67.8710   28.3860   51.9120 N   0  0  0  0  0  0  0  0  0  0  0  0
   67.2110   27.1240   52.3160 C   0  0  0  0  0  0  0  0  0  0  0  0
   66.3170   26.5480   51.2080 C   0  0  0  0  0  0  0  0  0  0  0  0
   67.0880   26.2880   49.9800 N   0  0  0  0  0  0  0  0  0  0  0  0
   68.1380   27.2870   49.7050 C   0  0  0  0  0  0  0  0  0  0  0  0
   67.9070   28.6070   50.4520 C   0  0  0  0  0  0  0  0  0  0  0  0
   64.8110   30.3900   51.4330 C   0  0  0  0  0  0  0  0  0  0  0  0
   64.0060   31.1670   50.5950 C   0  0  0  0  0  0  0  0  0  0  0  0
   61.6550   33.3080   48.1370 N   0  0  0  0  0  0  0  0  0  0  0  0
   58.8970   32.2100   46.4230 C   0  0  0  0  0  0  0  0  0  0  0  0
   59.0120   30.9160   47.2030 C   0  0  0  0  0  0  0  0  0  0  0  0
   61.2040   29.2814   45.8576 H   0  0  0  0  0  0  0  0  0  0  0  0
   61.3463   28.3152   44.3500 H   0  0  0  0  0  0  0  0  0  0  0  0
   60.4075   29.8466   44.3500 H   0  0  0  0  0  0  0  0  0  0  0  0
   60.5403   26.6292   46.3296 H   0  0  0  0  0  0  0  0  0  0  0  0
   58.5059   25.3360   46.9427 H   0  0  0  0  0  0  0  0  0  0  0  0
   56.0276   28.3169   45.0153 H   0  0  0  0  0  0  0  0  0  0  0  0
   57.6174   33.4458   43.4793 H   0  0  0  0  0  0  0  0  0  0  0  0
   58.8735   35.4553   44.2323 H   0  0  0  0  0  0  0  0  0  0  0  0
   60.0899   35.4354   46.3991 H   0  0  0  0  0  0  0  0  0  0  0  0
   58.5525   33.7131   49.3911 H   0  0  0  0  0  0  0  0  0  0  0  0
   60.3484   33.6139   52.6413 H   0  0  0  0  0  0  0  0  0  0  0  0
   59.2842   34.8375   51.8687 H   0  0  0  0  0  0  0  0  0  0  0  0
   58.8086   33.1053   51.8687 H   0  0  0  0  0  0  0  0  0  0  0  0
   66.3173   33.4844   49.6079 H   0  0  0  0  0  0  0  0  0  0  0  0
   67.7518   32.1085   51.1115 H   0  0  0  0  0  0  0  0  0  0  0  0
   67.9862   26.3841   52.5644 H   0  0  0  0  0  0  0  0  0  0  0  0
   66.5701   27.3440   53.1825 H   0  0  0  0  0  0  0  0  0  0  0  0
   65.8736   25.6046   51.5593 H   0  0  0  0  0  0  0  0  0  0  0  0
   65.5328   27.2838   50.9766 H   0  0  0  0  0  0  0  0  0  0  0  0
   66.4190   26.2740   49.1760 H   0  0  0  0  0  0  0  0  0  0  0  0
   69.1086   26.8722   50.0146 H   0  0  0  0  0  0  0  0  0  0  0  0
   68.1154   27.5059   48.6272 H   0  0  0  0  0  0  0  0  0  0  0  0
   68.7238   29.3039   50.2131 H   0  0  0  0  0  0  0  0  0  0  0  0
   66.9403   29.0258   50.1356 H   0  0  0  0  0  0  0  0  0  0  0  0
   64.3845   29.5150   51.9454 H   0  0  0  0  0  0  0  0  0  0  0  0
   62.9430   30.9143   50.4680 H   0  0  0  0  0  0  0  0  0  0  0  0
   58.9926   31.1346   48.2809 H   0  0  0  0  0  0  0  0  0  0  0  0
   58.1688   30.2575   46.9472 H   0  0  0  0  0  0  0  0  0  0  0  0
   59.9581   30.4165   46.9472 H   0  0  0  0  0  0  0  0  0  0  0  0
  1  2  1  0
  2  3  2  0
  3  4  1  0
  4  5  2  0
  5  6  1  0
  6  7  2  0
  6  8  1  0
  5  9  1  0
  9 10  2  0
 10 11  1  0
 11 12  1  0
 12 13  2  0
 12 14  1  0
 14 15  2  0
 15 16  1  0
 16 17  2  0
 17 18  1  0
 18 19  1  0
 19 20  2  0
 20 21  1  0
 21 22  1  0
 21 23  1  0
 23 24  2  0
 23 25  1  0
 25 26  2  3
 26 27  1  0
 27 28  2  0
 28 29  1  0
 29 30  2  0
 30 31  1  0
 31 32  2  0
 31 33  2  0
 31 34  1  0
 34 35  1  0
 35 36  1  0
 36 37  1  0
 37 38  1  0
 38 39  1  0
 30 40  1  0
 40 41  2  0
 25 42  1  0
 18 43  2  0
 43 44  1  0
 10  2  1  0
 43 14  1  0
 42 19  1  0
 41 27  1  0
 39 34  1  0
  1 45  1  0
  1 46  1  0
  1 47  1  0
  3 48  1  0
  4 49  1  0
  9 50  1  0
 15 51  1  0
 16 52  1  0
 17 53  1  0
 20 54  1  0
 22 55  1  0
 22 56  1  0
 22 57  1  0
 28 58  1  0
 29 59  1  0
 35 60  1  0
 35 61  1  0
 36 62  1  0
 36 63  1  0
 37 64  1  0
 38 65  1  0
 38 66  1  0
 39 67  1  0
 39 68  1  0
 40 69  1  0
 41 70  1  0
 44 71  1  0
 44 72  1  0
 44 73  1  0
M  CHG  3   8  -1  11  -1  42  -1
M  END
>  <UniqueID>  (61) 
60

>  <SMILES>  (61) 
Cc1ccc(C(=O)[O-])cc1[N-]C(=O)c1cccc(-c2cn(C)c(=O)c(=Nc3ccc(S(=O)(=O)N4CCNCC4)cc3)[n-]2)c1C

>  <Energy>  (61) 
120.30065282547528

>  <Genealogy>  (61) 
Cc1ccc(C(=O)[O-])cc1[N-]C(=O)c1cccc(-c2cn(C)c(=O)c(=Nc3ccc(S(=O)(=O)N4CCNCC4)cc3)[n-]2)c1C (protonated)
Cc1ccc(C(=O)[O-])cc1[N-]C(=O)c1cccc(-c2cn(C)c(=O)c(=Nc3ccc(S(=O)(=O)N4CCNCC4)cc3)[n-]2)c1C (3D coordinates assigned)
Cc1ccc(C(=O)[O-])cc1[N-]C(=O)c1cccc(-c2cn(C)c(=O)c(=Nc3ccc(S(=O)(=O)N4CCNCC4)cc3)[n-]2)c1C (nonaromatic ring conformer: 120.30065282547528 kcal/mol)

>  <smiles>  (61) 
Cc1ccc(C(=O)O)cc1NC(=O)c1cccc(-c2cn(C)c(=O)c(=Nc3ccc(S(=O)(=O)N4CCNCC4)cc3)[nH]2)c1C

>  <score_type>  (61) 
oracle

>  <origin>  (61) 
adg

>  <m_score__min__energy>  (61) 
-18.530000000000001

>  <m_primary>  (61) 
energy

$$$$
61:0
     RDKit          3D

 60 64  0  0  0  0  0  0  0  0999 V2000
   57.2400   33.3620   46.3450 C   0  0  0  0  0  0  0  0  0  0  0  0
   57.8620   33.0230   45.0150 C   0  0  0  0  0  0  0  0  0  0  0  0
   58.8930   33.9700   44.4520 C   0  0  0  0  0  0  0  0  0  0  0  0
   57.4450   31.9270   44.3400 C   0  0  0  0  0  0  0  0  0  0  0  0
   58.2570   30.6650   44.1710 C   0  0  0  0  0  0  0  0  0  0  0  0
   58.5730   30.0180   45.5060 C   0  0  0  0  0  0  0  0  0  0  0  0
   57.9010   28.8390   45.8830 C   0  0  0  0  0  0  0  0  0  0  0  0
   56.9830   28.2840   44.9850 O   0  0  0  0  0  0  0  0  0  0  0  0
   58.1590   28.2410   47.1390 C   0  0  0  0  0  0  0  0  0  0  0  0
   57.3970   27.0020   47.5800 C   0  0  0  0  0  0  0  0  0  0  0  0
   57.5200   25.8690   46.5830 C   0  0  0  0  0  0  0  0  0  0  0  0
   58.7620   25.2440   46.3800 C   0  0  0  0  0  0  0  0  0  0  0  0
   58.9010   24.2100   45.4560 C   0  0  0  0  0  0  0  0  0  0  0  0
   57.8050   23.7940   44.6940 C   0  0  0  0  0  0  0  0  0  0  0  0
   57.9420   22.7570   43.7580 C   0  0  0  0  0  0  0  0  0  0  0  0
   56.8440   22.3490   42.9930 C   0  0  0  0  0  0  0  0  0  0  0  0
   55.6070   22.9750   43.1530 C   0  0  0  0  0  0  0  0  0  0  0  0
   55.4550   24.0090   44.0810 C   0  0  0  0  0  0  0  0  0  0  0  0
   56.5480   24.4300   44.8620 C   0  0  0  0  0  0  0  0  0  0  0  0
   56.4140   25.4720   45.8010 C   0  0  0  0  0  0  0  0  0  0  0  0
   55.1870   26.1140   45.9540 O   0  0  0  0  0  0  0  0  0  0  0  0
   59.1160   28.8190   48.0010 C   0  0  0  0  0  0  0  0  0  0  0  0
   59.3520   28.2400   49.2460 O   0  0  0  0  0  0  0  0  0  0  0  0
   59.8300   29.9730   47.6080 C   0  0  0  0  0  0  0  0  0  0  0  0
   60.8230   30.5700   48.4190 C   0  0  0  0  0  0  0  0  0  0  0  0
   61.1030   30.0950   49.5540 O   0  0  0  0  0  0  0  0  0  0  0  0
   61.4990   31.7160   47.9630 C   0  0  0  0  0  0  0  0  0  0  0  0
   62.5750   32.3580   48.7570 C   0  0  0  0  0  0  0  0  0  0  0  0
   62.2690   33.3710   49.6830 C   0  0  0  0  0  0  0  0  0  0  0  0
   63.2840   33.9680   50.4360 C   0  0  0  0  0  0  0  0  0  0  0  0
   64.6110   33.5580   50.2760 C   0  0  0  0  0  0  0  0  0  0  0  0
   65.6190   34.1540   51.0270 O   0  0  0  0  0  0  0  0  0  0  0  0
   64.9240   32.5480   49.3640 C   0  0  0  0  0  0  0  0  0  0  0  0
   63.9100   31.9460   48.6090 C   0  0  0  0  0  0  0  0  0  0  0  0
   61.1400   32.2450   46.7200 C   0  0  0  0  0  0  0  0  0  0  0  0
   60.2040   31.6650   45.9810 O   0  0  0  0  0  0  0  0  0  0  0  0
   59.5480   30.5710   46.3580 C   0  0  0  0  0  0  0  0  0  0  0  0
   57.8924   33.0064   47.1562 H   0  0  0  0  0  0  0  0  0  0  0  0
   57.1166   34.4521   46.4249 H   0  0  0  0  0  0  0  0  0  0  0  0
   56.2570   32.8749   46.4249 H   0  0  0  0  0  0  0  0  0  0  0  0
   59.4285   34.4619   45.2774 H   0  0  0  0  0  0  0  0  0  0  0  0
   59.6086   33.4078   43.8341 H   0  0  0  0  0  0  0  0  0  0  0  0
   58.3935   34.7307   43.8341 H   0  0  0  0  0  0  0  0  0  0  0  0
   56.4451   31.9573   43.8826 H   0  0  0  0  0  0  0  0  0  0  0  0
   57.6861   29.9535   43.5563 H   0  0  0  0  0  0  0  0  0  0  0  0
   59.2075   30.9313   43.6856 H   0  0  0  0  0  0  0  0  0  0  0  0
   56.7190   27.3090   44.9780 H   0  0  0  0  0  0  0  0  0  0  0  0
   57.7966   26.6665   48.5484 H   0  0  0  0  0  0  0  0  0  0  0  0
   56.3329   27.2699   47.6568 H   0  0  0  0  0  0  0  0  0  0  0  0
   59.6369   25.5755   46.9585 H   0  0  0  0  0  0  0  0  0  0  0  0
   59.8768   23.7192   45.3257 H   0  0  0  0  0  0  0  0  0  0  0  0
   58.9161   22.2634   43.6255 H   0  0  0  0  0  0  0  0  0  0  0  0
   56.9559   21.5330   42.2638 H   0  0  0  0  0  0  0  0  0  0  0  0
   54.7479   22.6532   42.5461 H   0  0  0  0  0  0  0  0  0  0  0  0
   54.4763   24.4964   44.2017 H   0  0  0  0  0  0  0  0  0  0  0  0
   61.2262   33.6951   49.8154 H   0  0  0  0  0  0  0  0  0  0  0  0
   63.0381   34.7623   51.1562 H   0  0  0  0  0  0  0  0  0  0  0  0
   65.9680   32.2250   49.2386 H   0  0  0  0  0  0  0  0  0  0  0  0
   64.1600   31.1463   47.8963 H   0  0  0  0  0  0  0  0  0  0  0  0
   61.6396   33.1527   46.3506 H   0  0  0  0  0  0  0  0  0  0  0  0
  1  2  1  0
  2  3  1  0
  2  4  2  3
  4  5  1  0
  5  6  1  0
  6  7  2  0
  7  8  1  0
  7  9  1  0
  9 10  1  0
 10 11  1  0
 11 12  2  0
 12 13  1  0
 13 14  2  0
 14 15  1  0
 15 16  2  0
 16 17  1  0
 17 18  2  0
 18 19  1  0
 19 20  2  0
 20 21  1  0
  9 22  2  0
 22 23  1  0
 22 24  1  0
 24 25  1  0
 25 26  2  0
 25 27  1  0
 27 28  1  0
 28 29  2  0
 29 30  1  0
 30 31  2  0
 31 32  1  0
 31 33  1  0
 33 34  2  0
 27 35  2  0
 35 36  1  0
 36 37  1  0
 37  6  1  0
 20 11  1  0
 37 24  2  0
 19 14  1  0
 34 28  1  0
  1 38  1  0
  1 39  1  0
  1 40  1  0
  3 41  1  0
  3 42  1  0
  3 43  1  0
  4 44  1  0
  5 45  1  0
  5 46  1  0
  8 47  1  0
 10 48  1  0
 10 49  1  0
 12 50  1  0
 13 51  1  0
 15 52  1  0
 16 53  1  0
 17 54  1  0
 18 55  1  0
 29 56  1  0
 30 57  1  0
 33 58  1  0
 34 59  1  0
 35 60  1  0
M  CHG  3  21  -1  23  -1  32  -1
M  END
>  <UniqueID>  (62) 
61

>  <SMILES>  (62) 
CC(C)=CCc1c(O)c(Cc2ccc3ccccc3c2[O-])c([O-])c2c(=O)c(-c3ccc([O-])cc3)coc12

>  <Energy>  (62) 
85.97764896196229

>  <Genealogy>  (62) 
CC(C)=CCc1c(O)c(Cc2ccc3ccccc3c2[O-])c([O-])c2c(=O)c(-c3ccc([O-])cc3)coc12 (protonated)
CC(C)=CCc1c(O)c(Cc2ccc3ccccc3c2[O-])c([O-])c2c(=O)c(-c3ccc([O-])cc3)coc12 (3D coordinates assigned)
CC(C)=CCc1c(O)c(Cc2ccc3ccccc3c2[O-])c([O-])c2c(=O)c(-c3ccc([O-])cc3)coc12 (optimized conformer: 85.97764896196229 kcal/mol)

>  <smiles>  (62) 
CC(C)=CCc1c(O)c(Cc2ccc3ccccc3c2O)c(O)c2c(=O)c(-c3ccc(O)cc3)coc12

>  <score_type>  (62) 
oracle

>  <origin>  (62) 
adg

>  <m_score__min__energy>  (62) 
-14.43

>  <m_primary>  (62) 
energy

$$$$
62:0
     RDKit          3D

 47 50  0  0  0  0  0  0  0  0999 V2000
   58.1290   32.3180   49.6640 C   0  0  0  0  0  0  0  0  0  0  0  0
   58.6650   32.1500   51.0980 C   0  0  0  0  0  0  0  0  0  0  0  0
   57.8420   33.0540   52.0420 C   0  0  0  0  0  0  0  0  0  0  0  0
   58.4990   30.6860   51.5480 C   0  0  0  0  0  0  0  0  0  0  0  0
   60.1380   32.5360   51.1310 C   0  0  0  0  0  0  0  0  0  0  0  0
   61.0160   32.1560   52.1540 C   0  0  0  0  0  0  0  0  0  0  0  0
   62.5550   32.7250   51.7710 S   0  0  0  0  0  0  0  0  0  0  0  0
   62.0490   33.4120   50.3290 C   0  0  0  0  0  0  0  0  0  0  0  0
   62.8400   34.0390   49.5090 N   0  0  0  0  0  0  0  0  0  0  0  0
   62.8670   33.8870   48.0790 C   0  0  0  0  0  0  0  0  0  0  0  0
   63.9350   34.1560   47.4670 O   0  0  0  0  0  0  0  0  0  0  0  0
   61.7010   33.3950   47.3070 C   0  0  0  0  0  0  0  0  0  0  0  0
   60.9680   34.2720   46.5040 C   0  0  0  0  0  0  0  0  0  0  0  0
   59.8450   33.8170   45.8220 C   0  0  0  0  0  0  0  0  0  0  0  0
   59.4540   32.4820   45.9430 C   0  0  0  0  0  0  0  0  0  0  0  0
   58.3360   32.0610   45.2980 N   0  0  0  0  0  0  0  0  0  0  0  0
   57.9040   30.7820   45.3910 C   0  0  0  0  0  0  0  0  0  0  0  0
   56.7460   30.3870   44.7160 C   0  0  0  0  0  0  0  0  0  0  0  0
   56.2910   29.0700   44.8120 C   0  0  0  0  0  0  0  0  0  0  0  0
   56.9910   28.1260   45.5850 C   0  0  0  0  0  0  0  0  0  0  0  0
   56.5070   26.7280   45.6870 C   0  0  0  0  0  0  0  0  0  0  0  0
   55.1450   26.4550   46.0130 N   0  0  0  0  0  0  0  0  0  0  0  0
   57.2960   25.7650   45.4880 O   0  0  0  0  0  0  0  0  0  0  0  0
   58.1570   28.5280   46.2630 C   0  0  0  0  0  0  0  0  0  0  0  0
   58.6200   29.8560   46.1690 C   0  0  0  0  0  0  0  0  0  0  0  0
   59.7800   30.2960   46.8320 C   0  0  0  0  0  0  0  0  0  0  0  0
   60.4390   29.4820   47.5400 O   0  0  0  0  0  0  0  0  0  0  0  0
   60.1870   31.6040   46.7130 N   0  0  0  0  0  0  0  0  0  0  0  0
   61.3110   32.0470   47.3670 C   0  0  0  0  0  0  0  0  0  0  0  0
   60.7250   33.2410   50.1260 N   0  0  0  0  0  0  0  0  0  0  0  0
   57.0799   32.6468   49.7009 H   0  0  0  0  0  0  0  0  0  0  0  0
   58.7307   33.0706   49.1335 H   0  0  0  0  0  0  0  0  0  0  0  0
   58.1935   31.3566   49.1335 H   0  0  0  0  0  0  0  0  0  0  0  0
   58.0733   32.7999   53.0869 H   0  0  0  0  0  0  0  0  0  0  0  0
   58.0974   34.1076   51.8557 H   0  0  0  0  0  0  0  0  0  0  0  0
   56.7691   32.8983   51.8557 H   0  0  0  0  0  0  0  0  0  0  0  0
   58.4936   30.6386   52.6470 H   0  0  0  0  0  0  0  0  0  0  0  0
   57.5500   30.2882   51.1592 H   0  0  0  0  0  0  0  0  0  0  0  0
   59.3349   30.0859   51.1592 H   0  0  0  0  0  0  0  0  0  0  0  0
   60.7467   31.5837   53.0540 H   0  0  0  0  0  0  0  0  0  0  0  0
   61.2793   35.3229   46.4112 H   0  0  0  0  0  0  0  0  0  0  0  0
   59.2666   34.5063   45.1893 H   0  0  0  0  0  0  0  0  0  0  0  0
   56.1909   31.1157   44.1070 H   0  0  0  0  0  0  0  0  0  0  0  0
   55.3775   28.7684   44.2786 H   0  0  0  0  0  0  0  0  0  0  0  0
   54.6130   27.0770   46.6610 H   0  0  0  0  0  0  0  0  0  0  0  0
   58.7121   27.7992   46.8718 H   0  0  0  0  0  0  0  0  0  0  0  0
   61.9155   31.3343   47.9472 H   0  0  0  0  0  0  0  0  0  0  0  0
  1  2  1  0
  2  3  1  0
  2  4  1  0
  2  5  1  0
  5  6  2  0
  6  7  1  0
  7  8  1  0
  8  9  2  3
  9 10  1  0
 10 11  2  0
 10 12  1  0
 12 13  1  0
 13 14  2  0
 14 15  1  0
 15 16  2  0
 16 17  1  0
 17 18  2  0
 18 19  1  0
 19 20  2  0
 20 21  1  0
 21 22  1  0
 21 23  2  0
 20 24  1  0
 24 25  2  0
 25 26  1  0
 26 27  2  0
 26 28  1  0
 28 29  1  0
  8 30  1  0
 30  5  1  0
 29 12  2  0
 28 15  1  0
 25 17  1  0
  1 31  1  0
  1 32  1  0
  1 33  1  0
  3 34  1  0
  3 35  1  0
  3 36  1  0
  4 37  1  0
  4 38  1  0
  4 39  1  0
  6 40  1  0
 13 41  1  0
 14 42  1  0
 18 43  1  0
 19 44  1  0
 22 45  1  0
 24 46  1  0
 29 47  1  0
M  CHG  2  22  -1  30  -1
M  END
>  <UniqueID>  (63) 
62

>  <SMILES>  (63) 
CC(C)(C)c1csc(=NC(=O)c2ccc3nc4ccc(C([NH-])=O)cc4c(=O)n3c2)[n-]1

>  <Energy>  (63) 
92.42337810324369

>  <Genealogy>  (63) 
CC(C)(C)c1csc(=NC(=O)c2ccc3nc4ccc(C([NH-])=O)cc4c(=O)n3c2)[n-]1 (protonated)
CC(C)(C)c1csc(=NC(=O)c2ccc3nc4ccc(C([NH-])=O)cc4c(=O)n3c2)[n-]1 (3D coordinates assigned)
CC(C)(C)c1csc(=NC(=O)c2ccc3nc4ccc(C([NH-])=O)cc4c(=O)n3c2)[n-]1 (optimized conformer: 92.42337810324369 kcal/mol)

>  <smiles>  (63) 
CC(C)(C)c1csc(=NC(=O)c2ccc3nc4ccc(C(N)=O)cc4c(=O)n3c2)[nH]1

>  <score_type>  (63) 
oracle

>  <origin>  (63) 
adg

>  <m_score__min__energy>  (63) 
-12.109999999999999

>  <m_primary>  (63) 
energy

$$$$
63:0
     RDKit          3D

 30 32  0  0  0  0  0  0  0  0999 V2000
   57.7490   27.8340   46.4670 O   0  0  0  0  0  0  0  0  0  0  0  0
   56.6560   27.4900   45.9430 C   0  0  0  0  0  0  0  0  0  0  0  0
   55.8950   28.4790   45.2340 N   0  0  0  0  0  0  0  0  0  0  0  0
   56.4260   29.6000   44.5120 C   0  0  0  0  0  0  0  0  0  0  0  0
   56.2450   29.6590   43.1280 C   0  0  0  0  0  0  0  0  0  0  0  0
   56.7350   30.7440   42.3990 C   0  0  0  0  0  0  0  0  0  0  0  0
   57.4020   31.7850   43.0500 C   0  0  0  0  0  0  0  0  0  0  0  0
   57.5800   31.7580   44.4470 C   0  0  0  0  0  0  0  0  0  0  0  0
   58.2790   32.8560   45.1660 C   0  0  0  0  0  0  0  0  0  0  0  0
   58.9410   33.9190   44.5370 C   0  0  0  0  0  0  0  0  0  0  0  0
   59.6010   34.9140   45.7240 S   0  0  0  0  0  0  0  0  0  0  0  0
   59.0240   33.9600   46.9730 C   0  0  0  0  0  0  0  0  0  0  0  0
   59.2060   34.1990   48.1940 O   0  0  0  0  0  0  0  0  0  0  0  0
   58.3360   32.8900   46.5280 N   0  0  0  0  0  0  0  0  0  0  0  0
   57.0680   30.6640   45.1720 C   0  0  0  0  0  0  0  0  0  0  0  0
   56.1570   26.1110   46.1300 C   0  0  0  0  0  0  0  0  0  0  0  0
   56.9810   25.1140   46.6770 C   0  0  0  0  0  0  0  0  0  0  0  0
   56.4770   23.8200   46.8450 C   0  0  0  0  0  0  0  0  0  0  0  0
   57.2080   22.9140   47.3280 O   0  0  0  0  0  0  0  0  0  0  0  0
   55.1620   23.5330   46.4740 C   0  0  0  0  0  0  0  0  0  0  0  0
   54.3670   24.5500   45.9430 C   0  0  0  0  0  0  0  0  0  0  0  0
   54.8740   25.8010   45.7880 N   0  0  0  0  0  0  0  0  0  0  0  0
   55.7139   28.8467   42.6103 H   0  0  0  0  0  0  0  0  0  0  0  0
   56.5956   30.7795   41.3085 H   0  0  0  0  0  0  0  0  0  0  0  0
   57.7913   32.6325   42.4668 H   0  0  0  0  0  0  0  0  0  0  0  0
   59.0167   34.0767   43.4510 H   0  0  0  0  0  0  0  0  0  0  0  0
   57.1713   30.6413   46.2669 H   0  0  0  0  0  0  0  0  0  0  0  0
   58.0146   25.3488   46.9710 H   0  0  0  0  0  0  0  0  0  0  0  0
   54.7574   22.5177   46.5986 H   0  0  0  0  0  0  0  0  0  0  0  0
   53.3282   24.3383   45.6495 H   0  0  0  0  0  0  0  0  0  0  0  0
  1  2  2  0
  2  3  1  0
  3  4  1  0
  4  5  2  0
  5  6  1  0
  6  7  2  0
  7  8  1  0
  8  9  1  0
  9 10  2  0
 10 11  1  0
 11 12  1  0
 12 13  2  0
 12 14  1  0
  8 15  2  0
  2 16  1  0
 16 17  2  0
 17 18  1  0
 18 19  2  0
 18 20  1  0
 20 21  2  0
 21 22  1  0
 15  4  1  0
 22 16  1  0
 14  9  1  0
  5 23  1  0
  6 24  1  0
  7 25  1  0
 10 26  1  0
 15 27  1  0
 17 28  1  0
 20 29  1  0
 21 30  1  0
M  CHG  3   3  -1  14  -1  22  -1
M  END
>  <UniqueID>  (64) 
63

>  <SMILES>  (64) 
O=C([N-]c1cccc(-c2csc(=O)[n-]2)c1)c1cc(=O)cc[n-]1

>  <Energy>  (64) 
72.19946848927822

>  <Genealogy>  (64) 
O=C([N-]c1cccc(-c2csc(=O)[n-]2)c1)c1cc(=O)cc[n-]1 (protonated)
O=C([N-]c1cccc(-c2csc(=O)[n-]2)c1)c1cc(=O)cc[n-]1 (3D coordinates assigned)
O=C([N-]c1cccc(-c2csc(=O)[n-]2)c1)c1cc(=O)cc[n-]1 (optimized conformer: 72.19946848927822 kcal/mol)

>  <smiles>  (64) 
O=C(Nc1cccc(-c2csc(=O)[nH]2)c1)c1cc(=O)cc[nH]1

>  <score_type>  (64) 
oracle

>  <origin>  (64) 
adg

>  <m_score__min__energy>  (64) 
-12.43

>  <m_primary>  (64) 
energy

$$$$
64:0
     RDKit          3D

 63 66  0  0  0  0  0  0  0  0999 V2000
   54.5990   28.8770   53.3920 O   0  0  0  0  0  0  0  0  0  0  0  0
   55.1710   29.6940   52.6200 C   0  0  0  0  0  0  0  0  0  0  0  0
   56.6450   29.5780   52.3870 C   0  0  0  0  0  0  0  0  0  0  0  0
   57.0150   30.3680   51.2220 N   0  0  0  0  0  0  0  0  0  0  0  0
   57.3070   31.7680   51.2890 C   0  0  0  0  0  0  0  0  0  0  0  0
   56.6720   32.5070   52.0900 O   0  0  0  0  0  0  0  0  0  0  0  0
   58.3250   32.3550   50.3930 C   0  0  0  0  0  0  0  0  0  0  0  0
   58.0490   32.4440   49.0170 C   0  0  0  0  0  0  0  0  0  0  0  0
   59.0180   32.9120   48.1200 C   0  0  0  0  0  0  0  0  0  0  0  0
   58.6690   32.9850   46.3890 S   0  0  0  0  0  0  0  0  0  0  0  0
   59.9620   33.1040   45.6330 O   0  0  0  0  0  0  0  0  0  0  0  0
   57.8510   34.2130   46.1080 O   0  0  0  0  0  0  0  0  0  0  0  0
   57.8010   31.5820   45.8150 N   0  0  0  0  0  0  0  0  0  0  0  0
   58.6460   30.3880   45.7790 C   0  0  0  0  0  0  0  0  0  0  0  0
   58.0580   29.4730   44.7140 C   0  0  0  0  0  0  0  0  0  0  0  0
   57.1640   30.3650   43.8640 C   0  0  0  0  0  0  0  0  0  0  0  0
   57.3150   31.7600   44.4480 C   0  0  0  0  0  0  0  0  0  0  0  0
   60.2640   33.3270   48.6050 C   0  0  0  0  0  0  0  0  0  0  0  0
   60.5440   33.2670   49.9690 C   0  0  0  0  0  0  0  0  0  0  0  0
   59.5840   32.7890   50.8740 C   0  0  0  0  0  0  0  0  0  0  0  0
   59.8820   32.8220   52.2820 N   0  0  0  0  0  0  0  0  0  0  0  0
   59.5840   34.0050   53.0900 C   0  0  0  0  0  0  0  0  0  0  0  0
   58.8040   33.5790   54.3380 C   0  0  0  0  0  0  0  0  0  0  0  0
   59.4890   32.5500   55.0300 O   0  0  0  0  0  0  0  0  0  0  0  0
   59.5480   31.3850   54.2250 C   0  0  0  0  0  0  0  0  0  0  0  0
   60.3920   31.6360   52.9710 C   0  0  0  0  0  0  0  0  0  0  0  0
   54.4180   30.7420   51.9920 N   0  0  0  0  0  0  0  0  0  0  0  0
   52.9700   30.8700   52.1480 C   0  0  0  0  0  0  0  0  0  0  0  0
   52.2840   30.7790   50.8080 C   0  0  0  0  0  0  0  0  0  0  0  0
   52.5700   29.7100   49.9410 C   0  0  0  0  0  0  0  0  0  0  0  0
   51.9260   29.6130   48.7030 C   0  0  0  0  0  0  0  0  0  0  0  0
   50.9900   30.5780   48.3230 C   0  0  0  0  0  0  0  0  0  0  0  0
   50.6960   31.6420   49.1790 C   0  0  0  0  0  0  0  0  0  0  0  0
   51.3370   31.7470   50.4190 C   0  0  0  0  0  0  0  0  0  0  0  0
   51.0270   32.8120   51.2580 O   0  0  0  0  0  0  0  0  0  0  0  0
   57.1862   29.9501   53.2694 H   0  0  0  0  0  0  0  0  0  0  0  0
   56.9073   28.5238   52.2139 H   0  0  0  0  0  0  0  0  0  0  0  0
   57.0604   32.1425   48.6404 H   0  0  0  0  0  0  0  0  0  0  0  0
   59.6788   30.6613   45.5169 H   0  0  0  0  0  0  0  0  0  0  0  0
   58.6727   29.8904   46.7597 H   0  0  0  0  0  0  0  0  0  0  0  0
   58.8578   29.0329   44.1003 H   0  0  0  0  0  0  0  0  0  0  0  0
   57.4984   28.6360   45.1571 H   0  0  0  0  0  0  0  0  0  0  0  0
   57.4914   30.3497   42.8140 H   0  0  0  0  0  0  0  0  0  0  0  0
   56.1173   30.0269   43.8767 H   0  0  0  0  0  0  0  0  0  0  0  0
   58.0386   32.3431   43.8594 H   0  0  0  0  0  0  0  0  0  0  0  0
   56.3603   32.3061   44.4310 H   0  0  0  0  0  0  0  0  0  0  0  0
   61.0259   33.7023   47.9060 H   0  0  0  0  0  0  0  0  0  0  0  0
   61.5258   33.5971   50.3392 H   0  0  0  0  0  0  0  0  0  0  0  0
   60.5237   34.4909   53.3915 H   0  0  0  0  0  0  0  0  0  0  0  0
   58.9817   34.7126   52.5013 H   0  0  0  0  0  0  0  0  0  0  0  0
   58.6872   34.4464   55.0043 H   0  0  0  0  0  0  0  0  0  0  0  0
   57.8189   33.2009   54.0272 H   0  0  0  0  0  0  0  0  0  0  0  0
   59.9988   30.5670   54.8060 H   0  0  0  0  0  0  0  0  0  0  0  0
   58.5270   31.1160   53.9164 H   0  0  0  0  0  0  0  0  0  0  0  0
   61.4409   31.7996   53.2592 H   0  0  0  0  0  0  0  0  0  0  0  0
   60.3326   30.7642   52.3029 H   0  0  0  0  0  0  0  0  0  0  0  0
   54.9120   31.4240   51.3730 H   0  0  0  0  0  0  0  0  0  0  0  0
   52.6032   30.0620   52.7980 H   0  0  0  0  0  0  0  0  0  0  0  0
   52.7458   31.8491   52.5965 H   0  0  0  0  0  0  0  0  0  0  0  0
   53.3038   28.9461   50.2376 H   0  0  0  0  0  0  0  0  0  0  0  0
   52.1569   28.7758   48.0278 H   0  0  0  0  0  0  0  0  0  0  0  0
   50.4843   30.4999   47.3493 H   0  0  0  0  0  0  0  0  0  0  0  0
   49.9581   32.4001   48.8776 H   0  0  0  0  0  0  0  0  0  0  0  0
  1  2  2  0
  2  3  1  0
  3  4  1  0
  4  5  1  0
  5  6  2  0
  5  7  1  0
  7  8  2  0
  8  9  1  0
  9 10  1  0
 10 11  2  0
 10 12  2  0
 10 13  1  0
 13 14  1  0
 14 15  1  0
 15 16  1  0
 16 17  1  0
  9 18  2  0
 18 19  1  0
 19 20  2  0
 20 21  1  0
 21 22  1  0
 22 23  1  0
 23 24  1  0
 24 25  1  0
 25 26  1  0
  2 27  1  0
 27 28  1  0
 28 29  1  0
 29 30  2  0
 30 31  1  0
 31 32  2  0
 32 33  1  0
 33 34  2  0
 34 35  1  0
 20  7  1  0
 26 21  1  0
 34 29  1  0
 17 13  1  0
  3 36  1  0
  3 37  1  0
  8 38  1  0
 14 39  1  0
 14 40  1  0
 15 41  1  0
 15 42  1  0
 16 43  1  0
 16 44  1  0
 17 45  1  0
 17 46  1  0
 18 47  1  0
 19 48  1  0
 22 49  1  0
 22 50  1  0
 23 51  1  0
 23 52  1  0
 25 53  1  0
 25 54  1  0
 26 55  1  0
 26 56  1  0
 27 57  1  0
 28 58  1  0
 28 59  1  0
 30 60  1  0
 31 61  1  0
 32 62  1  0
 33 63  1  0
M  CHG  2   4  -1  35  -1
M  END
>  <UniqueID>  (65) 
64

>  <SMILES>  (65) 
O=C(C[N-]C(=O)c1cc(S(=O)(=O)N2CCCC2)ccc1N1CCOCC1)NCc1ccccc1[O-]

>  <Energy>  (65) 
70.39378555836791

>  <Genealogy>  (65) 
O=C(C[N-]C(=O)c1cc(S(=O)(=O)N2CCCC2)ccc1N1CCOCC1)NCc1ccccc1[O-] (protonated)
O=C(C[N-]C(=O)c1cc(S(=O)(=O)N2CCCC2)ccc1N1CCOCC1)NCc1ccccc1[O-] (3D coordinates assigned)
O=C(C[N-]C(=O)c1cc(S(=O)(=O)N2CCCC2)ccc1N1CCOCC1)NCc1ccccc1[O-] (nonaromatic ring conformer: 70.39378555836791 kcal/mol)

>  <smiles>  (65) 
O=C(CNC(=O)c1cc(S(=O)(=O)N2CCCC2)ccc1N1CCOCC1)NCc1ccccc1O

>  <score_type>  (65) 
oracle

>  <origin>  (65) 
adg

>  <m_score__min__energy>  (65) 
-15.33

>  <m_primary>  (65) 
energy

$$$$
66:0
     RDKit          3D

 47 50  0  0  0  0  0  0  0  0999 V2000
   57.1120   32.7000   49.6610 H   0  0  0  0  0  0  0  0  0  0  0  0
   57.6020   32.6900   48.7760 O   0  0  0  0  0  0  0  0  0  0  0  0
   58.9760   32.9090   48.6770 C   0  0  0  0  0  0  0  0  0  0  0  0
   59.6420   33.5140   49.7470 C   0  0  0  0  0  0  0  0  0  0  0  0
   59.0765   33.8219   50.6388 H   0  0  0  0  0  0  0  0  0  0  0  0
   61.0210   33.7300   49.6910 C   0  0  0  0  0  0  0  0  0  0  0  0
   61.5323   34.2136   50.5364 H   0  0  0  0  0  0  0  0  0  0  0  0
   61.7590   33.3350   48.5650 C   0  0  0  0  0  0  0  0  0  0  0  0
   63.2190   33.5560   48.4910 C   0  0  0  0  0  0  0  0  0  0  0  0
   63.7000   34.1940   47.5160 O   0  0  0  0  0  0  0  0  0  0  0  0
   64.1090   33.0240   49.4760 N   0  0  0  0  0  0  0  0  0  0  0  0
   64.0800   32.0880   50.6170 C   0  0  0  0  0  0  0  0  0  0  0  0
   63.5316   32.4898   51.4818 H   0  0  0  0  0  0  0  0  0  0  0  0
   63.5767   31.1226   50.4599 H   0  0  0  0  0  0  0  0  0  0  0  0
   65.5560   32.0570   50.8350 C   0  0  0  0  0  0  0  0  0  0  0  0
   65.9031   32.4680   51.7945 H   0  0  0  0  0  0  0  0  0  0  0  0
   66.1523   31.1335   50.8748 H   0  0  0  0  0  0  0  0  0  0  0  0
   65.5670   33.0080   49.6850 C   0  0  0  0  0  0  0  0  0  0  0  0
   65.9673   33.9961   49.9559 H   0  0  0  0  0  0  0  0  0  0  0  0
   66.1925   32.7395   48.8209 H   0  0  0  0  0  0  0  0  0  0  0  0
   61.0850   32.7470   47.4810 C   0  0  0  0  0  0  0  0  0  0  0  0
   61.6499   32.4529   46.5841 H   0  0  0  0  0  0  0  0  0  0  0  0
   59.7000   32.5310   47.5300 C   0  0  0  0  0  0  0  0  0  0  0  0
   59.0400   31.9330   46.4040 N   0  0  0  0  0  0  0  0  0  0  0  0
   58.4140   32.6020   45.4130 C   0  0  0  0  0  0  0  0  0  0  0  0
   58.2830   34.0930   45.3420 C   0  0  0  0  0  0  0  0  0  0  0  0
   58.2466   34.5068   46.3606 H   0  0  0  0  0  0  0  0  0  0  0  0
   59.1478   34.5120   44.8067 H   0  0  0  0  0  0  0  0  0  0  0  0
   57.3584   34.3548   44.8067 H   0  0  0  0  0  0  0  0  0  0  0  0
   57.9050   31.7170   44.4830 C   0  0  0  0  0  0  0  0  0  0  0  0
   57.3414   31.9713   43.5733 H   0  0  0  0  0  0  0  0  0  0  0  0
   58.2440   30.4420   44.9210 C   0  0  0  0  0  0  0  0  0  0  0  0
   57.9690   29.2850   44.2900 C   0  0  0  0  0  0  0  0  0  0  0  0
   58.1886   29.2136   43.2145 H   0  0  0  0  0  0  0  0  0  0  0  0
   57.3870   28.1040   44.9660 C   0  0  0  0  0  0  0  0  0  0  0  0
   56.0100   28.0190   45.2450 C   0  0  0  0  0  0  0  0  0  0  0  0
   55.1470   29.0490   44.8910 O   0  0  0  0  0  0  0  0  0  0  0  0
   55.5160   26.9300   45.8880 N   0  0  0  0  0  0  0  0  0  0  0  0
   56.3310   25.9200   46.2860 C   0  0  0  0  0  0  0  0  0  0  0  0
   55.8500   24.9180   46.8760 O   0  0  0  0  0  0  0  0  0  0  0  0
   57.6670   25.9930   46.0540 N   0  0  0  0  0  0  0  0  0  0  0  0
   58.2110   27.0600   45.4130 C   0  0  0  0  0  0  0  0  0  0  0  0
   59.4560   27.0940   45.2170 O   0  0  0  0  0  0  0  0  0  0  0  0
   58.9550   30.6130   46.1130 C   0  0  0  0  0  0  0  0  0  0  0  0
   59.4680   29.6420   46.8840 C   0  0  0  0  0  0  0  0  0  0  0  0
   60.0112   29.9002   47.8050 H   0  0  0  0  0  0  0  0  0  0  0  0
   59.3454   28.5877   46.5950 H   0  0  0  0  0  0  0  0  0  0  0  0
  1  2  1  0
  2  3  1  0
  3  4  2  0
  4  5  1  0
  4  6  1  0
  6  7  1  0
  6  8  2  0
  8  9  1  0
  9 10  2  0
  9 11  1  0
 11 12  1  0
 12 13  1  0
 12 14  1  0
 12 15  1  0
 15 16  1  0
 15 17  1  0
 15 18  1  0
 18 19  1  0
 18 20  1  0
  8 21  1  0
 21 22  1  0
 21 23  2  0
 23 24  1  0
 24 25  1  0
 25 26  1  0
 26 27  1  0
 26 28  1  0
 26 29  1  0
 25 30  2  0
 30 31  1  0
 30 32  1  0
 32 33  2  0
 33 34  1  0
 33 35  1  0
 35 36  2  0
 36 37  1  0
 36 38  1  0
 38 39  1  0
 39 40  2  0
 39 41  1  0
 41 42  1  0
 42 43  2  0
 32 44  1  0
 44 45  2  0
 45 46  1  0
 45 47  1  0
 23  3  1  0
 44 24  1  0
 18 11  1  0
 42 35  1  0
M  CHG  3  37  -1  38  -1  41  -1
M  END
>  <UniqueID>  (66) 
65

>  <SMILES>  (66) 
C=c1/c(=C/c2c([O-])[n-]c(=O)[n-]c2=O)cc(C)n1-c1cc(C(=O)N2CCC2)ccc1O

>  <Energy>  (66) 
142.07238656728728

>  <Genealogy>  (66) 
C=c1c(=Cc2c([O-])[n-]c(=O)[n-]c2=O)cc(C)n1-c1cc(C(=O)N2CCC2)ccc1O (protonated)
C=c1/c(=C/c2c([O-])[n-]c(=O)[n-]c2=O)cc(C)n1-c1cc(C(=O)N2CCC2)ccc1O (cis-trans isomerization)
C=c1/c(=C/c2c([O-])[n-]c(=O)[n-]c2=O)cc(C)n1-c1cc(C(=O)N2CCC2)ccc1O (3D coordinates assigned)
C=c1/c(=C/c2c([O-])[n-]c(=O)[n-]c2=O)cc(C)n1-c1cc(C(=O)N2CCC2)ccc1O (nonaromatic ring conformer: 142.07238656728728 kcal/mol)

>  <smiles>  (66) 
C=c1c(=Cc2c(O)[nH]c(=O)[nH]c2=O)cc(C)n1-c1cc(C(=O)N2CCC2)ccc1O

>  <score_type>  (66) 
oracle

>  <origin>  (66) 
adg

>  <m_score__min__energy>  (66) 
-16.609999999999999

>  <m_primary>  (66) 
energy

$$$$
67:0
     RDKit          3D

 45 47  0  0  0  0  0  0  0  0999 V2000
   62.3750   32.3090   47.1400 C   0  0  0  0  0  0  0  0  0  0  0  0
   61.5780   32.1610   48.3700 N   0  0  0  0  0  0  0  0  0  0  0  0
   62.3830   32.4410   49.5690 C   0  0  0  0  0  0  0  0  0  0  0  0
   60.3570   32.9500   48.3660 C   0  0  0  0  0  0  0  0  0  0  0  0
   59.8840   33.3310   49.4700 O   0  0  0  0  0  0  0  0  0  0  0  0
   59.6220   33.3330   47.1310 C   0  0  0  0  0  0  0  0  0  0  0  0
   59.9380   34.4980   46.4070 C   0  0  0  0  0  0  0  0  0  0  0  0
   59.1940   34.8510   45.2790 C   0  0  0  0  0  0  0  0  0  0  0  0
   58.1250   34.0550   44.8610 C   0  0  0  0  0  0  0  0  0  0  0  0
   57.7900   32.8930   45.5760 C   0  0  0  0  0  0  0  0  0  0  0  0
   56.6620   32.0830   45.2180 N   0  0  0  0  0  0  0  0  0  0  0  0
   56.6740   30.9680   44.3200 C   0  0  0  0  0  0  0  0  0  0  0  0
   57.2470   31.0610   43.2000 O   0  0  0  0  0  0  0  0  0  0  0  0
   56.0650   29.7380   44.7410 N   0  0  0  0  0  0  0  0  0  0  0  0
   56.6280   28.7680   45.4030 C   0  0  0  0  0  0  0  0  0  0  0  0
   57.9220   28.9460   45.9070 C   0  0  0  0  0  0  0  0  0  0  0  0
   58.5530   27.9060   46.6090 C   0  0  0  0  0  0  0  0  0  0  0  0
   59.9180   28.0820   47.1570 C   0  0  0  0  0  0  0  0  0  0  0  0
   60.7560   27.1460   47.0580 O   0  0  0  0  0  0  0  0  0  0  0  0
   60.2700   29.3070   47.8250 N   0  0  0  0  0  0  0  0  0  0  0  0
   60.0790   29.5780   49.0810 C   0  0  0  0  0  0  0  0  0  0  0  0
   61.0650   29.6770   50.0010 N   0  0  0  0  0  0  0  0  0  0  0  0
   60.5670   29.9650   51.2330 C   0  0  0  0  0  0  0  0  0  0  0  0
   59.1830   30.0960   51.2950 C   0  0  0  0  0  0  0  0  0  0  0  0
   58.5630   29.8430   49.7490 S   0  0  0  0  0  0  0  0  0  0  0  0
   57.8590   26.6990   46.7940 C   0  0  0  0  0  0  0  0  0  0  0  0
   56.5680   26.5580   46.2820 C   0  0  0  0  0  0  0  0  0  0  0  0
   55.8880   25.4000   46.4620 F   0  0  0  0  0  0  0  0  0  0  0  0
   55.9880   27.5830   45.6070 N   0  0  0  0  0  0  0  0  0  0  0  0
   58.5260   32.5540   46.7200 C   0  0  0  0  0  0  0  0  0  0  0  0
   63.4248   32.5039   47.4045 H   0  0  0  0  0  0  0  0  0  0  0  0
   62.3117   31.3837   46.5485 H   0  0  0  0  0  0  0  0  0  0  0  0
   61.9837   33.1498   46.5485 H   0  0  0  0  0  0  0  0  0  0  0  0
   61.2940   31.1540   48.4190 H   0  0  0  0  0  0  0  0  0  0  0  0
   61.7853   32.2331   50.4687 H   0  0  0  0  0  0  0  0  0  0  0  0
   63.2779   31.8013   49.5674 H   0  0  0  0  0  0  0  0  0  0  0  0
   62.6878   33.4979   49.5674 H   0  0  0  0  0  0  0  0  0  0  0  0
   60.7752   35.1336   46.7313 H   0  0  0  0  0  0  0  0  0  0  0  0
   59.4512   35.7608   44.7167 H   0  0  0  0  0  0  0  0  0  0  0  0
   57.5446   34.3384   43.9706 H   0  0  0  0  0  0  0  0  0  0  0  0
   58.4450   29.9014   45.7530 H   0  0  0  0  0  0  0  0  0  0  0  0
   61.2112   30.0857   52.1164 H   0  0  0  0  0  0  0  0  0  0  0  0
   58.5959   30.3249   52.1966 H   0  0  0  0  0  0  0  0  0  0  0  0
   58.3306   25.8686   47.3399 H   0  0  0  0  0  0  0  0  0  0  0  0
   58.2421   31.6662   47.3042 H   0  0  0  0  0  0  0  0  0  0  0  0
  1  2  1  0
  2  3  1  0
  2  4  1  0
  4  5  2  0
  4  6  1  0
  6  7  2  0
  7  8  1  0
  8  9  2  0
  9 10  1  0
 10 11  1  0
 11 12  1  0
 12 13  2  0
 12 14  1  0
 14 15  2  3
 15 16  1  0
 16 17  2  0
 17 18  1  0
 18 19  2  0
 18 20  1  0
 20 21  2  3
 21 22  1  0
 22 23  1  0
 23 24  2  0
 24 25  1  0
 17 26  1  0
 26 27  2  0
 27 28  1  0
 27 29  1  0
 10 30  2  0
 30  6  1  0
 29 15  1  0
 25 21  1  0
  1 31  1  0
  1 32  1  0
  1 33  1  0
  2 34  1  0
  3 35  1  0
  3 36  1  0
  3 37  1  0
  7 38  1  0
  8 39  1  0
  9 40  1  0
 16 41  1  0
 23 42  1  0
 24 43  1  0
 26 44  1  0
 30 45  1  0
M  CHG  4   2   1  11  -1  22  -1  29  -1
M  END
>  <UniqueID>  (67) 
66

>  <SMILES>  (67) 
C[NH+](C)C(=O)c1cccc([N-]C(=O)N=c2cc(C(=O)N=c3[n-]ccs3)cc(F)[n-]2)c1

>  <Energy>  (67) 
96.02680782913835

>  <Genealogy>  (67) 
C[NH+](C)C(=O)c1cccc([N-]C(=O)N=c2cc(C(=O)N=c3[n-]ccs3)cc(F)[n-]2)c1 (protonated)
C[NH+](C)C(=O)c1cccc([N-]C(=O)N=c2cc(C(=O)N=c3[n-]ccs3)cc(F)[n-]2)c1 (3D coordinates assigned)
C[NH+](C)C(=O)c1cccc([N-]C(=O)N=c2cc(C(=O)N=c3[n-]ccs3)cc(F)[n-]2)c1 (optimized conformer: 96.02680782913835 kcal/mol)

>  <smiles>  (67) 
CN(C)C(=O)c1cccc(NC(=O)N=c2cc(C(=O)N=c3[nH]ccs3)cc(F)[nH]2)c1

>  <score_type>  (67) 
oracle

>  <origin>  (67) 
adg

>  <m_score__min__energy>  (67) 
-10.02

>  <m_primary>  (67) 
energy

$$$$
68:0
     RDKit          3D

 54 57  0  0  0  0  0  0  0  0999 V2000
   54.7680   29.0320   44.1420 O   0  0  0  0  0  0  0  0  0  0  0  0
   55.9580   29.4280   44.2610 C   0  0  0  0  0  0  0  0  0  0  0  0
   56.3160   30.8190   43.8160 C   0  0  0  0  0  0  0  0  0  0  0  0
   57.0840   31.5000   44.8590 N   0  0  0  0  0  0  0  0  0  0  0  0
   58.0410   32.5300   44.5630 C   0  0  0  0  0  0  0  0  0  0  0  0
   58.3860   32.7360   43.3680 O   0  0  0  0  0  0  0  0  0  0  0  0
   58.6400   33.3560   45.6420 C   0  0  0  0  0  0  0  0  0  0  0  0
   59.0930   34.6600   45.3610 C   0  0  0  0  0  0  0  0  0  0  0  0
   59.6380   35.4560   46.3700 C   0  0  0  0  0  0  0  0  0  0  0  0
   59.7400   34.9650   47.6720 C   0  0  0  0  0  0  0  0  0  0  0  0
   59.2960   33.6720   47.9720 C   0  0  0  0  0  0  0  0  0  0  0  0
   59.4040   33.0790   49.6300 S   0  0  0  0  0  0  0  0  0  0  0  0
   59.6060   34.2220   50.5820 O   0  0  0  0  0  0  0  0  0  0  0  0
   58.1030   32.4030   49.9550 O   0  0  0  0  0  0  0  0  0  0  0  0
   60.7310   31.9580   49.7840 N   0  0  0  0  0  0  0  0  0  0  0  0
   60.5070   30.6650   50.4340 C   0  0  0  0  0  0  0  0  0  0  0  0
   61.4340   30.5510   51.6420 C   0  0  0  0  0  0  0  0  0  0  0  0
   62.9030   30.6420   51.2030 C   0  0  0  0  0  0  0  0  0  0  0  0
   63.1550   31.7490   50.2040 C   0  0  0  0  0  0  0  0  0  0  0  0
   64.4770   32.1250   49.9220 C   0  0  0  0  0  0  0  0  0  0  0  0
   64.7480   33.0730   48.9310 C   0  0  0  0  0  0  0  0  0  0  0  0
   63.7020   33.6360   48.1980 C   0  0  0  0  0  0  0  0  0  0  0  0
   62.3810   33.2630   48.4590 C   0  0  0  0  0  0  0  0  0  0  0  0
   62.0900   32.3360   49.4780 C   0  0  0  0  0  0  0  0  0  0  0  0
   58.7370   32.8740   46.9610 C   0  0  0  0  0  0  0  0  0  0  0  0
   56.9300   28.5410   44.8350 N   0  0  0  0  0  0  0  0  0  0  0  0
   58.1220   28.9170   45.5400 C   0  0  0  0  0  0  0  0  0  0  0  0
   59.3180   29.2160   44.8620 C   0  0  0  0  0  0  0  0  0  0  0  0
   60.4620   29.5740   45.5810 C   0  0  0  0  0  0  0  0  0  0  0  0
   60.4290   29.6160   46.9780 C   0  0  0  0  0  0  0  0  0  0  0  0
   61.5380   29.9680   47.6740 F   0  0  0  0  0  0  0  0  0  0  0  0
   59.2530   29.2810   47.6580 C   0  0  0  0  0  0  0  0  0  0  0  0
   58.1050   28.9270   46.9400 C   0  0  0  0  0  0  0  0  0  0  0  0
   56.9195   30.7630   42.8980 H   0  0  0  0  0  0  0  0  0  0  0  0
   55.3919   31.3838   43.6233 H   0  0  0  0  0  0  0  0  0  0  0  0
   57.0240   31.1170   45.8290 H   0  0  0  0  0  0  0  0  0  0  0  0
   59.0166   35.0546   44.3371 H   0  0  0  0  0  0  0  0  0  0  0  0
   59.9879   36.4728   46.1380 H   0  0  0  0  0  0  0  0  0  0  0  0
   60.1702   35.5953   48.4642 H   0  0  0  0  0  0  0  0  0  0  0  0
   59.4601   30.5942   50.7641 H   0  0  0  0  0  0  0  0  0  0  0  0
   60.7169   29.8504   49.7252 H   0  0  0  0  0  0  0  0  0  0  0  0
   61.2149   31.3683   52.3449 H   0  0  0  0  0  0  0  0  0  0  0  0
   61.2674   29.5783   52.1278 H   0  0  0  0  0  0  0  0  0  0  0  0
   63.5237   30.8249   52.0925 H   0  0  0  0  0  0  0  0  0  0  0  0
   63.1584   29.6916   50.7115 H   0  0  0  0  0  0  0  0  0  0  0  0
   65.3059   31.6707   50.4846 H   0  0  0  0  0  0  0  0  0  0  0  0
   65.7861   33.3754   48.7287 H   0  0  0  0  0  0  0  0  0  0  0  0
   63.9183   34.3753   47.4128 H   0  0  0  0  0  0  0  0  0  0  0  0
   61.5632   33.6963   47.8646 H   0  0  0  0  0  0  0  0  0  0  0  0
   58.3721   31.8645   47.2015 H   0  0  0  0  0  0  0  0  0  0  0  0
   59.3529   29.1679   43.7636 H   0  0  0  0  0  0  0  0  0  0  0  0
   61.3904   29.8233   45.0463 H   0  0  0  0  0  0  0  0  0  0  0  0
   59.2307   29.2959   48.7577 H   0  0  0  0  0  0  0  0  0  0  0  0
   57.1849   28.6553   47.4782 H   0  0  0  0  0  0  0  0  0  0  0  0
  1  2  2  0
  2  3  1  0
  3  4  1  0
  4  5  1  0
  5  6  2  0
  5  7  1  0
  7  8  2  0
  8  9  1  0
  9 10  2  0
 10 11  1  0
 11 12  1  0
 12 13  2  0
 12 14  2  0
 12 15  1  0
 15 16  1  0
 16 17  1  0
 17 18  1  0
 18 19  1  0
 19 20  2  0
 20 21  1  0
 21 22  2  0
 22 23  1  0
 23 24  2  0
 11 25  2  0
  2 26  1  0
 26 27  1  0
 27 28  2  0
 28 29  1  0
 29 30  2  0
 30 31  1  0
 30 32  1  0
 32 33  2  0
 25  7  1  0
 33 27  1  0
 24 15  1  0
 24 19  1  0
  3 34  1  0
  3 35  1  0
  4 36  1  0
  8 37  1  0
  9 38  1  0
 10 39  1  0
 16 40  1  0
 16 41  1  0
 17 42  1  0
 17 43  1  0
 18 44  1  0
 18 45  1  0
 20 46  1  0
 21 47  1  0
 22 48  1  0
 23 49  1  0
 25 50  1  0
 28 51  1  0
 29 52  1  0
 32 53  1  0
 33 54  1  0
M  CHG  1  26  -1
M  END
>  <UniqueID>  (68) 
67

>  <SMILES>  (68) 
O=C(CNC(=O)c1cccc(S(=O)(=O)N2CCCc3ccccc32)c1)[N-]c1ccc(F)cc1

>  <Energy>  (68) 
68.0038994384628

>  <Genealogy>  (68) 
O=C(CNC(=O)c1cccc(S(=O)(=O)N2CCCc3ccccc32)c1)[N-]c1ccc(F)cc1 (protonated)
O=C(CNC(=O)c1cccc(S(=O)(=O)N2CCCc3ccccc32)c1)[N-]c1ccc(F)cc1 (3D coordinates assigned)
O=C(CNC(=O)c1cccc(S(=O)(=O)N2CCCc3ccccc32)c1)[N-]c1ccc(F)cc1 (nonaromatic ring conformer: 68.0038994384628 kcal/mol)

>  <smiles>  (68) 
O=C(CNC(=O)c1cccc(S(=O)(=O)N2CCCc3ccccc32)c1)Nc1ccc(F)cc1

>  <score_type>  (68) 
oracle

>  <origin>  (68) 
adg

>  <m_score__min__energy>  (68) 
-11.640000000000001

>  <m_primary>  (68) 
energy

$$$$
69:0
     RDKit          3D

 43 46  0  0  0  0  0  0  0  0999 V2000
   55.3750   29.9200   44.6670 O   0  0  0  0  0  0  0  0  0  0  0  0
   56.5880   30.1830   44.8840 C   0  0  0  0  0  0  0  0  0  0  0  0
   57.4170   29.2200   45.6410 C   0  0  0  0  0  0  0  0  0  0  0  0
   58.6990   29.6110   46.0520 C   0  0  0  0  0  0  0  0  0  0  0  0
   59.5220   28.7350   46.7700 C   0  0  0  0  0  0  0  0  0  0  0  0
   60.8550   29.2190   47.2830 C   0  0  0  0  0  0  0  0  0  0  0  0
   60.7280   30.6280   47.8000 C   0  0  0  0  0  0  0  0  0  0  0  0
   59.8390   30.9210   48.8460 C   0  0  0  0  0  0  0  0  0  0  0  0
   59.6940   32.2370   49.2980 C   0  0  0  0  0  0  0  0  0  0  0  0
   60.4260   33.2680   48.7040 C   0  0  0  0  0  0  0  0  0  0  0  0
   61.3030   32.9860   47.6540 C   0  0  0  0  0  0  0  0  0  0  0  0
   61.4520   31.6720   47.1980 C   0  0  0  0  0  0  0  0  0  0  0  0
   59.0380   27.4470   47.0600 C   0  0  0  0  0  0  0  0  0  0  0  0
   59.7430   26.6240   47.7020 O   0  0  0  0  0  0  0  0  0  0  0  0
   57.7960   27.0800   46.6480 N   0  0  0  0  0  0  0  0  0  0  0  0
   56.9740   27.9180   45.9630 C   0  0  0  0  0  0  0  0  0  0  0  0
   55.6980   27.4620   45.6290 O   0  0  0  0  0  0  0  0  0  0  0  0
   57.1680   31.3570   44.2890 N   0  0  0  0  0  0  0  0  0  0  0  0
   57.4910   31.4590   42.8650 C   0  0  0  0  0  0  0  0  0  0  0  0
   58.3650   32.7280   42.7120 C   0  0  0  0  0  0  0  0  0  0  0  0
   58.4100   33.2850   44.0900 C   0  0  0  0  0  0  0  0  0  0  0  0
   59.0270   34.4600   44.5210 C   0  0  0  0  0  0  0  0  0  0  0  0
   58.9090   34.8250   45.8710 C   0  0  0  0  0  0  0  0  0  0  0  0
   58.1630   34.0260   46.7570 C   0  0  0  0  0  0  0  0  0  0  0  0
   57.5450   32.8510   46.3010 C   0  0  0  0  0  0  0  0  0  0  0  0
   57.7110   32.4880   44.9570 C   0  0  0  0  0  0  0  0  0  0  0  0
   59.0632   30.6196   45.8071 H   0  0  0  0  0  0  0  0  0  0  0  0
   61.1923   28.5612   48.0976 H   0  0  0  0  0  0  0  0  0  0  0  0
   61.5861   29.2007   46.4613 H   0  0  0  0  0  0  0  0  0  0  0  0
   59.2547   30.1136   49.3116 H   0  0  0  0  0  0  0  0  0  0  0  0
   59.0019   32.4605   50.1232 H   0  0  0  0  0  0  0  0  0  0  0  0
   60.3118   34.3015   49.0630 H   0  0  0  0  0  0  0  0  0  0  0  0
   61.8774   33.7985   47.1850 H   0  0  0  0  0  0  0  0  0  0  0  0
   62.1378   31.4549   46.3658 H   0  0  0  0  0  0  0  0  0  0  0  0
   55.1450   27.8560   44.8810 H   0  0  0  0  0  0  0  0  0  0  0  0
   58.0483   30.5697   42.5354 H   0  0  0  0  0  0  0  0  0  0  0  0
   56.5809   31.5217   42.2503 H   0  0  0  0  0  0  0  0  0  0  0  0
   59.3743   32.4703   42.3587 H   0  0  0  0  0  0  0  0  0  0  0  0
   57.9637   33.4390   41.9748 H   0  0  0  0  0  0  0  0  0  0  0  0
   59.5941   35.0871   43.8173 H   0  0  0  0  0  0  0  0  0  0  0  0
   59.4010   35.7381   46.2374 H   0  0  0  0  0  0  0  0  0  0  0  0
   58.0637   34.3234   47.8114 H   0  0  0  0  0  0  0  0  0  0  0  0
   56.9447   32.2298   46.9820 H   0  0  0  0  0  0  0  0  0  0  0  0
  1  2  2  0
  2  3  1  0
  3  4  1  0
  4  5  2  0
  5  6  1  0
  6  7  1  0
  7  8  2  0
  8  9  1  0
  9 10  2  0
 10 11  1  0
 11 12  2  0
  5 13  1  0
 13 14  2  0
 13 15  1  0
 15 16  1  0
 16 17  1  0
  2 18  1  0
 18 19  1  0
 19 20  1  0
 20 21  1  0
 21 22  2  0
 22 23  1  0
 23 24  2  0
 24 25  1  0
 25 26  2  0
 16  3  2  0
 26 18  1  0
 12  7  1  0
 26 21  1  0
  4 27  1  0
  6 28  1  0
  6 29  1  0
  8 30  1  0
  9 31  1  0
 10 32  1  0
 11 33  1  0
 12 34  1  0
 17 35  1  0
 19 36  1  0
 19 37  1  0
 20 38  1  0
 20 39  1  0
 22 40  1  0
 23 41  1  0
 24 42  1  0
 25 43  1  0
M  CHG  1  15  -1
M  END
>  <UniqueID>  (69) 
68

>  <SMILES>  (69) 
O=C(c1cc(Cc2ccccc2)c(=O)[n-]c1O)N1CCc2ccccc21

>  <Energy>  (69) 
67.50832036454383

>  <Genealogy>  (69) 
O=C(c1cc(Cc2ccccc2)c(=O)[n-]c1O)N1CCc2ccccc21 (protonated)
O=C(c1cc(Cc2ccccc2)c(=O)[n-]c1O)N1CCc2ccccc21 (3D coordinates assigned)
O=C(c1cc(Cc2ccccc2)c(=O)[n-]c1O)N1CCc2ccccc21 (nonaromatic ring conformer: 67.50832036454383 kcal/mol)

>  <smiles>  (69) 
O=C(c1cc(Cc2ccccc2)c(=O)[nH]c1O)N1CCc2ccccc21

>  <score_type>  (69) 
oracle

>  <origin>  (69) 
adg

>  <m_score__min__energy>  (69) 
-11.789999999999999

>  <m_primary>  (69) 
energy

$$$$
70:0
     RDKit          3D

 56 59  0  0  0  0  0  0  0  0999 V2000
   55.8830   30.1920   44.8240 O   0  0  0  0  0  0  0  0  0  0  0  0
   57.1130   30.4640   44.7690 C   0  0  0  0  0  0  0  0  0  0  0  0
   58.0310   29.4820   44.2720 N   0  0  0  0  0  0  0  0  0  0  0  0
   58.2280   28.1880   44.8530 C   0  0  0  0  0  0  0  0  0  0  0  0
   57.1000   27.4280   45.1900 C   0  0  0  0  0  0  0  0  0  0  0  0
   57.2440   26.1580   45.7640 C   0  0  0  0  0  0  0  0  0  0  0  0
   55.8320   25.1840   46.1670 S   0  0  0  0  0  0  0  0  0  0  0  0
   54.5750   25.9890   45.9840 O   0  0  0  0  0  0  0  0  0  0  0  0
   55.9330   24.7670   47.6080 O   0  0  0  0  0  0  0  0  0  0  0  0
   55.7850   23.7730   45.1380 N   0  0  0  0  0  0  0  0  0  0  0  0
   56.4330   22.6090   45.7950 C   0  0  0  0  0  0  0  0  0  0  0  0
   57.8470   22.3300   45.2640 C   0  0  0  0  0  0  0  0  0  0  0  0
   57.8290   22.0690   43.7480 C   0  0  0  0  0  0  0  0  0  0  0  0
   56.7200   22.8520   43.0230 C   0  0  0  0  0  0  0  0  0  0  0  0
   56.3300   24.1100   43.8040 C   0  0  0  0  0  0  0  0  0  0  0  0
   58.5250   25.6500   46.0110 C   0  0  0  0  0  0  0  0  0  0  0  0
   59.6540   26.4150   45.7080 C   0  0  0  0  0  0  0  0  0  0  0  0
   59.5160   27.6870   45.1420 C   0  0  0  0  0  0  0  0  0  0  0  0
   60.9670   28.6520   44.8960 Cl  0  0  0  0  0  0  0  0  0  0  0  0
   57.6180   31.7800   45.2520 C   0  0  0  0  0  0  0  0  0  0  0  0
   57.4770   32.9150   44.4400 C   0  0  0  0  0  0  0  0  0  0  0  0
   57.9390   34.1520   44.8740 C   0  0  0  0  0  0  0  0  0  0  0  0
   58.5450   34.2600   46.1220 C   0  0  0  0  0  0  0  0  0  0  0  0
   58.6920   33.1640   46.9270 N   0  0  0  0  0  0  0  0  0  0  0  0
   59.3190   33.3350   48.2500 C   0  0  0  0  0  0  0  0  0  0  0  0
   60.8120   33.5020   48.1120 C   0  0  0  0  0  0  0  0  0  0  0  0
   61.4310   33.2990   46.8660 C   0  0  0  0  0  0  0  0  0  0  0  0
   62.8170   33.4250   46.7350 C   0  0  0  0  0  0  0  0  0  0  0  0
   63.5990   33.7530   47.8450 C   0  0  0  0  0  0  0  0  0  0  0  0
   62.9950   33.9540   49.0890 C   0  0  0  0  0  0  0  0  0  0  0  0
   61.6080   33.8280   49.2270 C   0  0  0  0  0  0  0  0  0  0  0  0
   61.0450   34.0340   50.4440 F   0  0  0  0  0  0  0  0  0  0  0  0
   58.2380   31.9320   46.5180 C   0  0  0  0  0  0  0  0  0  0  0  0
   58.3710   30.9310   47.2750 O   0  0  0  0  0  0  0  0  0  0  0  0
   56.0940   27.8315   45.0025 H   0  0  0  0  0  0  0  0  0  0  0  0
   56.4970   22.8071   46.8751 H   0  0  0  0  0  0  0  0  0  0  0  0
   55.8186   21.7234   45.5754 H   0  0  0  0  0  0  0  0  0  0  0  0
   58.4865   23.2008   45.4709 H   0  0  0  0  0  0  0  0  0  0  0  0
   58.2383   21.4338   45.7677 H   0  0  0  0  0  0  0  0  0  0  0  0
   58.8014   22.3662   43.3283 H   0  0  0  0  0  0  0  0  0  0  0  0
   57.6312   20.9974   43.5980 H   0  0  0  0  0  0  0  0  0  0  0  0
   57.0809   23.1458   42.0263 H   0  0  0  0  0  0  0  0  0  0  0  0
   55.8343   22.2051   42.9393 H   0  0  0  0  0  0  0  0  0  0  0  0
   57.2211   24.7423   43.9312 H   0  0  0  0  0  0  0  0  0  0  0  0
   55.5510   24.6407   43.2369 H   0  0  0  0  0  0  0  0  0  0  0  0
   58.6428   24.6460   46.4447 H   0  0  0  0  0  0  0  0  0  0  0  0
   60.6574   26.0149   45.9157 H   0  0  0  0  0  0  0  0  0  0  0  0
   56.9979   32.8256   43.4538 H   0  0  0  0  0  0  0  0  0  0  0  0
   57.8263   35.0401   44.2349 H   0  0  0  0  0  0  0  0  0  0  0  0
   58.9104   35.2391   46.4654 H   0  0  0  0  0  0  0  0  0  0  0  0
   58.8988   34.2275   48.7366 H   0  0  0  0  0  0  0  0  0  0  0  0
   59.1167   32.4401   48.8568 H   0  0  0  0  0  0  0  0  0  0  0  0
   60.8206   33.0393   45.9885 H   0  0  0  0  0  0  0  0  0  0  0  0
   63.2927   33.2656   45.7561 H   0  0  0  0  0  0  0  0  0  0  0  0
   64.6894   33.8530   47.7400 H   0  0  0  0  0  0  0  0  0  0  0  0
   63.6117   34.2121   49.9626 H   0  0  0  0  0  0  0  0  0  0  0  0
  1  2  2  0
  2  3  1  0
  3  4  1  0
  4  5  2  0
  5  6  1  0
  6  7  1  0
  7  8  2  0
  7  9  2  0
  7 10  1  0
 10 11  1  0
 11 12  1  0
 12 13  1  0
 13 14  1  0
 14 15  1  0
  6 16  2  0
 16 17  1  0
 17 18  2  0
 18 19  1  0
  2 20  1  0
 20 21  2  0
 21 22  1  0
 22 23  2  0
 23 24  1  0
 24 25  1  0
 25 26  1  0
 26 27  2  0
 27 28  1  0
 28 29  2  0
 29 30  1  0
 30 31  2  0
 31 32  1  0
 24 33  1  0
 33 34  2  0
 18  4  1  0
 33 20  1  0
 15 10  1  0
 31 26  1  0
  5 35  1  0
 11 36  1  0
 11 37  1  0
 12 38  1  0
 12 39  1  0
 13 40  1  0
 13 41  1  0
 14 42  1  0
 14 43  1  0
 15 44  1  0
 15 45  1  0
 16 46  1  0
 17 47  1  0
 21 48  1  0
 22 49  1  0
 23 50  1  0
 25 51  1  0
 25 52  1  0
 27 53  1  0
 28 54  1  0
 29 55  1  0
 30 56  1  0
M  CHG  1   3  -1
M  END
>  <UniqueID>  (70) 
69

>  <SMILES>  (70) 
O=C([N-]c1cc(S(=O)(=O)N2CCCCC2)ccc1Cl)c1cccn(Cc2ccccc2F)c1=O

>  <Energy>  (70) 
76.6749430006543

>  <Genealogy>  (70) 
O=C([N-]c1cc(S(=O)(=O)N2CCCCC2)ccc1Cl)c1cccn(Cc2ccccc2F)c1=O (protonated)
O=C([N-]c1cc(S(=O)(=O)N2CCCCC2)ccc1Cl)c1cccn(Cc2ccccc2F)c1=O (3D coordinates assigned)
O=C([N-]c1cc(S(=O)(=O)N2CCCCC2)ccc1Cl)c1cccn(Cc2ccccc2F)c1=O (nonaromatic ring conformer: 76.6749430006543 kcal/mol)

>  <smiles>  (70) 
O=C(Nc1cc(S(=O)(=O)N2CCCCC2)ccc1Cl)c1cccn(Cc2ccccc2F)c1=O

>  <score_type>  (70) 
oracle

>  <origin>  (70) 
adg

>  <m_score__min__energy>  (70) 
-12.34

>  <m_primary>  (70) 
energy

$$$$
71:0
     RDKit          3D

 51 54  0  0  0  0  0  0  0  0999 V2000
   59.6640   29.9370   46.5500 C   0  0  0  0  0  0  0  0  0  0  0  0
   59.1950   30.9810   45.8450 C   0  0  0  0  0  0  0  0  0  0  0  0
   58.2620   30.9490   44.7950 C   0  0  0  0  0  0  0  0  0  0  0  0
   57.7250   29.9160   44.1160 C   0  0  0  0  0  0  0  0  0  0  0  0
   57.3800   28.5990   44.6870 C   0  0  0  0  0  0  0  0  0  0  0  0
   56.1130   28.3550   45.2440 C   0  0  0  0  0  0  0  0  0  0  0  0
   55.1340   29.3420   45.2410 O   0  0  0  0  0  0  0  0  0  0  0  0
   55.8380   27.1460   45.7970 N   0  0  0  0  0  0  0  0  0  0  0  0
   56.7760   26.1650   45.8390 C   0  0  0  0  0  0  0  0  0  0  0  0
   56.4160   24.7210   46.5090 S   0  0  0  0  0  0  0  0  0  0  0  0
   58.0170   26.3870   45.3340 N   0  0  0  0  0  0  0  0  0  0  0  0
   58.3410   27.5790   44.7690 C   0  0  0  0  0  0  0  0  0  0  0  0
   59.5040   27.7540   44.3160 O   0  0  0  0  0  0  0  0  0  0  0  0
   57.9450   32.2700   44.5190 C   0  0  0  0  0  0  0  0  0  0  0  0
   58.7210   33.0510   45.3480 C   0  0  0  0  0  0  0  0  0  0  0  0
   58.7020   34.5490   45.3680 C   0  0  0  0  0  0  0  0  0  0  0  0
   59.4790   32.2730   46.1540 N   0  0  0  0  0  0  0  0  0  0  0  0
   60.3940   32.7460   47.1580 C   0  0  0  0  0  0  0  0  0  0  0  0
   61.7100   33.0820   46.8100 C   0  0  0  0  0  0  0  0  0  0  0  0
   62.6000   33.5480   47.7800 C   0  0  0  0  0  0  0  0  0  0  0  0
   62.1880   33.6780   49.1190 C   0  0  0  0  0  0  0  0  0  0  0  0
   63.1340   34.1810   50.1420 C   0  0  0  0  0  0  0  0  0  0  0  0
   63.0390   35.3780   50.5290 O   0  0  0  0  0  0  0  0  0  0  0  0
   64.1580   33.3370   50.7040 N   0  0  0  0  0  0  0  0  0  0  0  0
   64.9090   32.3900   49.8740 C   0  0  0  0  0  0  0  0  0  0  0  0
   66.4120   32.5780   50.1140 C   0  0  0  0  0  0  0  0  0  0  0  0
   66.7360   32.5290   51.5460 N   0  0  0  0  0  0  0  0  0  0  0  0
   66.0110   33.5720   52.2880 C   0  0  0  0  0  0  0  0  0  0  0  0
   64.4950   33.4150   52.1270 C   0  0  0  0  0  0  0  0  0  0  0  0
   60.8640   33.3560   49.4600 C   0  0  0  0  0  0  0  0  0  0  0  0
   59.9760   32.8900   48.4870 C   0  0  0  0  0  0  0  0  0  0  0  0
   60.3979   30.1007   47.3528 H   0  0  0  0  0  0  0  0  0  0  0  0
   59.3139   28.9190   46.3241 H   0  0  0  0  0  0  0  0  0  0  0  0
   57.5268   30.0671   43.0446 H   0  0  0  0  0  0  0  0  0  0  0  0
   57.2134   32.6269   43.7792 H   0  0  0  0  0  0  0  0  0  0  0  0
   58.6975   34.9018   46.4099 H   0  0  0  0  0  0  0  0  0  0  0  0
   59.5953   34.9339   44.8544 H   0  0  0  0  0  0  0  0  0  0  0  0
   57.7992   34.9111   44.8544 H   0  0  0  0  0  0  0  0  0  0  0  0
   62.0433   32.9779   45.7669 H   0  0  0  0  0  0  0  0  0  0  0  0
   63.6286   33.8148   47.4957 H   0  0  0  0  0  0  0  0  0  0  0  0
   64.6213   31.3620   50.1394 H   0  0  0  0  0  0  0  0  0  0  0  0
   64.6820   32.5728   48.8133 H   0  0  0  0  0  0  0  0  0  0  0  0
   66.9602   31.7777   49.5954 H   0  0  0  0  0  0  0  0  0  0  0  0
   66.7038   33.5652   49.7264 H   0  0  0  0  0  0  0  0  0  0  0  0
   66.4640   31.5910   51.9250 H   0  0  0  0  0  0  0  0  0  0  0  0
   66.2681   33.4976   53.3550 H   0  0  0  0  0  0  0  0  0  0  0  0
   66.3041   34.5529   51.8857 H   0  0  0  0  0  0  0  0  0  0  0  0
   64.1665   32.4947   52.6321 H   0  0  0  0  0  0  0  0  0  0  0  0
   63.9881   34.2820   52.5757 H   0  0  0  0  0  0  0  0  0  0  0  0
   60.5240   33.4714   50.4997 H   0  0  0  0  0  0  0  0  0  0  0  0
   58.9431   32.6349   48.7663 H   0  0  0  0  0  0  0  0  0  0  0  0
  1  2  2  0
  2  3  1  0
  3  4  2  3
  4  5  1  0
  5  6  2  0
  6  7  1  0
  6  8  1  0
  8  9  1  0
  9 10  2  0
  9 11  1  0
 11 12  1  0
 12 13  2  0
  3 14  1  0
 14 15  2  0
 15 16  1  0
 15 17  1  0
 17 18  1  0
 18 19  2  0
 19 20  1  0
 20 21  2  0
 21 22  1  0
 22 23  2  0
 22 24  1  0
 24 25  1  0
 25 26  1  0
 26 27  1  0
 27 28  1  0
 28 29  1  0
 21 30  1  0
 30 31  2  0
 17  2  1  0
 31 18  1  0
 12  5  1  0
 29 24  1  0
  1 32  1  0
  1 33  1  0
  4 34  1  0
 14 35  1  0
 16 36  1  0
 16 37  1  0
 16 38  1  0
 19 39  1  0
 20 40  1  0
 25 41  1  0
 25 42  1  0
 26 43  1  0
 26 44  1  0
 27 45  1  0
 28 46  1  0
 28 47  1  0
 29 48  1  0
 29 49  1  0
 30 50  1  0
 31 51  1  0
M  CHG  3   7  -1   8  -1  11  -1
M  END
>  <UniqueID>  (71) 
70

>  <SMILES>  (71) 
C=c1c(=Cc2c([O-])[n-]c(=S)[n-]c2=O)cc(C)n1-c1ccc(C(=O)N2CCNCC2)cc1

>  <Energy>  (71) 
107.20355322820804

>  <Genealogy>  (71) 
C=c1c(=Cc2c([O-])[n-]c(=S)[n-]c2=O)cc(C)n1-c1ccc(C(=O)N2CCNCC2)cc1 (protonated)
C=c1c(=Cc2c([O-])[n-]c(=S)[n-]c2=O)cc(C)n1-c1ccc(C(=O)N2CCNCC2)cc1 (3D coordinates assigned)
C=c1c(=Cc2c([O-])[n-]c(=S)[n-]c2=O)cc(C)n1-c1ccc(C(=O)N2CCNCC2)cc1 (nonaromatic ring conformer: 107.20355322820804 kcal/mol)

>  <smiles>  (71) 
C=c1c(=Cc2c(O)[nH]c(=S)[nH]c2=O)cc(C)n1-c1ccc(C(=O)N2CCNCC2)cc1

>  <score_type>  (71) 
oracle

>  <origin>  (71) 
adg

>  <m_score__min__energy>  (71) 
-15.59

>  <m_primary>  (71) 
energy

$$$$
72:0
     RDKit          3D

 62 65  0  0  0  0  0  0  0  0999 V2000
   55.2440   30.0490   45.6130 H   0  0  0  0  0  0  0  0  0  0  0  0
   55.6080   29.3410   44.9860 O   0  0  0  0  0  0  0  0  0  0  0  0
   56.2460   28.2130   45.4910 C   0  0  0  0  0  0  0  0  0  0  0  0
   55.6000   27.1030   45.8830 N   0  0  0  0  0  0  0  0  0  0  0  0
   56.6000   26.3270   46.3520 C   0  0  0  0  0  0  0  0  0  0  0  0
   56.4020   25.1780   46.8240 O   0  0  0  0  0  0  0  0  0  0  0  0
   57.8290   26.8830   46.2820 N   0  0  0  0  0  0  0  0  0  0  0  0
   57.5990   28.0770   45.7100 C   0  0  0  0  0  0  0  0  0  0  0  0
   58.6540   29.0840   45.4880 C   0  0  0  0  0  0  0  0  0  0  0  0
   59.6406   28.7343   45.1500 H   0  0  0  0  0  0  0  0  0  0  0  0
   58.4800   30.4070   45.6750 C   0  0  0  0  0  0  0  0  0  0  0  0
   58.7680   31.1160   46.8300 C   0  0  0  0  0  0  0  0  0  0  0  0
   59.2094   30.7118   47.7529 H   0  0  0  0  0  0  0  0  0  0  0  0
   58.3960   32.4260   46.6030 C   0  0  0  0  0  0  0  0  0  0  0  0
   58.6220   33.5290   47.5650 C   0  0  0  0  0  0  0  0  0  0  0  0
   58.5820   34.7200   47.1550 O   0  0  0  0  0  0  0  0  0  0  0  0
   58.9600   33.2670   48.9400 N   0  0  0  0  0  0  0  0  0  0  0  0
   59.8410   34.2000   49.6480 C   0  0  0  0  0  0  0  0  0  0  0  0
   60.7661   34.3268   49.0666 H   0  0  0  0  0  0  0  0  0  0  0  0
   59.3085   35.1562   49.7577 H   0  0  0  0  0  0  0  0  0  0  0  0
   60.2020   33.6910   51.0520 C   0  0  0  0  0  0  0  0  0  0  0  0
   61.1347   34.1781   51.3727 H   0  0  0  0  0  0  0  0  0  0  0  0
   59.3615   33.9364   51.7179 H   0  0  0  0  0  0  0  0  0  0  0  0
   60.3940   32.2250   51.1020 N   0  0  0  0  0  0  0  0  0  0  0  0
   61.7780   31.7580   50.8700 C   0  0  0  0  0  0  0  0  0  0  0  0
   62.3366   32.5661   50.3752 H   0  0  0  0  0  0  0  0  0  0  0  0
   62.1925   31.4949   51.8543 H   0  0  0  0  0  0  0  0  0  0  0  0
   61.8790   30.4880   49.9900 C   0  0  0  0  0  0  0  0  0  0  0  0
   62.7458   29.8969   50.3206 H   0  0  0  0  0  0  0  0  0  0  0  0
   60.9409   29.9250   50.1039 H   0  0  0  0  0  0  0  0  0  0  0  0
   62.0480   30.8210   48.5010 C   0  0  0  0  0  0  0  0  0  0  0  0
   62.9927   30.3896   48.1386 H   0  0  0  0  0  0  0  0  0  0  0  0
   61.1994   30.3981   47.9434 H   0  0  0  0  0  0  0  0  0  0  0  0
   62.0720   32.2870   48.2970 N   0  0  0  0  0  0  0  0  0  0  0  0
   63.4100   32.8800   48.5490 C   0  0  0  0  0  0  0  0  0  0  0  0
   63.2862   33.7921   49.1513 H   0  0  0  0  0  0  0  0  0  0  0  0
   64.0181   32.1319   49.0787 H   0  0  0  0  0  0  0  0  0  0  0  0
   64.1370   33.2430   47.2420 C   0  0  0  0  0  0  0  0  0  0  0  0
   65.1115   33.6854   47.4961 H   0  0  0  0  0  0  0  0  0  0  0  0
   64.2412   32.3157   46.6595 H   0  0  0  0  0  0  0  0  0  0  0  0
   63.4190   34.1670   46.4360 O   0  0  0  0  0  0  0  0  0  0  0  0
   62.0060   34.0390   46.5380 C   0  0  0  0  0  0  0  0  0  0  0  0
   61.6448   34.7652   47.2811 H   0  0  0  0  0  0  0  0  0  0  0  0
   61.5945   34.2231   45.5346 H   0  0  0  0  0  0  0  0  0  0  0  0
   61.5390   32.6380   46.9630 C   0  0  0  0  0  0  0  0  0  0  0  0
   60.4397   32.6199   46.9981 H   0  0  0  0  0  0  0  0  0  0  0  0
   61.9118   31.9060   46.2315 H   0  0  0  0  0  0  0  0  0  0  0  0
   59.3370   31.3900   50.4800 C   0  0  0  0  0  0  0  0  0  0  0  0
   59.8145   30.6825   49.7861 H   0  0  0  0  0  0  0  0  0  0  0  0
   58.8057   30.8773   51.2954 H   0  0  0  0  0  0  0  0  0  0  0  0
   58.2960   32.2060   49.7030 C   0  0  0  0  0  0  0  0  0  0  0  0
   57.7556   31.5431   49.0112 H   0  0  0  0  0  0  0  0  0  0  0  0
   57.5888   32.6596   50.4130 H   0  0  0  0  0  0  0  0  0  0  0  0
   57.8720   32.5560   45.3580 N   0  0  0  0  0  0  0  0  0  0  0  0
   57.3590   33.7930   44.7570 C   0  0  0  0  0  0  0  0  0  0  0  0
   57.0682   34.4942   45.5530 H   0  0  0  0  0  0  0  0  0  0  0  0
   58.1418   34.2499   44.1338 H   0  0  0  0  0  0  0  0  0  0  0  0
   56.4826   33.5618   44.1338 H   0  0  0  0  0  0  0  0  0  0  0  0
   57.9370   31.3290   44.7750 C   0  0  0  0  0  0  0  0  0  0  0  0
   57.5620   31.0720   43.5110 C   0  0  0  0  0  0  0  0  0  0  0  0
   57.1444   31.8759   42.8870 H   0  0  0  0  0  0  0  0  0  0  0  0
   57.6725   30.0577   43.1000 H   0  0  0  0  0  0  0  0  0  0  0  0
  1  2  1  0
  2  3  1  0
  3  4  1  0
  4  5  1  0
  5  6  2  0
  5  7  1  0
  7  8  1  0
  8  9  1  0
  9 10  1  0
  9 11  2  0
 11 12  1  0
 12 13  1  0
 12 14  2  0
 14 15  1  0
 15 16  2  0
 15 17  1  0
 17 18  1  0
 18 19  1  0
 18 20  1  0
 18 21  1  0
 21 22  1  0
 21 23  1  0
 21 24  1  0
 24 25  1  0
 25 26  1  0
 25 27  1  0
 25 28  1  0
 28 29  1  0
 28 30  1  0
 28 31  1  0
 31 32  1  0
 31 33  1  0
 31 34  1  0
 34 35  1  0
 35 36  1  0
 35 37  1  0
 35 38  1  0
 38 39  1  0
 38 40  1  0
 38 41  1  0
 41 42  1  0
 42 43  1  0
 42 44  1  0
 42 45  1  0
 45 46  1  0
 45 47  1  0
 24 48  1  0
 48 49  1  0
 48 50  1  0
 48 51  1  0
 51 52  1  0
 51 53  1  0
 14 54  1  0
 54 55  1  0
 55 56  1  0
 55 57  1  0
 55 58  1  0
 54 59  1  0
 59 60  2  0
 60 61  1  0
 60 62  1  0
  8  3  2  0
 59 11  1  0
 51 17  1  0
 45 34  1  0
M  CHG  2   4  -1   7  -1
M  END
>  <UniqueID>  (72) 
71

>  <SMILES>  (72) 
C=c1/c(=C/c2[n-]c(=O)[n-]c2O)cc(C(=O)N2CCN(CCCN3CCOCC3)CC2)n1C

>  <Energy>  (72) 
155.02454355994124

>  <Genealogy>  (72) 
C=c1c(=Cc2[n-]c(=O)[n-]c2O)cc(C(=O)N2CCN(CCCN3CCOCC3)CC2)n1C (protonated)
C=c1/c(=C/c2[n-]c(=O)[n-]c2O)cc(C(=O)N2CCN(CCCN3CCOCC3)CC2)n1C (cis-trans isomerization)
C=c1/c(=C/c2[n-]c(=O)[n-]c2O)cc(C(=O)N2CCN(CCCN3CCOCC3)CC2)n1C (3D coordinates assigned)
C=c1/c(=C/c2[n-]c(=O)[n-]c2O)cc(C(=O)N2CCN(CCCN3CCOCC3)CC2)n1C (nonaromatic ring conformer: 155.02454355994124 kcal/mol)

>  <smiles>  (72) 
C=c1c(=Cc2[nH]c(=O)[nH]c2O)cc(C(=O)N2CCN(CCCN3CCOCC3)CC2)n1C

>  <score_type>  (72) 
oracle

>  <origin>  (72) 
adg

>  <m_score__min__energy>  (72) 
-14.26

>  <m_primary>  (72) 
energy

$$$$
73:0
     RDKit          3D

 49 52  0  0  0  0  0  0  0  0999 V2000
   54.5866   24.8312   45.7253 H   0  0  0  0  0  0  0  0  0  0  0  0
   55.4830   25.4130   45.9860 C   0  0  0  0  0  0  0  0  0  0  0  0
   55.5660   26.7240   45.6400 N   0  0  0  0  0  0  0  0  0  0  0  0
   56.6610   27.4870   45.9270 C   0  0  0  0  0  0  0  0  0  0  0  0
   56.6780   28.7520   45.6280 N   0  0  0  0  0  0  0  0  0  0  0  0
   55.9880   29.3650   44.4910 C   0  0  0  0  0  0  0  0  0  0  0  0
   55.8819   28.6218   43.6870 H   0  0  0  0  0  0  0  0  0  0  0  0
   54.9959   29.7102   44.8176 H   0  0  0  0  0  0  0  0  0  0  0  0
   56.7690   30.5370   43.9810 C   0  0  0  0  0  0  0  0  0  0  0  0
   57.4960   31.7130   44.9430 S   0  0  0  0  0  0  0  0  0  0  0  0
   58.1100   32.6280   43.6730 C   0  0  0  0  0  0  0  0  0  0  0  0
   58.6911   33.5568   43.7715 H   0  0  0  0  0  0  0  0  0  0  0  0
   57.7590   32.0120   42.4780 C   0  0  0  0  0  0  0  0  0  0  0  0
   58.0423   32.4084   41.4918 H   0  0  0  0  0  0  0  0  0  0  0  0
   57.0120   30.8410   42.6450 C   0  0  0  0  0  0  0  0  0  0  0  0
   56.6539   30.2246   41.8072 H   0  0  0  0  0  0  0  0  0  0  0  0
   57.7580   26.8980   46.5890 C   0  0  0  0  0  0  0  0  0  0  0  0
   58.9590   27.6800   46.9640 C   0  0  0  0  0  0  0  0  0  0  0  0
   59.9560   27.0460   47.4040 O   0  0  0  0  0  0  0  0  0  0  0  0
   59.0160   29.1310   46.9060 N   0  0  0  0  0  0  0  0  0  0  0  0
   58.1300   29.4320   46.4350 H   0  0  0  0  0  0  0  0  0  0  0  0
   59.0020   29.7890   48.2430 C   0  0  0  0  0  0  0  0  0  0  0  0
   58.4138   30.7159   48.1730 H   0  0  0  0  0  0  0  0  0  0  0  0
   58.5596   29.0797   48.9579 H   0  0  0  0  0  0  0  0  0  0  0  0
   60.4120   30.1380   48.7470 C   0  0  0  0  0  0  0  0  0  0  0  0
   60.3323   30.6774   49.7024 H   0  0  0  0  0  0  0  0  0  0  0  0
   60.9823   29.2076   48.8850 H   0  0  0  0  0  0  0  0  0  0  0  0
   61.1110   30.9860   47.7680 N   0  0  0  0  0  0  0  0  0  0  0  0
   62.2340   31.8010   48.1760 C   0  0  0  0  0  0  0  0  0  0  0  0
   62.9740   31.4640   49.3280 C   0  0  0  0  0  0  0  0  0  0  0  0
   62.6638   30.6052   49.9414 H   0  0  0  0  0  0  0  0  0  0  0  0
   64.0950   32.2070   49.6990 C   0  0  0  0  0  0  0  0  0  0  0  0
   64.6766   31.9175   50.5867 H   0  0  0  0  0  0  0  0  0  0  0  0
   64.4790   33.3150   48.9470 C   0  0  0  0  0  0  0  0  0  0  0  0
   65.3658   33.8969   49.2384 H   0  0  0  0  0  0  0  0  0  0  0  0
   63.7380   33.6870   47.8230 C   0  0  0  0  0  0  0  0  0  0  0  0
   64.0358   34.5700   47.2385 H   0  0  0  0  0  0  0  0  0  0  0  0
   62.6180   32.9410   47.4370 C   0  0  0  0  0  0  0  0  0  0  0  0
   61.8910   33.3690   46.3750 F   0  0  0  0  0  0  0  0  0  0  0  0
   60.6650   30.9560   46.3670 C   0  0  0  0  0  0  0  0  0  0  0  0
   59.8646   31.6964   46.2220 H   0  0  0  0  0  0  0  0  0  0  0  0
   61.5132   31.1960   45.7090 H   0  0  0  0  0  0  0  0  0  0  0  0
   60.1350   29.5580   46.0240 C   0  0  0  0  0  0  0  0  0  0  0  0
   59.7792   29.5631   44.9831 H   0  0  0  0  0  0  0  0  0  0  0  0
   60.9610   28.8465   46.1707 H   0  0  0  0  0  0  0  0  0  0  0  0
   57.6660   25.5560   46.9850 C   0  0  0  0  0  0  0  0  0  0  0  0
   58.4912   25.0931   47.5460 H   0  0  0  0  0  0  0  0  0  0  0  0
   56.5330   24.8050   46.6710 C   0  0  0  0  0  0  0  0  0  0  0  0
   56.4694   23.7457   46.9607 H   0  0  0  0  0  0  0  0  0  0  0  0
  1  2  1  0
  2  3  1  0
  3  4  1  0
  4  5  2  0
  5  6  1  0
  6  7  1  0
  6  8  1  0
  6  9  1  0
  9 10  1  0
 10 11  1  0
 11 12  1  0
 11 13  2  0
 13 14  1  0
 13 15  1  0
 15 16  1  0
  4 17  1  0
 17 18  1  0
 18 19  2  0
 18 20  1  0
 20 21  1  0
 20 22  1  0
 22 23  1  0
 22 24  1  0
 22 25  1  0
 25 26  1  0
 25 27  1  0
 25 28  1  0
 28 29  1  0
 29 30  2  0
 30 31  1  0
 30 32  1  0
 32 33  1  0
 32 34  2  0
 34 35  1  0
 34 36  1  0
 36 37  1  0
 36 38  2  0
 38 39  1  0
 28 40  1  0
 40 41  1  0
 40 42  1  0
 40 43  1  0
 43 44  1  0
 43 45  1  0
 17 46  2  0
 46 47  1  0
 46 48  1  0
 48 49  1  0
 48  2  2  0
 15  9  2  0
 43 20  1  0
 38 29  1  0
M  CHG  2   3  -1  20   1
M  END
>  <UniqueID>  (73) 
72

>  <SMILES>  (73) 
O=C(c1ccc[n-]/c1=N\Cc1cccs1)[NH+]1CCN(c2ccccc2F)CC1

>  <Energy>  (73) 
98.68728752079959

>  <Genealogy>  (73) 
O=C(c1ccc[n-]c1=NCc1cccs1)[NH+]1CCN(c2ccccc2F)CC1 (protonated)
O=C(c1ccc[n-]/c1=N\Cc1cccs1)[NH+]1CCN(c2ccccc2F)CC1 (cis-trans isomerization)
O=C(c1ccc[n-]/c1=N\Cc1cccs1)[NH+]1CCN(c2ccccc2F)CC1 (3D coordinates assigned)
O=C(c1ccc[n-]/c1=N\Cc1cccs1)[NH+]1CCN(c2ccccc2F)CC1 (nonaromatic ring conformer: 98.68728752079959 kcal/mol)

>  <smiles>  (73) 
O=C(c1ccc[nH]c1=NCc1cccs1)N1CCN(c2ccccc2F)CC1

>  <score_type>  (73) 
oracle

>  <origin>  (73) 
adg

>  <m_score__min__energy>  (73) 
-8.2400000000000002

>  <m_primary>  (73) 
energy

$$$$
74:0
     RDKit          3D

 22 23  0  0  0  0  0  0  0  0999 V2000
   54.1590   29.7860   44.0730 H   0  0  0  0  0  0  0  0  0  0  0  0
   55.1080   30.2230   44.0770 N   0  0  0  0  0  0  0  0  0  0  0  0
   56.0670   29.7480   44.8020 C   0  0  0  0  0  0  0  0  0  0  0  0
   56.1050   28.4230   45.1080 N   0  0  0  0  0  0  0  0  0  0  0  0
   57.1020   27.8960   45.8700 C   0  0  0  0  0  0  0  0  0  0  0  0
   57.0990   26.4450   46.1850 C   0  0  0  0  0  0  0  0  0  0  0  0
   58.3100   25.7710   46.4390 C   0  0  0  0  0  0  0  0  0  0  0  0
   59.2608   26.3222   46.3922 H   0  0  0  0  0  0  0  0  0  0  0  0
   58.3140   24.4080   46.7500 C   0  0  0  0  0  0  0  0  0  0  0  0
   59.2665   23.8929   46.9434 H   0  0  0  0  0  0  0  0  0  0  0  0
   57.1130   23.6980   46.8160 C   0  0  0  0  0  0  0  0  0  0  0  0
   57.1330   22.3410   47.1280 O   0  0  0  0  0  0  0  0  0  0  0  0
   56.5770   21.6690   46.6110 H   0  0  0  0  0  0  0  0  0  0  0  0
   55.9030   24.3560   46.5680 C   0  0  0  0  0  0  0  0  0  0  0  0
   54.9567   23.7978   46.6209 H   0  0  0  0  0  0  0  0  0  0  0  0
   55.8890   25.7200   46.2530 C   0  0  0  0  0  0  0  0  0  0  0  0
   54.6700   26.3380   45.9950 O   0  0  0  0  0  0  0  0  0  0  0  0
   58.1140   28.7460   46.3460 C   0  0  0  0  0  0  0  0  0  0  0  0
   58.9344   28.3500   46.9626 H   0  0  0  0  0  0  0  0  0  0  0  0
   58.0590   30.1020   46.0220 C   0  0  0  0  0  0  0  0  0  0  0  0
   58.9540   30.8880   46.4320 O   0  0  0  0  0  0  0  0  0  0  0  0
   57.0400   30.5770   45.2600 N   0  0  0  0  0  0  0  0  0  0  0  0
  1  2  1  0
  2  3  2  0
  3  4  1  0
  4  5  1  0
  5  6  1  0
  6  7  2  0
  7  8  1  0
  7  9  1  0
  9 10  1  0
  9 11  2  0
 11 12  1  0
 12 13  1  0
 11 14  1  0
 14 15  1  0
 14 16  2  0
 16 17  1  0
  5 18  2  0
 18 19  1  0
 18 20  1  0
 20 21  2  0
 20 22  1  0
 22  3  1  0
 16  6  1  0
M  CHG  3   4  -1  17  -1  22  -1
M  END
>  <UniqueID>  (74) 
73

>  <SMILES>  (74) 
[H]/N=c1\[n-]c(-c2ccc(O)cc2[O-])cc(=O)[n-]1

>  <Energy>  (74) 
28.73318488605463

>  <Genealogy>  (74) 
N=c1[n-]c(-c2ccc(O)cc2[O-])cc(=O)[n-]1 (protonated)
[H]/N=c1\[n-]c(-c2ccc(O)cc2[O-])cc(=O)[n-]1 (cis-trans isomerization)
[H]/N=c1\[n-]c(-c2ccc(O)cc2[O-])cc(=O)[n-]1 (3D coordinates assigned)
[H]/N=c1\[n-]c(-c2ccc(O)cc2[O-])cc(=O)[n-]1 (optimized conformer: 28.73318488605463 kcal/mol)

>  <smiles>  (74) 
N=c1[nH]c(-c2ccc(O)cc2O)cc(=O)[nH]1

>  <score_type>  (74) 
oracle

>  <origin>  (74) 
adg

>  <m_score__min__energy>  (74) 
-13.210000000000001

>  <m_primary>  (74) 
energy

$$$$
75:0
     RDKit          3D

 50 53  0  0  1  0  0  0  0  0999 V2000
   59.4470   27.7420   47.7660 C   0  0  0  0  0  0  0  0  0  0  0  0
   59.4710   29.0970   48.4260 C   0  0  0  0  0  0  0  0  0  0  0  0
   58.8830   29.2070   49.5370 N   0  0  0  0  0  0  0  0  0  0  0  0
   58.8290   30.4340   50.2750 C   0  0  0  0  0  0  0  0  0  0  0  0
   58.1520   30.5000   51.4330 N   0  0  0  0  0  0  0  0  0  0  0  0
   59.4130   32.7050   50.3560 C   0  0  0  0  0  0  0  0  0  0  0  0
   57.2990   31.8330   53.4670 S   0  0  0  0  0  0  0  0  0  0  0  0
   58.7290   32.7940   51.5320 N   0  0  0  0  0  0  0  0  0  0  0  0
   59.8970   35.0630   46.2370 C   0  0  0  0  0  0  0  0  0  0  0  0
   59.9650   33.7900   49.9350 N   0  0  0  0  0  0  0  0  0  0  0  0
   59.4740   31.5020   49.6990 C   0  0  0  0  0  0  0  0  0  0  0  0
   60.2610   31.4230   48.4350 C   0  0  2  0  0  0  0  0  0  0  0  0
   60.1350   32.6850   47.6600 C   0  0  0  0  0  0  0  0  0  0  0  0
   61.2530   33.3670   47.1560 C   0  0  0  0  0  0  0  0  0  0  0  0
   62.6110   32.7670   47.4070 C   0  0  0  0  0  0  0  0  0  0  0  0
   61.1040   34.5170   46.4700 N   0  0  0  0  0  0  0  0  0  0  0  0
   58.1120   31.6930   52.0500 C   0  0  0  0  0  0  0  0  0  0  0  0
   59.7410   36.1350   45.5980 O   0  0  0  0  0  0  0  0  0  0  0  0
   58.8300   34.4110   46.7190 N   0  0  0  0  0  0  0  0  0  0  0  0
   58.9060   33.2600   47.4120 C   0  0  0  0  0  0  0  0  0  0  0  0
   57.8280   32.7170   47.8290 O   0  0  0  0  0  0  0  0  0  0  0  0
   60.1650   30.1740   47.6680 C   0  0  2  0  0  0  0  0  0  0  0  0
   59.4970   30.2640   46.3370 C   0  0  0  0  0  0  0  0  0  0  0  0
   60.1420   29.9070   45.2910 O   0  0  0  0  0  0  0  0  0  0  0  0
   58.1810   30.7260   46.1250 N   0  0  0  0  0  0  0  0  0  0  0  0
   57.6990   30.7510   44.7870 C   0  0  0  0  0  0  0  0  0  0  0  0
   58.0530   31.6570   43.8420 C   0  0  0  0  0  0  0  0  0  0  0  0
   57.5380   31.6150   42.5500 C   0  0  0  0  0  0  0  0  0  0  0  0
   56.6410   30.6140   42.2380 C   0  0  0  0  0  0  0  0  0  0  0  0
   56.2520   29.6720   43.1650 C   0  0  0  0  0  0  0  0  0  0  0  0
   56.7940   29.7630   44.4290 C   0  0  0  0  0  0  0  0  0  0  0  0
   56.4020   28.8260   45.3360 F   0  0  0  0  0  0  0  0  0  0  0  0
   59.4331   26.9584   48.5379 H   0  0  0  0  0  0  0  0  0  0  0  0
   58.5472   27.6553   47.1393 H   0  0  0  0  0  0  0  0  0  0  0  0
   60.3432   27.6235   47.1393 H   0  0  0  0  0  0  0  0  0  0  0  0
   57.6830   29.6410   51.8170 H   0  0  0  0  0  0  0  0  0  0  0  0
   58.6670   33.7050   52.0530 H   0  0  0  0  0  0  0  0  0  0  0  0
   59.5010   34.4890   49.3520 H   0  0  0  0  0  0  0  0  0  0  0  0
   61.3149   31.3426   48.7395 H   0  0  0  0  0  0  0  0  0  0  0  0
   62.7836   32.6908   48.4907 H   0  0  0  0  0  0  0  0  0  0  0  0
   62.6578   31.7644   46.9568 H   0  0  0  0  0  0  0  0  0  0  0  0
   63.3837   33.4075   46.9568 H   0  0  0  0  0  0  0  0  0  0  0  0
   61.9720   34.9860   46.1150 H   0  0  0  0  0  0  0  0  0  0  0  0
   57.8650   34.8020   46.5600 H   0  0  0  0  0  0  0  0  0  0  0  0
   61.2256   29.9400   47.4940 H   0  0  0  0  0  0  0  0  0  0  0  0
   57.5980   31.0390   46.9180 H   0  0  0  0  0  0  0  0  0  0  0  0
   58.7692   32.4494   44.1049 H   0  0  0  0  0  0  0  0  0  0  0  0
   57.8378   32.3595   41.7978 H   0  0  0  0  0  0  0  0  0  0  0  0
   56.2249   30.5668   41.2208 H   0  0  0  0  0  0  0  0  0  0  0  0
   55.5363   28.8777   42.9063 H   0  0  0  0  0  0  0  0  0  0  0  0
  1  2  1  0
  2  3  2  0
  3  4  1  0
  4  5  1  0
  5  6  1  0
  6  7  2  0
  6  8  1  0
  8  9  1  0
  9 10  2  3
  9 11  1  0
 11 12  1  0
 12 13  1  0
 13 14  2  0
 14 15  1  0
 14 16  1  0
 16 17  1  0
 17 18  2  0
 17 19  1  0
 19 20  1  0
 20 21  2  0
 12 22  1  0
 22 23  1  0
 23 24  2  0
 23 25  1  0
 25 26  1  0
 26 27  2  0
 27 28  1  0
 28 29  2  0
 29 30  1  0
 30 31  2  0
 31 32  1  0
 22  2  1  0
 31 26  1  0
 11  4  2  0
 20 13  1  0
  1 33  1  0
  1 34  1  0
  1 35  1  0
  5 36  1  0
  8 37  1  0
 10 38  1  0
 12 39  1  1
 15 40  1  0
 15 41  1  0
 15 42  1  0
 16 43  1  0
 19 44  1  0
 22 45  1  6
 25 46  1  0
 27 47  1  0
 28 48  1  0
 29 49  1  0
 30 50  1  0
M  END
>  <smiles>  (75) 
CC1=Nc2[nH]c(=S)[nH]c(=N)c2C(c2c(C)[nH]c(=O)[nH]c2=O)C1C(=O)Nc1ccccc1F

>  <score_type>  (75) 
oracle

>  <origin>  (75) 
adg

>  <m_score__min__energy>  (75) 
-7.6600000000000001

>  <m_primary>  (75) 
energy

$$$$
76:0
     RDKit          3D

 38 40  0  0  0  0  0  0  0  0999 V2000
   59.3530   28.8360   44.5080 C   0  0  0  0  0  0  0  0  0  0  0  0
   59.1620   29.9040   45.2830 C   0  0  0  0  0  0  0  0  0  0  0  0
   59.9520   30.0880   46.5210 C   0  0  0  0  0  0  0  0  0  0  0  0
   60.9330   31.0360   46.5400 N   0  0  0  0  0  0  0  0  0  0  0  0
   61.6950   31.2470   47.6560 C   0  0  0  0  0  0  0  0  0  0  0  0
   62.7930   32.2890   47.7240 C   0  0  0  0  0  0  0  0  0  0  0  0
   62.7140   33.4580   46.7530 C   0  0  0  0  0  0  0  0  0  0  0  0
   62.4050   33.6700   48.2300 C   0  0  0  0  0  0  0  0  0  0  0  0
   61.4720   30.4970   48.7650 N   0  0  0  0  0  0  0  0  0  0  0  0
   60.5050   29.5490   48.7990 C   0  0  0  0  0  0  0  0  0  0  0  0
   59.6980   29.3240   47.6790 C   0  0  0  0  0  0  0  0  0  0  0  0
   58.6140   28.2820   47.7380 C   0  0  0  0  0  0  0  0  0  0  0  0
   58.0360   31.1650   44.7900 S   0  0  0  0  0  0  0  0  0  0  0  0
   58.0590   31.3330   43.2960 O   0  0  0  0  0  0  0  0  0  0  0  0
   56.6440   30.7630   45.1950 O   0  0  0  0  0  0  0  0  0  0  0  0
   58.4800   32.6850   45.5580 C   0  0  0  0  0  0  0  0  0  0  0  0
   58.4590   32.8140   46.9560 C   0  0  0  0  0  0  0  0  0  0  0  0
   58.8520   34.0140   47.5560 C   0  0  0  0  0  0  0  0  0  0  0  0
   59.2670   35.0900   46.7660 C   0  0  0  0  0  0  0  0  0  0  0  0
   59.2880   34.9660   45.3730 C   0  0  0  0  0  0  0  0  0  0  0  0
   58.8980   33.7660   44.7700 C   0  0  0  0  0  0  0  0  0  0  0  0
   58.7602   28.7094   43.5901 H   0  0  0  0  0  0  0  0  0  0  0  0
   60.1034   28.0815   44.7865 H   0  0  0  0  0  0  0  0  0  0  0  0
   61.1010   31.5860   45.6720 H   0  0  0  0  0  0  0  0  0  0  0  0
   63.5644   31.5499   47.9860 H   0  0  0  0  0  0  0  0  0  0  0  0
   63.6342   33.8751   46.3180 H   0  0  0  0  0  0  0  0  0  0  0  0
   62.1808   33.6523   45.8107 H   0  0  0  0  0  0  0  0  0  0  0  0
   63.1021   34.2404   48.8615 H   0  0  0  0  0  0  0  0  0  0  0  0
   61.5561   34.0810   48.7961 H   0  0  0  0  0  0  0  0  0  0  0  0
   60.3538   28.9535   49.7114 H   0  0  0  0  0  0  0  0  0  0  0  0
   58.3792   28.0563   48.7887 H   0  0  0  0  0  0  0  0  0  0  0  0
   57.7128   28.6615   47.2342 H   0  0  0  0  0  0  0  0  0  0  0  0
   58.9576   27.3665   47.2342 H   0  0  0  0  0  0  0  0  0  0  0  0
   58.1327   31.9692   47.5804 H   0  0  0  0  0  0  0  0  0  0  0  0
   58.8346   34.1116   48.6515 H   0  0  0  0  0  0  0  0  0  0  0  0
   59.5768   36.0333   47.2394 H   0  0  0  0  0  0  0  0  0  0  0  0
   59.6117   35.8135   44.7509 H   0  0  0  0  0  0  0  0  0  0  0  0
   58.9194   33.6703   43.6744 H   0  0  0  0  0  0  0  0  0  0  0  0
  1  2  2  0
  2  3  1  0
  3  4  2  0
  4  5  1  0
  5  6  1  0
  6  7  1  0
  7  8  1  0
  5  9  2  0
  9 10  1  0
 10 11  2  0
 11 12  1  0
  2 13  1  0
 13 14  2  0
 13 15  2  0
 13 16  1  0
 16 17  2  0
 17 18  1  0
 18 19  2  0
 19 20  1  0
 20 21  2  0
 11  3  1  0
 21 16  1  0
  8  6  1  0
  1 22  1  0
  1 23  1  0
  4 24  1  0
  6 25  1  0
  7 26  1  0
  7 27  1  0
  8 28  1  0
  8 29  1  0
 10 30  1  0
 12 31  1  0
 12 32  1  0
 12 33  1  0
 17 34  1  0
 18 35  1  0
 19 36  1  0
 20 37  1  0
 21 38  1  0
M  CHG  1   4   1
M  END
>  <UniqueID>  (76) 
74

>  <SMILES>  (76) 
C=C(c1[nH+]c(C2CC2)ncc1C)S(=O)(=O)c1ccccc1

>  <Energy>  (76) 
312.2643522060878

>  <Genealogy>  (76) 
C=C(c1[nH+]c(C2CC2)ncc1C)S(=O)(=O)c1ccccc1 (protonated)
C=C(c1[nH+]c(C2CC2)ncc1C)S(=O)(=O)c1ccccc1 (3D coordinates assigned)
C=C(c1[nH+]c(C2CC2)ncc1C)S(=O)(=O)c1ccccc1 (nonaromatic ring conformer: 312.2643522060878 kcal/mol)

>  <smiles>  (76) 
C=C(c1nc(C2CC2)ncc1C)S(=O)(=O)c1ccccc1

>  <score_type>  (76) 
oracle

>  <origin>  (76) 
adg

>  <m_score__min__energy>  (76) 
-6.5700000000000003

>  <m_primary>  (76) 
energy

$$$$
77:0
     RDKit          3D

 52 54  0  0  0  0  0  0  0  0999 V2000
   57.3830   24.6160   44.2300 C   0  0  0  0  0  0  0  0  0  0  0  0
   57.3780   25.9710   44.6670 O   0  0  0  0  0  0  0  0  0  0  0  0
   58.2250   26.4930   45.6580 C   0  0  0  0  0  0  0  0  0  0  0  0
   58.4140   25.8390   46.8930 C   0  0  0  0  0  0  0  0  0  0  0  0
   59.2760   26.3760   47.8530 C   0  0  0  0  0  0  0  0  0  0  0  0
   59.9620   27.5620   47.5940 C   0  0  0  0  0  0  0  0  0  0  0  0
   59.7850   28.2210   46.3760 C   0  0  0  0  0  0  0  0  0  0  0  0
   58.9070   27.7040   45.4090 C   0  0  0  0  0  0  0  0  0  0  0  0
   58.7560   28.4170   44.0890 C   0  0  0  0  0  0  0  0  0  0  0  0
   57.3920   28.2470   43.5810 N   0  0  0  0  0  0  0  0  0  0  0  0
   56.4520   29.6640   43.9360 S   0  0  0  0  0  0  0  0  0  0  0  0
   55.8880   30.2420   42.6670 O   0  0  0  0  0  0  0  0  0  0  0  0
   55.3090   29.2890   44.8370 O   0  0  0  0  0  0  0  0  0  0  0  0
   57.4630   30.8560   44.7490 C   0  0  0  0  0  0  0  0  0  0  0  0
   57.8370   30.6780   46.0890 C   0  0  0  0  0  0  0  0  0  0  0  0
   58.5700   31.6670   46.7500 C   0  0  0  0  0  0  0  0  0  0  0  0
   58.9370   32.8430   46.0810 C   0  0  0  0  0  0  0  0  0  0  0  0
   59.7990   34.1240   46.9340 S   0  0  0  0  0  0  0  0  0  0  0  0
   58.9450   34.6240   48.0650 O   0  0  0  0  0  0  0  0  0  0  0  0
   60.0440   35.2720   45.9930 O   0  0  0  0  0  0  0  0  0  0  0  0
   61.3270   33.5560   47.5630 N   0  0  0  0  0  0  0  0  0  0  0  0
   62.4080   33.8300   46.6030 C   0  0  0  0  0  0  0  0  0  0  0  0
   63.7120   33.1360   47.0430 C   0  0  0  0  0  0  0  0  0  0  0  0
   63.7330   32.8250   48.5480 C   0  0  0  0  0  0  0  0  0  0  0  0
   63.0530   33.9370   49.3490 C   0  0  0  0  0  0  0  0  0  0  0  0
   61.6070   34.1920   48.8680 C   0  0  0  0  0  0  0  0  0  0  0  0
   58.5790   33.0110   44.7350 C   0  0  0  0  0  0  0  0  0  0  0  0
   57.8400   32.0250   44.0750 C   0  0  0  0  0  0  0  0  0  0  0  0
   57.3855   23.9487   45.1045 H   0  0  0  0  0  0  0  0  0  0  0  0
   56.4856   24.4229   43.6239 H   0  0  0  0  0  0  0  0  0  0  0  0
   58.2818   24.4295   43.6239 H   0  0  0  0  0  0  0  0  0  0  0  0
   57.8797   24.9005   47.1020 H   0  0  0  0  0  0  0  0  0  0  0  0
   59.4137   25.8617   48.8156 H   0  0  0  0  0  0  0  0  0  0  0  0
   60.6434   27.9789   48.3502 H   0  0  0  0  0  0  0  0  0  0  0  0
   60.3364   29.1507   46.1723 H   0  0  0  0  0  0  0  0  0  0  0  0
   58.9621   29.4885   44.2281 H   0  0  0  0  0  0  0  0  0  0  0  0
   59.4667   27.9914   43.3652 H   0  0  0  0  0  0  0  0  0  0  0  0
   56.9410   27.4580   44.1010 H   0  0  0  0  0  0  0  0  0  0  0  0
   57.5527   29.7579   46.6206 H   0  0  0  0  0  0  0  0  0  0  0  0
   58.8606   31.5220   47.8010 H   0  0  0  0  0  0  0  0  0  0  0  0
   62.1151   33.4542   45.6116 H   0  0  0  0  0  0  0  0  0  0  0  0
   62.5800   34.9157   46.5624 H   0  0  0  0  0  0  0  0  0  0  0  0
   63.8152   32.1929   46.4862 H   0  0  0  0  0  0  0  0  0  0  0  0
   64.5446   33.8230   46.8315 H   0  0  0  0  0  0  0  0  0  0  0  0
   63.2030   31.8778   48.7267 H   0  0  0  0  0  0  0  0  0  0  0  0
   64.7806   32.7491   48.8748 H   0  0  0  0  0  0  0  0  0  0  0  0
   63.0290   33.6474   50.4099 H   0  0  0  0  0  0  0  0  0  0  0  0
   63.6289   34.8629   49.2036 H   0  0  0  0  0  0  0  0  0  0  0  0
   60.9093   33.7866   49.6156 H   0  0  0  0  0  0  0  0  0  0  0  0
   61.4806   35.2779   48.7460 H   0  0  0  0  0  0  0  0  0  0  0  0
   58.8809   33.9218   44.1971 H   0  0  0  0  0  0  0  0  0  0  0  0
   57.5534   32.1674   43.0226 H   0  0  0  0  0  0  0  0  0  0  0  0
  1  2  1  0
  2  3  1  0
  3  4  2  0
  4  5  1  0
  5  6  2  0
  6  7  1  0
  7  8  2  0
  8  9  1  0
  9 10  1  0
 10 11  1  0
 11 12  2  0
 11 13  2  0
 11 14  1  0
 14 15  2  0
 15 16  1  0
 16 17  2  0
 17 18  1  0
 18 19  2  0
 18 20  2  0
 18 21  1  0
 21 22  1  0
 22 23  1  0
 23 24  1  0
 24 25  1  0
 25 26  1  0
 17 27  1  0
 27 28  2  0
  8  3  1  0
 28 14  1  0
 26 21  1  0
  1 29  1  0
  1 30  1  0
  1 31  1  0
  4 32  1  0
  5 33  1  0
  6 34  1  0
  7 35  1  0
  9 36  1  0
  9 37  1  0
 10 38  1  0
 15 39  1  0
 16 40  1  0
 22 41  1  0
 22 42  1  0
 23 43  1  0
 23 44  1  0
 24 45  1  0
 24 46  1  0
 25 47  1  0
 25 48  1  0
 26 49  1  0
 26 50  1  0
 27 51  1  0
 28 52  1  0
M  END
>  <UniqueID>  (77) 
75

>  <SMILES>  (77) 
COc1ccccc1CNS(=O)(=O)c1ccc(S(=O)(=O)N2CCCCC2)cc1

>  <Energy>  (77) 
50.435306088709844

>  <Genealogy>  (77) 
COc1ccccc1CNS(=O)(=O)c1ccc(S(=O)(=O)N2CCCCC2)cc1 (3D coordinates assigned)
COc1ccccc1CNS(=O)(=O)c1ccc(S(=O)(=O)N2CCCCC2)cc1 (nonaromatic ring conformer: 50.435306088709844 kcal/mol)

>  <smiles>  (77) 
COc1ccccc1CNS(=O)(=O)c1ccc(S(=O)(=O)N2CCCCC2)cc1

>  <score_type>  (77) 
oracle

>  <origin>  (77) 
adg

>  <m_score__min__energy>  (77) 
-10.81

>  <m_primary>  (77) 
energy

$$$$
78:0
     RDKit          3D

 67 71  0  0  0  0  0  0  0  0999 V2000
   57.0010   29.8320   42.8170 O   0  0  0  0  0  0  0  0  0  0  0  0
   56.5320   30.2910   43.8930 C   0  0  0  0  0  0  0  0  0  0  0  0
   55.9270   29.3400   44.8920 C   0  0  0  0  0  0  0  0  0  0  0  0
   56.9450   28.3540   45.3860 C   0  0  0  0  0  0  0  0  0  0  0  0
   58.3180   28.5330   45.3700 C   0  0  0  0  0  0  0  0  0  0  0  0
   58.8610   27.4350   46.0060 C   0  0  0  0  0  0  0  0  0  0  0  0
   57.7990   26.6310   46.3620 C   0  0  0  0  0  0  0  0  0  0  0  0
   57.9260   25.4330   47.1430 N   0  0  0  0  0  0  0  0  0  0  0  0
   57.1520   24.3890   47.0910 C   0  0  0  0  0  0  0  0  0  0  0  0
   55.8410   24.5530   46.7710 N   0  0  0  0  0  0  0  0  0  0  0  0
   54.9810   23.4980   46.7290 C   0  0  0  0  0  0  0  0  0  0  0  0
   53.5780   23.7220   46.3260 C   0  0  0  0  0  0  0  0  0  0  0  0
   53.2950   24.7300   45.6250 O   0  0  0  0  0  0  0  0  0  0  0  0
   52.5310   22.8160   46.7120 N   0  0  0  0  0  0  0  0  0  0  0  0
   51.6720   22.2100   45.6880 C   0  0  0  0  0  0  0  0  0  0  0  0
   50.2030   22.2820   46.1180 C   0  0  0  0  0  0  0  0  0  0  0  0
   50.0200   21.7260   47.5370 C   0  0  0  0  0  0  0  0  0  0  0  0
   50.9220   22.4660   48.5330 C   0  0  0  0  0  0  0  0  0  0  0  0
   52.3900   22.3780   48.1050 C   0  0  0  0  0  0  0  0  0  0  0  0
   55.4610   22.2120   47.0120 C   0  0  0  0  0  0  0  0  0  0  0  0
   56.8070   22.0610   47.3450 C   0  0  0  0  0  0  0  0  0  0  0  0
   57.2710   20.9200   47.6040 O   0  0  0  0  0  0  0  0  0  0  0  0
   57.6210   23.1460   47.3840 N   0  0  0  0  0  0  0  0  0  0  0  0
   56.6290   27.1980   46.0010 N   0  0  0  0  0  0  0  0  0  0  0  0
   56.7370   31.6800   44.1890 N   0  0  0  0  0  0  0  0  0  0  0  0
   57.6170   32.2310   45.1750 C   0  0  0  0  0  0  0  0  0  0  0  0
   57.4410   33.5620   45.5730 C   0  0  0  0  0  0  0  0  0  0  0  0
   58.2600   34.1230   46.5570 C   0  0  0  0  0  0  0  0  0  0  0  0
   59.2520   33.3480   47.1800 C   0  0  0  0  0  0  0  0  0  0  0  0
   60.1240   33.9350   48.2220 C   0  0  0  0  0  0  0  0  0  0  0  0
   59.6900   34.9030   48.9070 O   0  0  0  0  0  0  0  0  0  0  0  0
   61.4590   33.4390   48.4620 N   0  0  0  0  0  0  0  0  0  0  0  0
   62.0520   33.4820   49.8020 C   0  0  0  0  0  0  0  0  0  0  0  0
   63.4790   34.0320   49.7090 C   0  0  0  0  0  0  0  0  0  0  0  0
   64.2380   33.3080   48.7580 O   0  0  0  0  0  0  0  0  0  0  0  0
   63.6910   33.4850   47.4640 C   0  0  0  0  0  0  0  0  0  0  0  0
   62.2830   32.8880   47.3800 C   0  0  0  0  0  0  0  0  0  0  0  0
   59.4200   32.0090   46.7910 C   0  0  0  0  0  0  0  0  0  0  0  0
   58.5960   31.4490   45.8090 C   0  0  0  0  0  0  0  0  0  0  0  0
   55.5399   29.9149   45.7462 H   0  0  0  0  0  0  0  0  0  0  0  0
   55.1150   28.7856   44.3986 H   0  0  0  0  0  0  0  0  0  0  0  0
   58.8670   29.3819   44.9364 H   0  0  0  0  0  0  0  0  0  0  0  0
   59.9276   27.2403   46.1917 H   0  0  0  0  0  0  0  0  0  0  0  0
   51.7998   22.7522   44.7395 H   0  0  0  0  0  0  0  0  0  0  0  0
   51.9567   21.1553   45.5595 H   0  0  0  0  0  0  0  0  0  0  0  0
   49.8725   23.3310   46.0968 H   0  0  0  0  0  0  0  0  0  0  0  0
   49.6031   21.6761   45.4230 H   0  0  0  0  0  0  0  0  0  0  0  0
   48.9700   21.8503   47.8403 H   0  0  0  0  0  0  0  0  0  0  0  0
   50.2951   20.6610   47.5364 H   0  0  0  0  0  0  0  0  0  0  0  0
   50.6213   23.5232   48.5755 H   0  0  0  0  0  0  0  0  0  0  0  0
   50.8141   21.9977   49.5224 H   0  0  0  0  0  0  0  0  0  0  0  0
   52.9986   23.0248   48.7541 H   0  0  0  0  0  0  0  0  0  0  0  0
   52.7312   21.3360   48.1933 H   0  0  0  0  0  0  0  0  0  0  0  0
   54.7908   21.3407   46.9724 H   0  0  0  0  0  0  0  0  0  0  0  0
   55.6630   26.8620   46.2160 H   0  0  0  0  0  0  0  0  0  0  0  0
   56.6519   34.1709   45.1076 H   0  0  0  0  0  0  0  0  0  0  0  0
   58.1270   35.1763   46.8448 H   0  0  0  0  0  0  0  0  0  0  0  0
   61.4485   34.1348   50.4497 H   0  0  0  0  0  0  0  0  0  0  0  0
   62.0760   32.4674   50.2262 H   0  0  0  0  0  0  0  0  0  0  0  0
   63.4387   35.0893   49.4082 H   0  0  0  0  0  0  0  0  0  0  0  0
   63.9597   33.9309   50.6932 H   0  0  0  0  0  0  0  0  0  0  0  0
   63.6404   34.5604   47.2383 H   0  0  0  0  0  0  0  0  0  0  0  0
   64.3354   32.9699   46.7364 H   0  0  0  0  0  0  0  0  0  0  0  0
   61.8330   33.1424   46.4090 H   0  0  0  0  0  0  0  0  0  0  0  0
   62.3394   31.7939   47.4794 H   0  0  0  0  0  0  0  0  0  0  0  0
   60.2040   31.3971   47.2612 H   0  0  0  0  0  0  0  0  0  0  0  0
   58.7155   30.3911   45.5322 H   0  0  0  0  0  0  0  0  0  0  0  0
  1  2  2  0
  2  3  1  0
  3  4  1  0
  4  5  2  0
  5  6  1  0
  6  7  2  0
  7  8  1  0
  8  9  2  3
  9 10  1  0
 10 11  1  0
 11 12  1  0
 12 13  2  0
 12 14  1  0
 14 15  1  0
 15 16  1  0
 16 17  1  0
 17 18  1  0
 18 19  1  0
 11 20  2  0
 20 21  1  0
 21 22  2  0
 21 23  1  0
  7 24  1  0
  2 25  1  0
 25 26  1  0
 26 27  2  0
 27 28  1  0
 28 29  2  0
 29 30  1  0
 30 31  2  0
 30 32  1  0
 32 33  1  0
 33 34  1  0
 34 35  1  0
 35 36  1  0
 36 37  1  0
 29 38  1  0
 38 39  2  0
 24  4  1  0
 39 26  1  0
 23  9  1  0
 37 32  1  0
 19 14  1  0
  3 40  1  0
  3 41  1  0
  5 42  1  0
  6 43  1  0
 15 44  1  0
 15 45  1  0
 16 46  1  0
 16 47  1  0
 17 48  1  0
 17 49  1  0
 18 50  1  0
 18 51  1  0
 19 52  1  0
 19 53  1  0
 20 54  1  0
 24 55  1  0
 27 56  1  0
 28 57  1  0
 33 58  1  0
 33 59  1  0
 34 60  1  0
 34 61  1  0
 36 62  1  0
 36 63  1  0
 37 64  1  0
 37 65  1  0
 38 66  1  0
 39 67  1  0
M  CHG  3  10  -1  23  -1  25  -1
M  END
>  <UniqueID>  (78) 
76

>  <SMILES>  (78) 
O=C(Cc1ccc(N=c2[n-]c(C(=O)N3CCCCC3)cc(=O)[n-]2)[nH]1)[N-]c1ccc(C(=O)N2CCOCC2)cc1

>  <Energy>  (78) 
113.09576860044442

>  <Genealogy>  (78) 
O=C(Cc1ccc(N=c2[n-]c(C(=O)N3CCCCC3)cc(=O)[n-]2)[nH]1)[N-]c1ccc(C(=O)N2CCOCC2)cc1 (protonated)
O=C(Cc1ccc(N=c2[n-]c(C(=O)N3CCCCC3)cc(=O)[n-]2)[nH]1)[N-]c1ccc(C(=O)N2CCOCC2)cc1 (3D coordinates assigned)
O=C(Cc1ccc(N=c2[n-]c(C(=O)N3CCCCC3)cc(=O)[n-]2)[nH]1)[N-]c1ccc(C(=O)N2CCOCC2)cc1 (nonaromatic ring conformer: 113.09576860044442 kcal/mol)

>  <smiles>  (78) 
O=C(Cc1ccc(N=c2[nH]c(C(=O)N3CCCCC3)cc(=O)[nH]2)[nH]1)Nc1ccc(C(=O)N2CCOCC2)cc1

>  <score_type>  (78) 
oracle

>  <origin>  (78) 
adg

>  <m_score__min__energy>  (78) 
-14.550000000000001

>  <m_primary>  (78) 
energy

$$$$
79:0
     RDKit          3D

 59 62  0  0  0  0  0  0  0  0999 V2000
   55.1910   24.7640   45.5900 C   0  0  0  0  0  0  0  0  0  0  0  0
   55.9920   23.7450   44.8240 C   0  0  0  0  0  0  0  0  0  0  0  0
   55.5300   23.3250   43.5630 C   0  0  0  0  0  0  0  0  0  0  0  0
   56.2460   22.3860   42.8190 C   0  0  0  0  0  0  0  0  0  0  0  0
   57.4340   21.8580   43.3180 C   0  0  0  0  0  0  0  0  0  0  0  0
   57.9100   22.2640   44.5650 C   0  0  0  0  0  0  0  0  0  0  0  0
   57.2050   23.2090   45.3320 C   0  0  0  0  0  0  0  0  0  0  0  0
   57.7250   23.5290   46.7160 C   0  0  0  0  0  0  0  0  0  0  0  0
   57.8060   24.9750   46.8740 N   0  0  0  0  0  0  0  0  0  0  0  0
   58.7000   25.7760   46.0970 C   0  0  0  0  0  0  0  0  0  0  0  0
   59.8170   25.3040   45.7560 O   0  0  0  0  0  0  0  0  0  0  0  0
   58.2920   27.1310   45.6600 C   0  0  0  0  0  0  0  0  0  0  0  0
   59.2450   28.0530   45.1970 C   0  0  0  0  0  0  0  0  0  0  0  0
   58.8450   29.2980   44.7040 C   0  0  0  0  0  0  0  0  0  0  0  0
   57.4860   29.6450   44.6590 C   0  0  0  0  0  0  0  0  0  0  0  0
   57.0920   30.9000   44.0730 N   0  0  0  0  0  0  0  0  0  0  0  0
   57.6690   31.3730   42.8110 C   0  0  0  0  0  0  0  0  0  0  0  0
   58.5230   32.6350   43.0610 C   0  0  0  0  0  0  0  0  0  0  0  0
   58.4450   33.0630   44.4790 N   0  0  0  0  0  0  0  0  0  0  0  0
   59.2320   34.2860   44.7170 C   0  0  0  0  0  0  0  0  0  0  0  0
   59.8540   34.2260   46.0880 C   0  0  0  0  0  0  0  0  0  0  0  0
   61.1970   33.8380   46.2280 C   0  0  0  0  0  0  0  0  0  0  0  0
   61.7980   33.8240   47.4900 C   0  0  0  0  0  0  0  0  0  0  0  0
   61.0660   34.1970   48.6220 C   0  0  0  0  0  0  0  0  0  0  0  0
   61.6790   34.1820   49.8730 O   0  0  0  0  0  0  0  0  0  0  0  0
   59.7260   34.5850   48.4870 C   0  0  0  0  0  0  0  0  0  0  0  0
   59.1220   34.6030   47.2260 C   0  0  0  0  0  0  0  0  0  0  0  0
   57.0340   33.2300   44.8840 C   0  0  0  0  0  0  0  0  0  0  0  0
   56.3170   31.8650   44.8640 C   0  0  0  0  0  0  0  0  0  0  0  0
   56.5280   28.7210   45.1210 C   0  0  0  0  0  0  0  0  0  0  0  0
   55.1690   29.0010   45.0440 O   0  0  0  0  0  0  0  0  0  0  0  0
   56.9320   27.4860   45.6310 C   0  0  0  0  0  0  0  0  0  0  0  0
   55.3220   24.5973   46.6694 H   0  0  0  0  0  0  0  0  0  0  0  0
   55.5390   25.7746   45.3301 H   0  0  0  0  0  0  0  0  0  0  0  0
   54.1268   24.6645   45.3301 H   0  0  0  0  0  0  0  0  0  0  0  0
   54.5950   23.7410   43.1595 H   0  0  0  0  0  0  0  0  0  0  0  0
   55.8712   22.0624   41.8367 H   0  0  0  0  0  0  0  0  0  0  0  0
   57.9977   21.1200   42.7284 H   0  0  0  0  0  0  0  0  0  0  0  0
   58.8479   21.8400   44.9530 H   0  0  0  0  0  0  0  0  0  0  0  0
   57.0412   23.1140   47.4711 H   0  0  0  0  0  0  0  0  0  0  0  0
   58.7232   23.0860   46.8477 H   0  0  0  0  0  0  0  0  0  0  0  0
   60.3136   27.7934   45.2226 H   0  0  0  0  0  0  0  0  0  0  0  0
   59.6021   30.0122   44.3481 H   0  0  0  0  0  0  0  0  0  0  0  0
   58.3030   30.5833   42.3817 H   0  0  0  0  0  0  0  0  0  0  0  0
   56.8560   31.6197   42.1123 H   0  0  0  0  0  0  0  0  0  0  0  0
   59.5710   32.4146   42.8098 H   0  0  0  0  0  0  0  0  0  0  0  0
   58.1357   33.4484   42.4298 H   0  0  0  0  0  0  0  0  0  0  0  0
   60.0245   34.3652   43.9583 H   0  0  0  0  0  0  0  0  0  0  0  0
   58.5725   35.1640   44.6524 H   0  0  0  0  0  0  0  0  0  0  0  0
   61.7778   33.5441   45.3412 H   0  0  0  0  0  0  0  0  0  0  0  0
   62.8497   33.5187   47.5931 H   0  0  0  0  0  0  0  0  0  0  0  0
   61.6390   33.3660   50.4720 H   0  0  0  0  0  0  0  0  0  0  0  0
   59.1475   34.8764   49.3761 H   0  0  0  0  0  0  0  0  0  0  0  0
   58.0714   34.9130   47.1250 H   0  0  0  0  0  0  0  0  0  0  0  0
   56.9934   33.6484   45.9005 H   0  0  0  0  0  0  0  0  0  0  0  0
   56.5338   33.9121   44.1808 H   0  0  0  0  0  0  0  0  0  0  0  0
   56.2147   31.4925   45.8939 H   0  0  0  0  0  0  0  0  0  0  0  0
   55.3226   31.9870   44.4099 H   0  0  0  0  0  0  0  0  0  0  0  0
   56.1780   26.7828   46.0144 H   0  0  0  0  0  0  0  0  0  0  0  0
  1  2  1  0
  2  3  2  0
  3  4  1  0
  4  5  2  0
  5  6  1  0
  6  7  2  0
  7  8  1  0
  8  9  1  0
  9 10  1  0
 10 11  2  0
 10 12  1  0
 12 13  2  0
 13 14  1  0
 14 15  2  0
 15 16  1  0
 16 17  1  0
 17 18  1  0
 18 19  1  0
 19 20  1  0
 20 21  1  0
 21 22  2  0
 22 23  1  0
 23 24  2  0
 24 25  1  0
 24 26  1  0
 26 27  2  0
 19 28  1  0
 28 29  1  0
 15 30  1  0
 30 31  1  0
 30 32  2  0
  7  2  1  0
 32 12  1  0
 29 16  1  0
 27 21  1  0
  1 33  1  0
  1 34  1  0
  1 35  1  0
  3 36  1  0
  4 37  1  0
  5 38  1  0
  6 39  1  0
  8 40  1  0
  8 41  1  0
 13 42  1  0
 14 43  1  0
 17 44  1  0
 17 45  1  0
 18 46  1  0
 18 47  1  0
 20 48  1  0
 20 49  1  0
 22 50  1  0
 23 51  1  0
 25 52  1  0
 26 53  1  0
 27 54  1  0
 28 55  1  0
 28 56  1  0
 29 57  1  0
 29 58  1  0
 32 59  1  0
M  CHG  2   9  -1  31  -1
M  END
>  <UniqueID>  (79) 
77

>  <SMILES>  (79) 
Cc1ccccc1C[N-]C(=O)c1ccc(N2CCN(Cc3ccc(O)cc3)CC2)c([O-])c1

>  <Energy>  (79) 
78.7933676062549

>  <Genealogy>  (79) 
Cc1ccccc1C[N-]C(=O)c1ccc(N2CCN(Cc3ccc(O)cc3)CC2)c([O-])c1 (protonated)
Cc1ccccc1C[N-]C(=O)c1ccc(N2CCN(Cc3ccc(O)cc3)CC2)c([O-])c1 (3D coordinates assigned)
Cc1ccccc1C[N-]C(=O)c1ccc(N2CCN(Cc3ccc(O)cc3)CC2)c([O-])c1 (nonaromatic ring conformer: 78.7933676062549 kcal/mol)

>  <smiles>  (79) 
Cc1ccccc1CNC(=O)c1ccc(N2CCN(Cc3ccc(O)cc3)CC2)c(O)c1

>  <score_type>  (79) 
oracle

>  <origin>  (79) 
adg

>  <m_score__min__energy>  (79) 
-13.85

>  <m_primary>  (79) 
energy

$$$$
80:0
     RDKit          3D

 54 57  0  0  0  0  0  0  0  0999 V2000
   55.1150   30.0990   45.7260 H   0  0  0  0  0  0  0  0  0  0  0  0
   55.2510   29.3600   45.0480 O   0  0  0  0  0  0  0  0  0  0  0  0
   56.2030   28.3580   45.2280 C   0  0  0  0  0  0  0  0  0  0  0  0
   55.9050   27.1520   45.7390 N   0  0  0  0  0  0  0  0  0  0  0  0
   57.0970   26.5220   45.7310 C   0  0  0  0  0  0  0  0  0  0  0  0
   57.2420   25.3390   46.1380 O   0  0  0  0  0  0  0  0  0  0  0  0
   58.1210   27.2540   45.2460 N   0  0  0  0  0  0  0  0  0  0  0  0
   57.5500   28.4310   44.9310 C   0  0  0  0  0  0  0  0  0  0  0  0
   58.2440   29.5720   44.2890 C   0  0  0  0  0  0  0  0  0  0  0  0
   58.5916   29.4353   43.2544 H   0  0  0  0  0  0  0  0  0  0  0  0
   58.4840   30.7660   44.8720 C   0  0  0  0  0  0  0  0  0  0  0  0
   58.8730   30.9930   46.1860 C   0  0  0  0  0  0  0  0  0  0  0  0
   59.0580   30.2293   46.9558 H   0  0  0  0  0  0  0  0  0  0  0  0
   58.9830   32.3590   46.3410 C   0  0  0  0  0  0  0  0  0  0  0  0
   59.3020   33.0240   47.6210 C   0  0  0  0  0  0  0  0  0  0  0  0
   59.0650   34.2570   47.7400 O   0  0  0  0  0  0  0  0  0  0  0  0
   59.8700   32.2880   48.7260 N   0  0  0  0  0  0  0  0  0  0  0  0
   59.7960   32.8210   50.0960 C   0  0  0  0  0  0  0  0  0  0  0  0
   59.2619   33.7826   50.0862 H   0  0  0  0  0  0  0  0  0  0  0  0
   59.2580   32.1069   50.7368 H   0  0  0  0  0  0  0  0  0  0  0  0
   61.2130   33.0300   50.6450 C   0  0  0  0  0  0  0  0  0  0  0  0
   61.6287   33.9556   50.2201 H   0  0  0  0  0  0  0  0  0  0  0  0
   61.1537   33.0966   51.7414 H   0  0  0  0  0  0  0  0  0  0  0  0
   62.0940   31.9050   50.2960 N   0  0  0  0  0  0  0  0  0  0  0  0
   63.5200   32.0540   50.4320 C   0  0  0  0  0  0  0  0  0  0  0  0
   64.1770   33.1500   49.8490 C   0  0  0  0  0  0  0  0  0  0  0  0
   63.5971   33.9088   49.3032 H   0  0  0  0  0  0  0  0  0  0  0  0
   65.5630   33.2810   49.9590 C   0  0  0  0  0  0  0  0  0  0  0  0
   66.0699   34.1449   49.5044 H   0  0  0  0  0  0  0  0  0  0  0  0
   66.3070   32.3190   50.6440 C   0  0  0  0  0  0  0  0  0  0  0  0
   67.3981   32.4306   50.7284 H   0  0  0  0  0  0  0  0  0  0  0  0
   65.6750   31.2140   51.2240 C   0  0  0  0  0  0  0  0  0  0  0  0
   66.4680   30.2660   51.8850 O   0  0  0  0  0  0  0  0  0  0  0  0
   66.8360   29.0030   51.3380 C   0  0  0  0  0  0  0  0  0  0  0  0
   67.0421   28.2957   52.1548 H   0  0  0  0  0  0  0  0  0  0  0  0
   66.0127   28.6178   50.7184 H   0  0  0  0  0  0  0  0  0  0  0  0
   67.7373   29.1203   50.7184 H   0  0  0  0  0  0  0  0  0  0  0  0
   64.2760   31.0850   51.1140 C   0  0  0  0  0  0  0  0  0  0  0  0
   63.7712   30.2184   51.5658 H   0  0  0  0  0  0  0  0  0  0  0  0
   61.5180   30.6970   49.6900 C   0  0  0  0  0  0  0  0  0  0  0  0
   62.3284   30.0209   49.3800 H   0  0  0  0  0  0  0  0  0  0  0  0
   60.8764   30.1897   50.4255 H   0  0  0  0  0  0  0  0  0  0  0  0
   60.6810   31.0850   48.4660 C   0  0  0  0  0  0  0  0  0  0  0  0
   61.3555   31.2845   47.6203 H   0  0  0  0  0  0  0  0  0  0  0  0
   59.9999   30.2526   48.2355 H   0  0  0  0  0  0  0  0  0  0  0  0
   58.6840   32.9930   45.1830 N   0  0  0  0  0  0  0  0  0  0  0  0
   58.7010   34.4420   44.9530 C   0  0  0  0  0  0  0  0  0  0  0  0
   58.7072   34.9667   45.9198 H   0  0  0  0  0  0  0  0  0  0  0  0
   59.6024   34.7123   44.3834 H   0  0  0  0  0  0  0  0  0  0  0  0
   57.8062   34.7334   44.3834 H   0  0  0  0  0  0  0  0  0  0  0  0
   58.3590   32.0310   44.2830 C   0  0  0  0  0  0  0  0  0  0  0  0
   57.9680   32.2880   43.0240 C   0  0  0  0  0  0  0  0  0  0  0  0
   57.9065   33.3271   42.6685 H   0  0  0  0  0  0  0  0  0  0  0  0
   57.7093   31.4593   42.3484 H   0  0  0  0  0  0  0  0  0  0  0  0
  1  2  1  0
  2  3  1  0
  3  4  1  0
  4  5  1  0
  5  6  2  0
  5  7  1  0
  7  8  1  0
  8  9  1  0
  9 10  1  0
  9 11  2  0
 11 12  1  0
 12 13  1  0
 12 14  2  0
 14 15  1  0
 15 16  2  0
 15 17  1  0
 17 18  1  0
 18 19  1  0
 18 20  1  0
 18 21  1  0
 21 22  1  0
 21 23  1  0
 21 24  1  0
 24 25  1  0
 25 26  2  0
 26 27  1  0
 26 28  1  0
 28 29  1  0
 28 30  2  0
 30 31  1  0
 30 32  1  0
 32 33  1  0
 33 34  1  0
 34 35  1  0
 34 36  1  0
 34 37  1  0
 32 38  2  0
 38 39  1  0
 24 40  1  0
 40 41  1  0
 40 42  1  0
 40 43  1  0
 43 44  1  0
 43 45  1  0
 14 46  1  0
 46 47  1  0
 47 48  1  0
 47 49  1  0
 47 50  1  0
 46 51  1  0
 51 52  2  0
 52 53  1  0
 52 54  1  0
  8  3  2  0
 51 11  1  0
 43 17  1  0
 38 25  1  0
M  CHG  2   4  -1   7  -1
M  END
>  <UniqueID>  (80) 
78

>  <SMILES>  (80) 
C=c1/c(=C/c2[n-]c(=O)[n-]c2O)cc(C(=O)N2CCN(c3cccc(OC)c3)CC2)n1C

>  <Energy>  (80) 
129.33834745733787

>  <Genealogy>  (80) 
C=c1c(=Cc2[n-]c(=O)[n-]c2O)cc(C(=O)N2CCN(c3cccc(OC)c3)CC2)n1C (protonated)
C=c1/c(=C/c2[n-]c(=O)[n-]c2O)cc(C(=O)N2CCN(c3cccc(OC)c3)CC2)n1C (cis-trans isomerization)
C=c1/c(=C/c2[n-]c(=O)[n-]c2O)cc(C(=O)N2CCN(c3cccc(OC)c3)CC2)n1C (3D coordinates assigned)
C=c1/c(=C/c2[n-]c(=O)[n-]c2O)cc(C(=O)N2CCN(c3cccc(OC)c3)CC2)n1C (nonaromatic ring conformer: 129.33834745733787 kcal/mol)

>  <smiles>  (80) 
C=c1c(=Cc2[nH]c(=O)[nH]c2O)cc(C(=O)N2CCN(c3cccc(OC)c3)CC2)n1C

>  <score_type>  (80) 
oracle

>  <origin>  (80) 
adg

>  <m_score__min__energy>  (80) 
-13.98

>  <m_primary>  (80) 
energy

$$$$
81:0
     RDKit          3D

 45 47  0  0  0  0  0  0  0  0999 V2000
   53.8960   29.8920   54.9500 C   0  0  0  0  0  0  0  0  0  0  0  0
   54.3580   30.3750   53.7850 C   0  0  0  0  0  0  0  0  0  0  0  0
   53.6470   30.4990   52.5800 C   0  0  0  0  0  0  0  0  0  0  0  0
   52.3350   30.3610   52.3070 C   0  0  0  0  0  0  0  0  0  0  0  0
   51.6680   30.7670   51.0610 C   0  0  0  0  0  0  0  0  0  0  0  0
   51.6610   30.0210   49.9440 N   0  0  0  0  0  0  0  0  0  0  0  0
   51.0630   30.8230   49.0360 C   0  0  0  0  0  0  0  0  0  0  0  0
   50.8540   30.4640   47.8480 O   0  0  0  0  0  0  0  0  0  0  0  0
   50.7170   32.0440   49.4980 N   0  0  0  0  0  0  0  0  0  0  0  0
   51.1200   31.9980   50.7780 C   0  0  0  0  0  0  0  0  0  0  0  0
   51.0160   33.0690   51.6580 O   0  0  0  0  0  0  0  0  0  0  0  0
   54.5810   30.8260   51.6130 C   0  0  0  0  0  0  0  0  0  0  0  0
   55.8000   30.9340   52.2500 C   0  0  0  0  0  0  0  0  0  0  0  0
   57.0620   31.2670   51.5590 C   0  0  0  0  0  0  0  0  0  0  0  0
   57.0370   32.1170   50.6290 O   0  0  0  0  0  0  0  0  0  0  0  0
   58.3040   30.6290   51.9080 N   0  0  0  0  0  0  0  0  0  0  0  0
   59.5550   31.3760   51.7190 C   0  0  0  0  0  0  0  0  0  0  0  0
   60.7470   30.6130   52.3000 C   0  0  0  0  0  0  0  0  0  0  0  0
   60.3200   29.9300   53.5340 N   0  0  0  0  0  0  0  0  0  0  0  0
   61.4810   29.4550   54.3180 C   0  0  0  0  0  0  0  0  0  0  0  0
   61.7660   27.9870   54.0110 C   0  0  0  0  0  0  0  0  0  0  0  0
   59.4210   28.8040   53.2040 C   0  0  0  0  0  0  0  0  0  0  0  0
   58.3490   29.1800   52.1550 C   0  0  0  0  0  0  0  0  0  0  0  0
   55.6610   30.6940   53.5770 N   0  0  0  0  0  0  0  0  0  0  0  0
   56.7170   30.7600   54.5950 C   0  0  0  0  0  0  0  0  0  0  0  0
   54.5575   29.8470   55.8278 H   0  0  0  0  0  0  0  0  0  0  0  0
   52.8562   29.5414   55.0264 H   0  0  0  0  0  0  0  0  0  0  0  0
   51.7067   29.9038   53.0856 H   0  0  0  0  0  0  0  0  0  0  0  0
   54.3882   30.9721   50.5399 H   0  0  0  0  0  0  0  0  0  0  0  0
   59.7198   31.5339   50.6429 H   0  0  0  0  0  0  0  0  0  0  0  0
   59.4686   32.3393   52.2431 H   0  0  0  0  0  0  0  0  0  0  0  0
   61.1012   29.8701   51.5702 H   0  0  0  0  0  0  0  0  0  0  0  0
   61.5645   31.3137   52.5252 H   0  0  0  0  0  0  0  0  0  0  0  0
   62.3641   30.0575   54.0590 H   0  0  0  0  0  0  0  0  0  0  0  0
   61.2541   29.5579   55.3894 H   0  0  0  0  0  0  0  0  0  0  0  0
   61.8742   27.4297   54.9532 H   0  0  0  0  0  0  0  0  0  0  0  0
   60.9329   27.5656   53.4293 H   0  0  0  0  0  0  0  0  0  0  0  0
   62.6963   27.9079   53.4293 H   0  0  0  0  0  0  0  0  0  0  0  0
   60.0263   27.9760   52.8065 H   0  0  0  0  0  0  0  0  0  0  0  0
   58.8951   28.5189   54.1271 H   0  0  0  0  0  0  0  0  0  0  0  0
   58.5806   28.6658   51.2106 H   0  0  0  0  0  0  0  0  0  0  0  0
   57.3682   28.8715   52.5460 H   0  0  0  0  0  0  0  0  0  0  0  0
   56.2631   30.7316   55.5966 H   0  0  0  0  0  0  0  0  0  0  0  0
   57.3956   29.9025   54.4756 H   0  0  0  0  0  0  0  0  0  0  0  0
   57.2835   31.6953   54.4756 H   0  0  0  0  0  0  0  0  0  0  0  0
  1  2  2  0
  2  3  1  0
  3  4  2  3
  4  5  1  0
  5  6  1  0
  6  7  1  0
  7  8  2  0
  7  9  1  0
  9 10  1  0
 10 11  1  0
  3 12  1  0
 12 13  2  0
 13 14  1  0
 14 15  2  0
 14 16  1  0
 16 17  1  0
 17 18  1  0
 18 19  1  0
 19 20  1  0
 20 21  1  0
 19 22  1  0
 22 23  1  0
 13 24  1  0
 24 25  1  0
 24  2  1  0
 10  5  2  0
 23 16  1  0
  1 26  1  0
  1 27  1  0
  4 28  1  0
 12 29  1  0
 17 30  1  0
 17 31  1  0
 18 32  1  0
 18 33  1  0
 20 34  1  0
 20 35  1  0
 21 36  1  0
 21 37  1  0
 21 38  1  0
 22 39  1  0
 22 40  1  0
 23 41  1  0
 23 42  1  0
 25 43  1  0
 25 44  1  0
 25 45  1  0
M  CHG  3   6  -1   9  -1  11  -1
M  END
>  <UniqueID>  (81) 
79

>  <SMILES>  (81) 
C=c1c(=Cc2[n-]c(=O)[n-]c2[O-])cc(C(=O)N2CCN(CC)CC2)n1C

>  <Energy>  (81) 
124.67776938259527

>  <Genealogy>  (81) 
C=c1c(=Cc2[n-]c(=O)[n-]c2[O-])cc(C(=O)N2CCN(CC)CC2)n1C (protonated)
C=c1c(=Cc2[n-]c(=O)[n-]c2[O-])cc(C(=O)N2CCN(CC)CC2)n1C (3D coordinates assigned)
C=c1c(=Cc2[n-]c(=O)[n-]c2[O-])cc(C(=O)N2CCN(CC)CC2)n1C (nonaromatic ring conformer: 124.67776938259527 kcal/mol)

>  <smiles>  (81) 
C=c1c(=Cc2[nH]c(=O)[nH]c2O)cc(C(=O)N2CCN(CC)CC2)n1C

>  <score_type>  (81) 
oracle

>  <origin>  (81) 
adg

>  <m_score__min__energy>  (81) 
-16.27

>  <m_primary>  (81) 
energy

$$$$
82:0
     RDKit          3D

 53 56  0  0  0  0  0  0  0  0999 V2000
   59.3210   21.8810   44.3930 C   0  0  0  0  0  0  0  0  0  0  0  0
   57.9610   22.4980   44.4720 C   0  0  0  0  0  0  0  0  0  0  0  0
   57.0900   22.4340   43.3770 C   0  0  0  0  0  0  0  0  0  0  0  0
   55.8350   23.0390   43.4660 C   0  0  0  0  0  0  0  0  0  0  0  0
   55.4610   23.6970   44.6370 C   0  0  0  0  0  0  0  0  0  0  0  0
   56.3560   23.7430   45.7160 C   0  0  0  0  0  0  0  0  0  0  0  0
   55.9910   24.4660   46.9780 C   0  0  0  0  0  0  0  0  0  0  0  0
   56.7280   25.7210   47.0680 N   0  0  0  0  0  0  0  0  0  0  0  0
   56.6430   26.7640   46.0890 C   0  0  0  0  0  0  0  0  0  0  0  0
   55.5180   27.0850   45.6200 O   0  0  0  0  0  0  0  0  0  0  0  0
   57.8820   27.4440   45.6310 C   0  0  0  0  0  0  0  0  0  0  0  0
   59.1240   26.9540   46.0710 C   0  0  0  0  0  0  0  0  0  0  0  0
   60.3090   27.5740   45.6850 C   0  0  0  0  0  0  0  0  0  0  0  0
   60.2560   28.6940   44.8610 C   0  0  0  0  0  0  0  0  0  0  0  0
   59.0580   29.1750   44.4390 N   0  0  0  0  0  0  0  0  0  0  0  0
   57.8780   28.5930   44.7940 C   0  0  0  0  0  0  0  0  0  0  0  0
   56.3570   29.3600   44.2030 S   0  0  0  0  0  0  0  0  0  0  0  0
   57.1310   30.9620   44.0140 C   0  0  0  0  0  0  0  0  0  0  0  0
   57.6210   31.4990   42.8320 C   0  0  0  0  0  0  0  0  0  0  0  0
   58.1600   32.7410   42.9600 N   0  0  0  0  0  0  0  0  0  0  0  0
   58.0990   33.1800   44.2390 C   0  0  0  0  0  0  0  0  0  0  0  0
   58.5120   34.3460   44.6410 N   0  0  0  0  0  0  0  0  0  0  0  0
   59.2800   34.6410   45.8190 C   0  0  0  0  0  0  0  0  0  0  0  0
   59.8660   35.7550   45.8850 O   0  0  0  0  0  0  0  0  0  0  0  0
   59.4030   33.6640   46.9630 C   0  0  0  0  0  0  0  0  0  0  0  0
   60.7910   33.0800   47.0560 C   0  0  0  0  0  0  0  0  0  0  0  0
   61.9110   33.8640   46.7270 C   0  0  0  0  0  0  0  0  0  0  0  0
   63.1960   33.3140   46.7800 C   0  0  0  0  0  0  0  0  0  0  0  0
   63.3710   31.9780   47.1510 C   0  0  0  0  0  0  0  0  0  0  0  0
   62.2620   31.1900   47.4720 C   0  0  0  0  0  0  0  0  0  0  0  0
   60.9760   31.7350   47.4210 C   0  0  0  0  0  0  0  0  0  0  0  0
   57.3640   32.0660   45.2580 S   0  0  0  0  0  0  0  0  0  0  0  0
   57.5770   23.1510   45.6030 N   0  0  0  0  0  0  0  0  0  0  0  0
   59.7043   21.7071   45.4093 H   0  0  0  0  0  0  0  0  0  0  0  0
   59.2584   20.9231   43.8558 H   0  0  0  0  0  0  0  0  0  0  0  0
   60.0006   22.5590   43.8558 H   0  0  0  0  0  0  0  0  0  0  0  0
   57.3916   21.9125   42.4566 H   0  0  0  0  0  0  0  0  0  0  0  0
   55.1418   22.9966   42.6130 H   0  0  0  0  0  0  0  0  0  0  0  0
   54.4735   24.1755   44.7139 H   0  0  0  0  0  0  0  0  0  0  0  0
   54.9115   24.6774   46.9769 H   0  0  0  0  0  0  0  0  0  0  0  0
   56.2481   23.8349   47.8415 H   0  0  0  0  0  0  0  0  0  0  0  0
   59.1598   26.0717   46.7270 H   0  0  0  0  0  0  0  0  0  0  0  0
   61.2780   27.1823   46.0281 H   0  0  0  0  0  0  0  0  0  0  0  0
   61.1868   29.1911   44.5506 H   0  0  0  0  0  0  0  0  0  0  0  0
   59.0500   30.0240   43.8290 H   0  0  0  0  0  0  0  0  0  0  0  0
   57.5771   30.9646   41.8715 H   0  0  0  0  0  0  0  0  0  0  0  0
   59.1730   34.1864   47.9033 H   0  0  0  0  0  0  0  0  0  0  0  0
   58.6970   32.8395   46.7851 H   0  0  0  0  0  0  0  0  0  0  0  0
   61.7761   34.9136   46.4269 H   0  0  0  0  0  0  0  0  0  0  0  0
   64.0697   33.9336   46.5294 H   0  0  0  0  0  0  0  0  0  0  0  0
   64.3820   31.5463   47.1904 H   0  0  0  0  0  0  0  0  0  0  0  0
   62.4017   30.1391   47.7653 H   0  0  0  0  0  0  0  0  0  0  0  0
   60.1055   31.1093   47.6673 H   0  0  0  0  0  0  0  0  0  0  0  0
  1  2  1  0
  2  3  2  0
  3  4  1  0
  4  5  2  0
  5  6  1  0
  6  7  1  0
  7  8  1  0
  8  9  1  0
  9 10  2  0
  9 11  1  0
 11 12  2  0
 12 13  1  0
 13 14  2  0
 14 15  1  0
 15 16  2  0
 16 17  1  0
 17 18  1  0
 18 19  2  0
 19 20  1  0
 20 21  1  0
 21 22  2  3
 22 23  1  0
 23 24  2  0
 23 25  1  0
 25 26  1  0
 26 27  2  0
 27 28  1  0
 28 29  2  0
 29 30  1  0
 30 31  2  0
 21 32  1  0
  6 33  2  0
 33  2  1  0
 16 11  1  0
 32 18  1  0
 31 26  1  0
  1 34  1  0
  1 35  1  0
  1 36  1  0
  3 37  1  0
  4 38  1  0
  5 39  1  0
  7 40  1  0
  7 41  1  0
 12 42  1  0
 13 43  1  0
 14 44  1  0
 15 45  1  0
 19 46  1  0
 25 47  1  0
 25 48  1  0
 27 49  1  0
 28 50  1  0
 29 51  1  0
 30 52  1  0
 31 53  1  0
M  CHG  3   8  -1  15   1  20  -1
M  END
>  <UniqueID>  (82) 
80

>  <SMILES>  (82) 
Cc1cccc(C[N-]C(=O)c2ccc[nH+]c2Sc2c[n-]c(=NC(=O)Cc3ccccc3)s2)n1

>  <Energy>  (82) 
85.4540128085658

>  <Genealogy>  (82) 
Cc1cccc(C[N-]C(=O)c2ccc[nH+]c2Sc2c[n-]c(=NC(=O)Cc3ccccc3)s2)n1 (protonated)
Cc1cccc(C[N-]C(=O)c2ccc[nH+]c2Sc2c[n-]c(=NC(=O)Cc3ccccc3)s2)n1 (3D coordinates assigned)
Cc1cccc(C[N-]C(=O)c2ccc[nH+]c2Sc2c[n-]c(=NC(=O)Cc3ccccc3)s2)n1 (optimized conformer: 85.4540128085658 kcal/mol)

>  <smiles>  (82) 
Cc1cccc(CNC(=O)c2cccnc2Sc2c[nH]c(=NC(=O)Cc3ccccc3)s2)n1

>  <score_type>  (82) 
oracle

>  <origin>  (82) 
adg

>  <m_score__min__energy>  (82) 
-12.23

>  <m_primary>  (82) 
energy

$$$$
83:0
     RDKit          3D

 62 65  0  0  0  0  0  0  0  0999 V2000
   50.9090   24.4680   43.4360 C   0  0  0  0  0  0  0  0  0  0  0  0
   51.7470   23.3820   43.8170 O   0  0  0  0  0  0  0  0  0  0  0  0
   52.3670   23.3100   45.0650 C   0  0  0  0  0  0  0  0  0  0  0  0
   52.4250   22.2150   45.6840 O   0  0  0  0  0  0  0  0  0  0  0  0
   52.9600   24.4690   45.6510 N   0  0  0  0  0  0  0  0  0  0  0  0
   54.6500   24.8530   45.5610 S   0  0  0  0  0  0  0  0  0  0  0  0
   54.8190   26.3400   45.7030 O   0  0  0  0  0  0  0  0  0  0  0  0
   55.2240   24.4430   44.2330 O   0  0  0  0  0  0  0  0  0  0  0  0
   55.5140   24.0170   46.8640 C   0  0  0  0  0  0  0  0  0  0  0  0
   54.9060   22.9010   47.4640 C   0  0  0  0  0  0  0  0  0  0  0  0
   55.5290   22.2330   48.5200 C   0  0  0  0  0  0  0  0  0  0  0  0
   56.7640   22.6730   48.9950 C   0  0  0  0  0  0  0  0  0  0  0  0
   57.3880   23.7760   48.4080 C   0  0  0  0  0  0  0  0  0  0  0  0
   56.7820   24.4500   47.3350 C   0  0  0  0  0  0  0  0  0  0  0  0
   57.4890   25.6010   46.7390 C   0  0  0  0  0  0  0  0  0  0  0  0
   57.7320   26.7510   47.5020 C   0  0  0  0  0  0  0  0  0  0  0  0
   58.3570   27.8600   46.9240 C   0  0  0  0  0  0  0  0  0  0  0  0
   58.7430   27.8370   45.5780 C   0  0  0  0  0  0  0  0  0  0  0  0
   59.3200   28.9950   45.0320 O   0  0  0  0  0  0  0  0  0  0  0  0
   59.6620   30.1730   45.7620 C   0  0  0  0  0  0  0  0  0  0  0  0
   58.5390   31.1740   45.7350 C   0  0  0  0  0  0  0  0  0  0  0  0
   58.3920   32.3200   46.5040 C   0  0  0  0  0  0  0  0  0  0  0  0
   59.3030   32.8240   47.5530 C   0  0  0  0  0  0  0  0  0  0  0  0
   59.9330   34.0790   47.4020 C   0  0  0  0  0  0  0  0  0  0  0  0
   59.6550   35.0920   45.9870 Cl  0  0  0  0  0  0  0  0  0  0  0  0
   60.7790   34.5630   48.4060 C   0  0  0  0  0  0  0  0  0  0  0  0
   61.0100   33.8080   49.5560 C   0  0  0  0  0  0  0  0  0  0  0  0
   60.4090   32.5580   49.7060 C   0  0  0  0  0  0  0  0  0  0  0  0
   59.5630   32.0570   48.7110 C   0  0  0  0  0  0  0  0  0  0  0  0
   58.8960   30.4400   48.9220 Cl  0  0  0  0  0  0  0  0  0  0  0  0
   57.2390   32.9220   46.1570 N   0  0  0  0  0  0  0  0  0  0  0  0
   56.6830   32.2250   45.2120 O   0  0  0  0  0  0  0  0  0  0  0  0
   57.4160   31.1720   44.9180 C   0  0  0  0  0  0  0  0  0  0  0  0
   57.0570   30.1700   43.8530 C   0  0  0  0  0  0  0  0  0  0  0  0
   56.9570   30.8650   42.4910 C   0  0  0  0  0  0  0  0  0  0  0  0
   55.7400   29.4710   44.2120 C   0  0  0  0  0  0  0  0  0  0  0  0
   58.5310   26.6680   44.8250 C   0  0  0  0  0  0  0  0  0  0  0  0
   57.9250   25.5530   45.4080 C   0  0  0  0  0  0  0  0  0  0  0  0
   50.5236   24.9674   44.3371 H   0  0  0  0  0  0  0  0  0  0  0  0
   51.4890   25.1865   42.8382 H   0  0  0  0  0  0  0  0  0  0  0  0
   50.0669   24.0892   42.8382 H   0  0  0  0  0  0  0  0  0  0  0  0
   53.9297   22.5503   47.0981 H   0  0  0  0  0  0  0  0  0  0  0  0
   55.0447   21.3580   48.9781 H   0  0  0  0  0  0  0  0  0  0  0  0
   57.2476   22.1504   49.8335 H   0  0  0  0  0  0  0  0  0  0  0  0
   58.3612   24.1194   48.7888 H   0  0  0  0  0  0  0  0  0  0  0  0
   57.4300   26.7813   48.5593 H   0  0  0  0  0  0  0  0  0  0  0  0
   58.5470   28.7574   47.5311 H   0  0  0  0  0  0  0  0  0  0  0  0
   59.8740   29.8994   46.8061 H   0  0  0  0  0  0  0  0  0  0  0  0
   60.5468   30.6289   45.2937 H   0  0  0  0  0  0  0  0  0  0  0  0
   61.2641   35.5432   48.2879 H   0  0  0  0  0  0  0  0  0  0  0  0
   61.6675   34.1991   50.3464 H   0  0  0  0  0  0  0  0  0  0  0  0
   60.6013   31.9634   50.6112 H   0  0  0  0  0  0  0  0  0  0  0  0
   56.8470   33.8040   46.5560 H   0  0  0  0  0  0  0  0  0  0  0  0
   57.8464   29.4063   43.7925 H   0  0  0  0  0  0  0  0  0  0  0  0
   56.8018   31.9437   42.6403 H   0  0  0  0  0  0  0  0  0  0  0  0
   57.8877   30.7030   41.9275 H   0  0  0  0  0  0  0  0  0  0  0  0
   56.1097   30.4472   41.9275 H   0  0  0  0  0  0  0  0  0  0  0  0
   55.6396   29.4177   45.3061 H   0  0  0  0  0  0  0  0  0  0  0  0
   54.8968   30.0403   43.7937 H   0  0  0  0  0  0  0  0  0  0  0  0
   55.7390   28.4536   43.7937 H   0  0  0  0  0  0  0  0  0  0  0  0
   58.8442   26.6318   43.7712 H   0  0  0  0  0  0  0  0  0  0  0  0
   57.7893   24.6333   44.8200 H   0  0  0  0  0  0  0  0  0  0  0  0
  1  2  1  0
  2  3  1  0
  3  4  2  0
  3  5  1  0
  5  6  1  0
  6  7  2  0
  6  8  2  0
  6  9  1  0
  9 10  2  0
 10 11  1  0
 11 12  2  0
 12 13  1  0
 13 14  2  0
 14 15  1  0
 15 16  2  0
 16 17  1  0
 17 18  2  0
 18 19  1  0
 19 20  1  0
 20 21  1  0
 21 22  1  0
 22 23  1  0
 23 24  2  0
 24 25  1  0
 24 26  1  0
 26 27  2  0
 27 28  1  0
 28 29  2  0
 29 30  1  0
 22 31  2  0
 31 32  1  0
 32 33  1  0
 33 34  1  0
 34 35  1  0
 34 36  1  0
 18 37  1  0
 37 38  2  0
 14  9  1  0
 38 15  1  0
 33 21  2  0
 29 23  1  0
  1 39  1  0
  1 40  1  0
  1 41  1  0
 10 42  1  0
 11 43  1  0
 12 44  1  0
 13 45  1  0
 16 46  1  0
 17 47  1  0
 20 48  1  0
 20 49  1  0
 26 50  1  0
 27 51  1  0
 28 52  1  0
 31 53  1  0
 34 54  1  0
 35 55  1  0
 35 56  1  0
 35 57  1  0
 36 58  1  0
 36 59  1  0
 36 60  1  0
 37 61  1  0
 38 62  1  0
M  CHG  2   5  -1  31   1
M  END
>  <UniqueID>  (83) 
81

>  <SMILES>  (83) 
COC(=O)[N-]S(=O)(=O)c1ccccc1-c1ccc(OCc2c(-c3c(Cl)cccc3Cl)[nH+]oc2C(C)C)cc1

>  <Energy>  (83) 
102.45510747353477

>  <Genealogy>  (83) 
COC(=O)[N-]S(=O)(=O)c1ccccc1-c1ccc(OCc2c(-c3c(Cl)cccc3Cl)[nH+]oc2C(C)C)cc1 (protonated)
COC(=O)[N-]S(=O)(=O)c1ccccc1-c1ccc(OCc2c(-c3c(Cl)cccc3Cl)[nH+]oc2C(C)C)cc1 (3D coordinates assigned)
COC(=O)[N-]S(=O)(=O)c1ccccc1-c1ccc(OCc2c(-c3c(Cl)cccc3Cl)[nH+]oc2C(C)C)cc1 (optimized conformer: 102.45510747353477 kcal/mol)

>  <smiles>  (83) 
COC(=O)NS(=O)(=O)c1ccccc1-c1ccc(OCc2c(-c3c(Cl)cccc3Cl)noc2C(C)C)cc1

>  <score_type>  (83) 
oracle

>  <origin>  (83) 
adg

>  <m_score__min__energy>  (83) 
-11.17

>  <m_primary>  (83) 
energy

$$$$
84:0
     RDKit          3D

 45 48  0  0  0  0  0  0  0  0999 V2000
   60.0396   28.6163   49.5349 H   0  0  0  0  0  0  0  0  0  0  0  0
   59.6060   28.2650   48.5870 C   0  0  0  0  0  0  0  0  0  0  0  0
   59.5543   27.1875   48.3718 H   0  0  0  0  0  0  0  0  0  0  0  0
   59.1390   29.1530   47.6910 C   0  0  0  0  0  0  0  0  0  0  0  0
   58.5670   28.8370   46.4550 C   0  0  0  0  0  0  0  0  0  0  0  0
   58.4270   27.6150   45.9030 C   0  0  0  0  0  0  0  0  0  0  0  0
   59.2854   27.1923   45.3603 H   0  0  0  0  0  0  0  0  0  0  0  0
   57.1950   26.8110   45.9820 C   0  0  0  0  0  0  0  0  0  0  0  0
   57.1590   25.5640   46.4820 N   0  0  0  0  0  0  0  0  0  0  0  0
   55.8460   25.2470   46.4420 C   0  0  0  0  0  0  0  0  0  0  0  0
   55.4050   24.1320   46.8230 O   0  0  0  0  0  0  0  0  0  0  0  0
   55.0410   26.2240   45.9720 N   0  0  0  0  0  0  0  0  0  0  0  0
   55.9070   27.2130   45.6970 C   0  0  0  0  0  0  0  0  0  0  0  0
   55.5210   28.4670   45.2410 O   0  0  0  0  0  0  0  0  0  0  0  0
   58.2090   30.0430   45.8740 C   0  0  0  0  0  0  0  0  0  0  0  0
   57.7366   30.1806   44.8902 H   0  0  0  0  0  0  0  0  0  0  0  0
   58.5580   31.0400   46.7650 C   0  0  0  0  0  0  0  0  0  0  0  0
   58.3280   32.4840   46.5160 C   0  0  0  0  0  0  0  0  0  0  0  0
   57.4440   33.0940   47.1790 O   0  0  0  0  0  0  0  0  0  0  0  0
   59.0360   33.1580   45.4460 N   0  0  0  0  0  0  0  0  0  0  0  0
   59.4200   32.5100   44.7170 H   0  0  0  0  0  0  0  0  0  0  0  0
   58.2640   34.2650   44.8690 C   0  0  0  0  0  0  0  0  0  0  0  0
   58.1517   34.1981   43.7768 H   0  0  0  0  0  0  0  0  0  0  0  0
   57.2126   34.3917   45.1665 H   0  0  0  0  0  0  0  0  0  0  0  0
   59.2820   35.3030   45.3100 C   0  0  0  0  0  0  0  0  0  0  0  0
   59.7881   35.8369   44.4922 H   0  0  0  0  0  0  0  0  0  0  0  0
   59.0117   36.1873   45.9058 H   0  0  0  0  0  0  0  0  0  0  0  0
   60.0530   34.1260   45.8860 C   0  0  0  0  0  0  0  0  0  0  0  0
   61.0360   33.9735   45.4166 H   0  0  0  0  0  0  0  0  0  0  0  0
   60.3454   34.1475   46.9462 H   0  0  0  0  0  0  0  0  0  0  0  0
   59.1310   30.5020   47.8740 N   0  0  0  0  0  0  0  0  0  0  0  0
   59.6770   31.2560   49.0160 C   0  0  0  0  0  0  0  0  0  0  0  0
   58.8825   31.8892   49.4376 H   0  0  0  0  0  0  0  0  0  0  0  0
   60.0423   30.5334   49.7606 H   0  0  0  0  0  0  0  0  0  0  0  0
   60.8360   32.1340   48.6040 C   0  0  0  0  0  0  0  0  0  0  0  0
   61.7850   31.6510   47.6840 C   0  0  0  0  0  0  0  0  0  0  0  0
   61.6654   30.6466   47.2517 H   0  0  0  0  0  0  0  0  0  0  0  0
   62.8790   32.4400   47.3160 C   0  0  0  0  0  0  0  0  0  0  0  0
   63.6104   32.0591   46.5880 H   0  0  0  0  0  0  0  0  0  0  0  0
   63.0450   33.7110   47.8710 C   0  0  0  0  0  0  0  0  0  0  0  0
   64.1070   34.4740   47.5130 F   0  0  0  0  0  0  0  0  0  0  0  0
   62.1200   34.1920   48.8010 C   0  0  0  0  0  0  0  0  0  0  0  0
   62.2534   35.1911   49.2415 H   0  0  0  0  0  0  0  0  0  0  0  0
   61.0250   33.4060   49.1730 C   0  0  0  0  0  0  0  0  0  0  0  0
   60.3071   33.7850   49.9153 H   0  0  0  0  0  0  0  0  0  0  0  0
  1  2  1  0
  2  3  1  0
  2  4  2  0
  4  5  1  0
  5  6  2  0
  6  7  1  0
  6  8  1  0
  8  9  1  0
  9 10  1  0
 10 11  2  0
 10 12  1  0
 12 13  1  0
 13 14  1  0
  5 15  1  0
 15 16  1  0
 15 17  2  0
 17 18  1  0
 18 19  2  0
 18 20  1  0
 20 21  1  0
 20 22  1  0
 22 23  1  0
 22 24  1  0
 22 25  1  0
 25 26  1  0
 25 27  1  0
 25 28  1  0
 28 29  1  0
 28 30  1  0
 17 31  1  0
 31 32  1  0
 32 33  1  0
 32 34  1  0
 32 35  1  0
 35 36  2  0
 36 37  1  0
 36 38  1  0
 38 39  1  0
 38 40  2  0
 40 41  1  0
 40 42  1  0
 42 43  1  0
 42 44  2  0
 44 45  1  0
 31  4  1  0
 44 35  1  0
 13  8  2  0
 28 20  1  0
M  CHG  4   9  -1  12  -1  14  -1  20   1
M  END
>  <UniqueID>  (84) 
82

>  <SMILES>  (84) 
C=c1/c(=C/c2[n-]c(=O)[n-]c2[O-])cc(C(=O)[NH+]2CCC2)n1Cc1ccc(F)cc1

>  <Energy>  (84) 
190.82601989499312

>  <Genealogy>  (84) 
C=c1c(=Cc2[n-]c(=O)[n-]c2[O-])cc(C(=O)[NH+]2CCC2)n1Cc1ccc(F)cc1 (protonated)
C=c1/c(=C/c2[n-]c(=O)[n-]c2[O-])cc(C(=O)[NH+]2CCC2)n1Cc1ccc(F)cc1 (cis-trans isomerization)
C=c1/c(=C/c2[n-]c(=O)[n-]c2[O-])cc(C(=O)[NH+]2CCC2)n1Cc1ccc(F)cc1 (3D coordinates assigned)
C=c1/c(=C/c2[n-]c(=O)[n-]c2[O-])cc(C(=O)[NH+]2CCC2)n1Cc1ccc(F)cc1 (nonaromatic ring conformer: 190.82601989499312 kcal/mol)

>  <smiles>  (84) 
C=c1c(=Cc2[nH]c(=O)[nH]c2O)cc(C(=O)N2CCC2)n1Cc1ccc(F)cc1

>  <score_type>  (84) 
oracle

>  <origin>  (84) 
adg

>  <m_score__min__energy>  (84) 
-15.130000000000001

>  <m_primary>  (84) 
energy

$$$$
85:0
     RDKit          3D

 22 23  0  0  0  0  0  0  0  0999 V2000
   58.4050   32.4110   41.1280 C   0  0  0  0  0  0  0  0  0  0  0  0
   57.2790   31.9710   41.6850 C   0  0  0  0  0  0  0  0  0  0  0  0
   57.2340   31.4660   43.0780 C   0  0  0  0  0  0  0  0  0  0  0  0
   56.6130   30.2260   43.3120 C   0  0  0  0  0  0  0  0  0  0  0  0
   56.0850   29.4990   42.2410 O   0  0  0  0  0  0  0  0  0  0  0  0
   56.5130   29.7380   44.6240 C   0  0  0  0  0  0  0  0  0  0  0  0
   55.9500   28.6360   44.8560 O   0  0  0  0  0  0  0  0  0  0  0  0
   57.0210   30.4540   45.6580 N   0  0  0  0  0  0  0  0  0  0  0  0
   57.6500   31.6430   45.4740 C   0  0  0  0  0  0  0  0  0  0  0  0
   58.1730   32.3220   46.5800 C   0  0  0  0  0  0  0  0  0  0  0  0
   58.8580   33.5270   46.4060 C   0  0  0  0  0  0  0  0  0  0  0  0
   59.5170   34.3710   47.7960 Cl  0  0  0  0  0  0  0  0  0  0  0  0
   59.0330   34.0520   45.1240 C   0  0  0  0  0  0  0  0  0  0  0  0
   58.5120   33.3840   44.0120 C   0  0  0  0  0  0  0  0  0  0  0  0
   57.7910   32.1800   44.1710 C   0  0  0  0  0  0  0  0  0  0  0  0
   58.3987   32.7783   40.0912 H   0  0  0  0  0  0  0  0  0  0  0  0
   59.3418   32.4073   41.7045 H   0  0  0  0  0  0  0  0  0  0  0  0
   56.3522   31.9825   41.0927 H   0  0  0  0  0  0  0  0  0  0  0  0
   55.5110   28.6760   42.3750 H   0  0  0  0  0  0  0  0  0  0  0  0
   58.0443   31.9055   47.5900 H   0  0  0  0  0  0  0  0  0  0  0  0
   59.5830   34.9949   44.9885 H   0  0  0  0  0  0  0  0  0  0  0  0
   58.6648   33.7995   43.0050 H   0  0  0  0  0  0  0  0  0  0  0  0
  1  2  2  0
  2  3  1  0
  3  4  2  0
  4  5  1  0
  4  6  1  0
  6  7  2  0
  6  8  1  0
  8  9  1  0
  9 10  2  0
 10 11  1  0
 11 12  1  0
 11 13  2  0
 13 14  1  0
 14 15  2  0
 15  3  1  0
 15  9  1  0
  1 16  1  0
  1 17  1  0
  2 18  1  0
  5 19  1  0
 10 20  1  0
 13 21  1  0
 14 22  1  0
M  CHG  1   8  -1
M  END
>  <UniqueID>  (85) 
83

>  <SMILES>  (85) 
C=Cc1c(O)c(=O)[n-]c2cc(Cl)ccc12

>  <Energy>  (85) 
33.97654907215662

>  <Genealogy>  (85) 
C=Cc1c(O)c(=O)[n-]c2cc(Cl)ccc12 (protonated)
C=Cc1c(O)c(=O)[n-]c2cc(Cl)ccc12 (3D coordinates assigned)
C=Cc1c(O)c(=O)[n-]c2cc(Cl)ccc12 (optimized conformer: 33.97654907215662 kcal/mol)

>  <smiles>  (85) 
C=Cc1c(O)c(=O)[nH]c2cc(Cl)ccc12

>  <score_type>  (85) 
oracle

>  <origin>  (85) 
adg

>  <m_score__min__energy>  (85) 
-8.2599999999999998

>  <m_primary>  (85) 
energy

$$$$
86:0
     RDKit          3D

 59 63  0  0  0  0  0  0  0  0999 V2000
   59.3680   27.3550   48.2200 C   0  0  0  0  0  0  0  0  0  0  0  0
   59.5040   28.5200   47.5650 C   0  0  0  0  0  0  0  0  0  0  0  0
   59.1560   28.7820   46.2300 C   0  0  0  0  0  0  0  0  0  0  0  0
   58.4590   28.0550   45.3360 C   0  0  0  0  0  0  0  0  0  0  0  0
   57.2840   27.2210   45.6390 C   0  0  0  0  0  0  0  0  0  0  0  0
   57.3400   25.9790   46.1560 N   0  0  0  0  0  0  0  0  0  0  0  0
   56.0450   25.6830   46.3950 C   0  0  0  0  0  0  0  0  0  0  0  0
   55.6790   24.5780   46.8720 O   0  0  0  0  0  0  0  0  0  0  0  0
   55.1720   26.6680   46.0890 N   0  0  0  0  0  0  0  0  0  0  0  0
   55.9760   27.6380   45.6270 C   0  0  0  0  0  0  0  0  0  0  0  0
   55.5240   28.8840   45.2060 O   0  0  0  0  0  0  0  0  0  0  0  0
   59.6650   30.0350   45.9380 C   0  0  0  0  0  0  0  0  0  0  0  0
   60.2390   30.5190   47.0950 C   0  0  0  0  0  0  0  0  0  0  0  0
   60.8830   31.8460   47.2030 C   0  0  0  0  0  0  0  0  0  0  0  0
   62.1140   31.9100   47.4730 O   0  0  0  0  0  0  0  0  0  0  0  0
   60.1360   33.0620   46.9790 N   0  0  0  0  0  0  0  0  0  0  0  0
   59.0580   33.4220   47.9090 C   0  0  0  0  0  0  0  0  0  0  0  0
   57.7480   32.7540   47.4860 C   0  0  0  0  0  0  0  0  0  0  0  0
   57.1710   33.3150   46.1830 C   0  0  0  0  0  0  0  0  0  0  0  0
   58.1180   33.1660   45.0560 N   0  0  0  0  0  0  0  0  0  0  0  0
   57.5050   32.8580   43.7340 C   0  0  0  0  0  0  0  0  0  0  0  0
   58.1820   31.8330   42.8110 C   0  0  0  0  0  0  0  0  0  0  0  0
   56.9350   31.4460   43.5780 C   0  0  0  0  0  0  0  0  0  0  0  0
   59.1340   34.2450   44.9900 C   0  0  0  0  0  0  0  0  0  0  0  0
   60.3980   33.8620   45.7700 C   0  0  0  0  0  0  0  0  0  0  0  0
   60.1430   29.6010   48.0890 N   0  0  0  0  0  0  0  0  0  0  0  0
   60.6370   29.7510   49.4670 C   0  0  0  0  0  0  0  0  0  0  0  0
   59.8840   30.8290   50.2120 C   0  0  0  0  0  0  0  0  0  0  0  0
   58.5230   30.6760   50.5290 C   0  0  0  0  0  0  0  0  0  0  0  0
   57.8470   31.6720   51.2400 C   0  0  0  0  0  0  0  0  0  0  0  0
   58.5250   32.8220   51.6520 C   0  0  0  0  0  0  0  0  0  0  0  0
   59.8810   32.9770   51.3550 C   0  0  0  0  0  0  0  0  0  0  0  0
   60.5610   31.9840   50.6440 C   0  0  0  0  0  0  0  0  0  0  0  0
   59.6799   27.2758   49.2719 H   0  0  0  0  0  0  0  0  0  0  0  0
   58.9448   26.4803   47.7044 H   0  0  0  0  0  0  0  0  0  0  0  0
   58.7965   28.0870   44.2895 H   0  0  0  0  0  0  0  0  0  0  0  0
   59.6203   30.5484   44.9662 H   0  0  0  0  0  0  0  0  0  0  0  0
   59.3256   33.0873   48.9221 H   0  0  0  0  0  0  0  0  0  0  0  0
   58.9238   34.5137   47.8965 H   0  0  0  0  0  0  0  0  0  0  0  0
   57.9333   31.6782   47.3504 H   0  0  0  0  0  0  0  0  0  0  0  0
   57.0118   32.9530   48.2788 H   0  0  0  0  0  0  0  0  0  0  0  0
   56.2431   32.7753   45.9426 H   0  0  0  0  0  0  0  0  0  0  0  0
   56.9769   34.3880   46.3280 H   0  0  0  0  0  0  0  0  0  0  0  0
   57.1473   33.8890   43.5961 H   0  0  0  0  0  0  0  0  0  0  0  0
   58.1375   31.9629   41.7196 H   0  0  0  0  0  0  0  0  0  0  0  0
   59.1978   31.4206   42.7214 H   0  0  0  0  0  0  0  0  0  0  0  0
   55.9867   31.2937   43.0418 H   0  0  0  0  0  0  0  0  0  0  0  0
   56.6746   30.6349   44.2740 H   0  0  0  0  0  0  0  0  0  0  0  0
   59.4012   34.4229   43.9379 H   0  0  0  0  0  0  0  0  0  0  0  0
   58.7080   35.1539   45.4398 H   0  0  0  0  0  0  0  0  0  0  0  0
   61.0520   33.2793   45.1046 H   0  0  0  0  0  0  0  0  0  0  0  0
   60.8629   34.8013   46.1042 H   0  0  0  0  0  0  0  0  0  0  0  0
   60.5113   28.7956   49.9976 H   0  0  0  0  0  0  0  0  0  0  0  0
   61.6978   30.0387   49.4235 H   0  0  0  0  0  0  0  0  0  0  0  0
   57.9871   29.7678   50.2160 H   0  0  0  0  0  0  0  0  0  0  0  0
   56.7794   31.5500   51.4755 H   0  0  0  0  0  0  0  0  0  0  0  0
   57.9911   33.6052   52.2101 H   0  0  0  0  0  0  0  0  0  0  0  0
   60.4146   33.8819   51.6811 H   0  0  0  0  0  0  0  0  0  0  0  0
   61.6312   32.1064   50.4211 H   0  0  0  0  0  0  0  0  0  0  0  0
  1  2  2  0
  2  3  1  0
  3  4  2  3
  4  5  1  0
  5  6  1  0
  6  7  1  0
  7  8  2  0
  7  9  1  0
  9 10  1  0
 10 11  1  0
  3 12  1  0
 12 13  2  0
 13 14  1  0
 14 15  2  0
 14 16  1  0
 16 17  1  0
 17 18  1  0
 18 19  1  0
 19 20  1  0
 20 21  1  0
 21 22  1  0
 22 23  1  0
 20 24  1  0
 24 25  1  0
 13 26  1  0
 26 27  1  0
 27 28  1  0
 28 29  2  0
 29 30  1  0
 30 31  2  0
 31 32  1  0
 32 33  2  0
 26  2  1  0
 33 28  1  0
 10  5  2  0
 25 16  1  0
 23 21  1  0
  1 34  1  0
  1 35  1  0
  4 36  1  0
 12 37  1  0
 17 38  1  0
 17 39  1  0
 18 40  1  0
 18 41  1  0
 19 42  1  0
 19 43  1  0
 21 44  1  0
 22 45  1  0
 22 46  1  0
 23 47  1  0
 23 48  1  0
 24 49  1  0
 24 50  1  0
 25 51  1  0
 25 52  1  0
 27 53  1  0
 27 54  1  0
 29 55  1  0
 30 56  1  0
 31 57  1  0
 32 58  1  0
 33 59  1  0
M  CHG  3   6  -1   9  -1  11  -1
M  END
>  <UniqueID>  (86) 
84

>  <SMILES>  (86) 
C=c1c(=Cc2[n-]c(=O)[n-]c2[O-])cc(C(=O)N2CCCN(C3CC3)CC2)n1Cc1ccccc1

>  <Energy>  (86) 
416.59614474331386

>  <Genealogy>  (86) 
C=c1c(=Cc2[n-]c(=O)[n-]c2[O-])cc(C(=O)N2CCCN(C3CC3)CC2)n1Cc1ccccc1 (protonated)
C=c1c(=Cc2[n-]c(=O)[n-]c2[O-])cc(C(=O)N2CCCN(C3CC3)CC2)n1Cc1ccccc1 (3D coordinates assigned)
C=c1c(=Cc2[n-]c(=O)[n-]c2[O-])cc(C(=O)N2CCCN(C3CC3)CC2)n1Cc1ccccc1 (nonaromatic ring conformer: 416.59614474331386 kcal/mol)

>  <smiles>  (86) 
C=c1c(=Cc2[nH]c(=O)[nH]c2O)cc(C(=O)N2CCCN(C3CC3)CC2)n1Cc1ccccc1

>  <score_type>  (86) 
oracle

>  <origin>  (86) 
adg

>  <m_score__min__energy>  (86) 
-14.4

>  <m_primary>  (86) 
energy

$$$$
87:0
     RDKit          3D

 72 75  0  0  0  0  0  0  0  0999 V2000
   60.3340   27.5730   46.6130 C   0  0  0  0  0  0  0  0  0  0  0  0
   59.6280   27.6470   47.9680 C   0  0  0  0  0  0  0  0  0  0  0  0
   60.0400   28.8730   48.8190 C   0  0  1  0  0  0  0  0  0  0  0  0
   60.4930   30.0480   47.9460 C   0  0  0  0  0  0  0  0  0  0  0  0
   58.9460   29.3180   49.6820 N   0  0  0  0  0  0  0  0  0  0  0  0
   59.0080   29.3640   51.1120 C   0  0  0  0  0  0  0  0  0  0  0  0
   60.0780   29.0560   51.7040 O   0  0  0  0  0  0  0  0  0  0  0  0
   57.8190   29.8020   51.8820 C   0  0  0  0  0  0  0  0  0  0  0  0
   57.3140   28.9700   52.9030 C   0  0  0  0  0  0  0  0  0  0  0  0
   56.1490   29.3160   53.5940 C   0  0  0  0  0  0  0  0  0  0  0  0
   55.4700   30.4930   53.2810 C   0  0  0  0  0  0  0  0  0  0  0  0
   55.9620   31.3370   52.2820 C   0  0  0  0  0  0  0  0  0  0  0  0
   57.1430   31.0160   51.5950 C   0  0  0  0  0  0  0  0  0  0  0  0
   57.6560   31.9550   50.6420 N   0  0  0  0  0  0  0  0  0  0  0  0
   58.9010   32.6400   50.8630 C   0  0  0  0  0  0  0  0  0  0  0  0
   59.6560   32.2980   51.8110 O   0  0  0  0  0  0  0  0  0  0  0  0
   59.2710   33.7530   50.0450 N   0  0  0  0  0  0  0  0  0  0  0  0
   59.6610   33.6100   48.6770 C   0  0  0  0  0  0  0  0  0  0  0  0
   58.6740   33.6120   47.6800 C   0  0  0  0  0  0  0  0  0  0  0  0
   59.0160   33.3790   46.3430 C   0  0  0  0  0  0  0  0  0  0  0  0
   57.7600   33.2750   45.1020 S   0  0  0  0  0  0  0  0  0  0  0  0
   58.3510   33.6530   43.7720 O   0  0  0  0  0  0  0  0  0  0  0  0
   56.6600   34.2510   45.4210 O   0  0  0  0  0  0  0  0  0  0  0  0
   57.1000   31.6580   44.9990 N   0  0  0  0  0  0  0  0  0  0  0  0
   57.8830   30.7310   45.8470 C   0  0  0  0  0  0  0  0  0  0  0  0
   57.5960   29.2470   45.5250 C   0  0  0  0  0  0  0  0  0  0  0  0
   56.2760   29.0830   44.7700 C   0  0  0  0  0  0  0  0  0  0  0  0
   56.2910   29.8910   43.4630 C   0  0  0  0  0  0  0  0  0  0  0  0
   57.0770   31.2100   43.5960 C   0  0  0  0  0  0  0  0  0  0  0  0
   60.3600   33.1740   45.9990 C   0  0  0  0  0  0  0  0  0  0  0  0
   61.3480   33.1790   46.9850 C   0  0  0  0  0  0  0  0  0  0  0  0
   61.0120   33.3910   48.3330 C   0  0  0  0  0  0  0  0  0  0  0  0
   62.0470   33.4330   49.3330 N   0  0  0  0  0  0  0  0  0  0  0  0
   62.4490   32.2700   50.1100 C   0  0  0  0  0  0  0  0  0  0  0  0
   63.2310   32.8220   51.2960 C   0  0  0  0  0  0  0  0  0  0  0  0
   63.6220   34.2460   50.9090 C   0  0  0  0  0  0  0  0  0  0  0  0
   62.6330   34.6670   49.8290 C   0  0  0  0  0  0  0  0  0  0  0  0
   61.4169   27.4595   46.7695 H   0  0  0  0  0  0  0  0  0  0  0  0
   59.9528   26.7099   46.0476 H   0  0  0  0  0  0  0  0  0  0  0  0
   60.1400   28.4964   46.0476 H   0  0  0  0  0  0  0  0  0  0  0  0
   58.5432   27.6952   47.7921 H   0  0  0  0  0  0  0  0  0  0  0  0
   59.9224   26.7503   48.5330 H   0  0  0  0  0  0  0  0  0  0  0  0
   60.8851   28.5446   49.4418 H   0  0  0  0  0  0  0  0  0  0  0  0
   60.8139   30.8805   48.5894 H   0  0  0  0  0  0  0  0  0  0  0  0
   61.3331   29.7304   47.3109 H   0  0  0  0  0  0  0  0  0  0  0  0
   59.6571   30.3766   47.3109 H   0  0  0  0  0  0  0  0  0  0  0  0
   57.8422   28.0395   53.1581 H   0  0  0  0  0  0  0  0  0  0  0  0
   55.7665   28.6573   54.3876 H   0  0  0  0  0  0  0  0  0  0  0  0
   54.5481   30.7568   53.8199 H   0  0  0  0  0  0  0  0  0  0  0  0
   55.4193   32.2605   52.0320 H   0  0  0  0  0  0  0  0  0  0  0  0
   56.9750   32.3770   49.9750 H   0  0  0  0  0  0  0  0  0  0  0  0
   57.6242   33.7979   47.9509 H   0  0  0  0  0  0  0  0  0  0  0  0
   58.9537   30.9258   45.6868 H   0  0  0  0  0  0  0  0  0  0  0  0
   57.5911   30.9081   46.8927 H   0  0  0  0  0  0  0  0  0  0  0  0
   58.4140   28.8509   44.9053 H   0  0  0  0  0  0  0  0  0  0  0  0
   57.5219   28.6957   46.4740 H   0  0  0  0  0  0  0  0  0  0  0  0
   56.1249   28.0192   44.5346 H   0  0  0  0  0  0  0  0  0  0  0  0
   55.4581   29.4545   45.4049 H   0  0  0  0  0  0  0  0  0  0  0  0
   56.7567   29.2802   42.6756 H   0  0  0  0  0  0  0  0  0  0  0  0
   55.2501   30.1448   43.2139 H   0  0  0  0  0  0  0  0  0  0  0  0
   58.1090   31.0529   43.2493 H   0  0  0  0  0  0  0  0  0  0  0  0
   56.5846   31.9806   42.9847 H   0  0  0  0  0  0  0  0  0  0  0  0
   60.6369   33.0085   44.9474 H   0  0  0  0  0  0  0  0  0  0  0  0
   62.3990   33.0155   46.7044 H   0  0  0  0  0  0  0  0  0  0  0  0
   61.5647   31.7155   50.4573 H   0  0  0  0  0  0  0  0  0  0  0  0
   63.0528   31.5701   49.5137 H   0  0  0  0  0  0  0  0  0  0  0  0
   62.6031   32.8291   52.1991 H   0  0  0  0  0  0  0  0  0  0  0  0
   64.1143   32.2062   51.5208 H   0  0  0  0  0  0  0  0  0  0  0  0
   63.5466   34.9143   51.7795 H   0  0  0  0  0  0  0  0  0  0  0  0
   64.6606   34.2983   50.5505 H   0  0  0  0  0  0  0  0  0  0  0  0
   61.8547   35.3180   50.2538 H   0  0  0  0  0  0  0  0  0  0  0  0
   63.1249   35.2355   49.0260 H   0  0  0  0  0  0  0  0  0  0  0  0
  1  2  1  0
  2  3  1  0
  3  4  1  0
  3  5  1  0
  5  6  1  0
  6  7  2  0
  6  8  1  0
  8  9  2  0
  9 10  1  0
 10 11  2  0
 11 12  1  0
 12 13  2  0
 13 14  1  0
 14 15  1  0
 15 16  2  0
 15 17  1  0
 17 18  1  0
 18 19  2  0
 19 20  1  0
 20 21  1  0
 21 22  2  0
 21 23  2  0
 21 24  1  0
 24 25  1  0
 25 26  1  0
 26 27  1  0
 27 28  1  0
 28 29  1  0
 20 30  2  0
 30 31  1  0
 31 32  2  0
 32 33  1  0
 33 34  1  0
 34 35  1  0
 35 36  1  0
 36 37  1  0
 13  8  1  0
 32 18  1  0
 37 33  1  0
 29 24  1  0
  1 38  1  0
  1 39  1  0
  1 40  1  0
  2 41  1  0
  2 42  1  0
  3 43  1  1
  4 44  1  0
  4 45  1  0
  4 46  1  0
  9 47  1  0
 10 48  1  0
 11 49  1  0
 12 50  1  0
 14 51  1  0
 19 52  1  0
 25 53  1  0
 25 54  1  0
 26 55  1  0
 26 56  1  0
 27 57  1  0
 27 58  1  0
 28 59  1  0
 28 60  1  0
 29 61  1  0
 29 62  1  0
 30 63  1  0
 31 64  1  0
 34 65  1  0
 34 66  1  0
 35 67  1  0
 35 68  1  0
 36 69  1  0
 36 70  1  0
 37 71  1  0
 37 72  1  0
M  CHG  2   5  -1  17  -1
M  END
>  <UniqueID>  (87) 
85

>  <SMILES>  (87) 
CC[C@@H](C)[N-]C(=O)c1ccccc1NC(=O)[N-]c1cc(S(=O)(=O)N2CCCCC2)ccc1N1CCCC1

>  <Energy>  (87) 
87.64372320625041

>  <Genealogy>  (87) 
CCC(C)[N-]C(=O)c1ccccc1NC(=O)[N-]c1cc(S(=O)(=O)N2CCCCC2)ccc1N1CCCC1 (protonated)
CC[C@@H](C)[N-]C(=O)c1ccccc1NC(=O)[N-]c1cc(S(=O)(=O)N2CCCCC2)ccc1N1CCCC1 (chirality)
CC[C@@H](C)[N-]C(=O)c1ccccc1NC(=O)[N-]c1cc(S(=O)(=O)N2CCCCC2)ccc1N1CCCC1 (3D coordinates assigned)
CC[C@@H](C)[N-]C(=O)c1ccccc1NC(=O)[N-]c1cc(S(=O)(=O)N2CCCCC2)ccc1N1CCCC1 (nonaromatic ring conformer: 87.64372320625041 kcal/mol)

>  <smiles>  (87) 
CCC(C)NC(=O)c1ccccc1NC(=O)Nc1cc(S(=O)(=O)N2CCCCC2)ccc1N1CCCC1

>  <score_type>  (87) 
oracle

>  <origin>  (87) 
adg

>  <m_score__min__energy>  (87) 
-12.300000000000001

>  <m_primary>  (87) 
energy

$$$$
88:0
     RDKit          3D

 42 44  0  0  0  0  0  0  0  0999 V2000
   59.8670   35.0030   46.6430 C   0  0  0  0  0  0  0  0  0  0  0  0
   59.2700   35.1610   45.2400 C   0  0  0  0  0  0  0  0  0  0  0  0
   58.1610   34.2240   44.9620 N   0  0  0  0  0  0  0  0  0  0  0  0
   58.3870   33.3530   43.7820 C   0  0  0  0  0  0  0  0  0  0  0  0
   57.7300   31.9770   43.9250 C   0  0  0  0  0  0  0  0  0  0  0  0
   58.2480   31.3020   45.2010 C   0  0  0  0  0  0  0  0  0  0  0  0
   57.6890   29.9070   45.3760 C   0  0  0  0  0  0  0  0  0  0  0  0
   56.4640   29.5660   44.9280 N   0  0  0  0  0  0  0  0  0  0  0  0
   56.2670   28.2970   45.2480 N   0  0  0  0  0  0  0  0  0  0  0  0
   57.3700   27.8770   45.8950 C   0  0  0  0  0  0  0  0  0  0  0  0
   57.5380   26.4760   46.3990 C   0  0  0  0  0  0  0  0  0  0  0  0
   56.5950   25.5860   45.7310 N   0  0  0  0  0  0  0  0  0  0  0  0
   56.8670   24.7750   44.6920 C   0  0  0  0  0  0  0  0  0  0  0  0
   55.7120   24.1040   44.3530 C   0  0  0  0  0  0  0  0  0  0  0  0
   54.7630   24.5650   45.2460 C   0  0  0  0  0  0  0  0  0  0  0  0
   55.3240   25.4650   46.0760 N   0  0  0  0  0  0  0  0  0  0  0  0
   58.3000   28.8540   45.9720 N   0  0  0  0  0  0  0  0  0  0  0  0
   59.5850   28.7950   46.6670 C   0  0  0  0  0  0  0  0  0  0  0  0
   58.0650   32.1820   46.4610 C   0  0  0  0  0  0  0  0  0  0  0  0
   57.5440   33.6020   46.1570 C   0  0  0  0  0  0  0  0  0  0  0  0
   59.0922   35.2081   47.3964 H   0  0  0  0  0  0  0  0  0  0  0  0
   60.2388   33.9755   46.7697 H   0  0  0  0  0  0  0  0  0  0  0  0
   60.6984   35.7120   46.7697 H   0  0  0  0  0  0  0  0  0  0  0  0
   58.8917   36.1887   45.1363 H   0  0  0  0  0  0  0  0  0  0  0  0
   60.0711   34.9366   44.5204 H   0  0  0  0  0  0  0  0  0  0  0  0
   57.9711   33.8503   42.8934 H   0  0  0  0  0  0  0  0  0  0  0  0
   59.4716   33.1941   43.6908 H   0  0  0  0  0  0  0  0  0  0  0  0
   56.6382   32.0952   43.9884 H   0  0  0  0  0  0  0  0  0  0  0  0
   57.9777   31.3562   43.0514 H   0  0  0  0  0  0  0  0  0  0  0  0
   59.3345   31.1879   45.0723 H   0  0  0  0  0  0  0  0  0  0  0  0
   58.5645   26.1370   46.1958 H   0  0  0  0  0  0  0  0  0  0  0  0
   57.3449   26.4576   47.4818 H   0  0  0  0  0  0  0  0  0  0  0  0
   57.8438   24.6663   44.1980 H   0  0  0  0  0  0  0  0  0  0  0  0
   55.5755   23.3651   43.5496 H   0  0  0  0  0  0  0  0  0  0  0  0
   53.7108   24.2457   45.2744 H   0  0  0  0  0  0  0  0  0  0  0  0
   59.4148   28.8028   47.7537 H   0  0  0  0  0  0  0  0  0  0  0  0
   60.1123   27.8717   46.3851 H   0  0  0  0  0  0  0  0  0  0  0  0
   60.1947   29.6661   46.3851 H   0  0  0  0  0  0  0  0  0  0  0  0
   57.3473   31.6849   47.1302 H   0  0  0  0  0  0  0  0  0  0  0  0
   59.0582   32.2960   46.9198 H   0  0  0  0  0  0  0  0  0  0  0  0
   56.4573   33.5453   45.9961 H   0  0  0  0  0  0  0  0  0  0  0  0
   57.8106   34.2316   47.0187 H   0  0  0  0  0  0  0  0  0  0  0  0
  1  2  1  0
  2  3  1  0
  3  4  1  0
  4  5  1  0
  5  6  1  0
  6  7  1  0
  7  8  2  0
  8  9  1  0
  9 10  2  0
 10 11  1  0
 11 12  1  0
 12 13  1  0
 13 14  2  0
 14 15  1  0
 15 16  2  0
 10 17  1  0
 17 18  1  0
  6 19  1  0
 19 20  1  0
 20  3  1  0
 17  7  1  0
 16 12  1  0
  1 21  1  0
  1 22  1  0
  1 23  1  0
  2 24  1  0
  2 25  1  0
  4 26  1  0
  4 27  1  0
  5 28  1  0
  5 29  1  0
  6 30  1  0
 11 31  1  0
 11 32  1  0
 13 33  1  0
 14 34  1  0
 15 35  1  0
 18 36  1  0
 18 37  1  0
 18 38  1  0
 19 39  1  0
 19 40  1  0
 20 41  1  0
 20 42  1  0
M  END
>  <UniqueID>  (88) 
86

>  <SMILES>  (88) 
CCN1CCC(c2nnc(Cn3cccn3)n2C)CC1

>  <Energy>  (88) 
116.13888211665409

>  <Genealogy>  (88) 
CCN1CCC(c2nnc(Cn3cccn3)n2C)CC1 (3D coordinates assigned)
CCN1CCC(c2nnc(Cn3cccn3)n2C)CC1 (nonaromatic ring conformer: 116.13888211665409 kcal/mol)

>  <smiles>  (88) 
CCN1CCC(c2nnc(Cn3cccn3)n2C)CC1

>  <score_type>  (88) 
oracle

>  <origin>  (88) 
adg

>  <m_score__min__energy>  (88) 
-7.2300000000000004

>  <m_primary>  (88) 
energy

$$$$
89:0
     RDKit          3D

 52 55  0  0  0  0  0  0  0  0999 V2000
   60.6634   34.0275   44.5586 H   0  0  0  0  0  0  0  0  0  0  0  0
   60.0250   34.2080   45.4360 C   0  0  0  0  0  0  0  0  0  0  0  0
   58.5590   34.0870   45.2540 C   0  0  0  0  0  0  0  0  0  0  0  0
   57.9630   34.9490   44.5510 O   0  0  0  0  0  0  0  0  0  0  0  0
   57.7890   32.9500   45.8460 C   0  0  0  0  0  0  0  0  0  0  0  0
   57.9110   32.6930   47.1680 C   0  0  0  0  0  0  0  0  0  0  0  0
   57.1894   33.1718   47.8463 H   0  0  0  0  0  0  0  0  0  0  0  0
   58.9370   31.8200   47.7720 C   0  0  0  0  0  0  0  0  0  0  0  0
   59.9900   31.3010   47.0010 C   0  0  0  0  0  0  0  0  0  0  0  0
   60.0438   31.5239   45.9252 H   0  0  0  0  0  0  0  0  0  0  0  0
   60.9710   30.5010   47.5980 C   0  0  0  0  0  0  0  0  0  0  0  0
   61.7812   30.0768   46.9867 H   0  0  0  0  0  0  0  0  0  0  0  0
   60.9220   30.2410   48.9690 C   0  0  0  0  0  0  0  0  0  0  0  0
   61.6894   29.6058   49.4356 H   0  0  0  0  0  0  0  0  0  0  0  0
   59.8990   30.7870   49.7490 C   0  0  0  0  0  0  0  0  0  0  0  0
   59.8680   30.5901   50.8308 H   0  0  0  0  0  0  0  0  0  0  0  0
   58.9140   31.5840   49.1550 C   0  0  0  0  0  0  0  0  0  0  0  0
   58.1196   32.0266   49.7739 H   0  0  0  0  0  0  0  0  0  0  0  0
   56.8400   32.1610   44.9550 C   0  0  0  0  0  0  0  0  0  0  0  0
   56.0120   31.7707   45.5650 H   0  0  0  0  0  0  0  0  0  0  0  0
   56.4534   32.8282   44.1705 H   0  0  0  0  0  0  0  0  0  0  0  0
   57.5470   31.0290   44.3130 N   0  0  0  0  0  0  0  0  0  0  0  0
   57.8480   29.9320   45.2620 C   0  0  0  0  0  0  0  0  0  0  0  0
   58.8018   29.4675   44.9714 H   0  0  0  0  0  0  0  0  0  0  0  0
   57.8982   30.3699   46.2698 H   0  0  0  0  0  0  0  0  0  0  0  0
   56.7550   28.8430   45.2820 C   0  0  0  0  0  0  0  0  0  0  0  0
   57.0439   28.0289   44.6009 H   0  0  0  0  0  0  0  0  0  0  0  0
   56.6531   28.4632   46.3093 H   0  0  0  0  0  0  0  0  0  0  0  0
   55.5160   29.3730   44.8700 O   0  0  0  0  0  0  0  0  0  0  0  0
   55.5690   29.7150   43.4960 C   0  0  0  0  0  0  0  0  0  0  0  0
   55.5521   28.7884   42.9034 H   0  0  0  0  0  0  0  0  0  0  0  0
   54.7002   30.3552   43.2828 H   0  0  0  0  0  0  0  0  0  0  0  0
   56.8390   30.5180   43.1200 C   0  0  0  0  0  0  0  0  0  0  0  0
   57.5197   29.8622   42.5573 H   0  0  0  0  0  0  0  0  0  0  0  0
   56.5268   31.3821   42.5152 H   0  0  0  0  0  0  0  0  0  0  0  0
   60.6310   34.5210   46.5900 C   0  0  0  0  0  0  0  0  0  0  0  0
   60.1643   35.3008   47.2098 H   0  0  0  0  0  0  0  0  0  0  0  0
   61.8740   33.9050   47.0980 C   0  0  0  0  0  0  0  0  0  0  0  0
   62.9860   33.4860   46.3660 C   0  0  0  0  0  0  0  0  0  0  0  0
   63.0526   33.4929   45.2680 H   0  0  0  0  0  0  0  0  0  0  0  0
   63.9710   33.0700   47.1960 N   0  0  0  0  0  0  0  0  0  0  0  0
   64.9120   32.7130   46.9190 H   0  0  0  0  0  0  0  0  0  0  0  0
   63.5020   33.2420   48.4440 C   0  0  0  0  0  0  0  0  0  0  0  0
   64.1660   32.9750   49.6400 C   0  0  0  0  0  0  0  0  0  0  0  0
   65.1860   32.5632   49.6434 H   0  0  0  0  0  0  0  0  0  0  0  0
   63.4900   33.2490   50.8420 C   0  0  0  0  0  0  0  0  0  0  0  0
   63.9833   33.0468   51.8042 H   0  0  0  0  0  0  0  0  0  0  0  0
   62.1820   33.7820   50.8230 C   0  0  0  0  0  0  0  0  0  0  0  0
   61.6641   33.9929   51.7703 H   0  0  0  0  0  0  0  0  0  0  0  0
   61.5370   34.0450   49.6000 C   0  0  0  0  0  0  0  0  0  0  0  0
   60.5193   34.4615   49.5724 H   0  0  0  0  0  0  0  0  0  0  0  0
   62.2310   33.7600   48.4240 C   0  0  0  0  0  0  0  0  0  0  0  0
  1  2  1  0
  2  3  1  0
  3  4  2  0
  3  5  1  0
  5  6  2  0
  6  7  1  0
  6  8  1  0
  8  9  2  0
  9 10  1  0
  9 11  1  0
 11 12  1  0
 11 13  2  0
 13 14  1  0
 13 15  1  0
 15 16  1  0
 15 17  2  0
 17 18  1  0
  5 19  1  0
 19 20  1  0
 19 21  1  0
 19 22  1  0
 22 23  1  0
 23 24  1  0
 23 25  1  0
 23 26  1  0
 26 27  1  0
 26 28  1  0
 26 29  1  0
 29 30  1  0
 30 31  1  0
 30 32  1  0
 30 33  1  0
 33 34  1  0
 33 35  1  0
  2 36  2  3
 36 37  1  0
 36 38  1  0
 38 39  2  0
 39 40  1  0
 39 41  1  0
 41 42  1  0
 41 43  1  0
 43 44  2  0
 44 45  1  0
 44 46  1  0
 46 47  1  0
 46 48  2  0
 48 49  1  0
 48 50  1  0
 50 51  1  0
 50 52  2  0
 17  8  1  0
 33 22  1  0
 52 38  1  0
 52 43  1  0
M  END
>  <UniqueID>  (89) 
87

>  <SMILES>  (89) 
O=C(C=Cc1c[nH]c2ccccc12)/C(=C/c1ccccc1)CN1CCOCC1

>  <Energy>  (89) 
115.68709370364431

>  <Genealogy>  (89) 
O=C(C=Cc1c[nH]c2ccccc12)/C(=C/c1ccccc1)CN1CCOCC1 (cis-trans isomerization)
O=C(C=Cc1c[nH]c2ccccc12)/C(=C/c1ccccc1)CN1CCOCC1 (3D coordinates assigned)
O=C(C=Cc1c[nH]c2ccccc12)/C(=C/c1ccccc1)CN1CCOCC1 (nonaromatic ring conformer: 115.68709370364431 kcal/mol)

>  <smiles>  (89) 
O=C(C=Cc1c[nH]c2ccccc12)C(=Cc1ccccc1)CN1CCOCC1

>  <score_type>  (89) 
oracle

>  <origin>  (89) 
adg

>  <m_score__min__energy>  (89) 
-9.6199999999999992

>  <m_primary>  (89) 
energy

$$$$
90:0
     RDKit          3D

 55 58  0  0  0  0  0  0  0  0999 V2000
   53.8080   28.3120   53.6080 C   0  0  0  0  0  0  0  0  0  0  0  0
   54.1490   27.2170   54.5750 C   0  0  0  0  0  0  0  0  0  0  0  0
   54.6330   27.5340   55.6950 O   0  0  0  0  0  0  0  0  0  0  0  0
   53.9170   25.8280   54.2520 N   0  0  0  0  0  0  0  0  0  0  0  0
   53.0680   25.4740   53.1000 C   0  0  0  0  0  0  0  0  0  0  0  0
   52.7840   23.9700   53.0420 C   0  0  0  0  0  0  0  0  0  0  0  0
   54.0270   23.2170   53.2440 N   0  0  0  0  0  0  0  0  0  0  0  0
   54.2760   22.0070   52.5030 C   0  0  0  0  0  0  0  0  0  0  0  0
   54.6350   20.9680   53.1200 O   0  0  0  0  0  0  0  0  0  0  0  0
   54.1340   21.9630   51.0290 C   0  0  0  0  0  0  0  0  0  0  0  0
   52.8810   22.1560   50.4240 C   0  0  0  0  0  0  0  0  0  0  0  0
   52.7560   22.1370   49.0330 C   0  0  0  0  0  0  0  0  0  0  0  0
   53.8800   21.9310   48.2300 C   0  0  0  0  0  0  0  0  0  0  0  0
   55.1400   21.7350   48.8170 C   0  0  0  0  0  0  0  0  0  0  0  0
   56.3570   21.5580   47.9560 C   0  0  0  0  0  0  0  0  0  0  0  0
   57.1130   22.8030   47.9280 N   0  0  0  0  0  0  0  0  0  0  0  0
   57.6790   23.3680   46.7410 C   0  0  0  0  0  0  0  0  0  0  0  0
   58.4730   22.6760   46.0510 O   0  0  0  0  0  0  0  0  0  0  0  0
   57.3750   24.7500   46.3210 C   0  0  0  0  0  0  0  0  0  0  0  0
   56.0510   25.2400   46.3370 C   0  0  0  0  0  0  0  0  0  0  0  0
   54.9730   24.4350   46.7120 O   0  0  0  0  0  0  0  0  0  0  0  0
   55.8010   26.5220   45.9650 N   0  0  0  0  0  0  0  0  0  0  0  0
   56.7830   27.3680   45.5580 C   0  0  0  0  0  0  0  0  0  0  0  0
   56.4650   28.6840   45.1860 C   0  0  0  0  0  0  0  0  0  0  0  0
   55.1450   29.1220   45.2400 O   0  0  0  0  0  0  0  0  0  0  0  0
   57.4770   29.5540   44.7600 C   0  0  0  0  0  0  0  0  0  0  0  0
   57.0950   31.2030   44.2870 Cl  0  0  0  0  0  0  0  0  0  0  0  0
   58.8020   29.1130   44.7050 C   0  0  0  0  0  0  0  0  0  0  0  0
   59.1270   27.8050   45.0740 C   0  0  0  0  0  0  0  0  0  0  0  0
   58.1220   26.9210   45.5050 C   0  0  0  0  0  0  0  0  0  0  0  0
   58.4120   25.5980   45.8900 C   0  0  0  0  0  0  0  0  0  0  0  0
   59.5990   25.1710   45.8580 O   0  0  0  0  0  0  0  0  0  0  0  0
   55.2640   21.7690   50.2150 C   0  0  0  0  0  0  0  0  0  0  0  0
   54.9320   23.5750   54.3450 C   0  0  0  0  0  0  0  0  0  0  0  0
   54.4060   24.7710   55.1510 C   0  0  0  0  0  0  0  0  0  0  0  0
   53.5259   29.2179   54.1645 H   0  0  0  0  0  0  0  0  0  0  0  0
   54.6816   28.5275   52.9752 H   0  0  0  0  0  0  0  0  0  0  0  0
   52.9665   27.9935   52.9752 H   0  0  0  0  0  0  0  0  0  0  0  0
   52.1130   26.0135   53.1827 H   0  0  0  0  0  0  0  0  0  0  0  0
   53.6038   25.7559   52.1816 H   0  0  0  0  0  0  0  0  0  0  0  0
   52.0648   23.7043   53.8307 H   0  0  0  0  0  0  0  0  0  0  0  0
   52.3657   23.7190   52.0561 H   0  0  0  0  0  0  0  0  0  0  0  0
   51.9921   22.3233   51.0500 H   0  0  0  0  0  0  0  0  0  0  0  0
   51.7698   22.2847   48.5688 H   0  0  0  0  0  0  0  0  0  0  0  0
   53.7777   21.9223   47.1348 H   0  0  0  0  0  0  0  0  0  0  0  0
   56.9858   20.7556   48.3693 H   0  0  0  0  0  0  0  0  0  0  0  0
   56.0494   21.2909   46.9342 H   0  0  0  0  0  0  0  0  0  0  0  0
   55.0870   23.5660   47.2170 H   0  0  0  0  0  0  0  0  0  0  0  0
   59.5934   29.7993   44.3694 H   0  0  0  0  0  0  0  0  0  0  0  0
   60.1723   27.4658   45.0272 H   0  0  0  0  0  0  0  0  0  0  0  0
   56.2539   21.6428   50.6777 H   0  0  0  0  0  0  0  0  0  0  0  0
   55.0342   22.7102   55.0171 H   0  0  0  0  0  0  0  0  0  0  0  0
   55.9029   23.8562   53.9111 H   0  0  0  0  0  0  0  0  0  0  0  0
   53.5813   24.4364   55.7974 H   0  0  0  0  0  0  0  0  0  0  0  0
   55.2274   25.1762   55.7602 H   0  0  0  0  0  0  0  0  0  0  0  0
  1  2  1  0
  2  3  2  0
  2  4  1  0
  4  5  1  0
  5  6  1  0
  6  7  1  0
  7  8  1  0
  8  9  2  0
  8 10  1  0
 10 11  2  0
 11 12  1  0
 12 13  2  0
 13 14  1  0
 14 15  1  0
 15 16  1  0
 16 17  1  0
 17 18  2  0
 17 19  1  0
 19 20  2  0
 20 21  1  0
 20 22  1  0
 22 23  1  0
 23 24  2  0
 24 25  1  0
 24 26  1  0
 26 27  1  0
 26 28  2  0
 28 29  1  0
 29 30  2  0
 30 31  1  0
 31 32  2  0
 14 33  2  0
  7 34  1  0
 34 35  1  0
 35  4  1  0
 33 10  1  0
 31 19  1  0
 30 23  1  0
  1 36  1  0
  1 37  1  0
  1 38  1  0
  5 39  1  0
  5 40  1  0
  6 41  1  0
  6 42  1  0
 11 43  1  0
 12 44  1  0
 13 45  1  0
 15 46  1  0
 15 47  1  0
 21 48  1  0
 28 49  1  0
 29 50  1  0
 33 51  1  0
 34 52  1  0
 34 53  1  0
 35 54  1  0
 35 55  1  0
M  CHG  3  16  -1  22  -1  25  -1
M  END
>  <UniqueID>  (90) 
88

>  <SMILES>  (90) 
CC(=O)N1CCN(C(=O)c2cccc(C[N-]C(=O)c3c(O)[n-]c4c([O-])c(Cl)ccc4c3=O)c2)CC1

>  <Energy>  (90) 
73.68593822658043

>  <Genealogy>  (90) 
CC(=O)N1CCN(C(=O)c2cccc(C[N-]C(=O)c3c(O)[n-]c4c([O-])c(Cl)ccc4c3=O)c2)CC1 (protonated)
CC(=O)N1CCN(C(=O)c2cccc(C[N-]C(=O)c3c(O)[n-]c4c([O-])c(Cl)ccc4c3=O)c2)CC1 (3D coordinates assigned)
CC(=O)N1CCN(C(=O)c2cccc(C[N-]C(=O)c3c(O)[n-]c4c([O-])c(Cl)ccc4c3=O)c2)CC1 (nonaromatic ring conformer: 73.68593822658043 kcal/mol)

>  <smiles>  (90) 
CC(=O)N1CCN(C(=O)c2cccc(CNC(=O)c3c(O)[nH]c4c(O)c(Cl)ccc4c3=O)c2)CC1

>  <score_type>  (90) 
oracle

>  <origin>  (90) 
adg

>  <m_score__min__energy>  (90) 
-16.25

>  <m_primary>  (90) 
energy

$$$$
