0:0
     RDKit          3D

 56 59  0  0  0  0  0  0  0  0999 V2000
   59.1940   28.1010   47.1940 C   0  0  0  0  0  0  0  0  0  0  0  0
   58.5960   28.7910   46.2100 C   0  0  0  0  0  0  0  0  0  0  0  0
   57.7400   28.2850   45.2170 C   0  0  0  0  0  0  0  0  0  0  0  0
   57.4420   27.0180   44.8640 C   0  0  0  0  0  0  0  0  0  0  0  0
   57.2610   25.8870   45.7980 C   0  0  0  0  0  0  0  0  0  0  0  0
   55.9940   25.5880   46.3340 C   0  0  0  0  0  0  0  0  0  0  0  0
   54.8690   26.3650   46.0440 O   0  0  0  0  0  0  0  0  0  0  0  0
   55.8520   24.5220   47.1650 N   0  0  0  0  0  0  0  0  0  0  0  0
   56.9050   23.7250   47.4800 C   0  0  0  0  0  0  0  0  0  0  0  0
   56.7450   22.7490   48.2580 O   0  0  0  0  0  0  0  0  0  0  0  0
   58.1300   23.9760   46.9550 N   0  0  0  0  0  0  0  0  0  0  0  0
   58.3300   25.0250   46.1170 C   0  0  0  0  0  0  0  0  0  0  0  0
   59.4770   25.2150   45.6300 O   0  0  0  0  0  0  0  0  0  0  0  0
   57.2080   29.3870   44.5680 C   0  0  0  0  0  0  0  0  0  0  0  0
   57.7920   30.5050   45.1270 C   0  0  0  0  0  0  0  0  0  0  0  0
   57.5040   31.9140   44.7000 C   0  0  0  0  0  0  0  0  0  0  0  0
   58.6350   30.1460   46.1210 N   0  0  0  0  0  0  0  0  0  0  0  0
   59.4400   31.0470   46.9060 C   0  0  0  0  0  0  0  0  0  0  0  0
   58.8370   32.0110   47.7300 C   0  0  0  0  0  0  0  0  0  0  0  0
   59.6270   32.8940   48.4770 C   0  0  0  0  0  0  0  0  0  0  0  0
   61.0280   32.8300   48.4030 C   0  0  0  0  0  0  0  0  0  0  0  0
   61.8570   33.7400   49.2230 C   0  0  0  0  0  0  0  0  0  0  0  0
   62.7880   34.3850   48.6720 O   0  0  0  0  0  0  0  0  0  0  0  0
   61.6210   33.9320   50.6220 N   0  0  0  0  0  0  0  0  0  0  0  0
   61.4360   32.8530   51.5880 C   0  0  0  0  0  0  0  0  0  0  0  0
   59.9690   32.6870   51.8680 C   0  0  0  0  0  0  0  0  0  0  0  0
   59.1940   33.7870   52.2790 C   0  0  0  0  0  0  0  0  0  0  0  0
   57.8170   33.6410   52.4820 C   0  0  0  0  0  0  0  0  0  0  0  0
   57.2010   32.4020   52.2680 C   0  0  0  0  0  0  0  0  0  0  0  0
   57.9660   31.2930   51.8460 C   0  0  0  0  0  0  0  0  0  0  0  0
   57.3960   30.0300   51.6120 O   0  0  0  0  0  0  0  0  0  0  0  0
   56.8200   29.2060   52.6230 C   0  0  0  0  0  0  0  0  0  0  0  0
   59.3450   31.4460   51.6450 C   0  0  0  0  0  0  0  0  0  0  0  0
   61.6280   31.8460   47.6000 C   0  0  0  0  0  0  0  0  0  0  0  0
   60.8410   30.9710   46.8470 C   0  0  0  0  0  0  0  0  0  0  0  0
   59.8454   28.6201   47.9124 H   0  0  0  0  0  0  0  0  0  0  0  0
   59.0326   27.0165   47.2819 H   0  0  0  0  0  0  0  0  0  0  0  0
   57.3237   26.8087   43.7906 H   0  0  0  0  0  0  0  0  0  0  0  0
   54.2490   26.7160   46.7610 H   0  0  0  0  0  0  0  0  0  0  0  0
   56.4615   29.3734   43.7602 H   0  0  0  0  0  0  0  0  0  0  0  0
   57.3745   32.5476   45.5898 H   0  0  0  0  0  0  0  0  0  0  0  0
   58.3431   32.2936   44.0985 H   0  0  0  0  0  0  0  0  0  0  0  0
   56.5832   31.9339   44.0985 H   0  0  0  0  0  0  0  0  0  0  0  0
   57.7403   32.0729   47.7890 H   0  0  0  0  0  0  0  0  0  0  0  0
   59.1473   33.6420   49.1254 H   0  0  0  0  0  0  0  0  0  0  0  0
   61.8402   31.9167   51.1757 H   0  0  0  0  0  0  0  0  0  0  0  0
   61.9651   33.0973   52.5209 H   0  0  0  0  0  0  0  0  0  0  0  0
   59.6717   34.7645   52.4412 H   0  0  0  0  0  0  0  0  0  0  0  0
   57.2168   34.5023   52.8107 H   0  0  0  0  0  0  0  0  0  0  0  0
   56.1184   32.2924   52.4291 H   0  0  0  0  0  0  0  0  0  0  0  0
   57.0932   29.5968   53.6143 H   0  0  0  0  0  0  0  0  0  0  0  0
   55.7251   29.2073   52.5174 H   0  0  0  0  0  0  0  0  0  0  0  0
   57.1973   28.1782   52.5174 H   0  0  0  0  0  0  0  0  0  0  0  0
   59.9450   30.5872   51.3096 H   0  0  0  0  0  0  0  0  0  0  0  0
   62.7243   31.7638   47.5638 H   0  0  0  0  0  0  0  0  0  0  0  0
   61.3214   30.2185   46.2044 H   0  0  0  0  0  0  0  0  0  0  0  0
  1  2  2  0
  2  3  1  0
  3  4  2  3
  4  5  1  0
  5  6  2  0
  6  7  1  0
  6  8  1  0
  8  9  1  0
  9 10  2  0
  9 11  1  0
 11 12  1  0
 12 13  2  0
  3 14  1  0
 14 15  2  0
 15 16  1  0
 15 17  1  0
 17 18  1  0
 18 19  2  0
 19 20  1  0
 20 21  2  0
 21 22  1  0
 22 23  2  0
 22 24  1  0
 24 25  1  0
 25 26  1  0
 26 27  2  0
 27 28  1  0
 28 29  2  0
 29 30  1  0
 30 31  1  0
 31 32  1  0
 30 33  2  0
 21 34  1  0
 34 35  2  0
 17  2  1  0
 35 18  1  0
 12  5  1  0
 33 26  1  0
  1 36  1  0
  1 37  1  0
  4 38  1  0
  7 39  1  0
 14 40  1  0
 16 41  1  0
 16 42  1  0
 16 43  1  0
 19 44  1  0
 20 45  1  0
 25 46  1  0
 25 47  1  0
 27 48  1  0
 28 49  1  0
 29 50  1  0
 32 51  1  0
 32 52  1  0
 32 53  1  0
 33 54  1  0
 34 55  1  0
 35 56  1  0
M  CHG  3   8  -1  11  -1  24  -1
M  END
>  <UniqueID>  (1) 
1

>  <SMILES>  (1) 
C=c1c(=Cc2c(O)[n-]c(=O)[n-]c2=O)cc(C)n1-c1ccc(C(=O)[N-]Cc2cccc(OC)c2)cc1

>  <Energy>  (1) 
113.43401434851263

>  <Genealogy>  (1) 
C=c1c(=Cc2c(O)[n-]c(=O)[n-]c2=O)cc(C)n1-c1ccc(C(=O)[N-]Cc2cccc(OC)c2)cc1 (protonated)
C=c1c(=Cc2c(O)[n-]c(=O)[n-]c2=O)cc(C)n1-c1ccc(C(=O)[N-]Cc2cccc(OC)c2)cc1 (3D coordinates assigned)
C=c1c(=Cc2c(O)[n-]c(=O)[n-]c2=O)cc(C)n1-c1ccc(C(=O)[N-]Cc2cccc(OC)c2)cc1 (optimized conformer: 113.43401434851263 kcal/mol)

>  <smiles>  (1) 
C=c1c(=Cc2c(O)[nH]c(=O)[nH]c2=O)cc(C)n1-c1ccc(C(=O)NCc2cccc(OC)c2)cc1

>  <score_type>  (1) 
oracle

>  <origin>  (1) 
adg

>  <m_score__min__energy>  (1) 
-15.68

>  <m_primary>  (1) 
energy

$$$$
1:0
     RDKit          3D

 46 49  0  0  0  0  0  0  0  0999 V2000
   51.7178   31.5103   49.2764 H   0  0  0  0  0  0  0  0  0  0  0  0
   51.6740   31.4220   50.3720 C   0  0  0  0  0  0  0  0  0  0  0  0
   50.9950   32.3400   51.0970 N   0  0  0  0  0  0  0  0  0  0  0  0
   50.9390   32.2890   52.4510 C   0  0  0  0  0  0  0  0  0  0  0  0
   50.2400   33.2960   53.1260 C   0  0  0  0  0  0  0  0  0  0  0  0
   49.7209   34.0792   52.5540 H   0  0  0  0  0  0  0  0  0  0  0  0
   50.1980   33.3120   54.5170 C   0  0  0  0  0  0  0  0  0  0  0  0
   49.6310   34.0943   55.0429 H   0  0  0  0  0  0  0  0  0  0  0  0
   50.8750   32.3360   55.2400 C   0  0  0  0  0  0  0  0  0  0  0  0
   50.8557   32.3595   56.3396 H   0  0  0  0  0  0  0  0  0  0  0  0
   51.5800   31.3250   54.5800 C   0  0  0  0  0  0  0  0  0  0  0  0
   52.1319   30.5785   55.1700 H   0  0  0  0  0  0  0  0  0  0  0  0
   51.5970   31.2440   53.1680 C   0  0  0  0  0  0  0  0  0  0  0  0
   59.0420   32.6300   49.1050 C   0  0  0  0  0  0  0  0  0  0  0  0
   59.0030   31.7320   50.0470 N   0  0  0  0  0  0  0  0  0  0  0  0
   54.0780   28.7750   53.4840 C   0  0  0  0  0  0  0  0  0  0  0  0
   54.2789   27.7072   53.3124 H   0  0  0  0  0  0  0  0  0  0  0  0
   54.0079   28.9974   54.5590 H   0  0  0  0  0  0  0  0  0  0  0  0
   55.2170   29.5840   52.9120 C   0  0  0  0  0  0  0  0  0  0  0  0
   55.0010   30.8930   52.4500 C   0  0  0  0  0  0  0  0  0  0  0  0
   53.9881   31.3213   52.4752 H   0  0  0  0  0  0  0  0  0  0  0  0
   56.0640   31.6540   51.9590 C   0  0  0  0  0  0  0  0  0  0  0  0
   55.8832   32.6793   51.6041 H   0  0  0  0  0  0  0  0  0  0  0  0
   57.3620   31.1200   51.9150 C   0  0  0  0  0  0  0  0  0  0  0  0
   58.4940   31.9160   51.3790 C   0  0  0  0  0  0  0  0  0  0  0  0
   59.0030   32.8170   52.0970 O   0  0  0  0  0  0  0  0  0  0  0  0
   52.7990   29.1210   52.8650 N   0  0  0  0  0  0  0  0  0  0  0  0
   52.2650   30.2250   52.4030 C   0  0  0  0  0  0  0  0  0  0  0  0
   58.1620   32.5990   48.0640 N   0  0  0  0  0  0  0  0  0  0  0  0
   58.1800   33.5270   47.0700 C   0  0  0  0  0  0  0  0  0  0  0  0
   57.1710   33.4540   45.9710 C   0  0  0  0  0  0  0  0  0  0  0  0
   56.1623   33.3810   46.4036 H   0  0  0  0  0  0  0  0  0  0  0  0
   57.2390   34.3594   45.3500 H   0  0  0  0  0  0  0  0  0  0  0  0
   57.3687   32.5678   45.3500 H   0  0  0  0  0  0  0  0  0  0  0  0
   59.1400   34.5460   47.0900 C   0  0  0  0  0  0  0  0  0  0  0  0
   59.1652   35.3020   46.2913 H   0  0  0  0  0  0  0  0  0  0  0  0
   60.0650   34.5920   48.1350 C   0  0  0  0  0  0  0  0  0  0  0  0
   60.8279   35.3840   48.1610 H   0  0  0  0  0  0  0  0  0  0  0  0
   52.3160   30.3680   51.0090 C   0  0  0  0  0  0  0  0  0  0  0  0
   52.8738   29.6331   50.4100 H   0  0  0  0  0  0  0  0  0  0  0  0
   57.5870   29.8310   52.4240 C   0  0  0  0  0  0  0  0  0  0  0  0
   58.6052   29.4148   52.4280 H   0  0  0  0  0  0  0  0  0  0  0  0
   56.5240   29.0730   52.9260 C   0  0  0  0  0  0  0  0  0  0  0  0
   56.7138   28.0695   53.3346 H   0  0  0  0  0  0  0  0  0  0  0  0
   60.0200   33.6300   49.1480 C   0  0  0  0  0  0  0  0  0  0  0  0
   60.7476   33.6587   49.9725 H   0  0  0  0  0  0  0  0  0  0  0  0
  1  2  1  0
  2  3  1  0
  3  4  1  0
  4  5  2  0
  5  6  1  0
  5  7  1  0
  7  8  1  0
  7  9  2  0
  9 10  1  0
  9 11  1  0
 11 12  1  0
 11 13  2  0
 13 14  1  0
 14 15  2  0
 15 16  1  0
 16 17  1  0
 16 18  1  0
 16 19  1  0
 19 20  2  0
 20 21  1  0
 20 22  1  0
 22 23  1  0
 22 24  2  0
 24 25  1  0
 25 26  2  0
 25 27  1  0
 27 28  2  0
 28 29  1  0
 29 30  1  0
 30 31  1  0
 31 32  1  0
 31 33  1  0
 31 34  1  0
 30 35  2  0
 35 36  1  0
 35 37  1  0
 37 38  1  0
 37 39  2  0
 39 40  1  0
 24 41  1  0
 41 42  1  0
 41 43  2  0
 43 44  1  0
 14 45  1  0
 45 46  1  0
 45  2  2  0
 13  4  1  0
 43 19  1  0
 39 28  1  0
M  CHG  2   3  -1  29  -1
M  END
>  <UniqueID>  (2) 
2

>  <SMILES>  (2) 
Cc1ccc/c(=N/C(=O)c2ccc(C/N=c3/cc[n-]c4ccccc34)cc2)[n-]1

>  <Energy>  (2) 
74.61275575738497

>  <Genealogy>  (2) 
Cc1cccc(=NC(=O)c2ccc(CN=c3cc[n-]c4ccccc34)cc2)[n-]1 (protonated)
Cc1ccc/c(=N/C(=O)c2ccc(C/N=c3/cc[n-]c4ccccc34)cc2)[n-]1 (cis-trans isomerization)
Cc1ccc/c(=N/C(=O)c2ccc(C/N=c3/cc[n-]c4ccccc34)cc2)[n-]1 (3D coordinates assigned)
Cc1ccc/c(=N/C(=O)c2ccc(C/N=c3/cc[n-]c4ccccc34)cc2)[n-]1 (optimized conformer: 74.61275575738497 kcal/mol)

>  <smiles>  (2) 
Cc1cccc(=NC(=O)c2ccc(CN=c3cc[nH]c4ccccc34)cc2)[nH]1

>  <score_type>  (2) 
oracle

>  <origin>  (2) 
adg

>  <m_score__min__energy>  (2) 
-11.65

>  <m_primary>  (2) 
energy

$$$$
2:0
     RDKit          3D

 38 40  0  0  0  0  0  0  0  0999 V2000
   58.1774   26.2364   44.3058 H   0  0  0  0  0  0  0  0  0  0  0  0
   58.1010   27.1790   43.7440 C   0  0  0  0  0  0  0  0  0  0  0  0
   58.1601   27.1709   42.6456 H   0  0  0  0  0  0  0  0  0  0  0  0
   57.9360   28.3360   44.3970 C   0  0  0  0  0  0  0  0  0  0  0  0
   57.9830   28.5640   45.7800 C   0  0  0  0  0  0  0  0  0  0  0  0
   57.8420   31.9300   44.3630 C   0  0  0  0  0  0  0  0  0  0  0  0
   58.6235   28.0062   47.6904 H   0  0  0  0  0  0  0  0  0  0  0  0
   57.3330   26.4100   46.8880 C   0  0  0  0  0  0  0  0  0  0  0  0
   56.0600   26.1440   46.4410 C   0  0  0  0  0  0  0  0  0  0  0  0
   55.1490   27.0860   45.9810 O   0  0  0  0  0  0  0  0  0  0  0  0
   55.8060   24.8220   46.4890 N   0  0  0  0  0  0  0  0  0  0  0  0
   56.9690   24.3110   46.9500 C   0  0  0  0  0  0  0  0  0  0  0  0
   57.1550   23.0770   47.1180 O   0  0  0  0  0  0  0  0  0  0  0  0
   57.9190   25.2370   47.1900 N   0  0  0  0  0  0  0  0  0  0  0  0
   58.9050   25.0710   47.4910 H   0  0  0  0  0  0  0  0  0  0  0  0
   57.9750   29.9410   45.9370 C   0  0  0  0  0  0  0  0  0  0  0  0
   58.0467   30.4924   46.8861 H   0  0  0  0  0  0  0  0  0  0  0  0
   57.8600   30.4880   44.6760 C   0  0  0  0  0  0  0  0  0  0  0  0
   58.0230   27.7090   46.8180 C   0  0  0  0  0  0  0  0  0  0  0  0
   57.3690   32.3090   43.2130 N   0  0  0  0  0  0  0  0  0  0  0  0
   57.7170   31.6990   42.0280 O   0  0  0  0  0  0  0  0  0  0  0  0
   57.4630   32.3390   40.7910 C   0  0  0  0  0  0  0  0  0  0  0  0
   57.0630   33.3470   40.9750 H   0  0  0  0  0  0  0  0  0  0  0  0
   58.3992   32.4149   40.2184 H   0  0  0  0  0  0  0  0  0  0  0  0
   56.7295   31.7523   40.2184 H   0  0  0  0  0  0  0  0  0  0  0  0
   58.3510   32.9140   45.3490 C   0  0  0  0  0  0  0  0  0  0  0  0
   58.0410   32.7900   46.7150 C   0  0  0  0  0  0  0  0  0  0  0  0
   57.4002   31.9647   47.0590 H   0  0  0  0  0  0  0  0  0  0  0  0
   58.5450   33.7130   47.6380 C   0  0  0  0  0  0  0  0  0  0  0  0
   58.3056   33.6072   48.7064 H   0  0  0  0  0  0  0  0  0  0  0  0
   59.3510   34.7680   47.2060 C   0  0  0  0  0  0  0  0  0  0  0  0
   59.7517   35.4878   47.9349 H   0  0  0  0  0  0  0  0  0  0  0  0
   59.6490   34.9100   45.8480 C   0  0  0  0  0  0  0  0  0  0  0  0
   60.2755   35.7477   45.5077 H   0  0  0  0  0  0  0  0  0  0  0  0
   59.1520   33.9890   44.9220 C   0  0  0  0  0  0  0  0  0  0  0  0
   59.3882   34.1050   43.8539 H   0  0  0  0  0  0  0  0  0  0  0  0
   57.8380   29.5120   43.7460 N   0  0  0  0  0  0  0  0  0  0  0  0
   57.7920   29.6480   42.7100 H   0  0  0  0  0  0  0  0  0  0  0  0
  1  2  1  0
  2  3  1  0
  2  4  2  0
  4  5  1  0
  5  6  2  0
  6  7  1  0
  6  8  1  0
  8  9  2  0
  9 10  1  0
  9 11  1  0
 11 12  1  0
 12 13  2  0
 12 14  1  0
 14 15  1  0
  5 16  1  0
 16 17  1  0
 16 18  2  0
 18 19  1  0
 19 20  2  0
 20 21  1  0
 21 22  1  0
 22 23  1  0
 22 24  1  0
 22 25  1  0
 19 26  1  0
 26 27  2  0
 27 28  1  0
 27 29  1  0
 29 30  1  0
 29 31  2  0
 31 32  1  0
 31 33  1  0
 33 34  1  0
 33 35  2  0
 35 36  1  0
 18 37  1  0
 37 38  1  0
 37  4  1  0
 14  8  1  0
 35 26  1  0
M  CHG  2  10  -1  11  -1
M  END
>  <UniqueID>  (3) 
3

>  <SMILES>  (3) 
C=c1[nH]c(/C(=N/OC)c2ccccc2)c/c1=C/c1[nH]c(=O)[n-]c1[O-]

>  <Energy>  (3) 
111.74552750095351

>  <Genealogy>  (3) 
C=c1[nH]c(C(=NOC)c2ccccc2)cc1=Cc1[nH]c(=O)[n-]c1[O-] (protonated)
C=c1[nH]c(/C(=N/OC)c2ccccc2)c/c1=C/c1[nH]c(=O)[n-]c1[O-] (cis-trans isomerization)
C=c1[nH]c(/C(=N/OC)c2ccccc2)c/c1=C/c1[nH]c(=O)[n-]c1[O-] (3D coordinates assigned)
C=c1[nH]c(/C(=N/OC)c2ccccc2)c/c1=C/c1[nH]c(=O)[n-]c1[O-] (optimized conformer: 111.74552750095351 kcal/mol)

>  <smiles>  (3) 
C=c1[nH]c(C(=NOC)c2ccccc2)cc1=Cc1[nH]c(=O)[nH]c1O

>  <score_type>  (3) 
oracle

>  <origin>  (3) 
adg

>  <m_score__min__energy>  (3) 
-14.18

>  <m_primary>  (3) 
energy

$$$$
3:0
     RDKit          3D

 34 35  0  0  0  0  0  0  0  0999 V2000
   55.4420   29.0920   44.9060 N   0  0  0  0  0  0  0  0  0  0  0  0
   56.1250   29.8850   43.9390 C   0  0  0  0  0  0  0  0  0  0  0  0
   56.2570   29.4620   42.7590 O   0  0  0  0  0  0  0  0  0  0  0  0
   56.6580   31.2300   44.3190 C   0  0  0  0  0  0  0  0  0  0  0  0
   58.1080   31.2590   44.1760 N   0  0  0  0  0  0  0  0  0  0  0  0
   58.9680   30.2700   44.7430 C   0  0  0  0  0  0  0  0  0  0  0  0
   59.7500   30.5990   45.6740 O   0  0  0  0  0  0  0  0  0  0  0  0
   58.9710   28.9680   44.2250 O   0  0  0  0  0  0  0  0  0  0  0  0
   58.4600   27.8320   44.8710 C   0  0  0  0  0  0  0  0  0  0  0  0
   57.8900   26.8210   44.0900 C   0  0  0  0  0  0  0  0  0  0  0  0
   57.3580   25.6760   44.6870 C   0  0  0  0  0  0  0  0  0  0  0  0
   57.3820   25.5270   46.0830 C   0  0  0  0  0  0  0  0  0  0  0  0
   56.7780   24.3090   46.7300 C   0  0  0  0  0  0  0  0  0  0  0  0
   55.4220   24.0060   46.1330 C   0  0  0  0  0  0  0  0  0  0  0  0
   54.5350   25.0410   45.7880 C   0  0  0  0  0  0  0  0  0  0  0  0
   54.8710   26.3710   46.0240 O   0  0  0  0  0  0  0  0  0  0  0  0
   53.3350   24.7460   45.2220 N   0  0  0  0  0  0  0  0  0  0  0  0
   52.9710   23.4620   44.9740 C   0  0  0  0  0  0  0  0  0  0  0  0
   51.8550   23.2160   44.4490 O   0  0  0  0  0  0  0  0  0  0  0  0
   53.8110   22.4460   45.2910 N   0  0  0  0  0  0  0  0  0  0  0  0
   55.0220   22.6840   45.8590 C   0  0  0  0  0  0  0  0  0  0  0  0
   55.7730   21.7120   46.1370 O   0  0  0  0  0  0  0  0  0  0  0  0
   57.9310   26.5510   46.8710 C   0  0  0  0  0  0  0  0  0  0  0  0
   58.4640   27.6970   46.2720 C   0  0  0  0  0  0  0  0  0  0  0  0
   55.5470   28.0530   44.9180 H   0  0  0  0  0  0  0  0  0  0  0  0
   56.2136   31.9944   43.6646 H   0  0  0  0  0  0  0  0  0  0  0  0
   56.3981   31.4342   45.3682 H   0  0  0  0  0  0  0  0  0  0  0  0
   57.8605   26.9289   42.9957 H   0  0  0  0  0  0  0  0  0  0  0  0
   56.9178   24.8865   44.0601 H   0  0  0  0  0  0  0  0  0  0  0  0
   57.4435   23.4477   46.5711 H   0  0  0  0  0  0  0  0  0  0  0  0
   56.6564   24.5026   47.8060 H   0  0  0  0  0  0  0  0  0  0  0  0
   54.7780   27.0690   45.2950 H   0  0  0  0  0  0  0  0  0  0  0  0
   57.9420   26.4514   47.9664 H   0  0  0  0  0  0  0  0  0  0  0  0
   58.8879   28.4958   46.8982 H   0  0  0  0  0  0  0  0  0  0  0  0
  1  2  1  0
  2  3  2  0
  2  4  1  0
  4  5  1  0
  5  6  1  0
  6  7  2  0
  6  8  1  0
  8  9  1  0
  9 10  2  0
 10 11  1  0
 11 12  2  0
 12 13  1  0
 13 14  1  0
 14 15  2  0
 15 16  1  0
 15 17  1  0
 17 18  1  0
 18 19  2  0
 18 20  1  0
 20 21  1  0
 21 22  2  0
 12 23  1  0
 23 24  2  0
 24  9  1  0
 21 14  1  0
  1 25  1  0
  4 26  1  0
  4 27  1  0
 10 28  1  0
 11 29  1  0
 13 30  1  0
 13 31  1  0
 16 32  1  0
 23 33  1  0
 24 34  1  0
M  CHG  4   1  -1   5  -1  17  -1  20  -1
M  END
>  <UniqueID>  (4) 
4

>  <SMILES>  (4) 
[NH-]C(=O)C[N-]C(=O)Oc1ccc(Cc2c(O)[n-]c(=O)[n-]c2=O)cc1

>  <Energy>  (4) 
35.54108664301036

>  <Genealogy>  (4) 
[NH-]C(=O)C[N-]C(=O)Oc1ccc(Cc2c(O)[n-]c(=O)[n-]c2=O)cc1 (protonated)
[NH-]C(=O)C[N-]C(=O)Oc1ccc(Cc2c(O)[n-]c(=O)[n-]c2=O)cc1 (3D coordinates assigned)
[NH-]C(=O)C[N-]C(=O)Oc1ccc(Cc2c(O)[n-]c(=O)[n-]c2=O)cc1 (optimized conformer: 35.54108664301036 kcal/mol)

>  <smiles>  (4) 
NC(=O)CNC(=O)Oc1ccc(Cc2c(O)[nH]c(=O)[nH]c2=O)cc1

>  <score_type>  (4) 
oracle

>  <origin>  (4) 
adg

>  <m_score__min__energy>  (4) 
-14.91

>  <m_primary>  (4) 
energy

$$$$
4:0
     RDKit          3D

 42 44  0  0  0  0  0  0  0  0999 V2000
   55.8950   29.7330   44.0770 C   0  0  0  0  0  0  0  0  0  0  0  0
   56.8880   30.2580   43.0420 C   0  0  0  0  0  0  0  0  0  0  0  0
   57.7050   31.4600   43.5530 C   0  0  0  0  0  0  0  0  0  0  0  0
   57.0540   32.2130   44.7280 C   0  0  0  0  0  0  0  0  0  0  0  0
   58.0410   33.0860   45.4700 C   0  0  0  0  0  0  0  0  0  0  0  0
   58.4320   34.3150   44.9090 C   0  0  0  0  0  0  0  0  0  0  0  0
   59.3250   35.1500   45.5830 C   0  0  0  0  0  0  0  0  0  0  0  0
   59.8390   34.7700   46.8220 C   0  0  0  0  0  0  0  0  0  0  0  0
   59.4580   33.5530   47.3950 C   0  0  0  0  0  0  0  0  0  0  0  0
   58.5560   32.7000   46.7290 C   0  0  0  0  0  0  0  0  0  0  0  0
   58.1490   31.4470   47.3040 N   0  0  0  0  0  0  0  0  0  0  0  0
   59.1770   30.0740   47.5590 S   0  0  0  0  0  0  0  0  0  0  0  0
   58.9280   29.5210   48.9340 O   0  0  0  0  0  0  0  0  0  0  0  0
   60.6130   30.5070   47.4660 O   0  0  0  0  0  0  0  0  0  0  0  0
   58.8120   28.8300   46.3700 C   0  0  0  0  0  0  0  0  0  0  0  0
   59.4610   28.8200   45.1120 C   0  0  0  0  0  0  0  0  0  0  0  0
   59.1550   27.8350   44.1570 C   0  0  0  0  0  0  0  0  0  0  0  0
   58.2020   26.8730   44.4820 C   0  0  0  0  0  0  0  0  0  0  0  0
   57.5700   26.8800   45.7130 C   0  0  0  0  0  0  0  0  0  0  0  0
   57.8530   27.8440   46.6780 C   0  0  0  0  0  0  0  0  0  0  0  0
   56.6580   25.7500   45.7440 C   0  0  0  0  0  0  0  0  0  0  0  0
   55.9140   25.3970   46.6970 O   0  0  0  0  0  0  0  0  0  0  0  0
   56.8060   25.0970   44.4500 C   0  0  0  0  0  0  0  0  0  0  0  0
   56.1980   24.0610   44.0730 O   0  0  0  0  0  0  0  0  0  0  0  0
   57.7640   25.7930   43.6550 N   0  0  0  0  0  0  0  0  0  0  0  0
   56.2779   29.9354   45.0881 H   0  0  0  0  0  0  0  0  0  0  0  0
   54.9262   30.2367   43.9441 H   0  0  0  0  0  0  0  0  0  0  0  0
   55.7658   28.6487   43.9441 H   0  0  0  0  0  0  0  0  0  0  0  0
   57.5832   29.4470   42.7792 H   0  0  0  0  0  0  0  0  0  0  0  0
   56.3089   30.5981   42.1708 H   0  0  0  0  0  0  0  0  0  0  0  0
   58.6890   31.0937   43.8810 H   0  0  0  0  0  0  0  0  0  0  0  0
   57.7719   32.1739   42.7188 H   0  0  0  0  0  0  0  0  0  0  0  0
   56.2455   32.8478   44.3364 H   0  0  0  0  0  0  0  0  0  0  0  0
   56.6705   31.4634   45.4359 H   0  0  0  0  0  0  0  0  0  0  0  0
   58.0310   34.6207   43.9314 H   0  0  0  0  0  0  0  0  0  0  0  0
   59.6236   36.1095   45.1357 H   0  0  0  0  0  0  0  0  0  0  0  0
   60.5450   35.4284   47.3493 H   0  0  0  0  0  0  0  0  0  0  0  0
   59.8657   33.2592   48.3735 H   0  0  0  0  0  0  0  0  0  0  0  0
   60.2115   29.5899   44.8797 H   0  0  0  0  0  0  0  0  0  0  0  0
   59.6557   27.8243   43.1776 H   0  0  0  0  0  0  0  0  0  0  0  0
   57.3427   27.8360   47.6524 H   0  0  0  0  0  0  0  0  0  0  0  0
   58.1290   25.5260   42.7140 H   0  0  0  0  0  0  0  0  0  0  0  0
  1  2  1  0
  2  3  1  0
  3  4  1  0
  4  5  1  0
  5  6  2  0
  6  7  1  0
  7  8  2  0
  8  9  1  0
  9 10  2  0
 10 11  1  0
 11 12  1  0
 12 13  2  0
 12 14  2  0
 12 15  1  0
 15 16  2  0
 16 17  1  0
 17 18  2  0
 18 19  1  0
 19 20  2  0
 19 21  1  0
 21 22  2  0
 21 23  1  0
 23 24  2  0
 23 25  1  0
 10  5  1  0
 20 15  1  0
 25 18  1  0
  1 26  1  0
  1 27  1  0
  1 28  1  0
  2 29  1  0
  2 30  1  0
  3 31  1  0
  3 32  1  0
  4 33  1  0
  4 34  1  0
  6 35  1  0
  7 36  1  0
  8 37  1  0
  9 38  1  0
 16 39  1  0
 17 40  1  0
 20 41  1  0
 25 42  1  0
M  CHG  1  11  -1
M  END
>  <UniqueID>  (5) 
5

>  <SMILES>  (5) 
CCCCc1ccccc1[N-]S(=O)(=O)c1ccc2c(c1)C(=O)C(=O)N2

>  <Energy>  (5) 
73.46351882948566

>  <Genealogy>  (5) 
CCCCc1ccccc1[N-]S(=O)(=O)c1ccc2c(c1)C(=O)C(=O)N2 (protonated)
CCCCc1ccccc1[N-]S(=O)(=O)c1ccc2c(c1)C(=O)C(=O)N2 (3D coordinates assigned)
CCCCc1ccccc1[N-]S(=O)(=O)c1ccc2c(c1)C(=O)C(=O)N2 (nonaromatic ring conformer: 73.46351882948566 kcal/mol)

>  <smiles>  (5) 
CCCCc1ccccc1NS(=O)(=O)c1ccc2c(c1)C(=O)C(=O)N2

>  <score_type>  (5) 
oracle

>  <origin>  (5) 
adg

>  <m_score__min__energy>  (5) 
-9.7599999999999998

>  <m_primary>  (5) 
energy

$$$$
5:0
     RDKit          3D

 67 72  0  0  0  0  0  0  0  0999 V2000
   60.6860   35.3390   48.2920 H   0  0  0  0  0  0  0  0  0  0  0  0
   60.0650   34.8750   47.5880 N   0  0  0  0  0  0  0  0  0  0  0  0
   59.9970   33.5870   47.5040 C   0  0  0  0  0  0  0  0  0  0  0  0
   59.0890   32.9440   46.7340 N   0  0  0  0  0  0  0  0  0  0  0  0
   59.2930   31.6490   46.9270 N   0  0  0  0  0  0  0  0  0  0  0  0
   58.6040   30.6140   46.3750 C   0  0  0  0  0  0  0  0  0  0  0  0
   57.4080   30.8420   45.5350 C   0  0  0  0  0  0  0  0  0  0  0  0
   57.1730   31.9960   45.0830 O   0  0  0  0  0  0  0  0  0  0  0  0
   56.4980   29.7750   45.2420 N   0  0  0  0  0  0  0  0  0  0  0  0
   56.9170   28.4820   44.7870 C   0  0  0  0  0  0  0  0  0  0  0  0
   57.6810   28.3420   43.6160 C   0  0  0  0  0  0  0  0  0  0  0  0
   57.9133   29.2260   43.0040 H   0  0  0  0  0  0  0  0  0  0  0  0
   58.1460   27.0850   43.2270 C   0  0  0  0  0  0  0  0  0  0  0  0
   58.7301   26.9773   42.3011 H   0  0  0  0  0  0  0  0  0  0  0  0
   57.8700   25.9630   44.0130 C   0  0  0  0  0  0  0  0  0  0  0  0
   58.2432   24.9743   43.7078 H   0  0  0  0  0  0  0  0  0  0  0  0
   57.1190   26.0940   45.1890 C   0  0  0  0  0  0  0  0  0  0  0  0
   56.8920   24.7080   46.2500 S   0  0  0  0  0  0  0  0  0  0  0  0
   58.2300   24.0880   46.5490 O   0  0  0  0  0  0  0  0  0  0  0  0
   56.2660   25.1770   47.5330 O   0  0  0  0  0  0  0  0  0  0  0  0
   55.8530   23.5310   45.4720 N   0  0  0  0  0  0  0  0  0  0  0  0
   55.7600   23.7420   44.0050 C   0  0  0  0  0  0  0  0  0  0  0  0
   54.7012   23.8848   43.7431 H   0  0  0  0  0  0  0  0  0  0  0  0
   56.3782   24.6214   43.7715 H   0  0  0  0  0  0  0  0  0  0  0  0
   56.3120   22.5770   43.1660 C   0  0  0  0  0  0  0  0  0  0  0  0
   55.5813   21.7548   43.1627 H   0  0  0  0  0  0  0  0  0  0  0  0
   56.4893   22.9296   42.1392 H   0  0  0  0  0  0  0  0  0  0  0  0
   57.6280   22.0770   43.7510 C   0  0  0  0  0  0  0  0  0  0  0  0
   57.9893   21.2325   43.1457 H   0  0  0  0  0  0  0  0  0  0  0  0
   58.3479   22.9086   43.7365 H   0  0  0  0  0  0  0  0  0  0  0  0
   57.4620   21.6110   45.2090 C   0  0  0  0  0  0  0  0  0  0  0  0
   57.4254   20.5117   45.2221 H   0  0  0  0  0  0  0  0  0  0  0  0
   58.3187   22.0041   45.7761 H   0  0  0  0  0  0  0  0  0  0  0  0
   56.1840   22.1510   45.8800 C   0  0  0  0  0  0  0  0  0  0  0  0
   55.3432   21.4951   45.6100 H   0  0  0  0  0  0  0  0  0  0  0  0
   56.3645   22.1647   46.9650 H   0  0  0  0  0  0  0  0  0  0  0  0
   56.6120   27.3510   45.5510 C   0  0  0  0  0  0  0  0  0  0  0  0
   55.9715   27.4475   46.4401 H   0  0  0  0  0  0  0  0  0  0  0  0
   59.0350   29.3110   46.6760 C   0  0  0  0  0  0  0  0  0  0  0  0
   58.5313   28.4399   46.2316 H   0  0  0  0  0  0  0  0  0  0  0  0
   60.1250   29.1360   47.5580 C   0  0  0  0  0  0  0  0  0  0  0  0
   60.6040   27.7480   47.8680 C   0  0  0  0  0  0  0  0  0  0  0  0
   61.3932   28.0606   48.5676 H   0  0  0  0  0  0  0  0  0  0  0  0
   60.4870   26.7840   46.6960 C   0  0  0  0  0  0  0  0  0  0  0  0
   60.0993   27.1382   45.7295 H   0  0  0  0  0  0  0  0  0  0  0  0
   61.1807   26.1105   46.1714 H   0  0  0  0  0  0  0  0  0  0  0  0
   59.5500   26.6470   47.8870 C   0  0  0  0  0  0  0  0  0  0  0  0
   58.4854   26.9028   47.7816 H   0  0  0  0  0  0  0  0  0  0  0  0
   59.2861   25.8345   48.5799 H   0  0  0  0  0  0  0  0  0  0  0  0
   60.7540   30.2240   48.0970 N   0  0  0  0  0  0  0  0  0  0  0  0
   60.3160   31.4640   47.7720 C   0  0  0  0  0  0  0  0  0  0  0  0
   60.8070   32.6830   48.1930 C   0  0  0  0  0  0  0  0  0  0  0  0
   61.8510   32.9430   49.2040 C   0  0  0  0  0  0  0  0  0  0  0  0
   62.0280   34.1170   49.6240 O   0  0  0  0  0  0  0  0  0  0  0  0
   62.6590   31.8750   49.7140 N   0  0  0  0  0  0  0  0  0  0  0  0
   62.2060   30.9440   49.8660 H   0  0  0  0  0  0  0  0  0  0  0  0
   64.0150   32.0530   50.1540 C   0  0  0  0  0  0  0  0  0  0  0  0
   64.8960   32.9260   49.4820 C   0  0  0  0  0  0  0  0  0  0  0  0
   64.4960   33.6110   48.3820 F   0  0  0  0  0  0  0  0  0  0  0  0
   66.2210   33.0570   49.9140 C   0  0  0  0  0  0  0  0  0  0  0  0
   66.8995   33.7521   49.3977 H   0  0  0  0  0  0  0  0  0  0  0  0
   66.6840   32.3100   50.9960 C   0  0  0  0  0  0  0  0  0  0  0  0
   67.7262   32.4163   51.3315 H   0  0  0  0  0  0  0  0  0  0  0  0
   65.8250   31.4260   51.6550 C   0  0  0  0  0  0  0  0  0  0  0  0
   66.1941   30.8335   52.5051 H   0  0  0  0  0  0  0  0  0  0  0  0
   64.4970   31.2930   51.2360 C   0  0  0  0  0  0  0  0  0  0  0  0
   63.6770   30.4310   51.8890 F   0  0  0  0  0  0  0  0  0  0  0  0
  1  2  1  0
  2  3  2  0
  3  4  1  0
  4  5  1  0
  5  6  1  0
  6  7  1  0
  7  8  2  0
  7  9  1  0
  9 10  1  0
 10 11  2  0
 11 12  1  0
 11 13  1  0
 13 14  1  0
 13 15  2  0
 15 16  1  0
 15 17  1  0
 17 18  1  0
 18 19  2  0
 18 20  2  0
 18 21  1  0
 21 22  1  0
 22 23  1  0
 22 24  1  0
 22 25  1  0
 25 26  1  0
 25 27  1  0
 25 28  1  0
 28 29  1  0
 28 30  1  0
 28 31  1  0
 31 32  1  0
 31 33  1  0
 31 34  1  0
 34 35  1  0
 34 36  1  0
 17 37  2  0
 37 38  1  0
  6 39  2  0
 39 40  1  0
 39 41  1  0
 41 42  1  0
 42 43  1  0
 42 44  1  0
 44 45  1  0
 44 46  1  0
 44 47  1  0
 47 48  1  0
 47 49  1  0
 41 50  2  0
 50 51  1  0
 51 52  2  0
 52 53  1  0
 53 54  2  0
 53 55  1  0
 55 56  1  0
 55 57  1  0
 57 58  2  0
 58 59  1  0
 58 60  1  0
 60 61  1  0
 60 62  2  0
 62 63  1  0
 62 64  1  0
 64 65  1  0
 64 66  2  0
 66 67  1  0
 52  3  1  0
 66 57  1  0
 51  5  1  0
 37 10  1  0
 47 42  1  0
 34 21  1  0
M  CHG  2   4  -1   9  -1
M  END
>  <UniqueID>  (6) 
6

>  <SMILES>  (6) 
[H]/N=c1\[n-]n2c(C(=O)[N-]c3cccc(S(=O)(=O)N4CCCCC4)c3)cc(C3CC3)nc2c1C(=O)Nc1c(F)cccc1F

>  <Energy>  (6) 
392.5486884756558

>  <Genealogy>  (6) 
N=c1[n-]n2c(C(=O)[N-]c3cccc(S(=O)(=O)N4CCCCC4)c3)cc(C3CC3)nc2c1C(=O)Nc1c(F)cccc1F (protonated)
[H]/N=c1\[n-]n2c(C(=O)[N-]c3cccc(S(=O)(=O)N4CCCCC4)c3)cc(C3CC3)nc2c1C(=O)Nc1c(F)cccc1F (cis-trans isomerization)
[H]/N=c1\[n-]n2c(C(=O)[N-]c3cccc(S(=O)(=O)N4CCCCC4)c3)cc(C3CC3)nc2c1C(=O)Nc1c(F)cccc1F (3D coordinates assigned)
[H]/N=c1\[n-]n2c(C(=O)[N-]c3cccc(S(=O)(=O)N4CCCCC4)c3)cc(C3CC3)nc2c1C(=O)Nc1c(F)cccc1F (nonaromatic ring conformer: 392.5486884756558 kcal/mol)

>  <smiles>  (6) 
N=c1[nH]n2c(C(=O)Nc3cccc(S(=O)(=O)N4CCCCC4)c3)cc(C3CC3)nc2c1C(=O)Nc1c(F)cccc1F

>  <score_type>  (6) 
oracle

>  <origin>  (6) 
adg

>  <m_score__min__energy>  (6) 
-13.65

>  <m_primary>  (6) 
energy

$$$$
6:0
     RDKit          3D

 48 51  0  0  0  0  0  0  0  0999 V2000
   54.7700   27.0750   45.0230 H   0  0  0  0  0  0  0  0  0  0  0  0
   55.1690   26.9610   45.9450 O   0  0  0  0  0  0  0  0  0  0  0  0
   56.0710   25.9380   46.2280 C   0  0  0  0  0  0  0  0  0  0  0  0
   55.7650   24.8730   46.9860 N   0  0  0  0  0  0  0  0  0  0  0  0
   56.9290   24.1920   47.0290 C   0  0  0  0  0  0  0  0  0  0  0  0
   57.0600   23.1130   47.6630 O   0  0  0  0  0  0  0  0  0  0  0  0
   57.9470   24.7630   46.3490 N   0  0  0  0  0  0  0  0  0  0  0  0
   57.3860   25.8620   45.8170 C   0  0  0  0  0  0  0  0  0  0  0  0
   58.1420   26.8700   45.0610 C   0  0  0  0  0  0  0  0  0  0  0  0
   58.9617   26.5077   44.4231 H   0  0  0  0  0  0  0  0  0  0  0  0
   57.9200   28.1990   45.0800 C   0  0  0  0  0  0  0  0  0  0  0  0
   56.7130   28.7610   44.6940 C   0  0  0  0  0  0  0  0  0  0  0  0
   55.8076   28.2188   44.3839 H   0  0  0  0  0  0  0  0  0  0  0  0
   56.8640   30.1300   44.7730 C   0  0  0  0  0  0  0  0  0  0  0  0
   55.8140   31.1320   44.4040 C   0  0  0  0  0  0  0  0  0  0  0  0
   55.3720   31.5538   45.3188 H   0  0  0  0  0  0  0  0  0  0  0  0
   56.2694   31.9389   43.8111 H   0  0  0  0  0  0  0  0  0  0  0  0
   55.0293   30.6394   43.8111 H   0  0  0  0  0  0  0  0  0  0  0  0
   58.1060   30.4400   45.2040 N   0  0  0  0  0  0  0  0  0  0  0  0
   58.6010   31.7700   45.4300 C   0  0  0  0  0  0  0  0  0  0  0  0
   58.4960   32.7370   44.4210 C   0  0  0  0  0  0  0  0  0  0  0  0
   58.0185   32.4822   43.4634 H   0  0  0  0  0  0  0  0  0  0  0  0
   58.9970   34.0240   44.6300 C   0  0  0  0  0  0  0  0  0  0  0  0
   58.9223   34.7784   43.8329 H   0  0  0  0  0  0  0  0  0  0  0  0
   59.5930   34.3550   45.8500 C   0  0  0  0  0  0  0  0  0  0  0  0
   59.9933   35.3675   46.0070 H   0  0  0  0  0  0  0  0  0  0  0  0
   59.6830   33.4010   46.8760 C   0  0  0  0  0  0  0  0  0  0  0  0
   60.3100   33.7660   48.1600 C   0  0  0  0  0  0  0  0  0  0  0  0
   59.5850   34.2300   49.0820 O   0  0  0  0  0  0  0  0  0  0  0  0
   61.7200   33.5900   48.3830 N   0  0  0  0  0  0  0  0  0  0  0  0
   62.5310   32.6060   47.6850 C   0  0  0  0  0  0  0  0  0  0  0  0
   62.1430   31.5924   47.8641 H   0  0  0  0  0  0  0  0  0  0  0  0
   62.5196   32.7680   46.5971 H   0  0  0  0  0  0  0  0  0  0  0  0
   63.9340   32.7470   48.2600 C   0  0  0  0  0  0  0  0  0  0  0  0
   64.3728   31.7556   48.4461 H   0  0  0  0  0  0  0  0  0  0  0  0
   64.6046   33.2736   47.5650 H   0  0  0  0  0  0  0  0  0  0  0  0
   63.7730   33.5110   49.5710 C   0  0  0  0  0  0  0  0  0  0  0  0
   63.7853   32.8147   50.4225 H   0  0  0  0  0  0  0  0  0  0  0  0
   64.5941   34.2273   49.7218 H   0  0  0  0  0  0  0  0  0  0  0  0
   62.4270   34.2180   49.4860 C   0  0  0  0  0  0  0  0  0  0  0  0
   61.8664   34.0889   50.4236 H   0  0  0  0  0  0  0  0  0  0  0  0
   62.5468   35.2998   49.3270 H   0  0  0  0  0  0  0  0  0  0  0  0
   59.2030   32.0990   46.6540 C   0  0  0  0  0  0  0  0  0  0  0  0
   59.3390   31.1450   47.6110 F   0  0  0  0  0  0  0  0  0  0  0  0
   58.7600   29.2720   45.4290 C   0  0  0  0  0  0  0  0  0  0  0  0
   59.9820   29.2110   45.9790 C   0  0  0  0  0  0  0  0  0  0  0  0
   60.5318   30.1374   46.2016 H   0  0  0  0  0  0  0  0  0  0  0  0
   60.4342   28.2346   46.2074 H   0  0  0  0  0  0  0  0  0  0  0  0
  1  2  1  0
  2  3  1  0
  3  4  1  0
  4  5  1  0
  5  6  2  0
  5  7  1  0
  7  8  1  0
  8  9  1  0
  9 10  1  0
  9 11  2  0
 11 12  1  0
 12 13  1  0
 12 14  2  0
 14 15  1  0
 15 16  1  0
 15 17  1  0
 15 18  1  0
 14 19  1  0
 19 20  1  0
 20 21  2  0
 21 22  1  0
 21 23  1  0
 23 24  1  0
 23 25  2  0
 25 26  1  0
 25 27  1  0
 27 28  1  0
 28 29  2  0
 28 30  1  0
 30 31  1  0
 31 32  1  0
 31 33  1  0
 31 34  1  0
 34 35  1  0
 34 36  1  0
 34 37  1  0
 37 38  1  0
 37 39  1  0
 37 40  1  0
 40 41  1  0
 40 42  1  0
 27 43  2  0
 43 44  1  0
 19 45  1  0
 45 46  2  0
 46 47  1  0
 46 48  1  0
  8  3  2  0
 45 11  1  0
 43 20  1  0
 40 30  1  0
M  CHG  2   4  -1   7  -1
M  END
>  <UniqueID>  (7) 
7

>  <SMILES>  (7) 
C=c1/c(=C\c2[n-]c(=O)[n-]c2O)cc(C)n1-c1cccc(C(=O)N2CCCC2)c1F

>  <Energy>  (7) 
131.61247735442166

>  <Genealogy>  (7) 
C=c1c(=Cc2[n-]c(=O)[n-]c2O)cc(C)n1-c1cccc(C(=O)N2CCCC2)c1F (protonated)
C=c1/c(=C\c2[n-]c(=O)[n-]c2O)cc(C)n1-c1cccc(C(=O)N2CCCC2)c1F (cis-trans isomerization)
C=c1/c(=C\c2[n-]c(=O)[n-]c2O)cc(C)n1-c1cccc(C(=O)N2CCCC2)c1F (3D coordinates assigned)
C=c1/c(=C\c2[n-]c(=O)[n-]c2O)cc(C)n1-c1cccc(C(=O)N2CCCC2)c1F (nonaromatic ring conformer: 131.61247735442166 kcal/mol)

>  <smiles>  (7) 
C=c1c(=Cc2[nH]c(=O)[nH]c2O)cc(C)n1-c1cccc(C(=O)N2CCCC2)c1F

>  <score_type>  (7) 
oracle

>  <origin>  (7) 
adg

>  <m_score__min__energy>  (7) 
-13.83

>  <m_primary>  (7) 
energy

$$$$
7:0
     RDKit          3D

 33 34  0  0  0  0  0  0  0  0999 V2000
   63.7800   32.1170   47.0940 N   0  0  0  0  0  0  0  0  0  0  0  0
   62.5150   32.0270   48.2680 S   0  0  0  0  0  0  0  0  0  0  0  0
   63.0810   31.5880   49.5890 O   0  0  0  0  0  0  0  0  0  0  0  0
   61.8960   33.3880   48.4350 O   0  0  0  0  0  0  0  0  0  0  0  0
   61.3010   30.8700   47.7370 C   0  0  0  0  0  0  0  0  0  0  0  0
   61.2940   30.4260   46.4100 C   0  0  0  0  0  0  0  0  0  0  0  0
   60.3020   29.5450   45.9760 C   0  0  0  0  0  0  0  0  0  0  0  0
   59.3170   29.1260   46.8750 C   0  0  0  0  0  0  0  0  0  0  0  0
   57.9720   28.0830   46.3080 S   0  0  0  0  0  0  0  0  0  0  0  0
   57.6990   28.9900   44.7410 C   0  0  0  0  0  0  0  0  0  0  0  0
   56.4740   29.8470   44.8040 C   0  0  0  0  0  0  0  0  0  0  0  0
   55.3640   29.3330   45.1090 O   0  0  0  0  0  0  0  0  0  0  0  0
   56.5850   31.2460   44.5130 N   0  0  0  0  0  0  0  0  0  0  0  0
   57.5060   32.1830   45.0890 C   0  0  0  0  0  0  0  0  0  0  0  0
   58.0880   33.1450   44.2530 C   0  0  0  0  0  0  0  0  0  0  0  0
   58.9520   34.1120   44.7770 C   0  0  0  0  0  0  0  0  0  0  0  0
   59.2280   34.1350   46.1460 C   0  0  0  0  0  0  0  0  0  0  0  0
   60.0600   35.0780   46.6520 F   0  0  0  0  0  0  0  0  0  0  0  0
   58.6370   33.1920   46.9930 C   0  0  0  0  0  0  0  0  0  0  0  0
   58.8870   33.2260   48.3250 F   0  0  0  0  0  0  0  0  0  0  0  0
   57.7750   32.2220   46.4700 C   0  0  0  0  0  0  0  0  0  0  0  0
   59.3480   29.5540   48.1660 N   0  0  0  0  0  0  0  0  0  0  0  0
   60.3100   30.4060   48.6130 C   0  0  0  0  0  0  0  0  0  0  0  0
   64.5280   32.7270   47.4960 H   0  0  0  0  0  0  0  0  0  0  0  0
   64.1870   31.1590   47.0080 H   0  0  0  0  0  0  0  0  0  0  0  0
   62.0692   30.7707   45.7098 H   0  0  0  0  0  0  0  0  0  0  0  0
   60.2955   29.1841   44.9369 H   0  0  0  0  0  0  0  0  0  0  0  0
   58.5717   29.6295   44.5425 H   0  0  0  0  0  0  0  0  0  0  0  0
   57.5603   28.2520   43.9372 H   0  0  0  0  0  0  0  0  0  0  0  0
   57.8637   33.1397   43.1761 H   0  0  0  0  0  0  0  0  0  0  0  0
   59.4145   34.8549   44.1105 H   0  0  0  0  0  0  0  0  0  0  0  0
   57.3058   31.4871   47.1406 H   0  0  0  0  0  0  0  0  0  0  0  0
   60.3101   30.7313   49.6638 H   0  0  0  0  0  0  0  0  0  0  0  0
  1  2  1  0
  2  3  2  0
  2  4  2  0
  2  5  1  0
  5  6  2  0
  6  7  1  0
  7  8  2  0
  8  9  1  0
  9 10  1  0
 10 11  1  0
 11 12  2  0
 11 13  1  0
 13 14  1  0
 14 15  2  0
 15 16  1  0
 16 17  2  0
 17 18  1  0
 17 19  1  0
 19 20  1  0
 19 21  2  0
  8 22  1  0
 22 23  2  0
 23  5  1  0
 21 14  1  0
  1 24  1  0
  1 25  1  0
  6 26  1  0
  7 27  1  0
 10 28  1  0
 10 29  1  0
 15 30  1  0
 16 31  1  0
 21 32  1  0
 23 33  1  0
M  CHG  1  13  -1
M  END
>  <UniqueID>  (8) 
8

>  <SMILES>  (8) 
NS(=O)(=O)c1ccc(SCC(=O)[N-]c2ccc(F)c(F)c2)nc1

>  <Energy>  (8) 
28.771848078349432

>  <Genealogy>  (8) 
NS(=O)(=O)c1ccc(SCC(=O)[N-]c2ccc(F)c(F)c2)nc1 (protonated)
NS(=O)(=O)c1ccc(SCC(=O)[N-]c2ccc(F)c(F)c2)nc1 (3D coordinates assigned)
NS(=O)(=O)c1ccc(SCC(=O)[N-]c2ccc(F)c(F)c2)nc1 (optimized conformer: 28.771848078349432 kcal/mol)

>  <smiles>  (8) 
NS(=O)(=O)c1ccc(SCC(=O)Nc2ccc(F)c(F)c2)nc1

>  <score_type>  (8) 
oracle

>  <origin>  (8) 
adg

>  <m_score__min__energy>  (8) 
-9.5999999999999996

>  <m_primary>  (8) 
energy

$$$$
8:0
     RDKit          3D

 30 32  0  0  0  0  0  0  0  0999 V2000
   55.4110   29.7880   43.2430 O   0  0  0  0  0  0  0  0  0  0  0  0
   56.2440   29.5370   44.1530 C   0  0  0  0  0  0  0  0  0  0  0  0
   57.6080   30.1690   44.1040 C   0  0  0  0  0  0  0  0  0  0  0  0
   57.5590   31.7600   43.2050 S   0  0  0  0  0  0  0  0  0  0  0  0
   57.9380   32.7710   44.6370 C   0  0  0  0  0  0  0  0  0  0  0  0
   58.8060   33.8620   44.5190 C   0  0  0  0  0  0  0  0  0  0  0  0
   59.0940   34.6310   45.6480 C   0  0  0  0  0  0  0  0  0  0  0  0
   58.5190   34.3010   46.8790 C   0  0  0  0  0  0  0  0  0  0  0  0
   57.6630   33.1990   46.9580 C   0  0  0  0  0  0  0  0  0  0  0  0
   57.3950   32.4630   45.8460 N   0  0  0  0  0  0  0  0  0  0  0  0
   55.8480   28.6750   45.2280 N   0  0  0  0  0  0  0  0  0  0  0  0
   56.4630   27.4330   45.5960 C   0  0  0  0  0  0  0  0  0  0  0  0
   57.8440   27.2540   45.3410 C   0  0  0  0  0  0  0  0  0  0  0  0
   58.4960   26.0640   45.7120 C   0  0  0  0  0  0  0  0  0  0  0  0
   57.7400   25.0850   46.3510 C   0  0  0  0  0  0  0  0  0  0  0  0
   58.1550   23.8900   46.7980 N   0  0  0  0  0  0  0  0  0  0  0  0
   57.0190   23.3800   47.3370 C   0  0  0  0  0  0  0  0  0  0  0  0
   56.9810   22.2430   47.8770 O   0  0  0  0  0  0  0  0  0  0  0  0
   55.9270   24.1820   47.2560 N   0  0  0  0  0  0  0  0  0  0  0  0
   56.4180   25.2580   46.6210 C   0  0  0  0  0  0  0  0  0  0  0  0
   55.7380   26.4220   46.2700 C   0  0  0  0  0  0  0  0  0  0  0  0
   57.9596   30.3465   45.1311 H   0  0  0  0  0  0  0  0  0  0  0  0
   58.2916   29.4881   43.5757 H   0  0  0  0  0  0  0  0  0  0  0  0
   59.2567   34.1112   43.5470 H   0  0  0  0  0  0  0  0  0  0  0  0
   59.7714   35.4941   45.5693 H   0  0  0  0  0  0  0  0  0  0  0  0
   58.7377   34.9014   47.7744 H   0  0  0  0  0  0  0  0  0  0  0  0
   57.2055   32.9266   47.9205 H   0  0  0  0  0  0  0  0  0  0  0  0
   58.4138   28.0548   44.8470 H   0  0  0  0  0  0  0  0  0  0  0  0
   59.5656   25.9123   45.5045 H   0  0  0  0  0  0  0  0  0  0  0  0
   54.6721   26.5510   46.5090 H   0  0  0  0  0  0  0  0  0  0  0  0
  1  2  2  0
  2  3  1  0
  3  4  1  0
  4  5  1  0
  5  6  2  0
  6  7  1  0
  7  8  2  0
  8  9  1  0
  9 10  2  0
  2 11  1  0
 11 12  1  0
 12 13  2  0
 13 14  1  0
 14 15  2  0
 15 16  1  0
 16 17  1  0
 17 18  2  0
 17 19  1  0
 19 20  1  0
 20 21  2  0
 10  5  1  0
 21 12  1  0
 20 15  1  0
  3 22  1  0
  3 23  1  0
  6 24  1  0
  7 25  1  0
  8 26  1  0
  9 27  1  0
 13 28  1  0
 14 29  1  0
 21 30  1  0
M  CHG  3  11  -1  16  -1  19  -1
M  END
>  <UniqueID>  (9) 
9

>  <SMILES>  (9) 
O=C(CSc1ccccn1)[N-]c1ccc2[n-]c(=O)[n-]c2c1

>  <Energy>  (9) 
70.37361399388429

>  <Genealogy>  (9) 
O=C(CSc1ccccn1)[N-]c1ccc2[n-]c(=O)[n-]c2c1 (protonated)
O=C(CSc1ccccn1)[N-]c1ccc2[n-]c(=O)[n-]c2c1 (3D coordinates assigned)
O=C(CSc1ccccn1)[N-]c1ccc2[n-]c(=O)[n-]c2c1 (optimized conformer: 70.37361399388429 kcal/mol)

>  <smiles>  (9) 
O=C(CSc1ccccn1)Nc1ccc2[nH]c(=O)[nH]c2c1

>  <score_type>  (9) 
oracle

>  <origin>  (9) 
adg

>  <m_score__min__energy>  (9) 
-12.34

>  <m_primary>  (9) 
energy

$$$$
9:0
     RDKit          3D

 41 43  0  0  0  0  0  0  0  0999 V2000
   58.8820   34.7670   44.9690 C   0  0  0  0  0  0  0  0  0  0  0  0
   57.9900   33.5650   45.3590 C   0  0  2  0  0  0  0  0  0  0  0  0
   56.6430   33.9440   45.1780 O   0  0  0  0  0  0  0  0  0  0  0  0
   58.1430   33.2620   46.8760 C   0  0  0  0  0  0  0  0  0  0  0  0
   59.3200   32.3990   47.2480 C   0  0  0  0  0  0  0  0  0  0  0  0
   59.2610   31.1450   47.8510 C   0  0  0  0  0  0  0  0  0  0  0  0
   60.5060   30.6700   48.0800 N   0  0  0  0  0  0  0  0  0  0  0  0
   61.3510   31.6200   47.6470 C   0  0  0  0  0  0  0  0  0  0  0  0
   62.7440   31.5950   47.7000 C   0  0  0  0  0  0  0  0  0  0  0  0
   63.4410   32.7200   47.2220 C   0  0  0  0  0  0  0  0  0  0  0  0
   62.7370   33.8360   46.7180 C   0  0  0  0  0  0  0  0  0  0  0  0
   61.3310   33.8340   46.6800 C   0  0  0  0  0  0  0  0  0  0  0  0
   60.6660   32.6970   47.1420 C   0  0  0  0  0  0  0  0  0  0  0  0
   58.2610   32.2890   44.4870 C   0  0  0  0  0  0  0  0  0  0  0  0
   57.4170   31.1360   44.8420 N   0  0  0  0  0  0  0  0  0  0  0  0
   56.0690   31.2800   44.8170 O   0  0  0  0  0  0  0  0  0  0  0  0
   57.9830   29.8400   45.1220 C   0  0  0  0  0  0  0  0  0  0  0  0
   59.3470   29.5900   44.8970 C   0  0  0  0  0  0  0  0  0  0  0  0
   59.8700   28.3250   45.1710 C   0  0  0  0  0  0  0  0  0  0  0  0
   59.0390   27.3210   45.6680 C   0  0  0  0  0  0  0  0  0  0  0  0
   57.6880   27.6000   45.8820 C   0  0  0  0  0  0  0  0  0  0  0  0
   57.1960   28.8370   45.6090 N   0  0  0  0  0  0  0  0  0  0  0  0
   59.2493   35.2619   45.8801 H   0  0  0  0  0  0  0  0  0  0  0  0
   59.7368   34.4117   44.3748 H   0  0  0  0  0  0  0  0  0  0  0  0
   58.2943   35.4822   44.3748 H   0  0  0  0  0  0  0  0  0  0  0  0
   56.1170   33.1330   44.9470 H   0  0  0  0  0  0  0  0  0  0  0  0
   58.2451   34.2211   47.4048 H   0  0  0  0  0  0  0  0  0  0  0  0
   57.2471   32.6917   47.1625 H   0  0  0  0  0  0  0  0  0  0  0  0
   58.3313   30.6150   48.1054 H   0  0  0  0  0  0  0  0  0  0  0  0
   60.7540   29.7560   48.5190 H   0  0  0  0  0  0  0  0  0  0  0  0
   63.2810   30.7235   48.1027 H   0  0  0  0  0  0  0  0  0  0  0  0
   64.5408   32.7304   47.2409 H   0  0  0  0  0  0  0  0  0  0  0  0
   63.2921   34.7126   46.3527 H   0  0  0  0  0  0  0  0  0  0  0  0
   60.7728   34.7015   46.2981 H   0  0  0  0  0  0  0  0  0  0  0  0
   58.0751   32.5434   43.4331 H   0  0  0  0  0  0  0  0  0  0  0  0
   59.3038   31.9911   44.6708 H   0  0  0  0  0  0  0  0  0  0  0  0
   55.7150   30.4600   45.2460 H   0  0  0  0  0  0  0  0  0  0  0  0
   59.9987   30.3859   44.5074 H   0  0  0  0  0  0  0  0  0  0  0  0
   60.9364   28.1202   44.9951 H   0  0  0  0  0  0  0  0  0  0  0  0
   59.4431   26.3220   45.8885 H   0  0  0  0  0  0  0  0  0  0  0  0
   57.0207   26.8174   46.2722 H   0  0  0  0  0  0  0  0  0  0  0  0
  1  2  1  0
  2  3  1  1
  2  4  1  0
  4  5  1  0
  5  6  2  0
  6  7  1  0
  7  8  1  0
  8  9  2  0
  9 10  1  0
 10 11  2  0
 11 12  1  0
 12 13  2  0
  2 14  1  0
 14 15  1  0
 15 16  1  0
 15 17  1  0
 17 18  2  0
 18 19  1  0
 19 20  2  0
 20 21  1  0
 21 22  2  0
 13  5  1  0
 22 17  1  0
 13  8  1  0
  1 23  1  0
  1 24  1  0
  1 25  1  0
  3 26  1  0
  4 27  1  0
  4 28  1  0
  6 29  1  0
  7 30  1  0
  9 31  1  0
 10 32  1  0
 11 33  1  0
 12 34  1  0
 14 35  1  0
 14 36  1  0
 16 37  1  0
 18 38  1  0
 19 39  1  0
 20 40  1  0
 21 41  1  0
M  END
>  <UniqueID>  (10) 
10

>  <SMILES>  (10) 
C[C@](O)(Cc1c[nH]c2ccccc12)CN(O)c1ccccn1

>  <Energy>  (10) 
78.59056253053193

>  <Genealogy>  (10) 
C[C@](O)(Cc1c[nH]c2ccccc12)CN(O)c1ccccn1 (chirality)
C[C@](O)(Cc1c[nH]c2ccccc12)CN(O)c1ccccn1 (3D coordinates assigned)
C[C@](O)(Cc1c[nH]c2ccccc12)CN(O)c1ccccn1 (optimized conformer: 78.59056253053193 kcal/mol)

>  <smiles>  (10) 
CC(O)(Cc1c[nH]c2ccccc12)CN(O)c1ccccn1

>  <score_type>  (10) 
oracle

>  <origin>  (10) 
adg

>  <m_score__min__energy>  (10) 
-9.0999999999999996

>  <m_primary>  (10) 
energy

$$$$
10:0
     RDKit          3D

 53 56  0  0  0  0  0  0  0  0999 V2000
   58.1390   27.1100   43.2240 C   0  0  0  0  0  0  0  0  0  0  0  0
   57.7650   27.9420   44.4610 C   0  0  0  0  0  0  0  0  0  0  0  0
   58.3220   29.3170   44.4610 N   0  0  0  0  0  0  0  0  0  0  0  0
   59.7330   29.3640   44.9080 C   0  0  0  0  0  0  0  0  0  0  0  0
   59.8890   28.6660   46.2340 C   0  0  0  0  0  0  0  0  0  0  0  0
   60.3700   27.5030   46.2730 O   0  0  0  0  0  0  0  0  0  0  0  0
   59.4720   29.2770   47.4620 N   0  0  0  0  0  0  0  0  0  0  0  0
   60.3150   29.6110   48.5760 C   0  0  0  0  0  0  0  0  0  0  0  0
   60.0820   29.0490   49.8430 C   0  0  0  0  0  0  0  0  0  0  0  0
   60.9060   29.3700   50.9220 C   0  0  0  0  0  0  0  0  0  0  0  0
   61.9610   30.2680   50.7570 C   0  0  0  0  0  0  0  0  0  0  0  0
   62.1860   30.8680   49.5130 C   0  0  0  0  0  0  0  0  0  0  0  0
   61.3480   30.5620   48.4170 C   0  0  0  0  0  0  0  0  0  0  0  0
   61.6670   31.1460   47.0540 C   0  0  0  0  0  0  0  0  0  0  0  0
   62.2700   32.5530   47.1510 C   0  0  0  0  0  0  0  0  0  0  0  0
   63.3710   32.5910   48.1670 C   0  0  0  0  0  0  0  0  0  0  0  0
   64.3520   33.3650   48.0110 O   0  0  0  0  0  0  0  0  0  0  0  0
   63.2650   31.8000   49.3540 N   0  0  0  0  0  0  0  0  0  0  0  0
   57.4750   30.2970   45.1780 C   0  0  0  0  0  0  0  0  0  0  0  0
   58.0200   31.6950   45.0300 C   0  0  0  0  0  0  0  0  0  0  0  0
   58.1170   32.4240   43.8500 C   0  0  0  0  0  0  0  0  0  0  0  0
   57.7310   31.9550   42.4860 C   0  0  0  0  0  0  0  0  0  0  0  0
   58.6130   33.6580   44.1020 N   0  0  0  0  0  0  0  0  0  0  0  0
   58.8090   33.6510   45.4370 C   0  0  0  0  0  0  0  0  0  0  0  0
   59.3110   34.7130   46.1850 C   0  0  0  0  0  0  0  0  0  0  0  0
   59.4480   34.5300   47.5690 C   0  0  0  0  0  0  0  0  0  0  0  0
   59.0860   33.3060   48.1630 C   0  0  0  0  0  0  0  0  0  0  0  0
   59.2620   33.0770   49.8930 Cl  0  0  0  0  0  0  0  0  0  0  0  0
   58.5860   32.2690   47.3620 C   0  0  0  0  0  0  0  0  0  0  0  0
   58.4640   32.4880   46.0240 N   0  0  0  0  0  0  0  0  0  0  0  0
   58.5704   26.1502   43.5444 H   0  0  0  0  0  0  0  0  0  0  0  0
   57.2379   26.9239   42.6211 H   0  0  0  0  0  0  0  0  0  0  0  0
   58.8763   27.6604   42.6211 H   0  0  0  0  0  0  0  0  0  0  0  0
   56.6684   28.0142   44.5094 H   0  0  0  0  0  0  0  0  0  0  0  0
   58.1973   27.4261   45.3310 H   0  0  0  0  0  0  0  0  0  0  0  0
   60.3668   28.8657   44.1597 H   0  0  0  0  0  0  0  0  0  0  0  0
   60.0359   30.4154   45.0212 H   0  0  0  0  0  0  0  0  0  0  0  0
   59.2438   28.3509   49.9849 H   0  0  0  0  0  0  0  0  0  0  0  0
   60.7233   28.9136   51.9061 H   0  0  0  0  0  0  0  0  0  0  0  0
   62.6177   30.5050   51.6071 H   0  0  0  0  0  0  0  0  0  0  0  0
   62.3865   30.4869   46.5462 H   0  0  0  0  0  0  0  0  0  0  0  0
   60.7250   31.2213   46.4910 H   0  0  0  0  0  0  0  0  0  0  0  0
   62.6749   32.8403   46.1694 H   0  0  0  0  0  0  0  0  0  0  0  0
   61.4809   33.2544   47.4597 H   0  0  0  0  0  0  0  0  0  0  0  0
   63.9670   31.9270   50.1180 H   0  0  0  0  0  0  0  0  0  0  0  0
   56.4565   30.2626   44.7640 H   0  0  0  0  0  0  0  0  0  0  0  0
   57.4665   30.0362   46.2466 H   0  0  0  0  0  0  0  0  0  0  0  0
   57.0342   31.1083   42.5729 H   0  0  0  0  0  0  0  0  0  0  0  0
   57.2438   32.7763   41.9401 H   0  0  0  0  0  0  0  0  0  0  0  0
   58.6307   31.6348   41.9401 H   0  0  0  0  0  0  0  0  0  0  0  0
   59.5906   35.6633   45.7067 H   0  0  0  0  0  0  0  0  0  0  0  0
   59.8401   35.3466   48.1931 H   0  0  0  0  0  0  0  0  0  0  0  0
   58.2997   31.3032   47.8038 H   0  0  0  0  0  0  0  0  0  0  0  0
  1  2  1  0
  2  3  1  0
  3  4  1  0
  4  5  1  0
  5  6  2  0
  5  7  1  0
  7  8  1  0
  8  9  2  0
  9 10  1  0
 10 11  2  0
 11 12  1  0
 12 13  2  0
 13 14  1  0
 14 15  1  0
 15 16  1  0
 16 17  2  0
 16 18  1  0
  3 19  1  0
 19 20  1  0
 20 21  2  0
 21 22  1  0
 21 23  1  0
 23 24  2  0
 24 25  1  0
 25 26  2  0
 26 27  1  0
 27 28  1  0
 27 29  2  0
 29 30  1  0
 13  8  1  0
 30 20  1  0
 18 12  1  0
 30 24  1  0
  1 31  1  0
  1 32  1  0
  1 33  1  0
  2 34  1  0
  2 35  1  0
  4 36  1  0
  4 37  1  0
  9 38  1  0
 10 39  1  0
 11 40  1  0
 14 41  1  0
 14 42  1  0
 15 43  1  0
 15 44  1  0
 18 45  1  0
 19 46  1  0
 19 47  1  0
 22 48  1  0
 22 49  1  0
 22 50  1  0
 25 51  1  0
 26 52  1  0
 29 53  1  0
M  CHG  1   7  -1
M  END
>  <UniqueID>  (11) 
11

>  <SMILES>  (11) 
CCN(CC(=O)[N-]c1cccc2c1CCC(=O)N2)Cc1c(C)nc2ccc(Cl)cn12

>  <Energy>  (11) 
98.37091331883353

>  <Genealogy>  (11) 
CCN(CC(=O)[N-]c1cccc2c1CCC(=O)N2)Cc1c(C)nc2ccc(Cl)cn12 (protonated)
CCN(CC(=O)[N-]c1cccc2c1CCC(=O)N2)Cc1c(C)nc2ccc(Cl)cn12 (3D coordinates assigned)
CCN(CC(=O)[N-]c1cccc2c1CCC(=O)N2)Cc1c(C)nc2ccc(Cl)cn12 (nonaromatic ring conformer: 98.37091331883353 kcal/mol)

>  <smiles>  (11) 
CCN(CC(=O)Nc1cccc2c1CCC(=O)N2)Cc1c(C)nc2ccc(Cl)cn12

>  <score_type>  (11) 
oracle

>  <origin>  (11) 
adg

>  <m_score__min__energy>  (11) 
-10.859999999999999

>  <m_primary>  (11) 
energy

$$$$
11:0
     RDKit          3D

 42 44  0  0  0  0  0  0  0  0999 V2000
   55.1380   27.6216   53.7673 H   0  0  0  0  0  0  0  0  0  0  0  0
   54.3720   28.2880   53.3440 C   0  0  0  0  0  0  0  0  0  0  0  0
   53.3272   27.9510   53.2748 H   0  0  0  0  0  0  0  0  0  0  0  0
   54.7130   29.5150   52.9110 C   0  0  0  0  0  0  0  0  0  0  0  0
   53.8340   30.4520   52.3550 C   0  0  0  0  0  0  0  0  0  0  0  0
   52.5240   30.2890   52.0860 C   0  0  0  0  0  0  0  0  0  0  0  0
   51.9088   29.7525   52.8233 H   0  0  0  0  0  0  0  0  0  0  0  0
   51.8640   30.7850   50.8650 C   0  0  0  0  0  0  0  0  0  0  0  0
   51.7330   30.0500   49.7480 N   0  0  0  0  0  0  0  0  0  0  0  0
   51.0060   30.8450   48.9310 C   0  0  0  0  0  0  0  0  0  0  0  0
   50.6840   30.5050   47.7640 O   0  0  0  0  0  0  0  0  0  0  0  0
   50.6460   32.0300   49.4690 N   0  0  0  0  0  0  0  0  0  0  0  0
   51.1840   31.9730   50.6970 C   0  0  0  0  0  0  0  0  0  0  0  0
   51.0160   32.9630   51.6570 O   0  0  0  0  0  0  0  0  0  0  0  0
   54.5920   31.5780   52.0740 C   0  0  0  0  0  0  0  0  0  0  0  0
   54.2340   32.5131   51.6186 H   0  0  0  0  0  0  0  0  0  0  0  0
   55.8800   31.3000   52.4750 C   0  0  0  0  0  0  0  0  0  0  0  0
   57.0260   32.2560   52.3220 C   0  0  0  0  0  0  0  0  0  0  0  0
   57.3873   32.5574   53.3163 H   0  0  0  0  0  0  0  0  0  0  0  0
   57.8408   31.7661   51.7688 H   0  0  0  0  0  0  0  0  0  0  0  0
   56.6902   33.1455   51.7688 H   0  0  0  0  0  0  0  0  0  0  0  0
   55.9710   30.0380   52.9630 N   0  0  0  0  0  0  0  0  0  0  0  0
   57.2040   29.4190   53.4870 C   0  0  0  0  0  0  0  0  0  0  0  0
   57.5035   29.9426   54.4069 H   0  0  0  0  0  0  0  0  0  0  0  0
   56.9976   28.3576   53.6893 H   0  0  0  0  0  0  0  0  0  0  0  0
   58.3300   29.4990   52.4900 C   0  0  0  0  0  0  0  0  0  0  0  0
   59.5030   29.6820   52.9070 O   0  0  0  0  0  0  0  0  0  0  0  0
   58.1170   29.3540   51.0800 N   0  0  0  0  0  0  0  0  0  0  0  0
   58.1460   30.4450   50.1170 C   0  0  0  0  0  0  0  0  0  0  0  0
   57.7836   30.0847   49.1429 H   0  0  0  0  0  0  0  0  0  0  0  0
   57.4991   31.2626   50.4678 H   0  0  0  0  0  0  0  0  0  0  0  0
   59.5540   30.9450   49.9740 C   0  0  0  0  0  0  0  0  0  0  0  0
   59.8260   32.3220   50.0270 C   0  0  0  0  0  0  0  0  0  0  0  0
   59.0009   33.0394   50.1476 H   0  0  0  0  0  0  0  0  0  0  0  0
   61.1420   32.7840   49.9270 C   0  0  0  0  0  0  0  0  0  0  0  0
   61.3490   33.8639   49.9584 H   0  0  0  0  0  0  0  0  0  0  0  0
   62.1960   31.8740   49.7870 C   0  0  0  0  0  0  0  0  0  0  0  0
   63.8460   32.4560   49.6650 Cl  0  0  0  0  0  0  0  0  0  0  0  0
   61.9330   30.5010   49.7500 C   0  0  0  0  0  0  0  0  0  0  0  0
   62.7617   29.7857   49.6422 H   0  0  0  0  0  0  0  0  0  0  0  0
   60.6170   30.0360   49.8500 C   0  0  0  0  0  0  0  0  0  0  0  0
   60.4146   28.9549   49.8314 H   0  0  0  0  0  0  0  0  0  0  0  0
  1  2  1  0
  2  3  1  0
  2  4  2  0
  4  5  1  0
  5  6  2  0
  6  7  1  0
  6  8  1  0
  8  9  1  0
  9 10  1  0
 10 11  2  0
 10 12  1  0
 12 13  1  0
 13 14  1  0
  5 15  1  0
 15 16  1  0
 15 17  2  0
 17 18  1  0
 18 19  1  0
 18 20  1  0
 18 21  1  0
 17 22  1  0
 22 23  1  0
 23 24  1  0
 23 25  1  0
 23 26  1  0
 26 27  2  0
 26 28  1  0
 28 29  1  0
 29 30  1  0
 29 31  1  0
 29 32  1  0
 32 33  2  0
 33 34  1  0
 33 35  1  0
 35 36  1  0
 35 37  2  0
 37 38  1  0
 37 39  1  0
 39 40  1  0
 39 41  2  0
 41 42  1  0
 22  4  1  0
 41 32  1  0
 13  8  2  0
M  CHG  4   9  -1  12  -1  14  -1  28  -1
M  END
>  <UniqueID>  (12) 
12

>  <SMILES>  (12) 
C=c1/c(=C/c2[n-]c(=O)[n-]c2[O-])cc(C)n1CC(=O)[N-]Cc1ccc(Cl)cc1

>  <Energy>  (12) 
106.62932409088847

>  <Genealogy>  (12) 
C=c1c(=Cc2[n-]c(=O)[n-]c2[O-])cc(C)n1CC(=O)[N-]Cc1ccc(Cl)cc1 (protonated)
C=c1/c(=C/c2[n-]c(=O)[n-]c2[O-])cc(C)n1CC(=O)[N-]Cc1ccc(Cl)cc1 (cis-trans isomerization)
C=c1/c(=C/c2[n-]c(=O)[n-]c2[O-])cc(C)n1CC(=O)[N-]Cc1ccc(Cl)cc1 (3D coordinates assigned)
C=c1/c(=C/c2[n-]c(=O)[n-]c2[O-])cc(C)n1CC(=O)[N-]Cc1ccc(Cl)cc1 (optimized conformer: 106.62932409088847 kcal/mol)

>  <smiles>  (12) 
C=c1c(=Cc2[nH]c(=O)[nH]c2O)cc(C)n1CC(=O)NCc1ccc(Cl)cc1

>  <score_type>  (12) 
oracle

>  <origin>  (12) 
adg

>  <m_score__min__energy>  (12) 
-17.390000000000001

>  <m_primary>  (12) 
energy

$$$$
12:0
     RDKit          3D

 51 53  0  0  0  0  0  0  0  0999 V2000
   55.1230   29.3530   44.3930 N   0  0  0  0  0  0  0  0  0  0  0  0
   56.7440   29.6340   43.8590 S   0  0  0  0  0  0  0  0  0  0  0  0
   57.1690   28.5250   42.9390 O   0  0  0  0  0  0  0  0  0  0  0  0
   56.7870   30.9440   43.1200 O   0  0  0  0  0  0  0  0  0  0  0  0
   57.8290   29.6950   45.2440 C   0  0  0  0  0  0  0  0  0  0  0  0
   58.5480   30.8660   45.5220 C   0  0  0  0  0  0  0  0  0  0  0  0
   59.4200   30.9130   46.6140 C   0  0  0  0  0  0  0  0  0  0  0  0
   59.5750   29.7900   47.4460 C   0  0  0  0  0  0  0  0  0  0  0  0
   60.4560   29.7940   48.5380 O   0  0  0  0  0  0  0  0  0  0  0  0
   60.0750   29.9580   49.8770 C   0  0  0  0  0  0  0  0  0  0  0  0
   60.3040   28.9590   50.8400 C   0  0  0  0  0  0  0  0  0  0  0  0
   59.9190   29.1590   52.1690 C   0  0  0  0  0  0  0  0  0  0  0  0
   59.3110   30.3640   52.5570 C   0  0  0  0  0  0  0  0  0  0  0  0
   58.8370   30.5530   53.9730 C   0  0  0  0  0  0  0  0  0  0  0  0
   57.4680   30.0380   54.1190 N   0  0  0  0  0  0  0  0  0  0  0  0
   57.2190   28.9770   55.1040 C   0  0  0  0  0  0  0  0  0  0  0  0
   55.9900   28.1620   54.7220 C   0  0  0  0  0  0  0  0  0  0  0  0
   54.8100   29.0780   54.5930 C   0  0  0  0  0  0  0  0  0  0  0  0
   53.7350   28.7490   55.0740 O   0  0  0  0  0  0  0  0  0  0  0  0
   54.9250   30.3860   53.8460 C   0  0  2  0  0  0  0  0  0  0  0  0
   54.0850   30.3430   52.5860 C   0  0  0  0  0  0  0  0  0  0  0  0
   54.4540   29.6220   51.6210 O   0  0  0  0  0  0  0  0  0  0  0  0
   52.9130   31.1540   52.4280 N   0  0  0  0  0  0  0  0  0  0  0  0
   51.7750   30.8170   51.5820 C   0  0  0  0  0  0  0  0  0  0  0  0
   51.1180   32.0670   51.0970 C   0  0  0  0  0  0  0  0  0  0  0  0
   51.0190   32.2930   49.8610 O   0  0  0  0  0  0  0  0  0  0  0  0
   50.6500   33.0060   52.0080 O   0  0  0  0  0  0  0  0  0  0  0  0
   56.3590   30.7320   53.5070 C   0  0  0  0  0  0  0  0  0  0  0  0
   56.5790   31.6680   52.6880 O   0  0  0  0  0  0  0  0  0  0  0  0
   59.0950   31.3640   51.5970 C   0  0  0  0  0  0  0  0  0  0  0  0
   59.4870   31.1650   50.2690 C   0  0  0  0  0  0  0  0  0  0  0  0
   58.8650   28.6190   47.1560 C   0  0  0  0  0  0  0  0  0  0  0  0
   57.9940   28.5710   46.0630 C   0  0  0  0  0  0  0  0  0  0  0  0
   55.1820   28.9890   45.3710 H   0  0  0  0  0  0  0  0  0  0  0  0
   58.4258   31.7503   44.8792 H   0  0  0  0  0  0  0  0  0  0  0  0
   59.9870   31.8321   46.8231 H   0  0  0  0  0  0  0  0  0  0  0  0
   60.7882   28.0160   50.5462 H   0  0  0  0  0  0  0  0  0  0  0  0
   60.0931   28.3689   52.9142 H   0  0  0  0  0  0  0  0  0  0  0  0
   59.5055   30.0089   54.6564 H   0  0  0  0  0  0  0  0  0  0  0  0
   58.8466   31.6257   54.2163 H   0  0  0  0  0  0  0  0  0  0  0  0
   58.0940   28.3117   55.1465 H   0  0  0  0  0  0  0  0  0  0  0  0
   57.0431   29.4413   56.0856 H   0  0  0  0  0  0  0  0  0  0  0  0
   56.1687   27.6552   53.7622 H   0  0  0  0  0  0  0  0  0  0  0  0
   55.7899   27.4097   55.4992 H   0  0  0  0  0  0  0  0  0  0  0  0
   54.5489   31.1763   54.5123 H   0  0  0  0  0  0  0  0  0  0  0  0
   52.1224   30.2288   50.7198 H   0  0  0  0  0  0  0  0  0  0  0  0
   51.0509   30.2285   52.1645 H   0  0  0  0  0  0  0  0  0  0  0  0
   58.6150   32.3093   51.8901 H   0  0  0  0  0  0  0  0  0  0  0  0
   59.3318   31.9631   49.5281 H   0  0  0  0  0  0  0  0  0  0  0  0
   58.9930   27.7307   47.7920 H   0  0  0  0  0  0  0  0  0  0  0  0
   57.4368   27.6477   45.8459 H   0  0  0  0  0  0  0  0  0  0  0  0
  1  2  1  0
  2  3  2  0
  2  4  2  0
  2  5  1  0
  5  6  2  0
  6  7  1  0
  7  8  2  0
  8  9  1  0
  9 10  1  0
 10 11  2  0
 11 12  1  0
 12 13  2  0
 13 14  1  0
 14 15  1  0
 15 16  1  0
 16 17  1  0
 17 18  1  0
 18 19  2  0
 18 20  1  0
 20 21  1  0
 21 22  2  0
 21 23  1  0
 23 24  1  0
 24 25  1  0
 25 26  2  0
 25 27  1  0
 20 28  1  0
 28 29  2  0
 13 30  1  0
 30 31  2  0
  8 32  1  0
 32 33  2  0
 33  5  1  0
 31 10  1  0
 28 15  1  0
  1 34  1  0
  6 35  1  0
  7 36  1  0
 11 37  1  0
 12 38  1  0
 14 39  1  0
 14 40  1  0
 16 41  1  0
 16 42  1  0
 17 43  1  0
 17 44  1  0
 20 45  1  1
 24 46  1  0
 24 47  1  0
 30 48  1  0
 31 49  1  0
 32 50  1  0
 33 51  1  0
M  CHG  3   1  -1  23  -1  27  -1
M  END
>  <UniqueID>  (13) 
13

>  <SMILES>  (13) 
[NH-]S(=O)(=O)c1ccc(Oc2ccc(CN3CCC(=O)[C@H](C(=O)[N-]CC(=O)[O-])C3=O)cc2)cc1

>  <Energy>  (13) 
54.64780176377602

>  <Genealogy>  (13) 
[NH-]S(=O)(=O)c1ccc(Oc2ccc(CN3CCC(=O)C(C(=O)[N-]CC(=O)[O-])C3=O)cc2)cc1 (protonated)
[NH-]S(=O)(=O)c1ccc(Oc2ccc(CN3CCC(=O)[C@H](C(=O)[N-]CC(=O)[O-])C3=O)cc2)cc1 (chirality)
[NH-]S(=O)(=O)c1ccc(Oc2ccc(CN3CCC(=O)[C@H](C(=O)[N-]CC(=O)[O-])C3=O)cc2)cc1 (3D coordinates assigned)
[NH-]S(=O)(=O)c1ccc(Oc2ccc(CN3CCC(=O)[C@H](C(=O)[N-]CC(=O)[O-])C3=O)cc2)cc1 (nonaromatic ring conformer: 54.64780176377602 kcal/mol)

>  <smiles>  (13) 
NS(=O)(=O)c1ccc(Oc2ccc(CN3CCC(=O)C(C(=O)NCC(=O)O)C3=O)cc2)cc1

>  <score_type>  (13) 
oracle

>  <origin>  (13) 
adg

>  <m_score__min__energy>  (13) 
-16.649999999999999

>  <m_primary>  (13) 
energy

$$$$
13:0
     RDKit          3D

 43 44  0  0  0  0  0  0  0  0999 V2000
   60.3970   28.7020   44.8770 C   0  0  0  0  0  0  0  0  0  0  0  0
   60.0720   29.6250   45.7880 C   0  0  0  0  0  0  0  0  0  0  0  0
   58.6370   29.9120   46.1390 C   0  0  0  0  0  0  0  0  0  0  0  0
   58.3750   31.3510   46.1180 N   0  0  0  0  0  0  0  0  0  0  0  0
   57.3840   31.9150   45.2460 C   0  0  0  0  0  0  0  0  0  0  0  0
   56.6650   31.1620   44.5330 O   0  0  0  0  0  0  0  0  0  0  0  0
   57.2330   33.4020   45.1300 C   0  0  0  0  0  0  0  0  0  0  0  0
   58.0260   34.0400   46.1300 O   0  0  0  0  0  0  0  0  0  0  0  0
   59.4030   34.2450   45.9930 C   0  0  0  0  0  0  0  0  0  0  0  0
   59.9500   34.2290   44.8550 O   0  0  0  0  0  0  0  0  0  0  0  0
   60.2140   34.5750   47.2040 C   0  0  0  0  0  0  0  0  0  0  0  0
   61.3240   33.5640   47.3470 C   0  0  0  0  0  0  0  0  0  0  0  0
   62.5950   33.8470   46.8200 C   0  0  0  0  0  0  0  0  0  0  0  0
   63.6150   32.8940   46.8850 C   0  0  0  0  0  0  0  0  0  0  0  0
   63.3710   31.6440   47.4570 C   0  0  0  0  0  0  0  0  0  0  0  0
   62.1090   31.3440   47.9700 C   0  0  0  0  0  0  0  0  0  0  0  0
   61.0790   32.3050   47.9370 C   0  0  0  0  0  0  0  0  0  0  0  0
   59.7940   32.0120   48.4280 O   0  0  0  0  0  0  0  0  0  0  0  0
   59.3350   32.2910   49.7260 C   0  0  0  0  0  0  0  0  0  0  0  0
   59.6320   33.5030   50.3750 C   0  0  0  0  0  0  0  0  0  0  0  0
   59.1260   33.7600   51.6550 C   0  0  0  0  0  0  0  0  0  0  0  0
   58.3150   32.8190   52.2920 C   0  0  0  0  0  0  0  0  0  0  0  0
   58.0010   31.6180   51.6450 C   0  0  0  0  0  0  0  0  0  0  0  0
   58.5040   31.3580   50.3630 C   0  0  0  0  0  0  0  0  0  0  0  0
   58.1780   30.1970   49.7410 F   0  0  0  0  0  0  0  0  0  0  0  0
   61.4541   28.5121   44.6393 H   0  0  0  0  0  0  0  0  0  0  0  0
   59.6073   28.1325   44.3651 H   0  0  0  0  0  0  0  0  0  0  0  0
   60.8716   30.1874   46.2924 H   0  0  0  0  0  0  0  0  0  0  0  0
   57.9809   29.4153   45.4091 H   0  0  0  0  0  0  0  0  0  0  0  0
   58.4391   29.5323   47.1522 H   0  0  0  0  0  0  0  0  0  0  0  0
   58.9300   31.9950   46.7280 H   0  0  0  0  0  0  0  0  0  0  0  0
   57.5671   33.7279   44.1339 H   0  0  0  0  0  0  0  0  0  0  0  0
   56.1767   33.6753   45.2700 H   0  0  0  0  0  0  0  0  0  0  0  0
   60.6445   35.5814   47.0956 H   0  0  0  0  0  0  0  0  0  0  0  0
   59.5725   34.5489   48.0972 H   0  0  0  0  0  0  0  0  0  0  0  0
   62.7885   34.8242   46.3535 H   0  0  0  0  0  0  0  0  0  0  0  0
   64.6122   33.1292   46.4847 H   0  0  0  0  0  0  0  0  0  0  0  0
   64.1750   30.8947   47.5032 H   0  0  0  0  0  0  0  0  0  0  0  0
   61.9167   30.3512   48.4029 H   0  0  0  0  0  0  0  0  0  0  0  0
   60.2641   34.2517   49.8751 H   0  0  0  0  0  0  0  0  0  0  0  0
   59.3683   34.7065   52.1604 H   0  0  0  0  0  0  0  0  0  0  0  0
   57.9236   33.0208   53.3000 H   0  0  0  0  0  0  0  0  0  0  0  0
   57.3585   30.8773   52.1435 H   0  0  0  0  0  0  0  0  0  0  0  0
  1  2  2  0
  2  3  1  0
  3  4  1  0
  4  5  1  0
  5  6  2  0
  5  7  1  0
  7  8  1  0
  8  9  1  0
  9 10  2  0
  9 11  1  0
 11 12  1  0
 12 13  2  0
 13 14  1  0
 14 15  2  0
 15 16  1  0
 16 17  2  0
 17 18  1  0
 18 19  1  0
 19 20  2  0
 20 21  1  0
 21 22  2  0
 22 23  1  0
 23 24  2  0
 24 25  1  0
 17 12  1  0
 24 19  1  0
  1 26  1  0
  1 27  1  0
  2 28  1  0
  3 29  1  0
  3 30  1  0
  4 31  1  0
  7 32  1  0
  7 33  1  0
 11 34  1  0
 11 35  1  0
 13 36  1  0
 14 37  1  0
 15 38  1  0
 16 39  1  0
 20 40  1  0
 21 41  1  0
 22 42  1  0
 23 43  1  0
M  END
>  <UniqueID>  (14) 
14

>  <SMILES>  (14) 
C=CCNC(=O)COC(=O)Cc1ccccc1Oc1ccccc1F

>  <Energy>  (14) 
38.993691868866954

>  <Genealogy>  (14) 
C=CCNC(=O)COC(=O)Cc1ccccc1Oc1ccccc1F (3D coordinates assigned)
C=CCNC(=O)COC(=O)Cc1ccccc1Oc1ccccc1F (optimized conformer: 38.993691868866954 kcal/mol)

>  <smiles>  (14) 
C=CCNC(=O)COC(=O)Cc1ccccc1Oc1ccccc1F

>  <score_type>  (14) 
oracle

>  <origin>  (14) 
adg

>  <m_score__min__energy>  (14) 
-7.6600000000000001

>  <m_primary>  (14) 
energy

$$$$
14:0
     RDKit          3D

 59 64  0  0  0  0  0  0  0  0999 V2000
   57.6660   26.1910   46.2400 O   0  0  0  0  0  0  0  0  0  0  0  0
   56.7190   26.9850   45.9870 C   0  0  0  0  0  0  0  0  0  0  0  0
   55.3660   26.5220   46.0290 N   0  0  0  0  0  0  0  0  0  0  0  0
   54.9950   25.1810   45.5980 C   0  0  0  0  0  0  0  0  0  0  0  0
   56.1070   24.4740   44.8470 C   0  0  0  0  0  0  0  0  0  0  0  0
   55.7950   24.0860   46.2830 C   0  0  0  0  0  0  0  0  0  0  0  0
   57.0090   28.4010   45.6950 C   0  0  0  0  0  0  0  0  0  0  0  0
   57.9960   29.1710   46.3040 C   0  0  0  0  0  0  0  0  0  0  0  0
   58.0870   30.4590   45.7640 C   0  0  0  0  0  0  0  0  0  0  0  0
   57.1870   30.6900   44.7400 C   0  0  0  0  0  0  0  0  0  0  0  0
   56.2510   29.3160   44.4940 S   0  0  0  0  0  0  0  0  0  0  0  0
   57.0950   31.9790   43.9980 C   0  0  0  0  0  0  0  0  0  0  0  0
   58.4710   32.6550   43.9980 C   0  0  0  0  0  0  0  0  0  0  0  0
   59.0330   32.7120   45.3650 N   0  0  0  0  0  0  0  0  0  0  0  0
   59.6420   33.9300   45.8560 C   0  0  0  0  0  0  0  0  0  0  0  0
   59.2080   35.0460   45.4560 O   0  0  0  0  0  0  0  0  0  0  0  0
   60.7740   33.9060   46.8100 C   0  0  0  0  0  0  0  0  0  0  0  0
   62.0630   33.5450   46.3680 C   0  0  0  0  0  0  0  0  0  0  0  0
   63.1310   33.5010   47.2690 C   0  0  0  0  0  0  0  0  0  0  0  0
   62.9320   33.8450   48.6220 C   0  0  0  0  0  0  0  0  0  0  0  0
   63.9780   33.7280   49.5960 N   0  0  0  0  0  0  0  0  0  0  0  0
   64.3410   32.5330   50.2950 C   0  0  0  0  0  0  0  0  0  0  0  0
   65.5450   32.3760   50.6320 O   0  0  0  0  0  0  0  0  0  0  0  0
   63.3810   31.4980   50.5650 N   0  0  0  0  0  0  0  0  0  0  0  0
   62.1880   31.2660   49.7380 C   0  0  0  0  0  0  0  0  0  0  0  0
   61.7540   29.9110   50.1510 C   0  0  0  0  0  0  0  0  0  0  0  0
   60.6770   29.1630   49.6700 C   0  0  0  0  0  0  0  0  0  0  0  0
   60.4520   27.8820   50.2110 C   0  0  0  0  0  0  0  0  0  0  0  0
   61.2930   27.3800   51.2210 C   0  0  0  0  0  0  0  0  0  0  0  0
   62.3700   28.1490   51.6880 C   0  0  0  0  0  0  0  0  0  0  0  0
   62.5800   29.4120   51.1330 C   0  0  0  0  0  0  0  0  0  0  0  0
   63.6570   30.3710   51.4640 C   0  0  0  0  0  0  0  0  0  0  0  0
   61.6560   34.2270   49.0530 C   0  0  0  0  0  0  0  0  0  0  0  0
   60.5850   34.2620   48.1550 C   0  0  0  0  0  0  0  0  0  0  0  0
   59.0690   31.5000   46.2210 C   0  0  0  0  0  0  0  0  0  0  0  0
   53.9258   25.3690   45.4204 H   0  0  0  0  0  0  0  0  0  0  0  0
   55.8636   23.7840   44.0257 H   0  0  0  0  0  0  0  0  0  0  0  0
   57.0093   24.7980   44.3076 H   0  0  0  0  0  0  0  0  0  0  0  0
   55.3251   23.1156   46.5012 H   0  0  0  0  0  0  0  0  0  0  0  0
   56.3768   24.0130   47.2137 H   0  0  0  0  0  0  0  0  0  0  0  0
   58.6354   28.8064   47.1215 H   0  0  0  0  0  0  0  0  0  0  0  0
   56.7789   31.7864   42.9622 H   0  0  0  0  0  0  0  0  0  0  0  0
   56.3586   32.6357   44.4843 H   0  0  0  0  0  0  0  0  0  0  0  0
   59.1531   32.0826   43.3521 H   0  0  0  0  0  0  0  0  0  0  0  0
   58.3568   33.6827   43.6226 H   0  0  0  0  0  0  0  0  0  0  0  0
   62.2292   33.2968   45.3093 H   0  0  0  0  0  0  0  0  0  0  0  0
   64.1295   33.1972   46.9215 H   0  0  0  0  0  0  0  0  0  0  0  0
   61.4085   32.0126   49.9504 H   0  0  0  0  0  0  0  0  0  0  0  0
   62.3862   31.3474   48.6591 H   0  0  0  0  0  0  0  0  0  0  0  0
   60.0189   29.5654   48.8858 H   0  0  0  0  0  0  0  0  0  0  0  0
   59.6148   27.2713   49.8420 H   0  0  0  0  0  0  0  0  0  0  0  0
   61.1059   26.3826   51.6455 H   0  0  0  0  0  0  0  0  0  0  0  0
   63.0349   27.7641   52.4753 H   0  0  0  0  0  0  0  0  0  0  0  0
   63.5998   30.6821   52.5175 H   0  0  0  0  0  0  0  0  0  0  0  0
   64.6659   29.9515   51.3373 H   0  0  0  0  0  0  0  0  0  0  0  0
   61.4949   34.5016   50.1059 H   0  0  0  0  0  0  0  0  0  0  0  0
   59.5885   34.5702   48.5042 H   0  0  0  0  0  0  0  0  0  0  0  0
   60.0817   31.0718   46.1879 H   0  0  0  0  0  0  0  0  0  0  0  0
   58.7965   31.7983   47.2441 H   0  0  0  0  0  0  0  0  0  0  0  0
  1  2  2  0
  2  3  1  0
  3  4  1  0
  4  5  1  0
  5  6  1  0
  2  7  1  0
  7  8  2  0
  8  9  1  0
  9 10  2  0
 10 11  1  0
 10 12  1  0
 12 13  1  0
 13 14  1  0
 14 15  1  0
 15 16  2  0
 15 17  1  0
 17 18  2  0
 18 19  1  0
 19 20  2  0
 20 21  1  0
 21 22  1  0
 22 23  2  0
 22 24  1  0
 24 25  1  0
 25 26  1  0
 26 27  2  0
 27 28  1  0
 28 29  2  0
 29 30  1  0
 30 31  2  0
 31 32  1  0
 20 33  1  0
 33 34  2  0
 14 35  1  0
  6  4  1  0
 11  7  1  0
 34 17  1  0
 35  9  1  0
 32 24  1  0
 31 26  1  0
  4 36  1  0
  5 37  1  0
  5 38  1  0
  6 39  1  0
  6 40  1  0
  8 41  1  0
 12 42  1  0
 12 43  1  0
 13 44  1  0
 13 45  1  0
 18 46  1  0
 19 47  1  0
 25 48  1  0
 25 49  1  0
 27 50  1  0
 28 51  1  0
 29 52  1  0
 30 53  1  0
 32 54  1  0
 32 55  1  0
 33 56  1  0
 34 57  1  0
 35 58  1  0
 35 59  1  0
M  CHG  2   3  -1  21  -1
M  END
>  <UniqueID>  (15) 
15

>  <SMILES>  (15) 
O=C([N-]C1CC1)c1cc2c(s1)CCN(C(=O)c1ccc([N-]C(=O)N3Cc4ccccc4C3)cc1)C2

>  <Energy>  (15) 
376.8321773621557

>  <Genealogy>  (15) 
O=C([N-]C1CC1)c1cc2c(s1)CCN(C(=O)c1ccc([N-]C(=O)N3Cc4ccccc4C3)cc1)C2 (protonated)
O=C([N-]C1CC1)c1cc2c(s1)CCN(C(=O)c1ccc([N-]C(=O)N3Cc4ccccc4C3)cc1)C2 (3D coordinates assigned)
O=C([N-]C1CC1)c1cc2c(s1)CCN(C(=O)c1ccc([N-]C(=O)N3Cc4ccccc4C3)cc1)C2 (nonaromatic ring conformer: 376.8321773621557 kcal/mol)

>  <smiles>  (15) 
O=C(NC1CC1)c1cc2c(s1)CCN(C(=O)c1ccc(NC(=O)N3Cc4ccccc4C3)cc1)C2

>  <score_type>  (15) 
oracle

>  <origin>  (15) 
adg

>  <m_score__min__energy>  (15) 
-12.119999999999999

>  <m_primary>  (15) 
energy

$$$$
15:0
     RDKit          3D

 56 60  0  0  0  0  0  0  0  0999 V2000
   59.9045   31.2196   47.0659 H   0  0  0  0  0  0  0  0  0  0  0  0
   59.3000   31.5040   46.1920 C   0  0  0  0  0  0  0  0  0  0  0  0
   59.0360   32.8560   45.9390 C   0  0  0  0  0  0  0  0  0  0  0  0
   59.5710   33.9090   46.8310 C   0  0  0  0  0  0  0  0  0  0  0  0
   58.9050   34.9650   47.0170 O   0  0  0  0  0  0  0  0  0  0  0  0
   60.8260   33.7480   47.5100 N   0  0  0  0  0  0  0  0  0  0  0  0
   60.8470   33.7370   48.9760 C   0  0  0  0  0  0  0  0  0  0  0  0
   60.0817   34.4306   49.3545 H   0  0  0  0  0  0  0  0  0  0  0  0
   60.6392   32.7157   49.3279 H   0  0  0  0  0  0  0  0  0  0  0  0
   62.2260   34.1720   49.4960 C   0  0  0  0  0  0  0  0  0  0  0  0
   62.3544   35.2496   49.3161 H   0  0  0  0  0  0  0  0  0  0  0  0
   62.2796   33.9511   50.5723 H   0  0  0  0  0  0  0  0  0  0  0  0
   63.2640   33.4660   48.8390 O   0  0  0  0  0  0  0  0  0  0  0  0
   63.2840   33.8370   47.4730 C   0  0  0  0  0  0  0  0  0  0  0  0
   63.3312   34.9333   47.3960 H   0  0  0  0  0  0  0  0  0  0  0  0
   64.1654   33.3857   46.9940 H   0  0  0  0  0  0  0  0  0  0  0  0
   62.0190   33.3340   46.7620 C   0  0  0  0  0  0  0  0  0  0  0  0
   61.9783   33.7574   45.7475 H   0  0  0  0  0  0  0  0  0  0  0  0
   62.0479   32.2358   46.7064 H   0  0  0  0  0  0  0  0  0  0  0  0
   58.3050   33.1900   44.7900 C   0  0  0  0  0  0  0  0  0  0  0  0
   58.1139   34.2472   44.5536 H   0  0  0  0  0  0  0  0  0  0  0  0
   57.8300   32.2180   43.9650 N   0  0  0  0  0  0  0  0  0  0  0  0
   57.2960   32.5220   43.1220 H   0  0  0  0  0  0  0  0  0  0  0  0
   58.0480   30.8910   44.2130 C   0  0  0  0  0  0  0  0  0  0  0  0
   57.5320   29.8960   43.3680 O   0  0  0  0  0  0  0  0  0  0  0  0
   56.3020   30.0000   42.6610 C   0  0  0  0  0  0  0  0  0  0  0  0
   55.4714   30.0702   43.3787 H   0  0  0  0  0  0  0  0  0  0  0  0
   56.3174   30.9000   42.0288 H   0  0  0  0  0  0  0  0  0  0  0  0
   56.1661   29.1101   42.0288 H   0  0  0  0  0  0  0  0  0  0  0  0
   58.7990   30.5110   45.3390 C   0  0  0  0  0  0  0  0  0  0  0  0
   59.1130   29.0850   45.5980 C   0  0  0  0  0  0  0  0  0  0  0  0
   60.4610   28.7190   45.7590 C   0  0  0  0  0  0  0  0  0  0  0  0
   61.2477   29.4811   45.6573 H   0  0  0  0  0  0  0  0  0  0  0  0
   60.8110   27.4010   46.0460 C   0  0  0  0  0  0  0  0  0  0  0  0
   61.8702   27.1295   46.1658 H   0  0  0  0  0  0  0  0  0  0  0  0
   59.8250   26.4250   46.1820 C   0  0  0  0  0  0  0  0  0  0  0  0
   60.1087   25.3888   46.4181 H   0  0  0  0  0  0  0  0  0  0  0  0
   58.4730   26.7590   46.0190 C   0  0  0  0  0  0  0  0  0  0  0  0
   57.4850   25.7730   46.1430 C   0  0  0  0  0  0  0  0  0  0  0  0
   57.7666   24.7357   46.3769 H   0  0  0  0  0  0  0  0  0  0  0  0
   56.1300   26.1150   45.9670 C   0  0  0  0  0  0  0  0  0  0  0  0
   55.1630   25.2450   46.0680 N   0  0  0  0  0  0  0  0  0  0  0  0
   54.8320   24.1750   45.1720 C   0  0  0  0  0  0  0  0  0  0  0  0
   53.6180   23.8640   45.0270 O   0  0  0  0  0  0  0  0  0  0  0  0
   55.9190   23.3550   44.5090 C   0  0  0  0  0  0  0  0  0  0  0  0
   56.1547   22.7643   45.4065 H   0  0  0  0  0  0  0  0  0  0  0  0
   56.7190   24.0950   43.4450 C   0  0  0  0  0  0  0  0  0  0  0  0
   56.5057   25.1532   43.2334 H   0  0  0  0  0  0  0  0  0  0  0  0
   57.7886   24.2735   43.2602 H   0  0  0  0  0  0  0  0  0  0  0  0
   55.7210   23.0210   43.0360 C   0  0  0  0  0  0  0  0  0  0  0  0
   54.7865   23.3031   42.5289 H   0  0  0  0  0  0  0  0  0  0  0  0
   55.7707   22.1021   42.4334 H   0  0  0  0  0  0  0  0  0  0  0  0
   55.8120   27.3940   45.6340 N   0  0  0  0  0  0  0  0  0  0  0  0
   56.7430   28.3730   45.5050 C   0  0  0  0  0  0  0  0  0  0  0  0
   56.4301   29.3927   45.2361 H   0  0  0  0  0  0  0  0  0  0  0  0
   58.1060   28.0920   45.7130 C   0  0  0  0  0  0  0  0  0  0  0  0
  1  2  1  0
  2  3  2  0
  3  4  1  0
  4  5  2  0
  4  6  1  0
  6  7  1  0
  7  8  1  0
  7  9  1  0
  7 10  1  0
 10 11  1  0
 10 12  1  0
 10 13  1  0
 13 14  1  0
 14 15  1  0
 14 16  1  0
 14 17  1  0
 17 18  1  0
 17 19  1  0
  3 20  1  0
 20 21  1  0
 20 22  2  0
 22 23  1  0
 22 24  1  0
 24 25  1  0
 25 26  1  0
 26 27  1  0
 26 28  1  0
 26 29  1  0
 24 30  2  0
 30 31  1  0
 31 32  2  0
 32 33  1  0
 32 34  1  0
 34 35  1  0
 34 36  2  0
 36 37  1  0
 36 38  1  0
 38 39  2  0
 39 40  1  0
 39 41  1  0
 41 42  2  0
 42 43  1  0
 43 44  2  0
 43 45  1  0
 45 46  1  0
 45 47  1  0
 47 48  1  0
 47 49  1  0
 47 50  1  0
 50 51  1  0
 50 52  1  0
 41 53  1  0
 53 54  1  0
 54 55  1  0
 54 56  2  0
 30  2  1  0
 56 31  1  0
 17  6  1  0
 56 38  1  0
 50 45  1  0
M  CHG  2  22   1  53  -1
M  END
>  <UniqueID>  (16) 
16

>  <SMILES>  (16) 
COc1[nH+]cc(C(=O)N2CCOCC2)cc1-c1cccc2c/c(=N\C(=O)C3CC3)[n-]cc12

>  <Energy>  (16) 
352.90119849300316

>  <Genealogy>  (16) 
COc1[nH+]cc(C(=O)N2CCOCC2)cc1-c1cccc2cc(=NC(=O)C3CC3)[n-]cc12 (protonated)
COc1[nH+]cc(C(=O)N2CCOCC2)cc1-c1cccc2c/c(=N\C(=O)C3CC3)[n-]cc12 (cis-trans isomerization)
COc1[nH+]cc(C(=O)N2CCOCC2)cc1-c1cccc2c/c(=N\C(=O)C3CC3)[n-]cc12 (3D coordinates assigned)
COc1[nH+]cc(C(=O)N2CCOCC2)cc1-c1cccc2c/c(=N\C(=O)C3CC3)[n-]cc12 (nonaromatic ring conformer: 352.90119849300316 kcal/mol)

>  <smiles>  (16) 
COc1ncc(C(=O)N2CCOCC2)cc1-c1cccc2cc(=NC(=O)C3CC3)[nH]cc12

>  <score_type>  (16) 
oracle

>  <origin>  (16) 
adg

>  <m_score__min__energy>  (16) 
-10.199999999999999

>  <m_primary>  (16) 
energy

$$$$
16:0
     RDKit          3D

 49 52  0  0  0  0  0  0  0  0999 V2000
   61.0040   30.3350   46.1710 O   0  0  0  0  0  0  0  0  0  0  0  0
   59.8060   30.5980   46.4590 C   0  0  0  0  0  0  0  0  0  0  0  0
   58.8440   30.7200   45.3430 C   0  0  0  0  0  0  0  0  0  0  0  0
   58.3790   29.7000   44.6100 C   0  0  0  0  0  0  0  0  0  0  0  0
   58.2600   28.3060   45.0890 C   0  0  0  0  0  0  0  0  0  0  0  0
   59.4040   27.5000   45.1690 C   0  0  0  0  0  0  0  0  0  0  0  0
   60.6520   28.0200   44.8330 O   0  0  0  0  0  0  0  0  0  0  0  0
   59.3160   26.2430   45.5860 O   0  0  0  0  0  0  0  0  0  0  0  0
   58.1600   25.6670   45.9010 C   0  0  0  0  0  0  0  0  0  0  0  0
   58.1560   24.3400   46.3410 C   0  0  0  0  0  0  0  0  0  0  0  0
   56.9510   23.7030   46.6390 C   0  0  0  0  0  0  0  0  0  0  0  0
   55.7420   24.3810   46.4810 C   0  0  0  0  0  0  0  0  0  0  0  0
   55.7270   25.7090   46.0420 C   0  0  0  0  0  0  0  0  0  0  0  0
   54.4980   26.3380   45.8630 O   0  0  0  0  0  0  0  0  0  0  0  0
   56.9440   26.3790   45.7780 C   0  0  0  0  0  0  0  0  0  0  0  0
   57.0090   27.7290   45.3740 C   0  0  0  0  0  0  0  0  0  0  0  0
   55.9580   28.4150   45.2480 O   0  0  0  0  0  0  0  0  0  0  0  0
   59.3960   30.6650   47.8470 N   0  0  0  0  0  0  0  0  0  0  0  0
   58.8260   31.9140   48.3830 C   0  0  0  0  0  0  0  0  0  0  0  0
   58.8240   33.0160   47.3530 C   0  0  0  0  0  0  0  0  0  0  0  0
   59.9850   33.7760   47.1210 C   0  0  0  0  0  0  0  0  0  0  0  0
   60.0000   34.7590   46.1280 C   0  0  0  0  0  0  0  0  0  0  0  0
   58.8620   34.9860   45.3500 C   0  0  0  0  0  0  0  0  0  0  0  0
   57.7040   34.2370   45.5720 C   0  0  0  0  0  0  0  0  0  0  0  0
   57.6830   33.2580   46.5700 C   0  0  0  0  0  0  0  0  0  0  0  0
   59.8460   29.6660   48.7870 C   0  0  0  0  0  0  0  0  0  0  0  0
   60.1950   30.0270   50.1000 C   0  0  0  0  0  0  0  0  0  0  0  0
   60.6480   29.0630   51.0040 C   0  0  0  0  0  0  0  0  0  0  0  0
   60.7660   27.7300   50.6050 C   0  0  0  0  0  0  0  0  0  0  0  0
   61.2020   26.7950   51.4850 F   0  0  0  0  0  0  0  0  0  0  0  0
   60.4330   27.3590   49.3000 C   0  0  0  0  0  0  0  0  0  0  0  0
   59.9810   28.3220   48.3920 C   0  0  0  0  0  0  0  0  0  0  0  0
   58.4814   31.7285   45.0950 H   0  0  0  0  0  0  0  0  0  0  0  0
   58.0632   29.9145   43.5784 H   0  0  0  0  0  0  0  0  0  0  0  0
   61.0210   28.8320   45.3130 H   0  0  0  0  0  0  0  0  0  0  0  0
   59.1058   23.7965   46.4526 H   0  0  0  0  0  0  0  0  0  0  0  0
   56.9542   22.6637   46.9994 H   0  0  0  0  0  0  0  0  0  0  0  0
   54.7946   23.8680   46.7030 H   0  0  0  0  0  0  0  0  0  0  0  0
   57.7910   31.7243   48.7035 H   0  0  0  0  0  0  0  0  0  0  0  0
   59.4488   32.2384   49.2297 H   0  0  0  0  0  0  0  0  0  0  0  0
   60.8864   33.5953   47.7250 H   0  0  0  0  0  0  0  0  0  0  0  0
   60.9090   35.3549   45.9586 H   0  0  0  0  0  0  0  0  0  0  0  0
   58.8779   35.7543   44.5629 H   0  0  0  0  0  0  0  0  0  0  0  0
   56.8074   34.4176   44.9608 H   0  0  0  0  0  0  0  0  0  0  0  0
   56.7673   32.6736   46.7432 H   0  0  0  0  0  0  0  0  0  0  0  0
   60.1108   31.0766   50.4181 H   0  0  0  0  0  0  0  0  0  0  0  0
   60.9120   29.3544   52.0313 H   0  0  0  0  0  0  0  0  0  0  0  0
   60.5263   26.3088   48.9864 H   0  0  0  0  0  0  0  0  0  0  0  0
   59.7294   28.0270   47.3626 H   0  0  0  0  0  0  0  0  0  0  0  0
  1  2  2  0
  2  3  1  0
  3  4  2  3
  4  5  1  0
  5  6  2  0
  6  7  1  0
  6  8  1  0
  8  9  1  0
  9 10  2  0
 10 11  1  0
 11 12  2  0
 12 13  1  0
 13 14  1  0
 13 15  2  0
 15 16  1  0
 16 17  2  0
  2 18  1  0
 18 19  1  0
 19 20  1  0
 20 21  2  0
 21 22  1  0
 22 23  2  0
 23 24  1  0
 24 25  2  0
 18 26  1  0
 26 27  2  0
 27 28  1  0
 28 29  2  0
 29 30  1  0
 29 31  1  0
 31 32  2  0
 16  5  1  0
 25 20  1  0
 32 26  1  0
 15  9  1  0
  3 33  1  0
  4 34  1  0
  7 35  1  0
 10 36  1  0
 11 37  1  0
 12 38  1  0
 19 39  1  0
 19 40  1  0
 21 41  1  0
 22 42  1  0
 23 43  1  0
 24 44  1  0
 25 45  1  0
 27 46  1  0
 28 47  1  0
 31 48  1  0
 32 49  1  0
M  CHG  1  14  -1
M  END
>  <UniqueID>  (17) 
17

>  <SMILES>  (17) 
O=C(C=Cc1c(O)oc2cccc([O-])c2c1=O)N(Cc1ccccc1)c1ccc(F)cc1

>  <Energy>  (17) 
71.79796421534397

>  <Genealogy>  (17) 
O=C(C=Cc1c(O)oc2cccc([O-])c2c1=O)N(Cc1ccccc1)c1ccc(F)cc1 (protonated)
O=C(C=Cc1c(O)oc2cccc([O-])c2c1=O)N(Cc1ccccc1)c1ccc(F)cc1 (3D coordinates assigned)
O=C(C=Cc1c(O)oc2cccc([O-])c2c1=O)N(Cc1ccccc1)c1ccc(F)cc1 (optimized conformer: 71.79796421534397 kcal/mol)

>  <smiles>  (17) 
O=C(C=Cc1c(O)oc2cccc(O)c2c1=O)N(Cc1ccccc1)c1ccc(F)cc1

>  <score_type>  (17) 
oracle

>  <origin>  (17) 
adg

>  <m_score__min__energy>  (17) 
-12.93

>  <m_primary>  (17) 
energy

$$$$
17:0
     RDKit          3D

 47 49  0  0  0  0  0  0  0  0999 V2000
   63.7980   31.5460   48.7100 H   0  0  0  0  0  0  0  0  0  0  0  0
   63.1800   31.3140   49.4510 O   0  0  0  0  0  0  0  0  0  0  0  0
   63.7030   31.9250   50.5980 C   0  0  0  0  0  0  0  0  0  0  0  0
   62.8893   32.1244   51.3109 H   0  0  0  0  0  0  0  0  0  0  0  0
   64.1873   32.8729   50.3207 H   0  0  0  0  0  0  0  0  0  0  0  0
   64.7320   30.9960   51.2450 C   0  0  0  0  0  0  0  0  0  0  0  0
   65.2534   31.5446   52.0432 H   0  0  0  0  0  0  0  0  0  0  0  0
   65.4334   30.6689   50.4633 H   0  0  0  0  0  0  0  0  0  0  0  0
   64.0780   29.7450   51.8490 C   0  0  0  0  0  0  0  0  0  0  0  0
   64.3951   29.6478   52.8978 H   0  0  0  0  0  0  0  0  0  0  0  0
   64.3959   28.8726   51.2592 H   0  0  0  0  0  0  0  0  0  0  0  0
   62.6170   29.8220   51.8000 N   0  0  0  0  0  0  0  0  0  0  0  0
   62.1600   30.5360   51.1890 H   0  0  0  0  0  0  0  0  0  0  0  0
   61.7980   28.8820   52.5120 C   0  0  0  0  0  0  0  0  0  0  0  0
   62.3350   27.8760   53.0540 O   0  0  0  0  0  0  0  0  0  0  0  0
   60.3300   29.0620   52.6100 C   0  0  0  0  0  0  0  0  0  0  0  0
   59.6570   28.8980   53.8350 C   0  0  0  0  0  0  0  0  0  0  0  0
   60.2252   28.6359   54.7396 H   0  0  0  0  0  0  0  0  0  0  0  0
   58.2710   29.0660   53.9100 C   0  0  0  0  0  0  0  0  0  0  0  0
   57.7563   28.9408   54.8740 H   0  0  0  0  0  0  0  0  0  0  0  0
   57.5340   29.3930   52.7640 C   0  0  0  0  0  0  0  0  0  0  0  0
   56.1080   29.5700   52.8470 N   0  0  0  0  0  0  0  0  0  0  0  0
   55.2220   28.6490   53.2900 C   0  0  0  0  0  0  0  0  0  0  0  0
   55.5750   27.2720   53.7650 C   0  0  0  0  0  0  0  0  0  0  0  0
   55.5797   27.2535   54.8648 H   0  0  0  0  0  0  0  0  0  0  0  0
   54.8322   26.5529   53.3894 H   0  0  0  0  0  0  0  0  0  0  0  0
   56.5722   26.9990   53.3894 H   0  0  0  0  0  0  0  0  0  0  0  0
   53.9440   29.1660   53.2720 C   0  0  0  0  0  0  0  0  0  0  0  0
   53.0277   28.6590   53.6086 H   0  0  0  0  0  0  0  0  0  0  0  0
   54.0340   30.4460   52.7490 C   0  0  0  0  0  0  0  0  0  0  0  0
   52.9530   31.2150   52.5120 C   0  0  0  0  0  0  0  0  0  0  0  0
   52.5718   31.8187   53.3488 H   0  0  0  0  0  0  0  0  0  0  0  0
   52.2390   31.3160   51.2290 C   0  0  0  0  0  0  0  0  0  0  0  0
   52.2320   30.3640   50.2770 N   0  0  0  0  0  0  0  0  0  0  0  0
   51.3470   30.8360   49.3710 C   0  0  0  0  0  0  0  0  0  0  0  0
   51.0740   30.2220   48.3070 O   0  0  0  0  0  0  0  0  0  0  0  0
   50.7700   32.0110   49.7020 N   0  0  0  0  0  0  0  0  0  0  0  0
   51.3350   32.2920   50.8870 C   0  0  0  0  0  0  0  0  0  0  0  0
   51.0280   33.4160   51.6430 O   0  0  0  0  0  0  0  0  0  0  0  0
   55.4010   30.6890   52.5400 C   0  0  0  0  0  0  0  0  0  0  0  0
   55.9790   31.8680   52.2610 C   0  0  0  0  0  0  0  0  0  0  0  0
   57.0681   31.9265   52.1184 H   0  0  0  0  0  0  0  0  0  0  0  0
   55.3635   32.7756   52.1750 H   0  0  0  0  0  0  0  0  0  0  0  0
   58.1970   29.5460   51.5390 C   0  0  0  0  0  0  0  0  0  0  0  0
   57.6245   29.7995   50.6346 H   0  0  0  0  0  0  0  0  0  0  0  0
   59.5820   29.3780   51.4610 C   0  0  0  0  0  0  0  0  0  0  0  0
   60.0918   29.4938   50.4932 H   0  0  0  0  0  0  0  0  0  0  0  0
  1  2  1  0
  2  3  1  0
  3  4  1  0
  3  5  1  0
  3  6  1  0
  6  7  1  0
  6  8  1  0
  6  9  1  0
  9 10  1  0
  9 11  1  0
  9 12  1  0
 12 13  1  0
 12 14  1  0
 14 15  2  0
 14 16  1  0
 16 17  2  0
 17 18  1  0
 17 19  1  0
 19 20  1  0
 19 21  2  0
 21 22  1  0
 22 23  1  0
 23 24  1  0
 24 25  1  0
 24 26  1  0
 24 27  1  0
 23 28  2  0
 28 29  1  0
 28 30  1  0
 30 31  2  0
 31 32  1  0
 31 33  1  0
 33 34  1  0
 34 35  1  0
 35 36  2  0
 35 37  1  0
 37 38  1  0
 38 39  1  0
 30 40  1  0
 40 41  2  0
 41 42  1  0
 41 43  1  0
 21 44  1  0
 44 45  1  0
 44 46  2  0
 46 47  1  0
 46 16  1  0
 40 22  1  0
 38 33  2  0
M  CHG  3  34  -1  37  -1  39  -1
M  END
>  <UniqueID>  (18) 
18

>  <SMILES>  (18) 
C=c1/c(=C\c2[n-]c(=O)[n-]c2[O-])cc(C)n1-c1ccc(C(=O)NCCCO)cc1

>  <Energy>  (18) 
119.45024269569618

>  <Genealogy>  (18) 
C=c1c(=Cc2[n-]c(=O)[n-]c2[O-])cc(C)n1-c1ccc(C(=O)NCCCO)cc1 (protonated)
C=c1/c(=C\c2[n-]c(=O)[n-]c2[O-])cc(C)n1-c1ccc(C(=O)NCCCO)cc1 (cis-trans isomerization)
C=c1/c(=C\c2[n-]c(=O)[n-]c2[O-])cc(C)n1-c1ccc(C(=O)NCCCO)cc1 (3D coordinates assigned)
C=c1/c(=C\c2[n-]c(=O)[n-]c2[O-])cc(C)n1-c1ccc(C(=O)NCCCO)cc1 (optimized conformer: 119.45024269569618 kcal/mol)

>  <smiles>  (18) 
C=c1c(=Cc2[nH]c(=O)[nH]c2O)cc(C)n1-c1ccc(C(=O)NCCCO)cc1

>  <score_type>  (18) 
oracle

>  <origin>  (18) 
adg

>  <m_score__min__energy>  (18) 
-14.380000000000001

>  <m_primary>  (18) 
energy

$$$$
18:0
     RDKit          3D

 59 62  0  0  1  0  0  0  0  0999 V2000
   56.2230   25.7190   45.8190 C   0  0  0  0  0  0  0  0  0  0  0  0
   56.4570   27.1040   46.0300 O   0  0  0  0  0  0  0  0  0  0  0  0
   57.7690   27.5570   46.2570 C   0  0  0  0  0  0  0  0  0  0  0  0
   58.4900   27.1040   47.3350 C   0  0  0  0  0  0  0  0  0  0  0  0
   59.7540   27.5710   47.5150 C   0  0  0  0  0  0  0  0  0  0  0  0
   60.3460   28.4850   46.6600 C   0  0  0  0  0  0  0  0  0  0  0  0
   59.5690   28.9120   45.5820 C   0  0  0  0  0  0  0  0  0  0  0  0
   58.2820   28.4630   45.3610 C   0  0  0  0  0  0  0  0  0  0  0  0
   57.5410   28.9610   44.2010 C   0  0  0  0  0  0  0  0  0  0  0  0
   56.3330   29.7910   44.5810 C   0  0  0  0  0  0  0  0  0  0  0  0
   56.6040   31.2060   44.4740 N   0  0  0  0  0  0  0  0  0  0  0  0
   57.4090   31.8720   45.2160 C   0  0  0  0  0  0  0  0  0  0  0  0
   57.8360   31.3440   46.3860 N   0  0  0  0  0  0  0  0  0  0  0  0
   58.6910   32.0770   47.1220 C   0  0  0  0  0  0  0  0  0  0  0  0
   59.1450   33.3230   46.7450 C   0  0  0  0  0  0  0  0  0  0  0  0
   60.0650   34.0500   47.5810 C   0  0  0  0  0  0  0  0  0  0  0  0
   60.0050   35.3230   47.5010 O   0  0  0  0  0  0  0  0  0  0  0  0
   61.0490   33.5220   48.4960 C   0  0  0  0  0  0  0  0  0  0  0  0
   62.3460   33.3930   48.0080 C   0  0  0  0  0  0  0  0  0  0  0  0
   62.7040   33.8240   46.3360 Cl  0  0  0  0  0  0  0  0  0  0  0  0
   63.4040   32.9320   48.7580 C   0  0  0  0  0  0  0  0  0  0  0  0
   63.1420   32.5840   50.0610 C   0  0  0  0  0  0  0  0  0  0  0  0
   61.8720   32.7030   50.5720 C   0  0  0  0  0  0  0  0  0  0  0  0
   60.8110   33.1730   49.8010 C   0  0  0  0  0  0  0  0  0  0  0  0
   59.5390   33.3010   50.4780 C   0  0  0  0  0  0  0  0  0  0  0  0
   59.2650   34.3110   51.1780 O   0  0  0  0  0  0  0  0  0  0  0  0
   58.5910   32.2880   50.3510 N   0  0  0  0  0  0  0  0  0  0  0  0
   58.0800   31.4560   51.1270 C   0  0  0  0  0  0  0  0  0  0  0  0
   58.7730   30.3090   51.5080 C   0  0  0  0  0  0  0  0  0  0  0  0
   58.2200   29.3800   52.3620 C   0  0  0  0  0  0  0  0  0  0  0  0
   56.9670   29.5760   52.8560 N   0  0  0  0  0  0  0  0  0  0  0  0
   56.2650   30.6730   52.5120 C   0  0  0  0  0  0  0  0  0  0  0  0
   56.8090   31.6080   51.6570 C   0  0  0  0  0  0  0  0  0  0  0  0
   58.6750   33.8130   45.5420 C   0  0  0  0  0  0  0  0  0  0  0  0
   59.0360   34.9830   45.1240 N   0  0  0  0  0  0  0  0  0  0  0  0
   57.8210   33.0960   44.7930 N   0  0  0  0  0  0  0  0  0  0  0  0
   56.1369   25.2096   46.7901 H   0  0  0  0  0  0  0  0  0  0  0  0
   55.2898   25.5870   45.2517 H   0  0  0  0  0  0  0  0  0  0  0  0
   57.0610   25.2878   45.2517 H   0  0  0  0  0  0  0  0  0  0  0  0
   58.0538   26.3788   48.0377 H   0  0  0  0  0  0  0  0  0  0  0  0
   60.3315   27.2068   48.3775 H   0  0  0  0  0  0  0  0  0  0  0  0
   61.3699   28.8535   46.8210 H   0  0  0  0  0  0  0  0  0  0  0  0
   60.0008   29.6381   44.8775 H   0  0  0  0  0  0  0  0  0  0  0  0
   58.2162   29.5824   43.5944 H   0  0  0  0  0  0  0  0  0  0  0  0
   57.1760   28.0856   43.6438 H   0  0  0  0  0  0  0  0  0  0  0  0
   55.4993   29.5356   43.9103 H   0  0  0  0  0  0  0  0  0  0  0  0
   56.0782   29.5680   45.6276 H   0  0  0  0  0  0  0  0  0  0  0  0
   57.4860   30.4110   46.6540 H   0  0  0  0  0  0  0  0  0  0  0  0
   59.0469   31.6599   48.0756 H   0  0  0  0  0  0  0  0  0  0  0  0
   64.4149   32.8460   48.3329 H   0  0  0  0  0  0  0  0  0  0  0  0
   63.9546   32.2075   50.6997 H   0  0  0  0  0  0  0  0  0  0  0  0
   61.6880   32.4193   51.6187 H   0  0  0  0  0  0  0  0  0  0  0  0
   59.7874   30.1409   51.1171 H   0  0  0  0  0  0  0  0  0  0  0  0
   58.7897   28.4822   52.6439 H   0  0  0  0  0  0  0  0  0  0  0  0
   56.5850   28.8530   53.4980 H   0  0  0  0  0  0  0  0  0  0  0  0
   55.2527   30.8236   52.9152 H   0  0  0  0  0  0  0  0  0  0  0  0
   56.2191   32.4969   51.3890 H   0  0  0  0  0  0  0  0  0  0  0  0
   59.4020   35.7250   45.7170 H   0  0  0  0  0  0  0  0  0  0  0  0
   57.4540   33.4310   43.8930 H   0  0  0  0  0  0  0  0  0  0  0  0
  1  2  1  0
  2  3  1  0
  3  4  2  0
  4  5  1  0
  5  6  2  0
  6  7  1  0
  7  8  2  0
  8  9  1  0
  9 10  1  0
 10 11  1  0
 11 12  2  0
 12 13  1  0
 13 14  1  0
 14 15  2  0
 15 16  1  0
 16 17  2  0
 16 18  1  0
 18 19  2  0
 19 20  1  0
 19 21  1  0
 21 22  2  0
 22 23  1  0
 23 24  2  0
 24 25  1  0
 25 26  2  0
 25 27  1  0
 27 28  2  3
 28 29  1  0
 29 30  2  0
 30 31  1  0
 31 32  1  0
 32 33  2  0
 15 34  1  0
 34 35  2  3
 34 36  1  0
  8  3  1  0
 36 12  1  0
 24 18  1  0
 33 28  1  0
  1 37  1  0
  1 38  1  0
  1 39  1  0
  4 40  1  0
  5 41  1  0
  6 42  1  0
  7 43  1  0
  9 44  1  0
  9 45  1  0
 10 46  1  0
 10 47  1  0
 13 48  1  0
 14 49  1  0
 21 50  1  0
 22 51  1  0
 23 52  1  0
 29 53  1  0
 30 54  1  0
 31 55  1  0
 32 56  1  0
 33 57  1  0
 35 58  1  0
 36 59  1  0
M  END
>  <smiles>  (19) 
COc1ccccc1CCN=c1[nH]cc(C(=O)c2c(Cl)cccc2C(=O)N=c2cc[nH]cc2)c(=N)[nH]1

>  <score_type>  (19) 
oracle

>  <origin>  (19) 
adg

>  <m_score__min__energy>  (19) 
-10.1

>  <m_primary>  (19) 
energy

$$$$
19:0
     RDKit          3D

 45 47  0  0  0  0  0  0  0  0999 V2000
   65.3870   33.0340   49.7150 C   0  0  0  0  0  0  0  0  0  0  0  0
   64.1170   32.2470   49.5550 C   0  0  0  0  0  0  0  0  0  0  0  0
   63.7170   31.3510   50.5600 C   0  0  0  0  0  0  0  0  0  0  0  0
   62.5420   30.6080   50.4210 C   0  0  0  0  0  0  0  0  0  0  0  0
   61.7510   30.7480   49.2750 C   0  0  0  0  0  0  0  0  0  0  0  0
   60.2920   29.7830   49.0810 S   0  0  0  0  0  0  0  0  0  0  0  0
   60.6640   28.4120   48.5870 O   0  0  0  0  0  0  0  0  0  0  0  0
   59.6000   29.6280   50.4070 O   0  0  0  0  0  0  0  0  0  0  0  0
   59.2140   30.5520   47.9550 N   0  0  0  0  0  0  0  0  0  0  0  0
   58.4230   31.7080   48.3910 C   0  0  0  0  0  0  0  0  0  0  0  0
   58.8160   32.9500   47.6270 C   0  0  0  0  0  0  0  0  0  0  0  0
   59.8420   33.7830   48.1110 C   0  0  0  0  0  0  0  0  0  0  0  0
   60.4600   33.5090   49.2860 F   0  0  0  0  0  0  0  0  0  0  0  0
   60.2380   34.9090   47.3830 C   0  0  0  0  0  0  0  0  0  0  0  0
   59.6220   35.2130   46.1680 C   0  0  0  0  0  0  0  0  0  0  0  0
   58.6060   34.3920   45.6750 C   0  0  0  0  0  0  0  0  0  0  0  0
   58.0140   34.6900   44.4920 F   0  0  0  0  0  0  0  0  0  0  0  0
   58.2020   33.2640   46.3970 C   0  0  0  0  0  0  0  0  0  0  0  0
   57.2150   32.4790   45.8940 F   0  0  0  0  0  0  0  0  0  0  0  0
   59.0030   29.9590   46.6620 C   0  0  0  0  0  0  0  0  0  0  0  0
   60.0850   29.4220   45.9540 C   0  0  0  0  0  0  0  0  0  0  0  0
   59.8900   28.8680   44.6870 C   0  0  0  0  0  0  0  0  0  0  0  0
   58.6140   28.8490   44.1170 C   0  0  0  0  0  0  0  0  0  0  0  0
   57.5160   29.3830   44.8130 C   0  0  0  0  0  0  0  0  0  0  0  0
   56.1670   29.3640   44.2070 C   0  0  0  0  0  0  0  0  0  0  0  0
   55.1700   28.9770   44.8730 O   0  0  0  0  0  0  0  0  0  0  0  0
   55.9800   29.7740   42.8910 O   0  0  0  0  0  0  0  0  0  0  0  0
   57.7210   29.9370   46.0910 C   0  0  0  0  0  0  0  0  0  0  0  0
   62.1420   31.6420   48.2690 C   0  0  0  0  0  0  0  0  0  0  0  0
   63.3190   32.3880   48.4020 C   0  0  0  0  0  0  0  0  0  0  0  0
   63.7700   33.4860   47.1010 Cl  0  0  0  0  0  0  0  0  0  0  0  0
   65.6030   33.1679   50.7852 H   0  0  0  0  0  0  0  0  0  0  0  0
   66.2169   32.4917   49.2384 H   0  0  0  0  0  0  0  0  0  0  0  0
   65.2707   34.0186   49.2384 H   0  0  0  0  0  0  0  0  0  0  0  0
   64.3335   31.2334   51.4634 H   0  0  0  0  0  0  0  0  0  0  0  0
   62.2375   29.9105   51.2152 H   0  0  0  0  0  0  0  0  0  0  0  0
   57.3568   31.5008   48.2173 H   0  0  0  0  0  0  0  0  0  0  0  0
   58.6121   31.8794   49.4610 H   0  0  0  0  0  0  0  0  0  0  0  0
   61.0380   35.5577   47.7692 H   0  0  0  0  0  0  0  0  0  0  0  0
   59.9371   36.0998   45.5986 H   0  0  0  0  0  0  0  0  0  0  0  0
   61.0917   29.4365   46.3971 H   0  0  0  0  0  0  0  0  0  0  0  0
   60.7431   28.4454   44.1360 H   0  0  0  0  0  0  0  0  0  0  0  0
   58.4682   28.4134   43.1175 H   0  0  0  0  0  0  0  0  0  0  0  0
   56.8692   30.3561   46.6467 H   0  0  0  0  0  0  0  0  0  0  0  0
   61.5200   31.7582   47.3692 H   0  0  0  0  0  0  0  0  0  0  0  0
  1  2  1  0
  2  3  2  0
  3  4  1  0
  4  5  2  0
  5  6  1  0
  6  7  2  0
  6  8  2  0
  6  9  1  0
  9 10  1  0
 10 11  1  0
 11 12  2  0
 12 13  1  0
 12 14  1  0
 14 15  2  0
 15 16  1  0
 16 17  1  0
 16 18  2  0
 18 19  1  0
  9 20  1  0
 20 21  2  0
 21 22  1  0
 22 23  2  0
 23 24  1  0
 24 25  1  0
 25 26  2  0
 25 27  1  0
 24 28  2  0
  5 29  1  0
 29 30  2  0
 30 31  1  0
 30  2  1  0
 18 11  1  0
 28 20  1  0
  1 32  1  0
  1 33  1  0
  1 34  1  0
  3 35  1  0
  4 36  1  0
 10 37  1  0
 10 38  1  0
 14 39  1  0
 15 40  1  0
 21 41  1  0
 22 42  1  0
 23 43  1  0
 28 44  1  0
 29 45  1  0
M  CHG  1  27  -1
M  END
>  <UniqueID>  (20) 
19

>  <SMILES>  (20) 
Cc1ccc(S(=O)(=O)N(Cc2c(F)ccc(F)c2F)c2cccc(C(=O)[O-])c2)cc1Cl

>  <Energy>  (20) 
52.80698354028342

>  <Genealogy>  (20) 
Cc1ccc(S(=O)(=O)N(Cc2c(F)ccc(F)c2F)c2cccc(C(=O)[O-])c2)cc1Cl (protonated)
Cc1ccc(S(=O)(=O)N(Cc2c(F)ccc(F)c2F)c2cccc(C(=O)[O-])c2)cc1Cl (3D coordinates assigned)
Cc1ccc(S(=O)(=O)N(Cc2c(F)ccc(F)c2F)c2cccc(C(=O)[O-])c2)cc1Cl (optimized conformer: 52.80698354028342 kcal/mol)

>  <smiles>  (20) 
Cc1ccc(S(=O)(=O)N(Cc2c(F)ccc(F)c2F)c2cccc(C(=O)O)c2)cc1Cl

>  <score_type>  (20) 
oracle

>  <origin>  (20) 
adg

>  <m_score__min__energy>  (20) 
-11.74

>  <m_primary>  (20) 
energy

$$$$
20:0
     RDKit          3D

 41 44  0  0  0  0  0  0  0  0999 V2000
   59.7060   30.3337   47.8514 H   0  0  0  0  0  0  0  0  0  0  0  0
   59.2560   29.9750   46.9140 C   0  0  0  0  0  0  0  0  0  0  0  0
   59.3304   28.9124   46.6395 H   0  0  0  0  0  0  0  0  0  0  0  0
   58.6160   30.8340   46.1050 C   0  0  0  0  0  0  0  0  0  0  0  0
   57.9990   30.5230   44.8890 C   0  0  0  0  0  0  0  0  0  0  0  0
   57.9240   29.3170   44.2930 C   0  0  0  0  0  0  0  0  0  0  0  0
   58.2837   29.2243   43.2576 H   0  0  0  0  0  0  0  0  0  0  0  0
   57.3830   28.1100   44.9580 C   0  0  0  0  0  0  0  0  0  0  0  0
   56.0150   28.0250   45.2520 C   0  0  0  0  0  0  0  0  0  0  0  0
   55.1470   29.0510   44.8920 O   0  0  0  0  0  0  0  0  0  0  0  0
   55.5220   26.9280   45.8840 N   0  0  0  0  0  0  0  0  0  0  0  0
   56.3370   25.9080   46.2540 C   0  0  0  0  0  0  0  0  0  0  0  0
   55.8580   24.9000   46.8340 O   0  0  0  0  0  0  0  0  0  0  0  0
   57.6700   25.9780   46.0060 N   0  0  0  0  0  0  0  0  0  0  0  0
   58.2110   27.0530   45.3780 C   0  0  0  0  0  0  0  0  0  0  0  0
   59.4580   27.0980   45.1970 O   0  0  0  0  0  0  0  0  0  0  0  0
   57.4250   31.7010   44.4290 C   0  0  0  0  0  0  0  0  0  0  0  0
   56.8437   31.8314   43.5043 H   0  0  0  0  0  0  0  0  0  0  0  0
   57.7260   32.6760   45.3580 C   0  0  0  0  0  0  0  0  0  0  0  0
   57.2900   34.1070   45.2560 C   0  0  0  0  0  0  0  0  0  0  0  0
   57.1628   34.5244   46.2657 H   0  0  0  0  0  0  0  0  0  0  0  0
   58.0528   34.6850   44.7137 H   0  0  0  0  0  0  0  0  0  0  0  0
   56.3345   34.1614   44.7137 H   0  0  0  0  0  0  0  0  0  0  0  0
   58.4440   32.1540   46.3780 N   0  0  0  0  0  0  0  0  0  0  0  0
   58.9400   32.8810   47.5150 C   0  0  0  0  0  0  0  0  0  0  0  0
   59.7910   33.9760   47.4000 C   0  0  0  0  0  0  0  0  0  0  0  0
   60.1627   34.4124   46.4612 H   0  0  0  0  0  0  0  0  0  0  0  0
   60.1490   34.5120   48.9500 S   0  0  0  0  0  0  0  0  0  0  0  0
   59.2380   33.3630   49.7810 C   0  0  0  0  0  0  0  0  0  0  0  0
   59.1300   33.2830   51.2520 C   0  0  0  0  0  0  0  0  0  0  0  0
   58.9890   34.4350   51.9670 N   0  0  0  0  0  0  0  0  0  0  0  0
   58.8830   34.4400   53.3230 C   0  0  0  0  0  0  0  0  0  0  0  0
   58.7690   35.3917   53.8627 H   0  0  0  0  0  0  0  0  0  0  0  0
   58.9190   33.2370   54.0290 C   0  0  0  0  0  0  0  0  0  0  0  0
   58.8355   33.2334   55.1258 H   0  0  0  0  0  0  0  0  0  0  0  0
   59.0620   32.0390   53.3290 C   0  0  0  0  0  0  0  0  0  0  0  0
   59.0904   31.0834   53.8731 H   0  0  0  0  0  0  0  0  0  0  0  0
   59.1690   32.0540   51.9370 C   0  0  0  0  0  0  0  0  0  0  0  0
   59.2829   31.1124   51.3798 H   0  0  0  0  0  0  0  0  0  0  0  0
   58.6330   32.5320   48.8390 C   0  0  0  0  0  0  0  0  0  0  0  0
   57.9807   31.6878   49.1068 H   0  0  0  0  0  0  0  0  0  0  0  0
  1  2  1  0
  2  3  1  0
  2  4  2  0
  4  5  1  0
  5  6  2  0
  6  7  1  0
  6  8  1  0
  8  9  2  0
  9 10  1  0
  9 11  1  0
 11 12  1  0
 12 13  2  0
 12 14  1  0
 14 15  1  0
 15 16  2  0
  5 17  1  0
 17 18  1  0
 17 19  2  0
 19 20  1  0
 20 21  1  0
 20 22  1  0
 20 23  1  0
 19 24  1  0
 24 25  1  0
 25 26  2  0
 26 27  1  0
 26 28  1  0
 28 29  1  0
 29 30  1  0
 30 31  2  0
 31 32  1  0
 32 33  1  0
 32 34  2  0
 34 35  1  0
 34 36  1  0
 36 37  1  0
 36 38  2  0
 38 39  1  0
 29 40  2  0
 40 41  1  0
 24  4  1  0
 40 25  1  0
 15  8  1  0
 38 30  1  0
M  CHG  3  10  -1  11  -1  14  -1
M  END
>  <UniqueID>  (21) 
20

>  <SMILES>  (21) 
C=c1/c(=C/c2c([O-])[n-]c(=O)[n-]c2=O)cc(C)n1-c1csc(-c2ccccn2)c1

>  <Energy>  (21) 
117.98628610225454

>  <Genealogy>  (21) 
C=c1c(=Cc2c([O-])[n-]c(=O)[n-]c2=O)cc(C)n1-c1csc(-c2ccccn2)c1 (protonated)
C=c1/c(=C/c2c([O-])[n-]c(=O)[n-]c2=O)cc(C)n1-c1csc(-c2ccccn2)c1 (cis-trans isomerization)
C=c1/c(=C/c2c([O-])[n-]c(=O)[n-]c2=O)cc(C)n1-c1csc(-c2ccccn2)c1 (3D coordinates assigned)
C=c1/c(=C/c2c([O-])[n-]c(=O)[n-]c2=O)cc(C)n1-c1csc(-c2ccccn2)c1 (optimized conformer: 117.98628610225454 kcal/mol)

>  <smiles>  (21) 
C=c1c(=Cc2c(O)[nH]c(=O)[nH]c2=O)cc(C)n1-c1csc(-c2ccccn2)c1

>  <score_type>  (21) 
oracle

>  <origin>  (21) 
adg

>  <m_score__min__energy>  (21) 
-16.23

>  <m_primary>  (21) 
energy

$$$$
21:0
     RDKit          3D

 54 57  0  0  0  0  0  0  0  0999 V2000
   57.2704   20.5378   43.6750 H   0  0  0  0  0  0  0  0  0  0  0  0
   56.6470   21.4440   43.6870 C   0  0  0  0  0  0  0  0  0  0  0  0
   56.3350   22.1550   42.5810 N   0  0  0  0  0  0  0  0  0  0  0  0
   55.5780   23.1510   43.0790 C   0  0  0  0  0  0  0  0  0  0  0  0
   55.1229   23.9492   42.4743 H   0  0  0  0  0  0  0  0  0  0  0  0
   55.4520   23.0410   44.4120 N   0  0  0  0  0  0  0  0  0  0  0  0
   54.6620   23.8980   45.2920 C   0  0  0  0  0  0  0  0  0  0  0  0
   53.9520   23.2772   45.8581 H   0  0  0  0  0  0  0  0  0  0  0  0
   54.1215   24.6328   44.6772 H   0  0  0  0  0  0  0  0  0  0  0  0
   55.5670   24.6490   46.2740 C   0  0  0  0  0  0  0  0  0  0  0  0
   56.5609   24.1777   46.2766 H   0  0  0  0  0  0  0  0  0  0  0  0
   55.1088   24.6005   47.2728 H   0  0  0  0  0  0  0  0  0  0  0  0
   55.7090   26.0570   45.9010 N   0  0  0  0  0  0  0  0  0  0  0  0
   56.8380   26.6940   45.8070 C   0  0  0  0  0  0  0  0  0  0  0  0
   57.2220   27.5840   46.7650 N   0  0  0  0  0  0  0  0  0  0  0  0
   58.3850   28.2820   46.6770 C   0  0  0  0  0  0  0  0  0  0  0  0
   59.2490   28.0780   45.5890 C   0  0  0  0  0  0  0  0  0  0  0  0
   58.8780   27.1550   44.5990 C   0  0  0  0  0  0  0  0  0  0  0  0
   59.5389   26.9767   43.7379 H   0  0  0  0  0  0  0  0  0  0  0  0
   57.6700   26.4630   44.7070 C   0  0  0  0  0  0  0  0  0  0  0  0
   57.3747   25.7407   43.9317 H   0  0  0  0  0  0  0  0  0  0  0  0
   60.4960   28.8820   45.5100 C   0  0  0  0  0  0  0  0  0  0  0  0
   61.5790   28.5510   44.5280 C   0  0  0  0  0  0  0  0  0  0  0  0
   62.4937   28.2714   45.0713 H   0  0  0  0  0  0  0  0  0  0  0  0
   61.2565   27.7104   43.8960 H   0  0  0  0  0  0  0  0  0  0  0  0
   61.7816   29.4282   43.8960 H   0  0  0  0  0  0  0  0  0  0  0  0
   60.6440   29.9200   46.2840 N   0  0  0  0  0  0  0  0  0  0  0  0
   59.6380   30.3820   47.2530 C   0  0  1  0  0  0  0  0  0  0  0  0
   60.1842   30.8175   48.1027 H   0  0  0  0  0  0  0  0  0  0  0  0
   58.7500   31.4800   46.6690 C   0  0  0  0  0  0  0  0  0  0  0  0
   58.2680   31.3850   45.3460 C   0  0  0  0  0  0  0  0  0  0  0  0
   58.5830   30.5425   44.7127 H   0  0  0  0  0  0  0  0  0  0  0  0
   57.3960   32.3470   44.8300 C   0  0  0  0  0  0  0  0  0  0  0  0
   57.0393   32.2638   43.7928 H   0  0  0  0  0  0  0  0  0  0  0  0
   56.9770   33.4110   45.6250 C   0  0  0  0  0  0  0  0  0  0  0  0
   56.2925   34.1679   45.2145 H   0  0  0  0  0  0  0  0  0  0  0  0
   57.4250   33.5170   46.9410 C   0  0  0  0  0  0  0  0  0  0  0  0
   57.0843   34.3545   47.5676 H   0  0  0  0  0  0  0  0  0  0  0  0
   58.3060   32.5650   47.4720 C   0  0  0  0  0  0  0  0  0  0  0  0
   58.7360   32.7240   48.8740 C   0  0  0  0  0  0  0  0  0  0  0  0
   58.1370   32.0640   49.7670 O   0  0  0  0  0  0  0  0  0  0  0  0
   59.8070   33.6210   49.2320 N   0  0  0  0  0  0  0  0  0  0  0  0
   60.3710   34.5370   48.2350 C   0  0  0  0  0  0  0  0  0  0  0  0
   60.8816   35.3663   48.7464 H   0  0  0  0  0  0  0  0  0  0  0  0
   61.0920   33.9949   47.6054 H   0  0  0  0  0  0  0  0  0  0  0  0
   59.5624   34.9367   47.6054 H   0  0  0  0  0  0  0  0  0  0  0  0
   60.3090   33.6230   50.6100 C   0  0  0  0  0  0  0  0  0  0  0  0
   59.4601   33.6196   51.3095 H   0  0  0  0  0  0  0  0  0  0  0  0
   60.9253   32.7273   50.7770 H   0  0  0  0  0  0  0  0  0  0  0  0
   60.9181   34.5236   50.7770 H   0  0  0  0  0  0  0  0  0  0  0  0
   58.7900   29.2080   47.7870 C   0  0  0  0  0  0  0  0  0  0  0  0
   59.3802   28.6460   48.5258 H   0  0  0  0  0  0  0  0  0  0  0  0
   57.8795   29.6177   48.2486 H   0  0  0  0  0  0  0  0  0  0  0  0
   56.1100   21.9680   44.8060 N   0  0  0  0  0  0  0  0  0  0  0  0
  1  2  1  0
  2  3  1  0
  3  4  2  0
  4  5  1  0
  4  6  1  0
  6  7  1  0
  7  8  1  0
  7  9  1  0
  7 10  1  0
 10 11  1  0
 10 12  1  0
 10 13  1  0
 13 14  2  0
 14 15  1  0
 15 16  1  0
 16 17  2  0
 17 18  1  0
 18 19  1  0
 18 20  2  0
 20 21  1  0
 17 22  1  0
 22 23  1  0
 23 24  1  0
 23 25  1  0
 23 26  1  0
 22 27  2  0
 27 28  1  0
 28 29  1  1
 28 30  1  0
 30 31  2  0
 31 32  1  0
 31 33  1  0
 33 34  1  0
 33 35  2  0
 35 36  1  0
 35 37  1  0
 37 38  1  0
 37 39  2  0
 39 40  1  0
 40 41  2  0
 40 42  1  0
 42 43  1  0
 43 44  1  0
 43 45  1  0
 43 46  1  0
 42 47  1  0
 47 48  1  0
 47 49  1  0
 47 50  1  0
 28 51  1  0
 51 52  1  0
 51 53  1  0
  6 54  1  0
 54  2  2  0
 20 14  1  0
 39 30  1  0
 51 16  1  0
M  CHG  1  15  -1
M  END
>  <UniqueID>  (22) 
21

>  <SMILES>  (22) 
CC1=N[C@@H](c2ccccc2C(=O)N(C)C)Cc2[n-]/c(=N\CCn3cncn3)ccc21

>  <Energy>  (22) 
96.3145802406049

>  <Genealogy>  (22) 
CC1=NC(c2ccccc2C(=O)N(C)C)Cc2[n-]c(=NCCn3cncn3)ccc21 (protonated)
CC1=N[C@@H](c2ccccc2C(=O)N(C)C)Cc2[n-]c(=NCCn3cncn3)ccc21 (chirality)
CC1=N[C@@H](c2ccccc2C(=O)N(C)C)Cc2[n-]/c(=N\CCn3cncn3)ccc21 (cis-trans isomerization)
CC1=N[C@@H](c2ccccc2C(=O)N(C)C)Cc2[n-]/c(=N\CCn3cncn3)ccc21 (3D coordinates assigned)
CC1=N[C@@H](c2ccccc2C(=O)N(C)C)Cc2[n-]/c(=N\CCn3cncn3)ccc21 (nonaromatic ring conformer: 96.3145802406049 kcal/mol)

>  <smiles>  (22) 
CC1=NC(c2ccccc2C(=O)N(C)C)Cc2[nH]c(=NCCn3cncn3)ccc21

>  <score_type>  (22) 
oracle

>  <origin>  (22) 
adg

>  <m_score__min__energy>  (22) 
-10.140000000000001

>  <m_primary>  (22) 
energy

$$$$
22:0
     RDKit          3D

 46 48  0  0  0  0  0  0  0  0999 V2000
   58.8010   34.1990   44.4730 C   0  0  0  0  0  0  0  0  0  0  0  0
   58.9260   34.8920   45.7100 O   0  0  0  0  0  0  0  0  0  0  0  0
   59.1350   34.2680   46.9490 C   0  0  0  0  0  0  0  0  0  0  0  0
   58.2980   33.2430   47.4300 C   0  0  0  0  0  0  0  0  0  0  0  0
   58.5490   32.6510   48.6710 C   0  0  0  0  0  0  0  0  0  0  0  0
   59.6350   33.0760   49.4520 C   0  0  0  0  0  0  0  0  0  0  0  0
   59.9160   32.4120   50.7730 C   0  0  0  0  0  0  0  0  0  0  0  0
   58.8140   31.5250   51.1320 N   0  0  0  0  0  0  0  0  0  0  0  0
   57.5760   32.0150   51.6690 C   0  0  0  0  0  0  0  0  0  0  0  0
   57.3520   33.2550   51.7020 O   0  0  0  0  0  0  0  0  0  0  0  0
   56.5780   31.0700   52.2160 C   0  0  0  0  0  0  0  0  0  0  0  0
   55.2390   31.4910   52.2900 C   0  0  0  0  0  0  0  0  0  0  0  0
   54.2390   30.6330   52.7690 C   0  0  0  0  0  0  0  0  0  0  0  0
   52.8190   31.1150   52.8760 C   0  0  0  0  0  0  0  0  0  0  0  0
   52.1520   31.0560   51.5370 C   0  0  0  0  0  0  0  0  0  0  0  0
   52.3560   29.8220   50.4070 S   0  0  0  0  0  0  0  0  0  0  0  0
   51.3960   30.6000   49.2660 C   0  0  0  0  0  0  0  0  0  0  0  0
   51.1390   30.1380   48.1240 O   0  0  0  0  0  0  0  0  0  0  0  0
   50.9250   31.7870   49.7030 N   0  0  0  0  0  0  0  0  0  0  0  0
   51.3540   32.0440   50.9660 C   0  0  0  0  0  0  0  0  0  0  0  0
   51.0140   33.2190   51.6260 O   0  0  0  0  0  0  0  0  0  0  0  0
   54.5850   29.3460   53.1950 C   0  0  0  0  0  0  0  0  0  0  0  0
   55.9110   28.9150   53.1300 C   0  0  0  0  0  0  0  0  0  0  0  0
   56.9200   29.7650   52.6520 C   0  0  0  0  0  0  0  0  0  0  0  0
   58.5950   29.1830   52.6720 S   0  0  0  0  0  0  0  0  0  0  0  0
   59.1390   28.8860   51.0580 N   0  0  0  0  0  0  0  0  0  0  0  0
   59.4940   30.2150   53.2920 O   0  0  0  0  0  0  0  0  0  0  0  0
   58.6790   27.9170   53.4760 O   0  0  0  0  0  0  0  0  0  0  0  0
   60.4720   34.0930   48.9700 C   0  0  0  0  0  0  0  0  0  0  0  0
   60.2200   34.6850   47.7300 C   0  0  0  0  0  0  0  0  0  0  0  0
   58.6088   33.1335   44.6674 H   0  0  0  0  0  0  0  0  0  0  0  0
   57.9649   34.6234   43.8978 H   0  0  0  0  0  0  0  0  0  0  0  0
   59.7327   34.3045   43.8978 H   0  0  0  0  0  0  0  0  0  0  0  0
   57.4424   32.9065   46.8261 H   0  0  0  0  0  0  0  0  0  0  0  0
   57.8923   31.8482   49.0373 H   0  0  0  0  0  0  0  0  0  0  0  0
   60.8441   31.8266   50.6960 H   0  0  0  0  0  0  0  0  0  0  0  0
   60.0244   33.1843   51.5487 H   0  0  0  0  0  0  0  0  0  0  0  0
   58.9380   30.4970   50.9920 H   0  0  0  0  0  0  0  0  0  0  0  0
   54.9719   32.5082   51.9675 H   0  0  0  0  0  0  0  0  0  0  0  0
   52.2706   30.4761   53.5839 H   0  0  0  0  0  0  0  0  0  0  0  0
   52.8185   32.1557   53.2323 H   0  0  0  0  0  0  0  0  0  0  0  0
   53.8083   28.6706   53.5830 H   0  0  0  0  0  0  0  0  0  0  0  0
   56.1681   27.8968   53.4574 H   0  0  0  0  0  0  0  0  0  0  0  0
   58.4000   29.2470   50.4150 H   0  0  0  0  0  0  0  0  0  0  0  0
   61.3309   34.4260   49.5712 H   0  0  0  0  0  0  0  0  0  0  0  0
   60.8795   35.4856   47.3639 H   0  0  0  0  0  0  0  0  0  0  0  0
  1  2  1  0
  2  3  1  0
  3  4  2  0
  4  5  1  0
  5  6  2  0
  6  7  1  0
  7  8  1  0
  8  9  1  0
  9 10  2  0
  9 11  1  0
 11 12  2  0
 12 13  1  0
 13 14  1  0
 14 15  1  0
 15 16  1  0
 16 17  1  0
 17 18  2  0
 17 19  1  0
 19 20  1  0
 20 21  1  0
 13 22  2  0
 22 23  1  0
 23 24  2  0
 24 25  1  0
 25 26  1  0
 25 27  2  0
 25 28  2  0
  6 29  1  0
 29 30  2  0
 30  3  1  0
 24 11  1  0
 20 15  2  0
  1 31  1  0
  1 32  1  0
  1 33  1  0
  4 34  1  0
  5 35  1  0
  7 36  1  0
  7 37  1  0
  8 38  1  0
 12 39  1  0
 14 40  1  0
 14 41  1  0
 22 42  1  0
 23 43  1  0
 26 44  1  0
 29 45  1  0
 30 46  1  0
M  CHG  3  19  -1  21  -1  26  -1
M  END
>  <UniqueID>  (23) 
22

>  <SMILES>  (23) 
COc1ccc(CNC(=O)c2cc(Cc3sc(=O)[n-]c3[O-])ccc2S([NH-])(=O)=O)cc1

>  <Energy>  (23) 
79.89043325183485

>  <Genealogy>  (23) 
COc1ccc(CNC(=O)c2cc(Cc3sc(=O)[n-]c3[O-])ccc2S([NH-])(=O)=O)cc1 (protonated)
COc1ccc(CNC(=O)c2cc(Cc3sc(=O)[n-]c3[O-])ccc2S([NH-])(=O)=O)cc1 (3D coordinates assigned)
COc1ccc(CNC(=O)c2cc(Cc3sc(=O)[n-]c3[O-])ccc2S([NH-])(=O)=O)cc1 (optimized conformer: 79.89043325183485 kcal/mol)

>  <smiles>  (23) 
COc1ccc(CNC(=O)c2cc(Cc3sc(=O)[nH]c3O)ccc2S(N)(=O)=O)cc1

>  <score_type>  (23) 
oracle

>  <origin>  (23) 
adg

>  <m_score__min__energy>  (23) 
-15.77

>  <m_primary>  (23) 
energy

$$$$
23:0
     RDKit          3D

 49 51  0  0  0  0  0  0  0  0999 V2000
   58.2796   27.3319   42.4754 H   0  0  0  0  0  0  0  0  0  0  0  0
   57.7730   27.8880   43.2780 C   0  0  0  0  0  0  0  0  0  0  0  0
   57.8849   27.5677   44.3244 H   0  0  0  0  0  0  0  0  0  0  0  0
   57.0220   28.9520   42.9820 C   0  0  0  0  0  0  0  0  0  0  0  0
   56.9201   29.2594   41.9308 H   0  0  0  0  0  0  0  0  0  0  0  0
   56.3120   29.7410   44.0470 C   0  0  0  0  0  0  0  0  0  0  0  0
   55.6298   30.4594   43.5690 H   0  0  0  0  0  0  0  0  0  0  0  0
   55.7489   29.0442   44.6852 H   0  0  0  0  0  0  0  0  0  0  0  0
   57.2800   30.4780   44.8890 N   0  0  0  0  0  0  0  0  0  0  0  0
   57.7680   29.8940   46.0340 C   0  0  0  0  0  0  0  0  0  0  0  0
   57.3190   28.5850   46.4260 N   0  0  0  0  0  0  0  0  0  0  0  0
   56.2990   28.4240   46.5740 H   0  0  0  0  0  0  0  0  0  0  0  0
   58.2120   27.4680   46.5030 C   0  0  0  0  0  0  0  0  0  0  0  0
   59.4330   27.6180   46.2230 O   0  0  0  0  0  0  0  0  0  0  0  0
   57.6920   26.1860   46.8880 N   0  0  0  0  0  0  0  0  0  0  0  0
   57.1130   25.3100   46.1160 C   0  0  0  0  0  0  0  0  0  0  0  0
   57.7510   24.1630   45.7450 N   0  0  0  0  0  0  0  0  0  0  0  0
   57.1640   23.2380   44.9400 C   0  0  0  0  0  0  0  0  0  0  0  0
   57.7106   22.3248   44.6619 H   0  0  0  0  0  0  0  0  0  0  0  0
   55.8670   23.4470   44.4660 C   0  0  0  0  0  0  0  0  0  0  0  0
   55.3861   22.7029   43.8140 H   0  0  0  0  0  0  0  0  0  0  0  0
   55.1890   24.6100   44.8290 C   0  0  0  0  0  0  0  0  0  0  0  0
   54.1667   24.7877   44.4639 H   0  0  0  0  0  0  0  0  0  0  0  0
   55.8090   25.5500   45.6570 C   0  0  0  0  0  0  0  0  0  0  0  0
   55.1300   26.7090   46.0170 O   0  0  0  0  0  0  0  0  0  0  0  0
   58.7070   30.5710   46.8380 C   0  0  0  0  0  0  0  0  0  0  0  0
   59.1970   29.9500   48.0510 C   0  0  0  0  0  0  0  0  0  0  0  0
   59.5890   29.4520   49.0200 N   0  0  0  0  0  0  0  0  0  0  0  0
   59.1640   31.8440   46.4510 C   0  0  0  0  0  0  0  0  0  0  0  0
   60.1570   32.5720   47.2820 C   0  0  0  0  0  0  0  0  0  0  0  0
   61.5280   32.3040   47.1440 C   0  0  0  0  0  0  0  0  0  0  0  0
   61.8693   31.5515   46.4179 H   0  0  0  0  0  0  0  0  0  0  0  0
   62.4600   32.9900   47.9260 C   0  0  0  0  0  0  0  0  0  0  0  0
   63.5324   32.7751   47.8089 H   0  0  0  0  0  0  0  0  0  0  0  0
   62.0430   33.9480   48.8570 C   0  0  0  0  0  0  0  0  0  0  0  0
   63.0180   34.6090   49.6180 O   0  0  0  0  0  0  0  0  0  0  0  0
   63.7850   33.9960   50.6480 C   0  0  0  0  0  0  0  0  0  0  0  0
   63.3962   34.3067   51.6290 H   0  0  0  0  0  0  0  0  0  0  0  0
   63.7151   32.9021   50.5556 H   0  0  0  0  0  0  0  0  0  0  0  0
   64.8366   34.3053   50.5556 H   0  0  0  0  0  0  0  0  0  0  0  0
   60.6670   34.2160   48.9960 C   0  0  0  0  0  0  0  0  0  0  0  0
   60.3260   34.9673   49.7235 H   0  0  0  0  0  0  0  0  0  0  0  0
   59.7330   33.5310   48.2130 C   0  0  0  0  0  0  0  0  0  0  0  0
   58.6602   33.7454   48.3279 H   0  0  0  0  0  0  0  0  0  0  0  0
   58.6710   32.4170   45.2650 C   0  0  0  0  0  0  0  0  0  0  0  0
   59.1040   33.7340   44.8430 C   0  0  0  0  0  0  0  0  0  0  0  0
   59.4510   34.7850   44.5060 N   0  0  0  0  0  0  0  0  0  0  0  0
   57.7290   31.7170   44.4950 C   0  0  0  0  0  0  0  0  0  0  0  0
   57.2970   32.2430   43.4300 O   0  0  0  0  0  0  0  0  0  0  0  0
  1  2  1  0
  2  3  1  0
  2  4  2  0
  4  5  1  0
  4  6  1  0
  6  7  1  0
  6  8  1  0
  6  9  1  0
  9 10  1  0
 10 11  1  0
 11 12  1  0
 11 13  1  0
 13 14  2  0
 13 15  1  0
 15 16  2  0
 16 17  1  0
 17 18  1  0
 18 19  1  0
 18 20  2  0
 20 21  1  0
 20 22  1  0
 22 23  1  0
 22 24  2  0
 24 25  1  0
 10 26  2  0
 26 27  1  0
 27 28  3  0
 26 29  1  0
 29 30  1  0
 30 31  2  0
 31 32  1  0
 31 33  1  0
 33 34  1  0
 33 35  2  0
 35 36  1  0
 36 37  1  0
 37 38  1  0
 37 39  1  0
 37 40  1  0
 35 41  1  0
 41 42  1  0
 41 43  2  0
 43 44  1  0
 29 45  2  0
 45 46  1  0
 46 47  3  0
 45 48  1  0
 48 49  2  0
 48  9  1  0
 24 16  1  0
 43 30  1  0
M  CHG  2  17  -1  25  -1
M  END
>  <UniqueID>  (24) 
23

>  <SMILES>  (24) 
C=CCn1c(NC(=O)/N=c2\[n-]cccc2[O-])c(C#N)c(-c2ccc(OC)cc2)c(C#N)c1=O

>  <Energy>  (24) 
71.36312615737646

>  <Genealogy>  (24) 
C=CCn1c(NC(=O)N=c2[n-]cccc2[O-])c(C#N)c(-c2ccc(OC)cc2)c(C#N)c1=O (protonated)
C=CCn1c(NC(=O)/N=c2\[n-]cccc2[O-])c(C#N)c(-c2ccc(OC)cc2)c(C#N)c1=O (cis-trans isomerization)
C=CCn1c(NC(=O)/N=c2\[n-]cccc2[O-])c(C#N)c(-c2ccc(OC)cc2)c(C#N)c1=O (3D coordinates assigned)
C=CCn1c(NC(=O)/N=c2\[n-]cccc2[O-])c(C#N)c(-c2ccc(OC)cc2)c(C#N)c1=O (optimized conformer: 71.36312615737646 kcal/mol)

>  <smiles>  (24) 
C=CCn1c(NC(=O)N=c2[nH]cccc2O)c(C#N)c(-c2ccc(OC)cc2)c(C#N)c1=O

>  <score_type>  (24) 
oracle

>  <origin>  (24) 
adg

>  <m_score__min__energy>  (24) 
-13.6

>  <m_primary>  (24) 
energy

$$$$
24:0
     RDKit          3D

 48 50  0  0  0  0  0  0  0  0999 V2000
   58.1270   27.4630   43.3780 C   0  0  0  0  0  0  0  0  0  0  0  0
   57.9850   27.9640   44.8180 C   0  0  0  0  0  0  0  0  0  0  0  0
   59.3030   27.8150   45.5800 C   0  0  0  0  0  0  0  0  0  0  0  0
   57.5250   29.3930   44.8290 C   0  0  0  0  0  0  0  0  0  0  0  0
   56.2310   29.7720   44.7900 N   0  0  0  0  0  0  0  0  0  0  0  0
   56.2620   31.0680   44.8270 O   0  0  0  0  0  0  0  0  0  0  0  0
   57.5040   31.4780   44.8950 C   0  0  0  0  0  0  0  0  0  0  0  0
   57.9040   32.9220   44.9300 C   0  0  0  0  0  0  0  0  0  0  0  0
   58.8010   33.1860   46.0750 N   0  0  0  0  0  0  0  0  0  0  0  0
   58.2280   34.2060   46.9820 C   0  0  0  0  0  0  0  0  0  0  0  0
   59.2690   34.7810   47.9670 C   0  0  0  0  0  0  0  0  0  0  0  0
   60.4570   33.9250   48.0490 N   0  0  0  0  0  0  0  0  0  0  0  0
   60.9260   33.4490   49.3230 C   0  0  0  0  0  0  0  0  0  0  0  0
   60.0910   33.0910   50.1980 O   0  0  0  0  0  0  0  0  0  0  0  0
   62.3700   33.3500   49.6190 C   0  0  0  0  0  0  0  0  0  0  0  0
   63.1750   32.4380   48.9280 C   0  0  0  0  0  0  0  0  0  0  0  0
   64.5360   32.3530   49.2260 C   0  0  0  0  0  0  0  0  0  0  0  0
   65.0920   33.1460   50.1910 N   0  0  0  0  0  0  0  0  0  0  0  0
   66.5210   33.0150   50.5010 C   0  0  0  0  0  0  0  0  0  0  0  0
   64.3120   34.0230   50.9010 C   0  0  0  0  0  0  0  0  0  0  0  0
   64.8140   34.7340   51.8140 O   0  0  0  0  0  0  0  0  0  0  0  0
   62.9460   34.1370   50.6220 C   0  0  0  0  0  0  0  0  0  0  0  0
   61.1100   33.4770   46.8120 C   0  0  0  0  0  0  0  0  0  0  0  0
   60.1500   33.5830   45.6260 C   0  0  0  0  0  0  0  0  0  0  0  0
   58.3680   30.4430   44.8960 N   0  0  0  0  0  0  0  0  0  0  0  0
   58.4269   26.4047   43.3859 H   0  0  0  0  0  0  0  0  0  0  0  0
   57.1639   27.5673   42.8568 H   0  0  0  0  0  0  0  0  0  0  0  0
   58.8921   28.0571   42.8568 H   0  0  0  0  0  0  0  0  0  0  0  0
   57.2282   27.3482   45.3260 H   0  0  0  0  0  0  0  0  0  0  0  0
   59.1056   27.8373   46.6619 H   0  0  0  0  0  0  0  0  0  0  0  0
   59.7747   26.8578   45.3130 H   0  0  0  0  0  0  0  0  0  0  0  0
   59.9765   28.6427   45.3130 H   0  0  0  0  0  0  0  0  0  0  0  0
   58.4264   33.1751   43.9957 H   0  0  0  0  0  0  0  0  0  0  0  0
   56.9992   33.5380   45.0390 H   0  0  0  0  0  0  0  0  0  0  0  0
   57.8254   35.0302   46.3749 H   0  0  0  0  0  0  0  0  0  0  0  0
   57.4425   33.7172   47.5771 H   0  0  0  0  0  0  0  0  0  0  0  0
   59.5716   35.7815   47.6244 H   0  0  0  0  0  0  0  0  0  0  0  0
   58.8098   34.8329   48.9652 H   0  0  0  0  0  0  0  0  0  0  0  0
   62.7374   31.7909   48.1535 H   0  0  0  0  0  0  0  0  0  0  0  0
   65.1688   31.6395   48.6779 H   0  0  0  0  0  0  0  0  0  0  0  0
   66.6598   33.0023   51.5921 H   0  0  0  0  0  0  0  0  0  0  0  0
   66.9050   32.0779   50.0716 H   0  0  0  0  0  0  0  0  0  0  0  0
   67.0689   33.8667   50.0716 H   0  0  0  0  0  0  0  0  0  0  0  0
   62.3252   34.8449   51.1908 H   0  0  0  0  0  0  0  0  0  0  0  0
   61.9916   34.1064   46.6205 H   0  0  0  0  0  0  0  0  0  0  0  0
   61.4108   32.4257   46.9312 H   0  0  0  0  0  0  0  0  0  0  0  0
   60.1281   34.6196   45.2585 H   0  0  0  0  0  0  0  0  0  0  0  0
   60.4843   32.9232   44.8118 H   0  0  0  0  0  0  0  0  0  0  0  0
  1  2  1  0
  2  3  1  0
  2  4  1  0
  4  5  2  0
  5  6  1  0
  6  7  1  0
  7  8  1  0
  8  9  1  0
  9 10  1  0
 10 11  1  0
 11 12  1  0
 12 13  1  0
 13 14  2  0
 13 15  1  0
 15 16  1  0
 16 17  2  0
 17 18  1  0
 18 19  1  0
 18 20  1  0
 20 21  2  0
 20 22  1  0
 12 23  1  0
 23 24  1  0
  7 25  2  0
 25  4  1  0
 24  9  1  0
 22 15  2  0
  1 26  1  0
  1 27  1  0
  1 28  1  0
  2 29  1  0
  3 30  1  0
  3 31  1  0
  3 32  1  0
  8 33  1  0
  8 34  1  0
 10 35  1  0
 10 36  1  0
 11 37  1  0
 11 38  1  0
 16 39  1  0
 17 40  1  0
 19 41  1  0
 19 42  1  0
 19 43  1  0
 22 44  1  0
 23 45  1  0
 23 46  1  0
 24 47  1  0
 24 48  1  0
M  END
>  <UniqueID>  (25) 
24

>  <SMILES>  (25) 
CC(C)c1noc(CN2CCN(C(=O)c3ccn(C)c(=O)c3)CC2)n1

>  <Energy>  (25) 
90.48264503662016

>  <Genealogy>  (25) 
CC(C)c1noc(CN2CCN(C(=O)c3ccn(C)c(=O)c3)CC2)n1 (3D coordinates assigned)
CC(C)c1noc(CN2CCN(C(=O)c3ccn(C)c(=O)c3)CC2)n1 (nonaromatic ring conformer: 90.48264503662016 kcal/mol)

>  <smiles>  (25) 
CC(C)c1noc(CN2CCN(C(=O)c3ccn(C)c(=O)c3)CC2)n1

>  <score_type>  (25) 
oracle

>  <origin>  (25) 
adg

>  <m_score__min__energy>  (25) 
-8.5600000000000005

>  <m_primary>  (25) 
energy

$$$$
25:0
     RDKit          3D

 36 38  0  0  0  0  0  0  0  0999 V2000
   58.4750   30.8560   46.9430 C   0  0  0  0  0  0  0  0  0  0  0  0
   58.2380   31.0370   45.6340 C   0  0  0  0  0  0  0  0  0  0  0  0
   58.4160   32.2200   44.9000 C   0  0  0  0  0  0  0  0  0  0  0  0
   59.0690   33.3580   45.2060 C   0  0  0  0  0  0  0  0  0  0  0  0
   60.0250   33.5240   46.3120 C   0  0  0  0  0  0  0  0  0  0  0  0
   61.2100   32.8910   46.4030 N   0  0  0  0  0  0  0  0  0  0  0  0
   61.7820   33.4540   47.4890 C   0  0  0  0  0  0  0  0  0  0  0  0
   62.9150   33.1100   47.9140 O   0  0  0  0  0  0  0  0  0  0  0  0
   61.0500   34.4230   48.0780 N   0  0  0  0  0  0  0  0  0  0  0  0
   59.9460   34.4640   47.3100 C   0  0  0  0  0  0  0  0  0  0  0  0
   58.8890   35.3440   47.5140 O   0  0  0  0  0  0  0  0  0  0  0  0
   57.7730   32.0260   43.6890 C   0  0  0  0  0  0  0  0  0  0  0  0
   57.3010   30.7290   43.6910 C   0  0  0  0  0  0  0  0  0  0  0  0
   56.5330   30.0970   42.5710 C   0  0  0  0  0  0  0  0  0  0  0  0
   57.5960   30.1240   44.8610 N   0  0  0  0  0  0  0  0  0  0  0  0
   57.1820   28.7990   45.2370 C   0  0  0  0  0  0  0  0  0  0  0  0
   55.8900   28.4180   45.2580 N   0  0  0  0  0  0  0  0  0  0  0  0
   55.9200   27.1340   45.6620 C   0  0  0  0  0  0  0  0  0  0  0  0
   54.7790   26.3590   45.8170 O   0  0  0  0  0  0  0  0  0  0  0  0
   57.2040   26.6890   45.8940 C   0  0  0  0  0  0  0  0  0  0  0  0
   58.0270   27.7610   45.6120 C   0  0  0  0  0  0  0  0  0  0  0  0
   59.5040   27.7580   45.6390 C   0  0  0  0  0  0  0  0  0  0  0  0
   60.2890   28.6410   44.7200 C   0  0  0  0  0  0  0  0  0  0  0  0
   60.1200   27.0330   46.4650 O   0  0  0  0  0  0  0  0  0  0  0  0
   58.2944   29.8737   47.4040 H   0  0  0  0  0  0  0  0  0  0  0  0
   58.8498   31.6900   47.5546 H   0  0  0  0  0  0  0  0  0  0  0  0
   58.8706   34.2374   44.5757 H   0  0  0  0  0  0  0  0  0  0  0  0
   59.0350   36.3450   47.4690 H   0  0  0  0  0  0  0  0  0  0  0  0
   57.6601   32.7637   42.8809 H   0  0  0  0  0  0  0  0  0  0  0  0
   55.7462   29.4495   42.9855 H   0  0  0  0  0  0  0  0  0  0  0  0
   56.0737   30.8822   41.9525 H   0  0  0  0  0  0  0  0  0  0  0  0
   57.2151   29.4952   41.9525 H   0  0  0  0  0  0  0  0  0  0  0  0
   57.5093   25.6881   46.2332 H   0  0  0  0  0  0  0  0  0  0  0  0
   60.9044   29.3332   45.3135 H   0  0  0  0  0  0  0  0  0  0  0  0
   60.9410   28.0226   44.0856 H   0  0  0  0  0  0  0  0  0  0  0  0
   59.5985   29.2161   44.0856 H   0  0  0  0  0  0  0  0  0  0  0  0
  1  2  2  0
  2  3  1  0
  3  4  2  3
  4  5  1  0
  5  6  1  0
  6  7  1  0
  7  8  2  0
  7  9  1  0
  9 10  1  0
 10 11  1  0
  3 12  1  0
 12 13  2  0
 13 14  1  0
 13 15  1  0
 15 16  1  0
 16 17  1  0
 17 18  1  0
 18 19  1  0
 18 20  2  0
 20 21  1  0
 21 22  1  0
 22 23  1  0
 22 24  2  0
 15  2  1  0
 21 16  2  0
 10  5  2  0
  1 25  1  0
  1 26  1  0
  4 27  1  0
 11 28  1  0
 12 29  1  0
 14 30  1  0
 14 31  1  0
 14 32  1  0
 20 33  1  0
 23 34  1  0
 23 35  1  0
 23 36  1  0
M  CHG  4   6  -1   9  -1  17  -1  19  -1
M  END
>  <UniqueID>  (26) 
25

>  <SMILES>  (26) 
C=c1c(=Cc2[n-]c(=O)[n-]c2O)cc(C)n1-c1[n-]c([O-])cc1C(C)=O

>  <Energy>  (26) 
136.05575481816953

>  <Genealogy>  (26) 
C=c1c(=Cc2[n-]c(=O)[n-]c2O)cc(C)n1-c1[n-]c([O-])cc1C(C)=O (protonated)
C=c1c(=Cc2[n-]c(=O)[n-]c2O)cc(C)n1-c1[n-]c([O-])cc1C(C)=O (3D coordinates assigned)
C=c1c(=Cc2[n-]c(=O)[n-]c2O)cc(C)n1-c1[n-]c([O-])cc1C(C)=O (optimized conformer: 136.05575481816953 kcal/mol)

>  <smiles>  (26) 
C=c1c(=Cc2[nH]c(=O)[nH]c2O)cc(C)n1-c1[nH]c(O)cc1C(C)=O

>  <score_type>  (26) 
oracle

>  <origin>  (26) 
adg

>  <m_score__min__energy>  (26) 
-13.779999999999999

>  <m_primary>  (26) 
energy

$$$$
26:0
     RDKit          3D

 73 77  0  0  0  0  0  0  0  0999 V2000
   58.2430   31.7930   50.4370 C   0  0  0  0  0  0  0  0  0  0  0  0
   59.2540   30.7240   50.0250 C   0  0  0  0  0  0  0  0  0  0  0  0
   60.1060   31.2000   48.9350 N   0  0  0  0  0  0  0  0  0  0  0  0
   61.4410   31.7070   49.1200 C   0  0  0  0  0  0  0  0  0  0  0  0
   62.3850   31.0190   49.9140 C   0  0  0  0  0  0  0  0  0  0  0  0
   62.0800   29.8370   50.5010 F   0  0  0  0  0  0  0  0  0  0  0  0
   63.6740   31.5310   50.0770 C   0  0  0  0  0  0  0  0  0  0  0  0
   64.0450   32.7170   49.4460 C   0  0  0  0  0  0  0  0  0  0  0  0
   63.1300   33.3960   48.6410 C   0  0  0  0  0  0  0  0  0  0  0  0
   61.8330   32.8970   48.4700 C   0  0  0  0  0  0  0  0  0  0  0  0
   60.9080   33.6200   47.6430 N   0  0  0  0  0  0  0  0  0  0  0  0
   61.2740   34.0140   46.2820 C   0  0  0  0  0  0  0  0  0  0  0  0
   60.0480   33.8470   45.3750 C   0  0  0  0  0  0  0  0  0  0  0  0
   58.8520   34.5950   45.8570 N   0  0  0  0  0  0  0  0  0  0  0  0
   57.5940   33.8760   45.5540 C   0  0  0  0  0  0  0  0  0  0  0  0
   57.8630   32.4220   45.2970 C   0  0  0  0  0  0  0  0  0  0  0  0
   58.0620   31.5260   46.2820 N   0  0  0  0  0  0  0  0  0  0  0  0
   58.2500   30.3640   45.6180 C   0  0  0  0  0  0  0  0  0  0  0  0
   58.5370   29.0750   46.2780 C   0  0  0  0  0  0  0  0  0  0  0  0
   59.5460   28.9700   47.2500 C   0  0  0  0  0  0  0  0  0  0  0  0
   59.8460   27.7300   47.8220 C   0  0  0  0  0  0  0  0  0  0  0  0
   59.1400   26.5880   47.4360 C   0  0  0  0  0  0  0  0  0  0  0  0
   58.1060   26.6820   46.4970 C   0  0  0  0  0  0  0  0  0  0  0  0
   57.3920   25.5020   46.1020 N   0  0  0  0  0  0  0  0  0  0  0  0
   57.4320   24.9800   44.7660 C   0  0  0  0  0  0  0  0  0  0  0  0
   57.7630   25.7210   43.8030 O   0  0  0  0  0  0  0  0  0  0  0  0
   57.0720   23.5830   44.5010 C   0  0  0  0  0  0  0  0  0  0  0  0
   55.8940   23.0440   44.7950 C   0  0  0  0  0  0  0  0  0  0  0  0
   54.7010   23.7830   45.2490 C   0  0  0  0  0  0  0  0  0  0  0  0
   54.8270   24.7990   45.9790 O   0  0  0  0  0  0  0  0  0  0  0  0
   53.4260   23.3640   44.8890 O   0  0  0  0  0  0  0  0  0  0  0  0
   55.9160   21.5630   44.6700 C   0  0  0  0  0  0  0  0  0  0  0  0
   57.2990   21.2470   44.0980 C   0  0  0  0  0  0  0  0  0  0  0  0
   58.0830   22.5610   44.1340 C   0  0  0  0  0  0  0  0  0  0  0  0
   57.8160   27.9270   45.9130 C   0  0  0  0  0  0  0  0  0  0  0  0
   58.1670   30.5060   44.3140 O   0  0  0  0  0  0  0  0  0  0  0  0
   57.9330   31.7720   44.0790 C   0  0  0  0  0  0  0  0  0  0  0  0
   57.7560   32.3430   42.7100 C   0  0  0  0  0  0  0  0  0  0  0  0
   58.9170   35.0140   47.2790 C   0  0  0  0  0  0  0  0  0  0  0  0
   59.5860   33.9600   48.1700 C   0  0  0  0  0  0  0  0  0  0  0  0
   58.1925   31.8464   51.5345 H   0  0  0  0  0  0  0  0  0  0  0  0
   58.5568   32.7683   50.0365 H   0  0  0  0  0  0  0  0  0  0  0  0
   57.2518   31.5340   50.0365 H   0  0  0  0  0  0  0  0  0  0  0  0
   59.8844   30.4725   50.8907 H   0  0  0  0  0  0  0  0  0  0  0  0
   58.7040   29.8369   49.6779 H   0  0  0  0  0  0  0  0  0  0  0  0
   59.6370   31.3580   48.0110 H   0  0  0  0  0  0  0  0  0  0  0  0
   64.4000   30.9956   50.7065 H   0  0  0  0  0  0  0  0  0  0  0  0
   65.0601   33.1180   49.5828 H   0  0  0  0  0  0  0  0  0  0  0  0
   63.4289   34.3277   48.1383 H   0  0  0  0  0  0  0  0  0  0  0  0
   61.5987   35.0650   46.2756 H   0  0  0  0  0  0  0  0  0  0  0  0
   62.0982   33.3830   45.9180 H   0  0  0  0  0  0  0  0  0  0  0  0
   60.3055   34.2108   44.3693 H   0  0  0  0  0  0  0  0  0  0  0  0
   59.7859   32.7787   45.3747 H   0  0  0  0  0  0  0  0  0  0  0  0
   56.9088   33.9708   46.4093 H   0  0  0  0  0  0  0  0  0  0  0  0
   57.1427   34.3169   44.6529 H   0  0  0  0  0  0  0  0  0  0  0  0
   60.1019   29.8664   47.5621 H   0  0  0  0  0  0  0  0  0  0  0  0
   60.6407   27.6534   48.5786 H   0  0  0  0  0  0  0  0  0  0  0  0
   59.3975   25.6113   47.8715 H   0  0  0  0  0  0  0  0  0  0  0  0
   56.8020   25.0120   46.8120 H   0  0  0  0  0  0  0  0  0  0  0  0
   55.7842   21.0879   45.6533 H   0  0  0  0  0  0  0  0  0  0  0  0
   55.1034   21.1851   44.0321 H   0  0  0  0  0  0  0  0  0  0  0  0
   57.8015   20.4856   44.7126 H   0  0  0  0  0  0  0  0  0  0  0  0
   57.2295   20.8481   43.0752 H   0  0  0  0  0  0  0  0  0  0  0  0
   58.8831   22.5166   44.8876 H   0  0  0  0  0  0  0  0  0  0  0  0
   58.5748   22.7826   43.1754 H   0  0  0  0  0  0  0  0  0  0  0  0
   57.0158   28.0028   45.1621 H   0  0  0  0  0  0  0  0  0  0  0  0
   57.4312   33.3910   42.7890 H   0  0  0  0  0  0  0  0  0  0  0  0
   58.7111   32.2952   42.1665 H   0  0  0  0  0  0  0  0  0  0  0  0
   56.9954   31.7633   42.1665 H   0  0  0  0  0  0  0  0  0  0  0  0
   59.4922   35.9492   47.3456 H   0  0  0  0  0  0  0  0  0  0  0  0
   57.8853   35.1485   47.6361 H   0  0  0  0  0  0  0  0  0  0  0  0
   59.6927   34.3602   49.1891 H   0  0  0  0  0  0  0  0  0  0  0  0
   58.9617   33.0544   48.1862 H   0  0  0  0  0  0  0  0  0  0  0  0
  1  2  1  0
  2  3  1  0
  3  4  1  0
  4  5  2  0
  5  6  1  0
  5  7  1  0
  7  8  2  0
  8  9  1  0
  9 10  2  0
 10 11  1  0
 11 12  1  0
 12 13  1  0
 13 14  1  0
 14 15  1  0
 15 16  1  0
 16 17  1  0
 17 18  2  0
 18 19  1  0
 19 20  2  0
 20 21  1  0
 21 22  2  0
 22 23  1  0
 23 24  1  0
 24 25  1  0
 25 26  2  0
 25 27  1  0
 27 28  2  0
 28 29  1  0
 29 30  2  0
 29 31  1  0
 28 32  1  0
 32 33  1  0
 33 34  1  0
 23 35  2  0
 18 36  1  0
 36 37  1  0
 37 38  1  0
 14 39  1  0
 39 40  1  0
 10  4  1  0
 40 11  1  0
 37 16  2  0
 35 19  1  0
 34 27  1  0
  1 41  1  0
  1 42  1  0
  1 43  1  0
  2 44  1  0
  2 45  1  0
  3 46  1  0
  7 47  1  0
  8 48  1  0
  9 49  1  0
 12 50  1  0
 12 51  1  0
 13 52  1  0
 13 53  1  0
 15 54  1  0
 15 55  1  0
 20 56  1  0
 21 57  1  0
 22 58  1  0
 24 59  1  0
 32 60  1  0
 32 61  1  0
 33 62  1  0
 33 63  1  0
 34 64  1  0
 34 65  1  0
 35 66  1  0
 38 67  1  0
 38 68  1  0
 38 69  1  0
 39 70  1  0
 39 71  1  0
 40 72  1  0
 40 73  1  0
M  CHG  1  31  -1
M  END
>  <UniqueID>  (27) 
26

>  <SMILES>  (27) 
CCNc1c(F)cccc1N1CCN(Cc2nc(-c3cccc(NC(=O)C4=C(C(=O)[O-])CCC4)c3)oc2C)CC1

>  <Energy>  (27) 
135.63687976792744

>  <Genealogy>  (27) 
CCNc1c(F)cccc1N1CCN(Cc2nc(-c3cccc(NC(=O)C4=C(C(=O)[O-])CCC4)c3)oc2C)CC1 (protonated)
CCNc1c(F)cccc1N1CCN(Cc2nc(-c3cccc(NC(=O)C4=C(C(=O)[O-])CCC4)c3)oc2C)CC1 (3D coordinates assigned)
CCNc1c(F)cccc1N1CCN(Cc2nc(-c3cccc(NC(=O)C4=C(C(=O)[O-])CCC4)c3)oc2C)CC1 (nonaromatic ring conformer: 135.63687976792744 kcal/mol)

>  <smiles>  (27) 
CCNc1c(F)cccc1N1CCN(Cc2nc(-c3cccc(NC(=O)C4=C(C(=O)O)CCC4)c3)oc2C)CC1

>  <score_type>  (27) 
oracle

>  <origin>  (27) 
adg

>  <m_score__min__energy>  (27) 
-12.42

>  <m_primary>  (27) 
energy

$$$$
27:0
     RDKit          3D

 66 69  0  0  0  0  0  0  0  0999 V2000
   54.3900   26.7170   45.0110 H   0  0  0  0  0  0  0  0  0  0  0  0
   54.5580   26.3190   45.9250 O   0  0  0  0  0  0  0  0  0  0  0  0
   55.6270   25.4520   46.1350 C   0  0  0  0  0  0  0  0  0  0  0  0
   55.5760   24.3840   46.9460 N   0  0  0  0  0  0  0  0  0  0  0  0
   56.8350   23.8980   46.8740 C   0  0  0  0  0  0  0  0  0  0  0  0
   57.2060   22.8820   47.5150 O   0  0  0  0  0  0  0  0  0  0  0  0
   57.6700   24.5970   46.0740 N   0  0  0  0  0  0  0  0  0  0  0  0
   56.8840   25.5730   45.5840 C   0  0  0  0  0  0  0  0  0  0  0  0
   57.3910   26.6890   44.7710 C   0  0  0  0  0  0  0  0  0  0  0  0
   57.6038   26.4808   43.7121 H   0  0  0  0  0  0  0  0  0  0  0  0
   57.6180   27.9430   45.2070 C   0  0  0  0  0  0  0  0  0  0  0  0
   57.1480   29.0650   44.5390 C   0  0  0  0  0  0  0  0  0  0  0  0
   56.5191   29.0752   43.6366 H   0  0  0  0  0  0  0  0  0  0  0  0
   57.6210   30.1650   45.2240 C   0  0  0  0  0  0  0  0  0  0  0  0
   57.3740   31.5920   44.8430 C   0  0  0  0  0  0  0  0  0  0  0  0
   57.2685   32.2014   45.7527 H   0  0  0  0  0  0  0  0  0  0  0  0
   58.2210   31.9646   44.2482 H   0  0  0  0  0  0  0  0  0  0  0  0
   56.4510   31.6582   44.2482 H   0  0  0  0  0  0  0  0  0  0  0  0
   58.3350   29.7730   46.2990 N   0  0  0  0  0  0  0  0  0  0  0  0
   58.9220   30.6510   47.2690 C   0  0  0  0  0  0  0  0  0  0  0  0
   58.8240   30.3560   48.6340 C   0  0  0  0  0  0  0  0  0  0  0  0
   58.2897   29.4526   48.9631 H   0  0  0  0  0  0  0  0  0  0  0  0
   59.4030   31.2060   49.5790 C   0  0  0  0  0  0  0  0  0  0  0  0
   59.3149   30.9743   50.6507 H   0  0  0  0  0  0  0  0  0  0  0  0
   60.0970   32.3550   49.1670 C   0  0  0  0  0  0  0  0  0  0  0  0
   60.7480   33.2450   50.1540 C   0  0  0  0  0  0  0  0  0  0  0  0
   60.9070   34.4610   49.8570 O   0  0  0  0  0  0  0  0  0  0  0  0
   61.2480   32.7460   51.4160 N   0  0  0  0  0  0  0  0  0  0  0  0
   61.6880   33.6940   52.4500 C   0  0  0  0  0  0  0  0  0  0  0  0
   61.2354   34.6794   52.2655 H   0  0  0  0  0  0  0  0  0  0  0  0
   61.3757   33.3376   53.4427 H   0  0  0  0  0  0  0  0  0  0  0  0
   63.2150   33.8090   52.3930 C   0  0  0  0  0  0  0  0  0  0  0  0
   63.4947   34.5029   51.5866 H   0  0  0  0  0  0  0  0  0  0  0  0
   63.5772   34.1829   53.3621 H   0  0  0  0  0  0  0  0  0  0  0  0
   63.8290   32.4940   52.1340 N   0  0  0  0  0  0  0  0  0  0  0  0
   65.2140   32.3920   51.7620 C   0  0  0  0  0  0  0  0  0  0  0  0
   65.9810   31.6400   52.4200 O   0  0  0  0  0  0  0  0  0  0  0  0
   65.7430   33.0920   50.5390 C   0  0  0  0  0  0  0  0  0  0  0  0
   65.2564   34.0743   50.4477 H   0  0  0  0  0  0  0  0  0  0  0  0
   66.8314   33.2103   50.6455 H   0  0  0  0  0  0  0  0  0  0  0  0
   65.4830   32.3360   49.3710 O   0  0  0  0  0  0  0  0  0  0  0  0
   64.1020   32.3780   49.0530 C   0  0  0  0  0  0  0  0  0  0  0  0
   63.9288   31.8541   48.1014 H   0  0  0  0  0  0  0  0  0  0  0  0
   63.5268   31.8872   49.8519 H   0  0  0  0  0  0  0  0  0  0  0  0
   63.6550   33.8270   48.9230 C   0  0  0  0  0  0  0  0  0  0  0  0
   62.6198   33.9251   49.2818 H   0  0  0  0  0  0  0  0  0  0  0  0
   64.3140   34.4697   49.5253 H   0  0  0  0  0  0  0  0  0  0  0  0
   63.7230   34.2200   47.5700 O   0  0  0  0  0  0  0  0  0  0  0  0
   63.4750   33.1040   46.7440 C   0  0  0  0  0  0  0  0  0  0  0  0
   63.2788   32.2210   47.3699 H   0  0  0  0  0  0  0  0  0  0  0  0
   62.5996   33.3052   46.1089 H   0  0  0  0  0  0  0  0  0  0  0  0
   64.3532   32.9155   46.1089 H   0  0  0  0  0  0  0  0  0  0  0  0
   63.0360   31.2750   52.3380 C   0  0  0  0  0  0  0  0  0  0  0  0
   63.6188   30.4014   52.0107 H   0  0  0  0  0  0  0  0  0  0  0  0
   62.7887   31.1773   53.4054 H   0  0  0  0  0  0  0  0  0  0  0  0
   61.7350   31.3560   51.5210 C   0  0  0  0  0  0  0  0  0  0  0  0
   61.9229   30.9657   50.5099 H   0  0  0  0  0  0  0  0  0  0  0  0
   60.9670   30.7589   52.0346 H   0  0  0  0  0  0  0  0  0  0  0  0
   60.1680   32.6600   47.7980 C   0  0  0  0  0  0  0  0  0  0  0  0
   60.6846   33.5729   47.4668 H   0  0  0  0  0  0  0  0  0  0  0  0
   59.5860   31.8100   46.8550 C   0  0  0  0  0  0  0  0  0  0  0  0
   59.6501   32.0528   45.7840 H   0  0  0  0  0  0  0  0  0  0  0  0
   58.3230   28.4180   46.3260 C   0  0  0  0  0  0  0  0  0  0  0  0
   58.8090   27.7000   47.3510 C   0  0  0  0  0  0  0  0  0  0  0  0
   59.3459   28.2027   48.1690 H   0  0  0  0  0  0  0  0  0  0  0  0
   58.6703   26.6090   47.3729 H   0  0  0  0  0  0  0  0  0  0  0  0
  1  2  1  0
  2  3  1  0
  3  4  1  0
  4  5  1  0
  5  6  2  0
  5  7  1  0
  7  8  1  0
  8  9  1  0
  9 10  1  0
  9 11  2  0
 11 12  1  0
 12 13  1  0
 12 14  2  0
 14 15  1  0
 15 16  1  0
 15 17  1  0
 15 18  1  0
 14 19  1  0
 19 20  1  0
 20 21  2  0
 21 22  1  0
 21 23  1  0
 23 24  1  0
 23 25  2  0
 25 26  1  0
 26 27  2  0
 26 28  1  0
 28 29  1  0
 29 30  1  0
 29 31  1  0
 29 32  1  0
 32 33  1  0
 32 34  1  0
 32 35  1  0
 35 36  1  0
 36 37  2  0
 36 38  1  0
 38 39  1  0
 38 40  1  0
 38 41  1  0
 41 42  1  0
 42 43  1  0
 42 44  1  0
 42 45  1  0
 45 46  1  0
 45 47  1  0
 45 48  1  0
 48 49  1  0
 49 50  1  0
 49 51  1  0
 49 52  1  0
 35 53  1  0
 53 54  1  0
 53 55  1  0
 53 56  1  0
 56 57  1  0
 56 58  1  0
 25 59  1  0
 59 60  1  0
 59 61  2  0
 61 62  1  0
 19 63  1  0
 63 64  2  0
 64 65  1  0
 64 66  1  0
  8  3  2  0
 63 11  1  0
 61 20  1  0
 56 28  1  0
M  CHG  2   4  -1   7  -1
M  END
>  <UniqueID>  (28) 
27

>  <SMILES>  (28) 
C=c1/c(=C\c2[n-]c(=O)[n-]c2O)cc(C)n1-c1ccc(C(=O)N2CCN(C(=O)COCCOC)CC2)cc1

>  <Energy>  (28) 
154.1314194542958

>  <Genealogy>  (28) 
C=c1c(=Cc2[n-]c(=O)[n-]c2O)cc(C)n1-c1ccc(C(=O)N2CCN(C(=O)COCCOC)CC2)cc1 (protonated)
C=c1/c(=C\c2[n-]c(=O)[n-]c2O)cc(C)n1-c1ccc(C(=O)N2CCN(C(=O)COCCOC)CC2)cc1 (cis-trans isomerization)
C=c1/c(=C\c2[n-]c(=O)[n-]c2O)cc(C)n1-c1ccc(C(=O)N2CCN(C(=O)COCCOC)CC2)cc1 (3D coordinates assigned)
C=c1/c(=C\c2[n-]c(=O)[n-]c2O)cc(C)n1-c1ccc(C(=O)N2CCN(C(=O)COCCOC)CC2)cc1 (nonaromatic ring conformer: 154.1314194542958 kcal/mol)

>  <smiles>  (28) 
C=c1c(=Cc2[nH]c(=O)[nH]c2O)cc(C)n1-c1ccc(C(=O)N2CCN(C(=O)COCCOC)CC2)cc1

>  <score_type>  (28) 
oracle

>  <origin>  (28) 
adg

>  <m_score__min__energy>  (28) 
-12.24

>  <m_primary>  (28) 
energy

$$$$
28:0
     RDKit          3D

 54 56  0  0  0  0  0  0  0  0999 V2000
   57.8220   32.9810   47.4790 C   0  0  0  0  0  0  0  0  0  0  0  0
   58.1200   34.2910   46.8760 N   0  0  0  0  0  0  0  0  0  0  0  0
   58.2500   34.2040   45.4060 C   0  0  0  0  0  0  0  0  0  0  0  0
   57.5190   33.0000   44.8780 C   0  0  0  0  0  0  0  0  0  0  0  0
   58.1270   31.9360   44.3340 C   0  0  0  0  0  0  0  0  0  0  0  0
   58.3970   30.6900   45.0760 C   0  0  0  0  0  0  0  0  0  0  0  0
   59.6020   30.6040   45.7900 C   0  0  0  0  0  0  0  0  0  0  0  0
   59.8790   29.4880   46.5820 C   0  0  0  0  0  0  0  0  0  0  0  0
   58.9560   28.4460   46.6680 C   0  0  0  0  0  0  0  0  0  0  0  0
   57.7630   28.5060   45.9460 C   0  0  0  0  0  0  0  0  0  0  0  0
   57.4740   29.6140   45.1260 C   0  0  0  0  0  0  0  0  0  0  0  0
   56.2630   29.6180   44.3470 N   0  0  0  0  0  0  0  0  0  0  0  0
   55.1600   29.4130   44.8970 O   0  0  0  0  0  0  0  0  0  0  0  0
   56.3070   29.7310   42.9760 O   0  0  0  0  0  0  0  0  0  0  0  0
   59.2760   34.9610   47.5150 C   0  0  0  0  0  0  0  0  0  0  0  0
   60.5440   34.1310   47.4990 C   0  0  0  0  0  0  0  0  0  0  0  0
   61.4370   34.2230   46.4210 C   0  0  0  0  0  0  0  0  0  0  0  0
   62.5970   33.4480   46.4020 C   0  0  0  0  0  0  0  0  0  0  0  0
   62.8780   32.5760   47.4550 C   0  0  0  0  0  0  0  0  0  0  0  0
   62.0040   32.4730   48.5520 C   0  0  0  0  0  0  0  0  0  0  0  0
   62.3060   31.5140   49.6510 C   0  0  0  0  0  0  0  0  0  0  0  0
   61.8390   30.3410   49.5750 O   0  0  0  0  0  0  0  0  0  0  0  0
   63.0460   31.9240   50.8340 N   0  0  0  0  0  0  0  0  0  0  0  0
   64.3240   31.2020   50.9180 C   0  0  0  0  0  0  0  0  0  0  0  0
   65.3770   32.0580   50.2280 C   0  0  0  0  0  0  0  0  0  0  0  0
   64.8040   33.4660   50.2060 C   0  0  0  0  0  0  0  0  0  0  0  0
   63.4070   33.3520   50.8080 C   0  0  0  0  0  0  0  0  0  0  0  0
   60.8360   33.2620   48.5630 C   0  0  0  0  0  0  0  0  0  0  0  0
   57.8420   33.0689   48.5753 H   0  0  0  0  0  0  0  0  0  0  0  0
   56.8249   32.6470   47.1561 H   0  0  0  0  0  0  0  0  0  0  0  0
   58.5765   32.2485   47.1561 H   0  0  0  0  0  0  0  0  0  0  0  0
   57.8262   35.1117   44.9517 H   0  0  0  0  0  0  0  0  0  0  0  0
   59.3158   34.1111   45.1501 H   0  0  0  0  0  0  0  0  0  0  0  0
   56.4209   32.9920   44.9420 H   0  0  0  0  0  0  0  0  0  0  0  0
   58.4403   31.9952   43.2812 H   0  0  0  0  0  0  0  0  0  0  0  0
   60.3342   31.4224   45.7252 H   0  0  0  0  0  0  0  0  0  0  0  0
   60.8260   29.4306   47.1386 H   0  0  0  0  0  0  0  0  0  0  0  0
   59.1686   27.5754   47.3059 H   0  0  0  0  0  0  0  0  0  0  0  0
   57.0410   27.6793   46.0182 H   0  0  0  0  0  0  0  0  0  0  0  0
   59.4704   35.9030   46.9814 H   0  0  0  0  0  0  0  0  0  0  0  0
   59.0110   35.1244   48.5700 H   0  0  0  0  0  0  0  0  0  0  0  0
   61.2219   34.9084   45.5880 H   0  0  0  0  0  0  0  0  0  0  0  0
   63.2930   33.5245   45.5536 H   0  0  0  0  0  0  0  0  0  0  0  0
   63.7914   31.9637   47.4266 H   0  0  0  0  0  0  0  0  0  0  0  0
   62.4690   31.7500   51.6900 H   0  0  0  0  0  0  0  0  0  0  0  0
   64.5985   31.0450   51.9716 H   0  0  0  0  0  0  0  0  0  0  0  0
   64.2461   30.2172   50.4341 H   0  0  0  0  0  0  0  0  0  0  0  0
   66.3209   32.0357   50.7924 H   0  0  0  0  0  0  0  0  0  0  0  0
   65.6010   31.6923   49.2150 H   0  0  0  0  0  0  0  0  0  0  0  0
   65.4272   34.1433   50.8084 H   0  0  0  0  0  0  0  0  0  0  0  0
   64.7745   33.8767   49.1860 H   0  0  0  0  0  0  0  0  0  0  0  0
   63.4054   33.7576   51.8305 H   0  0  0  0  0  0  0  0  0  0  0  0
   62.6816   33.9221   50.2090 H   0  0  0  0  0  0  0  0  0  0  0  0
   60.1444   33.1963   49.4158 H   0  0  0  0  0  0  0  0  0  0  0  0
  1  2  1  0
  2  3  1  0
  3  4  1  0
  4  5  2  3
  5  6  1  0
  6  7  2  0
  7  8  1  0
  8  9  2  0
  9 10  1  0
 10 11  2  0
 11 12  1  0
 12 13  2  0
 12 14  1  0
  2 15  1  0
 15 16  1  0
 16 17  2  0
 17 18  1  0
 18 19  2  0
 19 20  1  0
 20 21  1  0
 21 22  2  0
 21 23  1  0
 23 24  1  0
 24 25  1  0
 25 26  1  0
 26 27  1  0
 20 28  2  0
 11  6  1  0
 28 16  1  0
 27 23  1  0
  1 29  1  0
  1 30  1  0
  1 31  1  0
  3 32  1  0
  3 33  1  0
  4 34  1  0
  5 35  1  0
  7 36  1  0
  8 37  1  0
  9 38  1  0
 10 39  1  0
 15 40  1  0
 15 41  1  0
 17 42  1  0
 18 43  1  0
 19 44  1  0
 23 45  1  0
 24 46  1  0
 24 47  1  0
 25 48  1  0
 25 49  1  0
 26 50  1  0
 26 51  1  0
 27 52  1  0
 27 53  1  0
 28 54  1  0
M  CHG  3  12   1  14  -1  23   1
M  END
>  <UniqueID>  (29) 
28

>  <SMILES>  (29) 
CN(CC=Cc1ccccc1[N+](=O)[O-])Cc1cccc(C(=O)[NH+]2CCCC2)c1

>  <Energy>  (29) 
73.30677101236749

>  <Genealogy>  (29) 
CN(CC=Cc1ccccc1[N+](=O)[O-])Cc1cccc(C(=O)[NH+]2CCCC2)c1 (protonated)
CN(CC=Cc1ccccc1[N+](=O)[O-])Cc1cccc(C(=O)[NH+]2CCCC2)c1 (3D coordinates assigned)
CN(CC=Cc1ccccc1[N+](=O)[O-])Cc1cccc(C(=O)[NH+]2CCCC2)c1 (nonaromatic ring conformer: 73.30677101236749 kcal/mol)

>  <smiles>  (29) 
CN(CC=Cc1ccccc1[N+](=O)[O-])Cc1cccc(C(=O)N2CCCC2)c1

>  <score_type>  (29) 
oracle

>  <origin>  (29) 
adg

>  <m_score__min__energy>  (29) 
-8.3900000000000006

>  <m_primary>  (29) 
energy

$$$$
29:0
     RDKit          3D

 59 62  0  0  0  0  0  0  0  0999 V2000
   56.8930   19.6080   43.1240 H   0  0  0  0  0  0  0  0  0  0  0  0
   56.3120   20.4240   42.9750 O   0  0  0  0  0  0  0  0  0  0  0  0
   56.6250   21.6560   43.5470 C   0  0  0  0  0  0  0  0  0  0  0  0
   56.1350   22.8310   42.9680 C   0  0  0  0  0  0  0  0  0  0  0  0
   55.5067   22.7771   42.0667 H   0  0  0  0  0  0  0  0  0  0  0  0
   56.4410   24.0750   43.5310 C   0  0  0  0  0  0  0  0  0  0  0  0
   56.0612   24.9962   43.0649 H   0  0  0  0  0  0  0  0  0  0  0  0
   57.2320   24.1510   44.6900 C   0  0  0  0  0  0  0  0  0  0  0  0
   57.5900   25.4910   45.2820 C   0  0  0  0  0  0  0  0  0  0  0  0
   57.8928   26.1712   44.4723 H   0  0  0  0  0  0  0  0  0  0  0  0
   58.4136   25.3463   45.9966 H   0  0  0  0  0  0  0  0  0  0  0  0
   56.4280   26.0900   46.0140 C   0  0  0  0  0  0  0  0  0  0  0  0
   55.9320   25.4890   47.0080 O   0  0  0  0  0  0  0  0  0  0  0  0
   55.9460   27.3830   45.6220 N   0  0  0  0  0  0  0  0  0  0  0  0
   56.6650   28.3510   45.1360 C   0  0  0  0  0  0  0  0  0  0  0  0
   58.0160   28.3390   45.0700 N   0  0  0  0  0  0  0  0  0  0  0  0
   58.4990   29.4940   44.5390 C   0  0  0  0  0  0  0  0  0  0  0  0
   59.5750   29.6831   44.4108 H   0  0  0  0  0  0  0  0  0  0  0  0
   57.5250   30.4190   44.1700 C   0  0  0  0  0  0  0  0  0  0  0  0
   57.7650   31.7870   43.6000 C   0  0  0  0  0  0  0  0  0  0  0  0
   56.8109   32.1964   43.2365 H   0  0  0  0  0  0  0  0  0  0  0  0
   58.4887   31.6985   42.7764 H   0  0  0  0  0  0  0  0  0  0  0  0
   58.3360   32.7190   44.6380 C   0  0  0  0  0  0  0  0  0  0  0  0
   58.2950   34.1090   44.4470 C   0  0  0  0  0  0  0  0  0  0  0  0
   57.8604   34.5230   43.5252 H   0  0  0  0  0  0  0  0  0  0  0  0
   58.8040   34.9680   45.4230 C   0  0  0  0  0  0  0  0  0  0  0  0
   58.7847   36.0556   45.2597 H   0  0  0  0  0  0  0  0  0  0  0  0
   59.3380   34.4510   46.6070 C   0  0  0  0  0  0  0  0  0  0  0  0
   59.7348   35.1337   47.3728 H   0  0  0  0  0  0  0  0  0  0  0  0
   59.3700   33.0630   46.8230 C   0  0  0  0  0  0  0  0  0  0  0  0
   59.8850   32.5220   48.1020 C   0  0  0  0  0  0  0  0  0  0  0  0
   59.3200   31.5150   48.6080 O   0  0  0  0  0  0  0  0  0  0  0  0
   61.0290   33.0990   48.7670 N   0  0  0  0  0  0  0  0  0  0  0  0
   62.1090   33.7410   48.0020 C   0  0  0  0  0  0  0  0  0  0  0  0
   62.0411   34.8322   48.1233 H   0  0  0  0  0  0  0  0  0  0  0  0
   62.0043   33.4737   46.9401 H   0  0  0  0  0  0  0  0  0  0  0  0
   63.4730   33.2600   48.5060 C   0  0  0  0  0  0  0  0  0  0  0  0
   64.2576   33.8957   48.0698 H   0  0  0  0  0  0  0  0  0  0  0  0
   63.5980   32.2104   48.2016 H   0  0  0  0  0  0  0  0  0  0  0  0
   63.5700   33.3240   49.9750 N   0  0  0  0  0  0  0  0  0  0  0  0
   64.8500   33.1450   50.6240 C   0  0  0  0  0  0  0  0  0  0  0  0
   64.9890   33.4380   51.8460 O   0  0  0  0  0  0  0  0  0  0  0  0
   66.0440   32.6400   49.8690 C   0  0  0  0  0  0  0  0  0  0  0  0
   66.8165   32.3133   50.5807 H   0  0  0  0  0  0  0  0  0  0  0  0
   65.7456   31.7910   49.2364 H   0  0  0  0  0  0  0  0  0  0  0  0
   66.4453   33.4454   49.2364 H   0  0  0  0  0  0  0  0  0  0  0  0
   62.3850   33.6890   50.7690 C   0  0  0  0  0  0  0  0  0  0  0  0
   62.2322   34.7769   50.7130 H   0  0  0  0  0  0  0  0  0  0  0  0
   62.5471   33.3834   51.8132 H   0  0  0  0  0  0  0  0  0  0  0  0
   61.1390   32.9750   50.2290 C   0  0  0  0  0  0  0  0  0  0  0  0
   60.2454   33.4188   50.6923 H   0  0  0  0  0  0  0  0  0  0  0  0
   61.2230   31.9064   50.4762 H   0  0  0  0  0  0  0  0  0  0  0  0
   58.9040   32.2020   45.8150 C   0  0  0  0  0  0  0  0  0  0  0  0
   58.9845   31.1131   45.9484 H   0  0  0  0  0  0  0  0  0  0  0  0
   56.0120   29.7810   44.5490 S   0  0  0  0  0  0  0  0  0  0  0  0
   57.7270   22.9700   45.2670 C   0  0  0  0  0  0  0  0  0  0  0  0
   58.3533   23.0216   46.1698 H   0  0  0  0  0  0  0  0  0  0  0  0
   57.4260   21.7280   44.6970 C   0  0  0  0  0  0  0  0  0  0  0  0
   57.8181   20.8061   45.1513 H   0  0  0  0  0  0  0  0  0  0  0  0
  1  2  1  0
  2  3  1  0
  3  4  2  0
  4  5  1  0
  4  6  1  0
  6  7  1  0
  6  8  2  0
  8  9  1  0
  9 10  1  0
  9 11  1  0
  9 12  1  0
 12 13  2  0
 12 14  1  0
 14 15  2  0
 15 16  1  0
 16 17  1  0
 17 18  1  0
 17 19  2  0
 19 20  1  0
 20 21  1  0
 20 22  1  0
 20 23  1  0
 23 24  2  0
 24 25  1  0
 24 26  1  0
 26 27  1  0
 26 28  2  0
 28 29  1  0
 28 30  1  0
 30 31  1  0
 31 32  2  0
 31 33  1  0
 33 34  1  0
 34 35  1  0
 34 36  1  0
 34 37  1  0
 37 38  1  0
 37 39  1  0
 37 40  1  0
 40 41  1  0
 41 42  2  0
 41 43  1  0
 43 44  1  0
 43 45  1  0
 43 46  1  0
 40 47  1  0
 47 48  1  0
 47 49  1  0
 47 50  1  0
 50 51  1  0
 50 52  1  0
 30 53  2  0
 53 54  1  0
 19 55  1  0
  8 56  1  0
 56 57  1  0
 56 58  2  0
 58 59  1  0
 58  3  1  0
 55 15  1  0
 53 23  1  0
 50 33  1  0
M  CHG  1  16  -1
M  END
>  <UniqueID>  (30) 
29

>  <SMILES>  (30) 
CC(=O)N1CCN(C(=O)c2cccc(Cc3c[n-]/c(=N\C(=O)Cc4ccc(O)cc4)s3)c2)CC1

>  <Energy>  (30) 
94.80527666399729

>  <Genealogy>  (30) 
CC(=O)N1CCN(C(=O)c2cccc(Cc3c[n-]c(=NC(=O)Cc4ccc(O)cc4)s3)c2)CC1 (protonated)
CC(=O)N1CCN(C(=O)c2cccc(Cc3c[n-]/c(=N\C(=O)Cc4ccc(O)cc4)s3)c2)CC1 (cis-trans isomerization)
CC(=O)N1CCN(C(=O)c2cccc(Cc3c[n-]/c(=N\C(=O)Cc4ccc(O)cc4)s3)c2)CC1 (3D coordinates assigned)
CC(=O)N1CCN(C(=O)c2cccc(Cc3c[n-]/c(=N\C(=O)Cc4ccc(O)cc4)s3)c2)CC1 (nonaromatic ring conformer: 94.80527666399729 kcal/mol)

>  <smiles>  (30) 
CC(=O)N1CCN(C(=O)c2cccc(Cc3c[nH]c(=NC(=O)Cc4ccc(O)cc4)s3)c2)CC1

>  <score_type>  (30) 
oracle

>  <origin>  (30) 
adg

>  <m_score__min__energy>  (30) 
-12.949999999999999

>  <m_primary>  (30) 
energy

$$$$
30:0
     RDKit          3D

 22 23  0  0  0  0  0  0  0  0999 V2000
   56.5720   31.3340   51.4840 O   0  0  0  0  0  0  0  0  0  0  0  0
   55.7240   30.5140   51.9210 C   0  0  0  0  0  0  0  0  0  0  0  0
   54.4130   30.6600   51.6010 N   0  0  0  0  0  0  0  0  0  0  0  0
   53.4690   29.7920   52.0560 C   0  0  0  0  0  0  0  0  0  0  0  0
   52.0290   30.0330   51.6710 C   0  0  0  0  0  0  0  0  0  0  0  0
   51.4470   31.2260   52.4020 C   0  0  0  0  0  0  0  0  0  0  0  0
   50.9650   32.3510   51.7040 C   0  0  0  0  0  0  0  0  0  0  0  0
   51.0160   32.4070   50.3160 O   0  0  0  0  0  0  0  0  0  0  0  0
   50.4460   33.4030   52.3870 N   0  0  0  0  0  0  0  0  0  0  0  0
   50.3920   33.4050   53.7420 C   0  0  0  0  0  0  0  0  0  0  0  0
   49.9030   34.3920   54.3510 O   0  0  0  0  0  0  0  0  0  0  0  0
   50.8710   32.3460   54.4420 N   0  0  0  0  0  0  0  0  0  0  0  0
   51.3990   31.2670   53.8100 C   0  0  0  0  0  0  0  0  0  0  0  0
   51.8500   30.3130   54.4980 O   0  0  0  0  0  0  0  0  0  0  0  0
   53.8630   28.7160   52.8780 C   0  0  0  0  0  0  0  0  0  0  0  0
   52.6820   27.5150   53.5110 S   0  0  0  0  0  0  0  0  0  0  0  0
   55.2230   28.5880   53.1930 C   0  0  0  0  0  0  0  0  0  0  0  0
   55.6260   27.6430   53.9230 O   0  0  0  0  0  0  0  0  0  0  0  0
   56.1200   29.4850   52.7100 N   0  0  0  0  0  0  0  0  0  0  0  0
   51.9754   30.2174   50.5879 H   0  0  0  0  0  0  0  0  0  0  0  0
   51.4457   29.1424   51.9479 H   0  0  0  0  0  0  0  0  0  0  0  0
   53.6380   26.9510   54.3750 H   0  0  0  0  0  0  0  0  0  0  0  0
  1  2  2  0
  2  3  1  0
  3  4  1  0
  4  5  1  0
  5  6  1  0
  6  7  2  0
  7  8  1  0
  7  9  1  0
  9 10  1  0
 10 11  2  0
 10 12  1  0
 12 13  1  0
 13 14  2  0
  4 15  2  0
 15 16  1  0
 15 17  1  0
 17 18  2  0
 17 19  1  0
 19  2  1  0
 13  6  1  0
  5 20  1  0
  5 21  1  0
 16 22  1  0
M  CHG  5   3  -1   8  -1   9  -1  12  -1  19  -1
M  END
>  <UniqueID>  (31) 
30

>  <SMILES>  (31) 
O=c1[n-]c(Cc2c([O-])[n-]c(=O)[n-]c2=O)c(S)c(=O)[n-]1

>  <Energy>  (31) 
27.1901390635996

>  <Genealogy>  (31) 
O=c1[n-]c(Cc2c([O-])[n-]c(=O)[n-]c2=O)c(S)c(=O)[n-]1 (protonated)
O=c1[n-]c(Cc2c([O-])[n-]c(=O)[n-]c2=O)c(S)c(=O)[n-]1 (3D coordinates assigned)
O=c1[n-]c(Cc2c([O-])[n-]c(=O)[n-]c2=O)c(S)c(=O)[n-]1 (optimized conformer: 27.1901390635996 kcal/mol)

>  <smiles>  (31) 
O=c1[nH]c(Cc2c(O)[nH]c(=O)[nH]c2=O)c(S)c(=O)[nH]1

>  <score_type>  (31) 
oracle

>  <origin>  (31) 
adg

>  <m_score__min__energy>  (31) 
-16.420000000000002

>  <m_primary>  (31) 
energy

$$$$
31:0
     RDKit          3D

 33 35  0  0  0  0  0  0  0  0999 V2000
   56.4390   20.7410   43.3670 N   0  0  0  0  0  0  0  0  0  0  0  0
   56.9970   21.7290   43.9820 C   0  0  0  0  0  0  0  0  0  0  0  0
   58.3110   21.5980   44.3250 N   0  0  0  0  0  0  0  0  0  0  0  0
   58.9550   22.6090   44.9760 C   0  0  0  0  0  0  0  0  0  0  0  0
   60.1940   22.4710   45.2920 N   0  0  0  0  0  0  0  0  0  0  0  0
   58.2800   23.7800   45.2950 C   0  0  0  0  0  0  0  0  0  0  0  0
   58.9000   24.8200   45.9530 C   0  0  0  0  0  0  0  0  0  0  0  0
   58.2350   25.9990   46.2780 C   0  0  0  0  0  0  0  0  0  0  0  0
   58.8860   27.0670   46.9570 N   0  0  0  0  0  0  0  0  0  0  0  0
   58.5380   28.4190   46.5810 C   0  0  0  0  0  0  0  0  0  0  0  0
   58.9620   29.3210   47.7340 C   0  0  0  0  0  0  0  0  0  0  0  0
   60.2950   29.1000   47.9710 O   0  0  0  0  0  0  0  0  0  0  0  0
   60.4090   27.9120   48.6870 C   0  0  0  0  0  0  0  0  0  0  0  0
   59.8450   26.7270   47.9740 C   0  0  0  0  0  0  0  0  0  0  0  0
   56.9060   26.0610   45.8990 C   0  0  0  0  0  0  0  0  0  0  0  0
   56.2660   25.0310   45.2420 C   0  0  0  0  0  0  0  0  0  0  0  0
   56.9480   23.8730   44.9300 C   0  0  0  0  0  0  0  0  0  0  0  0
   56.3330   22.8700   44.2910 N   0  0  0  0  0  0  0  0  0  0  0  0
   56.9360   19.8120   43.3810 H   0  0  0  0  0  0  0  0  0  0  0  0
   58.7960   20.7070   44.0730 H   0  0  0  0  0  0  0  0  0  0  0  0
   60.8410   22.1960   44.4980 H   0  0  0  0  0  0  0  0  0  0  0  0
   59.9589   24.7147   46.2316 H   0  0  0  0  0  0  0  0  0  0  0  0
   59.0698   28.7049   45.6615 H   0  0  0  0  0  0  0  0  0  0  0  0
   57.4591   28.5087   46.3865 H   0  0  0  0  0  0  0  0  0  0  0  0
   58.7997   30.3749   47.4639 H   0  0  0  0  0  0  0  0  0  0  0  0
   58.3697   29.0984   48.6338 H   0  0  0  0  0  0  0  0  0  0  0  0
   61.4752   27.7250   48.8827 H   0  0  0  0  0  0  0  0  0  0  0  0
   59.8290   28.0370   49.6132 H   0  0  0  0  0  0  0  0  0  0  0  0
   60.6735   26.1794   47.5010 H   0  0  0  0  0  0  0  0  0  0  0  0
   59.3165   26.1213   48.7249 H   0  0  0  0  0  0  0  0  0  0  0  0
   56.3347   26.9717   46.1318 H   0  0  0  0  0  0  0  0  0  0  0  0
   55.2063   25.1333   44.9653 H   0  0  0  0  0  0  0  0  0  0  0  0
   55.3230   22.9250   44.0070 H   0  0  0  0  0  0  0  0  0  0  0  0
  1  2  2  3
  2  3  1  0
  3  4  1  0
  4  5  2  3
  4  6  1  0
  6  7  2  0
  7  8  1  0
  8  9  1  0
  9 10  1  0
 10 11  1  0
 11 12  1  0
 12 13  1  0
 13 14  1  0
  8 15  2  0
 15 16  1  0
 16 17  2  0
 17 18  1  0
 18  2  1  0
 17  6  1  0
 14  9  1  0
  1 19  1  0
  3 20  1  0
  5 21  1  0
  7 22  1  0
 10 23  1  0
 10 24  1  0
 11 25  1  0
 11 26  1  0
 13 27  1  0
 13 28  1  0
 14 29  1  0
 14 30  1  0
 15 31  1  0
 16 32  1  0
 18 33  1  0
M  END
>  <smiles>  (32) 
N=c1[nH]c(=N)c2cc(N3CCOCC3)ccc2[nH]1

>  <score_type>  (32) 
oracle

>  <origin>  (32) 
adg

>  <m_score__min__energy>  (32) 
-6.3399999999999999

>  <m_primary>  (32) 
energy

$$$$
32:0
     RDKit          3D

 59 62  0  0  0  0  0  0  0  0999 V2000
   55.1150   29.4350   44.7850 O   0  0  0  0  0  0  0  0  0  0  0  0
   56.2140   29.8510   44.3400 C   0  0  0  0  0  0  0  0  0  0  0  0
   56.9810   29.0500   43.3550 C   0  0  0  0  0  0  0  0  0  0  0  0
   57.4950   27.8300   43.5720 C   0  0  0  0  0  0  0  0  0  0  0  0
   57.9110   27.2980   44.8880 C   0  0  0  0  0  0  0  0  0  0  0  0
   59.2770   27.2220   45.2060 C   0  0  0  0  0  0  0  0  0  0  0  0
   59.6850   26.7890   46.4690 C   0  0  0  0  0  0  0  0  0  0  0  0
   58.7370   26.4450   47.4320 C   0  0  0  0  0  0  0  0  0  0  0  0
   57.3770   26.5400   47.1370 C   0  0  0  0  0  0  0  0  0  0  0  0
   56.9540   26.9660   45.8720 C   0  0  0  0  0  0  0  0  0  0  0  0
   55.5830   27.0370   45.6200 O   0  0  0  0  0  0  0  0  0  0  0  0
   56.6940   31.1260   44.7900 N   0  0  0  0  0  0  0  0  0  0  0  0
   57.7430   31.3300   45.7450 C   0  0  0  0  0  0  0  0  0  0  0  0
   58.2840   30.2250   46.4100 C   0  0  0  0  0  0  0  0  0  0  0  0
   59.3160   30.3970   47.3370 C   0  0  0  0  0  0  0  0  0  0  0  0
   59.8360   31.6710   47.5790 C   0  0  0  0  0  0  0  0  0  0  0  0
   59.3390   32.7830   46.8830 C   0  0  0  0  0  0  0  0  0  0  0  0
   60.0520   34.3790   47.1260 S   0  0  0  0  0  0  0  0  0  0  0  0
   60.3660   34.9910   45.7890 O   0  0  0  0  0  0  0  0  0  0  0  0
   59.0840   35.2800   47.8400 O   0  0  0  0  0  0  0  0  0  0  0  0
   61.5440   34.2310   48.0020 N   0  0  0  0  0  0  0  0  0  0  0  0
   61.6730   33.9580   49.4040 C   0  0  0  0  0  0  0  0  0  0  0  0
   62.9150   33.9810   50.0600 C   0  0  0  0  0  0  0  0  0  0  0  0
   62.9890   33.7180   51.4290 C   0  0  0  0  0  0  0  0  0  0  0  0
   61.8300   33.4470   52.1580 C   0  0  0  0  0  0  0  0  0  0  0  0
   60.5810   33.4410   51.5210 C   0  0  0  0  0  0  0  0  0  0  0  0
   59.3390   33.2020   52.2850 C   0  0  0  0  0  0  0  0  0  0  0  0
   59.1160   33.9110   53.3010 O   0  0  0  0  0  0  0  0  0  0  0  0
   58.4060   32.1600   51.9280 N   0  0  0  0  0  0  0  0  0  0  0  0
   58.8050   31.0140   51.1030 C   0  0  0  0  0  0  0  0  0  0  0  0
   58.1110   29.7440   51.6050 C   0  0  0  0  0  0  0  0  0  0  0  0
   56.7130   29.9390   51.7060 O   0  0  0  0  0  0  0  0  0  0  0  0
   56.4390   30.9110   52.6960 C   0  0  0  0  0  0  0  0  0  0  0  0
   56.9850   32.2810   52.2800 C   0  0  0  0  0  0  0  0  0  0  0  0
   60.5170   33.6600   50.1350 C   0  0  0  0  0  0  0  0  0  0  0  0
   58.2890   32.6060   45.9670 C   0  0  0  0  0  0  0  0  0  0  0  0
   57.1421   29.4943   42.3617 H   0  0  0  0  0  0  0  0  0  0  0  0
   57.6171   27.1712   42.6996 H   0  0  0  0  0  0  0  0  0  0  0  0
   60.0297   27.5053   44.4555 H   0  0  0  0  0  0  0  0  0  0  0  0
   60.7571   26.7190   46.7051 H   0  0  0  0  0  0  0  0  0  0  0  0
   59.0617   26.0987   48.4243 H   0  0  0  0  0  0  0  0  0  0  0  0
   56.6321   26.2786   47.9030 H   0  0  0  0  0  0  0  0  0  0  0  0
   55.1430   27.8400   45.1870 H   0  0  0  0  0  0  0  0  0  0  0  0
   57.8960   29.2168   46.2028 H   0  0  0  0  0  0  0  0  0  0  0  0
   59.7195   29.5277   47.8770 H   0  0  0  0  0  0  0  0  0  0  0  0
   60.6391   31.8028   48.3190 H   0  0  0  0  0  0  0  0  0  0  0  0
   63.8308   34.2066   49.4940 H   0  0  0  0  0  0  0  0  0  0  0  0
   63.9654   33.7244   51.9356 H   0  0  0  0  0  0  0  0  0  0  0  0
   61.8967   33.2374   53.2358 H   0  0  0  0  0  0  0  0  0  0  0  0
   58.5161   31.1987   50.0578 H   0  0  0  0  0  0  0  0  0  0  0  0
   59.8950   30.8817   51.1695 H   0  0  0  0  0  0  0  0  0  0  0  0
   58.3102   28.9225   50.9011 H   0  0  0  0  0  0  0  0  0  0  0  0
   58.5048   29.4991   52.6025 H   0  0  0  0  0  0  0  0  0  0  0  0
   55.3506   30.9845   52.8376 H   0  0  0  0  0  0  0  0  0  0  0  0
   56.9277   30.6067   53.6334 H   0  0  0  0  0  0  0  0  0  0  0  0
   56.4226   32.6501   51.4097 H   0  0  0  0  0  0  0  0  0  0  0  0
   56.8751   32.9869   53.1164 H   0  0  0  0  0  0  0  0  0  0  0  0
   59.5479   33.5966   49.6184 H   0  0  0  0  0  0  0  0  0  0  0  0
   57.8909   33.4728   45.4191 H   0  0  0  0  0  0  0  0  0  0  0  0
  1  2  2  0
  2  3  1  0
  3  4  2  3
  4  5  1  0
  5  6  2  0
  6  7  1  0
  7  8  2  0
  8  9  1  0
  9 10  2  0
 10 11  1  0
  2 12  1  0
 12 13  1  0
 13 14  2  0
 14 15  1  0
 15 16  2  0
 16 17  1  0
 17 18  1  0
 18 19  2  0
 18 20  2  0
 18 21  1  0
 21 22  1  0
 22 23  2  0
 23 24  1  0
 24 25  2  0
 25 26  1  0
 26 27  1  0
 27 28  2  0
 27 29  1  0
 29 30  1  0
 30 31  1  0
 31 32  1  0
 32 33  1  0
 33 34  1  0
 26 35  2  0
 17 36  2  0
 10  5  1  0
 36 13  1  0
 35 22  1  0
 34 29  1  0
  3 37  1  0
  4 38  1  0
  6 39  1  0
  7 40  1  0
  8 41  1  0
  9 42  1  0
 11 43  1  0
 14 44  1  0
 15 45  1  0
 16 46  1  0
 23 47  1  0
 24 48  1  0
 25 49  1  0
 30 50  1  0
 30 51  1  0
 31 52  1  0
 31 53  1  0
 33 54  1  0
 33 55  1  0
 34 56  1  0
 34 57  1  0
 35 58  1  0
 36 59  1  0
M  CHG  2  12  -1  21  -1
M  END
>  <UniqueID>  (33) 
31

>  <SMILES>  (33) 
O=C(C=Cc1ccccc1O)[N-]c1cccc(S(=O)(=O)[N-]c2cccc(C(=O)N3CCOCC3)c2)c1

>  <Energy>  (33) 
91.31292134750886

>  <Genealogy>  (33) 
O=C(C=Cc1ccccc1O)[N-]c1cccc(S(=O)(=O)[N-]c2cccc(C(=O)N3CCOCC3)c2)c1 (protonated)
O=C(C=Cc1ccccc1O)[N-]c1cccc(S(=O)(=O)[N-]c2cccc(C(=O)N3CCOCC3)c2)c1 (3D coordinates assigned)
O=C(C=Cc1ccccc1O)[N-]c1cccc(S(=O)(=O)[N-]c2cccc(C(=O)N3CCOCC3)c2)c1 (nonaromatic ring conformer: 91.31292134750886 kcal/mol)

>  <smiles>  (33) 
O=C(C=Cc1ccccc1O)Nc1cccc(S(=O)(=O)Nc2cccc(C(=O)N3CCOCC3)c2)c1

>  <score_type>  (33) 
oracle

>  <origin>  (33) 
adg

>  <m_score__min__energy>  (33) 
-13.93

>  <m_primary>  (33) 
energy

$$$$
33:0
     RDKit          3D

 54 58  0  0  0  0  0  0  0  0999 V2000
   58.0909   25.9002   48.4698 H   0  0  0  0  0  0  0  0  0  0  0  0
   57.8130   25.5700   47.4580 C   0  0  0  0  0  0  0  0  0  0  0  0
   57.3419   24.5870   47.3102 H   0  0  0  0  0  0  0  0  0  0  0  0
   58.0490   26.3670   46.4030 C   0  0  0  0  0  0  0  0  0  0  0  0
   57.7620   26.1090   45.0500 C   0  0  0  0  0  0  0  0  0  0  0  0
   57.1080   25.0900   44.4590 C   0  0  0  0  0  0  0  0  0  0  0  0
   57.5903   24.6214   43.5885 H   0  0  0  0  0  0  0  0  0  0  0  0
   55.8010   24.5480   44.8780 C   0  0  0  0  0  0  0  0  0  0  0  0
   54.8540   25.3590   45.5250 C   0  0  0  0  0  0  0  0  0  0  0  0
   55.1430   26.6880   45.8190 O   0  0  0  0  0  0  0  0  0  0  0  0
   53.6410   24.8450   45.8680 N   0  0  0  0  0  0  0  0  0  0  0  0
   52.9470   25.4530   46.3580 H   0  0  0  0  0  0  0  0  0  0  0  0
   53.3210   23.5560   45.5720 C   0  0  0  0  0  0  0  0  0  0  0  0
   52.1950   23.0940   45.8940 O   0  0  0  0  0  0  0  0  0  0  0  0
   54.2120   22.7650   44.9220 N   0  0  0  0  0  0  0  0  0  0  0  0
   55.4370   23.2320   44.5630 C   0  0  0  0  0  0  0  0  0  0  0  0
   56.2360   22.4710   43.9560 O   0  0  0  0  0  0  0  0  0  0  0  0
   58.2830   27.1750   44.3340 C   0  0  0  0  0  0  0  0  0  0  0  0
   58.2650   27.3006   43.2413 H   0  0  0  0  0  0  0  0  0  0  0  0
   58.8280   28.0480   45.2510 C   0  0  0  0  0  0  0  0  0  0  0  0
   59.4810   29.3510   44.9050 C   0  0  0  0  0  0  0  0  0  0  0  0
   59.7482   29.8841   45.8294 H   0  0  0  0  0  0  0  0  0  0  0  0
   60.3901   29.1605   44.3158 H   0  0  0  0  0  0  0  0  0  0  0  0
   58.7842   29.9653   44.3158 H   0  0  0  0  0  0  0  0  0  0  0  0
   58.6800   27.5660   46.5040 N   0  0  0  0  0  0  0  0  0  0  0  0
   59.1680   28.2000   47.6990 C   0  0  0  0  0  0  0  0  0  0  0  0
   59.9890   27.4950   48.5880 C   0  0  0  0  0  0  0  0  0  0  0  0
   60.2499   26.4469   48.3797 H   0  0  0  0  0  0  0  0  0  0  0  0
   60.4770   28.1180   49.7370 C   0  0  0  0  0  0  0  0  0  0  0  0
   61.1210   27.5596   50.4322 H   0  0  0  0  0  0  0  0  0  0  0  0
   60.1500   29.4490   50.0070 C   0  0  0  0  0  0  0  0  0  0  0  0
   60.5417   29.9353   50.9126 H   0  0  0  0  0  0  0  0  0  0  0  0
   59.3230   30.1710   49.1280 C   0  0  0  0  0  0  0  0  0  0  0  0
   58.9800   31.5850   49.4050 C   0  0  0  0  0  0  0  0  0  0  0  0
   58.3330   31.8830   50.4460 O   0  0  0  0  0  0  0  0  0  0  0  0
   59.4100   32.6320   48.5210 N   0  0  0  0  0  0  0  0  0  0  0  0
   60.7630   32.8950   48.1680 C   0  0  0  0  0  0  0  0  0  0  0  0
   61.9150   32.7060   48.9550 C   0  0  0  0  0  0  0  0  0  0  0  0
   61.8480   32.1290   50.6140 Cl  0  0  0  0  0  0  0  0  0  0  0  0
   63.1590   33.0670   48.4080 C   0  0  0  0  0  0  0  0  0  0  0  0
   64.0779   32.9126   48.9926 H   0  0  0  0  0  0  0  0  0  0  0  0
   63.2370   33.6240   47.1190 C   0  0  0  0  0  0  0  0  0  0  0  0
   64.2167   33.8894   46.6952 H   0  0  0  0  0  0  0  0  0  0  0  0
   62.0720   33.8420   46.3730 C   0  0  0  0  0  0  0  0  0  0  0  0
   62.1225   34.2936   45.3712 H   0  0  0  0  0  0  0  0  0  0  0  0
   60.8460   33.4740   46.9280 C   0  0  0  0  0  0  0  0  0  0  0  0
   59.4940   33.6600   46.3400 C   0  0  0  0  0  0  0  0  0  0  0  0
   59.3888   33.0885   45.4060 H   0  0  0  0  0  0  0  0  0  0  0  0
   59.2812   34.7059   46.0739 H   0  0  0  0  0  0  0  0  0  0  0  0
   58.5500   33.1110   47.4340 C   0  0  0  0  0  0  0  0  0  0  0  0
   57.9454   32.2835   47.0345 H   0  0  0  0  0  0  0  0  0  0  0  0
   57.8555   33.8873   47.7876 H   0  0  0  0  0  0  0  0  0  0  0  0
   58.8430   29.5380   47.9680 C   0  0  0  0  0  0  0  0  0  0  0  0
   58.2072   30.0966   47.2653 H   0  0  0  0  0  0  0  0  0  0  0  0
  1  2  1  0
  2  3  1  0
  2  4  2  0
  4  5  1  0
  5  6  2  0
  6  7  1  0
  6  8  1  0
  8  9  2  0
  9 10  1  0
  9 11  1  0
 11 12  1  0
 11 13  1  0
 13 14  2  0
 13 15  1  0
 15 16  1  0
 16 17  2  0
  5 18  1  0
 18 19  1  0
 18 20  2  0
 20 21  1  0
 21 22  1  0
 21 23  1  0
 21 24  1  0
 20 25  1  0
 25 26  1  0
 26 27  2  0
 27 28  1  0
 27 29  1  0
 29 30  1  0
 29 31  2  0
 31 32  1  0
 31 33  1  0
 33 34  1  0
 34 35  2  0
 34 36  1  0
 36 37  1  0
 37 38  2  0
 38 39  1  0
 38 40  1  0
 40 41  1  0
 40 42  2  0
 42 43  1  0
 42 44  1  0
 44 45  1  0
 44 46  2  0
 46 47  1  0
 47 48  1  0
 47 49  1  0
 47 50  1  0
 50 51  1  0
 50 52  1  0
 33 53  2  0
 53 54  1  0
 25  4  1  0
 53 26  1  0
 16  8  1  0
 50 36  1  0
 46 37  1  0
M  CHG  2  10  -1  15  -1
M  END
>  <UniqueID>  (34) 
32

>  <SMILES>  (34) 
C=c1/c(=C\c2c([O-])[nH]c(=O)[n-]c2=O)cc(C)n1-c1cccc(C(=O)N2CCc3cccc(Cl)c32)c1

>  <Energy>  (34) 
131.69423315068462

>  <Genealogy>  (34) 
C=c1c(=Cc2c([O-])[nH]c(=O)[n-]c2=O)cc(C)n1-c1cccc(C(=O)N2CCc3cccc(Cl)c32)c1 (protonated)
C=c1/c(=C\c2c([O-])[nH]c(=O)[n-]c2=O)cc(C)n1-c1cccc(C(=O)N2CCc3cccc(Cl)c32)c1 (cis-trans isomerization)
C=c1/c(=C\c2c([O-])[nH]c(=O)[n-]c2=O)cc(C)n1-c1cccc(C(=O)N2CCc3cccc(Cl)c32)c1 (3D coordinates assigned)
C=c1/c(=C\c2c([O-])[nH]c(=O)[n-]c2=O)cc(C)n1-c1cccc(C(=O)N2CCc3cccc(Cl)c32)c1 (nonaromatic ring conformer: 131.69423315068462 kcal/mol)

>  <smiles>  (34) 
C=c1c(=Cc2c(O)[nH]c(=O)[nH]c2=O)cc(C)n1-c1cccc(C(=O)N2CCc3cccc(Cl)c32)c1

>  <score_type>  (34) 
oracle

>  <origin>  (34) 
adg

>  <m_score__min__energy>  (34) 
-16.25

>  <m_primary>  (34) 
energy

$$$$
34:0
     RDKit          3D

 57 60  0  0  0  0  0  0  0  0999 V2000
   55.5210   30.5230   44.7840 O   0  0  0  0  0  0  0  0  0  0  0  0
   56.6910   30.7010   44.3500 C   0  0  0  0  0  0  0  0  0  0  0  0
   57.3220   29.6100   43.5300 C   0  0  0  0  0  0  0  0  0  0  0  0
   58.9270   29.1100   44.2420 S   0  0  0  0  0  0  0  0  0  0  0  0
   58.2710   27.6990   45.1580 C   0  0  0  0  0  0  0  0  0  0  0  0
   57.5880   26.7560   44.4450 N   0  0  0  0  0  0  0  0  0  0  0  0
   57.0330   25.6650   45.0310 C   0  0  0  0  0  0  0  0  0  0  0  0
   57.1640   25.4670   46.4000 C   0  0  0  0  0  0  0  0  0  0  0  0
   57.8690   26.3940   47.1600 C   0  0  0  0  0  0  0  0  0  0  0  0
   58.4480   27.5290   46.5600 C   0  0  0  0  0  0  0  0  0  0  0  0
   59.2040   28.4830   47.4230 C   0  0  0  0  0  0  0  0  0  0  0  0
   58.9730   28.5580   48.6580 O   0  0  0  0  0  0  0  0  0  0  0  0
   60.2630   29.2700   46.8470 N   0  0  0  0  0  0  0  0  0  0  0  0
   60.7290   30.4250   47.2320 C   0  0  0  0  0  0  0  0  0  0  0  0
   60.0020   31.3150   48.0520 C   0  0  0  0  0  0  0  0  0  0  0  0
   60.5690   32.5490   48.4190 C   0  0  0  0  0  0  0  0  0  0  0  0
   59.8140   33.4920   49.2770 C   0  0  0  0  0  0  0  0  0  0  0  0
   59.6750   34.6860   48.8970 O   0  0  0  0  0  0  0  0  0  0  0  0
   59.2430   33.0810   50.5340 N   0  0  0  0  0  0  0  0  0  0  0  0
   59.1380   34.0620   51.6240 C   0  0  0  0  0  0  0  0  0  0  0  0
   58.7230   33.3920   52.9390 C   0  0  0  0  0  0  0  0  0  0  0  0
   57.4340   32.5680   52.7760 C   0  0  0  0  0  0  0  0  0  0  0  0
   57.3440   31.8050   51.4360 C   0  0  0  0  0  0  0  0  0  0  0  0
   58.6890   31.7290   50.7060 C   0  0  0  0  0  0  0  0  0  0  0  0
   61.8350   32.8900   47.9250 C   0  0  0  0  0  0  0  0  0  0  0  0
   62.5180   31.9940   47.1030 C   0  0  0  0  0  0  0  0  0  0  0  0
   61.9550   30.8010   46.7790 N   0  0  0  0  0  0  0  0  0  0  0  0
   57.4320   31.9240   44.7420 C   0  0  0  0  0  0  0  0  0  0  0  0
   57.4190   32.4010   46.0690 C   0  0  0  0  0  0  0  0  0  0  0  0
   58.1110   33.5680   46.4090 C   0  0  0  0  0  0  0  0  0  0  0  0
   58.8260   34.2670   45.4340 C   0  0  0  0  0  0  0  0  0  0  0  0
   58.8610   33.7960   44.1190 C   0  0  0  0  0  0  0  0  0  0  0  0
   58.1710   32.6290   43.7750 C   0  0  0  0  0  0  0  0  0  0  0  0
   56.6497   28.7396   43.5094 H   0  0  0  0  0  0  0  0  0  0  0  0
   57.4907   29.9876   42.5107 H   0  0  0  0  0  0  0  0  0  0  0  0
   57.4710   26.8770   43.4130 H   0  0  0  0  0  0  0  0  0  0  0  0
   56.4786   24.9364   44.4213 H   0  0  0  0  0  0  0  0  0  0  0  0
   56.7140   24.5847   46.8785 H   0  0  0  0  0  0  0  0  0  0  0  0
   57.9758   26.2388   48.2437 H   0  0  0  0  0  0  0  0  0  0  0  0
   58.9952   31.0444   48.4029 H   0  0  0  0  0  0  0  0  0  0  0  0
   60.1144   34.5492   51.7627 H   0  0  0  0  0  0  0  0  0  0  0  0
   58.3692   34.8006   51.3532 H   0  0  0  0  0  0  0  0  0  0  0  0
   59.5327   32.7253   53.2704 H   0  0  0  0  0  0  0  0  0  0  0  0
   58.5336   34.1815   53.6812 H   0  0  0  0  0  0  0  0  0  0  0  0
   57.3851   31.8358   53.5954 H   0  0  0  0  0  0  0  0  0  0  0  0
   56.5956   33.2798   52.7950 H   0  0  0  0  0  0  0  0  0  0  0  0
   56.9945   30.7815   51.6369 H   0  0  0  0  0  0  0  0  0  0  0  0
   56.6453   32.3542   50.7878 H   0  0  0  0  0  0  0  0  0  0  0  0
   59.3900   31.1200   51.2956 H   0  0  0  0  0  0  0  0  0  0  0  0
   58.5388   31.2709   49.7173 H   0  0  0  0  0  0  0  0  0  0  0  0
   62.2875   33.8586   48.1839 H   0  0  0  0  0  0  0  0  0  0  0  0
   63.5145   32.2538   46.7163 H   0  0  0  0  0  0  0  0  0  0  0  0
   56.8611   31.8518   46.8417 H   0  0  0  0  0  0  0  0  0  0  0  0
   58.0920   33.9357   47.4456 H   0  0  0  0  0  0  0  0  0  0  0  0
   59.3622   35.1894   45.7016 H   0  0  0  0  0  0  0  0  0  0  0  0
   59.4314   34.3432   43.3540 H   0  0  0  0  0  0  0  0  0  0  0  0
   58.2066   32.2595   42.7395 H   0  0  0  0  0  0  0  0  0  0  0  0
  1  2  2  0
  2  3  1  0
  3  4  1  0
  4  5  1  0
  5  6  2  0
  6  7  1  0
  7  8  2  0
  8  9  1  0
  9 10  2  0
 10 11  1  0
 11 12  2  0
 11 13  1  0
 13 14  2  3
 14 15  1  0
 15 16  2  0
 16 17  1  0
 17 18  2  0
 17 19  1  0
 19 20  1  0
 20 21  1  0
 21 22  1  0
 22 23  1  0
 23 24  1  0
 16 25  1  0
 25 26  2  0
 26 27  1  0
  2 28  1  0
 28 29  2  0
 29 30  1  0
 30 31  2  0
 31 32  1  0
 32 33  2  0
 10  5  1  0
 27 14  1  0
 33 28  1  0
 24 19  1  0
  3 34  1  0
  3 35  1  0
  6 36  1  0
  7 37  1  0
  8 38  1  0
  9 39  1  0
 15 40  1  0
 20 41  1  0
 20 42  1  0
 21 43  1  0
 21 44  1  0
 22 45  1  0
 22 46  1  0
 23 47  1  0
 23 48  1  0
 24 49  1  0
 24 50  1  0
 25 51  1  0
 26 52  1  0
 29 53  1  0
 30 54  1  0
 31 55  1  0
 32 56  1  0
 33 57  1  0
M  CHG  2   6   1  27  -1
M  END
>  <UniqueID>  (35) 
33

>  <SMILES>  (35) 
O=C(CSc1[nH+]cccc1C(=O)N=c1cc(C(=O)N2CCCCC2)cc[n-]1)c1ccccc1

>  <Energy>  (35) 
75.96899901151798

>  <Genealogy>  (35) 
O=C(CSc1[nH+]cccc1C(=O)N=c1cc(C(=O)N2CCCCC2)cc[n-]1)c1ccccc1 (protonated)
O=C(CSc1[nH+]cccc1C(=O)N=c1cc(C(=O)N2CCCCC2)cc[n-]1)c1ccccc1 (3D coordinates assigned)
O=C(CSc1[nH+]cccc1C(=O)N=c1cc(C(=O)N2CCCCC2)cc[n-]1)c1ccccc1 (nonaromatic ring conformer: 75.96899901151798 kcal/mol)

>  <smiles>  (35) 
O=C(CSc1ncccc1C(=O)N=c1cc(C(=O)N2CCCCC2)cc[nH]1)c1ccccc1

>  <score_type>  (35) 
oracle

>  <origin>  (35) 
adg

>  <m_score__min__energy>  (35) 
-9.4900000000000002

>  <m_primary>  (35) 
energy

$$$$
35:0
     RDKit          3D

 56 60  0  0  0  0  0  0  0  0999 V2000
   58.4704   30.9495   44.1287 H   0  0  0  0  0  0  0  0  0  0  0  0
   58.3450   29.9250   44.5090 C   0  0  0  0  0  0  0  0  0  0  0  0
   58.1255   29.1027   43.8122 H   0  0  0  0  0  0  0  0  0  0  0  0
   58.4600   29.6780   45.8250 C   0  0  0  0  0  0  0  0  0  0  0  0
   58.3270   28.4340   46.4490 C   0  0  0  0  0  0  0  0  0  0  0  0
   58.1330   27.2410   45.8550 C   0  0  0  0  0  0  0  0  0  0  0  0
   58.5275   27.1002   44.8379 H   0  0  0  0  0  0  0  0  0  0  0  0
   57.4240   26.1120   46.4850 C   0  0  0  0  0  0  0  0  0  0  0  0
   58.0530   25.0450   47.0080 N   0  0  0  0  0  0  0  0  0  0  0  0
   57.0400   24.2310   47.3740 C   0  0  0  0  0  0  0  0  0  0  0  0
   57.2320   23.1150   47.9210 O   0  0  0  0  0  0  0  0  0  0  0  0
   55.8050   24.7000   47.0910 N   0  0  0  0  0  0  0  0  0  0  0  0
   56.0650   25.8870   46.5170 C   0  0  0  0  0  0  0  0  0  0  0  0
   55.0820   26.7170   45.9930 O   0  0  0  0  0  0  0  0  0  0  0  0
   58.5060   28.6590   47.8070 C   0  0  0  0  0  0  0  0  0  0  0  0
   58.4785   27.9041   48.6066 H   0  0  0  0  0  0  0  0  0  0  0  0
   58.7250   30.0120   47.9600 C   0  0  0  0  0  0  0  0  0  0  0  0
   58.9470   30.6860   49.2800 C   0  0  0  0  0  0  0  0  0  0  0  0
   58.7155   29.9833   50.0940 H   0  0  0  0  0  0  0  0  0  0  0  0
   59.9973   31.0037   49.3574 H   0  0  0  0  0  0  0  0  0  0  0  0
   58.2911   31.5657   49.3574 H   0  0  0  0  0  0  0  0  0  0  0  0
   58.7310   30.6280   46.7540 N   0  0  0  0  0  0  0  0  0  0  0  0
   58.9350   32.0350   46.5180 C   0  0  0  0  0  0  0  0  0  0  0  0
   57.8390   32.8260   46.1350 C   0  0  0  0  0  0  0  0  0  0  0  0
   56.8543   32.3589   45.9861 H   0  0  0  0  0  0  0  0  0  0  0  0
   57.9900   34.2000   45.9420 C   0  0  0  0  0  0  0  0  0  0  0  0
   57.1277   34.8092   45.6333 H   0  0  0  0  0  0  0  0  0  0  0  0
   59.2330   34.8020   46.1400 C   0  0  0  0  0  0  0  0  0  0  0  0
   59.3489   35.8855   45.9900 H   0  0  0  0  0  0  0  0  0  0  0  0
   60.3290   34.0310   46.5280 C   0  0  0  0  0  0  0  0  0  0  0  0
   61.3034   34.5138   46.6939 H   0  0  0  0  0  0  0  0  0  0  0  0
   60.2000   32.6430   46.7090 C   0  0  0  0  0  0  0  0  0  0  0  0
   61.3860   31.8710   47.1450 C   0  0  0  0  0  0  0  0  0  0  0  0
   61.5700   30.7260   46.6490 O   0  0  0  0  0  0  0  0  0  0  0  0
   62.3190   32.3870   48.1170 N   0  0  0  0  0  0  0  0  0  0  0  0
   63.7240   31.9610   48.0420 C   0  0  0  0  0  0  0  0  0  0  0  0
   63.7609   30.8973   47.7640 H   0  0  0  0  0  0  0  0  0  0  0  0
   64.2331   32.5799   47.2885 H   0  0  0  0  0  0  0  0  0  0  0  0
   64.4380   32.1500   49.3810 C   0  0  0  0  0  0  0  0  0  0  0  0
   64.0245   31.4448   50.1170 H   0  0  0  0  0  0  0  0  0  0  0  0
   65.5133   31.9612   49.2466 H   0  0  0  0  0  0  0  0  0  0  0  0
   64.2460   33.5270   49.8640 N   0  0  0  0  0  0  0  0  0  0  0  0
   65.0650   33.9690   51.0240 C   0  0  0  0  0  0  0  0  0  0  0  0
   64.3850   34.7975   51.2713 H   0  0  0  0  0  0  0  0  0  0  0  0
   65.7820   32.8420   51.7650 C   0  0  0  0  0  0  0  0  0  0  0  0
   65.8275   32.8499   52.8640 H   0  0  0  0  0  0  0  0  0  0  0  0
   65.6993   31.7452   51.7745 H   0  0  0  0  0  0  0  0  0  0  0  0
   66.5930   33.8470   50.9660 C   0  0  0  0  0  0  0  0  0  0  0  0
   67.2235   34.5829   51.4865 H   0  0  0  0  0  0  0  0  0  0  0  0
   67.3375   33.7795   50.1591 H   0  0  0  0  0  0  0  0  0  0  0  0
   62.8330   33.9690   49.9770 C   0  0  0  0  0  0  0  0  0  0  0  0
   62.5922   34.0824   51.0443 H   0  0  0  0  0  0  0  0  0  0  0  0
   62.7533   34.9125   49.4171 H   0  0  0  0  0  0  0  0  0  0  0  0
   61.8100   32.9980   49.3520 C   0  0  0  0  0  0  0  0  0  0  0  0
   61.5866   32.2015   50.0771 H   0  0  0  0  0  0  0  0  0  0  0  0
   60.9051   33.5709   49.1013 H   0  0  0  0  0  0  0  0  0  0  0  0
  1  2  1  0
  2  3  1  0
  2  4  2  0
  4  5  1  0
  5  6  2  0
  6  7  1  0
  6  8  1  0
  8  9  1  0
  9 10  1  0
 10 11  2  0
 10 12  1  0
 12 13  1  0
 13 14  1  0
  5 15  1  0
 15 16  1  0
 15 17  2  0
 17 18  1  0
 18 19  1  0
 18 20  1  0
 18 21  1  0
 17 22  1  0
 22 23  1  0
 23 24  2  0
 24 25  1  0
 24 26  1  0
 26 27  1  0
 26 28  2  0
 28 29  1  0
 28 30  1  0
 30 31  1  0
 30 32  2  0
 32 33  1  0
 33 34  2  0
 33 35  1  0
 35 36  1  0
 36 37  1  0
 36 38  1  0
 36 39  1  0
 39 40  1  0
 39 41  1  0
 39 42  1  0
 42 43  1  0
 43 44  1  0
 43 45  1  0
 45 46  1  0
 45 47  1  0
 45 48  1  0
 48 49  1  0
 48 50  1  0
 42 51  1  0
 51 52  1  0
 51 53  1  0
 51 54  1  0
 54 55  1  0
 54 56  1  0
 22  4  1  0
 32 23  1  0
 54 35  1  0
 13  8  2  0
 48 43  1  0
M  CHG  3   9  -1  12  -1  14  -1
M  END
>  <UniqueID>  (36) 
34

>  <SMILES>  (36) 
C=c1/c(=C/c2[n-]c(=O)[n-]c2[O-])cc(C)n1-c1ccccc1C(=O)N1CCN(C2CC2)CC1

>  <Energy>  (36) 
415.3274482640702

>  <Genealogy>  (36) 
C=c1c(=Cc2[n-]c(=O)[n-]c2[O-])cc(C)n1-c1ccccc1C(=O)N1CCN(C2CC2)CC1 (protonated)
C=c1/c(=C/c2[n-]c(=O)[n-]c2[O-])cc(C)n1-c1ccccc1C(=O)N1CCN(C2CC2)CC1 (cis-trans isomerization)
C=c1/c(=C/c2[n-]c(=O)[n-]c2[O-])cc(C)n1-c1ccccc1C(=O)N1CCN(C2CC2)CC1 (3D coordinates assigned)
C=c1/c(=C/c2[n-]c(=O)[n-]c2[O-])cc(C)n1-c1ccccc1C(=O)N1CCN(C2CC2)CC1 (nonaromatic ring conformer: 415.3274482640702 kcal/mol)

>  <smiles>  (36) 
C=c1c(=Cc2[nH]c(=O)[nH]c2O)cc(C)n1-c1ccccc1C(=O)N1CCN(C2CC2)CC1

>  <score_type>  (36) 
oracle

>  <origin>  (36) 
adg

>  <m_score__min__energy>  (36) 
-16.800000000000001

>  <m_primary>  (36) 
energy

$$$$
36:0
     RDKit          3D

 39 41  0  0  0  0  0  0  0  0999 V2000
   55.1680   29.7310   43.1930 O   0  0  0  0  0  0  0  0  0  0  0  0
   55.9870   29.8610   44.1390 C   0  0  0  0  0  0  0  0  0  0  0  0
   55.9490   28.9190   45.2190 N   0  0  0  0  0  0  0  0  0  0  0  0
   57.0160   28.0430   45.6130 C   0  0  0  0  0  0  0  0  0  0  0  0
   58.3390   28.4780   45.4690 C   0  0  0  0  0  0  0  0  0  0  0  0
   59.4000   27.6540   45.8560 C   0  0  0  0  0  0  0  0  0  0  0  0
   59.1440   26.3950   46.4060 C   0  0  0  0  0  0  0  0  0  0  0  0
   57.8250   25.9620   46.5770 C   0  0  0  0  0  0  0  0  0  0  0  0
   57.5770   24.7470   47.1240 F   0  0  0  0  0  0  0  0  0  0  0  0
   56.7620   26.7850   46.1910 C   0  0  0  0  0  0  0  0  0  0  0  0
   56.9140   31.0100   44.1350 C   0  0  0  0  0  0  0  0  0  0  0  0
   57.4040   31.6680   45.2500 C   0  0  0  0  0  0  0  0  0  0  0  0
   58.1950   32.6870   44.7640 C   0  0  0  0  0  0  0  0  0  0  0  0
   59.0790   33.8600   45.7280 S   0  0  0  0  0  0  0  0  0  0  0  0
   59.2800   35.1070   44.9130 O   0  0  0  0  0  0  0  0  0  0  0  0
   58.2590   34.2160   46.9380 O   0  0  0  0  0  0  0  0  0  0  0  0
   60.6310   33.2430   46.2380 N   0  0  0  0  0  0  0  0  0  0  0  0
   61.2600   34.1660   47.1980 C   0  0  0  0  0  0  0  0  0  0  0  0
   62.4940   33.5150   47.8550 C   0  0  0  0  0  0  0  0  0  0  0  0
   62.8800   32.3450   47.1610 O   0  0  0  0  0  0  0  0  0  0  0  0
   61.8610   31.3660   47.2620 C   0  0  0  0  0  0  0  0  0  0  0  0
   60.4790   31.9100   46.8380 C   0  0  0  0  0  0  0  0  0  0  0  0
   58.1540   32.6240   43.3880 C   0  0  0  0  0  0  0  0  0  0  0  0
   57.3640   31.6030   43.0090 N   0  0  0  0  0  0  0  0  0  0  0  0
   58.5447   29.4736   45.0490 H   0  0  0  0  0  0  0  0  0  0  0  0
   60.4373   27.9969   45.7275 H   0  0  0  0  0  0  0  0  0  0  0  0
   59.9796   25.7447   46.7043 H   0  0  0  0  0  0  0  0  0  0  0  0
   55.7253   26.4484   46.3395 H   0  0  0  0  0  0  0  0  0  0  0  0
   57.2038   31.4277   46.3046 H   0  0  0  0  0  0  0  0  0  0  0  0
   61.5722   35.0787   46.6693 H   0  0  0  0  0  0  0  0  0  0  0  0
   60.5295   34.4096   47.9835 H   0  0  0  0  0  0  0  0  0  0  0  0
   63.3281   34.2320   47.8430 H   0  0  0  0  0  0  0  0  0  0  0  0
   62.2366   33.2403   48.8886 H   0  0  0  0  0  0  0  0  0  0  0  0
   62.1210   30.5170   46.6127 H   0  0  0  0  0  0  0  0  0  0  0  0
   61.7924   31.0603   48.3164 H   0  0  0  0  0  0  0  0  0  0  0  0
   60.0281   31.2277   46.1023 H   0  0  0  0  0  0  0  0  0  0  0  0
   59.8301   31.9822   47.7233 H   0  0  0  0  0  0  0  0  0  0  0  0
   58.6851   33.3034   42.7051 H   0  0  0  0  0  0  0  0  0  0  0  0
   57.1480   31.3260   42.0260 H   0  0  0  0  0  0  0  0  0  0  0  0
  1  2  2  0
  2  3  1  0
  3  4  1  0
  4  5  2  0
  5  6  1  0
  6  7  2  0
  7  8  1  0
  8  9  1  0
  8 10  2  0
  2 11  1  0
 11 12  2  0
 12 13  1  0
 13 14  1  0
 14 15  2  0
 14 16  2  0
 14 17  1  0
 17 18  1  0
 18 19  1  0
 19 20  1  0
 20 21  1  0
 21 22  1  0
 13 23  2  0
 23 24  1  0
 10  4  1  0
 24 11  1  0
 22 17  1  0
  5 25  1  0
  6 26  1  0
  7 27  1  0
 10 28  1  0
 12 29  1  0
 18 30  1  0
 18 31  1  0
 19 32  1  0
 19 33  1  0
 21 34  1  0
 21 35  1  0
 22 36  1  0
 22 37  1  0
 23 38  1  0
 24 39  1  0
M  CHG  1   3  -1
M  END
>  <UniqueID>  (37) 
35

>  <SMILES>  (37) 
O=C([N-]c1cccc(F)c1)c1cc(S(=O)(=O)N2CCOCC2)c[nH]1

>  <Energy>  (37) 
77.60039339971593

>  <Genealogy>  (37) 
O=C([N-]c1cccc(F)c1)c1cc(S(=O)(=O)N2CCOCC2)c[nH]1 (protonated)
O=C([N-]c1cccc(F)c1)c1cc(S(=O)(=O)N2CCOCC2)c[nH]1 (3D coordinates assigned)
O=C([N-]c1cccc(F)c1)c1cc(S(=O)(=O)N2CCOCC2)c[nH]1 (nonaromatic ring conformer: 77.60039339971593 kcal/mol)

>  <smiles>  (37) 
O=C(Nc1cccc(F)c1)c1cc(S(=O)(=O)N2CCOCC2)c[nH]1

>  <score_type>  (37) 
oracle

>  <origin>  (37) 
adg

>  <m_score__min__energy>  (37) 
-9.5999999999999996

>  <m_primary>  (37) 
energy

$$$$
37:0
     RDKit          3D

 71 75  0  0  0  0  0  0  0  0999 V2000
   56.3030   29.3230   43.8370 C   0  0  0  0  0  0  0  0  0  0  0  0
   57.5160   29.3950   44.7500 C   0  0  0  0  0  0  0  0  0  0  0  0
   58.0060   28.2380   45.3990 C   0  0  0  0  0  0  0  0  0  0  0  0
   57.3350   26.9350   45.1800 C   0  0  0  0  0  0  0  0  0  0  0  0
   57.7650   26.0840   44.1490 C   0  0  0  0  0  0  0  0  0  0  0  0
   57.1440   24.8450   43.9590 C   0  0  0  0  0  0  0  0  0  0  0  0
   56.0930   24.4530   44.7940 C   0  0  0  0  0  0  0  0  0  0  0  0
   55.6610   25.3000   45.8210 C   0  0  0  0  0  0  0  0  0  0  0  0
   56.2810   26.5380   46.0170 C   0  0  0  0  0  0  0  0  0  0  0  0
   59.1440   28.3250   46.2440 C   0  0  0  0  0  0  0  0  0  0  0  0
   59.6540   27.0840   46.9630 C   0  0  0  0  0  0  0  0  0  0  0  0
   59.7610   29.5470   46.4360 N   0  0  0  0  0  0  0  0  0  0  0  0
   60.9520   29.6960   47.3090 C   0  0  0  0  0  0  0  0  0  0  0  0
   60.6070   30.4320   48.5840 C   0  0  0  0  0  0  0  0  0  0  0  0
   59.3000   30.8990   48.7980 C   0  0  0  0  0  0  0  0  0  0  0  0
   58.9670   31.5620   49.9820 C   0  0  0  0  0  0  0  0  0  0  0  0
   59.9350   31.7680   50.9820 C   0  0  0  0  0  0  0  0  0  0  0  0
   59.5800   32.4650   52.2460 C   0  0  0  0  0  0  0  0  0  0  0  0
   59.5920   31.7740   53.4730 C   0  0  0  0  0  0  0  0  0  0  0  0
   59.2670   32.4370   54.6610 C   0  0  0  0  0  0  0  0  0  0  0  0
   58.9250   33.7900   54.6390 C   0  0  0  0  0  0  0  0  0  0  0  0
   58.9050   34.4860   53.4290 C   0  0  0  0  0  0  0  0  0  0  0  0
   59.2320   33.8300   52.2370 C   0  0  0  0  0  0  0  0  0  0  0  0
   61.2440   31.2960   50.7660 C   0  0  0  0  0  0  0  0  0  0  0  0
   61.5740   30.6300   49.5830 C   0  0  0  0  0  0  0  0  0  0  0  0
   59.3010   30.6710   45.7930 C   0  0  0  0  0  0  0  0  0  0  0  0
   59.8800   31.7820   45.9750 O   0  0  0  0  0  0  0  0  0  0  0  0
   58.1970   30.6190   44.9260 C   0  0  0  0  0  0  0  0  0  0  0  0
   57.7570   31.8960   44.2230 C   0  0  0  0  0  0  0  0  0  0  0  0
   57.7630   33.0800   45.1500 C   0  0  0  0  0  0  0  0  0  0  0  0
   56.7230   33.3390   45.8160 O   0  0  0  0  0  0  0  0  0  0  0  0
   58.9450   33.8750   45.3300 N   0  0  0  0  0  0  0  0  0  0  0  0
   59.0660   34.8620   46.4000 C   0  0  0  0  0  0  0  0  0  0  0  0
   60.2630   34.5470   47.2550 C   0  0  0  0  0  0  0  0  0  0  0  0
   60.1750   34.5940   48.6570 C   0  0  0  0  0  0  0  0  0  0  0  0
   61.2820   34.2530   49.4420 C   0  0  0  0  0  0  0  0  0  0  0  0
   62.4790   33.8610   48.8350 C   0  0  0  0  0  0  0  0  0  0  0  0
   62.5710   33.8070   47.4420 C   0  0  0  0  0  0  0  0  0  0  0  0
   61.4680   34.1460   46.6530 C   0  0  0  0  0  0  0  0  0  0  0  0
   55.3885   29.2687   44.4459 H   0  0  0  0  0  0  0  0  0  0  0  0
   56.2681   30.2207   43.2022 H   0  0  0  0  0  0  0  0  0  0  0  0
   56.3745   28.4275   43.2022 H   0  0  0  0  0  0  0  0  0  0  0  0
   58.5906   26.3918   43.4905 H   0  0  0  0  0  0  0  0  0  0  0  0
   57.4827   24.1785   43.1521 H   0  0  0  0  0  0  0  0  0  0  0  0
   55.6055   23.4784   44.6436 H   0  0  0  0  0  0  0  0  0  0  0  0
   54.8323   24.9913   46.4752 H   0  0  0  0  0  0  0  0  0  0  0  0
   55.9425   27.2006   46.8272 H   0  0  0  0  0  0  0  0  0  0  0  0
   59.5906   27.2382   48.0503 H   0  0  0  0  0  0  0  0  0  0  0  0
   59.0392   26.2171   46.6791 H   0  0  0  0  0  0  0  0  0  0  0  0
   60.7007   26.8999   46.6791 H   0  0  0  0  0  0  0  0  0  0  0  0
   61.3371   28.6977   47.5640 H   0  0  0  0  0  0  0  0  0  0  0  0
   61.7114   30.2776   46.7658 H   0  0  0  0  0  0  0  0  0  0  0  0
   58.5317   30.7415   48.0267 H   0  0  0  0  0  0  0  0  0  0  0  0
   57.9400   31.9257   50.1335 H   0  0  0  0  0  0  0  0  0  0  0  0
   59.8584   30.7070   53.4973 H   0  0  0  0  0  0  0  0  0  0  0  0
   59.2810   31.8904   55.6155 H   0  0  0  0  0  0  0  0  0  0  0  0
   58.6711   34.3082   55.5755 H   0  0  0  0  0  0  0  0  0  0  0  0
   58.6318   35.5514   53.4126 H   0  0  0  0  0  0  0  0  0  0  0  0
   59.2172   34.3838   51.2867 H   0  0  0  0  0  0  0  0  0  0  0  0
   62.0139   31.4531   51.5358 H   0  0  0  0  0  0  0  0  0  0  0  0
   62.5983   30.2581   49.4330 H   0  0  0  0  0  0  0  0  0  0  0  0
   58.4436   32.0959   43.3871 H   0  0  0  0  0  0  0  0  0  0  0  0
   56.7271   31.7495   43.8656 H   0  0  0  0  0  0  0  0  0  0  0  0
   59.7740   33.7210   44.7140 H   0  0  0  0  0  0  0  0  0  0  0  0
   59.1851   35.8634   45.9606 H   0  0  0  0  0  0  0  0  0  0  0  0
   58.1594   34.8341   47.0223 H   0  0  0  0  0  0  0  0  0  0  0  0
   59.2341   34.8994   49.1380 H   0  0  0  0  0  0  0  0  0  0  0  0
   61.2104   34.2934   50.5389 H   0  0  0  0  0  0  0  0  0  0  0  0
   63.3484   33.5951   49.4543 H   0  0  0  0  0  0  0  0  0  0  0  0
   63.5128   33.4973   46.9654 H   0  0  0  0  0  0  0  0  0  0  0  0
   61.5435   34.0987   45.5566 H   0  0  0  0  0  0  0  0  0  0  0  0
  1  2  1  0
  2  3  1  0
  3  4  1  0
  4  5  2  0
  5  6  1  0
  6  7  2  0
  7  8  1  0
  8  9  2  0
  3 10  2  0
 10 11  1  0
 10 12  1  0
 12 13  1  0
 13 14  1  0
 14 15  2  0
 15 16  1  0
 16 17  2  0
 17 18  1  0
 18 19  2  0
 19 20  1  0
 20 21  2  0
 21 22  1  0
 22 23  2  0
 17 24  1  0
 24 25  2  0
 12 26  1  0
 26 27  2  0
 26 28  1  0
 28 29  1  0
 29 30  1  0
 30 31  2  0
 30 32  1  0
 32 33  1  0
 33 34  1  0
 34 35  2  0
 35 36  1  0
 36 37  2  0
 37 38  1  0
 38 39  2  0
 28  2  2  0
 39 34  1  0
  9  4  1  0
 25 14  1  0
 23 18  1  0
  1 40  1  0
  1 41  1  0
  1 42  1  0
  5 43  1  0
  6 44  1  0
  7 45  1  0
  8 46  1  0
  9 47  1  0
 11 48  1  0
 11 49  1  0
 11 50  1  0
 13 51  1  0
 13 52  1  0
 15 53  1  0
 16 54  1  0
 19 55  1  0
 20 56  1  0
 21 57  1  0
 22 58  1  0
 23 59  1  0
 24 60  1  0
 25 61  1  0
 29 62  1  0
 29 63  1  0
 32 64  1  0
 33 65  1  0
 33 66  1  0
 35 67  1  0
 36 68  1  0
 37 69  1  0
 38 70  1  0
 39 71  1  0
M  END
>  <UniqueID>  (38) 
36

>  <SMILES>  (38) 
Cc1c(-c2ccccc2)c(C)n(Cc2ccc(-c3ccccc3)cc2)c(=O)c1CC(=O)NCc1ccccc1

>  <Energy>  (38) 
100.8148941193489

>  <Genealogy>  (38) 
Cc1c(-c2ccccc2)c(C)n(Cc2ccc(-c3ccccc3)cc2)c(=O)c1CC(=O)NCc1ccccc1 (3D coordinates assigned)
Cc1c(-c2ccccc2)c(C)n(Cc2ccc(-c3ccccc3)cc2)c(=O)c1CC(=O)NCc1ccccc1 (optimized conformer: 100.8148941193489 kcal/mol)

>  <smiles>  (38) 
Cc1c(-c2ccccc2)c(C)n(Cc2ccc(-c3ccccc3)cc2)c(=O)c1CC(=O)NCc1ccccc1

>  <score_type>  (38) 
oracle

>  <origin>  (38) 
adg

>  <m_score__min__energy>  (38) 
-9.4800000000000004

>  <m_primary>  (38) 
energy

$$$$
38:0
     RDKit          3D

 49 51  0  0  0  0  0  0  0  0999 V2000
   60.2787   28.2574   48.1422 H   0  0  0  0  0  0  0  0  0  0  0  0
   59.5610   27.8480   47.4160 C   0  0  0  0  0  0  0  0  0  0  0  0
   59.3106   26.7770   47.4342 H   0  0  0  0  0  0  0  0  0  0  0  0
   58.9910   28.6550   46.5080 C   0  0  0  0  0  0  0  0  0  0  0  0
   58.0620   28.2960   45.5180 C   0  0  0  0  0  0  0  0  0  0  0  0
   57.6710   27.0880   45.0690 C   0  0  0  0  0  0  0  0  0  0  0  0
   57.7529   26.9020   43.9879 H   0  0  0  0  0  0  0  0  0  0  0  0
   57.1430   25.9950   45.9030 C   0  0  0  0  0  0  0  0  0  0  0  0
   57.8440   24.9100   46.2810 N   0  0  0  0  0  0  0  0  0  0  0  0
   56.9210   24.1410   46.8980 C   0  0  0  0  0  0  0  0  0  0  0  0
   57.2000   23.0270   47.4120 O   0  0  0  0  0  0  0  0  0  0  0  0
   55.6720   24.6560   46.9110 N   0  0  0  0  0  0  0  0  0  0  0  0
   55.8290   25.8220   46.2640 C   0  0  0  0  0  0  0  0  0  0  0  0
   54.7910   26.7080   46.0040 O   0  0  0  0  0  0  0  0  0  0  0  0
   57.5640   29.4840   45.0040 C   0  0  0  0  0  0  0  0  0  0  0  0
   56.7749   29.5905   44.2450 H   0  0  0  0  0  0  0  0  0  0  0  0
   58.2490   30.5070   45.6280 C   0  0  0  0  0  0  0  0  0  0  0  0
   58.0270   31.9650   45.3740 C   0  0  0  0  0  0  0  0  0  0  0  0
   57.9461   32.4962   46.3338 H   0  0  0  0  0  0  0  0  0  0  0  0
   58.8738   32.3704   44.8007 H   0  0  0  0  0  0  0  0  0  0  0  0
   57.0979   32.1000   44.8007 H   0  0  0  0  0  0  0  0  0  0  0  0
   59.1170   30.0060   46.5340 N   0  0  0  0  0  0  0  0  0  0  0  0
   59.9430   30.7820   47.4210 C   0  0  0  0  0  0  0  0  0  0  0  0
   60.9940   31.5330   46.8810 C   0  0  0  0  0  0  0  0  0  0  0  0
   61.1905   31.4986   45.7992 H   0  0  0  0  0  0  0  0  0  0  0  0
   61.7920   32.3230   47.7040 C   0  0  0  0  0  0  0  0  0  0  0  0
   62.6221   32.9013   47.2721 H   0  0  0  0  0  0  0  0  0  0  0  0
   61.5420   32.3830   49.0730 C   0  0  0  0  0  0  0  0  0  0  0  0
   62.1690   33.0217   49.7125 H   0  0  0  0  0  0  0  0  0  0  0  0
   60.4980   31.6370   49.6470 C   0  0  0  0  0  0  0  0  0  0  0  0
   60.2160   31.7510   51.0540 N   0  0  0  0  0  0  0  0  0  0  0  0
   60.9140   31.4160   51.7530 H   0  0  0  0  0  0  0  0  0  0  0  0
   58.7970   32.5270   51.6860 S   0  0  0  0  0  0  0  0  0  0  0  0
   59.1700   33.9000   52.1680 O   0  0  0  0  0  0  0  0  0  0  0  0
   57.7620   32.6620   50.6040 O   0  0  0  0  0  0  0  0  0  0  0  0
   58.1500   31.5730   53.0500 C   0  0  0  0  0  0  0  0  0  0  0  0
   58.6484   30.5926   53.0724 H   0  0  0  0  0  0  0  0  0  0  0  0
   58.3399   32.1217   53.9843 H   0  0  0  0  0  0  0  0  0  0  0  0
   56.6420   31.3650   52.9030 C   0  0  0  0  0  0  0  0  0  0  0  0
   56.2964   30.6536   53.6675 H   0  0  0  0  0  0  0  0  0  0  0  0
   56.1305   32.3302   53.0324 H   0  0  0  0  0  0  0  0  0  0  0  0
   56.3370   30.8360   51.5780 N   0  0  0  0  0  0  0  0  0  0  0  0
   57.2390   30.6030   51.1020 H   0  0  0  0  0  0  0  0  0  0  0  0
   55.9000   31.6070   51.0210 H   0  0  0  0  0  0  0  0  0  0  0  0
   59.7010   30.8060   48.8160 C   0  0  0  0  0  0  0  0  0  0  0  0
   58.6010   29.9600   49.4140 C   0  0  0  0  0  0  0  0  0  0  0  0
   58.6594   30.0049   50.5115 H   0  0  0  0  0  0  0  0  0  0  0  0
   57.6239   30.3415   49.0829 H   0  0  0  0  0  0  0  0  0  0  0  0
   58.7190   28.9177   49.0829 H   0  0  0  0  0  0  0  0  0  0  0  0
  1  2  1  0
  2  3  1  0
  2  4  2  0
  4  5  1  0
  5  6  2  0
  6  7  1  0
  6  8  1  0
  8  9  1  0
  9 10  1  0
 10 11  2  0
 10 12  1  0
 12 13  1  0
 13 14  1  0
  5 15  1  0
 15 16  1  0
 15 17  2  0
 17 18  1  0
 18 19  1  0
 18 20  1  0
 18 21  1  0
 17 22  1  0
 22 23  1  0
 23 24  2  0
 24 25  1  0
 24 26  1  0
 26 27  1  0
 26 28  2  0
 28 29  1  0
 28 30  1  0
 30 31  1  0
 31 32  1  0
 31 33  1  0
 33 34  2  0
 33 35  2  0
 33 36  1  0
 36 37  1  0
 36 38  1  0
 36 39  1  0
 39 40  1  0
 39 41  1  0
 39 42  1  0
 42 43  1  0
 42 44  1  0
 30 45  2  0
 45 46  1  0
 46 47  1  0
 46 48  1  0
 46 49  1  0
 22  4  1  0
 45 23  1  0
 13  8  2  0
M  CHG  3   9  -1  12  -1  14  -1
M  END
>  <UniqueID>  (39) 
37

>  <SMILES>  (39) 
C=c1/c(=C\c2[n-]c(=O)[n-]c2[O-])cc(C)n1-c1cccc(NS(=O)(=O)CCN)c1C

>  <Energy>  (39) 
123.17035908855453

>  <Genealogy>  (39) 
C=c1c(=Cc2[n-]c(=O)[n-]c2[O-])cc(C)n1-c1cccc(NS(=O)(=O)CCN)c1C (protonated)
C=c1/c(=C\c2[n-]c(=O)[n-]c2[O-])cc(C)n1-c1cccc(NS(=O)(=O)CCN)c1C (cis-trans isomerization)
C=c1/c(=C\c2[n-]c(=O)[n-]c2[O-])cc(C)n1-c1cccc(NS(=O)(=O)CCN)c1C (3D coordinates assigned)
C=c1/c(=C\c2[n-]c(=O)[n-]c2[O-])cc(C)n1-c1cccc(NS(=O)(=O)CCN)c1C (optimized conformer: 123.17035908855453 kcal/mol)

>  <smiles>  (39) 
C=c1c(=Cc2[nH]c(=O)[nH]c2O)cc(C)n1-c1cccc(NS(=O)(=O)CCN)c1C

>  <score_type>  (39) 
oracle

>  <origin>  (39) 
adg

>  <m_score__min__energy>  (39) 
-15.390000000000001

>  <m_primary>  (39) 
energy

$$$$
39:0
     RDKit          3D

 52 55  0  0  0  0  0  0  0  0999 V2000
   61.2005   31.5803   51.0332 H   0  0  0  0  0  0  0  0  0  0  0  0
   60.2870   31.4720   50.4300 C   0  0  0  0  0  0  0  0  0  0  0  0
   59.5170   32.5600   50.2600 C   0  0  0  0  0  0  0  0  0  0  0  0
   58.9190   33.1740   51.4190 C   0  0  0  0  0  0  0  0  0  0  0  0
   58.4390   33.6670   52.3490 N   0  0  0  0  0  0  0  0  0  0  0  0
   59.1810   33.1110   48.9320 C   0  0  0  0  0  0  0  0  0  0  0  0
   60.0000   33.9620   48.2580 N   0  0  0  0  0  0  0  0  0  0  0  0
   59.3590   34.1220   47.0920 C   0  0  0  0  0  0  0  0  0  0  0  0
   59.7660   34.8690   45.9910 C   0  0  0  0  0  0  0  0  0  0  0  0
   60.7097   35.4339   46.0043 H   0  0  0  0  0  0  0  0  0  0  0  0
   58.9290   34.8770   44.8600 C   0  0  0  0  0  0  0  0  0  0  0  0
   59.2110   35.4656   43.9746 H   0  0  0  0  0  0  0  0  0  0  0  0
   57.7270   34.1320   44.8560 C   0  0  0  0  0  0  0  0  0  0  0  0
   57.0763   34.1480   43.9693 H   0  0  0  0  0  0  0  0  0  0  0  0
   57.3590   33.3700   45.9810 C   0  0  0  0  0  0  0  0  0  0  0  0
   56.4323   32.7773   45.9890 H   0  0  0  0  0  0  0  0  0  0  0  0
   58.2100   33.3930   47.0840 C   0  0  0  0  0  0  0  0  0  0  0  0
   58.0760   32.7250   48.2390 N   0  0  0  0  0  0  0  0  0  0  0  0
   59.9910   30.1390   49.8620 C   0  0  0  0  0  0  0  0  0  0  0  0
   59.0780   29.9960   48.8080 C   0  0  0  0  0  0  0  0  0  0  0  0
   58.4978   30.8654   48.4653 H   0  0  0  0  0  0  0  0  0  0  0  0
   58.9010   28.7570   48.1910 C   0  0  0  0  0  0  0  0  0  0  0  0
   58.1847   28.6576   47.3621 H   0  0  0  0  0  0  0  0  0  0  0  0
   59.6320   27.6330   48.6210 C   0  0  0  0  0  0  0  0  0  0  0  0
   59.5200   26.3720   48.0110 O   0  0  0  0  0  0  0  0  0  0  0  0
   58.3560   25.8330   47.3830 C   0  0  0  0  0  0  0  0  0  0  0  0
   58.3064   24.7536   47.5889 H   0  0  0  0  0  0  0  0  0  0  0  0
   57.4743   26.3504   47.7890 H   0  0  0  0  0  0  0  0  0  0  0  0
   58.3840   26.0500   45.8640 C   0  0  0  0  0  0  0  0  0  0  0  0
   59.4263   25.9965   45.5165 H   0  0  0  0  0  0  0  0  0  0  0  0
   57.7690   25.2668   45.3968 H   0  0  0  0  0  0  0  0  0  0  0  0
   57.8200   27.3630   45.4830 N   0  0  0  0  0  0  0  0  0  0  0  0
   58.6180   28.3950   45.0320 C   0  0  0  0  0  0  0  0  0  0  0  0
   60.1190   28.2680   44.9230 C   0  0  0  0  0  0  0  0  0  0  0  0
   60.5580   28.2309   45.9309 H   0  0  0  0  0  0  0  0  0  0  0  0
   60.3704   27.3454   44.3793 H   0  0  0  0  0  0  0  0  0  0  0  0
   60.5218   29.1353   44.3793 H   0  0  0  0  0  0  0  0  0  0  0  0
   58.0390   29.6290   44.7080 C   0  0  0  0  0  0  0  0  0  0  0  0
   58.6674   30.4683   44.3751 H   0  0  0  0  0  0  0  0  0  0  0  0
   56.6630   29.7800   44.8120 C   0  0  0  0  0  0  0  0  0  0  0  0
   56.1200   30.8750   44.5110 O   0  0  0  0  0  0  0  0  0  0  0  0
   55.9060   28.7470   45.2470 N   0  0  0  0  0  0  0  0  0  0  0  0
   56.4610   27.5570   45.5870 C   0  0  0  0  0  0  0  0  0  0  0  0
   55.7060   26.6330   45.9950 O   0  0  0  0  0  0  0  0  0  0  0  0
   60.5300   27.7660   49.6930 C   0  0  0  0  0  0  0  0  0  0  0  0
   61.2290   26.6240   50.1180 O   0  0  0  0  0  0  0  0  0  0  0  0
   61.5780   26.3490   51.4720 C   0  0  0  0  0  0  0  0  0  0  0  0
   60.8938   26.8881   52.1437 H   0  0  0  0  0  0  0  0  0  0  0  0
   61.4989   25.2679   51.6587 H   0  0  0  0  0  0  0  0  0  0  0  0
   62.6107   26.6788   51.6587 H   0  0  0  0  0  0  0  0  0  0  0  0
   60.7190   29.0250   50.2960 C   0  0  0  0  0  0  0  0  0  0  0  0
   61.4451   29.1336   51.1151 H   0  0  0  0  0  0  0  0  0  0  0  0
  1  2  1  0
  2  3  2  0
  3  4  1  0
  4  5  3  0
  3  6  1  0
  6  7  2  0
  7  8  1  0
  8  9  2  0
  9 10  1  0
  9 11  1  0
 11 12  1  0
 11 13  2  0
 13 14  1  0
 13 15  1  0
 15 16  1  0
 15 17  2  0
 17 18  1  0
  2 19  1  0
 19 20  2  0
 20 21  1  0
 20 22  1  0
 22 23  1  0
 22 24  2  0
 24 25  1  0
 25 26  1  0
 26 27  1  0
 26 28  1  0
 26 29  1  0
 29 30  1  0
 29 31  1  0
 29 32  1  0
 32 33  1  0
 33 34  1  0
 34 35  1  0
 34 36  1  0
 34 37  1  0
 33 38  2  0
 38 39  1  0
 38 40  1  0
 40 41  2  0
 40 42  1  0
 42 43  1  0
 43 44  2  0
 24 45  1  0
 45 46  1  0
 46 47  1  0
 47 48  1  0
 47 49  1  0
 47 50  1  0
 45 51  2  0
 51 52  1  0
 18  6  1  0
 51 19  1  0
 17  8  1  0
 43 32  1  0
M  CHG  2  18  -1  42  -1
M  END
>  <UniqueID>  (40) 
38

>  <SMILES>  (40) 
COc1cc(/C=C(/C#N)c2nc3ccccc3[n-]2)ccc1OCCn1c(C)cc(=O)[n-]c1=O

>  <Energy>  (40) 
100.44675462555762

>  <Genealogy>  (40) 
COc1cc(C=C(C#N)c2nc3ccccc3[n-]2)ccc1OCCn1c(C)cc(=O)[n-]c1=O (protonated)
COc1cc(/C=C(/C#N)c2nc3ccccc3[n-]2)ccc1OCCn1c(C)cc(=O)[n-]c1=O (cis-trans isomerization)
COc1cc(/C=C(/C#N)c2nc3ccccc3[n-]2)ccc1OCCn1c(C)cc(=O)[n-]c1=O (3D coordinates assigned)
COc1cc(/C=C(/C#N)c2nc3ccccc3[n-]2)ccc1OCCn1c(C)cc(=O)[n-]c1=O (optimized conformer: 100.44675462555762 kcal/mol)

>  <smiles>  (40) 
COc1cc(C=C(C#N)c2nc3ccccc3[nH]2)ccc1OCCn1c(C)cc(=O)[nH]c1=O

>  <score_type>  (40) 
oracle

>  <origin>  (40) 
adg

>  <m_score__min__energy>  (40) 
-11.960000000000001

>  <m_primary>  (40) 
energy

$$$$
40:0
     RDKit          3D

 41 43  0  0  0  0  0  0  0  0999 V2000
   56.0090   28.8130   45.2160 O   0  0  0  0  0  0  0  0  0  0  0  0
   57.1280   28.2960   45.4720 C   0  0  0  0  0  0  0  0  0  0  0  0
   58.3170   28.9840   45.0590 N   0  0  0  0  0  0  0  0  0  0  0  0
   58.7680   30.2430   45.5770 C   0  0  0  0  0  0  0  0  0  0  0  0
   59.6380   30.2550   46.6730 C   0  0  0  0  0  0  0  0  0  0  0  0
   60.0380   31.4680   47.2420 C   0  0  0  0  0  0  0  0  0  0  0  0
   59.5850   32.6820   46.7060 C   0  0  0  0  0  0  0  0  0  0  0  0
   59.9860   34.2080   47.4970 S   0  0  0  0  0  0  0  0  0  0  0  0
   59.2100   34.3220   48.7800 O   0  0  0  0  0  0  0  0  0  0  0  0
   59.5850   35.3500   46.6050 O   0  0  0  0  0  0  0  0  0  0  0  0
   61.7000   34.3150   47.8320 N   0  0  0  0  0  0  0  0  0  0  0  0
   61.9920   33.8180   49.1950 C   0  0  0  0  0  0  0  0  0  0  0  0
   63.4740   33.4690   49.3620 C   0  0  0  0  0  0  0  0  0  0  0  0
   63.8850   32.3350   48.4070 C   0  0  0  0  0  0  0  0  0  0  0  0
   63.0200   32.2860   47.1360 C   0  0  0  0  0  0  0  0  0  0  0  0
   62.5060   33.6830   46.7570 C   0  0  0  0  0  0  0  0  0  0  0  0
   58.7690   32.6720   45.5670 C   0  0  0  0  0  0  0  0  0  0  0  0
   58.3620   31.4600   45.0040 C   0  0  0  0  0  0  0  0  0  0  0  0
   57.1830   26.9780   46.1530 C   0  0  0  0  0  0  0  0  0  0  0  0
   56.0210   26.2160   46.3690 C   0  0  0  0  0  0  0  0  0  0  0  0
   54.7720   26.6960   45.9930 O   0  0  0  0  0  0  0  0  0  0  0  0
   56.1070   25.0020   46.9710 N   0  0  0  0  0  0  0  0  0  0  0  0
   57.2990   24.5060   47.3860 C   0  0  0  0  0  0  0  0  0  0  0  0
   57.3530   23.3780   47.9380 O   0  0  0  0  0  0  0  0  0  0  0  0
   58.4340   25.2290   47.2090 N   0  0  0  0  0  0  0  0  0  0  0  0
   58.4050   26.4470   46.6090 C   0  0  0  0  0  0  0  0  0  0  0  0
   59.4820   27.0820   46.4530 O   0  0  0  0  0  0  0  0  0  0  0  0
   60.0087   29.3064   47.0886 H   0  0  0  0  0  0  0  0  0  0  0  0
   60.7101   31.4699   48.1128 H   0  0  0  0  0  0  0  0  0  0  0  0
   61.7243   34.5970   49.9241 H   0  0  0  0  0  0  0  0  0  0  0  0
   61.4023   32.9046   49.3620 H   0  0  0  0  0  0  0  0  0  0  0  0
   64.0802   34.3605   49.1436 H   0  0  0  0  0  0  0  0  0  0  0  0
   63.6404   33.1334   50.3963 H   0  0  0  0  0  0  0  0  0  0  0  0
   64.9342   32.4856   48.1129 H   0  0  0  0  0  0  0  0  0  0  0  0
   63.7445   31.3837   48.9412 H   0  0  0  0  0  0  0  0  0  0  0  0
   63.6238   31.8891   46.3066 H   0  0  0  0  0  0  0  0  0  0  0  0
   62.1528   31.6378   47.3308 H   0  0  0  0  0  0  0  0  0  0  0  0
   63.3704   34.3282   46.5414 H   0  0  0  0  0  0  0  0  0  0  0  0
   61.8522   33.5668   45.8801 H   0  0  0  0  0  0  0  0  0  0  0  0
   58.4478   33.6218   45.1146 H   0  0  0  0  0  0  0  0  0  0  0  0
   57.7218   31.4584   44.1095 H   0  0  0  0  0  0  0  0  0  0  0  0
  1  2  2  0
  2  3  1  0
  3  4  1  0
  4  5  2  0
  5  6  1  0
  6  7  2  0
  7  8  1  0
  8  9  2  0
  8 10  2  0
  8 11  1  0
 11 12  1  0
 12 13  1  0
 13 14  1  0
 14 15  1  0
 15 16  1  0
  7 17  1  0
 17 18  2  0
  2 19  1  0
 19 20  2  0
 20 21  1  0
 20 22  1  0
 22 23  1  0
 23 24  2  0
 23 25  1  0
 25 26  1  0
 26 27  2  0
 18  4  1  0
 26 19  1  0
 16 11  1  0
  5 28  1  0
  6 29  1  0
 12 30  1  0
 12 31  1  0
 13 32  1  0
 13 33  1  0
 14 34  1  0
 14 35  1  0
 15 36  1  0
 15 37  1  0
 16 38  1  0
 16 39  1  0
 17 40  1  0
 18 41  1  0
M  CHG  4   3  -1  21  -1  22  -1  25  -1
M  END
>  <UniqueID>  (41) 
39

>  <SMILES>  (41) 
O=C([N-]c1ccc(S(=O)(=O)N2CCCCC2)cc1)c1c([O-])[n-]c(=O)[n-]c1=O

>  <Energy>  (41) 
57.27501594686639

>  <Genealogy>  (41) 
O=C([N-]c1ccc(S(=O)(=O)N2CCCCC2)cc1)c1c([O-])[n-]c(=O)[n-]c1=O (protonated)
O=C([N-]c1ccc(S(=O)(=O)N2CCCCC2)cc1)c1c([O-])[n-]c(=O)[n-]c1=O (3D coordinates assigned)
O=C([N-]c1ccc(S(=O)(=O)N2CCCCC2)cc1)c1c([O-])[n-]c(=O)[n-]c1=O (nonaromatic ring conformer: 57.27501594686639 kcal/mol)

>  <smiles>  (41) 
O=C(Nc1ccc(S(=O)(=O)N2CCCCC2)cc1)c1c(O)[nH]c(=O)[nH]c1=O

>  <score_type>  (41) 
oracle

>  <origin>  (41) 
adg

>  <m_score__min__energy>  (41) 
-17.559999999999999

>  <m_primary>  (41) 
energy

$$$$
41:0
     RDKit          3D

 42 44  0  0  0  0  0  0  0  0999 V2000
   63.0050   31.3660   46.9570 H   0  0  0  0  0  0  0  0  0  0  0  0
   62.4160   31.9110   47.6260 N   0  0  0  0  0  0  0  0  0  0  0  0
   61.2190   32.2910   47.3160 C   0  0  0  0  0  0  0  0  0  0  0  0
   61.0030   33.5460   46.8380 N   0  0  0  0  0  0  0  0  0  0  0  0
   59.7650   33.9940   46.4890 C   0  0  0  0  0  0  0  0  0  0  0  0
   59.6390   35.3990   45.9770 C   0  0  0  0  0  0  0  0  0  0  0  0
   59.5766   36.0947   46.8268 H   0  0  0  0  0  0  0  0  0  0  0  0
   60.5186   35.6463   45.3645 H   0  0  0  0  0  0  0  0  0  0  0  0
   58.7295   35.4859   45.3645 H   0  0  0  0  0  0  0  0  0  0  0  0
   58.6500   33.1290   46.6160 C   0  0  0  0  0  0  0  0  0  0  0  0
   57.2510   33.5130   46.1860 C   0  0  0  0  0  0  0  0  0  0  0  0
   56.5388   33.2525   46.9829 H   0  0  0  0  0  0  0  0  0  0  0  0
   57.2120   34.5958   45.9960 H   0  0  0  0  0  0  0  0  0  0  0  0
   56.8980   32.7940   44.9650 N   0  0  0  0  0  0  0  0  0  0  0  0
   56.0220   32.2220   44.9790 H   0  0  0  0  0  0  0  0  0  0  0  0
   57.8690   32.5290   43.9450 C   0  0  0  0  0  0  0  0  0  0  0  0
   58.7620   33.3800   43.6830 O   0  0  0  0  0  0  0  0  0  0  0  0
   57.8230   31.2420   43.1790 C   0  0  0  0  0  0  0  0  0  0  0  0
   57.0881   31.3290   42.3651 H   0  0  0  0  0  0  0  0  0  0  0  0
   58.8198   31.0349   42.7624 H   0  0  0  0  0  0  0  0  0  0  0  0
   57.4350   30.1400   44.0680 N   0  0  0  0  0  0  0  0  0  0  0  0
   56.1830   29.8310   44.4650 C   0  0  0  0  0  0  0  0  0  0  0  0
   55.1520   30.4270   44.0520 O   0  0  0  0  0  0  0  0  0  0  0  0
   56.1300   28.8270   45.3620 N   0  0  0  0  0  0  0  0  0  0  0  0
   57.4230   28.4870   45.5570 C   0  0  0  0  0  0  0  0  0  0  0  0
   57.8220   27.5010   46.3790 C   0  0  0  0  0  0  0  0  0  0  0  0
   58.6771   27.6989   47.0420 H   0  0  0  0  0  0  0  0  0  0  0  0
   57.1870   26.1690   46.4500 C   0  0  0  0  0  0  0  0  0  0  0  0
   57.8630   25.0620   46.8050 N   0  0  0  0  0  0  0  0  0  0  0  0
   56.9180   24.0990   46.8100 C   0  0  0  0  0  0  0  0  0  0  0  0
   57.1750   22.8980   47.0880 O   0  0  0  0  0  0  0  0  0  0  0  0
   55.6760   24.5240   46.5000 N   0  0  0  0  0  0  0  0  0  0  0  0
   55.8550   25.8360   46.2840 C   0  0  0  0  0  0  0  0  0  0  0  0
   54.8140   26.7090   45.9920 O   0  0  0  0  0  0  0  0  0  0  0  0
   58.2350   29.2940   44.7580 C   0  0  0  0  0  0  0  0  0  0  0  0
   59.5730   29.2810   44.6820 C   0  0  0  0  0  0  0  0  0  0  0  0
   60.0923   29.9760   44.0057 H   0  0  0  0  0  0  0  0  0  0  0  0
   60.1519   28.5753   45.2959 H   0  0  0  0  0  0  0  0  0  0  0  0
   58.8650   31.8330   47.1160 C   0  0  0  0  0  0  0  0  0  0  0  0
   58.0150   31.1438   47.2279 H   0  0  0  0  0  0  0  0  0  0  0  0
   60.1450   31.4140   47.4710 C   0  0  0  0  0  0  0  0  0  0  0  0
   60.3075   30.4017   47.8696 H   0  0  0  0  0  0  0  0  0  0  0  0
  1  2  1  0
  2  3  2  0
  3  4  1  0
  4  5  1  0
  5  6  1  0
  6  7  1  0
  6  8  1  0
  6  9  1  0
  5 10  2  0
 10 11  1  0
 11 12  1  0
 11 13  1  0
 11 14  1  0
 14 15  1  0
 14 16  1  0
 16 17  2  0
 16 18  1  0
 18 19  1  0
 18 20  1  0
 18 21  1  0
 21 22  1  0
 22 23  2  0
 22 24  1  0
 24 25  1  0
 25 26  2  3
 26 27  1  0
 26 28  1  0
 28 29  1  0
 29 30  1  0
 30 31  2  0
 30 32  1  0
 32 33  1  0
 33 34  1  0
 25 35  1  0
 35 36  2  0
 36 37  1  0
 36 38  1  0
 10 39  1  0
 39 40  1  0
 39 41  2  0
 41 42  1  0
 41  3  1  0
 35 21  1  0
 33 28  2  0
M  CHG  5   4  -1  24  -1  29  -1  32  -1  34  -1
M  END
>  <UniqueID>  (42) 
40

>  <SMILES>  (42) 
[H]/N=c1/ccc(CNC(=O)Cn2c(=O)[n-]c(=Cc3[n-]c(=O)[n-]c3[O-])c2=C)c(C)[n-]1

>  <Energy>  (42) 
105.179166826502

>  <Genealogy>  (42) 
C=c1c(=Cc2[n-]c(=O)[n-]c2[O-])[n-]c(=O)n1CC(=O)NCc1ccc(=N)[n-]c1C (protonated)
[H]/N=c1/ccc(CNC(=O)Cn2c(=O)[n-]c(=Cc3[n-]c(=O)[n-]c3[O-])c2=C)c(C)[n-]1 (cis-trans isomerization)
[H]/N=c1/ccc(CNC(=O)Cn2c(=O)[n-]c(=Cc3[n-]c(=O)[n-]c3[O-])c2=C)c(C)[n-]1 (3D coordinates assigned)
[H]/N=c1/ccc(CNC(=O)Cn2c(=O)[n-]c(=Cc3[n-]c(=O)[n-]c3[O-])c2=C)c(C)[n-]1 (optimized conformer: 105.179166826502 kcal/mol)

>  <smiles>  (42) 
C=c1c(=Cc2[nH]c(=O)[nH]c2O)[nH]c(=O)n1CC(=O)NCc1ccc(=N)[nH]c1C

>  <score_type>  (42) 
oracle

>  <origin>  (42) 
adg

>  <m_score__min__energy>  (42) 
-18.210000000000001

>  <m_primary>  (42) 
energy

$$$$
42:0
     RDKit          3D

 65 68  0  0  1  0  0  0  0  0999 V2000
   59.7480   27.4770   47.8710 C   0  0  0  0  0  0  0  0  0  0  0  0
   60.7490   27.0990   48.9140 C   0  0  0  0  0  0  0  0  0  0  0  0
   60.5220   27.8000   50.1960 C   0  0  0  0  0  0  0  0  0  0  0  0
   61.5970   27.8120   51.2290 C   0  0  0  0  0  0  0  0  0  0  0  0
   62.2690   29.0850   51.5010 C   0  0  0  0  0  0  0  0  0  0  0  0
   63.6100   29.1550   51.6940 N   0  0  0  0  0  0  0  0  0  0  0  0
   63.9480   30.4280   51.9160 C   0  0  0  0  0  0  0  0  0  0  0  0
   65.6160   30.9690   52.2190 S   0  0  0  0  0  0  0  0  0  0  0  0
   66.3290   31.6910   50.7060 C   0  0  0  0  0  0  0  0  0  0  0  0
   62.7770   31.1890   51.8620 C   0  0  0  0  0  0  0  0  0  0  0  0
   62.7960   32.6190   52.0770 C   0  0  0  0  0  0  0  0  0  0  0  0
   61.7380   33.1930   52.4960 O   0  0  0  0  0  0  0  0  0  0  0  0
   63.8790   33.4480   51.8640 O   0  0  0  0  0  0  0  0  0  0  0  0
   61.7460   30.3530   51.6020 N   0  0  0  0  0  0  0  0  0  0  0  0
   60.3700   30.7200   51.4450 C   0  0  0  0  0  0  0  0  0  0  0  0
   59.9580   31.1030   50.0800 C   0  0  0  0  0  0  0  0  0  0  0  0
   60.7050   30.6540   48.9770 C   0  0  0  0  0  0  0  0  0  0  0  0
   60.3530   30.9630   47.6810 C   0  0  0  0  0  0  0  0  0  0  0  0
   59.2530   31.7270   47.3910 C   0  0  0  0  0  0  0  0  0  0  0  0
   58.7930   32.0740   46.0610 C   0  0  0  0  0  0  0  0  0  0  0  0
   58.1390   31.0450   45.3650 C   0  0  0  0  0  0  0  0  0  0  0  0
   57.6220   31.2320   44.1040 C   0  0  0  0  0  0  0  0  0  0  0  0
   57.7660   32.4720   43.5380 C   0  0  0  0  0  0  0  0  0  0  0  0
   58.4030   33.4770   44.2180 C   0  0  0  0  0  0  0  0  0  0  0  0
   58.9380   33.3210   45.4940 C   0  0  0  0  0  0  0  0  0  0  0  0
   59.7610   34.6230   46.2820 S   0  0  0  0  0  0  0  0  0  0  0  0
   59.6580   35.8900   45.4900 O   0  0  0  0  0  0  0  0  0  0  0  0
   59.2380   34.9290   47.6510 O   0  0  0  0  0  0  0  0  0  0  0  0
   61.4490   34.1650   46.3890 N   0  0  0  0  0  0  0  0  0  0  0  0
   61.9670   33.9590   47.5660 C   0  0  0  0  0  0  0  0  0  0  0  0
   61.5770   34.5270   48.7360 N   0  0  0  0  0  0  0  0  0  0  0  0
   62.3290   34.0850   49.7310 N   0  0  0  0  0  0  0  0  0  0  0  0
   63.2170   33.2280   49.2230 N   0  0  0  0  0  0  0  0  0  0  0  0
   63.0190   33.1280   47.8880 C   0  0  0  0  0  0  0  0  0  0  0  0
   63.7620   32.2970   46.8980 C   0  0  0  0  0  0  0  0  0  0  0  0
   58.5040   32.1810   48.4570 C   0  0  0  0  0  0  0  0  0  0  0  0
   58.8620   31.8670   49.7690 C   0  0  0  0  0  0  0  0  0  0  0  0
   58.8251   27.8255   48.3577 H   0  0  0  0  0  0  0  0  0  0  0  0
   60.1583   28.2821   47.2437 H   0  0  0  0  0  0  0  0  0  0  0  0
   59.5237   26.6017   47.2437 H   0  0  0  0  0  0  0  0  0  0  0  0
   60.6847   26.0148   49.0884 H   0  0  0  0  0  0  0  0  0  0  0  0
   61.7433   27.3905   48.5447 H   0  0  0  0  0  0  0  0  0  0  0  0
   60.3020   28.8497   49.9516 H   0  0  0  0  0  0  0  0  0  0  0  0
   59.7174   27.2176   50.6687 H   0  0  0  0  0  0  0  0  0  0  0  0
   61.1485   27.4695   52.1732 H   0  0  0  0  0  0  0  0  0  0  0  0
   62.3853   27.1655   50.8159 H   0  0  0  0  0  0  0  0  0  0  0  0
   67.0777   32.4492   50.9791 H   0  0  0  0  0  0  0  0  0  0  0  0
   66.8090   30.8988   50.1126 H   0  0  0  0  0  0  0  0  0  0  0  0
   65.5308   32.1610   50.1126 H   0  0  0  0  0  0  0  0  0  0  0  0
   64.4240   33.4510   50.9960 H   0  0  0  0  0  0  0  0  0  0  0  0
   59.7547   29.8625   51.7550 H   0  0  0  0  0  0  0  0  0  0  0  0
   60.2287   31.6192   52.0626 H   0  0  0  0  0  0  0  0  0  0  0  0
   61.5982   30.0369   49.1539 H   0  0  0  0  0  0  0  0  0  0  0  0
   60.9733   30.5852   46.8549 H   0  0  0  0  0  0  0  0  0  0  0  0
   58.0369   30.0593   45.8425 H   0  0  0  0  0  0  0  0  0  0  0  0
   57.1120   30.4168   43.5698 H   0  0  0  0  0  0  0  0  0  0  0  0
   57.3673   32.6619   42.5305 H   0  0  0  0  0  0  0  0  0  0  0  0
   58.4965   34.4584   43.7301 H   0  0  0  0  0  0  0  0  0  0  0  0
   60.8080   35.2110   48.8880 H   0  0  0  0  0  0  0  0  0  0  0  0
   62.2400   34.3650   50.7480 H   0  0  0  0  0  0  0  0  0  0  0  0
   64.4038   31.5792   47.4299 H   0  0  0  0  0  0  0  0  0  0  0  0
   63.0457   31.7507   46.2668 H   0  0  0  0  0  0  0  0  0  0  0  0
   64.3848   32.9480   46.2668 H   0  0  0  0  0  0  0  0  0  0  0  0
   57.6130   32.7985   48.2705 H   0  0  0  0  0  0  0  0  0  0  0  0
   58.2376   32.2491   50.5900 H   0  0  0  0  0  0  0  0  0  0  0  0
  1  2  1  0
  2  3  1  0
  3  4  1  0
  4  5  1  0
  5  6  2  0
  6  7  1  0
  7  8  1  0
  8  9  1  0
  7 10  2  0
 10 11  1  0
 11 12  2  0
 11 13  1  0
 10 14  1  0
 14 15  1  0
 15 16  1  0
 16 17  2  0
 17 18  1  0
 18 19  2  0
 19 20  1  0
 20 21  2  0
 21 22  1  0
 22 23  2  0
 23 24  1  0
 24 25  2  0
 25 26  1  0
 26 27  2  0
 26 28  2  0
 26 29  1  0
 29 30  2  0
 30 31  1  0
 31 32  1  0
 32 33  1  0
 33 34  2  0
 34 35  1  0
 19 36  1  0
 36 37  2  0
 14  5  1  0
 37 16  1  0
 25 20  1  0
 34 30  1  0
  1 38  1  0
  1 39  1  0
  1 40  1  0
  2 41  1  0
  2 42  1  0
  3 43  1  0
  3 44  1  0
  4 45  1  0
  4 46  1  0
  9 47  1  0
  9 48  1  0
  9 49  1  0
 13 50  1  0
 15 51  1  0
 15 52  1  0
 17 53  1  0
 18 54  1  0
 21 55  1  0
 22 56  1  0
 23 57  1  0
 24 58  1  0
 31 59  1  0
 32 60  1  0
 35 61  1  0
 35 62  1  0
 35 63  1  0
 36 64  1  0
 37 65  1  0
M  END
>  <smiles>  (43) 
CCCCc1nc(SC)c(C(=O)O)n1Cc1ccc(-c2ccccc2S(=O)(=O)N=c2[nH][nH]nc2C)cc1

>  <score_type>  (43) 
oracle

>  <origin>  (43) 
adg

>  <m_score__min__energy>  (43) 
-10.130000000000001

>  <m_primary>  (43) 
energy

$$$$
43:0
     RDKit          3D

 49 51  0  0  0  0  0  0  0  0999 V2000
   61.5756   30.4179   45.2547 H   0  0  0  0  0  0  0  0  0  0  0  0
   60.7380   29.7060   45.2140 C   0  0  0  0  0  0  0  0  0  0  0  0
   60.6192   29.0457   44.3423 H   0  0  0  0  0  0  0  0  0  0  0  0
   59.8610   29.6430   46.2280 C   0  0  0  0  0  0  0  0  0  0  0  0
   58.7530   28.7960   46.3210 C   0  0  0  0  0  0  0  0  0  0  0  0
   58.3540   27.8700   45.4260 C   0  0  0  0  0  0  0  0  0  0  0  0
   58.7776   27.9090   44.4116 H   0  0  0  0  0  0  0  0  0  0  0  0
   57.3760   26.8040   45.7370 C   0  0  0  0  0  0  0  0  0  0  0  0
   56.0000   27.0670   45.6520 C   0  0  0  0  0  0  0  0  0  0  0  0
   55.5420   28.3140   45.2430 O   0  0  0  0  0  0  0  0  0  0  0  0
   55.1030   26.0960   45.9620 N   0  0  0  0  0  0  0  0  0  0  0  0
   55.5110   24.8670   46.3680 C   0  0  0  0  0  0  0  0  0  0  0  0
   54.6620   23.9820   46.6430 O   0  0  0  0  0  0  0  0  0  0  0  0
   56.8360   24.5950   46.4840 N   0  0  0  0  0  0  0  0  0  0  0  0
   57.7730   25.5320   46.1890 C   0  0  0  0  0  0  0  0  0  0  0  0
   58.9930   25.2540   46.3430 O   0  0  0  0  0  0  0  0  0  0  0  0
   58.1610   29.0580   47.5490 C   0  0  0  0  0  0  0  0  0  0  0  0
   57.2692   28.5678   47.9667 H   0  0  0  0  0  0  0  0  0  0  0  0
   58.9100   30.0540   48.1440 C   0  0  0  0  0  0  0  0  0  0  0  0
   58.6470   30.6270   49.5030 C   0  0  0  0  0  0  0  0  0  0  0  0
   58.9751   29.9122   50.2721 H   0  0  0  0  0  0  0  0  0  0  0  0
   59.2027   31.5694   49.6174 H   0  0  0  0  0  0  0  0  0  0  0  0
   57.5701   30.8201   49.6174 H   0  0  0  0  0  0  0  0  0  0  0  0
   59.9400   30.4090   47.3460 N   0  0  0  0  0  0  0  0  0  0  0  0
   60.9370   31.3990   47.6540 C   0  0  0  0  0  0  0  0  0  0  0  0
   62.0620   31.0210   48.4010 C   0  0  0  0  0  0  0  0  0  0  0  0
   62.1516   29.9880   48.7682 H   0  0  0  0  0  0  0  0  0  0  0  0
   63.0690   31.9460   48.6820 C   0  0  0  0  0  0  0  0  0  0  0  0
   63.9474   31.6408   49.2697 H   0  0  0  0  0  0  0  0  0  0  0  0
   62.9620   33.2570   48.2180 C   0  0  0  0  0  0  0  0  0  0  0  0
   63.7590   33.9831   48.4361 H   0  0  0  0  0  0  0  0  0  0  0  0
   61.8450   33.6500   47.4770 C   0  0  0  0  0  0  0  0  0  0  0  0
   61.7666   34.6863   47.1164 H   0  0  0  0  0  0  0  0  0  0  0  0
   60.8190   32.7310   47.1880 C   0  0  0  0  0  0  0  0  0  0  0  0
   59.6260   33.1830   46.4330 C   0  0  0  0  0  0  0  0  0  0  0  0
   59.7750   33.7880   45.3360 O   0  0  0  0  0  0  0  0  0  0  0  0
   58.3060   32.9410   46.9390 N   0  0  0  0  0  0  0  0  0  0  0  0
   58.1940   32.5210   47.8890 H   0  0  0  0  0  0  0  0  0  0  0  0
   57.1180   33.3260   46.1760 C   0  0  0  0  0  0  0  0  0  0  0  0
   56.2190   33.0541   46.7487 H   0  0  0  0  0  0  0  0  0  0  0  0
   57.1503   34.4116   46.0016 H   0  0  0  0  0  0  0  0  0  0  0  0
   57.0820   32.6150   44.8200 C   0  0  0  0  0  0  0  0  0  0  0  0
   56.2136   32.9708   44.2462 H   0  0  0  0  0  0  0  0  0  0  0  0
   58.0103   32.8376   44.2735 H   0  0  0  0  0  0  0  0  0  0  0  0
   56.9790   31.2160   45.0040 O   0  0  0  0  0  0  0  0  0  0  0  0
   56.9490   30.5570   43.7570 C   0  0  0  0  0  0  0  0  0  0  0  0
   56.8995   29.4699   43.9179 H   0  0  0  0  0  0  0  0  0  0  0  0
   56.0648   30.8844   43.1904 H   0  0  0  0  0  0  0  0  0  0  0  0
   57.8593   30.8028   43.1904 H   0  0  0  0  0  0  0  0  0  0  0  0
  1  2  1  0
  2  3  1  0
  2  4  2  0
  4  5  1  0
  5  6  2  0
  6  7  1  0
  6  8  1  0
  8  9  2  0
  9 10  1  0
  9 11  1  0
 11 12  1  0
 12 13  2  0
 12 14  1  0
 14 15  1  0
 15 16  2  0
  5 17  1  0
 17 18  1  0
 17 19  2  0
 19 20  1  0
 20 21  1  0
 20 22  1  0
 20 23  1  0
 19 24  1  0
 24 25  1  0
 25 26  2  0
 26 27  1  0
 26 28  1  0
 28 29  1  0
 28 30  2  0
 30 31  1  0
 30 32  1  0
 32 33  1  0
 32 34  2  0
 34 35  1  0
 35 36  2  0
 35 37  1  0
 37 38  1  0
 37 39  1  0
 39 40  1  0
 39 41  1  0
 39 42  1  0
 42 43  1  0
 42 44  1  0
 42 45  1  0
 45 46  1  0
 46 47  1  0
 46 48  1  0
 46 49  1  0
 24  4  1  0
 34 25  1  0
 15  8  1  0
M  CHG  3  10  -1  11  -1  14  -1
M  END
>  <UniqueID>  (44) 
41

>  <SMILES>  (44) 
C=c1/c(=C/c2c([O-])[n-]c(=O)[n-]c2=O)cc(C)n1-c1ccccc1C(=O)NCCOC

>  <Energy>  (44) 
97.49405960174187

>  <Genealogy>  (44) 
C=c1c(=Cc2c([O-])[n-]c(=O)[n-]c2=O)cc(C)n1-c1ccccc1C(=O)NCCOC (protonated)
C=c1/c(=C/c2c([O-])[n-]c(=O)[n-]c2=O)cc(C)n1-c1ccccc1C(=O)NCCOC (cis-trans isomerization)
C=c1/c(=C/c2c([O-])[n-]c(=O)[n-]c2=O)cc(C)n1-c1ccccc1C(=O)NCCOC (3D coordinates assigned)
C=c1/c(=C/c2c([O-])[n-]c(=O)[n-]c2=O)cc(C)n1-c1ccccc1C(=O)NCCOC (optimized conformer: 97.49405960174187 kcal/mol)

>  <smiles>  (44) 
C=c1c(=Cc2c(O)[nH]c(=O)[nH]c2=O)cc(C)n1-c1ccccc1C(=O)NCCOC

>  <score_type>  (44) 
oracle

>  <origin>  (44) 
adg

>  <m_score__min__energy>  (44) 
-15.33

>  <m_primary>  (44) 
energy

$$$$
44:0
     RDKit          3D

 72 76  0  0  0  0  0  0  0  0999 V2000
   59.5599   25.9780   48.0843 H   0  0  0  0  0  0  0  0  0  0  0  0
   58.5870   26.0490   47.5760 C   0  0  0  0  0  0  0  0  0  0  0  0
   57.7020   25.0330   47.6650 N   0  0  0  0  0  0  0  0  0  0  0  0
   56.4880   25.0750   47.0660 C   0  0  0  0  0  0  0  0  0  0  0  0
   55.7080   24.0370   47.2190 N   0  0  0  0  0  0  0  0  0  0  0  0
   56.0340   22.6110   47.2980 C   0  0  0  0  0  0  0  0  0  0  0  0
   56.1841   22.3359   48.3524 H   0  0  0  0  0  0  0  0  0  0  0  0
   55.2013   22.0403   46.8610 H   0  0  0  0  0  0  0  0  0  0  0  0
   57.3100   22.2850   46.5100 C   0  0  0  0  0  0  0  0  0  0  0  0
   58.0725   23.0467   46.7300 H   0  0  0  0  0  0  0  0  0  0  0  0
   57.6617   21.2874   46.8118 H   0  0  0  0  0  0  0  0  0  0  0  0
   57.0430   22.2700   45.0280 C   0  0  0  0  0  0  0  0  0  0  0  0
   56.5860   23.4310   44.3810 C   0  0  0  0  0  0  0  0  0  0  0  0
   56.4537   24.3611   44.9531 H   0  0  0  0  0  0  0  0  0  0  0  0
   56.2990   23.4080   43.0130 C   0  0  0  0  0  0  0  0  0  0  0  0
   55.9471   24.3212   42.5108 H   0  0  0  0  0  0  0  0  0  0  0  0
   56.4580   22.2280   42.2820 C   0  0  0  0  0  0  0  0  0  0  0  0
   56.2333   22.2131   41.2053 H   0  0  0  0  0  0  0  0  0  0  0  0
   56.9030   21.0660   42.9200 C   0  0  0  0  0  0  0  0  0  0  0  0
   57.0269   20.1368   42.3444 H   0  0  0  0  0  0  0  0  0  0  0  0
   57.1910   21.0830   44.2890 C   0  0  0  0  0  0  0  0  0  0  0  0
   57.5342   20.1651   44.7887 H   0  0  0  0  0  0  0  0  0  0  0  0
   56.1400   26.2370   46.3280 C   0  0  0  0  0  0  0  0  0  0  0  0
   55.0020   26.3400   45.7940 O   0  0  0  0  0  0  0  0  0  0  0  0
   57.0430   27.2710   46.2080 N   0  0  0  0  0  0  0  0  0  0  0  0
   56.6500   28.4940   45.4740 C   0  0  0  0  0  0  0  0  0  0  0  0
   56.8184   29.3717   46.1154 H   0  0  0  0  0  0  0  0  0  0  0  0
   55.5861   28.4222   45.2040 H   0  0  0  0  0  0  0  0  0  0  0  0
   57.4600   28.6340   44.2240 C   0  0  0  0  0  0  0  0  0  0  0  0
   57.9950   27.6160   43.7070 O   0  0  0  0  0  0  0  0  0  0  0  0
   57.5860   29.9160   43.6020 N   0  0  0  0  0  0  0  0  0  0  0  0
   58.2600   31.0560   44.2160 C   0  0  0  0  0  0  0  0  0  0  0  0
   59.3452   30.8766   44.2291 H   0  0  0  0  0  0  0  0  0  0  0  0
   57.7850   31.2340   45.6690 C   0  0  0  0  0  0  0  0  0  0  0  0
   56.6852   31.2531   45.6813 H   0  0  0  0  0  0  0  0  0  0  0  0
   58.1802   30.3921   46.2565 H   0  0  0  0  0  0  0  0  0  0  0  0
   58.3110   32.5400   46.3050 C   0  0  0  0  0  0  0  0  0  0  0  0
   57.4542   33.1557   46.6161 H   0  0  0  0  0  0  0  0  0  0  0  0
   58.9379   32.2737   47.1687 H   0  0  0  0  0  0  0  0  0  0  0  0
   59.1370   33.3130   45.3560 N   0  0  0  0  0  0  0  0  0  0  0  0
   59.7600   34.5070   45.9690 C   0  0  0  0  0  0  0  0  0  0  0  0
   60.1498   35.1462   45.1631 H   0  0  0  0  0  0  0  0  0  0  0  0
   58.9791   35.0042   46.5632 H   0  0  0  0  0  0  0  0  0  0  0  0
   60.8980   34.1890   46.9180 C   0  0  0  0  0  0  0  0  0  0  0  0
   62.1610   33.8280   46.4170 C   0  0  0  0  0  0  0  0  0  0  0  0
   62.3244   33.7775   45.3304 H   0  0  0  0  0  0  0  0  0  0  0  0
   63.2100   33.5330   47.2920 C   0  0  0  0  0  0  0  0  0  0  0  0
   64.1967   33.2556   46.8928 H   0  0  0  0  0  0  0  0  0  0  0  0
   63.0070   33.5900   48.6740 C   0  0  0  0  0  0  0  0  0  0  0  0
   64.0260   33.3040   49.5210 F   0  0  0  0  0  0  0  0  0  0  0  0
   61.7520   33.9400   49.1820 C   0  0  0  0  0  0  0  0  0  0  0  0
   61.5915   33.9833   50.2694 H   0  0  0  0  0  0  0  0  0  0  0  0
   60.7010   34.2350   48.3080 C   0  0  0  0  0  0  0  0  0  0  0  0
   59.7139   34.5047   48.7115 H   0  0  0  0  0  0  0  0  0  0  0  0
   58.3830   33.6180   44.1250 C   0  0  0  0  0  0  0  0  0  0  0  0
   57.4783   34.1855   44.3887 H   0  0  0  0  0  0  0  0  0  0  0  0
   59.0273   34.2082   43.4568 H   0  0  0  0  0  0  0  0  0  0  0  0
   57.9710   32.3230   43.3930 C   0  0  0  0  0  0  0  0  0  0  0  0
   56.8924   32.3666   43.1817 H   0  0  0  0  0  0  0  0  0  0  0  0
   58.5652   32.2610   42.4694 H   0  0  0  0  0  0  0  0  0  0  0  0
   58.2660   27.1880   46.8390 C   0  0  0  0  0  0  0  0  0  0  0  0
   59.2670   28.2760   46.7820 C   0  0  0  0  0  0  0  0  0  0  0  0
   60.1370   28.3730   45.6840 C   0  0  0  0  0  0  0  0  0  0  0  0
   60.0855   27.6295   44.8749 H   0  0  0  0  0  0  0  0  0  0  0  0
   61.0690   29.4140   45.6180 C   0  0  0  0  0  0  0  0  0  0  0  0
   61.7570   29.4820   44.7624 H   0  0  0  0  0  0  0  0  0  0  0  0
   61.1270   30.3680   46.6380 C   0  0  0  0  0  0  0  0  0  0  0  0
   61.8630   31.1839   46.5863 H   0  0  0  0  0  0  0  0  0  0  0  0
   60.2510   30.2860   47.7230 C   0  0  0  0  0  0  0  0  0  0  0  0
   60.2961   31.0392   48.5234 H   0  0  0  0  0  0  0  0  0  0  0  0
   59.3170   29.2480   47.7930 C   0  0  0  0  0  0  0  0  0  0  0  0
   58.6200   29.1931   48.6422 H   0  0  0  0  0  0  0  0  0  0  0  0
  1  2  1  0
  2  3  1  0
  3  4  1  0
  4  5  2  0
  5  6  1  0
  6  7  1  0
  6  8  1  0
  6  9  1  0
  9 10  1  0
  9 11  1  0
  9 12  1  0
 12 13  2  0
 13 14  1  0
 13 15  1  0
 15 16  1  0
 15 17  2  0
 17 18  1  0
 17 19  1  0
 19 20  1  0
 19 21  2  0
 21 22  1  0
  4 23  1  0
 23 24  2  0
 23 25  1  0
 25 26  1  0
 26 27  1  0
 26 28  1  0
 26 29  1  0
 29 30  2  0
 29 31  1  0
 31 32  1  0
 32 33  1  0
 32 34  1  0
 34 35  1  0
 34 36  1  0
 34 37  1  0
 37 38  1  0
 37 39  1  0
 37 40  1  0
 40 41  1  0
 41 42  1  0
 41 43  1  0
 41 44  1  0
 44 45  2  0
 45 46  1  0
 45 47  1  0
 47 48  1  0
 47 49  2  0
 49 50  1  0
 49 51  1  0
 51 52  1  0
 51 53  2  0
 53 54  1  0
 40 55  1  0
 55 56  1  0
 55 57  1  0
 55 58  1  0
 58 59  1  0
 58 60  1  0
 25 61  1  0
 61 62  1  0
 62 63  2  0
 63 64  1  0
 63 65  1  0
 65 66  1  0
 65 67  2  0
 67 68  1  0
 67 69  1  0
 69 70  1  0
 69 71  2  0
 71 72  1  0
 61  2  2  0
 71 62  1  0
 21 12  1  0
 58 32  1  0
 53 44  1  0
M  CHG  2   3  -1  31  -1
M  END
>  <UniqueID>  (45) 
42

>  <SMILES>  (45) 
O=C(Cn1c(-c2ccccc2)c[n-]/c(=N/CCc2ccccc2)c1=O)[N-]C1CCN(Cc2ccc(F)cc2)CC1

>  <Energy>  (45) 
97.57365960123275

>  <Genealogy>  (45) 
O=C(Cn1c(-c2ccccc2)c[n-]c(=NCCc2ccccc2)c1=O)[N-]C1CCN(Cc2ccc(F)cc2)CC1 (protonated)
O=C(Cn1c(-c2ccccc2)c[n-]/c(=N/CCc2ccccc2)c1=O)[N-]C1CCN(Cc2ccc(F)cc2)CC1 (cis-trans isomerization)
O=C(Cn1c(-c2ccccc2)c[n-]/c(=N/CCc2ccccc2)c1=O)[N-]C1CCN(Cc2ccc(F)cc2)CC1 (3D coordinates assigned)
O=C(Cn1c(-c2ccccc2)c[n-]/c(=N/CCc2ccccc2)c1=O)[N-]C1CCN(Cc2ccc(F)cc2)CC1 (nonaromatic ring conformer: 97.57365960123275 kcal/mol)

>  <smiles>  (45) 
O=C(Cn1c(-c2ccccc2)c[nH]c(=NCCc2ccccc2)c1=O)NC1CCN(Cc2ccc(F)cc2)CC1

>  <score_type>  (45) 
oracle

>  <origin>  (45) 
adg

>  <m_score__min__energy>  (45) 
-13.380000000000001

>  <m_primary>  (45) 
energy

$$$$
45:0
     RDKit          3D

 51 54  0  0  0  0  0  0  0  0999 V2000
   63.2020   33.8710   50.3540 C   0  0  0  0  0  0  0  0  0  0  0  0
   62.2090   33.1220   49.5650 N   0  0  0  0  0  0  0  0  0  0  0  0
   62.6200   32.3080   48.5400 C   0  0  0  0  0  0  0  0  0  0  0  0
   63.8440   32.1450   48.2780 O   0  0  0  0  0  0  0  0  0  0  0  0
   61.6580   31.6720   47.7790 C   0  0  0  0  0  0  0  0  0  0  0  0
   61.8420   30.8440   46.7430 N   0  0  0  0  0  0  0  0  0  0  0  0
   60.5840   30.5410   46.3470 C   0  0  0  0  0  0  0  0  0  0  0  0
   60.3130   29.7260   45.3660 N   0  0  0  0  0  0  0  0  0  0  0  0
   60.7820   28.3470   45.2450 C   0  0  0  0  0  0  0  0  0  0  0  0
   59.6230   27.3810   45.2880 C   0  0  0  0  0  0  0  0  0  0  0  0
   58.8360   27.1860   44.1380 C   0  0  0  0  0  0  0  0  0  0  0  0
   57.7640   26.2910   44.1560 C   0  0  0  0  0  0  0  0  0  0  0  0
   57.4590   25.5860   45.3210 C   0  0  0  0  0  0  0  0  0  0  0  0
   58.2230   25.7770   46.4740 C   0  0  0  0  0  0  0  0  0  0  0  0
   59.3010   26.6710   46.4680 C   0  0  0  0  0  0  0  0  0  0  0  0
   60.2150   26.8850   47.9580 Cl  0  0  0  0  0  0  0  0  0  0  0  0
   59.6170   31.1740   47.0720 N   0  0  0  0  0  0  0  0  0  0  0  0
   58.1720   31.1020   46.7710 C   0  0  0  0  0  0  0  0  0  0  0  0
   57.8430   31.3170   45.3050 C   0  0  0  0  0  0  0  0  0  0  0  0
   58.3210   32.4900   44.6880 C   0  0  0  0  0  0  0  0  0  0  0  0
   58.1210   32.7140   43.3260 C   0  0  0  0  0  0  0  0  0  0  0  0
   57.4250   31.7820   42.5590 C   0  0  0  0  0  0  0  0  0  0  0  0
   56.8900   30.6430   43.1620 C   0  0  0  0  0  0  0  0  0  0  0  0
   57.0560   30.4140   44.5380 C   0  0  0  0  0  0  0  0  0  0  0  0
   56.3480   29.2700   45.1380 C   0  0  0  0  0  0  0  0  0  0  0  0
   55.1450   29.0430   44.8400 O   0  0  0  0  0  0  0  0  0  0  0  0
   56.9760   28.4790   46.0900 O   0  0  0  0  0  0  0  0  0  0  0  0
   60.3300   31.8550   48.0210 C   0  0  0  0  0  0  0  0  0  0  0  0
   59.9030   32.6030   49.0930 N   0  0  0  0  0  0  0  0  0  0  0  0
   58.5010   32.6810   49.5200 C   0  0  0  0  0  0  0  0  0  0  0  0
   60.8600   33.2870   49.8230 C   0  0  0  0  0  0  0  0  0  0  0  0
   60.4980   34.0760   50.7430 O   0  0  0  0  0  0  0  0  0  0  0  0
   63.0057   33.7229   51.4262 H   0  0  0  0  0  0  0  0  0  0  0  0
   64.2118   33.5077   50.1125 H   0  0  0  0  0  0  0  0  0  0  0  0
   63.1301   34.9418   50.1125 H   0  0  0  0  0  0  0  0  0  0  0  0
   62.7520   30.5280   46.3430 H   0  0  0  0  0  0  0  0  0  0  0  0
   61.3141   28.2296   44.2894 H   0  0  0  0  0  0  0  0  0  0  0  0
   61.4548   28.1282   46.0873 H   0  0  0  0  0  0  0  0  0  0  0  0
   59.0668   27.7427   43.2178 H   0  0  0  0  0  0  0  0  0  0  0  0
   57.1587   26.1415   43.2498 H   0  0  0  0  0  0  0  0  0  0  0  0
   56.6161   24.8793   45.3310 H   0  0  0  0  0  0  0  0  0  0  0  0
   57.9770   25.2225   47.3916 H   0  0  0  0  0  0  0  0  0  0  0  0
   57.8046   30.1084   47.0673 H   0  0  0  0  0  0  0  0  0  0  0  0
   57.6858   31.9136   47.3321 H   0  0  0  0  0  0  0  0  0  0  0  0
   58.8588   33.2387   45.2882 H   0  0  0  0  0  0  0  0  0  0  0  0
   58.5134   33.6281   42.8565 H   0  0  0  0  0  0  0  0  0  0  0  0
   57.2973   31.9440   41.4785 H   0  0  0  0  0  0  0  0  0  0  0  0
   56.3321   29.9164   42.5531 H   0  0  0  0  0  0  0  0  0  0  0  0
   58.4520   32.6837   50.6189 H   0  0  0  0  0  0  0  0  0  0  0  0
   58.0500   33.6056   49.1306 H   0  0  0  0  0  0  0  0  0  0  0  0
   57.9502   31.8121   49.1306 H   0  0  0  0  0  0  0  0  0  0  0  0
  1  2  1  0
  2  3  1  0
  3  4  2  0
  3  5  1  0
  5  6  1  0
  6  7  1  0
  7  8  2  3
  8  9  1  0
  9 10  1  0
 10 11  2  0
 11 12  1  0
 12 13  2  0
 13 14  1  0
 14 15  2  0
 15 16  1  0
  7 17  1  0
 17 18  1  0
 18 19  1  0
 19 20  2  0
 20 21  1  0
 21 22  2  0
 22 23  1  0
 23 24  2  0
 24 25  1  0
 25 26  2  0
 25 27  1  0
 17 28  1  0
 28 29  1  0
 29 30  1  0
 29 31  1  0
 31 32  2  0
 31  2  1  0
 28  5  2  0
 15 10  1  0
 24 19  1  0
  1 33  1  0
  1 34  1  0
  1 35  1  0
  6 36  1  0
  9 37  1  0
  9 38  1  0
 11 39  1  0
 12 40  1  0
 13 41  1  0
 14 42  1  0
 18 43  1  0
 18 44  1  0
 20 45  1  0
 21 46  1  0
 22 47  1  0
 23 48  1  0
 30 49  1  0
 30 50  1  0
 30 51  1  0
M  CHG  1  27  -1
M  END
>  <UniqueID>  (46) 
43

>  <SMILES>  (46) 
Cn1c(=O)c2[nH]c(=NCc3ccccc3Cl)n(Cc3ccccc3C(=O)[O-])c2n(C)c1=O

>  <Energy>  (46) 
119.19838181348292

>  <Genealogy>  (46) 
Cn1c(=O)c2[nH]c(=NCc3ccccc3Cl)n(Cc3ccccc3C(=O)[O-])c2n(C)c1=O (protonated)
Cn1c(=O)c2[nH]c(=NCc3ccccc3Cl)n(Cc3ccccc3C(=O)[O-])c2n(C)c1=O (3D coordinates assigned)
Cn1c(=O)c2[nH]c(=NCc3ccccc3Cl)n(Cc3ccccc3C(=O)[O-])c2n(C)c1=O (optimized conformer: 119.19838181348292 kcal/mol)

>  <smiles>  (46) 
Cn1c(=O)c2[nH]c(=NCc3ccccc3Cl)n(Cc3ccccc3C(=O)O)c2n(C)c1=O

>  <score_type>  (46) 
oracle

>  <origin>  (46) 
adg

>  <m_score__min__energy>  (46) 
-10.720000000000001

>  <m_primary>  (46) 
energy

$$$$
46:0
     RDKit          3D

 52 55  0  0  0  0  0  0  0  0999 V2000
   56.2970   27.2360   45.6480 C   0  0  0  0  0  0  0  0  0  0  0  0
   56.2800   28.6490   45.1690 C   0  0  0  0  0  0  0  0  0  0  0  0
   57.3870   29.4160   44.8840 C   0  0  0  0  0  0  0  0  0  0  0  0
   56.8550   30.5960   44.4070 C   0  0  0  0  0  0  0  0  0  0  0  0
   57.6270   31.7670   43.9430 C   0  0  0  0  0  0  0  0  0  0  0  0
   57.6950   31.9990   42.7030 O   0  0  0  0  0  0  0  0  0  0  0  0
   58.3330   32.6180   44.8800 N   0  0  0  0  0  0  0  0  0  0  0  0
   58.8070   33.8470   44.1980 C   0  0  0  0  0  0  0  0  0  0  0  0
   58.9020   35.0650   45.1450 C   0  0  0  0  0  0  0  0  0  0  0  0
   59.2390   34.6810   46.5340 N   0  0  0  0  0  0  0  0  0  0  0  0
   60.6460   34.2460   46.6950 C   0  0  0  0  0  0  0  0  0  0  0  0
   60.8030   33.3670   47.9080 C   0  0  0  0  0  0  0  0  0  0  0  0
   60.9810   33.9410   49.1760 C   0  0  0  0  0  0  0  0  0  0  0  0
   61.1670   33.1260   50.2960 C   0  0  0  0  0  0  0  0  0  0  0  0
   61.1980   31.7360   50.1550 C   0  0  0  0  0  0  0  0  0  0  0  0
   61.0500   31.1490   48.8940 C   0  0  0  0  0  0  0  0  0  0  0  0
   61.0940   29.7510   48.7930 O   0  0  0  0  0  0  0  0  0  0  0  0
   60.6070   28.9940   47.7180 C   0  0  0  0  0  0  0  0  0  0  0  0
   60.7840   29.3950   46.3800 C   0  0  0  0  0  0  0  0  0  0  0  0
   60.3100   28.5930   45.3350 C   0  0  0  0  0  0  0  0  0  0  0  0
   59.6690   27.3840   45.6160 C   0  0  0  0  0  0  0  0  0  0  0  0
   59.5000   26.9740   46.9420 C   0  0  0  0  0  0  0  0  0  0  0  0
   59.9720   27.7740   47.9870 C   0  0  0  0  0  0  0  0  0  0  0  0
   60.8250   31.9690   47.7740 C   0  0  0  0  0  0  0  0  0  0  0  0
   58.2700   33.7120   47.1070 C   0  0  0  0  0  0  0  0  0  0  0  0
   57.4770   32.9270   46.0410 C   0  0  0  0  0  0  0  0  0  0  0  0
   55.5090   30.5210   44.4080 N   0  0  0  0  0  0  0  0  0  0  0  0
   55.1580   29.3290   44.8650 N   0  0  0  0  0  0  0  0  0  0  0  0
   56.2972   27.2217   46.7479 H   0  0  0  0  0  0  0  0  0  0  0  0
   55.4051   26.7115   45.2746 H   0  0  0  0  0  0  0  0  0  0  0  0
   57.2013   26.7331   45.2746 H   0  0  0  0  0  0  0  0  0  0  0  0
   58.4472   29.1503   45.0076 H   0  0  0  0  0  0  0  0  0  0  0  0
   59.1630   32.0940   45.2430 H   0  0  0  0  0  0  0  0  0  0  0  0
   59.8043   33.6518   43.7770 H   0  0  0  0  0  0  0  0  0  0  0  0
   58.0727   34.0939   43.4171 H   0  0  0  0  0  0  0  0  0  0  0  0
   59.6810   35.7442   44.7684 H   0  0  0  0  0  0  0  0  0  0  0  0
   57.9150   35.5503   45.1636 H   0  0  0  0  0  0  0  0  0  0  0  0
   60.9534   33.6837   45.8009 H   0  0  0  0  0  0  0  0  0  0  0  0
   61.2764   35.1381   46.8243 H   0  0  0  0  0  0  0  0  0  0  0  0
   60.9741   35.0352   49.2888 H   0  0  0  0  0  0  0  0  0  0  0  0
   61.2893   33.5796   51.2906 H   0  0  0  0  0  0  0  0  0  0  0  0
   61.3396   31.0997   51.0410 H   0  0  0  0  0  0  0  0  0  0  0  0
   61.2966   30.3419   46.1549 H   0  0  0  0  0  0  0  0  0  0  0  0
   60.4424   28.9152   44.2916 H   0  0  0  0  0  0  0  0  0  0  0  0
   59.2972   26.7546   44.7941 H   0  0  0  0  0  0  0  0  0  0  0  0
   58.9956   26.0218   47.1631 H   0  0  0  0  0  0  0  0  0  0  0  0
   59.8440   27.4433   49.0283 H   0  0  0  0  0  0  0  0  0  0  0  0
   60.6651   31.5124   46.7861 H   0  0  0  0  0  0  0  0  0  0  0  0
   58.8238   32.9926   47.7281 H   0  0  0  0  0  0  0  0  0  0  0  0
   57.5396   34.2927   47.6895 H   0  0  0  0  0  0  0  0  0  0  0  0
   57.1119   31.9874   46.4812 H   0  0  0  0  0  0  0  0  0  0  0  0
   56.6306   33.5432   45.7035 H   0  0  0  0  0  0  0  0  0  0  0  0
  1  2  1  0
  2  3  2  0
  3  4  1  0
  4  5  1  0
  5  6  2  0
  5  7  1  0
  7  8  1  0
  8  9  1  0
  9 10  1  0
 10 11  1  0
 11 12  1  0
 12 13  2  0
 13 14  1  0
 14 15  2  0
 15 16  1  0
 16 17  1  0
 17 18  1  0
 18 19  2  0
 19 20  1  0
 20 21  2  0
 21 22  1  0
 22 23  2  0
 16 24  2  0
 10 25  1  0
 25 26  1  0
  4 27  2  0
 27 28  1  0
 28  2  1  0
 26  7  1  0
 24 12  1  0
 23 18  1  0
  1 29  1  0
  1 30  1  0
  1 31  1  0
  3 32  1  0
  7 33  1  0
  8 34  1  0
  8 35  1  0
  9 36  1  0
  9 37  1  0
 11 38  1  0
 11 39  1  0
 13 40  1  0
 14 41  1  0
 15 42  1  0
 19 43  1  0
 20 44  1  0
 21 45  1  0
 22 46  1  0
 23 47  1  0
 24 48  1  0
 25 49  1  0
 25 50  1  0
 26 51  1  0
 26 52  1  0
M  CHG  2   7   1  28  -1
M  END
>  <UniqueID>  (47) 
44

>  <SMILES>  (47) 
Cc1cc(C(=O)[NH+]2CCN(Cc3cccc(Oc4ccccc4)c3)CC2)n[n-]1

>  <Energy>  (47) 
102.87588358223456

>  <Genealogy>  (47) 
Cc1cc(C(=O)[NH+]2CCN(Cc3cccc(Oc4ccccc4)c3)CC2)n[n-]1 (protonated)
Cc1cc(C(=O)[NH+]2CCN(Cc3cccc(Oc4ccccc4)c3)CC2)n[n-]1 (3D coordinates assigned)
Cc1cc(C(=O)[NH+]2CCN(Cc3cccc(Oc4ccccc4)c3)CC2)n[n-]1 (nonaromatic ring conformer: 102.87588358223456 kcal/mol)

>  <smiles>  (47) 
Cc1cc(C(=O)N2CCN(Cc3cccc(Oc4ccccc4)c3)CC2)n[nH]1

>  <score_type>  (47) 
oracle

>  <origin>  (47) 
adg

>  <m_score__min__energy>  (47) 
-10.210000000000001

>  <m_primary>  (47) 
energy

$$$$
47:0
     RDKit          3D

 46 48  0  0  0  0  0  0  0  0999 V2000
   56.7550   24.8380   44.5640 C   0  0  0  0  0  0  0  0  0  0  0  0
   55.8970   25.7760   45.8110 S   0  0  0  0  0  0  0  0  0  0  0  0
   54.4110   25.6630   45.6200 O   0  0  0  0  0  0  0  0  0  0  0  0
   56.2540   25.2210   47.1600 O   0  0  0  0  0  0  0  0  0  0  0  0
   56.3800   27.4410   45.7480 N   0  0  0  0  0  0  0  0  0  0  0  0
   57.7290   27.9280   45.7550 C   0  0  0  0  0  0  0  0  0  0  0  0
   58.4070   28.2400   46.9490 C   0  0  0  0  0  0  0  0  0  0  0  0
   59.7270   28.7180   46.9140 C   0  0  0  0  0  0  0  0  0  0  0  0
   60.4090   29.1660   48.1740 C   0  0  0  0  0  0  0  0  0  0  0  0
   59.4700   29.0290   49.2730 N   0  0  0  0  0  0  0  0  0  0  0  0
   58.6140   30.0700   49.7430 C   0  0  0  0  0  0  0  0  0  0  0  0
   58.0220   29.9590   50.8490 O   0  0  0  0  0  0  0  0  0  0  0  0
   58.4430   31.2580   48.9650 N   0  0  0  0  0  0  0  0  0  0  0  0
   59.4950   32.2530   48.7620 C   0  0  0  0  0  0  0  0  0  0  0  0
   59.2210   33.0840   47.5260 C   0  0  0  0  0  0  0  0  0  0  0  0
   57.9000   33.1210   47.0420 C   0  0  0  0  0  0  0  0  0  0  0  0
   57.5800   33.8430   45.8920 C   0  0  0  0  0  0  0  0  0  0  0  0
   58.5720   34.5300   45.1990 C   0  0  0  0  0  0  0  0  0  0  0  0
   59.8910   34.4970   45.6530 C   0  0  0  0  0  0  0  0  0  0  0  0
   60.2360   33.7830   46.8140 C   0  0  0  0  0  0  0  0  0  0  0  0
   61.6110   33.7890   47.2390 N   0  0  0  0  0  0  0  0  0  0  0  0
   62.0420   33.9840   48.5000 C   0  0  0  0  0  0  0  0  0  0  0  0
   63.4060   33.7950   48.5310 C   0  0  0  0  0  0  0  0  0  0  0  0
   63.7430   33.4650   47.2330 C   0  0  0  0  0  0  0  0  0  0  0  0
   62.6350   33.4570   46.4680 N   0  0  0  0  0  0  0  0  0  0  0  0
   60.3630   28.8970   45.6760 C   0  0  0  0  0  0  0  0  0  0  0  0
   59.6940   28.5910   44.4910 C   0  0  0  0  0  0  0  0  0  0  0  0
   58.3840   28.1080   44.5290 C   0  0  0  0  0  0  0  0  0  0  0  0
   57.7440   27.8220   43.3670 F   0  0  0  0  0  0  0  0  0  0  0  0
   57.4218   24.1090   45.0476 H   0  0  0  0  0  0  0  0  0  0  0  0
   56.0239   24.3066   43.9371 H   0  0  0  0  0  0  0  0  0  0  0  0
   57.3493   25.5190   43.9371 H   0  0  0  0  0  0  0  0  0  0  0  0
   57.8992   28.1084   47.9159 H   0  0  0  0  0  0  0  0  0  0  0  0
   61.2942   28.5403   48.3607 H   0  0  0  0  0  0  0  0  0  0  0  0
   60.7317   30.2133   48.0790 H   0  0  0  0  0  0  0  0  0  0  0  0
   59.5384   32.9154   49.6391 H   0  0  0  0  0  0  0  0  0  0  0  0
   60.4531   31.7294   48.6284 H   0  0  0  0  0  0  0  0  0  0  0  0
   57.1100   32.5738   47.5772 H   0  0  0  0  0  0  0  0  0  0  0  0
   56.5409   33.8693   45.5321 H   0  0  0  0  0  0  0  0  0  0  0  0
   58.3163   35.0992   44.2931 H   0  0  0  0  0  0  0  0  0  0  0  0
   60.6708   35.0365   45.0955 H   0  0  0  0  0  0  0  0  0  0  0  0
   61.4106   34.2496   49.3607 H   0  0  0  0  0  0  0  0  0  0  0  0
   64.0777   33.8866   49.3973 H   0  0  0  0  0  0  0  0  0  0  0  0
   64.7604   33.2428   46.8786 H   0  0  0  0  0  0  0  0  0  0  0  0
   61.3934   29.2802   45.6400 H   0  0  0  0  0  0  0  0  0  0  0  0
   60.1994   28.7304   43.5240 H   0  0  0  0  0  0  0  0  0  0  0  0
  1  2  1  0
  2  3  2  0
  2  4  2  0
  2  5  1  0
  5  6  1  0
  6  7  2  0
  7  8  1  0
  8  9  1  0
  9 10  1  0
 10 11  1  0
 11 12  2  0
 11 13  1  0
 13 14  1  0
 14 15  1  0
 15 16  2  0
 16 17  1  0
 17 18  2  0
 18 19  1  0
 19 20  2  0
 20 21  1  0
 21 22  1  0
 22 23  2  0
 23 24  1  0
 24 25  2  0
  8 26  2  0
 26 27  1  0
 27 28  2  0
 28 29  1  0
 28  6  1  0
 20 15  1  0
 25 21  1  0
  1 30  1  0
  1 31  1  0
  1 32  1  0
  7 33  1  0
  9 34  1  0
  9 35  1  0
 14 36  1  0
 14 37  1  0
 16 38  1  0
 17 39  1  0
 18 40  1  0
 19 41  1  0
 22 42  1  0
 23 43  1  0
 24 44  1  0
 26 45  1  0
 27 46  1  0
M  CHG  3   5  -1  10  -1  13  -1
M  END
>  <UniqueID>  (48) 
45

>  <SMILES>  (48) 
CS(=O)(=O)[N-]c1cc(C[N-]C(=O)[N-]Cc2ccccc2-n2cccn2)ccc1F

>  <Energy>  (48) 
74.55602062400341

>  <Genealogy>  (48) 
CS(=O)(=O)[N-]c1cc(C[N-]C(=O)[N-]Cc2ccccc2-n2cccn2)ccc1F (protonated)
CS(=O)(=O)[N-]c1cc(C[N-]C(=O)[N-]Cc2ccccc2-n2cccn2)ccc1F (3D coordinates assigned)
CS(=O)(=O)[N-]c1cc(C[N-]C(=O)[N-]Cc2ccccc2-n2cccn2)ccc1F (optimized conformer: 74.55602062400341 kcal/mol)

>  <smiles>  (48) 
CS(=O)(=O)Nc1cc(CNC(=O)NCc2ccccc2-n2cccn2)ccc1F

>  <score_type>  (48) 
oracle

>  <origin>  (48) 
adg

>  <m_score__min__energy>  (48) 
-12.710000000000001

>  <m_primary>  (48) 
energy

$$$$
48:0
     RDKit          3D

 29 31  0  0  0  0  0  0  0  0999 V2000
   54.8710   26.4100   46.1620 N   0  0  0  0  0  0  0  0  0  0  0  0
   56.2760   26.2170   46.3000 C   0  0  0  0  0  0  0  0  0  0  0  0
   56.7290   25.5890   47.2930 O   0  0  0  0  0  0  0  0  0  0  0  0
   57.2050   26.7150   45.2410 C   0  0  0  0  0  0  0  0  0  0  0  0
   57.4200   28.1880   45.4000 C   0  0  0  0  0  0  0  0  0  0  0  0
   58.5720   28.7410   45.8140 N   0  0  0  0  0  0  0  0  0  0  0  0
   58.2880   30.0630   45.8780 C   0  0  0  0  0  0  0  0  0  0  0  0
   59.2710   31.0790   46.3570 C   0  0  0  0  0  0  0  0  0  0  0  0
   59.0040   31.4030   47.7930 C   0  0  0  0  0  0  0  0  0  0  0  0
   58.5310   30.4970   48.7440 C   0  0  0  0  0  0  0  0  0  0  0  0
   58.5190   31.2080   49.9250 C   0  0  0  0  0  0  0  0  0  0  0  0
   58.1660   30.8680   51.2250 C   0  0  0  0  0  0  0  0  0  0  0  0
   57.7440   29.7180   51.5100 O   0  0  0  0  0  0  0  0  0  0  0  0
   58.2900   31.8230   52.1920 N   0  0  0  0  0  0  0  0  0  0  0  0
   58.7500   33.0800   51.8960 C   0  0  0  0  0  0  0  0  0  0  0  0
   58.8850   34.1930   53.0820 S   0  0  0  0  0  0  0  0  0  0  0  0
   59.1000   33.4070   50.6160 N   0  0  0  0  0  0  0  0  0  0  0  0
   58.9750   32.4610   49.6530 C   0  0  0  0  0  0  0  0  0  0  0  0
   59.2820   32.6040   48.3560 N   0  0  0  0  0  0  0  0  0  0  0  0
   57.0100   30.3700   45.5580 N   0  0  0  0  0  0  0  0  0  0  0  0
   56.4770   29.1760   45.2590 C   0  0  0  0  0  0  0  0  0  0  0  0
   55.1540   28.9910   44.8780 O   0  0  0  0  0  0  0  0  0  0  0  0
   54.3600   27.0870   46.7720 H   0  0  0  0  0  0  0  0  0  0  0  0
   58.1700   26.1944   45.3288 H   0  0  0  0  0  0  0  0  0  0  0  0
   56.7640   26.5190   44.2525 H   0  0  0  0  0  0  0  0  0  0  0  0
   60.2901   30.6773   46.2564 H   0  0  0  0  0  0  0  0  0  0  0  0
   59.1724   31.9933   45.7534 H   0  0  0  0  0  0  0  0  0  0  0  0
   58.2341   29.4496   48.5862 H   0  0  0  0  0  0  0  0  0  0  0  0
   59.6720   33.4510   47.8860 H   0  0  0  0  0  0  0  0  0  0  0  0
  1  2  1  0
  2  3  2  0
  2  4  1  0
  4  5  1  0
  5  6  1  0
  6  7  2  0
  7  8  1  0
  8  9  1  0
  9 10  2  0
 10 11  1  0
 11 12  1  0
 12 13  2  0
 12 14  1  0
 14 15  1  0
 15 16  2  0
 15 17  1  0
 17 18  1  0
 18 19  1  0
  7 20  1  0
 20 21  1  0
 21 22  1  0
 21  5  2  0
 19  9  1  0
 18 11  2  0
  1 23  1  0
  4 24  1  0
  4 25  1  0
  8 26  1  0
  8 27  1  0
 10 28  1  0
 19 29  1  0
M  CHG  5   1  -1  14  -1  17  -1  20  -1  22  -1
M  END
>  <UniqueID>  (49) 
46

>  <SMILES>  (49) 
[NH-]C(=O)Cc1nc(Cc2cc3c(=O)[n-]c(=S)[n-]c3[nH]2)[n-]c1[O-]

>  <Energy>  (49) 
90.30369681113076

>  <Genealogy>  (49) 
[NH-]C(=O)Cc1nc(Cc2cc3c(=O)[n-]c(=S)[n-]c3[nH]2)[n-]c1[O-] (protonated)
[NH-]C(=O)Cc1nc(Cc2cc3c(=O)[n-]c(=S)[n-]c3[nH]2)[n-]c1[O-] (3D coordinates assigned)
[NH-]C(=O)Cc1nc(Cc2cc3c(=O)[n-]c(=S)[n-]c3[nH]2)[n-]c1[O-] (optimized conformer: 90.30369681113076 kcal/mol)

>  <smiles>  (49) 
NC(=O)Cc1nc(Cc2cc3c(=O)[nH]c(=S)[nH]c3[nH]2)[nH]c1O

>  <score_type>  (49) 
oracle

>  <origin>  (49) 
adg

>  <m_score__min__energy>  (49) 
-16.449999999999999

>  <m_primary>  (49) 
energy

$$$$
49:0
     RDKit          3D

 48 51  0  0  0  0  0  0  0  0999 V2000
   60.1231   29.5189   47.2920 H   0  0  0  0  0  0  0  0  0  0  0  0
   59.6440   28.6750   46.7740 C   0  0  0  0  0  0  0  0  0  0  0  0
   59.9965   27.6484   46.9524 H   0  0  0  0  0  0  0  0  0  0  0  0
   58.6290   28.8980   45.9240 C   0  0  0  0  0  0  0  0  0  0  0  0
   57.9300   27.9250   45.2000 C   0  0  0  0  0  0  0  0  0  0  0  0
   58.1360   26.5920   45.2080 C   0  0  0  0  0  0  0  0  0  0  0  0
   58.9360   26.1894   44.5693 H   0  0  0  0  0  0  0  0  0  0  0  0
   57.3550   25.6420   46.0200 C   0  0  0  0  0  0  0  0  0  0  0  0
   57.9030   24.5950   46.6600 N   0  0  0  0  0  0  0  0  0  0  0  0
   56.8630   24.0600   47.3360 C   0  0  0  0  0  0  0  0  0  0  0  0
   56.9780   23.0350   48.0570 O   0  0  0  0  0  0  0  0  0  0  0  0
   55.6930   24.7170   47.1870 N   0  0  0  0  0  0  0  0  0  0  0  0
   56.0210   25.7230   46.3620 C   0  0  0  0  0  0  0  0  0  0  0  0
   55.1340   26.7190   45.9720 O   0  0  0  0  0  0  0  0  0  0  0  0
   57.0160   28.6090   44.4110 C   0  0  0  0  0  0  0  0  0  0  0  0
   56.3039   28.1671   43.6985 H   0  0  0  0  0  0  0  0  0  0  0  0
   57.1730   29.9510   44.6930 C   0  0  0  0  0  0  0  0  0  0  0  0
   56.3780   31.0470   44.0510 C   0  0  0  0  0  0  0  0  0  0  0  0
   55.9226   31.6749   44.8310 H   0  0  0  0  0  0  0  0  0  0  0  0
   57.0409   31.6627   43.4254 H   0  0  0  0  0  0  0  0  0  0  0  0
   55.5869   30.6080   43.4254 H   0  0  0  0  0  0  0  0  0  0  0  0
   58.1530   30.1300   45.6090 N   0  0  0  0  0  0  0  0  0  0  0  0
   58.5730   31.3950   46.1540 C   0  0  0  0  0  0  0  0  0  0  0  0
   57.7640   32.4430   46.5440 C   0  0  0  0  0  0  0  0  0  0  0  0
   56.6670   32.4697   46.4676 H   0  0  0  0  0  0  0  0  0  0  0  0
   58.5420   33.4280   47.0340 N   0  0  0  0  0  0  0  0  0  0  0  0
   59.8030   33.0230   46.9700 N   0  0  0  0  0  0  0  0  0  0  0  0
   60.9360   33.8420   47.4140 C   0  0  0  0  0  0  0  0  0  0  0  0
   60.7930   34.8694   47.0478 H   0  0  0  0  0  0  0  0  0  0  0  0
   60.9930   33.9300   48.9600 C   0  0  0  0  0  0  0  0  0  0  0  0
   61.1578   34.9780   49.2508 H   0  0  0  0  0  0  0  0  0  0  0  0
   60.0394   33.5533   49.3584 H   0  0  0  0  0  0  0  0  0  0  0  0
   62.1230   33.0710   49.5400 C   0  0  0  0  0  0  0  0  0  0  0  0
   62.1229   33.1741   50.6352 H   0  0  0  0  0  0  0  0  0  0  0  0
   61.9472   32.0268   49.2421 H   0  0  0  0  0  0  0  0  0  0  0  0
   63.4480   33.4830   49.0190 N   0  0  0  0  0  0  0  0  0  0  0  0
   64.4490   32.4440   49.3040 C   0  0  0  0  0  0  0  0  0  0  0  0
   64.5591   32.3297   50.3925 H   0  0  0  0  0  0  0  0  0  0  0  0
   64.1215   31.4894   48.8663 H   0  0  0  0  0  0  0  0  0  0  0  0
   65.4151   32.7357   48.8663 H   0  0  0  0  0  0  0  0  0  0  0  0
   63.4570   33.8630   47.5800 C   0  0  0  0  0  0  0  0  0  0  0  0
   63.4503   34.9606   47.5076 H   0  0  0  0  0  0  0  0  0  0  0  0
   64.3613   33.4265   47.1308 H   0  0  0  0  0  0  0  0  0  0  0  0
   62.2510   33.3150   46.8060 C   0  0  0  0  0  0  0  0  0  0  0  0
   62.3185   33.6355   45.7559 H   0  0  0  0  0  0  0  0  0  0  0  0
   62.2571   32.2168   46.8678 H   0  0  0  0  0  0  0  0  0  0  0  0
   59.8610   31.7830   46.4400 C   0  0  0  0  0  0  0  0  0  0  0  0
   60.7720   31.1910   46.2682 H   0  0  0  0  0  0  0  0  0  0  0  0
  1  2  1  0
  2  3  1  0
  2  4  2  0
  4  5  1  0
  5  6  2  0
  6  7  1  0
  6  8  1  0
  8  9  1  0
  9 10  1  0
 10 11  2  0
 10 12  1  0
 12 13  1  0
 13 14  1  0
  5 15  1  0
 15 16  1  0
 15 17  2  0
 17 18  1  0
 18 19  1  0
 18 20  1  0
 18 21  1  0
 17 22  1  0
 22 23  1  0
 23 24  1  0
 24 25  1  0
 24 26  2  0
 26 27  1  0
 27 28  1  0
 28 29  1  0
 28 30  1  0
 30 31  1  0
 30 32  1  0
 30 33  1  0
 33 34  1  0
 33 35  1  0
 33 36  1  0
 36 37  1  0
 37 38  1  0
 37 39  1  0
 37 40  1  0
 36 41  1  0
 41 42  1  0
 41 43  1  0
 41 44  1  0
 44 45  1  0
 44 46  1  0
 27 47  1  0
 47 48  1  0
 22  4  1  0
 47 23  2  0
 13  8  2  0
 44 28  1  0
M  CHG  3   9  -1  12  -1  14  -1
M  END
>  <UniqueID>  (50) 
47

>  <SMILES>  (50) 
C=c1/c(=C/c2[n-]c(=O)[n-]c2[O-])cc(C)n1-c1cnn(C2CCN(C)CC2)c1

>  <Energy>  (50) 
159.18884300520904

>  <Genealogy>  (50) 
C=c1c(=Cc2[n-]c(=O)[n-]c2[O-])cc(C)n1-c1cnn(C2CCN(C)CC2)c1 (protonated)
C=c1/c(=C/c2[n-]c(=O)[n-]c2[O-])cc(C)n1-c1cnn(C2CCN(C)CC2)c1 (cis-trans isomerization)
C=c1/c(=C/c2[n-]c(=O)[n-]c2[O-])cc(C)n1-c1cnn(C2CCN(C)CC2)c1 (3D coordinates assigned)
C=c1/c(=C/c2[n-]c(=O)[n-]c2[O-])cc(C)n1-c1cnn(C2CCN(C)CC2)c1 (nonaromatic ring conformer: 159.18884300520904 kcal/mol)

>  <smiles>  (50) 
C=c1c(=Cc2[nH]c(=O)[nH]c2O)cc(C)n1-c1cnn(C2CCN(C)CC2)c1

>  <score_type>  (50) 
oracle

>  <origin>  (50) 
adg

>  <m_score__min__energy>  (50) 
-16.100000000000001

>  <m_primary>  (50) 
energy

$$$$
50:0
     RDKit          3D

 56 59  0  0  0  0  0  0  0  0999 V2000
   58.8520   22.5760   44.9100 C   0  0  0  0  0  0  0  0  0  0  0  0
   57.7650   22.6700   45.6790 C   0  0  0  0  0  0  0  0  0  0  0  0
   57.7320   23.5930   46.8650 C   0  0  0  0  0  0  0  0  0  0  0  0
   57.4930   24.9900   46.4330 N   0  0  0  0  0  0  0  0  0  0  0  0
   56.1970   25.4000   46.2200 C   0  0  0  0  0  0  0  0  0  0  0  0
   55.2330   24.5980   46.3550 O   0  0  0  0  0  0  0  0  0  0  0  0
   55.9140   26.7080   45.8400 C   0  0  0  0  0  0  0  0  0  0  0  0
   56.9380   27.6320   45.6450 C   0  0  0  0  0  0  0  0  0  0  0  0
   56.5590   28.9830   45.1690 C   0  0  0  0  0  0  0  0  0  0  0  0
   55.3620   29.3690   45.2430 O   0  0  0  0  0  0  0  0  0  0  0  0
   57.5700   29.8480   44.6340 N   0  0  0  0  0  0  0  0  0  0  0  0
   58.1640   30.9780   45.2890 C   0  0  0  0  0  0  0  0  0  0  0  0
   58.3250   32.2170   44.6430 C   0  0  0  0  0  0  0  0  0  0  0  0
   58.8860   33.3000   45.3260 C   0  0  0  0  0  0  0  0  0  0  0  0
   59.2750   33.1670   46.6660 C   0  0  0  0  0  0  0  0  0  0  0  0
   59.9610   34.5420   47.5350 S   0  0  0  0  0  0  0  0  0  0  0  0
   59.2770   34.6760   48.8690 O   0  0  0  0  0  0  0  0  0  0  0  0
   59.7050   35.8000   46.7530 O   0  0  0  0  0  0  0  0  0  0  0  0
   61.6820   34.3550   47.7790 N   0  0  0  0  0  0  0  0  0  0  0  0
   61.9640   33.9490   49.1740 C   0  0  0  0  0  0  0  0  0  0  0  0
   63.3800   33.3800   49.3150 C   0  0  0  0  0  0  0  0  0  0  0  0
   63.5520   32.1090   48.4640 C   0  0  0  0  0  0  0  0  0  0  0  0
   62.5980   32.0680   47.2570 C   0  0  0  0  0  0  0  0  0  0  0  0
   62.2900   33.4810   46.7440 C   0  0  0  0  0  0  0  0  0  0  0  0
   59.0980   31.9370   47.3150 C   0  0  0  0  0  0  0  0  0  0  0  0
   58.5370   30.8550   46.6330 C   0  0  0  0  0  0  0  0  0  0  0  0
   58.2750   27.2270   45.8610 C   0  0  0  0  0  0  0  0  0  0  0  0
   59.3510   28.1370   45.7530 C   0  0  0  0  0  0  0  0  0  0  0  0
   60.6660   27.7130   45.9290 C   0  0  0  0  0  0  0  0  0  0  0  0
   60.9360   26.3830   46.2210 C   0  0  0  0  0  0  0  0  0  0  0  0
   59.8930   25.4700   46.3740 C   0  0  0  0  0  0  0  0  0  0  0  0
   58.5410   25.8730   46.2290 C   0  0  0  0  0  0  0  0  0  0  0  0
   58.8574   21.8949   44.0462 H   0  0  0  0  0  0  0  0  0  0  0  0
   59.7424   23.1796   45.1401 H   0  0  0  0  0  0  0  0  0  0  0  0
   56.8794   22.0625   45.4411 H   0  0  0  0  0  0  0  0  0  0  0  0
   56.9240   23.2812   47.5432 H   0  0  0  0  0  0  0  0  0  0  0  0
   58.7025   23.5426   47.3803 H   0  0  0  0  0  0  0  0  0  0  0  0
   54.8686   27.0164   45.6917 H   0  0  0  0  0  0  0  0  0  0  0  0
   58.0082   32.3342   43.5962 H   0  0  0  0  0  0  0  0  0  0  0  0
   59.0229   34.2614   44.8093 H   0  0  0  0  0  0  0  0  0  0  0  0
   61.8640   34.8267   49.8294 H   0  0  0  0  0  0  0  0  0  0  0  0
   61.2460   33.1657   49.4586 H   0  0  0  0  0  0  0  0  0  0  0  0
   64.1062   34.1364   48.9825 H   0  0  0  0  0  0  0  0  0  0  0  0
   63.5494   33.1202   50.3704 H   0  0  0  0  0  0  0  0  0  0  0  0
   64.5876   32.0700   48.0953 H   0  0  0  0  0  0  0  0  0  0  0  0
   63.3149   31.2464   49.1040 H   0  0  0  0  0  0  0  0  0  0  0  0
   63.0667   31.4873   46.4489 H   0  0  0  0  0  0  0  0  0  0  0  0
   61.6547   31.5998   47.5747 H   0  0  0  0  0  0  0  0  0  0  0  0
   63.2286   33.9423   46.4031 H   0  0  0  0  0  0  0  0  0  0  0  0
   61.5601   33.3823   45.9270 H   0  0  0  0  0  0  0  0  0  0  0  0
   59.4023   31.8236   48.3660 H   0  0  0  0  0  0  0  0  0  0  0  0
   58.3870   29.8988   47.1557 H   0  0  0  0  0  0  0  0  0  0  0  0
   59.1472   29.1941   45.5270 H   0  0  0  0  0  0  0  0  0  0  0  0
   61.4921   28.4334   45.8364 H   0  0  0  0  0  0  0  0  0  0  0  0
   61.9777   26.0476   46.3322 H   0  0  0  0  0  0  0  0  0  0  0  0
   60.1226   24.4206   46.6109 H   0  0  0  0  0  0  0  0  0  0  0  0
  1  2  2  0
  2  3  1  0
  3  4  1  0
  4  5  1  0
  5  6  2  0
  5  7  1  0
  7  8  2  0
  8  9  1  0
  9 10  2  0
  9 11  1  0
 11 12  1  0
 12 13  2  0
 13 14  1  0
 14 15  2  0
 15 16  1  0
 16 17  2  0
 16 18  2  0
 16 19  1  0
 19 20  1  0
 20 21  1  0
 21 22  1  0
 22 23  1  0
 23 24  1  0
 15 25  1  0
 25 26  2  0
  8 27  1  0
 27 28  2  0
 28 29  1  0
 29 30  2  0
 30 31  1  0
 31 32  2  0
 32  4  1  0
 26 12  1  0
 32 27  1  0
 24 19  1  0
  1 33  1  0
  1 34  1  0
  2 35  1  0
  3 36  1  0
  3 37  1  0
  7 38  1  0
 13 39  1  0
 14 40  1  0
 20 41  1  0
 20 42  1  0
 21 43  1  0
 21 44  1  0
 22 45  1  0
 22 46  1  0
 23 47  1  0
 23 48  1  0
 24 49  1  0
 24 50  1  0
 25 51  1  0
 26 52  1  0
 28 53  1  0
 29 54  1  0
 30 55  1  0
 31 56  1  0
M  CHG  1  11  -1
M  END
>  <UniqueID>  (51) 
48

>  <SMILES>  (51) 
C=CCn1c(=O)cc(C(=O)[N-]c2ccc(S(=O)(=O)N3CCCCC3)cc2)c2ccccc21

>  <Energy>  (51) 
82.7275342165906

>  <Genealogy>  (51) 
C=CCn1c(=O)cc(C(=O)[N-]c2ccc(S(=O)(=O)N3CCCCC3)cc2)c2ccccc21 (protonated)
C=CCn1c(=O)cc(C(=O)[N-]c2ccc(S(=O)(=O)N3CCCCC3)cc2)c2ccccc21 (3D coordinates assigned)
C=CCn1c(=O)cc(C(=O)[N-]c2ccc(S(=O)(=O)N3CCCCC3)cc2)c2ccccc21 (nonaromatic ring conformer: 82.7275342165906 kcal/mol)

>  <smiles>  (51) 
C=CCn1c(=O)cc(C(=O)Nc2ccc(S(=O)(=O)N3CCCCC3)cc2)c2ccccc21

>  <score_type>  (51) 
oracle

>  <origin>  (51) 
adg

>  <m_score__min__energy>  (51) 
-10.75

>  <m_primary>  (51) 
energy

$$$$
51:0
     RDKit          3D

 58 61  0  0  0  0  0  0  0  0999 V2000
   55.0170   26.3510   46.0060 N   0  0  0  0  0  0  0  0  0  0  0  0
   56.7460   26.3810   46.0190 S   0  0  0  0  0  0  0  0  0  0  0  0
   57.2340   25.9240   47.3640 O   0  0  0  0  0  0  0  0  0  0  0  0
   57.2760   25.4450   44.9680 O   0  0  0  0  0  0  0  0  0  0  0  0
   57.3160   28.0140   45.6880 C   0  0  0  0  0  0  0  0  0  0  0  0
   56.7730   28.7630   44.6330 C   0  0  0  0  0  0  0  0  0  0  0  0
   57.1950   30.0770   44.4170 C   0  0  0  0  0  0  0  0  0  0  0  0
   58.1650   30.6490   45.2450 C   0  0  0  0  0  0  0  0  0  0  0  0
   58.7380   29.9010   46.2810 C   0  0  0  0  0  0  0  0  0  0  0  0
   59.7070   30.5220   47.1330 N   0  0  0  0  0  0  0  0  0  0  0  0
   59.7340   30.4110   48.5620 C   0  0  0  0  0  0  0  0  0  0  0  0
   58.7860   29.8470   49.1730 O   0  0  0  0  0  0  0  0  0  0  0  0
   60.8890   30.9860   49.3510 C   0  0  2  0  0  0  0  0  0  0  0  0
   61.7600   29.8230   49.8940 C   0  0  0  0  0  0  0  0  0  0  0  0
   62.3900   30.1840   51.1670 N   0  0  0  0  0  0  0  0  0  0  0  0
   63.7980   29.9760   51.3520 C   0  0  0  0  0  0  0  0  0  0  0  0
   64.1960   28.9100   51.9030 O   0  0  0  0  0  0  0  0  0  0  0  0
   64.7850   30.9900   50.9120 C   0  0  0  0  0  0  0  0  0  0  0  0
   66.1360   30.8780   51.2950 C   0  0  0  0  0  0  0  0  0  0  0  0
   67.0670   31.8410   50.8930 C   0  0  0  0  0  0  0  0  0  0  0  0
   66.6590   32.9310   50.1200 C   0  0  0  0  0  0  0  0  0  0  0  0
   65.3170   33.0630   49.7500 C   0  0  0  0  0  0  0  0  0  0  0  0
   64.3830   32.1010   50.1460 C   0  0  0  0  0  0  0  0  0  0  0  0
   61.5800   30.7520   52.2550 C   0  0  0  0  0  0  0  0  0  0  0  0
   60.2420   31.2690   51.7240 C   0  0  0  0  0  0  0  0  0  0  0  0
   60.4800   31.9260   50.4300 N   0  0  0  0  0  0  0  0  0  0  0  0
   59.1980   33.0370   50.0050 S   0  0  0  0  0  0  0  0  0  0  0  0
   59.2580   34.2690   50.8650 O   0  0  0  0  0  0  0  0  0  0  0  0
   57.8570   32.3800   50.1950 O   0  0  0  0  0  0  0  0  0  0  0  0
   59.3750   33.4890   48.3100 C   0  0  0  0  0  0  0  0  0  0  0  0
   60.6310   33.8710   47.8170 C   0  0  0  0  0  0  0  0  0  0  0  0
   60.7740   34.2570   46.4810 C   0  0  0  0  0  0  0  0  0  0  0  0
   59.6620   34.2720   45.6340 C   0  0  0  0  0  0  0  0  0  0  0  0
   58.4070   33.8980   46.1220 C   0  0  0  0  0  0  0  0  0  0  0  0
   58.2610   33.5090   47.4560 C   0  0  0  0  0  0  0  0  0  0  0  0
   58.3020   28.5840   46.5060 C   0  0  0  0  0  0  0  0  0  0  0  0
   54.6970   27.0650   46.7010 H   0  0  0  0  0  0  0  0  0  0  0  0
   56.0139   28.3148   43.9751 H   0  0  0  0  0  0  0  0  0  0  0  0
   56.7626   30.6633   43.5928 H   0  0  0  0  0  0  0  0  0  0  0  0
   58.4794   31.6905   45.0823 H   0  0  0  0  0  0  0  0  0  0  0  0
   61.4823   31.6059   48.6628 H   0  0  0  0  0  0  0  0  0  0  0  0
   61.1237   28.9387   50.0463 H   0  0  0  0  0  0  0  0  0  0  0  0
   62.5519   29.6086   49.1612 H   0  0  0  0  0  0  0  0  0  0  0  0
   66.4605   30.0283   51.9137 H   0  0  0  0  0  0  0  0  0  0  0  0
   68.1225   31.7401   51.1859 H   0  0  0  0  0  0  0  0  0  0  0  0
   67.3937   33.6855   49.8024 H   0  0  0  0  0  0  0  0  0  0  0  0
   64.9958   33.9248   49.1466 H   0  0  0  0  0  0  0  0  0  0  0  0
   63.3274   32.2127   49.8574 H   0  0  0  0  0  0  0  0  0  0  0  0
   61.3921   29.9733   53.0089 H   0  0  0  0  0  0  0  0  0  0  0  0
   62.1304   31.5931   52.7018 H   0  0  0  0  0  0  0  0  0  0  0  0
   59.5449   30.4285   51.5915 H   0  0  0  0  0  0  0  0  0  0  0  0
   59.8029   31.9833   52.4360 H   0  0  0  0  0  0  0  0  0  0  0  0
   61.5062   33.8669   48.4834 H   0  0  0  0  0  0  0  0  0  0  0  0
   61.7622   34.5491   46.0960 H   0  0  0  0  0  0  0  0  0  0  0  0
   59.7748   34.5782   44.5835 H   0  0  0  0  0  0  0  0  0  0  0  0
   57.5326   33.9099   45.4547 H   0  0  0  0  0  0  0  0  0  0  0  0
   57.2713   33.2179   47.8378 H   0  0  0  0  0  0  0  0  0  0  0  0
   58.7367   27.9970   47.3285 H   0  0  0  0  0  0  0  0  0  0  0  0
  1  2  1  0
  2  3  2  0
  2  4  2  0
  2  5  1  0
  5  6  2  0
  6  7  1  0
  7  8  2  0
  8  9  1  0
  9 10  1  0
 10 11  1  0
 11 12  2  0
 11 13  1  0
 13 14  1  0
 14 15  1  0
 15 16  1  0
 16 17  2  0
 16 18  1  0
 18 19  2  0
 19 20  1  0
 20 21  2  0
 21 22  1  0
 22 23  2  0
 15 24  1  0
 24 25  1  0
 25 26  1  0
 26 27  1  0
 27 28  2  0
 27 29  2  0
 27 30  1  0
 30 31  2  0
 31 32  1  0
 32 33  2  0
 33 34  1  0
 34 35  2  0
  9 36  2  0
 36  5  1  0
 26 13  1  0
 35 30  1  0
 23 18  1  0
  1 37  1  0
  6 38  1  0
  7 39  1  0
  8 40  1  0
 13 41  1  6
 14 42  1  0
 14 43  1  0
 19 44  1  0
 20 45  1  0
 21 46  1  0
 22 47  1  0
 23 48  1  0
 24 49  1  0
 24 50  1  0
 25 51  1  0
 25 52  1  0
 31 53  1  0
 32 54  1  0
 33 55  1  0
 34 56  1  0
 35 57  1  0
 36 58  1  0
M  CHG  2   1  -1  10  -1
M  END
>  <UniqueID>  (52) 
49

>  <SMILES>  (52) 
[NH-]S(=O)(=O)c1cccc([N-]C(=O)[C@@H]2CN(C(=O)c3ccccc3)CCN2S(=O)(=O)c2ccccc2)c1

>  <Energy>  (52) 
80.5510172024729

>  <Genealogy>  (52) 
[NH-]S(=O)(=O)c1cccc([N-]C(=O)C2CN(C(=O)c3ccccc3)CCN2S(=O)(=O)c2ccccc2)c1 (protonated)
[NH-]S(=O)(=O)c1cccc([N-]C(=O)[C@@H]2CN(C(=O)c3ccccc3)CCN2S(=O)(=O)c2ccccc2)c1 (chirality)
[NH-]S(=O)(=O)c1cccc([N-]C(=O)[C@@H]2CN(C(=O)c3ccccc3)CCN2S(=O)(=O)c2ccccc2)c1 (3D coordinates assigned)
[NH-]S(=O)(=O)c1cccc([N-]C(=O)[C@@H]2CN(C(=O)c3ccccc3)CCN2S(=O)(=O)c2ccccc2)c1 (nonaromatic ring conformer: 80.5510172024729 kcal/mol)

>  <smiles>  (52) 
NS(=O)(=O)c1cccc(NC(=O)C2CN(C(=O)c3ccccc3)CCN2S(=O)(=O)c2ccccc2)c1

>  <score_type>  (52) 
oracle

>  <origin>  (52) 
adg

>  <m_score__min__energy>  (52) 
-13.84

>  <m_primary>  (52) 
energy

$$$$
52:0
     RDKit          3D

 30 32  0  0  0  0  0  0  0  0999 V2000
   55.1620   30.1760   44.5190 N   0  0  0  0  0  0  0  0  0  0  0  0
   56.2220   29.4570   44.6060 C   0  0  0  0  0  0  0  0  0  0  0  0
   56.0610   28.2340   45.1800 N   0  0  0  0  0  0  0  0  0  0  0  0
   57.0940   27.3820   45.3130 C   0  0  0  0  0  0  0  0  0  0  0  0
   58.3580   27.7400   44.8620 C   0  0  0  0  0  0  0  0  0  0  0  0
   58.5390   28.9870   44.2740 C   0  0  0  0  0  0  0  0  0  0  0  0
   57.4580   29.8530   44.1460 C   0  0  0  0  0  0  0  0  0  0  0  0
   57.6990   31.1780   43.5350 C   0  0  0  0  0  0  0  0  0  0  0  0
   58.1760   32.2110   44.4710 C   0  0  0  0  0  0  0  0  0  0  0  0
   58.5100   33.4660   44.1560 N   0  0  0  0  0  0  0  0  0  0  0  0
   58.9500   34.3620   45.0630 C   0  0  0  0  0  0  0  0  0  0  0  0
   59.2430   35.5240   44.6790 O   0  0  0  0  0  0  0  0  0  0  0  0
   59.0760   34.0100   46.3880 C   0  0  0  0  0  0  0  0  0  0  0  0
   59.5270   34.9230   47.3180 C   0  0  0  0  0  0  0  0  0  0  0  0
   59.6250   34.4790   48.6240 C   0  0  0  0  0  0  0  0  0  0  0  0
   59.2930   33.2090   48.9780 N   0  0  0  0  0  0  0  0  0  0  0  0
   58.8480   32.3240   48.0380 C   0  0  0  0  0  0  0  0  0  0  0  0
   58.7320   32.7120   46.7200 C   0  0  0  0  0  0  0  0  0  0  0  0
   58.2920   31.8360   45.7780 N   0  0  0  0  0  0  0  0  0  0  0  0
   54.4330   30.0810   43.8020 H   0  0  0  0  0  0  0  0  0  0  0  0
   55.1460   27.9210   45.5310 H   0  0  0  0  0  0  0  0  0  0  0  0
   56.9369   26.3987   45.7804 H   0  0  0  0  0  0  0  0  0  0  0  0
   59.2048   27.0461   44.9686 H   0  0  0  0  0  0  0  0  0  0  0  0
   59.5331   29.2875   43.9115 H   0  0  0  0  0  0  0  0  0  0  0  0
   58.4537   31.0581   42.7437 H   0  0  0  0  0  0  0  0  0  0  0  0
   56.7266   31.5269   43.1571 H   0  0  0  0  0  0  0  0  0  0  0  0
   59.7951   35.9517   47.0354 H   0  0  0  0  0  0  0  0  0  0  0  0
   59.9819   35.1734   49.3988 H   0  0  0  0  0  0  0  0  0  0  0  0
   58.5813   31.2985   48.3332 H   0  0  0  0  0  0  0  0  0  0  0  0
   58.0380   30.8540   46.0710 H   0  0  0  0  0  0  0  0  0  0  0  0
  1  2  2  3
  2  3  1  0
  3  4  1  0
  4  5  2  0
  5  6  1  0
  6  7  2  0
  7  8  1  0
  8  9  1  0
  9 10  2  0
 10 11  1  0
 11 12  2  0
 11 13  1  0
 13 14  2  0
 14 15  1  0
 15 16  2  0
 16 17  1  0
 17 18  2  0
 18 19  1  0
  7  2  1  0
 19  9  1  0
 18 13  1  0
  1 20  1  0
  3 21  1  0
  4 22  1  0
  5 23  1  0
  6 24  1  0
  8 25  1  0
  8 26  1  0
 14 27  1  0
 15 28  1  0
 17 29  1  0
 19 30  1  0
M  END
>  <smiles>  (53) 
N=c1[nH]cccc1Cc1nc(=O)c2ccncc2[nH]1

>  <score_type>  (53) 
oracle

>  <origin>  (53) 
adg

>  <m_score__min__energy>  (53) 
-7.3700000000000001

>  <m_primary>  (53) 
energy

$$$$
53:0
     RDKit          3D

 46 48  0  0  0  0  0  0  0  0999 V2000
   63.0724   34.8303   48.5489 H   0  0  0  0  0  0  0  0  0  0  0  0
   62.6770   33.8160   48.3910 C   0  0  0  0  0  0  0  0  0  0  0  0
   61.6940   33.3090   49.2460 C   0  0  0  0  0  0  0  0  0  0  0  0
   61.3103   33.9314   50.0678 H   0  0  0  0  0  0  0  0  0  0  0  0
   61.1930   32.0090   49.0620 C   0  0  0  0  0  0  0  0  0  0  0  0
   60.1460   31.4550   49.9970 C   0  0  0  0  0  0  0  0  0  0  0  0
   60.0235   32.1507   50.8402 H   0  0  0  0  0  0  0  0  0  0  0  0
   60.4903   30.4657   50.3328 H   0  0  0  0  0  0  0  0  0  0  0  0
   58.7820   31.2650   49.3140 C   0  0  0  0  0  0  0  0  0  0  0  0
   58.0970   30.7764   50.0225 H   0  0  0  0  0  0  0  0  0  0  0  0
   58.9390   30.6493   48.4161 H   0  0  0  0  0  0  0  0  0  0  0  0
   58.1900   32.5360   48.8870 N   0  0  0  0  0  0  0  0  0  0  0  0
   57.6750   33.0880   49.6090 H   0  0  0  0  0  0  0  0  0  0  0  0
   58.5510   33.2230   47.6790 C   0  0  0  0  0  0  0  0  0  0  0  0
   58.2200   32.7690   46.5020 N   0  0  0  0  0  0  0  0  0  0  0  0
   58.9510   31.7990   45.6870 C   0  0  0  0  0  0  0  0  0  0  0  0
   58.9592   32.1436   44.6424 H   0  0  0  0  0  0  0  0  0  0  0  0
   59.9751   31.7191   46.0805 H   0  0  0  0  0  0  0  0  0  0  0  0
   58.3130   30.4360   45.7480 C   0  0  0  0  0  0  0  0  0  0  0  0
   58.7980   29.4610   46.6340 C   0  0  0  0  0  0  0  0  0  0  0  0
   59.6492   29.6936   47.2908 H   0  0  0  0  0  0  0  0  0  0  0  0
   58.2050   28.1960   46.6860 C   0  0  0  0  0  0  0  0  0  0  0  0
   58.5870   27.4429   47.3909 H   0  0  0  0  0  0  0  0  0  0  0  0
   57.1250   27.8790   45.8450 C   0  0  0  0  0  0  0  0  0  0  0  0
   56.4960   26.5430   45.9020 C   0  0  0  0  0  0  0  0  0  0  0  0
   57.1890   25.3820   45.8610 N   0  0  0  0  0  0  0  0  0  0  0  0
   56.1900   24.4880   45.9420 C   0  0  0  0  0  0  0  0  0  0  0  0
   56.3680   23.2420   45.9380 O   0  0  0  0  0  0  0  0  0  0  0  0
   55.0150   25.0540   46.0230 O   0  0  0  0  0  0  0  0  0  0  0  0
   55.1630   26.3440   46.0010 N   0  0  0  0  0  0  0  0  0  0  0  0
   56.6520   28.8520   44.9470 C   0  0  0  0  0  0  0  0  0  0  0  0
   55.8093   28.6162   44.2805 H   0  0  0  0  0  0  0  0  0  0  0  0
   57.2450   30.1170   44.8950 C   0  0  0  0  0  0  0  0  0  0  0  0
   56.8724   30.8667   44.1814 H   0  0  0  0  0  0  0  0  0  0  0  0
   59.2070   34.4930   47.7850 N   0  0  0  0  0  0  0  0  0  0  0  0
   59.4420   34.8610   48.7340 H   0  0  0  0  0  0  0  0  0  0  0  0
   59.5810   35.2770   46.6150 C   0  0  0  0  0  0  0  0  0  0  0  0
   60.0336   36.2258   46.9388 H   0  0  0  0  0  0  0  0  0  0  0  0
   60.3065   34.7118   46.0115 H   0  0  0  0  0  0  0  0  0  0  0  0
   58.6852   35.4852   46.0115 H   0  0  0  0  0  0  0  0  0  0  0  0
   61.6690   31.2390   47.9860 C   0  0  0  0  0  0  0  0  0  0  0  0
   61.2667   30.2295   47.8153 H   0  0  0  0  0  0  0  0  0  0  0  0
   62.6510   31.7500   47.1320 C   0  0  0  0  0  0  0  0  0  0  0  0
   63.0252   31.1384   46.2978 H   0  0  0  0  0  0  0  0  0  0  0  0
   63.1580   33.0360   47.3360 C   0  0  0  0  0  0  0  0  0  0  0  0
   64.1120   33.5270   46.5090 F   0  0  0  0  0  0  0  0  0  0  0  0
  1  2  1  0
  2  3  2  0
  3  4  1  0
  3  5  1  0
  5  6  1  0
  6  7  1  0
  6  8  1  0
  6  9  1  0
  9 10  1  0
  9 11  1  0
  9 12  1  0
 12 13  1  0
 12 14  1  0
 14 15  2  0
 15 16  1  0
 16 17  1  0
 16 18  1  0
 16 19  1  0
 19 20  2  0
 20 21  1  0
 20 22  1  0
 22 23  1  0
 22 24  2  0
 24 25  1  0
 25 26  2  0
 26 27  1  0
 27 28  2  0
 27 29  1  0
 29 30  1  0
 24 31  1  0
 31 32  1  0
 31 33  2  0
 33 34  1  0
 14 35  1  0
 35 36  1  0
 35 37  1  0
 37 38  1  0
 37 39  1  0
 37 40  1  0
  5 41  2  0
 41 42  1  0
 41 43  1  0
 43 44  1  0
 43 45  2  0
 45 46  1  0
 45  2  1  0
 33 19  1  0
 30 25  1  0
M  CHG  1  30  -1
M  END
>  <UniqueID>  (54) 
50

>  <SMILES>  (54) 
CN/C(=N/Cc1ccc(-c2nc(=O)o[n-]2)cc1)NCCc1ccc(F)cc1

>  <Energy>  (54) 
80.22474832570708

>  <Genealogy>  (54) 
CNC(=NCc1ccc(-c2nc(=O)o[n-]2)cc1)NCCc1ccc(F)cc1 (protonated)
CN/C(=N/Cc1ccc(-c2nc(=O)o[n-]2)cc1)NCCc1ccc(F)cc1 (cis-trans isomerization)
CN/C(=N/Cc1ccc(-c2nc(=O)o[n-]2)cc1)NCCc1ccc(F)cc1 (3D coordinates assigned)
CN/C(=N/Cc1ccc(-c2nc(=O)o[n-]2)cc1)NCCc1ccc(F)cc1 (optimized conformer: 80.22474832570708 kcal/mol)

>  <smiles>  (54) 
CNC(=NCc1ccc(-c2nc(=O)o[nH]2)cc1)NCCc1ccc(F)cc1

>  <score_type>  (54) 
oracle

>  <origin>  (54) 
adg

>  <m_score__min__energy>  (54) 
-9.9299999999999997

>  <m_primary>  (54) 
energy

$$$$
54:0
     RDKit          3D

 48 50  0  0  0  0  0  0  0  0999 V2000
   64.8420   32.5980   48.0560 H   0  0  0  0  0  0  0  0  0  0  0  0
   64.5460   33.4580   48.4540 O   0  0  0  0  0  0  0  0  0  0  0  0
   63.6120   33.1380   49.4480 C   0  0  0  0  0  0  0  0  0  0  0  0
   63.6097   33.9282   50.2132 H   0  0  0  0  0  0  0  0  0  0  0  0
   63.8873   32.1759   49.9047 H   0  0  0  0  0  0  0  0  0  0  0  0
   62.2390   33.0230   48.8480 C   0  0  0  0  0  0  0  0  0  0  0  0
   62.0380   32.2660   47.6840 C   0  0  0  0  0  0  0  0  0  0  0  0
   62.8838   31.7336   47.2244 H   0  0  0  0  0  0  0  0  0  0  0  0
   60.7670   32.1850   47.1050 C   0  0  0  0  0  0  0  0  0  0  0  0
   60.6129   31.5710   46.2054 H   0  0  0  0  0  0  0  0  0  0  0  0
   59.6850   32.8860   47.6690 C   0  0  0  0  0  0  0  0  0  0  0  0
   58.3560   32.8050   47.1240 N   0  0  0  0  0  0  0  0  0  0  0  0
   58.0290   32.5310   45.8930 C   0  0  0  0  0  0  0  0  0  0  0  0
   57.2590   31.4530   45.5970 N   0  0  0  0  0  0  0  0  0  0  0  0
   56.9160   31.1180   44.3250 C   0  0  0  0  0  0  0  0  0  0  0  0
   56.0430   29.9330   44.1460 C   0  0  0  0  0  0  0  0  0  0  0  0
   55.5400   29.7090   43.0120 O   0  0  0  0  0  0  0  0  0  0  0  0
   55.8010   29.0160   45.2170 N   0  0  0  0  0  0  0  0  0  0  0  0
   56.6210   27.8380   45.4580 C   0  0  0  0  0  0  0  0  0  0  0  0
   56.2755   27.3296   46.3702 H   0  0  0  0  0  0  0  0  0  0  0  0
   56.5381   27.1490   44.6045 H   0  0  0  0  0  0  0  0  0  0  0  0
   58.0510   28.2590   45.6290 C   0  0  0  0  0  0  0  0  0  0  0  0
   58.5260   28.6490   46.8920 C   0  0  0  0  0  0  0  0  0  0  0  0
   57.8564   28.6154   47.7641 H   0  0  0  0  0  0  0  0  0  0  0  0
   59.8480   29.0800   47.0440 C   0  0  0  0  0  0  0  0  0  0  0  0
   60.2191   29.3744   48.0368 H   0  0  0  0  0  0  0  0  0  0  0  0
   60.6980   29.1370   45.9360 C   0  0  0  0  0  0  0  0  0  0  0  0
   61.7378   29.4747   46.0574 H   0  0  0  0  0  0  0  0  0  0  0  0
   60.2270   28.7650   44.6740 C   0  0  0  0  0  0  0  0  0  0  0  0
   60.8964   28.8123   43.8024 H   0  0  0  0  0  0  0  0  0  0  0  0
   58.9070   28.3330   44.5170 C   0  0  0  0  0  0  0  0  0  0  0  0
   58.5373   28.0502   43.5203 H   0  0  0  0  0  0  0  0  0  0  0  0
   57.4170   31.9110   43.2610 C   0  0  0  0  0  0  0  0  0  0  0  0
   57.1460   31.5870   41.8150 C   0  0  0  0  0  0  0  0  0  0  0  0
   56.4414   30.7445   41.7538 H   0  0  0  0  0  0  0  0  0  0  0  0
   56.7105   32.4662   41.3176 H   0  0  0  0  0  0  0  0  0  0  0  0
   58.0883   31.3137   41.3176 H   0  0  0  0  0  0  0  0  0  0  0  0
   58.1890   32.9970   43.5580 N   0  0  0  0  0  0  0  0  0  0  0  0
   58.5550   33.5890   42.7780 H   0  0  0  0  0  0  0  0  0  0  0  0
   58.5080   33.3300   44.8410 C   0  0  0  0  0  0  0  0  0  0  0  0
   59.3800   34.5260   45.1150 C   0  0  0  0  0  0  0  0  0  0  0  0
   59.4812   34.6648   46.2015 H   0  0  0  0  0  0  0  0  0  0  0  0
   60.3737   34.3645   44.6719 H   0  0  0  0  0  0  0  0  0  0  0  0
   58.9223   35.4227   44.6719 H   0  0  0  0  0  0  0  0  0  0  0  0
   59.8860   33.6260   48.8400 C   0  0  0  0  0  0  0  0  0  0  0  0
   59.0378   34.1466   49.3086 H   0  0  0  0  0  0  0  0  0  0  0  0
   61.1560   33.7090   49.4190 C   0  0  0  0  0  0  0  0  0  0  0  0
   61.3068   34.3141   50.3252 H   0  0  0  0  0  0  0  0  0  0  0  0
  1  2  1  0
  2  3  1  0
  3  4  1  0
  3  5  1  0
  3  6  1  0
  6  7  2  0
  7  8  1  0
  7  9  1  0
  9 10  1  0
  9 11  2  0
 11 12  1  0
 12 13  2  0
 13 14  1  0
 14 15  1  0
 15 16  1  0
 16 17  2  0
 16 18  1  0
 18 19  1  0
 19 20  1  0
 19 21  1  0
 19 22  1  0
 22 23  2  0
 23 24  1  0
 23 25  1  0
 25 26  1  0
 25 27  2  0
 27 28  1  0
 27 29  1  0
 29 30  1  0
 29 31  2  0
 31 32  1  0
 15 33  2  0
 33 34  1  0
 34 35  1  0
 34 36  1  0
 34 37  1  0
 33 38  1  0
 38 39  1  0
 38 40  2  0
 40 41  1  0
 41 42  1  0
 41 43  1  0
 41 44  1  0
 11 45  1  0
 45 46  1  0
 45 47  2  0
 47 48  1  0
 47  6  1  0
 40 13  1  0
 31 22  1  0
M  CHG  3  14  -1  18  -1  38   1
M  END
>  <UniqueID>  (55) 
51

>  <SMILES>  (55) 
Cc1[nH+]c(C)/c(=N/c2ccc(CO)cc2)[n-]c1C(=O)[N-]Cc1ccccc1

>  <Energy>  (55) 
57.24772144369988

>  <Genealogy>  (55) 
Cc1[nH+]c(C)c(=Nc2ccc(CO)cc2)[n-]c1C(=O)[N-]Cc1ccccc1 (protonated)
Cc1[nH+]c(C)/c(=N/c2ccc(CO)cc2)[n-]c1C(=O)[N-]Cc1ccccc1 (cis-trans isomerization)
Cc1[nH+]c(C)/c(=N/c2ccc(CO)cc2)[n-]c1C(=O)[N-]Cc1ccccc1 (3D coordinates assigned)
Cc1[nH+]c(C)/c(=N/c2ccc(CO)cc2)[n-]c1C(=O)[N-]Cc1ccccc1 (optimized conformer: 57.24772144369988 kcal/mol)

>  <smiles>  (55) 
Cc1nc(C)c(=Nc2ccc(CO)cc2)[nH]c1C(=O)NCc1ccccc1

>  <score_type>  (55) 
oracle

>  <origin>  (55) 
adg

>  <m_score__min__energy>  (55) 
-10.69

>  <m_primary>  (55) 
energy

$$$$
55:0
     RDKit          3D

 57 59  0  0  0  0  0  0  0  0999 V2000
   59.0210   32.5760   50.0200 C   0  0  0  0  0  0  0  0  0  0  0  0
   60.0270   31.6800   49.5610 O   0  0  0  0  0  0  0  0  0  0  0  0
   59.9150   30.8690   48.4200 C   0  0  0  0  0  0  0  0  0  0  0  0
   59.6580   29.4890   48.5060 C   0  0  0  0  0  0  0  0  0  0  0  0
   59.6420   28.6900   47.3510 C   0  0  0  0  0  0  0  0  0  0  0  0
   59.3730   27.2290   47.4130 C   0  0  0  0  0  0  0  0  0  0  0  0
   60.0710   26.5280   48.1910 O   0  0  0  0  0  0  0  0  0  0  0  0
   58.3320   26.5710   46.6710 N   0  0  0  0  0  0  0  0  0  0  0  0
   56.9840   27.0760   46.3750 C   0  0  0  0  0  0  0  0  0  0  0  0
   57.0220   27.9090   45.1140 C   0  0  0  0  0  0  0  0  0  0  0  0
   57.7790   27.5540   44.1700 O   0  0  0  0  0  0  0  0  0  0  0  0
   56.3290   29.1620   44.9910 N   0  0  0  0  0  0  0  0  0  0  0  0
   56.7980   30.2740   44.5100 C   0  0  0  0  0  0  0  0  0  0  0  0
   57.0160   30.3790   43.1290 C   0  0  0  0  0  0  0  0  0  0  0  0
   57.4850   31.5810   42.5930 C   0  0  0  0  0  0  0  0  0  0  0  0
   57.7290   32.6670   43.4370 C   0  0  0  0  0  0  0  0  0  0  0  0
   57.5030   32.5320   44.8190 C   0  0  0  0  0  0  0  0  0  0  0  0
   57.7230   33.6850   45.7440 C   0  0  0  0  0  0  0  0  0  0  0  0
   57.0290   31.3540   45.3100 N   0  0  0  0  0  0  0  0  0  0  0  0
   59.8120   29.3020   46.0990 C   0  0  0  0  0  0  0  0  0  0  0  0
   60.0020   30.6780   46.0010 C   0  0  0  0  0  0  0  0  0  0  0  0
   60.0630   31.4710   47.1640 C   0  0  0  0  0  0  0  0  0  0  0  0
   60.2670   32.8590   47.1120 O   0  0  0  0  0  0  0  0  0  0  0  0
   61.2950   33.5180   46.3690 C   0  0  0  0  0  0  0  0  0  0  0  0
   62.6150   33.4970   47.0980 C   0  0  0  0  0  0  0  0  0  0  0  0
   63.6390   33.8060   46.5030 O   0  0  0  0  0  0  0  0  0  0  0  0
   62.6790   33.0440   48.4740 N   0  0  0  0  0  0  0  0  0  0  0  0
   63.7360   32.0300   48.6290 C   0  0  0  0  0  0  0  0  0  0  0  0
   63.7820   31.5180   50.0890 C   0  0  0  0  0  0  0  0  0  0  0  0
   63.0550   32.3400   50.9810 O   0  0  0  0  0  0  0  0  0  0  0  0
   63.3870   33.6940   50.7740 C   0  0  0  0  0  0  0  0  0  0  0  0
   62.8860   34.1770   49.4020 C   0  0  0  0  0  0  0  0  0  0  0  0
   59.0116   32.5844   51.1199 H   0  0  0  0  0  0  0  0  0  0  0  0
   59.2343   33.5888   49.6474 H   0  0  0  0  0  0  0  0  0  0  0  0
   58.0396   32.2474   49.6474 H   0  0  0  0  0  0  0  0  0  0  0  0
   59.4676   29.0308   49.4877 H   0  0  0  0  0  0  0  0  0  0  0  0
   56.2979   26.2279   46.2334 H   0  0  0  0  0  0  0  0  0  0  0  0
   56.6333   27.6963   47.2130 H   0  0  0  0  0  0  0  0  0  0  0  0
   56.8189   29.5197   42.4711 H   0  0  0  0  0  0  0  0  0  0  0  0
   57.6613   31.6718   41.5110 H   0  0  0  0  0  0  0  0  0  0  0  0
   58.0945   33.6191   43.0248 H   0  0  0  0  0  0  0  0  0  0  0  0
   57.6567   33.3374   46.7855 H   0  0  0  0  0  0  0  0  0  0  0  0
   58.7194   34.1148   45.5637 H   0  0  0  0  0  0  0  0  0  0  0  0
   56.9549   34.4515   45.5637 H   0  0  0  0  0  0  0  0  0  0  0  0
   59.7949   28.6884   45.1862 H   0  0  0  0  0  0  0  0  0  0  0  0
   60.1049   31.1477   45.0117 H   0  0  0  0  0  0  0  0  0  0  0  0
   61.4152   33.0106   45.4005 H   0  0  0  0  0  0  0  0  0  0  0  0
   60.9974   34.5680   46.2314 H   0  0  0  0  0  0  0  0  0  0  0  0
   61.7660   32.5860   48.7170 H   0  0  0  0  0  0  0  0  0  0  0  0
   63.5298   31.1855   47.9550 H   0  0  0  0  0  0  0  0  0  0  0  0
   64.7061   32.4845   48.3793 H   0  0  0  0  0  0  0  0  0  0  0  0
   63.3566   30.5040   50.1195 H   0  0  0  0  0  0  0  0  0  0  0  0
   64.8338   31.5290   50.4109 H   0  0  0  0  0  0  0  0  0  0  0  0
   62.9219   34.3038   51.5626 H   0  0  0  0  0  0  0  0  0  0  0  0
   64.4817   33.7968   50.8052 H   0  0  0  0  0  0  0  0  0  0  0  0
   61.9324   34.7087   49.5360 H   0  0  0  0  0  0  0  0  0  0  0  0
   63.6471   34.8436   48.9704 H   0  0  0  0  0  0  0  0  0  0  0  0
  1  2  1  0
  2  3  1  0
  3  4  2  0
  4  5  1  0
  5  6  1  0
  6  7  2  0
  6  8  1  0
  8  9  1  0
  9 10  1  0
 10 11  2  0
 10 12  1  0
 12 13  2  3
 13 14  1  0
 14 15  2  0
 15 16  1  0
 16 17  2  0
 17 18  1  0
 17 19  1  0
  5 20  2  0
 20 21  1  0
 21 22  2  0
 22 23  1  0
 23 24  1  0
 24 25  1  0
 25 26  2  0
 25 27  1  0
 27 28  1  0
 28 29  1  0
 29 30  1  0
 30 31  1  0
 31 32  1  0
 22  3  1  0
 32 27  1  0
 19 13  1  0
  1 33  1  0
  1 34  1  0
  1 35  1  0
  4 36  1  0
  9 37  1  0
  9 38  1  0
 14 39  1  0
 15 40  1  0
 16 41  1  0
 18 42  1  0
 18 43  1  0
 18 44  1  0
 20 45  1  0
 21 46  1  0
 24 47  1  0
 24 48  1  0
 27 49  1  0
 28 50  1  0
 28 51  1  0
 29 52  1  0
 29 53  1  0
 31 54  1  0
 31 55  1  0
 32 56  1  0
 32 57  1  0
M  CHG  3   8  -1  19  -1  27   1
M  END
>  <UniqueID>  (56) 
52

>  <SMILES>  (56) 
COc1cc(C(=O)[N-]CC(=O)N=c2cccc(C)[n-]2)ccc1OCC(=O)[NH+]1CCOCC1

>  <Energy>  (56) 
80.61683574213734

>  <Genealogy>  (56) 
COc1cc(C(=O)[N-]CC(=O)N=c2cccc(C)[n-]2)ccc1OCC(=O)[NH+]1CCOCC1 (protonated)
COc1cc(C(=O)[N-]CC(=O)N=c2cccc(C)[n-]2)ccc1OCC(=O)[NH+]1CCOCC1 (3D coordinates assigned)
COc1cc(C(=O)[N-]CC(=O)N=c2cccc(C)[n-]2)ccc1OCC(=O)[NH+]1CCOCC1 (nonaromatic ring conformer: 80.61683574213734 kcal/mol)

>  <smiles>  (56) 
COc1cc(C(=O)NCC(=O)N=c2cccc(C)[nH]2)ccc1OCC(=O)N1CCOCC1

>  <score_type>  (56) 
oracle

>  <origin>  (56) 
adg

>  <m_score__min__energy>  (56) 
-10.18

>  <m_primary>  (56) 
energy

$$$$
56:0
     RDKit          3D

 33 35  0  0  0  0  0  0  0  0999 V2000
   62.1000   33.8640   47.7770 C   0  0  0  0  0  0  0  0  0  0  0  0
   61.2210   32.9800   47.2930 C   0  0  0  0  0  0  0  0  0  0  0  0
   60.0020   33.4150   46.7470 C   0  0  0  0  0  0  0  0  0  0  0  0
   59.0830   32.4920   46.2400 C   0  0  0  0  0  0  0  0  0  0  0  0
   59.3600   31.1080   46.2650 C   0  0  0  0  0  0  0  0  0  0  0  0
   58.4720   30.2150   45.7760 C   0  0  0  0  0  0  0  0  0  0  0  0
   57.1450   30.4710   45.6600 N   0  0  0  0  0  0  0  0  0  0  0  0
   56.6500   29.3360   45.1400 C   0  0  0  0  0  0  0  0  0  0  0  0
   55.4330   29.1800   44.8590 O   0  0  0  0  0  0  0  0  0  0  0  0
   57.6620   28.4170   44.9510 C   0  0  0  0  0  0  0  0  0  0  0  0
   57.5880   27.1750   44.4480 C   0  0  0  0  0  0  0  0  0  0  0  0
   57.3580   25.9690   45.2650 C   0  0  0  0  0  0  0  0  0  0  0  0
   58.3840   25.0160   45.3540 C   0  0  0  0  0  0  0  0  0  0  0  0
   58.2080   23.8600   46.1200 C   0  0  0  0  0  0  0  0  0  0  0  0
   57.0130   23.6520   46.8100 C   0  0  0  0  0  0  0  0  0  0  0  0
   55.9950   24.6060   46.7480 C   0  0  0  0  0  0  0  0  0  0  0  0
   56.1600   25.7720   45.9910 C   0  0  0  0  0  0  0  0  0  0  0  0
   55.1310   26.7160   45.9900 O   0  0  0  0  0  0  0  0  0  0  0  0
   58.8190   28.9760   45.3490 N   0  0  0  0  0  0  0  0  0  0  0  0
   60.5870   30.6810   46.8160 C   0  0  0  0  0  0  0  0  0  0  0  0
   61.5050   31.6060   47.3220 C   0  0  0  0  0  0  0  0  0  0  0  0
   63.0525   33.5157   48.2030 H   0  0  0  0  0  0  0  0  0  0  0  0
   61.8705   34.9394   47.7491 H   0  0  0  0  0  0  0  0  0  0  0  0
   59.7691   34.4897   46.7183 H   0  0  0  0  0  0  0  0  0  0  0  0
   58.1324   32.8483   45.8164 H   0  0  0  0  0  0  0  0  0  0  0  0
   57.7059   27.0490   43.3616 H   0  0  0  0  0  0  0  0  0  0  0  0
   59.3310   25.1793   44.8187 H   0  0  0  0  0  0  0  0  0  0  0  0
   59.0131   23.1128   46.1790 H   0  0  0  0  0  0  0  0  0  0  0  0
   56.8728   22.7362   47.4030 H   0  0  0  0  0  0  0  0  0  0  0  0
   55.0569   24.4401   47.2979 H   0  0  0  0  0  0  0  0  0  0  0  0
   55.1480   27.5440   45.4080 H   0  0  0  0  0  0  0  0  0  0  0  0
   60.8240   29.6073   46.8477 H   0  0  0  0  0  0  0  0  0  0  0  0
   62.4571   31.2542   47.7460 H   0  0  0  0  0  0  0  0  0  0  0  0
  1  2  2  0
  2  3  1  0
  3  4  2  0
  4  5  1  0
  5  6  2  3
  6  7  1  0
  7  8  1  0
  8  9  2  0
  8 10  1  0
 10 11  2  3
 11 12  1  0
 12 13  2  0
 13 14  1  0
 14 15  2  0
 15 16  1  0
 16 17  2  0
 17 18  1  0
 10 19  1  0
  5 20  1  0
 20 21  2  0
 21  2  1  0
 19  6  1  0
 17 12  1  0
  1 22  1  0
  1 23  1  0
  3 24  1  0
  4 25  1  0
 11 26  1  0
 13 27  1  0
 14 28  1  0
 15 29  1  0
 16 30  1  0
 18 31  1  0
 20 32  1  0
 21 33  1  0
M  CHG  2   7  -1  19  -1
M  END
>  <UniqueID>  (57) 
53

>  <SMILES>  (57) 
C=c1ccc(=c2[n-]c(=O)c(=Cc3ccccc3O)[n-]2)cc1

>  <Energy>  (57) 
79.17684585835862

>  <Genealogy>  (57) 
C=c1ccc(=c2[n-]c(=O)c(=Cc3ccccc3O)[n-]2)cc1 (protonated)
C=c1ccc(=c2[n-]c(=O)c(=Cc3ccccc3O)[n-]2)cc1 (3D coordinates assigned)
C=c1ccc(=c2[n-]c(=O)c(=Cc3ccccc3O)[n-]2)cc1 (optimized conformer: 79.17684585835862 kcal/mol)

>  <smiles>  (57) 
C=c1ccc(=c2[nH]c(=O)c(=Cc3ccccc3O)[nH]2)cc1

>  <score_type>  (57) 
oracle

>  <origin>  (57) 
adg

>  <m_score__min__energy>  (57) 
-11.539999999999999

>  <m_primary>  (57) 
energy

$$$$
57:0
     RDKit          3D

 43 45  0  0  0  0  0  0  0  0999 V2000
   55.3880   29.9230   44.4620 O   0  0  0  0  0  0  0  0  0  0  0  0
   56.5240   30.4660   44.5260 C   0  0  0  0  0  0  0  0  0  0  0  0
   57.7440   29.6700   44.2030 C   0  0  0  0  0  0  0  0  0  0  0  0
   58.5910   29.2370   45.7570 S   0  0  0  0  0  0  0  0  0  0  0  0
   57.7870   27.6450   45.8960 C   0  0  0  0  0  0  0  0  0  0  0  0
   58.5320   26.5190   46.0190 N   0  0  0  0  0  0  0  0  0  0  0  0
   57.9490   25.2990   46.1490 C   0  0  0  0  0  0  0  0  0  0  0  0
   58.6780   24.2780   46.2680 O   0  0  0  0  0  0  0  0  0  0  0  0
   56.5450   25.1900   46.1590 C   0  0  0  0  0  0  0  0  0  0  0  0
   55.8610   23.8620   46.3710 C   0  0  0  0  0  0  0  0  0  0  0  0
   56.1210   22.9520   45.2020 C   0  0  0  0  0  0  0  0  0  0  0  0
   56.0100   23.4340   43.8870 C   0  0  0  0  0  0  0  0  0  0  0  0
   56.3030   22.6010   42.8040 C   0  0  0  0  0  0  0  0  0  0  0  0
   56.7090   21.2820   43.0240 C   0  0  0  0  0  0  0  0  0  0  0  0
   56.8170   20.7930   44.3280 C   0  0  0  0  0  0  0  0  0  0  0  0
   56.5230   21.6210   45.4140 C   0  0  0  0  0  0  0  0  0  0  0  0
   55.7990   26.3720   46.0040 C   0  0  0  0  0  0  0  0  0  0  0  0
   54.4110   26.3390   45.9820 O   0  0  0  0  0  0  0  0  0  0  0  0
   56.4330   27.5660   45.8810 N   0  0  0  0  0  0  0  0  0  0  0  0
   56.6460   31.8510   44.8630 N   0  0  0  0  0  0  0  0  0  0  0  0
   57.7120   32.7050   44.3530 C   0  0  0  0  0  0  0  0  0  0  0  0
   58.4210   33.3780   45.4970 C   0  0  0  0  0  0  0  0  0  0  0  0
   59.1060   34.5880   45.2850 C   0  0  0  0  0  0  0  0  0  0  0  0
   59.7240   35.2420   46.3550 C   0  0  0  0  0  0  0  0  0  0  0  0
   59.6560   34.7020   47.6440 C   0  0  0  0  0  0  0  0  0  0  0  0
   58.9710   33.5040   47.8640 C   0  0  0  0  0  0  0  0  0  0  0  0
   58.3490   32.8460   46.7970 C   0  0  0  0  0  0  0  0  0  0  0  0
   57.4559   28.7515   43.6706 H   0  0  0  0  0  0  0  0  0  0  0  0
   58.4164   30.2598   43.5626 H   0  0  0  0  0  0  0  0  0  0  0  0
   56.2495   23.3954   47.2883 H   0  0  0  0  0  0  0  0  0  0  0  0
   54.7774   24.0269   46.4638 H   0  0  0  0  0  0  0  0  0  0  0  0
   55.6911   24.4716   43.7092 H   0  0  0  0  0  0  0  0  0  0  0  0
   56.2139   22.9841   41.7767 H   0  0  0  0  0  0  0  0  0  0  0  0
   56.9435   20.6290   42.1704 H   0  0  0  0  0  0  0  0  0  0  0  0
   57.1342   19.7539   44.5001 H   0  0  0  0  0  0  0  0  0  0  0  0
   56.6062   21.2305   46.4390 H   0  0  0  0  0  0  0  0  0  0  0  0
   58.4306   32.0932   43.7879 H   0  0  0  0  0  0  0  0  0  0  0  0
   57.2778   33.4719   43.6947 H   0  0  0  0  0  0  0  0  0  0  0  0
   59.1556   35.0208   44.2749 H   0  0  0  0  0  0  0  0  0  0  0  0
   60.2654   36.1840   46.1830 H   0  0  0  0  0  0  0  0  0  0  0  0
   60.1416   35.2203   48.4840 H   0  0  0  0  0  0  0  0  0  0  0  0
   58.9207   33.0778   48.8768 H   0  0  0  0  0  0  0  0  0  0  0  0
   57.8015   31.9088   46.9757 H   0  0  0  0  0  0  0  0  0  0  0  0
  1  2  2  0
  2  3  1  0
  3  4  1  0
  4  5  1  0
  5  6  2  0
  6  7  1  0
  7  8  2  0
  7  9  1  0
  9 10  1  0
 10 11  1  0
 11 12  2  0
 12 13  1  0
 13 14  2  0
 14 15  1  0
 15 16  2  0
  9 17  2  0
 17 18  1  0
 17 19  1  0
  2 20  1  0
 20 21  1  0
 21 22  1  0
 22 23  2  0
 23 24  1  0
 24 25  2  0
 25 26  1  0
 26 27  2  0
 19  5  1  0
 27 22  1  0
 16 11  1  0
  3 28  1  0
  3 29  1  0
 10 30  1  0
 10 31  1  0
 12 32  1  0
 13 33  1  0
 14 34  1  0
 15 35  1  0
 16 36  1  0
 21 37  1  0
 21 38  1  0
 23 39  1  0
 24 40  1  0
 25 41  1  0
 26 42  1  0
 27 43  1  0
M  CHG  3  18  -1  19  -1  20  -1
M  END
>  <UniqueID>  (58) 
54

>  <SMILES>  (58) 
O=C(CSc1nc(=O)c(Cc2ccccc2)c([O-])[n-]1)[N-]Cc1ccccc1

>  <Energy>  (58) 
39.74334163971783

>  <Genealogy>  (58) 
O=C(CSc1nc(=O)c(Cc2ccccc2)c([O-])[n-]1)[N-]Cc1ccccc1 (protonated)
O=C(CSc1nc(=O)c(Cc2ccccc2)c([O-])[n-]1)[N-]Cc1ccccc1 (3D coordinates assigned)
O=C(CSc1nc(=O)c(Cc2ccccc2)c([O-])[n-]1)[N-]Cc1ccccc1 (optimized conformer: 39.74334163971783 kcal/mol)

>  <smiles>  (58) 
O=C(CSc1nc(=O)c(Cc2ccccc2)c(O)[nH]1)NCc1ccccc1

>  <score_type>  (58) 
oracle

>  <origin>  (58) 
adg

>  <m_score__min__energy>  (58) 
-16.07

>  <m_primary>  (58) 
energy

$$$$
58:0
     RDKit          3D

 31 32  0  0  0  0  0  0  0  0999 V2000
   55.1630   27.4650   44.8720 H   0  0  0  0  0  0  0  0  0  0  0  0
   55.8250   27.2820   45.6580 N   0  0  0  0  0  0  0  0  0  0  0  0
   57.1590   27.7890   45.6250 C   0  0  0  0  0  0  0  0  0  0  0  0
   58.1270   26.9830   45.6550 O   0  0  0  0  0  0  0  0  0  0  0  0
   57.4200   29.2420   45.6450 C   0  0  0  0  0  0  0  0  0  0  0  0
   58.2880   29.7170   46.5770 N   0  0  0  0  0  0  0  0  0  0  0  0
   58.5510   31.0390   46.7460 C   0  0  0  0  0  0  0  0  0  0  0  0
   59.4990   31.3570   47.5870 N   0  0  0  0  0  0  0  0  0  0  0  0
   60.7650   31.9850   47.3420 C   0  0  0  0  0  0  0  0  0  0  0  0
   61.9450   31.2760   47.6070 C   0  0  0  0  0  0  0  0  0  0  0  0
   61.8926   30.2667   48.0412 H   0  0  0  0  0  0  0  0  0  0  0  0
   63.1880   31.8480   47.3210 C   0  0  0  0  0  0  0  0  0  0  0  0
   64.1119   31.2975   47.5521 H   0  0  0  0  0  0  0  0  0  0  0  0
   63.2590   33.1180   46.7420 C   0  0  0  0  0  0  0  0  0  0  0  0
   64.2383   33.5705   46.5272 H   0  0  0  0  0  0  0  0  0  0  0  0
   62.0860   33.8130   46.4360 C   0  0  0  0  0  0  0  0  0  0  0  0
   62.1421   34.8082   45.9707 H   0  0  0  0  0  0  0  0  0  0  0  0
   60.8410   33.2440   46.7210 C   0  0  0  0  0  0  0  0  0  0  0  0
   59.9186   33.7828   46.4586 H   0  0  0  0  0  0  0  0  0  0  0  0
   57.8020   31.9700   45.9760 C   0  0  0  0  0  0  0  0  0  0  0  0
   57.7190   33.4140   46.2590 C   0  0  0  0  0  0  0  0  0  0  0  0
   57.1840   34.1850   45.4190 O   0  0  0  0  0  0  0  0  0  0  0  0
   58.1490   33.9320   47.5160 N   0  0  0  0  0  0  0  0  0  0  0  0
   58.7440   33.3600   48.1570 H   0  0  0  0  0  0  0  0  0  0  0  0
   56.9820   31.4920   45.0040 N   0  0  0  0  0  0  0  0  0  0  0  0
   56.7910   30.1660   44.7790 C   0  0  0  0  0  0  0  0  0  0  0  0
   55.9710   29.7700   43.6150 C   0  0  0  0  0  0  0  0  0  0  0  0
   54.7900   29.3610   43.7760 O   0  0  0  0  0  0  0  0  0  0  0  0
   56.5330   29.7800   42.3010 N   0  0  0  0  0  0  0  0  0  0  0  0
   57.5060   30.1190   42.1340 H   0  0  0  0  0  0  0  0  0  0  0  0
   55.9630   29.4650   41.4850 H   0  0  0  0  0  0  0  0  0  0  0  0
  1  2  1  0
  2  3  1  0
  3  4  2  0
  3  5  1  0
  5  6  1  0
  6  7  1  0
  7  8  2  0
  8  9  1  0
  9 10  2  0
 10 11  1  0
 10 12  1  0
 12 13  1  0
 12 14  2  0
 14 15  1  0
 14 16  1  0
 16 17  1  0
 16 18  2  0
 18 19  1  0
  7 20  1  0
 20 21  1  0
 21 22  2  0
 21 23  1  0
 23 24  1  0
 20 25  2  0
 25 26  1  0
 26 27  1  0
 27 28  2  0
 27 29  1  0
 29 30  1  0
 29 31  1  0
 26  5  2  0
 18  9  1  0
M  CHG  3   2  -1   6  -1  23  -1
M  END
>  <UniqueID>  (59) 
55

>  <SMILES>  (59) 
[NH-]C(=O)c1[n-]/c(=N/c2ccccc2)c(C([NH-])=O)nc1C(N)=O

>  <Energy>  (59) 
58.97587987765727

>  <Genealogy>  (59) 
[NH-]C(=O)c1[n-]c(=Nc2ccccc2)c(C([NH-])=O)nc1C(N)=O (protonated)
[NH-]C(=O)c1[n-]/c(=N/c2ccccc2)c(C([NH-])=O)nc1C(N)=O (cis-trans isomerization)
[NH-]C(=O)c1[n-]/c(=N/c2ccccc2)c(C([NH-])=O)nc1C(N)=O (3D coordinates assigned)
[NH-]C(=O)c1[n-]/c(=N/c2ccccc2)c(C([NH-])=O)nc1C(N)=O (optimized conformer: 58.97587987765727 kcal/mol)

>  <smiles>  (59) 
NC(=O)c1nc(C(N)=O)c(=Nc2ccccc2)[nH]c1C(N)=O

>  <score_type>  (59) 
oracle

>  <origin>  (59) 
adg

>  <m_score__min__energy>  (59) 
-11.960000000000001

>  <m_primary>  (59) 
energy

$$$$
59:0
     RDKit          3D

 23 25  0  0  0  0  0  0  0  0999 V2000
   55.1520   30.7160   44.1170 O   0  0  0  0  0  0  0  0  0  0  0  0
   55.8740   29.8930   44.7390 C   0  0  0  0  0  0  0  0  0  0  0  0
   55.5220   28.6020   44.9420 N   0  0  0  0  0  0  0  0  0  0  0  0
   56.5240   28.0600   45.6160 N   0  0  0  0  0  0  0  0  0  0  0  0
   56.6550   26.7760   46.0220 C   0  0  0  0  0  0  0  0  0  0  0  0
   55.7470   25.9310   45.8100 O   0  0  0  0  0  0  0  0  0  0  0  0
   57.8000   26.4150   46.6660 N   0  0  0  0  0  0  0  0  0  0  0  0
   58.7890   27.3340   46.8820 C   0  0  0  0  0  0  0  0  0  0  0  0
   60.1590   26.8860   47.6470 S   0  0  0  0  0  0  0  0  0  0  0  0
   58.6400   28.6240   46.4610 N   0  0  0  0  0  0  0  0  0  0  0  0
   57.4850   28.9620   45.8410 C   0  0  0  0  0  0  0  0  0  0  0  0
   57.1150   30.1770   45.3040 C   0  0  0  0  0  0  0  0  0  0  0  0
   57.8830   31.4380   45.2460 C   0  0  0  0  0  0  0  0  0  0  0  0
   58.4880   31.9220   46.4190 C   0  0  0  0  0  0  0  0  0  0  0  0
   59.2040   33.1210   46.4050 C   0  0  0  0  0  0  0  0  0  0  0  0
   59.3330   33.8440   45.2190 C   0  0  0  0  0  0  0  0  0  0  0  0
   58.7530   33.3660   44.0420 C   0  0  0  0  0  0  0  0  0  0  0  0
   58.0320   32.1650   44.0430 C   0  0  0  0  0  0  0  0  0  0  0  0
   57.4070   31.5710   42.5080 Cl  0  0  0  0  0  0  0  0  0  0  0  0
   58.3967   31.3519   47.3553 H   0  0  0  0  0  0  0  0  0  0  0  0
   59.6666   33.4956   47.3300 H   0  0  0  0  0  0  0  0  0  0  0  0
   59.8920   34.7913   45.2109 H   0  0  0  0  0  0  0  0  0  0  0  0
   58.8630   33.9364   43.1079 H   0  0  0  0  0  0  0  0  0  0  0  0
  1  2  2  0
  2  3  1  0
  3  4  1  0
  4  5  1  0
  5  6  2  0
  5  7  1  0
  7  8  1  0
  8  9  2  0
  8 10  1  0
 10 11  1  0
 11 12  2  0
 12 13  1  0
 13 14  2  0
 14 15  1  0
 15 16  2  0
 16 17  1  0
 17 18  2  0
 18 19  1  0
 12  2  1  0
 18 13  1  0
 11  4  1  0
 14 20  1  0
 15 21  1  0
 16 22  1  0
 17 23  1  0
M  CHG  3   3  -1   7  -1  10  -1
M  END
>  <UniqueID>  (60) 
56

>  <SMILES>  (60) 
O=c1[n-]n2c(=O)[n-]c(=S)[n-]c2c1-c1ccccc1Cl

>  <Energy>  (60) 
72.89195233026585

>  <Genealogy>  (60) 
O=c1[n-]n2c(=O)[n-]c(=S)[n-]c2c1-c1ccccc1Cl (protonated)
O=c1[n-]n2c(=O)[n-]c(=S)[n-]c2c1-c1ccccc1Cl (3D coordinates assigned)
O=c1[n-]n2c(=O)[n-]c(=S)[n-]c2c1-c1ccccc1Cl (optimized conformer: 72.89195233026585 kcal/mol)

>  <smiles>  (60) 
O=c1[nH]n2c(=O)[nH]c(=S)[nH]c2c1-c1ccccc1Cl

>  <score_type>  (60) 
oracle

>  <origin>  (60) 
adg

>  <m_score__min__energy>  (60) 
-12.279999999999999

>  <m_primary>  (60) 
energy

$$$$
60:0
     RDKit          3D

 41 43  0  0  0  0  0  0  0  0999 V2000
   63.7736   30.8307   47.8460 H   0  0  0  0  0  0  0  0  0  0  0  0
   63.0430   31.6010   47.5580 C   0  0  0  0  0  0  0  0  0  0  0  0
   63.4820   32.8710   47.1710 C   0  0  0  0  0  0  0  0  0  0  0  0
   64.5580   33.0986   47.1529 H   0  0  0  0  0  0  0  0  0  0  0  0
   62.5540   33.8520   46.8070 C   0  0  0  0  0  0  0  0  0  0  0  0
   62.9008   34.8498   46.5001 H   0  0  0  0  0  0  0  0  0  0  0  0
   61.1840   33.5650   46.8330 C   0  0  0  0  0  0  0  0  0  0  0  0
   59.9930   34.8200   46.3630 S   0  0  0  0  0  0  0  0  0  0  0  0
   58.5670   33.6970   46.5060 C   0  0  0  0  0  0  0  0  0  0  0  0
   57.9131   34.0351   47.3234 H   0  0  0  0  0  0  0  0  0  0  0  0
   58.9198   32.6775   46.7206 H   0  0  0  0  0  0  0  0  0  0  0  0
   57.8060   33.7040   45.2230 C   0  0  0  0  0  0  0  0  0  0  0  0
   57.2160   34.7570   44.8600 O   0  0  0  0  0  0  0  0  0  0  0  0
   57.8010   32.5230   44.4040 N   0  0  0  0  0  0  0  0  0  0  0  0
   57.4730   31.3010   44.7240 C   0  0  0  0  0  0  0  0  0  0  0  0
   56.2500   30.8390   44.3170 N   0  0  0  0  0  0  0  0  0  0  0  0
   55.8060   29.5770   44.5850 C   0  0  0  0  0  0  0  0  0  0  0  0
   54.8129   29.2485   44.2448 H   0  0  0  0  0  0  0  0  0  0  0  0
   56.6320   28.7140   45.2960 C   0  0  0  0  0  0  0  0  0  0  0  0
   56.3210   27.4340   45.6220 N   0  0  0  0  0  0  0  0  0  0  0  0
   57.3430   26.8570   46.3020 C   0  0  0  0  0  0  0  0  0  0  0  0
   57.3290   25.6340   46.7430 N   0  0  0  0  0  0  0  0  0  0  0  0
   56.7960   24.4910   46.0560 C   0  0  0  0  0  0  0  0  0  0  0  0
   56.8820   23.3350   46.5580 O   0  0  0  0  0  0  0  0  0  0  0  0
   56.1550   24.6770   44.7890 N   0  0  0  0  0  0  0  0  0  0  0  0
   56.0340   25.6500   44.4280 H   0  0  0  0  0  0  0  0  0  0  0  0
   55.5940   23.5710   44.0170 C   0  0  0  0  0  0  0  0  0  0  0  0
   54.7061   23.9243   43.4723 H   0  0  0  0  0  0  0  0  0  0  0  0
   55.3195   22.7602   44.7078 H   0  0  0  0  0  0  0  0  0  0  0  0
   56.6160   23.0400   43.0180 C   0  0  0  0  0  0  0  0  0  0  0  0
   57.4648   22.5990   43.5612 H   0  0  0  0  0  0  0  0  0  0  0  0
   56.1462   22.2720   42.3860 H   0  0  0  0  0  0  0  0  0  0  0  0
   56.9744   23.8659   42.3860 H   0  0  0  0  0  0  0  0  0  0  0  0
   58.6570   27.9000   46.5180 S   0  0  0  0  0  0  0  0  0  0  0  0
   57.8770   29.1480   45.7070 C   0  0  0  0  0  0  0  0  0  0  0  0
   58.3360   30.4310   45.4360 C   0  0  0  0  0  0  0  0  0  0  0  0
   59.3337   30.7598   45.7624 H   0  0  0  0  0  0  0  0  0  0  0  0
   60.7460   32.2900   47.2160 C   0  0  0  0  0  0  0  0  0  0  0  0
   59.6704   32.0600   47.2311 H   0  0  0  0  0  0  0  0  0  0  0  0
   61.6750   31.3100   47.5790 C   0  0  0  0  0  0  0  0  0  0  0  0
   61.3300   30.3101   47.8811 H   0  0  0  0  0  0  0  0  0  0  0  0
  1  2  1  0
  2  3  2  0
  3  4  1  0
  3  5  1  0
  5  6  1  0
  5  7  2  0
  7  8  1  0
  8  9  1  0
  9 10  1  0
  9 11  1  0
  9 12  1  0
 12 13  2  0
 12 14  1  0
 14 15  2  0
 15 16  1  0
 16 17  1  0
 17 18  1  0
 17 19  2  0
 19 20  1  0
 20 21  1  0
 21 22  2  3
 22 23  1  0
 23 24  2  0
 23 25  1  0
 25 26  1  0
 25 27  1  0
 27 28  1  0
 27 29  1  0
 27 30  1  0
 30 31  1  0
 30 32  1  0
 30 33  1  0
 21 34  1  0
 34 35  1  0
 35 36  2  0
 36 37  1  0
  7 38  1  0
 38 39  1  0
 38 40  2  0
 40 41  1  0
 40  2  1  0
 36 15  1  0
 35 19  1  0
M  CHG  2  16  -1  20  -1
M  END
>  <UniqueID>  (61) 
57

>  <SMILES>  (61) 
CCNC(=O)N=c1[n-]c2c[n-]/c(=N/C(=O)CSc3ccccc3)cc2s1

>  <Energy>  (61) 
77.7739718790291

>  <Genealogy>  (61) 
CCNC(=O)N=c1[n-]c2c[n-]c(=NC(=O)CSc3ccccc3)cc2s1 (protonated)
CCNC(=O)N=c1[n-]c2c[n-]/c(=N/C(=O)CSc3ccccc3)cc2s1 (cis-trans isomerization)
CCNC(=O)N=c1[n-]c2c[n-]/c(=N/C(=O)CSc3ccccc3)cc2s1 (3D coordinates assigned)
CCNC(=O)N=c1[n-]c2c[n-]/c(=N/C(=O)CSc3ccccc3)cc2s1 (optimized conformer: 77.7739718790291 kcal/mol)

>  <smiles>  (61) 
CCNC(=O)N=c1[nH]c2c[nH]c(=NC(=O)CSc3ccccc3)cc2s1

>  <score_type>  (61) 
oracle

>  <origin>  (61) 
adg

>  <m_score__min__energy>  (61) 
-10.789999999999999

>  <m_primary>  (61) 
energy

$$$$
61:0
     RDKit          3D

 53 55  0  0  0  0  0  0  0  0999 V2000
   60.7810   28.9750   49.3770 C   0  0  0  0  0  0  0  0  0  0  0  0
   60.0740   28.6240   48.1030 C   0  0  0  0  0  0  0  0  0  0  0  0
   60.4060   27.4580   47.3950 C   0  0  0  0  0  0  0  0  0  0  0  0
   59.7040   27.1150   46.2350 C   0  0  0  0  0  0  0  0  0  0  0  0
   58.6620   27.9320   45.7670 C   0  0  0  0  0  0  0  0  0  0  0  0
   57.8180   27.5010   44.5980 C   0  0  0  0  0  0  0  0  0  0  0  0
   57.5490   28.6520   43.7410 N   0  0  0  0  0  0  0  0  0  0  0  0
   56.5830   29.6420   44.1180 C   0  0  0  0  0  0  0  0  0  0  0  0
   55.5390   29.2990   44.7340 O   0  0  0  0  0  0  0  0  0  0  0  0
   56.8380   31.0640   43.8620 C   0  0  0  0  0  0  0  0  0  0  0  0
   57.3370   31.4230   42.7620 O   0  0  0  0  0  0  0  0  0  0  0  0
   56.6280   32.0140   44.9130 N   0  0  0  0  0  0  0  0  0  0  0  0
   57.6140   32.9170   45.4290 C   0  0  0  0  0  0  0  0  0  0  0  0
   58.1780   33.9310   44.6370 C   0  0  0  0  0  0  0  0  0  0  0  0
   59.1800   34.7530   45.1600 C   0  0  0  0  0  0  0  0  0  0  0  0
   59.6320   34.5630   46.4670 C   0  0  0  0  0  0  0  0  0  0  0  0
   59.0640   33.5630   47.2710 C   0  0  0  0  0  0  0  0  0  0  0  0
   59.6960   33.2540   48.8910 S   0  0  0  0  0  0  0  0  0  0  0  0
   59.8090   34.5560   49.6350 O   0  0  0  0  0  0  0  0  0  0  0  0
   58.7330   32.3730   49.6370 O   0  0  0  0  0  0  0  0  0  0  0  0
   61.2740   32.4990   48.8300 N   0  0  0  0  0  0  0  0  0  0  0  0
   61.4860   31.8270   47.5290 C   0  0  0  0  0  0  0  0  0  0  0  0
   62.9720   31.5820   47.2550 C   0  0  0  0  0  0  0  0  0  0  0  0
   63.7350   32.9130   47.1560 C   0  0  0  0  0  0  0  0  0  0  0  0
   63.1100   34.0200   48.0230 C   0  0  0  0  0  0  0  0  0  0  0  0
   62.3500   33.4400   49.2270 C   0  0  0  0  0  0  0  0  0  0  0  0
   58.0330   32.7670   46.7560 C   0  0  0  0  0  0  0  0  0  0  0  0
   58.3310   29.0970   46.4770 C   0  0  0  0  0  0  0  0  0  0  0  0
   59.0330   29.4410   47.6360 C   0  0  0  0  0  0  0  0  0  0  0  0
   60.1643   28.6688   50.2349 H   0  0  0  0  0  0  0  0  0  0  0  0
   61.7482   28.4524   49.4156 H   0  0  0  0  0  0  0  0  0  0  0  0
   60.9494   30.0613   49.4156 H   0  0  0  0  0  0  0  0  0  0  0  0
   61.2209   26.8121   47.7538 H   0  0  0  0  0  0  0  0  0  0  0  0
   59.9697   26.1997   45.6858 H   0  0  0  0  0  0  0  0  0  0  0  0
   58.3544   26.7325   44.0221 H   0  0  0  0  0  0  0  0  0  0  0  0
   56.8672   27.0872   44.9651 H   0  0  0  0  0  0  0  0  0  0  0  0
   58.2370   28.8700   42.9880 H   0  0  0  0  0  0  0  0  0  0  0  0
   57.8305   34.0782   43.6038 H   0  0  0  0  0  0  0  0  0  0  0  0
   59.6135   35.5517   44.5402 H   0  0  0  0  0  0  0  0  0  0  0  0
   60.4354   35.1987   46.8676 H   0  0  0  0  0  0  0  0  0  0  0  0
   60.9607   30.8606   47.5370 H   0  0  0  0  0  0  0  0  0  0  0  0
   61.0941   32.4816   46.7366 H   0  0  0  0  0  0  0  0  0  0  0  0
   63.3960   30.9832   48.0746 H   0  0  0  0  0  0  0  0  0  0  0  0
   63.0709   31.0467   46.2992 H   0  0  0  0  0  0  0  0  0  0  0  0
   64.7716   32.7501   47.4861 H   0  0  0  0  0  0  0  0  0  0  0  0
   63.6900   33.2454   46.1084 H   0  0  0  0  0  0  0  0  0  0  0  0
   63.9103   34.6790   48.3907 H   0  0  0  0  0  0  0  0  0  0  0  0
   62.3934   34.5776   47.4021 H   0  0  0  0  0  0  0  0  0  0  0  0
   63.0651   32.9051   49.8692 H   0  0  0  0  0  0  0  0  0  0  0  0
   61.8760   34.2806   49.7550 H   0  0  0  0  0  0  0  0  0  0  0  0
   57.5487   32.0179   47.3997 H   0  0  0  0  0  0  0  0  0  0  0  0
   57.5151   29.7424   46.1196 H   0  0  0  0  0  0  0  0  0  0  0  0
   58.7680   30.3568   48.1847 H   0  0  0  0  0  0  0  0  0  0  0  0
  1  2  1  0
  2  3  2  0
  3  4  1  0
  4  5  2  0
  5  6  1  0
  6  7  1  0
  7  8  1  0
  8  9  2  0
  8 10  1  0
 10 11  2  0
 10 12  1  0
 12 13  1  0
 13 14  2  0
 14 15  1  0
 15 16  2  0
 16 17  1  0
 17 18  1  0
 18 19  2  0
 18 20  2  0
 18 21  1  0
 21 22  1  0
 22 23  1  0
 23 24  1  0
 24 25  1  0
 25 26  1  0
 17 27  2  0
  5 28  1  0
 28 29  2  0
 29  2  1  0
 27 13  1  0
 26 21  1  0
  1 30  1  0
  1 31  1  0
  1 32  1  0
  3 33  1  0
  4 34  1  0
  6 35  1  0
  6 36  1  0
  7 37  1  0
 14 38  1  0
 15 39  1  0
 16 40  1  0
 22 41  1  0
 22 42  1  0
 23 43  1  0
 23 44  1  0
 24 45  1  0
 24 46  1  0
 25 47  1  0
 25 48  1  0
 26 49  1  0
 26 50  1  0
 27 51  1  0
 28 52  1  0
 29 53  1  0
M  CHG  1  12  -1
M  END
>  <UniqueID>  (62) 
58

>  <SMILES>  (62) 
Cc1ccc(CNC(=O)C(=O)[N-]c2cccc(S(=O)(=O)N3CCCCC3)c2)cc1

>  <Energy>  (62) 
60.271930602954825

>  <Genealogy>  (62) 
Cc1ccc(CNC(=O)C(=O)[N-]c2cccc(S(=O)(=O)N3CCCCC3)c2)cc1 (protonated)
Cc1ccc(CNC(=O)C(=O)[N-]c2cccc(S(=O)(=O)N3CCCCC3)c2)cc1 (3D coordinates assigned)
Cc1ccc(CNC(=O)C(=O)[N-]c2cccc(S(=O)(=O)N3CCCCC3)c2)cc1 (nonaromatic ring conformer: 60.271930602954825 kcal/mol)

>  <smiles>  (62) 
Cc1ccc(CNC(=O)C(=O)Nc2cccc(S(=O)(=O)N3CCCCC3)c2)cc1

>  <score_type>  (62) 
oracle

>  <origin>  (62) 
adg

>  <m_score__min__energy>  (62) 
-11.24

>  <m_primary>  (62) 
energy

$$$$
62:0
     RDKit          3D

 46 48  0  0  1  0  0  0  0  0999 V2000
   57.0040   28.5150   45.1450 C   0  0  0  0  0  0  0  0  0  0  0  0
   56.2860   29.7020   44.8970 O   0  0  0  0  0  0  0  0  0  0  0  0
   56.9010   30.8650   44.4270 C   0  0  0  0  0  0  0  0  0  0  0  0
   57.0850   31.9520   45.1980 N   0  0  0  0  0  0  0  0  0  0  0  0
   57.6700   33.0840   44.7840 C   0  0  0  0  0  0  0  0  0  0  0  0
   57.8410   34.1190   45.5290 N   0  0  0  0  0  0  0  0  0  0  0  0
   59.3280   34.3570   46.4040 S   0  0  0  0  0  0  0  0  0  0  0  0
   59.5420   35.8200   46.7070 O   0  0  0  0  0  0  0  0  0  0  0  0
   60.5070   33.8980   45.6290 O   0  0  0  0  0  0  0  0  0  0  0  0
   59.2140   33.5120   47.9320 C   0  0  0  0  0  0  0  0  0  0  0  0
   58.7410   32.2150   48.0310 C   0  0  0  0  0  0  0  0  0  0  0  0
   58.6570   31.5560   49.2540 C   0  0  0  0  0  0  0  0  0  0  0  0
   59.0540   32.2050   50.4100 C   0  0  0  0  0  0  0  0  0  0  0  0
   59.0070   31.6400   51.6610 O   0  0  0  0  0  0  0  0  0  0  0  0
   57.8950   30.9320   52.0900 C   0  0  0  0  0  0  0  0  0  0  0  0
   58.1530   29.7910   52.8450 C   0  0  0  0  0  0  0  0  0  0  0  0
   57.1510   28.9930   53.3360 C   0  0  0  0  0  0  0  0  0  0  0  0
   57.4790   27.7900   54.1340 C   0  0  0  0  0  0  0  0  0  0  0  0
   55.8510   29.3690   53.0490 C   0  0  0  0  0  0  0  0  0  0  0  0
   55.5960   30.4980   52.3010 C   0  0  0  0  0  0  0  0  0  0  0  0
   54.1710   30.8740   52.0100 C   0  0  0  0  0  0  0  0  0  0  0  0
   56.6000   31.3020   51.8060 C   0  0  0  0  0  0  0  0  0  0  0  0
   59.5300   33.5110   50.3180 C   0  0  0  0  0  0  0  0  0  0  0  0
   59.6070   34.1500   49.0990 C   0  0  0  0  0  0  0  0  0  0  0  0
   58.1060   33.0980   43.4600 C   0  0  0  0  0  0  0  0  0  0  0  0
   57.9290   31.9890   42.6470 C   0  0  0  0  0  0  0  0  0  0  0  0
   58.3540   31.9960   41.3460 F   0  0  0  0  0  0  0  0  0  0  0  0
   57.3220   30.8770   43.1500 N   0  0  0  0  0  0  0  0  0  0  0  0
   57.0964   28.3623   46.2304 H   0  0  0  0  0  0  0  0  0  0  0  0
   56.4696   27.6632   44.6991 H   0  0  0  0  0  0  0  0  0  0  0  0
   58.0065   28.5929   44.6991 H   0  0  0  0  0  0  0  0  0  0  0  0
   58.4227   31.6906   47.1179 H   0  0  0  0  0  0  0  0  0  0  0  0
   58.2771   30.5248   49.3015 H   0  0  0  0  0  0  0  0  0  0  0  0
   59.1980   29.5196   53.0554 H   0  0  0  0  0  0  0  0  0  0  0  0
   57.4132   28.0314   55.2052 H   0  0  0  0  0  0  0  0  0  0  0  0
   56.7673   26.9861   53.8949 H   0  0  0  0  0  0  0  0  0  0  0  0
   58.5003   27.4586   53.8949 H   0  0  0  0  0  0  0  0  0  0  0  0
   55.0131   28.7612   53.4213 H   0  0  0  0  0  0  0  0  0  0  0  0
   53.6289   31.0170   52.9564 H   0  0  0  0  0  0  0  0  0  0  0  0
   54.1494   31.8086   51.4302 H   0  0  0  0  0  0  0  0  0  0  0  0
   53.6912   30.0717   51.4302 H   0  0  0  0  0  0  0  0  0  0  0  0
   56.3764   32.1994   51.2105 H   0  0  0  0  0  0  0  0  0  0  0  0
   59.8483   34.0387   51.2292 H   0  0  0  0  0  0  0  0  0  0  0  0
   59.9859   35.1816   49.0512 H   0  0  0  0  0  0  0  0  0  0  0  0
   58.5949   33.9971   43.0566 H   0  0  0  0  0  0  0  0  0  0  0  0
   57.2140   30.0730   42.4930 H   0  0  0  0  0  0  0  0  0  0  0  0
  1  2  1  0
  2  3  1  0
  3  4  2  0
  4  5  1  0
  5  6  2  0
  6  7  1  0
  7  8  2  0
  7  9  2  0
  7 10  1  0
 10 11  2  0
 11 12  1  0
 12 13  2  0
 13 14  1  0
 14 15  1  0
 15 16  2  0
 16 17  1  0
 17 18  1  0
 17 19  2  0
 19 20  1  0
 20 21  1  0
 20 22  2  0
 13 23  1  0
 23 24  2  0
  5 25  1  0
 25 26  2  0
 26 27  1  0
 26 28  1  0
 28  3  1  0
 24 10  1  0
 22 15  1  0
  1 29  1  0
  1 30  1  0
  1 31  1  0
 11 32  1  0
 12 33  1  0
 16 34  1  0
 18 35  1  0
 18 36  1  0
 18 37  1  0
 19 38  1  0
 21 39  1  0
 21 40  1  0
 21 41  1  0
 22 42  1  0
 23 43  1  0
 24 44  1  0
 25 45  1  0
 28 46  1  0
M  END
>  <smiles>  (63) 
COc1nc(=NS(=O)(=O)c2ccc(Oc3cc(C)cc(C)c3)cc2)cc(F)[nH]1

>  <score_type>  (63) 
oracle

>  <origin>  (63) 
adg

>  <m_score__min__energy>  (63) 
-9.1600000000000001

>  <m_primary>  (63) 
energy

$$$$
63:0
     RDKit          3D

 55 57  0  0  0  0  0  0  0  0999 V2000
   63.3410   34.1760   46.9320 C   0  0  0  0  0  0  0  0  0  0  0  0
   62.9100   32.7630   47.1480 C   0  0  0  0  0  0  0  0  0  0  0  0
   63.7500   31.8340   47.0050 O   0  0  0  0  0  0  0  0  0  0  0  0
   61.5750   32.4850   47.6020 N   0  0  0  0  0  0  0  0  0  0  0  0
   61.0190   31.1660   47.7350 C   0  0  0  0  0  0  0  0  0  0  0  0
   61.1950   30.2380   46.6980 C   0  0  0  0  0  0  0  0  0  0  0  0
   60.6590   28.9510   46.7960 C   0  0  0  0  0  0  0  0  0  0  0  0
   59.9430   28.5680   47.9380 C   0  0  0  0  0  0  0  0  0  0  0  0
   59.3860   27.2060   48.0380 C   0  0  0  0  0  0  0  0  0  0  0  0
   60.0630   26.3090   48.6050 O   0  0  0  0  0  0  0  0  0  0  0  0
   58.1110   26.8630   47.4790 N   0  0  0  0  0  0  0  0  0  0  0  0
   57.8370   26.6920   46.0540 C   0  0  0  0  0  0  0  0  0  0  0  0
   56.6970   27.5750   45.6270 C   0  0  0  0  0  0  0  0  0  0  0  0
   55.5260   27.1070   45.6370 O   0  0  0  0  0  0  0  0  0  0  0  0
   56.9220   28.9350   45.2070 N   0  0  0  0  0  0  0  0  0  0  0  0
   55.9760   29.5710   44.2880 C   0  0  0  0  0  0  0  0  0  0  0  0
   56.7040   30.5140   43.3230 C   0  0  0  0  0  0  0  0  0  0  0  0
   57.7310   31.4540   44.0010 C   0  0  0  0  0  0  0  0  0  0  0  0
   57.1590   32.8280   44.4370 C   0  0  0  0  0  0  0  0  0  0  0  0
   57.9750   33.5870   45.4540 C   0  0  0  0  0  0  0  0  0  0  0  0
   58.8710   34.5890   45.0410 C   0  0  0  0  0  0  0  0  0  0  0  0
   59.6490   35.2720   45.9800 C   0  0  0  0  0  0  0  0  0  0  0  0
   59.5540   34.9470   47.3360 C   0  0  0  0  0  0  0  0  0  0  0  0
   58.6870   33.9350   47.7530 C   0  0  0  0  0  0  0  0  0  0  0  0
   57.9080   33.2490   46.8160 C   0  0  0  0  0  0  0  0  0  0  0  0
   58.5880   30.7400   45.0730 C   0  0  0  0  0  0  0  0  0  0  0  0
   57.7830   29.8200   45.9950 C   0  0  0  0  0  0  0  0  0  0  0  0
   59.8060   29.4760   48.9990 C   0  0  0  0  0  0  0  0  0  0  0  0
   60.3400   30.7640   48.9000 C   0  0  0  0  0  0  0  0  0  0  0  0
   63.4906   34.6665   47.9051 H   0  0  0  0  0  0  0  0  0  0  0  0
   64.2840   34.1892   46.3659 H   0  0  0  0  0  0  0  0  0  0  0  0
   62.5659   34.7133   46.3659 H   0  0  0  0  0  0  0  0  0  0  0  0
   61.0100   33.2920   47.9540 H   0  0  0  0  0  0  0  0  0  0  0  0
   61.7602   30.5259   45.7993 H   0  0  0  0  0  0  0  0  0  0  0  0
   60.7999   28.2353   45.9727 H   0  0  0  0  0  0  0  0  0  0  0  0
   58.7358   26.9575   45.4782 H   0  0  0  0  0  0  0  0  0  0  0  0
   57.5634   25.6430   45.8678 H   0  0  0  0  0  0  0  0  0  0  0  0
   55.4573   28.7928   43.7090 H   0  0  0  0  0  0  0  0  0  0  0  0
   55.2538   30.1569   44.8755 H   0  0  0  0  0  0  0  0  0  0  0  0
   57.2359   29.9021   42.5796 H   0  0  0  0  0  0  0  0  0  0  0  0
   55.9347   31.1601   42.8749 H   0  0  0  0  0  0  0  0  0  0  0  0
   58.4405   31.7249   43.2052 H   0  0  0  0  0  0  0  0  0  0  0  0
   57.0700   33.4567   43.5388 H   0  0  0  0  0  0  0  0  0  0  0  0
   56.1991   32.6095   44.9277 H   0  0  0  0  0  0  0  0  0  0  0  0
   58.9601   34.8367   43.9730 H   0  0  0  0  0  0  0  0  0  0  0  0
   60.3363   36.0656   45.6517 H   0  0  0  0  0  0  0  0  0  0  0  0
   60.1625   35.4887   48.0751 H   0  0  0  0  0  0  0  0  0  0  0  0
   58.6167   33.6771   48.8200 H   0  0  0  0  0  0  0  0  0  0  0  0
   57.2394   32.4407   47.1470 H   0  0  0  0  0  0  0  0  0  0  0  0
   59.3516   30.1360   44.5609 H   0  0  0  0  0  0  0  0  0  0  0  0
   59.0273   31.5244   45.7069 H   0  0  0  0  0  0  0  0  0  0  0  0
   58.4758   29.2118   46.5951 H   0  0  0  0  0  0  0  0  0  0  0  0
   57.1539   30.4365   46.6539 H   0  0  0  0  0  0  0  0  0  0  0  0
   59.2755   29.1726   49.9136 H   0  0  0  0  0  0  0  0  0  0  0  0
   60.2287   31.4677   49.7381 H   0  0  0  0  0  0  0  0  0  0  0  0
  1  2  1  0
  2  3  2  0
  2  4  1  0
  4  5  1  0
  5  6  2  0
  6  7  1  0
  7  8  2  0
  8  9  1  0
  9 10  2  0
  9 11  1  0
 11 12  1  0
 12 13  1  0
 13 14  2  0
 13 15  1  0
 15 16  1  0
 16 17  1  0
 17 18  1  0
 18 19  1  0
 19 20  1  0
 20 21  2  0
 21 22  1  0
 22 23  2  0
 23 24  1  0
 24 25  2  0
 18 26  1  0
 26 27  1  0
  8 28  1  0
 28 29  2  0
 29  5  1  0
 27 15  1  0
 25 20  1  0
  1 30  1  0
  1 31  1  0
  1 32  1  0
  4 33  1  0
  6 34  1  0
  7 35  1  0
 12 36  1  0
 12 37  1  0
 16 38  1  0
 16 39  1  0
 17 40  1  0
 17 41  1  0
 18 42  1  0
 19 43  1  0
 19 44  1  0
 21 45  1  0
 22 46  1  0
 23 47  1  0
 24 48  1  0
 25 49  1  0
 26 50  1  0
 26 51  1  0
 27 52  1  0
 27 53  1  0
 28 54  1  0
 29 55  1  0
M  CHG  1  11  -1
M  END
>  <UniqueID>  (64) 
59

>  <SMILES>  (64) 
CC(=O)Nc1ccc(C(=O)[N-]CC(=O)N2CCC(Cc3ccccc3)CC2)cc1

>  <Energy>  (64) 
59.618004604448494

>  <Genealogy>  (64) 
CC(=O)Nc1ccc(C(=O)[N-]CC(=O)N2CCC(Cc3ccccc3)CC2)cc1 (protonated)
CC(=O)Nc1ccc(C(=O)[N-]CC(=O)N2CCC(Cc3ccccc3)CC2)cc1 (3D coordinates assigned)
CC(=O)Nc1ccc(C(=O)[N-]CC(=O)N2CCC(Cc3ccccc3)CC2)cc1 (nonaromatic ring conformer: 59.618004604448494 kcal/mol)

>  <smiles>  (64) 
CC(=O)Nc1ccc(C(=O)NCC(=O)N2CCC(Cc3ccccc3)CC2)cc1

>  <score_type>  (64) 
oracle

>  <origin>  (64) 
adg

>  <m_score__min__energy>  (64) 
-10.27

>  <m_primary>  (64) 
energy

$$$$
64:0
     RDKit          3D

 59 63  0  0  0  0  0  0  0  0999 V2000
   57.4696   32.8577   48.0066 H   0  0  0  0  0  0  0  0  0  0  0  0
   57.7690   33.2280   47.0150 C   0  0  0  0  0  0  0  0  0  0  0  0
   57.2480   32.7360   45.8610 N   0  0  0  0  0  0  0  0  0  0  0  0
   57.7830   33.3420   44.7770 C   0  0  0  0  0  0  0  0  0  0  0  0
   57.4890   33.0320   43.5500 N   0  0  0  0  0  0  0  0  0  0  0  0
   57.3920   31.6940   43.0350 C   0  0  0  0  0  0  0  0  0  0  0  0
   57.0970   31.5340   41.8220 O   0  0  0  0  0  0  0  0  0  0  0  0
   57.6910   30.5060   43.8760 C   0  0  0  0  0  0  0  0  0  0  0  0
   56.7330   29.4960   44.0390 C   0  0  0  0  0  0  0  0  0  0  0  0
   55.7740   29.5609   43.5040 H   0  0  0  0  0  0  0  0  0  0  0  0
   56.9880   28.4080   44.8760 C   0  0  0  0  0  0  0  0  0  0  0  0
   56.2297   27.6197   44.9924 H   0  0  0  0  0  0  0  0  0  0  0  0
   58.2040   28.3120   45.5700 C   0  0  0  0  0  0  0  0  0  0  0  0
   58.4130   27.1830   46.5040 C   0  0  0  0  0  0  0  0  0  0  0  0
   59.5840   26.9180   46.8870 O   0  0  0  0  0  0  0  0  0  0  0  0
   57.3270   26.3900   47.0120 N   0  0  0  0  0  0  0  0  0  0  0  0
   56.7680   25.3690   46.4250 C   0  0  0  0  0  0  0  0  0  0  0  0
   57.4130   24.1710   46.3240 N   0  0  0  0  0  0  0  0  0  0  0  0
   56.8530   23.0970   45.7070 C   0  0  0  0  0  0  0  0  0  0  0  0
   57.4065   22.1485   45.6438 H   0  0  0  0  0  0  0  0  0  0  0  0
   55.5740   23.1980   45.1530 C   0  0  0  0  0  0  0  0  0  0  0  0
   55.1210   22.3377   44.6385 H   0  0  0  0  0  0  0  0  0  0  0  0
   54.8780   24.4030   45.2600 C   0  0  0  0  0  0  0  0  0  0  0  0
   53.8657   24.4938   44.8394 H   0  0  0  0  0  0  0  0  0  0  0  0
   55.4700   25.4950   45.9030 C   0  0  0  0  0  0  0  0  0  0  0  0
   54.7750   26.6980   46.0030 O   0  0  0  0  0  0  0  0  0  0  0  0
   59.2060   29.2820   45.3590 C   0  0  0  0  0  0  0  0  0  0  0  0
   60.4340   29.1650   46.0330 O   0  0  0  0  0  0  0  0  0  0  0  0
   60.8970   30.0370   47.0290 C   0  0  0  0  0  0  0  0  0  0  0  0
   61.8890   30.7840   46.8080 O   0  0  0  0  0  0  0  0  0  0  0  0
   60.2450   30.0490   48.3570 C   0  0  0  0  0  0  0  0  0  0  0  0
   59.2780   31.0220   48.6630 C   0  0  0  0  0  0  0  0  0  0  0  0
   58.9967   31.7688   47.9060 H   0  0  0  0  0  0  0  0  0  0  0  0
   58.6710   31.0480   49.9220 C   0  0  0  0  0  0  0  0  0  0  0  0
   57.9129   31.8115   50.1509 H   0  0  0  0  0  0  0  0  0  0  0  0
   59.0260   30.1060   50.8890 C   0  0  0  0  0  0  0  0  0  0  0  0
   58.5511   30.1302   51.8809 H   0  0  0  0  0  0  0  0  0  0  0  0
   59.9840   29.1330   50.5970 C   0  0  0  0  0  0  0  0  0  0  0  0
   60.2605   28.3891   51.3587 H   0  0  0  0  0  0  0  0  0  0  0  0
   60.5930   29.1020   49.3380 C   0  0  0  0  0  0  0  0  0  0  0  0
   61.3476   28.3336   49.1138 H   0  0  0  0  0  0  0  0  0  0  0  0
   58.9370   30.3730   44.5130 C   0  0  0  0  0  0  0  0  0  0  0  0
   59.7138   31.1340   44.3473 H   0  0  0  0  0  0  0  0  0  0  0  0
   58.9100   34.5160   45.1950 S   0  0  0  0  0  0  0  0  0  0  0  0
   58.7100   34.2360   46.8440 C   0  0  0  0  0  0  0  0  0  0  0  0
   59.5520   34.8260   47.9280 C   0  0  0  0  0  0  0  0  0  0  0  0
   59.6352   35.9123   47.7761 H   0  0  0  0  0  0  0  0  0  0  0  0
   59.0846   34.6242   48.9031 H   0  0  0  0  0  0  0  0  0  0  0  0
   60.9240   34.2100   47.8960 C   0  0  0  0  0  0  0  0  0  0  0  0
   61.6320   34.1190   46.6870 C   0  0  0  0  0  0  0  0  0  0  0  0
   61.1952   34.5280   45.7640 H   0  0  0  0  0  0  0  0  0  0  0  0
   62.8910   33.5100   46.6520 C   0  0  0  0  0  0  0  0  0  0  0  0
   63.4446   33.4467   45.7036 H   0  0  0  0  0  0  0  0  0  0  0  0
   63.4460   32.9820   47.8210 C   0  0  0  0  0  0  0  0  0  0  0  0
   64.4411   32.5140   47.7941 H   0  0  0  0  0  0  0  0  0  0  0  0
   62.7380   33.0480   49.0240 C   0  0  0  0  0  0  0  0  0  0  0  0
   63.1709   32.6212   49.9408 H   0  0  0  0  0  0  0  0  0  0  0  0
   61.4800   33.6560   49.0630 C   0  0  0  0  0  0  0  0  0  0  0  0
   60.9226   33.7013   50.0102 H   0  0  0  0  0  0  0  0  0  0  0  0
  1  2  1  0
  2  3  1  0
  3  4  1  0
  4  5  2  3
  5  6  1  0
  6  7  2  0
  6  8  1  0
  8  9  2  0
  9 10  1  0
  9 11  1  0
 11 12  1  0
 11 13  2  0
 13 14  1  0
 14 15  2  0
 14 16  1  0
 16 17  2  0
 17 18  1  0
 18 19  1  0
 19 20  1  0
 19 21  2  0
 21 22  1  0
 21 23  1  0
 23 24  1  0
 23 25  2  0
 25 26  1  0
 13 27  1  0
 27 28  1  0
 28 29  1  0
 29 30  2  0
 29 31  1  0
 31 32  2  0
 32 33  1  0
 32 34  1  0
 34 35  1  0
 34 36  2  0
 36 37  1  0
 36 38  1  0
 38 39  1  0
 38 40  2  0
 40 41  1  0
 27 42  2  0
 42 43  1  0
  4 44  1  0
 44 45  1  0
 45 46  1  0
 46 47  1  0
 46 48  1  0
 46 49  1  0
 49 50  2  0
 50 51  1  0
 50 52  1  0
 52 53  1  0
 52 54  2  0
 54 55  1  0
 54 56  1  0
 56 57  1  0
 56 58  2  0
 58 59  1  0
 45  2  2  0
 58 49  1  0
 42  8  1  0
 25 17  1  0
 40 31  1  0
M  CHG  3   3  -1  18  -1  26  -1
M  END
>  <UniqueID>  (65) 
60

>  <SMILES>  (65) 
O=C(N=c1[n-]cc(Cc2ccccc2)s1)c1ccc(C(=O)/N=c2\[n-]cccc2[O-])c(OC(=O)c2ccccc2)c1

>  <Energy>  (65) 
110.51411933596225

>  <Genealogy>  (65) 
O=C(N=c1[n-]cc(Cc2ccccc2)s1)c1ccc(C(=O)N=c2[n-]cccc2[O-])c(OC(=O)c2ccccc2)c1 (protonated)
O=C(N=c1[n-]cc(Cc2ccccc2)s1)c1ccc(C(=O)/N=c2\[n-]cccc2[O-])c(OC(=O)c2ccccc2)c1 (cis-trans isomerization)
O=C(N=c1[n-]cc(Cc2ccccc2)s1)c1ccc(C(=O)/N=c2\[n-]cccc2[O-])c(OC(=O)c2ccccc2)c1 (3D coordinates assigned)
O=C(N=c1[n-]cc(Cc2ccccc2)s1)c1ccc(C(=O)/N=c2\[n-]cccc2[O-])c(OC(=O)c2ccccc2)c1 (optimized conformer: 110.51411933596225 kcal/mol)

>  <smiles>  (65) 
O=C(N=c1[nH]cc(Cc2ccccc2)s1)c1ccc(C(=O)N=c2[nH]cccc2O)c(OC(=O)c2ccccc2)c1

>  <score_type>  (65) 
oracle

>  <origin>  (65) 
adg

>  <m_score__min__energy>  (65) 
-16.879999999999999

>  <m_primary>  (65) 
energy

$$$$
65:0
     RDKit          3D

 49 51  0  0  0  0  0  0  0  0999 V2000
   62.4050   34.2510   49.2150 C   0  0  0  0  0  0  0  0  0  0  0  0
   61.5360   33.3850   48.2930 C   0  0  0  0  0  0  0  0  0  0  0  0
   60.0420   33.4610   48.6910 C   0  0  0  0  0  0  0  0  0  0  0  0
   59.2880   34.5140   47.8650 C   0  0  0  0  0  0  0  0  0  0  0  0
   59.3630   34.2680   46.4030 N   0  0  0  0  0  0  0  0  0  0  0  0
   57.8850   33.5510   45.8080 S   0  0  0  0  0  0  0  0  0  0  0  0
   57.5450   34.1390   44.4650 O   0  0  0  0  0  0  0  0  0  0  0  0
   56.7580   33.8260   46.7630 O   0  0  0  0  0  0  0  0  0  0  0  0
   58.0960   31.8080   45.6730 C   0  0  0  0  0  0  0  0  0  0  0  0
   57.8060   31.1400   44.4740 C   0  0  0  0  0  0  0  0  0  0  0  0
   57.9800   29.7560   44.3820 C   0  0  0  0  0  0  0  0  0  0  0  0
   58.4410   29.0280   45.4880 C   0  0  0  0  0  0  0  0  0  0  0  0
   58.6570   27.2840   45.3810 S   0  0  0  0  0  0  0  0  0  0  0  0
   60.0650   26.9390   45.7760 O   0  0  0  0  0  0  0  0  0  0  0  0
   58.4070   26.8060   43.9770 O   0  0  0  0  0  0  0  0  0  0  0  0
   57.5530   26.4860   46.4500 N   0  0  0  0  0  0  0  0  0  0  0  0
   56.6880   25.4320   46.0170 C   0  0  0  0  0  0  0  0  0  0  0  0
   55.4410   25.6150   45.9970 O   0  0  0  0  0  0  0  0  0  0  0  0
   57.2540   24.1310   45.5920 C   0  0  0  0  0  0  0  0  0  0  0  0
   56.4140   23.0910   45.1560 C   0  0  0  0  0  0  0  0  0  0  0  0
   56.9700   21.8700   44.7680 C   0  0  0  0  0  0  0  0  0  0  0  0
   58.3170   21.6850   44.8060 N   0  0  0  0  0  0  0  0  0  0  0  0
   59.1550   22.6740   45.2190 C   0  0  0  0  0  0  0  0  0  0  0  0
   58.6420   23.9110   45.6180 C   0  0  0  0  0  0  0  0  0  0  0  0
   58.7320   29.6970   46.6840 C   0  0  0  0  0  0  0  0  0  0  0  0
   58.5590   31.0800   46.7760 C   0  0  0  0  0  0  0  0  0  0  0  0
   60.5230   33.4570   45.9730 C   0  0  0  0  0  0  0  0  0  0  0  0
   61.7630   33.7720   46.8130 C   0  0  0  0  0  0  0  0  0  0  0  0
   62.1713   34.0181   50.2643 H   0  0  0  0  0  0  0  0  0  0  0  0
   63.4673   34.0416   49.0208 H   0  0  0  0  0  0  0  0  0  0  0  0
   62.1993   35.3140   49.0208 H   0  0  0  0  0  0  0  0  0  0  0  0
   61.8424   32.3354   48.4134 H   0  0  0  0  0  0  0  0  0  0  0  0
   59.5780   32.4777   48.5243 H   0  0  0  0  0  0  0  0  0  0  0  0
   59.9832   33.7494   49.7509 H   0  0  0  0  0  0  0  0  0  0  0  0
   58.2306   34.5056   48.1679 H   0  0  0  0  0  0  0  0  0  0  0  0
   59.7636   35.4866   48.0595 H   0  0  0  0  0  0  0  0  0  0  0  0
   57.4410   31.7064   43.6045 H   0  0  0  0  0  0  0  0  0  0  0  0
   57.7545   29.2365   43.4390 H   0  0  0  0  0  0  0  0  0  0  0  0
   55.3245   23.2384   45.1207 H   0  0  0  0  0  0  0  0  0  0  0  0
   56.3150   21.0535   44.4298 H   0  0  0  0  0  0  0  0  0  0  0  0
   58.7160   20.7660   44.5110 H   0  0  0  0  0  0  0  0  0  0  0  0
   60.2408   22.4991   45.2389 H   0  0  0  0  0  0  0  0  0  0  0  0
   59.3216   24.7093   45.9511 H   0  0  0  0  0  0  0  0  0  0  0  0
   59.0979   29.1313   47.5535 H   0  0  0  0  0  0  0  0  0  0  0  0
   58.7873   31.5992   47.7185 H   0  0  0  0  0  0  0  0  0  0  0  0
   60.2760   32.3909   46.0843 H   0  0  0  0  0  0  0  0  0  0  0  0
   60.7447   33.6972   44.9227 H   0  0  0  0  0  0  0  0  0  0  0  0
   62.6192   33.2047   46.4191 H   0  0  0  0  0  0  0  0  0  0  0  0
   61.9616   34.8525   46.7574 H   0  0  0  0  0  0  0  0  0  0  0  0
  1  2  1  0
  2  3  1  0
  3  4  1  0
  4  5  1  0
  5  6  1  0
  6  7  2  0
  6  8  2  0
  6  9  1  0
  9 10  2  0
 10 11  1  0
 11 12  2  0
 12 13  1  0
 13 14  2  0
 13 15  2  0
 13 16  1  0
 16 17  1  0
 17 18  2  0
 17 19  1  0
 19 20  2  0
 20 21  1  0
 21 22  2  0
 22 23  1  0
 23 24  2  0
 12 25  1  0
 25 26  2  0
  5 27  1  0
 27 28  1  0
 28  2  1  0
 26  9  1  0
 24 19  1  0
  1 29  1  0
  1 30  1  0
  1 31  1  0
  2 32  1  0
  3 33  1  0
  3 34  1  0
  4 35  1  0
  4 36  1  0
 10 37  1  0
 11 38  1  0
 20 39  1  0
 21 40  1  0
 22 41  1  0
 23 42  1  0
 24 43  1  0
 25 44  1  0
 26 45  1  0
 27 46  1  0
 27 47  1  0
 28 48  1  0
 28 49  1  0
M  CHG  2  16  -1  22   1
M  END
>  <UniqueID>  (66) 
61

>  <SMILES>  (66) 
CC1CCN(S(=O)(=O)c2ccc(S(=O)(=O)[N-]C(=O)c3cc[nH+]cc3)cc2)CC1

>  <Energy>  (66) 
57.093184477317706

>  <Genealogy>  (66) 
CC1CCN(S(=O)(=O)c2ccc(S(=O)(=O)[N-]C(=O)c3cc[nH+]cc3)cc2)CC1 (protonated)
CC1CCN(S(=O)(=O)c2ccc(S(=O)(=O)[N-]C(=O)c3cc[nH+]cc3)cc2)CC1 (3D coordinates assigned)
CC1CCN(S(=O)(=O)c2ccc(S(=O)(=O)[N-]C(=O)c3cc[nH+]cc3)cc2)CC1 (nonaromatic ring conformer: 57.093184477317706 kcal/mol)

>  <smiles>  (66) 
CC1CCN(S(=O)(=O)c2ccc(S(=O)(=O)NC(=O)c3ccncc3)cc2)CC1

>  <score_type>  (66) 
oracle

>  <origin>  (66) 
adg

>  <m_score__min__energy>  (66) 
-10.029999999999999

>  <m_primary>  (66) 
energy

$$$$
66:0
     RDKit          3D

 59 62  0  0  0  0  0  0  0  0999 V2000
   55.6680   27.9930   54.1460 C   0  0  0  0  0  0  0  0  0  0  0  0
   55.0720   29.0290   53.2310 C   0  0  0  0  0  0  0  0  0  0  0  0
   53.7710   28.8300   52.7350 C   0  0  0  0  0  0  0  0  0  0  0  0
   53.1770   29.7740   51.8950 C   0  0  0  0  0  0  0  0  0  0  0  0
   53.8750   30.9300   51.5410 C   0  0  0  0  0  0  0  0  0  0  0  0
   55.1700   31.1430   52.0170 C   0  0  0  0  0  0  0  0  0  0  0  0
   55.7880   30.1950   52.8530 C   0  0  0  0  0  0  0  0  0  0  0  0
   57.1700   30.4590   53.3210 C   0  0  0  0  0  0  0  0  0  0  0  0
   57.3600   31.2270   54.3000 O   0  0  0  0  0  0  0  0  0  0  0  0
   58.2960   29.7860   52.7440 N   0  0  0  0  0  0  0  0  0  0  0  0
   58.7860   29.9390   51.4050 C   0  0  0  0  0  0  0  0  0  0  0  0
   59.6960   29.0290   50.8410 C   0  0  0  0  0  0  0  0  0  0  0  0
   60.1390   29.2010   49.5290 C   0  0  0  0  0  0  0  0  0  0  0  0
   59.6580   30.2620   48.7530 C   0  0  0  0  0  0  0  0  0  0  0  0
   60.2010   30.4220   47.0840 S   0  0  0  0  0  0  0  0  0  0  0  0
   61.4000   31.3250   47.0060 O   0  0  0  0  0  0  0  0  0  0  0  0
   60.5800   29.0620   46.5720 O   0  0  0  0  0  0  0  0  0  0  0  0
   58.9010   31.0720   46.1180 N   0  0  0  0  0  0  0  0  0  0  0  0
   59.0210   32.5460   46.0210 C   0  0  0  0  0  0  0  0  0  0  0  0
   58.1400   33.1380   44.8920 C   0  0  0  0  0  0  0  0  0  0  0  0
   57.0050   32.1830   44.5130 C   0  0  0  0  0  0  0  0  0  0  0  0
   57.5520   30.8000   44.0670 C   0  0  2  0  0  0  0  0  0  0  0  0
   56.4890   29.7500   44.2850 C   0  0  0  0  0  0  0  0  0  0  0  0
   55.6350   29.5040   43.3910 O   0  0  0  0  0  0  0  0  0  0  0  0
   56.4800   29.0080   45.5130 N   0  0  0  0  0  0  0  0  0  0  0  0
   56.9920   27.6810   45.6920 C   0  0  0  0  0  0  0  0  0  0  0  0
   58.3680   27.4690   45.5270 C   0  0  0  0  0  0  0  0  0  0  0  0
   58.9160   26.2000   45.7050 C   0  0  0  0  0  0  0  0  0  0  0  0
   58.0940   25.1180   46.0280 C   0  0  0  0  0  0  0  0  0  0  0  0
   56.7150   25.3050   46.1470 C   0  0  0  0  0  0  0  0  0  0  0  0
   56.1570   26.5740   45.9610 C   0  0  0  0  0  0  0  0  0  0  0  0
   54.7800   26.7120   46.0140 O   0  0  0  0  0  0  0  0  0  0  0  0
   58.8890   30.4580   44.7800 C   0  0  0  0  0  0  0  0  0  0  0  0
   58.7320   31.1560   49.3040 C   0  0  0  0  0  0  0  0  0  0  0  0
   58.2960   30.9890   50.6220 C   0  0  0  0  0  0  0  0  0  0  0  0
   55.4988   28.2871   55.1924 H   0  0  0  0  0  0  0  0  0  0  0  0
   55.1919   27.0195   53.9571 H   0  0  0  0  0  0  0  0  0  0  0  0
   56.7489   27.9153   53.9571 H   0  0  0  0  0  0  0  0  0  0  0  0
   53.2159   27.9215   53.0116 H   0  0  0  0  0  0  0  0  0  0  0  0
   52.1594   29.6069   51.5123 H   0  0  0  0  0  0  0  0  0  0  0  0
   53.4029   31.6758   50.8846 H   0  0  0  0  0  0  0  0  0  0  0  0
   55.7111   32.0587   51.7364 H   0  0  0  0  0  0  0  0  0  0  0  0
   60.0603   28.1783   51.4356 H   0  0  0  0  0  0  0  0  0  0  0  0
   60.8703   28.4989   49.1022 H   0  0  0  0  0  0  0  0  0  0  0  0
   58.7121   32.9893   46.9792 H   0  0  0  0  0  0  0  0  0  0  0  0
   60.0695   32.7822   45.7866 H   0  0  0  0  0  0  0  0  0  0  0  0
   57.7079   34.0892   45.2362 H   0  0  0  0  0  0  0  0  0  0  0  0
   58.7717   33.2955   44.0053 H   0  0  0  0  0  0  0  0  0  0  0  0
   56.3485   32.0439   45.3846 H   0  0  0  0  0  0  0  0  0  0  0  0
   56.4495   32.6228   43.6716 H   0  0  0  0  0  0  0  0  0  0  0  0
   57.7878   30.8299   42.9930 H   0  0  0  0  0  0  0  0  0  0  0  0
   59.0207   28.3115   45.2547 H   0  0  0  0  0  0  0  0  0  0  0  0
   59.9997   26.0500   45.5907 H   0  0  0  0  0  0  0  0  0  0  0  0
   58.5314   24.1215   46.1882 H   0  0  0  0  0  0  0  0  0  0  0  0
   56.0652   24.4508   46.3880 H   0  0  0  0  0  0  0  0  0  0  0  0
   58.9847   29.3664   44.8763 H   0  0  0  0  0  0  0  0  0  0  0  0
   59.7307   30.8484   44.1891 H   0  0  0  0  0  0  0  0  0  0  0  0
   58.3471   31.9905   48.6995 H   0  0  0  0  0  0  0  0  0  0  0  0
   57.5615   31.6893   51.0465 H   0  0  0  0  0  0  0  0  0  0  0  0
  1  2  1  0
  2  3  2  0
  3  4  1  0
  4  5  2  0
  5  6  1  0
  6  7  2  0
  7  8  1  0
  8  9  2  0
  8 10  1  0
 10 11  1  0
 11 12  2  0
 12 13  1  0
 13 14  2  0
 14 15  1  0
 15 16  2  0
 15 17  2  0
 15 18  1  0
 18 19  1  0
 19 20  1  0
 20 21  1  0
 21 22  1  0
 22 23  1  0
 23 24  2  0
 23 25  1  0
 25 26  1  0
 26 27  2  0
 27 28  1  0
 28 29  2  0
 29 30  1  0
 30 31  2  0
 31 32  1  0
 22 33  1  0
 14 34  1  0
 34 35  2  0
  7  2  1  0
 35 11  1  0
 33 18  1  0
 31 26  1  0
  1 36  1  0
  1 37  1  0
  1 38  1  0
  3 39  1  0
  4 40  1  0
  5 41  1  0
  6 42  1  0
 12 43  1  0
 13 44  1  0
 19 45  1  0
 19 46  1  0
 20 47  1  0
 20 48  1  0
 21 49  1  0
 21 50  1  0
 22 51  1  6
 27 52  1  0
 28 53  1  0
 29 54  1  0
 30 55  1  0
 33 56  1  0
 33 57  1  0
 34 58  1  0
 35 59  1  0
M  CHG  3  10  -1  25  -1  32  -1
M  END
>  <UniqueID>  (67) 
62

>  <SMILES>  (67) 
Cc1ccccc1C(=O)[N-]c1ccc(S(=O)(=O)N2CCC[C@H](C(=O)[N-]c3ccccc3[O-])C2)cc1

>  <Energy>  (67) 
81.53245984211632

>  <Genealogy>  (67) 
Cc1ccccc1C(=O)[N-]c1ccc(S(=O)(=O)N2CCCC(C(=O)[N-]c3ccccc3[O-])C2)cc1 (protonated)
Cc1ccccc1C(=O)[N-]c1ccc(S(=O)(=O)N2CCC[C@H](C(=O)[N-]c3ccccc3[O-])C2)cc1 (chirality)
Cc1ccccc1C(=O)[N-]c1ccc(S(=O)(=O)N2CCC[C@H](C(=O)[N-]c3ccccc3[O-])C2)cc1 (3D coordinates assigned)
Cc1ccccc1C(=O)[N-]c1ccc(S(=O)(=O)N2CCC[C@H](C(=O)[N-]c3ccccc3[O-])C2)cc1 (nonaromatic ring conformer: 81.53245984211632 kcal/mol)

>  <smiles>  (67) 
Cc1ccccc1C(=O)Nc1ccc(S(=O)(=O)N2CCCC(C(=O)Nc3ccccc3O)C2)cc1

>  <score_type>  (67) 
oracle

>  <origin>  (67) 
adg

>  <m_score__min__energy>  (67) 
-17.59

>  <m_primary>  (67) 
energy

$$$$
67:0
     RDKit          3D

 65 69  0  0  0  0  0  0  0  0999 V2000
   59.8510   28.7870   44.8740 C   0  0  0  0  0  0  0  0  0  0  0  0
   58.5520   29.0780   44.7130 C   0  0  0  0  0  0  0  0  0  0  0  0
   57.4690   28.1870   44.6460 C   0  0  0  0  0  0  0  0  0  0  0  0
   57.4540   26.8440   44.5540 C   0  0  0  0  0  0  0  0  0  0  0  0
   57.0450   25.9180   45.6190 C   0  0  0  0  0  0  0  0  0  0  0  0
   57.9120   25.2140   46.3700 N   0  0  0  0  0  0  0  0  0  0  0  0
   57.1130   24.5950   47.2670 C   0  0  0  0  0  0  0  0  0  0  0  0
   57.5610   23.8160   48.1490 O   0  0  0  0  0  0  0  0  0  0  0  0
   55.7970   24.8810   47.1500 N   0  0  0  0  0  0  0  0  0  0  0  0
   55.7730   25.7300   46.1110 C   0  0  0  0  0  0  0  0  0  0  0  0
   54.6170   26.3400   45.6370 O   0  0  0  0  0  0  0  0  0  0  0  0
   56.3190   28.8930   44.6700 N   0  0  0  0  0  0  0  0  0  0  0  0
   56.7150   30.1780   44.7030 C   0  0  0  0  0  0  0  0  0  0  0  0
   55.8980   31.1370   44.7270 O   0  0  0  0  0  0  0  0  0  0  0  0
   58.0540   30.3370   44.7170 N   0  0  0  0  0  0  0  0  0  0  0  0
   58.7740   31.6100   44.8620 C   0  0  0  0  0  0  0  0  0  0  0  0
   59.1240   31.8630   46.3060 C   0  0  0  0  0  0  0  0  0  0  0  0
   60.3630   31.4620   46.8240 C   0  0  0  0  0  0  0  0  0  0  0  0
   60.6670   31.6680   48.1730 C   0  0  0  0  0  0  0  0  0  0  0  0
   59.7440   32.2940   49.0310 C   0  0  0  0  0  0  0  0  0  0  0  0
   60.1000   32.4630   50.4710 C   0  0  0  0  0  0  0  0  0  0  0  0
   61.1700   33.0740   50.7440 O   0  0  0  0  0  0  0  0  0  0  0  0
   59.2860   31.9710   51.5700 N   0  0  2  0  0  0  0  0  0  0  0  0
   59.1500   30.4900   51.5210 C   0  0  0  0  0  0  0  0  0  0  0  0
   57.8200   29.9800   52.1100 C   0  0  0  0  0  0  0  0  0  0  0  0
   57.4150   30.8140   53.3440 C   0  0  2  0  0  0  0  0  0  0  0  0
   56.1820   30.3320   54.0240 N   0  0  0  0  0  0  0  0  0  0  0  0
   54.8800   30.5480   53.3490 C   0  0  0  0  0  0  0  0  0  0  0  0
   54.4330   29.3420   52.5040 C   0  0  0  0  0  0  0  0  0  0  0  0
   54.5010   28.0440   53.3080 C   0  0  0  0  0  0  0  0  0  0  0  0
   55.8960   27.8490   53.9030 C   0  0  0  0  0  0  0  0  0  0  0  0
   56.2870   29.0560   54.7630 C   0  0  0  0  0  0  0  0  0  0  0  0
   57.2650   32.3140   52.9860 C   0  0  0  0  0  0  0  0  0  0  0  0
   58.0000   32.6960   51.6870 C   0  0  0  0  0  0  0  0  0  0  0  0
   58.5030   32.6990   48.5030 C   0  0  0  0  0  0  0  0  0  0  0  0
   58.1990   32.4870   47.1540 C   0  0  0  0  0  0  0  0  0  0  0  0
   60.5957   29.5959   44.9084 H   0  0  0  0  0  0  0  0  0  0  0  0
   60.1720   27.7394   44.9716 H   0  0  0  0  0  0  0  0  0  0  0  0
   57.7756   26.4019   43.5995 H   0  0  0  0  0  0  0  0  0  0  0  0
   59.6989   31.5714   44.2678 H   0  0  0  0  0  0  0  0  0  0  0  0
   58.1260   32.4250   44.5073 H   0  0  0  0  0  0  0  0  0  0  0  0
   61.1012   30.9820   46.1648 H   0  0  0  0  0  0  0  0  0  0  0  0
   61.6387   31.3370   48.5681 H   0  0  0  0  0  0  0  0  0  0  0  0
   59.8150   32.1940   52.4480 H   0  0  0  0  0  0  0  0  0  0  0  0
   59.2131   30.1682   50.4710 H   0  0  0  0  0  0  0  0  0  0  0  0
   59.9606   30.0680   52.1333 H   0  0  0  0  0  0  0  0  0  0  0  0
   57.0326   30.0595   51.3460 H   0  0  0  0  0  0  0  0  0  0  0  0
   57.9482   28.9318   52.4179 H   0  0  0  0  0  0  0  0  0  0  0  0
   58.2410   30.6845   54.0588 H   0  0  0  0  0  0  0  0  0  0  0  0
   54.1155   30.7413   54.1159 H   0  0  0  0  0  0  0  0  0  0  0  0
   55.0014   31.4014   52.6657 H   0  0  0  0  0  0  0  0  0  0  0  0
   53.3973   29.5027   52.1702 H   0  0  0  0  0  0  0  0  0  0  0  0
   55.1105   29.2521   51.6421 H   0  0  0  0  0  0  0  0  0  0  0  0
   53.7634   28.0851   54.1230 H   0  0  0  0  0  0  0  0  0  0  0  0
   54.2818   27.2005   52.6368 H   0  0  0  0  0  0  0  0  0  0  0  0
   55.8998   26.9434   54.5274 H   0  0  0  0  0  0  0  0  0  0  0  0
   56.6214   27.7473   53.0824 H   0  0  0  0  0  0  0  0  0  0  0  0
   55.6203   29.0980   55.6369 H   0  0  0  0  0  0  0  0  0  0  0  0
   57.3374   28.9277   55.0633 H   0  0  0  0  0  0  0  0  0  0  0  0
   56.1955   32.5406   52.8639 H   0  0  0  0  0  0  0  0  0  0  0  0
   57.7156   32.8955   53.8038 H   0  0  0  0  0  0  0  0  0  0  0  0
   57.3643   32.4414   50.8262 H   0  0  0  0  0  0  0  0  0  0  0  0
   58.2080   33.7760   51.7075 H   0  0  0  0  0  0  0  0  0  0  0  0
   57.7656   33.1867   49.1575 H   0  0  0  0  0  0  0  0  0  0  0  0
   57.2266   32.8125   46.7559 H   0  0  0  0  0  0  0  0  0  0  0  0
  1  2  2  0
  2  3  1  0
  3  4  2  3
  4  5  1  0
  5  6  1  0
  6  7  1  0
  7  8  2  0
  7  9  1  0
  9 10  1  0
 10 11  1  0
  3 12  1  0
 12 13  1  0
 13 14  2  0
 13 15  1  0
 15 16  1  0
 16 17  1  0
 17 18  2  0
 18 19  1  0
 19 20  2  0
 20 21  1  0
 21 22  2  0
 21 23  1  0
 23 24  1  0
 24 25  1  0
 25 26  1  0
 26 27  1  0
 27 28  1  0
 28 29  1  0
 29 30  1  0
 30 31  1  0
 31 32  1  0
 26 33  1  0
 33 34  1  0
 20 35  1  0
 35 36  2  0
 15  2  1  0
 36 17  1  0
 10  5  2  0
 34 23  1  0
 32 27  1  0
  1 37  1  0
  1 38  1  0
  4 39  1  0
 16 40  1  0
 16 41  1  0
 18 42  1  0
 19 43  1  0
 23 44  1  1
 24 45  1  0
 24 46  1  0
 25 47  1  0
 25 48  1  0
 26 49  1  1
 28 50  1  0
 28 51  1  0
 29 52  1  0
 29 53  1  0
 30 54  1  0
 30 55  1  0
 31 56  1  0
 31 57  1  0
 32 58  1  0
 32 59  1  0
 33 60  1  0
 33 61  1  0
 34 62  1  0
 34 63  1  0
 35 64  1  0
 36 65  1  0
M  CHG  5   6  -1   9  -1  11  -1  12  -1  23   1
M  END
>  <UniqueID>  (68) 
63

>  <SMILES>  (68) 
C=c1c(=Cc2[n-]c(=O)[n-]c2[O-])[n-]c(=O)n1Cc1ccc(C(=O)[NH+]2CCC(N3CCCCC3)CC2)cc1

>  <Energy>  (68) 
165.6318734931002

>  <Genealogy>  (68) 
C=c1c(=Cc2[n-]c(=O)[n-]c2[O-])[n-]c(=O)n1Cc1ccc(C(=O)[NH+]2CCC(N3CCCCC3)CC2)cc1 (protonated)
C=c1c(=Cc2[n-]c(=O)[n-]c2[O-])[n-]c(=O)n1Cc1ccc(C(=O)[NH+]2CCC(N3CCCCC3)CC2)cc1 (3D coordinates assigned)
C=c1c(=Cc2[n-]c(=O)[n-]c2[O-])[n-]c(=O)n1Cc1ccc(C(=O)[NH+]2CCC(N3CCCCC3)CC2)cc1 (nonaromatic ring conformer: 165.6318734931002 kcal/mol)

>  <smiles>  (68) 
C=c1c(=Cc2[nH]c(=O)[nH]c2O)[nH]c(=O)n1Cc1ccc(C(=O)N2CCC(N3CCCCC3)CC2)cc1

>  <score_type>  (68) 
oracle

>  <origin>  (68) 
adg

>  <m_score__min__energy>  (68) 
-18.41

>  <m_primary>  (68) 
energy

$$$$
68:0
     RDKit          3D

 64 66  0  0  0  0  0  0  0  0999 V2000
   61.9090   30.6270   49.7660 C   0  0  0  0  0  0  0  0  0  0  0  0
   60.9360   29.7440   49.5320 C   0  0  0  0  0  0  0  0  0  0  0  0
   60.4960   29.3240   48.1780 C   0  0  0  0  0  0  0  0  0  0  0  0
   60.5970   30.1610   47.0490 C   0  0  0  0  0  0  0  0  0  0  0  0
   60.1610   29.7180   45.7970 C   0  0  0  0  0  0  0  0  0  0  0  0
   59.6260   28.4300   45.6420 C   0  0  0  0  0  0  0  0  0  0  0  0
   59.1450   27.9510   44.2870 C   0  0  0  0  0  0  0  0  0  0  0  0
   57.6870   27.6550   44.2700 N   0  0  1  0  0  0  0  0  0  0  0  0
   57.4020   26.3250   44.8690 C   0  0  0  0  0  0  0  0  0  0  0  0
   56.3500   26.3980   45.9510 C   0  0  0  0  0  0  0  0  0  0  0  0
   56.6500   26.9680   47.0340 O   0  0  0  0  0  0  0  0  0  0  0  0
   55.0280   25.8470   45.8230 N   0  0  0  0  0  0  0  0  0  0  0  0
   54.5700   24.4800   45.5470 C   0  0  0  0  0  0  0  0  0  0  0  0
   53.0500   24.4020   45.3770 C   0  0  0  0  0  0  0  0  0  0  0  0
   55.1140   23.4650   46.5600 C   0  0  0  0  0  0  0  0  0  0  0  0
   56.8780   28.7300   44.9090 C   0  0  0  0  0  0  0  0  0  0  0  0
   57.1580   30.1260   44.3790 C   0  0  0  0  0  0  0  0  0  0  0  0
   57.1790   30.3770   42.9990 C   0  0  0  0  0  0  0  0  0  0  0  0
   57.4730   31.6540   42.5170 C   0  0  0  0  0  0  0  0  0  0  0  0
   57.7390   32.6970   43.4070 C   0  0  0  0  0  0  0  0  0  0  0  0
   57.6970   32.4710   44.7960 C   0  0  0  0  0  0  0  0  0  0  0  0
   57.9560   33.4810   45.7360 O   0  0  0  0  0  0  0  0  0  0  0  0
   58.2140   33.2680   47.1230 C   0  0  0  0  0  0  0  0  0  0  0  0
   59.6770   33.4560   47.4250 C   0  0  0  0  0  0  0  0  0  0  0  0
   60.0970   33.6930   48.7440 C   0  0  0  0  0  0  0  0  0  0  0  0
   61.4540   33.8750   49.0300 C   0  0  0  0  0  0  0  0  0  0  0  0
   62.3990   33.8160   48.0020 C   0  0  0  0  0  0  0  0  0  0  0  0
   61.9890   33.5860   46.6870 C   0  0  0  0  0  0  0  0  0  0  0  0
   60.6320   33.4110   46.3960 C   0  0  0  0  0  0  0  0  0  0  0  0
   57.3860   31.1910   45.2690 C   0  0  0  0  0  0  0  0  0  0  0  0
   59.4860   27.6110   46.7730 C   0  0  0  0  0  0  0  0  0  0  0  0
   59.9210   28.0520   48.0260 C   0  0  0  0  0  0  0  0  0  0  0  0
   62.1783   30.8875   50.8002 H   0  0  0  0  0  0  0  0  0  0  0  0
   62.4417   31.0943   48.9246 H   0  0  0  0  0  0  0  0  0  0  0  0
   60.4268   29.2983   50.3992 H   0  0  0  0  0  0  0  0  0  0  0  0
   61.0220   31.1702   47.1536 H   0  0  0  0  0  0  0  0  0  0  0  0
   60.2379   30.3849   44.9256 H   0  0  0  0  0  0  0  0  0  0  0  0
   59.3546   28.7327   43.5421 H   0  0  0  0  0  0  0  0  0  0  0  0
   59.6776   27.0169   44.0552 H   0  0  0  0  0  0  0  0  0  0  0  0
   57.3680   27.6140   43.2730 H   0  0  0  0  0  0  0  0  0  0  0  0
   57.0486   25.6485   44.0769 H   0  0  0  0  0  0  0  0  0  0  0  0
   58.3314   25.9557   45.3271 H   0  0  0  0  0  0  0  0  0  0  0  0
   54.9990   24.1922   44.5759 H   0  0  0  0  0  0  0  0  0  0  0  0
   52.5711   24.3774   46.3670 H   0  0  0  0  0  0  0  0  0  0  0  0
   52.6975   25.2832   44.8210 H   0  0  0  0  0  0  0  0  0  0  0  0
   52.7896   23.4893   44.8210 H   0  0  0  0  0  0  0  0  0  0  0  0
   54.9205   23.8261   47.5809 H   0  0  0  0  0  0  0  0  0  0  0  0
   54.6142   22.4962   46.4128 H   0  0  0  0  0  0  0  0  0  0  0  0
   56.1975   23.3448   46.4128 H   0  0  0  0  0  0  0  0  0  0  0  0
   55.8142   28.5055   44.7416 H   0  0  0  0  0  0  0  0  0  0  0  0
   57.1524   28.7380   45.9742 H   0  0  0  0  0  0  0  0  0  0  0  0
   56.9625   29.5625   42.2921 H   0  0  0  0  0  0  0  0  0  0  0  0
   57.4952   31.8392   41.4329 H   0  0  0  0  0  0  0  0  0  0  0  0
   57.9821   33.6982   43.0215 H   0  0  0  0  0  0  0  0  0  0  0  0
   57.6276   33.9867   47.7143 H   0  0  0  0  0  0  0  0  0  0  0  0
   57.9278   32.2382   47.3828 H   0  0  0  0  0  0  0  0  0  0  0  0
   59.3557   33.7357   49.5556 H   0  0  0  0  0  0  0  0  0  0  0  0
   61.7775   34.0646   50.0641 H   0  0  0  0  0  0  0  0  0  0  0  0
   63.4668   33.9509   48.2289 H   0  0  0  0  0  0  0  0  0  0  0  0
   62.7341   33.5424   45.8790 H   0  0  0  0  0  0  0  0  0  0  0  0
   60.3118   33.2376   45.3580 H   0  0  0  0  0  0  0  0  0  0  0  0
   57.3189   31.0153   46.3528 H   0  0  0  0  0  0  0  0  0  0  0  0
   59.0306   26.6147   46.6727 H   0  0  0  0  0  0  0  0  0  0  0  0
   59.8118   27.3958   48.9021 H   0  0  0  0  0  0  0  0  0  0  0  0
  1  2  2  0
  2  3  1  0
  3  4  2  0
  4  5  1  0
  5  6  2  0
  6  7  1  0
  7  8  1  0
  8  9  1  0
  9 10  1  0
 10 11  2  0
 10 12  1  0
 12 13  1  0
 13 14  1  0
 13 15  1  0
  8 16  1  0
 16 17  1  0
 17 18  2  0
 18 19  1  0
 19 20  2  0
 20 21  1  0
 21 22  1  0
 22 23  1  0
 23 24  1  0
 24 25  2  0
 25 26  1  0
 26 27  2  0
 27 28  1  0
 28 29  2  0
 21 30  2  0
  6 31  1  0
 31 32  2  0
 32  3  1  0
 30 17  1  0
 29 24  1  0
  1 33  1  0
  1 34  1  0
  2 35  1  0
  4 36  1  0
  5 37  1  0
  7 38  1  0
  7 39  1  0
  8 40  1  6
  9 41  1  0
  9 42  1  0
 13 43  1  0
 14 44  1  0
 14 45  1  0
 14 46  1  0
 15 47  1  0
 15 48  1  0
 15 49  1  0
 16 50  1  0
 16 51  1  0
 18 52  1  0
 19 53  1  0
 20 54  1  0
 23 55  1  0
 23 56  1  0
 25 57  1  0
 26 58  1  0
 27 59  1  0
 28 60  1  0
 29 61  1  0
 30 62  1  0
 31 63  1  0
 32 64  1  0
M  CHG  2   8   1  12  -1
M  END
>  <UniqueID>  (69) 
64

>  <SMILES>  (69) 
C=Cc1ccc(C[N@@H+](CC(=O)[N-]C(C)C)Cc2cccc(OCc3ccccc3)c2)cc1

>  <Energy>  (69) 
69.98708913610159

>  <Genealogy>  (69) 
C=Cc1ccc(C[NH+](CC(=O)[N-]C(C)C)Cc2cccc(OCc3ccccc3)c2)cc1 (protonated)
C=Cc1ccc(C[N@@H+](CC(=O)[N-]C(C)C)Cc2cccc(OCc3ccccc3)c2)cc1 (chirality)
C=Cc1ccc(C[N@@H+](CC(=O)[N-]C(C)C)Cc2cccc(OCc3ccccc3)c2)cc1 (3D coordinates assigned)
C=Cc1ccc(C[N@@H+](CC(=O)[N-]C(C)C)Cc2cccc(OCc3ccccc3)c2)cc1 (optimized conformer: 69.98708913610159 kcal/mol)

>  <smiles>  (69) 
C=Cc1ccc(CN(CC(=O)NC(C)C)Cc2cccc(OCc3ccccc3)c2)cc1

>  <score_type>  (69) 
oracle

>  <origin>  (69) 
adg

>  <m_score__min__energy>  (69) 
-8.75

>  <m_primary>  (69) 
energy

$$$$
69:0
     RDKit          3D

 43 45  0  0  1  0  0  0  0  0999 V2000
   55.9450   25.9940   45.9870 C   0  0  0  0  0  0  0  0  0  0  0  0
   56.4800   27.2580   45.7910 O   0  0  0  0  0  0  0  0  0  0  0  0
   57.7750   27.6580   45.7170 C   0  0  0  0  0  0  0  0  0  0  0  0
   58.7190   27.2090   46.6080 C   0  0  0  0  0  0  0  0  0  0  0  0
   60.0200   27.6510   46.4860 C   0  0  0  0  0  0  0  0  0  0  0  0
   60.3750   28.5360   45.4800 C   0  0  0  0  0  0  0  0  0  0  0  0
   59.4360   29.0070   44.5610 C   0  0  0  0  0  0  0  0  0  0  0  0
   58.1570   28.5500   44.7100 C   0  0  0  0  0  0  0  0  0  0  0  0
   57.0260   28.9640   43.7980 C   0  0  0  0  0  0  0  0  0  0  0  0
   56.8820   30.4470   43.8510 C   0  0  0  0  0  0  0  0  0  0  0  0
   56.0240   30.8900   44.6630 O   0  0  0  0  0  0  0  0  0  0  0  0
   57.6080   31.3570   43.0900 N   0  0  0  0  0  0  0  0  0  0  0  0
   57.7800   32.5640   43.3990 C   0  0  0  0  0  0  0  0  0  0  0  0
   58.3190   33.1040   44.6320 C   0  0  0  0  0  0  0  0  0  0  0  0
   58.8270   34.3450   44.7100 N   0  0  0  0  0  0  0  0  0  0  0  0
   59.3290   34.8120   45.8620 C   0  0  0  0  0  0  0  0  0  0  0  0
   59.8140   35.9920   45.9430 O   0  0  0  0  0  0  0  0  0  0  0  0
   59.3160   33.9820   46.9910 C   0  0  0  0  0  0  0  0  0  0  0  0
   58.7980   32.7090   46.9210 C   0  0  0  0  0  0  0  0  0  0  0  0
   58.7880   31.8380   48.0990 C   0  0  0  0  0  0  0  0  0  0  0  0
   58.5800   32.3370   49.3670 C   0  0  0  0  0  0  0  0  0  0  0  0
   58.5620   31.5190   50.4980 C   0  0  0  0  0  0  0  0  0  0  0  0
   58.7600   30.1490   50.3670 C   0  0  0  0  0  0  0  0  0  0  0  0
   58.9690   29.6360   49.1090 C   0  0  0  0  0  0  0  0  0  0  0  0
   58.9820   30.4770   47.9990 C   0  0  0  0  0  0  0  0  0  0  0  0
   58.3110   32.3010   45.7380 N   0  0  0  0  0  0  0  0  0  0  0  0
   55.8607   25.7947   47.0655 H   0  0  0  0  0  0  0  0  0  0  0  0
   54.9478   25.9423   45.5255 H   0  0  0  0  0  0  0  0  0  0  0  0
   56.6020   25.2421   45.5255 H   0  0  0  0  0  0  0  0  0  0  0  0
   58.4414   26.5067   47.4078 H   0  0  0  0  0  0  0  0  0  0  0  0
   60.7837   27.2975   47.1944 H   0  0  0  0  0  0  0  0  0  0  0  0
   61.4189   28.8743   45.4043 H   0  0  0  0  0  0  0  0  0  0  0  0
   59.7109   29.7086   43.7596 H   0  0  0  0  0  0  0  0  0  0  0  0
   57.2492   28.6512   42.7673 H   0  0  0  0  0  0  0  0  0  0  0  0
   56.0902   28.4865   44.1239 H   0  0  0  0  0  0  0  0  0  0  0  0
   57.4846   33.3022   42.6389 H   0  0  0  0  0  0  0  0  0  0  0  0
   59.7241   34.3519   47.9432 H   0  0  0  0  0  0  0  0  0  0  0  0
   58.4226   33.4185   49.4921 H   0  0  0  0  0  0  0  0  0  0  0  0
   58.3913   31.9579   51.4921 H   0  0  0  0  0  0  0  0  0  0  0  0
   58.7496   29.4915   51.2488 H   0  0  0  0  0  0  0  0  0  0  0  0
   59.1269   28.5553   48.9783 H   0  0  0  0  0  0  0  0  0  0  0  0
   59.1536   30.0385   47.0049 H   0  0  0  0  0  0  0  0  0  0  0  0
   57.9050   31.3680   45.6050 H   0  0  0  0  0  0  0  0  0  0  0  0
  1  2  1  0
  2  3  1  0
  3  4  2  0
  4  5  1  0
  5  6  2  0
  6  7  1  0
  7  8  2  0
  8  9  1  0
  9 10  1  0
 10 11  2  0
 10 12  1  0
 12 13  2  0
 13 14  1  0
 14 15  2  0
 15 16  1  0
 16 17  2  0
 16 18  1  0
 18 19  2  0
 19 20  1  0
 20 21  2  0
 21 22  1  0
 22 23  2  0
 23 24  1  0
 24 25  2  0
 19 26  1  0
  8  3  1  0
 26 14  1  0
 25 20  1  0
  1 27  1  0
  1 28  1  0
  1 29  1  0
  4 30  1  0
  5 31  1  0
  6 32  1  0
  7 33  1  0
  9 34  1  0
  9 35  1  0
 13 36  1  0
 18 37  1  0
 21 38  1  0
 22 39  1  0
 23 40  1  0
 24 41  1  0
 25 42  1  0
 26 43  1  0
M  END
>  <smiles>  (70) 
COc1ccccc1CC(=O)N=Cc1nc(=O)cc(-c2ccccc2)[nH]1

>  <score_type>  (70) 
oracle

>  <origin>  (70) 
adg

>  <m_score__min__energy>  (70) 
-8.0600000000000005

>  <m_primary>  (70) 
energy

$$$$
70:0
     RDKit          3D

 47 50  0  0  0  0  0  0  0  0999 V2000
   58.0170   32.1360   43.2990 O   0  0  0  0  0  0  0  0  0  0  0  0
   57.3340   32.1240   44.3580 C   0  0  0  0  0  0  0  0  0  0  0  0
   57.0360   33.4340   45.0420 C   0  0  0  0  0  0  0  0  0  0  0  0
   58.1490   33.7780   45.9970 C   0  0  0  0  0  0  0  0  0  0  0  0
   58.0500   33.4440   47.3600 C   0  0  0  0  0  0  0  0  0  0  0  0
   59.1150   33.7030   48.2290 C   0  0  0  0  0  0  0  0  0  0  0  0
   60.2910   34.2960   47.7440 C   0  0  0  0  0  0  0  0  0  0  0  0
   61.3630   34.5500   48.5980 O   0  0  0  0  0  0  0  0  0  0  0  0
   60.3930   34.6320   46.3880 C   0  0  0  0  0  0  0  0  0  0  0  0
   59.3310   34.3680   45.5160 C   0  0  0  0  0  0  0  0  0  0  0  0
   57.0130   30.8570   44.9550 N   0  0  0  0  0  0  0  0  0  0  0  0
   57.7920   30.1190   45.6890 C   0  0  0  0  0  0  0  0  0  0  0  0
   58.8220   30.7000   46.3520 N   0  0  0  0  0  0  0  0  0  0  0  0
   59.6860   29.9740   47.1150 C   0  0  0  0  0  0  0  0  0  0  0  0
   60.7990   30.6660   47.8160 C   0  0  0  0  0  0  0  0  0  0  0  0
   60.8230   30.7090   49.2230 C   0  0  0  0  0  0  0  0  0  0  0  0
   61.8630   31.3580   49.8970 C   0  0  0  0  0  0  0  0  0  0  0  0
   62.8930   31.9700   49.1770 C   0  0  0  0  0  0  0  0  0  0  0  0
   63.9200   32.6200   49.8490 O   0  0  0  0  0  0  0  0  0  0  0  0
   62.8870   31.9260   47.7810 C   0  0  0  0  0  0  0  0  0  0  0  0
   61.8530   31.2750   47.1020 C   0  0  0  0  0  0  0  0  0  0  0  0
   59.5170   28.5810   47.1930 C   0  0  0  0  0  0  0  0  0  0  0  0
   58.4460   27.9860   46.5070 C   0  0  0  0  0  0  0  0  0  0  0  0
   58.2160   26.5190   46.5330 C   0  0  0  0  0  0  0  0  0  0  0  0
   59.1330   25.6210   45.9500 C   0  0  0  0  0  0  0  0  0  0  0  0
   58.8940   24.2420   45.9820 C   0  0  0  0  0  0  0  0  0  0  0  0
   57.7440   23.7450   46.5990 C   0  0  0  0  0  0  0  0  0  0  0  0
   57.5060   22.3760   46.6240 O   0  0  0  0  0  0  0  0  0  0  0  0
   56.8340   24.6230   47.1900 C   0  0  0  0  0  0  0  0  0  0  0  0
   57.0680   26.0010   47.1620 C   0  0  0  0  0  0  0  0  0  0  0  0
   57.6200   28.7740   45.7680 N   0  0  0  0  0  0  0  0  0  0  0  0
   56.9455   34.2280   44.2861 H   0  0  0  0  0  0  0  0  0  0  0  0
   56.0932   33.3444   45.6015 H   0  0  0  0  0  0  0  0  0  0  0  0
   57.1310   32.9771   47.7440 H   0  0  0  0  0  0  0  0  0  0  0  0
   59.0307   33.4415   49.2941 H   0  0  0  0  0  0  0  0  0  0  0  0
   61.9990   33.8140   48.8890 H   0  0  0  0  0  0  0  0  0  0  0  0
   61.3105   35.1047   46.0076 H   0  0  0  0  0  0  0  0  0  0  0  0
   59.4213   34.6231   44.4498 H   0  0  0  0  0  0  0  0  0  0  0  0
   60.0173   30.2283   49.7972 H   0  0  0  0  0  0  0  0  0  0  0  0
   61.8702   31.3868   50.9966 H   0  0  0  0  0  0  0  0  0  0  0  0
   63.6987   32.4052   47.2140 H   0  0  0  0  0  0  0  0  0  0  0  0
   61.8609   31.2371   46.0027 H   0  0  0  0  0  0  0  0  0  0  0  0
   60.2131   27.9662   47.7825 H   0  0  0  0  0  0  0  0  0  0  0  0
   60.0427   26.0065   45.4665 H   0  0  0  0  0  0  0  0  0  0  0  0
   59.6130   23.5490   45.5206 H   0  0  0  0  0  0  0  0  0  0  0  0
   55.9305   24.2297   47.6790 H   0  0  0  0  0  0  0  0  0  0  0  0
   56.3492   26.6861   47.6353 H   0  0  0  0  0  0  0  0  0  0  0  0
  1  2  2  0
  2  3  1  0
  3  4  1  0
  4  5  2  0
  5  6  1  0
  6  7  2  0
  7  8  1  0
  7  9  1  0
  9 10  2  0
  2 11  1  0
 11 12  2  3
 12 13  1  0
 13 14  2  0
 14 15  1  0
 15 16  2  0
 16 17  1  0
 17 18  2  0
 18 19  1  0
 18 20  1  0
 20 21  2  0
 14 22  1  0
 22 23  2  0
 23 24  1  0
 24 25  2  0
 25 26  1  0
 26 27  2  0
 27 28  1  0
 27 29  1  0
 29 30  2  0
 23 31  1  0
 10  4  1  0
 31 12  1  0
 21 15  1  0
 30 24  1  0
  3 32  1  0
  3 33  1  0
  5 34  1  0
  6 35  1  0
  8 36  1  0
  9 37  1  0
 10 38  1  0
 16 39  1  0
 17 40  1  0
 20 41  1  0
 21 42  1  0
 22 43  1  0
 25 44  1  0
 26 45  1  0
 29 46  1  0
 30 47  1  0
M  CHG  3  19  -1  28  -1  31  -1
M  END
>  <UniqueID>  (71) 
65

>  <SMILES>  (71) 
O=C(Cc1ccc(O)cc1)N=c1nc(-c2ccc([O-])cc2)cc(-c2ccc([O-])cc2)[n-]1

>  <Energy>  (71) 
64.29300877603792

>  <Genealogy>  (71) 
O=C(Cc1ccc(O)cc1)N=c1nc(-c2ccc([O-])cc2)cc(-c2ccc([O-])cc2)[n-]1 (protonated)
O=C(Cc1ccc(O)cc1)N=c1nc(-c2ccc([O-])cc2)cc(-c2ccc([O-])cc2)[n-]1 (3D coordinates assigned)
O=C(Cc1ccc(O)cc1)N=c1nc(-c2ccc([O-])cc2)cc(-c2ccc([O-])cc2)[n-]1 (optimized conformer: 64.29300877603792 kcal/mol)

>  <smiles>  (71) 
O=C(Cc1ccc(O)cc1)N=c1nc(-c2ccc(O)cc2)cc(-c2ccc(O)cc2)[nH]1

>  <score_type>  (71) 
oracle

>  <origin>  (71) 
adg

>  <m_score__min__energy>  (71) 
-12.15

>  <m_primary>  (71) 
energy

$$$$
71:0
     RDKit          3D

 49 51  0  0  0  0  0  0  0  0999 V2000
   61.0220   29.6050   45.5050 H   0  0  0  0  0  0  0  0  0  0  0  0
   60.4210   29.9300   46.2520 O   0  0  0  0  0  0  0  0  0  0  0  0
   60.7820   29.8600   47.5830 N   0  0  0  0  0  0  0  0  0  0  0  0
   60.7550   30.8660   48.4120 C   0  0  0  0  0  0  0  0  0  0  0  0
   59.6550   31.0440   49.3840 C   0  0  0  0  0  0  0  0  0  0  0  0
   59.1490   32.3200   49.6930 C   0  0  0  0  0  0  0  0  0  0  0  0
   59.7060   33.4550   49.0850 O   0  0  0  0  0  0  0  0  0  0  0  0
   59.5070   33.8360   47.7510 C   0  0  0  0  0  0  0  0  0  0  0  0
   59.9350   35.1040   47.3470 C   0  0  0  0  0  0  0  0  0  0  0  0
   60.4120   35.7773   48.0744 H   0  0  0  0  0  0  0  0  0  0  0  0
   59.7610   35.5210   46.0270 C   0  0  0  0  0  0  0  0  0  0  0  0
   60.0911   36.5247   45.7210 H   0  0  0  0  0  0  0  0  0  0  0  0
   59.1690   34.6680   45.0930 C   0  0  0  0  0  0  0  0  0  0  0  0
   59.0280   35.0062   44.0558 H   0  0  0  0  0  0  0  0  0  0  0  0
   58.7520   33.3790   45.4710 C   0  0  0  0  0  0  0  0  0  0  0  0
   58.1400   32.4630   44.4750 C   0  0  0  0  0  0  0  0  0  0  0  0
   58.0980   32.8150   43.1140 C   0  0  0  0  0  0  0  0  0  0  0  0
   58.5307   33.7708   42.7837 H   0  0  0  0  0  0  0  0  0  0  0  0
   57.5110   31.9600   42.1790 C   0  0  0  0  0  0  0  0  0  0  0  0
   57.4785   32.2475   41.1177 H   0  0  0  0  0  0  0  0  0  0  0  0
   56.9650   30.7410   42.5870 C   0  0  0  0  0  0  0  0  0  0  0  0
   56.4968   30.0748   41.8475 H   0  0  0  0  0  0  0  0  0  0  0  0
   57.0120   30.3640   43.9370 C   0  0  0  0  0  0  0  0  0  0  0  0
   56.3970   29.0670   44.3830 C   0  0  0  0  0  0  0  0  0  0  0  0
   56.1387   28.4641   43.4999 H   0  0  0  0  0  0  0  0  0  0  0  0
   57.1189   28.5227   45.0095 H   0  0  0  0  0  0  0  0  0  0  0  0
   55.2370   29.3160   45.1300 O   0  0  0  0  0  0  0  0  0  0  0  0
   55.5340   29.7130   45.9900 H   0  0  0  0  0  0  0  0  0  0  0  0
   57.5890   31.2320   44.8770 C   0  0  0  0  0  0  0  0  0  0  0  0
   57.6108   30.9471   45.9392 H   0  0  0  0  0  0  0  0  0  0  0  0
   58.9300   32.9680   46.8050 C   0  0  0  0  0  0  0  0  0  0  0  0
   58.6154   31.9594   47.1112 H   0  0  0  0  0  0  0  0  0  0  0  0
   58.1540   32.4450   50.6160 N   0  0  0  0  0  0  0  0  0  0  0  0
   57.6210   31.3710   51.2540 C   0  0  0  0  0  0  0  0  0  0  0  0
   56.8085   31.5109   51.9822 H   0  0  0  0  0  0  0  0  0  0  0  0
   58.1050   30.0890   50.9850 C   0  0  0  0  0  0  0  0  0  0  0  0
   57.6829   29.2151   51.5029 H   0  0  0  0  0  0  0  0  0  0  0  0
   59.1300   29.9290   50.0520 C   0  0  0  0  0  0  0  0  0  0  0  0
   59.5272   28.9253   49.8401 H   0  0  0  0  0  0  0  0  0  0  0  0
   61.8190   31.8280   48.3950 N   0  0  0  0  0  0  0  0  0  0  0  0
   61.7640   32.6430   49.0490 H   0  0  0  0  0  0  0  0  0  0  0  0
   62.9580   31.7060   47.4840 C   0  0  0  0  0  0  0  0  0  0  0  0
   62.6040   31.3233   46.5154 H   0  0  0  0  0  0  0  0  0  0  0  0
   63.6889   31.0148   47.9289 H   0  0  0  0  0  0  0  0  0  0  0  0
   63.6260   33.0360   47.2720 C   0  0  0  0  0  0  0  0  0  0  0  0
   64.5116   33.2942   47.8713 H   0  0  0  0  0  0  0  0  0  0  0  0
   63.1690   33.9110   46.3730 C   0  0  0  0  0  0  0  0  0  0  0  0
   63.6771   34.8773   46.2383 H   0  0  0  0  0  0  0  0  0  0  0  0
   62.2844   33.6656   45.7670 H   0  0  0  0  0  0  0  0  0  0  0  0
  1  2  1  0
  2  3  1  0
  3  4  2  0
  4  5  1  0
  5  6  2  0
  6  7  1  0
  7  8  1  0
  8  9  2  0
  9 10  1  0
  9 11  1  0
 11 12  1  0
 11 13  2  0
 13 14  1  0
 13 15  1  0
 15 16  1  0
 16 17  2  0
 17 18  1  0
 17 19  1  0
 19 20  1  0
 19 21  2  0
 21 22  1  0
 21 23  1  0
 23 24  1  0
 24 25  1  0
 24 26  1  0
 24 27  1  0
 27 28  1  0
 23 29  2  0
 29 30  1  0
 15 31  2  0
 31 32  1  0
  6 33  1  0
 33 34  2  0
 34 35  1  0
 34 36  1  0
 36 37  1  0
 36 38  2  0
 38 39  1  0
  4 40  1  0
 40 41  1  0
 40 42  1  0
 42 43  1  0
 42 44  1  0
 42 45  1  0
 45 46  1  0
 45 47  2  0
 47 48  1  0
 47 49  1  0
 38  5  1  0
 31  8  1  0
 29 16  1  0
M  END
>  <UniqueID>  (72) 
66

>  <SMILES>  (72) 
C=CCN/C(=N/O)c1cccnc1Oc1cccc(-c2cccc(CO)c2)c1

>  <Energy>  (72) 
64.40936558445586

>  <Genealogy>  (72) 
C=CCN/C(=N/O)c1cccnc1Oc1cccc(-c2cccc(CO)c2)c1 (cis-trans isomerization)
C=CCN/C(=N/O)c1cccnc1Oc1cccc(-c2cccc(CO)c2)c1 (3D coordinates assigned)
C=CCN/C(=N/O)c1cccnc1Oc1cccc(-c2cccc(CO)c2)c1 (optimized conformer: 64.40936558445586 kcal/mol)

>  <smiles>  (72) 
C=CCNC(=NO)c1cccnc1Oc1cccc(-c2cccc(CO)c2)c1

>  <score_type>  (72) 
oracle

>  <origin>  (72) 
adg

>  <m_score__min__energy>  (72) 
-9.9900000000000002

>  <m_primary>  (72) 
energy

$$$$
72:0
     RDKit          3D

 51 54  0  0  0  0  0  0  0  0999 V2000
   55.1990   29.3380   44.7790 N   0  0  0  0  0  0  0  0  0  0  0  0
   56.6230   29.4280   44.8120 C   0  0  0  0  0  0  0  0  0  0  0  0
   57.3040   28.3680   44.8510 O   0  0  0  0  0  0  0  0  0  0  0  0
   57.2950   30.7500   44.8000 C   0  0  0  0  0  0  0  0  0  0  0  0
   57.5360   31.4180   43.5870 C   0  0  0  0  0  0  0  0  0  0  0  0
   58.1570   32.6680   43.5790 C   0  0  0  0  0  0  0  0  0  0  0  0
   58.5490   33.2660   44.7770 C   0  0  0  0  0  0  0  0  0  0  0  0
   58.3330   32.6140   46.0020 C   0  0  0  0  0  0  0  0  0  0  0  0
   58.7330   33.2430   47.2350 N   0  0  0  0  0  0  0  0  0  0  0  0
   58.6320   32.6370   48.5470 C   0  0  0  0  0  0  0  0  0  0  0  0
   59.3060   33.6390   49.5020 C   0  0  0  0  0  0  0  0  0  0  0  0
   60.0430   34.6340   48.6830 N   0  0  1  0  0  0  0  0  0  0  0  0
   61.5020   34.3720   48.7030 C   0  0  0  0  0  0  0  0  0  0  0  0
   61.9160   33.4610   49.8740 C   0  0  0  0  0  0  0  0  0  0  0  0
   62.9990   32.5380   49.4560 N   0  0  0  0  0  0  0  0  0  0  0  0
   63.2640   32.5440   48.0000 C   0  0  0  0  0  0  0  0  0  0  0  0
   62.1000   31.9710   47.1700 C   0  0  0  0  0  0  0  0  0  0  0  0
   61.4150   30.8020   47.8330 C   0  0  0  0  0  0  0  0  0  0  0  0
   60.4340   30.0970   47.1190 C   0  0  0  0  0  0  0  0  0  0  0  0
   59.7500   29.0370   47.7170 C   0  0  0  0  0  0  0  0  0  0  0  0
   60.0370   28.6720   49.0320 C   0  0  0  0  0  0  0  0  0  0  0  0
   61.0090   29.3680   49.7580 C   0  0  0  0  0  0  0  0  0  0  0  0
   61.2860   28.9820   51.0290 F   0  0  0  0  0  0  0  0  0  0  0  0
   61.6910   30.4500   49.1720 C   0  0  0  0  0  0  0  0  0  0  0  0
   62.7850   31.1580   49.9350 C   0  0  0  0  0  0  0  0  0  0  0  0
   59.4980   34.4260   47.3760 C   0  0  0  0  0  0  0  0  0  0  0  0
   59.5990   35.2830   46.4560 O   0  0  0  0  0  0  0  0  0  0  0  0
   57.6970   31.3580   46.0040 C   0  0  0  0  0  0  0  0  0  0  0  0
   54.6410   29.3430   45.6620 H   0  0  0  0  0  0  0  0  0  0  0  0
   57.2331   30.9525   42.6375 H   0  0  0  0  0  0  0  0  0  0  0  0
   58.3381   33.1837   42.6244 H   0  0  0  0  0  0  0  0  0  0  0  0
   59.0305   34.2549   44.7620 H   0  0  0  0  0  0  0  0  0  0  0  0
   57.5779   32.4881   48.8239 H   0  0  0  0  0  0  0  0  0  0  0  0
   59.1100   31.6469   48.5826 H   0  0  0  0  0  0  0  0  0  0  0  0
   58.5420   34.1478   50.1082 H   0  0  0  0  0  0  0  0  0  0  0  0
   59.9979   33.1146   50.1776 H   0  0  0  0  0  0  0  0  0  0  0  0
   59.8290   35.6030   49.0170 H   0  0  0  0  0  0  0  0  0  0  0  0
   61.7871   33.8856   47.7584 H   0  0  0  0  0  0  0  0  0  0  0  0
   62.0156   35.3366   48.8290 H   0  0  0  0  0  0  0  0  0  0  0  0
   62.2724   34.0831   50.7082 H   0  0  0  0  0  0  0  0  0  0  0  0
   61.0447   32.8679   50.1887 H   0  0  0  0  0  0  0  0  0  0  0  0
   63.4433   33.5815   47.6814 H   0  0  0  0  0  0  0  0  0  0  0  0
   64.1390   31.9011   47.8240 H   0  0  0  0  0  0  0  0  0  0  0  0
   61.3578   32.7675   47.0126 H   0  0  0  0  0  0  0  0  0  0  0  0
   62.5232   31.6067   46.2223 H   0  0  0  0  0  0  0  0  0  0  0  0
   60.2025   30.3813   46.0819 H   0  0  0  0  0  0  0  0  0  0  0  0
   58.9833   28.4887   47.1499 H   0  0  0  0  0  0  0  0  0  0  0  0
   59.4977   27.8349   49.4993 H   0  0  0  0  0  0  0  0  0  0  0  0
   62.5092   31.1917   50.9993 H   0  0  0  0  0  0  0  0  0  0  0  0
   63.7196   30.5991   49.7798 H   0  0  0  0  0  0  0  0  0  0  0  0
   57.5118   30.8450   46.9593 H   0  0  0  0  0  0  0  0  0  0  0  0
  1  2  1  0
  2  3  2  0
  2  4  1  0
  4  5  2  0
  5  6  1  0
  6  7  2  0
  7  8  1  0
  8  9  1  0
  9 10  1  0
 10 11  1  0
 11 12  1  0
 12 13  1  0
 13 14  1  0
 14 15  1  0
 15 16  1  0
 16 17  1  0
 17 18  1  0
 18 19  2  0
 19 20  1  0
 20 21  2  0
 21 22  1  0
 22 23  1  0
 22 24  2  0
 24 25  1  0
 12 26  1  0
 26 27  2  0
  8 28  2  0
 28  4  1  0
 26  9  1  0
 25 15  1  0
 24 18  1  0
  1 29  1  0
  5 30  1  0
  6 31  1  0
  7 32  1  0
 10 33  1  0
 10 34  1  0
 11 35  1  0
 11 36  1  0
 12 37  1  1
 13 38  1  0
 13 39  1  0
 14 40  1  0
 14 41  1  0
 16 42  1  0
 16 43  1  0
 17 44  1  0
 17 45  1  0
 19 46  1  0
 20 47  1  0
 21 48  1  0
 25 49  1  0
 25 50  1  0
 28 51  1  0
M  CHG  2   1  -1  12   1
M  END
>  <UniqueID>  (73) 
67

>  <SMILES>  (73) 
[NH-]C(=O)c1cccc(N2CC[N@@H+](CCN3CCc4cccc(F)c4C3)C2=O)c1

>  <Energy>  (73) 
76.63338640121516

>  <Genealogy>  (73) 
[NH-]C(=O)c1cccc(N2CC[NH+](CCN3CCc4cccc(F)c4C3)C2=O)c1 (protonated)
[NH-]C(=O)c1cccc(N2CC[N@@H+](CCN3CCc4cccc(F)c4C3)C2=O)c1 (chirality)
[NH-]C(=O)c1cccc(N2CC[N@@H+](CCN3CCc4cccc(F)c4C3)C2=O)c1 (3D coordinates assigned)
[NH-]C(=O)c1cccc(N2CC[N@@H+](CCN3CCc4cccc(F)c4C3)C2=O)c1 (nonaromatic ring conformer: 76.63338640121516 kcal/mol)

>  <smiles>  (73) 
NC(=O)c1cccc(N2CCN(CCN3CCc4cccc(F)c4C3)C2=O)c1

>  <score_type>  (73) 
oracle

>  <origin>  (73) 
adg

>  <m_score__min__energy>  (73) 
-11.31

>  <m_primary>  (73) 
energy

$$$$
73:0
     RDKit          3D

 38 39  0  0  0  0  0  0  0  0999 V2000
   64.1587   33.7445   46.6506 H   0  0  0  0  0  0  0  0  0  0  0  0
   63.4850   33.3550   47.4280 C   0  0  0  0  0  0  0  0  0  0  0  0
   63.8068   33.3445   48.4798 H   0  0  0  0  0  0  0  0  0  0  0  0
   62.2770   32.8950   47.0950 C   0  0  0  0  0  0  0  0  0  0  0  0
   61.9679   32.9113   46.0395 H   0  0  0  0  0  0  0  0  0  0  0  0
   61.3290   32.3550   48.1300 C   0  0  0  0  0  0  0  0  0  0  0  0
   61.8345   31.5648   48.7046 H   0  0  0  0  0  0  0  0  0  0  0  0
   61.0265   33.1780   48.7942 H   0  0  0  0  0  0  0  0  0  0  0  0
   60.1320   31.7980   47.4990 N   0  0  0  0  0  0  0  0  0  0  0  0
   59.2590   32.4340   46.7700 C   0  0  0  0  0  0  0  0  0  0  0  0
   58.4980   31.7180   45.9000 N   0  0  0  0  0  0  0  0  0  0  0  0
   57.5450   32.2920   45.1130 C   0  0  0  0  0  0  0  0  0  0  0  0
   56.7460   31.4850   44.2340 N   0  0  0  0  0  0  0  0  0  0  0  0
   56.2390   31.9550   43.4500 H   0  0  0  0  0  0  0  0  0  0  0  0
   56.7560   30.0460   44.2620 C   0  0  0  0  0  0  0  0  0  0  0  0
   56.5400   29.3740   45.3660 N   0  0  0  0  0  0  0  0  0  0  0  0
   55.8030   29.7130   46.0260 H   0  0  0  0  0  0  0  0  0  0  0  0
   57.2330   28.1710   45.7400 C   0  0  0  0  0  0  0  0  0  0  0  0
   58.6370   28.1680   45.7550 C   0  0  0  0  0  0  0  0  0  0  0  0
   59.1891   29.0760   45.4710 H   0  0  0  0  0  0  0  0  0  0  0  0
   59.3370   27.0170   46.1290 C   0  0  0  0  0  0  0  0  0  0  0  0
   60.4367   27.0259   46.1521 H   0  0  0  0  0  0  0  0  0  0  0  0
   58.6420   25.8570   46.4730 C   0  0  0  0  0  0  0  0  0  0  0  0
   59.1940   24.9572   46.7823 H   0  0  0  0  0  0  0  0  0  0  0  0
   57.2450   25.8370   46.4250 C   0  0  0  0  0  0  0  0  0  0  0  0
   56.7001   24.9177   46.6857 H   0  0  0  0  0  0  0  0  0  0  0  0
   56.5380   26.9840   46.0460 C   0  0  0  0  0  0  0  0  0  0  0  0
   55.1520   26.9320   45.9600 O   0  0  0  0  0  0  0  0  0  0  0  0
   56.9350   29.3070   42.9720 C   0  0  0  0  0  0  0  0  0  0  0  0
   57.1892   28.2577   43.1827 H   0  0  0  0  0  0  0  0  0  0  0  0
   56.0008   29.3488   42.3928 H   0  0  0  0  0  0  0  0  0  0  0  0
   57.7466   29.7716   42.3928 H   0  0  0  0  0  0  0  0  0  0  0  0
   57.3440   33.6750   45.1700 C   0  0  0  0  0  0  0  0  0  0  0  0
   56.5901   34.1540   44.5279 H   0  0  0  0  0  0  0  0  0  0  0  0
   58.1090   34.4400   46.0490 C   0  0  0  0  0  0  0  0  0  0  0  0
   57.9564   35.5279   46.1051 H   0  0  0  0  0  0  0  0  0  0  0  0
   59.0680   33.8290   46.8580 C   0  0  0  0  0  0  0  0  0  0  0  0
   59.6689   34.4290   47.5572 H   0  0  0  0  0  0  0  0  0  0  0  0
  1  2  1  0
  2  3  1  0
  2  4  2  0
  4  5  1  0
  4  6  1  0
  6  7  1  0
  6  8  1  0
  6  9  1  0
  9 10  2  0
 10 11  1  0
 11 12  1  0
 12 13  1  0
 13 14  1  0
 13 15  1  0
 15 16  2  3
 16 17  1  0
 16 18  1  0
 18 19  2  0
 19 20  1  0
 19 21  1  0
 21 22  1  0
 21 23  2  0
 23 24  1  0
 23 25  1  0
 25 26  1  0
 25 27  2  0
 27 28  1  0
 15 29  1  0
 29 30  1  0
 29 31  1  0
 29 32  1  0
 12 33  2  0
 33 34  1  0
 33 35  1  0
 35 36  1  0
 35 37  2  0
 37 38  1  0
 37 10  1  0
 27 18  1  0
M  CHG  3  11  -1  16   1  28  -1
M  END
>  <UniqueID>  (74) 
68

>  <SMILES>  (74) 
C=CC/N=c1\cccc(NC(C)=[NH+]c2ccccc2[O-])[n-]1

>  <Energy>  (74) 
45.92197191621716

>  <Genealogy>  (74) 
C=CCN=c1cccc(NC(C)=[NH+]c2ccccc2[O-])[n-]1 (protonated)
C=CC/N=c1\cccc(NC(C)=[NH+]c2ccccc2[O-])[n-]1 (cis-trans isomerization)
C=CC/N=c1\cccc(NC(C)=[NH+]c2ccccc2[O-])[n-]1 (3D coordinates assigned)
C=CC/N=c1\cccc(NC(C)=[NH+]c2ccccc2[O-])[n-]1 (optimized conformer: 45.92197191621716 kcal/mol)

>  <smiles>  (74) 
C=CCN=c1cccc(NC(C)=Nc2ccccc2O)[nH]1

>  <score_type>  (74) 
oracle

>  <origin>  (74) 
adg

>  <m_score__min__energy>  (74) 
-10.15

>  <m_primary>  (74) 
energy

$$$$
74:0
     RDKit          3D

 66 70  0  0  0  0  0  0  0  0999 V2000
   59.5900   35.4410   45.5900 C   0  0  0  0  0  0  0  0  0  0  0  0
   59.4450   34.0300   46.0640 C   0  0  0  0  0  0  0  0  0  0  0  0
   60.0410   33.4630   47.1840 C   0  0  0  0  0  0  0  0  0  0  0  0
   59.7220   32.1480   47.2680 N   0  0  0  0  0  0  0  0  0  0  0  0
   60.1750   31.2170   48.3050 C   0  0  0  0  0  0  0  0  0  0  0  0
   59.1820   31.1200   49.4380 C   0  0  0  0  0  0  0  0  0  0  0  0
   59.1390   29.9890   50.2710 C   0  0  0  0  0  0  0  0  0  0  0  0
   58.1940   29.8970   51.2950 C   0  0  0  0  0  0  0  0  0  0  0  0
   57.3000   30.9500   51.5280 C   0  0  0  0  0  0  0  0  0  0  0  0
   56.2710   30.8410   52.6170 C   0  0  0  0  0  0  0  0  0  0  0  0
   54.9600   31.2420   52.1080 N   0  0  0  0  0  0  0  0  0  0  0  0
   53.9310   30.3000   51.7900 C   0  0  0  0  0  0  0  0  0  0  0  0
   54.1750   29.0630   51.8180 O   0  0  0  0  0  0  0  0  0  0  0  0
   52.6230   30.7880   51.4390 N   0  0  0  0  0  0  0  0  0  0  0  0
   51.7850   31.4060   52.2160 C   0  0  0  0  0  0  0  0  0  0  0  0
   51.2810   32.6270   51.8880 N   0  0  0  0  0  0  0  0  0  0  0  0
   50.3820   33.2560   52.6900 C   0  0  0  0  0  0  0  0  0  0  0  0
   49.9640   32.6480   53.8720 C   0  0  0  0  0  0  0  0  0  0  0  0
   50.5020   31.4070   54.2050 C   0  0  0  0  0  0  0  0  0  0  0  0
   51.3980   30.8110   53.3770 N   0  0  0  0  0  0  0  0  0  0  0  0
   57.3600   32.0960   50.7200 C   0  0  0  0  0  0  0  0  0  0  0  0
   58.2930   32.1790   49.6810 C   0  0  0  0  0  0  0  0  0  0  0  0
   58.9280   31.8850   46.2090 C   0  0  0  0  0  0  0  0  0  0  0  0
   58.3490   30.6640   45.8540 C   0  0  0  0  0  0  0  0  0  0  0  0
   57.5840   30.6030   44.6670 C   0  0  0  0  0  0  0  0  0  0  0  0
   56.9480   29.3280   44.2660 C   0  0  0  0  0  0  0  0  0  0  0  0
   56.9610   28.9560   43.0620 O   0  0  0  0  0  0  0  0  0  0  0  0
   56.2960   28.5230   45.2520 N   0  0  0  0  0  0  0  0  0  0  0  0
   56.9560   27.4750   46.0160 C   0  0  0  0  0  0  0  0  0  0  0  0
   56.7390   26.1290   45.3750 C   0  0  0  0  0  0  0  0  0  0  0  0
   57.5810   25.6530   44.3530 C   0  0  0  0  0  0  0  0  0  0  0  0
   57.3690   24.3910   43.7880 C   0  0  0  0  0  0  0  0  0  0  0  0
   56.2960   23.5920   44.2150 C   0  0  0  0  0  0  0  0  0  0  0  0
   56.0670   22.2640   43.6040 C   0  0  0  0  0  0  0  0  0  0  0  0
   55.9490   21.2390   44.3280 O   0  0  0  0  0  0  0  0  0  0  0  0
   55.9610   22.1340   42.2260 O   0  0  0  0  0  0  0  0  0  0  0  0
   55.4370   24.0790   45.2150 C   0  0  0  0  0  0  0  0  0  0  0  0
   55.6530   25.3390   45.7820 C   0  0  0  0  0  0  0  0  0  0  0  0
   57.4230   31.7730   43.8780 C   0  0  0  0  0  0  0  0  0  0  0  0
   58.0080   32.9900   44.2690 C   0  0  0  0  0  0  0  0  0  0  0  0
   58.7540   33.0090   45.4450 C   0  0  0  0  0  0  0  0  0  0  0  0
   59.6592   36.1139   46.4574 H   0  0  0  0  0  0  0  0  0  0  0  0
   60.5022   35.5316   44.9820 H   0  0  0  0  0  0  0  0  0  0  0  0
   58.7153   35.7153   44.9820 H   0  0  0  0  0  0  0  0  0  0  0  0
   60.6792   34.0030   47.8989 H   0  0  0  0  0  0  0  0  0  0  0  0
   60.3047   30.2204   47.8579 H   0  0  0  0  0  0  0  0  0  0  0  0
   61.1256   31.5920   48.7122 H   0  0  0  0  0  0  0  0  0  0  0  0
   59.8558   29.1693   50.1151 H   0  0  0  0  0  0  0  0  0  0  0  0
   58.1514   28.9938   51.9214 H   0  0  0  0  0  0  0  0  0  0  0  0
   56.2222   29.8001   52.9693 H   0  0  0  0  0  0  0  0  0  0  0  0
   56.5536   31.5033   53.4486 H   0  0  0  0  0  0  0  0  0  0  0  0
   54.7540   32.2630   52.0090 H   0  0  0  0  0  0  0  0  0  0  0  0
   49.9855   34.2422   52.4068 H   0  0  0  0  0  0  0  0  0  0  0  0
   49.2269   33.1363   54.5264 H   0  0  0  0  0  0  0  0  0  0  0  0
   50.2009   30.9098   55.1389 H   0  0  0  0  0  0  0  0  0  0  0  0
   56.6702   32.9327   50.9046 H   0  0  0  0  0  0  0  0  0  0  0  0
   58.3303   33.0796   49.0505 H   0  0  0  0  0  0  0  0  0  0  0  0
   58.4852   29.7719   46.4830 H   0  0  0  0  0  0  0  0  0  0  0  0
   58.0350   27.6846   46.0585 H   0  0  0  0  0  0  0  0  0  0  0  0
   56.5298   27.4558   47.0299 H   0  0  0  0  0  0  0  0  0  0  0  0
   58.4125   26.2782   43.9955 H   0  0  0  0  0  0  0  0  0  0  0  0
   58.0471   24.0222   43.0043 H   0  0  0  0  0  0  0  0  0  0  0  0
   54.5894   23.4652   45.5539 H   0  0  0  0  0  0  0  0  0  0  0  0
   54.9653   25.7143   46.5541 H   0  0  0  0  0  0  0  0  0  0  0  0
   56.8338   31.7263   42.9503 H   0  0  0  0  0  0  0  0  0  0  0  0
   57.8804   33.9000   43.6643 H   0  0  0  0  0  0  0  0  0  0  0  0
  1  2  1  0
  2  3  2  0
  3  4  1  0
  4  5  1  0
  5  6  1  0
  6  7  2  0
  7  8  1  0
  8  9  2  0
  9 10  1  0
 10 11  1  0
 11 12  1  0
 12 13  2  0
 12 14  1  0
 14 15  2  3
 15 16  1  0
 16 17  2  0
 17 18  1  0
 18 19  2  0
 19 20  1  0
  9 21  1  0
 21 22  2  0
  4 23  1  0
 23 24  2  0
 24 25  1  0
 25 26  1  0
 26 27  2  0
 26 28  1  0
 28 29  1  0
 29 30  1  0
 30 31  2  0
 31 32  1  0
 32 33  2  0
 33 34  1  0
 34 35  2  0
 34 36  1  0
 33 37  1  0
 37 38  2  0
 25 39  2  0
 39 40  1  0
 40 41  2  0
 41  2  1  0
 22  6  1  0
 41 23  1  0
 20 15  1  0
 38 30  1  0
  1 42  1  0
  1 43  1  0
  1 44  1  0
  3 45  1  0
  5 46  1  0
  5 47  1  0
  7 48  1  0
  8 49  1  0
 10 50  1  0
 10 51  1  0
 11 52  1  0
 17 53  1  0
 18 54  1  0
 19 55  1  0
 21 56  1  0
 22 57  1  0
 24 58  1  0
 29 59  1  0
 29 60  1  0
 31 61  1  0
 32 62  1  0
 37 63  1  0
 38 64  1  0
 39 65  1  0
 40 66  1  0
M  CHG  3  20  -1  28  -1  36  -1
M  END
>  <UniqueID>  (75) 
69

>  <SMILES>  (75) 
Cc1cn(Cc2ccc(CNC(=O)N=c3nccc[n-]3)cc2)c2cc(C(=O)[N-]Cc3ccc(C(=O)[O-])cc3)ccc12

>  <Energy>  (75) 
98.35052407940414

>  <Genealogy>  (75) 
Cc1cn(Cc2ccc(CNC(=O)N=c3nccc[n-]3)cc2)c2cc(C(=O)[N-]Cc3ccc(C(=O)[O-])cc3)ccc12 (protonated)
Cc1cn(Cc2ccc(CNC(=O)N=c3nccc[n-]3)cc2)c2cc(C(=O)[N-]Cc3ccc(C(=O)[O-])cc3)ccc12 (3D coordinates assigned)
Cc1cn(Cc2ccc(CNC(=O)N=c3nccc[n-]3)cc2)c2cc(C(=O)[N-]Cc3ccc(C(=O)[O-])cc3)ccc12 (optimized conformer: 98.35052407940414 kcal/mol)

>  <smiles>  (75) 
Cc1cn(Cc2ccc(CNC(=O)N=c3nccc[nH]3)cc2)c2cc(C(=O)NCc3ccc(C(=O)O)cc3)ccc12

>  <score_type>  (75) 
oracle

>  <origin>  (75) 
adg

>  <m_score__min__energy>  (75) 
-16.469999999999999

>  <m_primary>  (75) 
energy

$$$$
75:0
     RDKit          3D

 59 63  0  0  0  0  0  0  0  0999 V2000
   56.2600   30.0720   54.3900 O   0  0  0  0  0  0  0  0  0  0  0  0
   55.8730   30.2680   53.2040 C   0  0  0  0  0  0  0  0  0  0  0  0
   54.9620   29.2760   52.5540 C   0  0  0  0  0  0  0  0  0  0  0  0
   53.5270   29.6790   52.7650 C   0  0  0  0  0  0  0  0  0  0  0  0
   52.6790   28.8890   53.5560 C   0  0  0  0  0  0  0  0  0  0  0  0
   51.3360   29.2410   53.7150 C   0  0  0  0  0  0  0  0  0  0  0  0
   50.8240   30.3730   53.0730 C   0  0  0  0  0  0  0  0  0  0  0  0
   51.6530   31.1620   52.2540 C   0  0  0  0  0  0  0  0  0  0  0  0
   51.1060   32.3370   51.5370 C   0  0  0  0  0  0  0  0  0  0  0  0
   50.6750   33.3330   52.1770 O   0  0  0  0  0  0  0  0  0  0  0  0
   51.0550   32.3550   50.1470 O   0  0  0  0  0  0  0  0  0  0  0  0
   53.0060   30.8080   52.1070 C   0  0  0  0  0  0  0  0  0  0  0  0
   56.3130   31.4180   52.4670 N   0  0  0  0  0  0  0  0  0  0  0  0
   57.3040   31.4280   51.6270 C   0  0  0  0  0  0  0  0  0  0  0  0
   57.6930   30.3570   50.9030 N   0  0  0  0  0  0  0  0  0  0  0  0
   58.8010   30.6260   50.1630 C   0  0  0  0  0  0  0  0  0  0  0  0
   59.5090   29.5510   49.4000 C   0  0  0  0  0  0  0  0  0  0  0  0
   59.0200   29.5600   47.9850 C   0  0  0  0  0  0  0  0  0  0  0  0
   58.7250   28.3900   47.3610 N   0  0  0  0  0  0  0  0  0  0  0  0
   58.1870   28.3720   46.1160 C   0  0  0  0  0  0  0  0  0  0  0  0
   57.9350   27.2650   45.5710 O   0  0  0  0  0  0  0  0  0  0  0  0
   57.9080   29.5850   45.4570 C   0  0  0  0  0  0  0  0  0  0  0  0
   57.3180   29.6210   44.1840 C   0  0  0  0  0  0  0  0  0  0  0  0
   57.0290   30.8450   43.5820 C   0  0  0  0  0  0  0  0  0  0  0  0
   57.3300   32.0410   44.2330 C   0  0  0  0  0  0  0  0  0  0  0  0
   57.9390   32.0370   45.5010 C   0  0  0  0  0  0  0  0  0  0  0  0
   58.2660   33.3340   46.1480 C   0  0  0  0  0  0  0  0  0  0  0  0
   57.5090   34.3280   45.9790 O   0  0  0  0  0  0  0  0  0  0  0  0
   59.4520   33.4770   46.9340 N   0  0  0  0  0  0  0  0  0  0  0  0
   60.7730   33.6890   46.3590 C   0  0  0  0  0  0  0  0  0  0  0  0
   61.8100   33.6000   47.4430 C   0  0  0  0  0  0  0  0  0  0  0  0
   63.1100   33.1680   47.1380 C   0  0  0  0  0  0  0  0  0  0  0  0
   64.0850   33.0970   48.1370 C   0  0  0  0  0  0  0  0  0  0  0  0
   63.7670   33.4550   49.4520 C   0  0  0  0  0  0  0  0  0  0  0  0
   64.7160   33.3870   50.4190 F   0  0  0  0  0  0  0  0  0  0  0  0
   62.4740   33.8820   49.7660 C   0  0  0  0  0  0  0  0  0  0  0  0
   61.4970   33.9570   48.7670 C   0  0  0  0  0  0  0  0  0  0  0  0
   58.2210   30.7940   46.1190 C   0  0  0  0  0  0  0  0  0  0  0  0
   58.7570   30.7410   47.3680 N   0  0  0  0  0  0  0  0  0  0  0  0
   59.3080   31.9160   50.3110 C   0  0  0  0  0  0  0  0  0  0  0  0
   58.3240   32.7410   51.4010 S   0  0  0  0  0  0  0  0  0  0  0  0
   55.1749   29.2381   51.4755 H   0  0  0  0  0  0  0  0  0  0  0  0
   55.1284   28.2853   53.0022 H   0  0  0  0  0  0  0  0  0  0  0  0
   53.0726   27.9898   54.0525 H   0  0  0  0  0  0  0  0  0  0  0  0
   50.6793   28.6255   54.3474 H   0  0  0  0  0  0  0  0  0  0  0  0
   49.7677   30.6482   53.2089 H   0  0  0  0  0  0  0  0  0  0  0  0
   53.6632   31.4197   51.4715 H   0  0  0  0  0  0  0  0  0  0  0  0
   60.5928   29.7381   49.4176 H   0  0  0  0  0  0  0  0  0  0  0  0
   59.3060   28.5721   49.8588 H   0  0  0  0  0  0  0  0  0  0  0  0
   57.0833   28.6824   43.6606 H   0  0  0  0  0  0  0  0  0  0  0  0
   56.5605   30.8674   42.5870 H   0  0  0  0  0  0  0  0  0  0  0  0
   57.0883   32.9989   43.7492 H   0  0  0  0  0  0  0  0  0  0  0  0
   60.9701   32.9189   45.5986 H   0  0  0  0  0  0  0  0  0  0  0  0
   60.8147   34.6840   45.8918 H   0  0  0  0  0  0  0  0  0  0  0  0
   63.3633   32.8834   46.1061 H   0  0  0  0  0  0  0  0  0  0  0  0
   65.1024   32.7597   47.8896 H   0  0  0  0  0  0  0  0  0  0  0  0
   62.2237   34.1597   50.8005 H   0  0  0  0  0  0  0  0  0  0  0  0
   60.4811   34.2962   49.0179 H   0  0  0  0  0  0  0  0  0  0  0  0
   60.1953   32.3238   49.8046 H   0  0  0  0  0  0  0  0  0  0  0  0
  1  2  2  0
  2  3  1  0
  3  4  1  0
  4  5  2  0
  5  6  1  0
  6  7  2  0
  7  8  1  0
  8  9  1  0
  9 10  2  0
  9 11  1  0
  8 12  2  0
  2 13  1  0
 13 14  2  3
 14 15  1  0
 15 16  1  0
 16 17  1  0
 17 18  1  0
 18 19  2  0
 19 20  1  0
 20 21  2  0
 20 22  1  0
 22 23  2  0
 23 24  1  0
 24 25  2  0
 25 26  1  0
 26 27  1  0
 27 28  2  0
 27 29  1  0
 29 30  1  0
 30 31  1  0
 31 32  2  0
 32 33  1  0
 33 34  2  0
 34 35  1  0
 34 36  1  0
 36 37  2  0
 26 38  2  0
 38 39  1  0
 16 40  2  0
 40 41  1  0
 12  4  1  0
 41 14  1  0
 39 18  1  0
 38 22  1  0
 37 31  1  0
  3 42  1  0
  3 43  1  0
  5 44  1  0
  6 45  1  0
  7 46  1  0
 12 47  1  0
 17 48  1  0
 17 49  1  0
 23 50  1  0
 24 51  1  0
 25 52  1  0
 30 53  1  0
 30 54  1  0
 32 55  1  0
 33 56  1  0
 36 57  1  0
 37 58  1  0
 40 59  1  0
M  CHG  4  11  -1  15  -1  29  -1  39  -1
M  END
>  <UniqueID>  (76) 
70

>  <SMILES>  (76) 
O=C(Cc1cccc(C(=O)[O-])c1)N=c1[n-]c(Cc2nc(=O)c3cccc(C(=O)[N-]Cc4ccc(F)cc4)c3[n-]2)cs1

>  <Energy>  (76) 
94.54991784318521

>  <Genealogy>  (76) 
O=C(Cc1cccc(C(=O)[O-])c1)N=c1[n-]c(Cc2nc(=O)c3cccc(C(=O)[N-]Cc4ccc(F)cc4)c3[n-]2)cs1 (protonated)
O=C(Cc1cccc(C(=O)[O-])c1)N=c1[n-]c(Cc2nc(=O)c3cccc(C(=O)[N-]Cc4ccc(F)cc4)c3[n-]2)cs1 (3D coordinates assigned)
O=C(Cc1cccc(C(=O)[O-])c1)N=c1[n-]c(Cc2nc(=O)c3cccc(C(=O)[N-]Cc4ccc(F)cc4)c3[n-]2)cs1 (optimized conformer: 94.54991784318521 kcal/mol)

>  <smiles>  (76) 
O=C(Cc1cccc(C(=O)O)c1)N=c1[nH]c(Cc2nc(=O)c3cccc(C(=O)NCc4ccc(F)cc4)c3[nH]2)cs1

>  <score_type>  (76) 
oracle

>  <origin>  (76) 
adg

>  <m_score__min__energy>  (76) 
-17.640000000000001

>  <m_primary>  (76) 
energy

$$$$
76:0
     RDKit          3D

 69 72  0  0  0  0  0  0  0  0999 V2000
   57.6850   30.0230   55.2910 C   0  0  0  0  0  0  0  0  0  0  0  0
   56.7230   30.9370   54.5260 C   0  0  0  0  0  0  0  0  0  0  0  0
   56.8820   30.7600   53.0730 N   0  0  0  0  0  0  0  0  0  0  0  0
   56.2490   29.6000   52.4170 C   0  0  0  0  0  0  0  0  0  0  0  0
   54.9090   29.2250   53.0750 C   0  0  0  0  0  0  0  0  0  0  0  0
   53.7930   30.1690   52.7020 C   0  0  0  0  0  0  0  0  0  0  0  0
   53.7610   30.7700   51.4310 C   0  0  0  0  0  0  0  0  0  0  0  0
   52.7040   31.6140   51.0760 C   0  0  0  0  0  0  0  0  0  0  0  0
   51.6760   31.8710   51.9880 C   0  0  0  0  0  0  0  0  0  0  0  0
   50.6240   32.7090   51.6320 O   0  0  0  0  0  0  0  0  0  0  0  0
   51.7040   31.2830   53.2560 C   0  0  0  0  0  0  0  0  0  0  0  0
   52.7570   30.4340   53.6130 C   0  0  0  0  0  0  0  0  0  0  0  0
   57.7190   31.6730   52.3260 C   0  0  0  0  0  0  0  0  0  0  0  0
   58.4010   32.7210   52.9710 C   0  0  0  0  0  0  0  0  0  0  0  0
   59.2620   33.5540   52.2540 C   0  0  0  0  0  0  0  0  0  0  0  0
   59.4440   33.3630   50.8840 C   0  0  0  0  0  0  0  0  0  0  0  0
   58.7470   32.3460   50.2110 C   0  0  0  0  0  0  0  0  0  0  0  0
   58.9340   32.1520   48.7540 C   0  0  0  0  0  0  0  0  0  0  0  0
   59.6030   31.1640   48.3410 O   0  0  0  0  0  0  0  0  0  0  0  0
   58.4010   33.1030   47.8160 N   0  0  0  0  0  0  0  0  0  0  0  0
   58.2960   32.8620   46.4010 C   0  0  0  0  0  0  0  0  0  0  0  0
   58.6760   33.8630   45.5040 C   0  0  0  0  0  0  0  0  0  0  0  0
   58.5530   33.6680   44.1310 C   0  0  0  0  0  0  0  0  0  0  0  0
   58.0400   32.4650   43.6160 C   0  0  0  0  0  0  0  0  0  0  0  0
   57.8840   32.3440   42.1250 C   0  0  0  0  0  0  0  0  0  0  0  0
   57.6260   31.4480   44.5180 C   0  0  0  0  0  0  0  0  0  0  0  0
   56.9040   29.9070   43.9950 S   0  0  0  0  0  0  0  0  0  0  0  0
   55.7280   29.6230   44.8880 O   0  0  0  0  0  0  0  0  0  0  0  0
   56.3700   30.0200   42.5940 O   0  0  0  0  0  0  0  0  0  0  0  0
   58.0050   28.5430   44.1020 N   0  0  0  0  0  0  0  0  0  0  0  0
   59.3800   28.9120   44.4840 C   0  0  0  0  0  0  0  0  0  0  0  0
   59.6160   28.8750   46.0080 C   0  0  0  0  0  0  0  0  0  0  0  0
   58.4020   28.7740   46.7210 O   0  0  0  0  0  0  0  0  0  0  0  0
   57.7730   27.5510   46.4040 C   0  0  0  0  0  0  0  0  0  0  0  0
   57.4600   27.4260   44.8960 C   0  0  0  0  0  0  0  0  0  0  0  0
   57.7570   31.6650   45.9010 C   0  0  0  0  0  0  0  0  0  0  0  0
   57.8880   31.5040   50.9400 C   0  0  0  0  0  0  0  0  0  0  0  0
   57.5398   30.1610   56.3726 H   0  0  0  0  0  0  0  0  0  0  0  0
   57.4844   28.9747   55.0249 H   0  0  0  0  0  0  0  0  0  0  0  0
   58.7217   30.2769   55.0249 H   0  0  0  0  0  0  0  0  0  0  0  0
   55.6889   30.6905   54.8088 H   0  0  0  0  0  0  0  0  0  0  0  0
   56.9497   31.9825   54.7819 H   0  0  0  0  0  0  0  0  0  0  0  0
   56.0692   29.8445   51.3597 H   0  0  0  0  0  0  0  0  0  0  0  0
   56.9285   28.7408   52.5170 H   0  0  0  0  0  0  0  0  0  0  0  0
   54.6323   28.2093   52.7558 H   0  0  0  0  0  0  0  0  0  0  0  0
   55.0454   29.2859   54.1648 H   0  0  0  0  0  0  0  0  0  0  0  0
   54.5711   30.5753   50.7128 H   0  0  0  0  0  0  0  0  0  0  0  0
   52.6814   32.0762   50.0781 H   0  0  0  0  0  0  0  0  0  0  0  0
   50.8966   31.4883   53.9743 H   0  0  0  0  0  0  0  0  0  0  0  0
   52.7738   29.9720   54.6111 H   0  0  0  0  0  0  0  0  0  0  0  0
   58.2547   32.8854   54.0488 H   0  0  0  0  0  0  0  0  0  0  0  0
   59.7985   34.3634   52.7708 H   0  0  0  0  0  0  0  0  0  0  0  0
   60.1367   34.0120   50.3282 H   0  0  0  0  0  0  0  0  0  0  0  0
   58.2200   34.0720   48.1580 H   0  0  0  0  0  0  0  0  0  0  0  0
   59.0760   34.8139   45.8858 H   0  0  0  0  0  0  0  0  0  0  0  0
   58.8615   34.4662   43.4399 H   0  0  0  0  0  0  0  0  0  0  0  0
   57.0336   31.6844   41.8976 H   0  0  0  0  0  0  0  0  0  0  0  0
   57.7017   33.3393   41.6934 H   0  0  0  0  0  0  0  0  0  0  0  0
   58.8026   31.9199   41.6934 H   0  0  0  0  0  0  0  0  0  0  0  0
   60.0770   28.2088   44.0048 H   0  0  0  0  0  0  0  0  0  0  0  0
   59.5457   29.9475   44.1518 H   0  0  0  0  0  0  0  0  0  0  0  0
   60.2454   28.0061   46.2505 H   0  0  0  0  0  0  0  0  0  0  0  0
   60.1098   29.8130   46.3019 H   0  0  0  0  0  0  0  0  0  0  0  0
   58.4377   26.7250   46.6969 H   0  0  0  0  0  0  0  0  0  0  0  0
   56.8189   27.5119   46.9500 H   0  0  0  0  0  0  0  0  0  0  0  0
   57.8944   26.4863   44.5241 H   0  0  0  0  0  0  0  0  0  0  0  0
   56.3659   27.4441   44.7834 H   0  0  0  0  0  0  0  0  0  0  0  0
   57.4317   30.8838   46.6038 H   0  0  0  0  0  0  0  0  0  0  0  0
   57.3417   30.7035   50.4197 H   0  0  0  0  0  0  0  0  0  0  0  0
  1  2  1  0
  2  3  1  0
  3  4  1  0
  4  5  1  0
  5  6  1  0
  6  7  2  0
  7  8  1  0
  8  9  2  0
  9 10  1  0
  9 11  1  0
 11 12  2  0
  3 13  1  0
 13 14  2  0
 14 15  1  0
 15 16  2  0
 16 17  1  0
 17 18  1  0
 18 19  2  0
 18 20  1  0
 20 21  1  0
 21 22  2  0
 22 23  1  0
 23 24  2  0
 24 25  1  0
 24 26  1  0
 26 27  1  0
 27 28  2  0
 27 29  2  0
 27 30  1  0
 30 31  1  0
 31 32  1  0
 32 33  1  0
 33 34  1  0
 34 35  1  0
 26 36  2  0
 17 37  2  0
 12  6  1  0
 37 13  1  0
 36 21  1  0
 35 30  1  0
  1 38  1  0
  1 39  1  0
  1 40  1  0
  2 41  1  0
  2 42  1  0
  4 43  1  0
  4 44  1  0
  5 45  1  0
  5 46  1  0
  7 47  1  0
  8 48  1  0
 11 49  1  0
 12 50  1  0
 14 51  1  0
 15 52  1  0
 16 53  1  0
 20 54  1  0
 22 55  1  0
 23 56  1  0
 25 57  1  0
 25 58  1  0
 25 59  1  0
 31 60  1  0
 31 61  1  0
 32 62  1  0
 32 63  1  0
 34 64  1  0
 34 65  1  0
 35 66  1  0
 35 67  1  0
 36 68  1  0
 37 69  1  0
M  CHG  1  10  -1
M  END
>  <UniqueID>  (77) 
71

>  <SMILES>  (77) 
CCN(CCc1ccc([O-])cc1)c1cccc(C(=O)Nc2ccc(C)c(S(=O)(=O)N3CCOCC3)c2)c1

>  <Energy>  (77) 
86.3378159333567

>  <Genealogy>  (77) 
CCN(CCc1ccc([O-])cc1)c1cccc(C(=O)Nc2ccc(C)c(S(=O)(=O)N3CCOCC3)c2)c1 (protonated)
CCN(CCc1ccc([O-])cc1)c1cccc(C(=O)Nc2ccc(C)c(S(=O)(=O)N3CCOCC3)c2)c1 (3D coordinates assigned)
CCN(CCc1ccc([O-])cc1)c1cccc(C(=O)Nc2ccc(C)c(S(=O)(=O)N3CCOCC3)c2)c1 (nonaromatic ring conformer: 86.3378159333567 kcal/mol)

>  <smiles>  (77) 
CCN(CCc1ccc(O)cc1)c1cccc(C(=O)Nc2ccc(C)c(S(=O)(=O)N3CCOCC3)c2)c1

>  <score_type>  (77) 
oracle

>  <origin>  (77) 
adg

>  <m_score__min__energy>  (77) 
-15.369999999999999

>  <m_primary>  (77) 
energy

$$$$
