0:0
     RDKit          3D

 35 37  0  0  1  0  0  0  0  0999 V2000
   55.2760   26.6800   45.9370 O   0  0  0  0  0  0  0  0  0  0  0  0
   56.6500   26.9560   45.9750 C   0  0  0  0  0  0  0  0  0  0  0  0
   57.4750   26.1670   46.7420 C   0  0  0  0  0  0  0  0  0  0  0  0
   58.8120   26.4710   46.7520 C   0  0  0  0  0  0  0  0  0  0  0  0
   59.3350   27.5230   46.0290 C   0  0  0  0  0  0  0  0  0  0  0  0
   58.5100   28.3320   45.2460 C   0  0  0  0  0  0  0  0  0  0  0  0
   57.5620   32.9640   46.8610 N   0  0  0  0  0  0  0  0  0  0  0  0
   57.7840   32.4340   45.7160 C   0  0  0  0  0  0  0  0  0  0  0  0
   58.2930   31.2160   43.3570 N   0  0  0  0  0  0  0  0  0  0  0  0
   57.7810   32.4550   43.3140 C   0  0  0  0  0  0  0  0  0  0  0  0
   57.5180   33.0850   44.5150 C   0  0  0  0  0  0  0  0  0  0  0  0
   57.0040   34.3290   44.5260 F   0  0  0  0  0  0  0  0  0  0  0  0
   58.5470   30.5930   44.5330 C   0  0  0  0  0  0  0  0  0  0  0  0
   59.0310   29.4210   44.4930 N   0  0  0  0  0  0  0  0  0  0  0  0
   58.6390   33.0520   47.7870 C   0  0  0  0  0  0  0  0  0  0  0  0
   58.6750   32.2090   48.8890 C   0  0  0  0  0  0  0  0  0  0  0  0
   59.7430   32.3170   49.7810 C   0  0  0  0  0  0  0  0  0  0  0  0
   60.7150   33.2440   49.5400 C   0  0  0  0  0  0  0  0  0  0  0  0
   60.7190   34.1030   48.4560 C   0  0  0  0  0  0  0  0  0  0  0  0
   59.6470   33.9840   47.5740 C   0  0  0  0  0  0  0  0  0  0  0  0
   59.6170   35.0560   46.1880 Cl  0  0  0  0  0  0  0  0  0  0  0  0
   58.3030   31.1760   45.7250 N   0  0  0  0  0  0  0  0  0  0  0  0
   57.1590   28.0080   45.2490 C   0  0  0  0  0  0  0  0  0  0  0  0
   54.8080   26.3430   46.7740 H   0  0  0  0  0  0  0  0  0  0  0  0
   57.0772   25.3237   47.3256 H   0  0  0  0  0  0  0  0  0  0  0  0
   59.4917   25.8541   47.3581 H   0  0  0  0  0  0  0  0  0  0  0  0
   60.4152   27.7267   46.0700 H   0  0  0  0  0  0  0  0  0  0  0  0
   58.5040   30.7110   42.4640 H   0  0  0  0  0  0  0  0  0  0  0  0
   57.5773   32.9528   42.3545 H   0  0  0  0  0  0  0  0  0  0  0  0
   57.8774   31.4702   49.0561 H   0  0  0  0  0  0  0  0  0  0  0  0
   59.8004   31.6648   50.6649 H   0  0  0  0  0  0  0  0  0  0  0  0
   61.5491   33.3125   50.2539 H   0  0  0  0  0  0  0  0  0  0  0  0
   61.5223   34.8379   48.2992 H   0  0  0  0  0  0  0  0  0  0  0  0
   58.5150   30.6580   46.5830 H   0  0  0  0  0  0  0  0  0  0  0  0
   56.4687   28.6169   44.6468 H   0  0  0  0  0  0  0  0  0  0  0  0
  1  2  1  0
  2  3  2  0
  3  4  1  0
  4  5  2  0
  5  6  1  0
  6  7  1  0
  7  8  2  0
  8  9  1  0
  9 10  1  0
 10 11  2  0
 11 12  1  0
 11 13  1  0
 13 14  2  0
 14 15  1  0
 15 16  2  0
 16 17  1  0
 17 18  2  0
 18 19  1  0
 19 20  2  0
 20 21  1  0
 13 22  1  0
  6 23  2  0
 23  2  1  0
 22  8  1  0
 20 15  1  0
  1 24  1  0
  3 25  1  0
  4 26  1  0
  5 27  1  0
  9 28  1  0
 10 29  1  0
 16 30  1  0
 17 31  1  0
 18 32  1  0
 19 33  1  0
 22 34  1  0
 23 35  1  0
M  END
>  <smiles>  (1) 
Oc1cccc(N=c2[nH]cc(F)c(=Nc3ccccc3Cl)[nH]2)c1

>  <score_type>  (1) 
oracle

>  <origin>  (1) 
adg

>  <m_score__min__energy>  (1) 
-8.5800000000000001

>  <m_primary>  (1) 
energy

$$$$
1:0
     RDKit          3D

 41 43  0  0  0  0  0  0  0  0999 V2000
   59.2100   30.1190   50.0840 C   0  0  0  0  0  0  0  0  0  0  0  0
   60.0410   29.4000   49.1780 O   0  0  0  0  0  0  0  0  0  0  0  0
   59.6810   29.0680   47.8620 C   0  0  0  0  0  0  0  0  0  0  0  0
   58.7490   28.0530   47.5740 C   0  0  0  0  0  0  0  0  0  0  0  0
   58.3950   27.7750   46.2510 C   0  0  0  0  0  0  0  0  0  0  0  0
   58.9630   28.5040   45.1950 C   0  0  0  0  0  0  0  0  0  0  0  0
   58.4920   28.2750   43.7820 C   0  0  0  0  0  0  0  0  0  0  0  0
   57.0210   28.3390   43.7080 N   0  0  0  0  0  0  0  0  0  0  0  0
   56.5380   29.4870   42.9210 C   0  0  0  0  0  0  0  0  0  0  0  0
   57.1240   30.7710   43.4250 C   0  0  0  0  0  0  0  0  0  0  0  0
   57.6800   31.7670   42.6540 C   0  0  0  0  0  0  0  0  0  0  0  0
   58.1620   32.6690   43.4720 O   0  0  0  0  0  0  0  0  0  0  0  0
   57.9150   32.2590   44.6980 C   0  0  0  0  0  0  0  0  0  0  0  0
   58.3590   32.9780   45.9070 C   0  0  0  0  0  0  0  0  0  0  0  0
   58.1540   32.4260   47.1840 C   0  0  0  0  0  0  0  0  0  0  0  0
   58.6040   33.0990   48.3240 C   0  0  0  0  0  0  0  0  0  0  0  0
   59.2680   34.3230   48.2030 C   0  0  0  0  0  0  0  0  0  0  0  0
   59.7190   34.9770   49.3480 O   0  0  0  0  0  0  0  0  0  0  0  0
   59.4790   34.8770   46.9340 C   0  0  0  0  0  0  0  0  0  0  0  0
   59.0250   34.2100   45.7910 C   0  0  0  0  0  0  0  0  0  0  0  0
   57.2540   31.0810   44.7290 N   0  0  0  0  0  0  0  0  0  0  0  0
   59.9150   29.4940   45.4800 C   0  0  0  0  0  0  0  0  0  0  0  0
   60.2660   29.7800   46.8030 C   0  0  0  0  0  0  0  0  0  0  0  0
   61.5160   31.1870   47.1510 Br  0  0  0  0  0  0  0  0  0  0  0  0
   59.4950   29.8724   51.1174 H   0  0  0  0  0  0  0  0  0  0  0  0
   59.3343   31.1991   49.9172 H   0  0  0  0  0  0  0  0  0  0  0  0
   58.1589   29.8407   49.9172 H   0  0  0  0  0  0  0  0  0  0  0  0
   58.2972   27.4759   48.3943 H   0  0  0  0  0  0  0  0  0  0  0  0
   57.6663   26.9795   46.0360 H   0  0  0  0  0  0  0  0  0  0  0  0
   58.9208   29.0488   43.1282 H   0  0  0  0  0  0  0  0  0  0  0  0
   58.8201   27.2768   43.4565 H   0  0  0  0  0  0  0  0  0  0  0  0
   56.6960   27.4740   43.2170 H   0  0  0  0  0  0  0  0  0  0  0  0
   56.8273   29.3486   41.8688 H   0  0  0  0  0  0  0  0  0  0  0  0
   55.4435   29.5409   43.0169 H   0  0  0  0  0  0  0  0  0  0  0  0
   57.7132   31.7992   41.5550 H   0  0  0  0  0  0  0  0  0  0  0  0
   57.6373   31.4604   47.2865 H   0  0  0  0  0  0  0  0  0  0  0  0
   58.4348   32.6635   49.3199 H   0  0  0  0  0  0  0  0  0  0  0  0
   59.2540   35.8060   49.7010 H   0  0  0  0  0  0  0  0  0  0  0  0
   60.0031   35.8391   46.8358 H   0  0  0  0  0  0  0  0  0  0  0  0
   59.1901   34.6518   44.7973 H   0  0  0  0  0  0  0  0  0  0  0  0
   60.3887   30.0492   44.6570 H   0  0  0  0  0  0  0  0  0  0  0  0
  1  2  1  0
  2  3  1  0
  3  4  2  0
  4  5  1  0
  5  6  2  0
  6  7  1  0
  7  8  1  0
  8  9  1  0
  9 10  1  0
 10 11  2  0
 11 12  1  0
 12 13  1  0
 13 14  1  0
 14 15  2  0
 15 16  1  0
 16 17  2  0
 17 18  1  0
 17 19  1  0
 19 20  2  0
 13 21  2  0
  6 22  1  0
 22 23  2  0
 23 24  1  0
 23  3  1  0
 21 10  1  0
 20 14  1  0
  1 25  1  0
  1 26  1  0
  1 27  1  0
  4 28  1  0
  5 29  1  0
  7 30  1  0
  7 31  1  0
  8 32  1  0
  9 33  1  0
  9 34  1  0
 11 35  1  0
 15 36  1  0
 16 37  1  0
 18 38  1  0
 19 39  1  0
 20 40  1  0
 22 41  1  0
M  END
>  <UniqueID>  (2) 
1

>  <SMILES>  (2) 
COc1ccc(CNCc2coc(-c3ccc(O)cc3)n2)cc1Br

>  <Energy>  (2) 
65.9299402861662

>  <Genealogy>  (2) 
COc1ccc(CNCc2coc(-c3ccc(O)cc3)n2)cc1Br (3D coordinates assigned)
COc1ccc(CNCc2coc(-c3ccc(O)cc3)n2)cc1Br (optimized conformer: 65.9299402861662 kcal/mol)

>  <smiles>  (2) 
COc1ccc(CNCc2coc(-c3ccc(O)cc3)n2)cc1Br

>  <score_type>  (2) 
oracle

>  <origin>  (2) 
adg

>  <m_score__min__energy>  (2) 
-6.9500000000000002

>  <m_primary>  (2) 
energy

$$$$
2:0
     RDKit          3D

 63 69  0  0  0  0  0  0  0  0999 V2000
   66.4250   27.3337   51.7978 H   0  0  0  0  0  0  0  0  0  0  0  0
   66.2620   28.4140   51.6700 C   0  0  0  0  0  0  0  0  0  0  0  0
   67.3560   29.2710   51.5210 C   0  0  0  0  0  0  0  0  0  0  0  0
   68.3775   28.8631   51.5320 H   0  0  0  0  0  0  0  0  0  0  0  0
   67.1560   30.6450   51.3580 C   0  0  0  0  0  0  0  0  0  0  0  0
   68.0219   31.3157   51.2559 H   0  0  0  0  0  0  0  0  0  0  0  0
   65.8560   31.1730   51.3240 C   0  0  0  0  0  0  0  0  0  0  0  0
   64.7510   30.3030   51.4890 C   0  0  0  0  0  0  0  0  0  0  0  0
   64.9610   28.9260   51.6570 C   0  0  0  0  0  0  0  0  0  0  0  0
   64.1023   28.2494   51.7785 H   0  0  0  0  0  0  0  0  0  0  0  0
   63.3940   30.8760   51.4620 C   0  0  0  0  0  0  0  0  0  0  0  0
   62.2630   30.1950   51.7840 N   0  0  0  0  0  0  0  0  0  0  0  0
   61.1670   30.9780   51.6690 C   0  0  0  0  0  0  0  0  0  0  0  0
   59.9770   30.5330   51.9520 N   0  0  0  0  0  0  0  0  0  0  0  0
   58.9720   30.0600   51.0420 C   0  0  0  0  0  0  0  0  0  0  0  0
   57.8370   29.7140   51.4640 O   0  0  0  0  0  0  0  0  0  0  0  0
   59.2630   29.9460   49.5930 C   0  0  0  0  0  0  0  0  0  0  0  0
   59.9620   28.8980   48.9640 C   0  0  0  0  0  0  0  0  0  0  0  0
   60.5690   27.6670   49.5790 C   0  0  0  0  0  0  0  0  0  0  0  0
   61.2596   27.2070   48.8569 H   0  0  0  0  0  0  0  0  0  0  0  0
   59.7598   26.9678   49.8365 H   0  0  0  0  0  0  0  0  0  0  0  0
   61.3040   28.0000   50.7990 N   0  0  0  0  0  0  0  0  0  0  0  0
   62.2330   28.4150   50.5620 H   0  0  0  0  0  0  0  0  0  0  0  0
   60.7530   28.6750   51.3780 H   0  0  0  0  0  0  0  0  0  0  0  0
   61.4560   27.1280   51.3530 H   0  0  0  0  0  0  0  0  0  0  0  0
   59.9830   29.1850   47.3040 S   0  0  0  0  0  0  0  0  0  0  0  0
   59.1490   30.6370   47.3610 C   0  0  0  0  0  0  0  0  0  0  0  0
   58.7600   31.4360   46.1830 C   0  0  0  0  0  0  0  0  0  0  0  0
   58.0490   30.8330   45.1200 C   0  0  0  0  0  0  0  0  0  0  0  0
   57.6790   31.6160   44.0150 C   0  0  0  0  0  0  0  0  0  0  0  0
   57.9920   32.9340   43.9670 N   0  0  0  0  0  0  0  0  0  0  0  0
   58.6660   33.5500   44.9710 C   0  0  0  0  0  0  0  0  0  0  0  0
   58.9560   34.9160   44.8710 C   0  0  0  0  0  0  0  0  0  0  0  0
   58.6367   35.4806   43.9826 H   0  0  0  0  0  0  0  0  0  0  0  0
   59.6490   35.5640   45.8950 C   0  0  0  0  0  0  0  0  0  0  0  0
   59.8755   36.6372   45.8113 H   0  0  0  0  0  0  0  0  0  0  0  0
   60.0550   34.8520   47.0250 C   0  0  0  0  0  0  0  0  0  0  0  0
   60.6023   35.3660   47.8289 H   0  0  0  0  0  0  0  0  0  0  0  0
   59.7690   33.4890   47.1390 C   0  0  0  0  0  0  0  0  0  0  0  0
   60.0884   32.9372   48.0354 H   0  0  0  0  0  0  0  0  0  0  0  0
   59.0730   32.8150   46.1120 C   0  0  0  0  0  0  0  0  0  0  0  0
   56.9580   30.9700   42.8680 C   0  0  0  0  0  0  0  0  0  0  0  0
   56.5091   31.7504   42.2360 H   0  0  0  0  0  0  0  0  0  0  0  0
   57.6763   30.3773   42.2825 H   0  0  0  0  0  0  0  0  0  0  0  0
   55.8500   30.0400   43.3890 C   0  0  0  0  0  0  0  0  0  0  0  0
   55.0141   30.6624   43.7411 H   0  0  0  0  0  0  0  0  0  0  0  0
   55.5687   29.3832   42.5527 H   0  0  0  0  0  0  0  0  0  0  0  0
   56.2930   29.1150   44.5540 C   0  0  0  0  0  0  0  0  0  0  0  0
   55.6034   29.2716   45.3966 H   0  0  0  0  0  0  0  0  0  0  0  0
   56.2704   28.0882   44.1601 H   0  0  0  0  0  0  0  0  0  0  0  0
   57.7300   29.3550   45.0590 C   0  0  0  0  0  0  0  0  0  0  0  0
   57.8332   28.9238   46.0657 H   0  0  0  0  0  0  0  0  0  0  0  0
   58.4299   28.8763   44.3583 H   0  0  0  0  0  0  0  0  0  0  0  0
   58.8190   30.9200   48.6780 C   0  0  0  0  0  0  0  0  0  0  0  0
   58.2631   31.8201   48.9793 H   0  0  0  0  0  0  0  0  0  0  0  0
   61.5610   32.5450   51.1510 S   0  0  0  0  0  0  0  0  0  0  0  0
   63.2030   32.1990   51.1030 C   0  0  0  0  0  0  0  0  0  0  0  0
   64.3090   33.0760   50.6040 C   0  0  0  0  0  0  0  0  0  0  0  0
   64.3902   32.9698   49.5122 H   0  0  0  0  0  0  0  0  0  0  0  0
   64.0817   34.1192   50.8686 H   0  0  0  0  0  0  0  0  0  0  0  0
   65.6500   32.6790   51.2530 C   0  0  0  0  0  0  0  0  0  0  0  0
   66.4681   33.1168   50.6621 H   0  0  0  0  0  0  0  0  0  0  0  0
   65.6395   33.0577   52.2857 H   0  0  0  0  0  0  0  0  0  0  0  0
  1  2  1  0
  2  3  2  0
  3  4  1  0
  3  5  1  0
  5  6  1  0
  5  7  2  0
  7  8  1  0
  8  9  2  0
  9 10  1  0
  8 11  1  0
 11 12  1  0
 12 13  1  0
 13 14  2  0
 14 15  1  0
 15 16  2  0
 15 17  1  0
 17 18  2  0
 18 19  1  0
 19 20  1  0
 19 21  1  0
 19 22  1  0
 22 23  1  0
 22 24  1  0
 22 25  1  0
 18 26  1  0
 26 27  1  0
 27 28  1  0
 28 29  2  0
 29 30  1  0
 30 31  2  0
 31 32  1  0
 32 33  2  0
 33 34  1  0
 33 35  1  0
 35 36  1  0
 35 37  2  0
 37 38  1  0
 37 39  1  0
 39 40  1  0
 39 41  2  0
 30 42  1  0
 42 43  1  0
 42 44  1  0
 42 45  1  0
 45 46  1  0
 45 47  1  0
 45 48  1  0
 48 49  1  0
 48 50  1  0
 48 51  1  0
 51 52  1  0
 51 53  1  0
 27 54  2  0
 54 55  1  0
 13 56  1  0
 56 57  1  0
 57 58  1  0
 58 59  1  0
 58 60  1  0
 58 61  1  0
 61 62  1  0
 61 63  1  0
  9  2  1  0
 57 11  2  0
 61  7  1  0
 54 17  1  0
 41 28  1  0
 51 29  1  0
 41 32  1  0
M  CHG  2  12  -1  22   1
M  END
>  <UniqueID>  (3) 
2

>  <SMILES>  (3) 
[NH3+]Cc1sc(-c2c3c(nc4ccccc24)CCCC3)cc1C(=O)/N=c1/[n-]c2c(s1)CCc1ccccc1-2

>  <Energy>  (3) 
153.07436302719742

>  <Genealogy>  (3) 
[NH3+]Cc1sc(-c2c3c(nc4ccccc24)CCCC3)cc1C(=O)N=c1[n-]c2c(s1)CCc1ccccc1-2 (protonated)
[NH3+]Cc1sc(-c2c3c(nc4ccccc24)CCCC3)cc1C(=O)/N=c1/[n-]c2c(s1)CCc1ccccc1-2 (cis-trans isomerization)
[NH3+]Cc1sc(-c2c3c(nc4ccccc24)CCCC3)cc1C(=O)/N=c1/[n-]c2c(s1)CCc1ccccc1-2 (3D coordinates assigned)
[NH3+]Cc1sc(-c2c3c(nc4ccccc24)CCCC3)cc1C(=O)/N=c1/[n-]c2c(s1)CCc1ccccc1-2 (nonaromatic ring conformer: 153.07436302719742 kcal/mol)

>  <smiles>  (3) 
NCc1sc(-c2c3c(nc4ccccc24)CCCC3)cc1C(=O)N=c1[nH]c2c(s1)CCc1ccccc1-2

>  <score_type>  (3) 
oracle

>  <origin>  (3) 
adg

>  <m_score__min__energy>  (3) 
-10.460000000000001

>  <m_primary>  (3) 
energy

$$$$
3:0
     RDKit          3D

 42 44  0  0  0  0  0  0  0  0999 V2000
   57.5200   25.7860   45.9580 C   0  0  0  0  0  0  0  0  0  0  0  0
   58.2020   26.3570   47.0690 O   0  0  0  0  0  0  0  0  0  0  0  0
   58.8710   27.5890   47.0380 C   0  0  0  0  0  0  0  0  0  0  0  0
   58.8640   28.3800   48.1940 C   0  0  0  0  0  0  0  0  0  0  0  0
   59.5130   29.6170   48.2140 C   0  0  0  0  0  0  0  0  0  0  0  0
   60.1740   30.0850   47.0690 C   0  0  0  0  0  0  0  0  0  0  0  0
   60.8670   31.3900   47.0870 C   0  0  0  0  0  0  0  0  0  0  0  0
   62.2720   31.4000   47.1200 C   0  0  0  0  0  0  0  0  0  0  0  0
   62.9720   32.6050   47.1730 C   0  0  0  0  0  0  0  0  0  0  0  0
   62.2780   33.8150   47.1910 C   0  0  0  0  0  0  0  0  0  0  0  0
   60.8830   33.8240   47.1430 C   0  0  0  0  0  0  0  0  0  0  0  0
   60.1620   32.6200   47.0780 C   0  0  0  0  0  0  0  0  0  0  0  0
   58.3970   32.6950   46.9580 S   0  0  0  0  0  0  0  0  0  0  0  0
   57.7780   32.7130   48.3280 O   0  0  0  0  0  0  0  0  0  0  0  0
   58.0130   33.9410   46.2110 O   0  0  0  0  0  0  0  0  0  0  0  0
   57.8130   31.3030   46.1060 N   0  0  0  0  0  0  0  0  0  0  0  0
   57.5820   31.2970   44.6940 C   0  0  0  0  0  0  0  0  0  0  0  0
   58.1390   32.3230   43.9240 C   0  0  0  0  0  0  0  0  0  0  0  0
   57.9100   32.3560   42.5480 C   0  0  0  0  0  0  0  0  0  0  0  0
   57.1590   31.3910   41.9590 N   0  0  0  0  0  0  0  0  0  0  0  0
   56.6240   30.3660   42.6740 C   0  0  0  0  0  0  0  0  0  0  0  0
   56.8400   30.2760   44.0580 C   0  0  0  0  0  0  0  0  0  0  0  0
   56.2810   29.1040   44.8180 C   0  0  0  0  0  0  0  0  0  0  0  0
   60.1990   29.2920   45.9140 C   0  0  0  0  0  0  0  0  0  0  0  0
   59.5480   28.0540   45.8940 C   0  0  0  0  0  0  0  0  0  0  0  0
   56.7235   25.1192   46.3199 H   0  0  0  0  0  0  0  0  0  0  0  0
   57.0781   26.5874   45.3477 H   0  0  0  0  0  0  0  0  0  0  0  0
   58.2312   25.2101   45.3477 H   0  0  0  0  0  0  0  0  0  0  0  0
   58.3425   28.0238   49.0947 H   0  0  0  0  0  0  0  0  0  0  0  0
   59.5055   30.2256   49.1303 H   0  0  0  0  0  0  0  0  0  0  0  0
   62.8244   30.4489   47.1039 H   0  0  0  0  0  0  0  0  0  0  0  0
   64.0716   32.6014   47.2006 H   0  0  0  0  0  0  0  0  0  0  0  0
   62.8314   34.7642   47.2431 H   0  0  0  0  0  0  0  0  0  0  0  0
   60.3433   34.7824   47.1562 H   0  0  0  0  0  0  0  0  0  0  0  0
   58.7545   33.1001   44.4007 H   0  0  0  0  0  0  0  0  0  0  0  0
   58.3390   33.1657   41.9394 H   0  0  0  0  0  0  0  0  0  0  0  0
   56.0180   29.6023   42.1647 H   0  0  0  0  0  0  0  0  0  0  0  0
   56.3703   29.2912   45.8983 H   0  0  0  0  0  0  0  0  0  0  0  0
   55.2213   28.9686   44.5557 H   0  0  0  0  0  0  0  0  0  0  0  0
   56.8427   28.1953   44.5557 H   0  0  0  0  0  0  0  0  0  0  0  0
   60.7329   29.6445   45.0192 H   0  0  0  0  0  0  0  0  0  0  0  0
   59.5650   27.4411   44.9808 H   0  0  0  0  0  0  0  0  0  0  0  0
  1  2  1  0
  2  3  1  0
  3  4  2  0
  4  5  1  0
  5  6  2  0
  6  7  1  0
  7  8  2  0
  8  9  1  0
  9 10  2  0
 10 11  1  0
 11 12  2  0
 12 13  1  0
 13 14  2  0
 13 15  2  0
 13 16  1  0
 16 17  1  0
 17 18  2  0
 18 19  1  0
 19 20  2  0
 20 21  1  0
 21 22  2  0
 22 23  1  0
  6 24  1  0
 24 25  2  0
 25  3  1  0
 12  7  1  0
 22 17  1  0
  1 26  1  0
  1 27  1  0
  1 28  1  0
  4 29  1  0
  5 30  1  0
  8 31  1  0
  9 32  1  0
 10 33  1  0
 11 34  1  0
 18 35  1  0
 19 36  1  0
 21 37  1  0
 23 38  1  0
 23 39  1  0
 23 40  1  0
 24 41  1  0
 25 42  1  0
M  CHG  1  16  -1
M  END
>  <UniqueID>  (4) 
3

>  <SMILES>  (4) 
COc1ccc(-c2ccccc2S(=O)(=O)[N-]c2ccncc2C)cc1

>  <Energy>  (4) 
62.733239734137754

>  <Genealogy>  (4) 
COc1ccc(-c2ccccc2S(=O)(=O)[N-]c2ccncc2C)cc1 (protonated)
COc1ccc(-c2ccccc2S(=O)(=O)[N-]c2ccncc2C)cc1 (3D coordinates assigned)
COc1ccc(-c2ccccc2S(=O)(=O)[N-]c2ccncc2C)cc1 (optimized conformer: 62.733239734137754 kcal/mol)

>  <smiles>  (4) 
COc1ccc(-c2ccccc2S(=O)(=O)Nc2ccncc2C)cc1

>  <score_type>  (4) 
oracle

>  <origin>  (4) 
adg

>  <m_score__min__energy>  (4) 
-9.5500000000000007

>  <m_primary>  (4) 
energy

$$$$
4:0
     RDKit          3D

 52 55  0  0  0  0  0  0  0  0999 V2000
   59.4961   29.4576   45.1741 H   0  0  0  0  0  0  0  0  0  0  0  0
   58.6820   28.7610   45.4230 C   0  0  0  0  0  0  0  0  0  0  0  0
   58.9190   27.6490   46.2360 C   0  0  0  0  0  0  0  0  0  0  0  0
   60.2770   27.4060   46.8120 C   0  0  0  0  0  0  0  0  0  0  0  0
   60.2167   27.4168   47.9103 H   0  0  0  0  0  0  0  0  0  0  0  0
   60.6485   26.4271   46.4748 H   0  0  0  0  0  0  0  0  0  0  0  0
   60.9649   28.1953   46.4748 H   0  0  0  0  0  0  0  0  0  0  0  0
   57.8940   26.8110   46.5430 N   0  0  0  0  0  0  0  0  0  0  0  0
   56.6420   27.0120   46.0480 C   0  0  0  0  0  0  0  0  0  0  0  0
   55.6530   26.2310   46.3700 N   0  0  0  0  0  0  0  0  0  0  0  0
   55.5590   24.8170   46.1240 C   0  0  0  0  0  0  0  0  0  0  0  0
   54.4030   24.3180   45.5120 C   0  0  0  0  0  0  0  0  0  0  0  0
   53.5846   25.0037   45.2475 H   0  0  0  0  0  0  0  0  0  0  0  0
   54.2830   22.9520   45.2350 C   0  0  0  0  0  0  0  0  0  0  0  0
   53.3645   22.5646   44.7700 H   0  0  0  0  0  0  0  0  0  0  0  0
   55.3280   22.0790   45.5480 C   0  0  0  0  0  0  0  0  0  0  0  0
   55.2100   20.7550   45.2750 F   0  0  0  0  0  0  0  0  0  0  0  0
   56.4990   22.5730   46.1310 C   0  0  0  0  0  0  0  0  0  0  0  0
   57.5230   21.7300   46.4160 F   0  0  0  0  0  0  0  0  0  0  0  0
   56.6210   23.9380   46.4120 C   0  0  0  0  0  0  0  0  0  0  0  0
   57.5484   24.3256   46.8589 H   0  0  0  0  0  0  0  0  0  0  0  0
   56.4030   28.0860   45.2530 N   0  0  0  0  0  0  0  0  0  0  0  0
   57.3860   28.9710   44.9310 C   0  0  0  0  0  0  0  0  0  0  0  0
   57.0640   30.1290   44.1350 N   0  0  0  0  0  0  0  0  0  0  0  0
   55.8430   30.1030   43.3220 C   0  0  0  0  0  0  0  0  0  0  0  0
   54.9633   30.0843   43.9821 H   0  0  0  0  0  0  0  0  0  0  0  0
   55.8060   31.0006   42.6872 H   0  0  0  0  0  0  0  0  0  0  0  0
   55.8442   29.2047   42.6872 H   0  0  0  0  0  0  0  0  0  0  0  0
   57.8450   31.3760   44.2540 C   0  0  0  0  0  0  0  0  0  0  0  0
   58.7254   31.1884   44.8862 H   0  0  0  0  0  0  0  0  0  0  0  0
   58.1501   31.6920   43.2455 H   0  0  0  0  0  0  0  0  0  0  0  0
   57.0100   32.4990   44.8810 C   0  0  0  0  0  0  0  0  0  0  0  0
   57.0677   33.3951   44.2456 H   0  0  0  0  0  0  0  0  0  0  0  0
   55.9637   32.1699   44.9643 H   0  0  0  0  0  0  0  0  0  0  0  0
   57.5110   32.8070   46.1800 O   0  0  0  0  0  0  0  0  0  0  0  0
   58.8700   32.9190   46.4960 C   0  0  0  0  0  0  0  0  0  0  0  0
   59.6660   33.9670   46.0030 C   0  0  0  0  0  0  0  0  0  0  0  0
   59.2223   34.7307   45.3473 H   0  0  0  0  0  0  0  0  0  0  0  0
   61.0190   34.0420   46.3430 C   0  0  0  0  0  0  0  0  0  0  0  0
   61.6321   34.8733   45.9649 H   0  0  0  0  0  0  0  0  0  0  0  0
   61.5990   33.0670   47.1610 C   0  0  0  0  0  0  0  0  0  0  0  0
   63.3100   33.2030   47.5440 Cl  0  0  0  0  0  0  0  0  0  0  0  0
   60.8120   32.0050   47.6480 C   0  0  0  0  0  0  0  0  0  0  0  0
   59.4440   31.9480   47.3260 C   0  0  0  0  0  0  0  0  0  0  0  0
   58.6580   30.8900   47.7990 O   0  0  0  0  0  0  0  0  0  0  0  0
   59.0530   30.0390   48.8770 C   0  0  0  0  0  0  0  0  0  0  0  0
   58.6800   30.4621   49.8214 H   0  0  0  0  0  0  0  0  0  0  0  0
   58.6287   29.0396   48.7007 H   0  0  0  0  0  0  0  0  0  0  0  0
   60.5450   29.9090   48.9570 C   0  0  0  0  0  0  0  0  0  0  0  0
   61.0590   28.9260   49.5540 O   0  0  0  0  0  0  0  0  0  0  0  0
   61.3820   30.9400   48.4240 N   0  0  0  0  0  0  0  0  0  0  0  0
   62.4140   30.8820   48.5820 H   0  0  0  0  0  0  0  0  0  0  0  0
  1  2  1  0
  2  3  1  0
  3  4  1  0
  4  5  1  0
  4  6  1  0
  4  7  1  0
  3  8  2  0
  8  9  1  0
  9 10  2  0
 10 11  1  0
 11 12  2  0
 12 13  1  0
 12 14  1  0
 14 15  1  0
 14 16  2  0
 16 17  1  0
 16 18  1  0
 18 19  1  0
 18 20  2  0
 20 21  1  0
  9 22  1  0
 22 23  1  0
 23 24  1  0
 24 25  1  0
 25 26  1  0
 25 27  1  0
 25 28  1  0
 24 29  1  0
 29 30  1  0
 29 31  1  0
 29 32  1  0
 32 33  1  0
 32 34  1  0
 32 35  1  0
 35 36  1  0
 36 37  2  0
 37 38  1  0
 37 39  1  0
 39 40  1  0
 39 41  2  0
 41 42  1  0
 41 43  1  0
 43 44  2  0
 44 45  1  0
 45 46  1  0
 46 47  1  0
 46 48  1  0
 46 49  1  0
 49 50  2  0
 49 51  1  0
 51 52  1  0
 23  2  2  0
 44 36  1  0
 20 11  1  0
 51 43  1  0
M  CHG  1  22  -1
M  END
>  <UniqueID>  (5) 
4

>  <SMILES>  (5) 
Cc1cc(N(C)CCOc2ccc(Cl)c3c2OCC(=O)N3)[n-]/c(=N/c2ccc(F)c(F)c2)n1

>  <Energy>  (5) 
62.29918735973868

>  <Genealogy>  (5) 
Cc1cc(N(C)CCOc2ccc(Cl)c3c2OCC(=O)N3)[n-]c(=Nc2ccc(F)c(F)c2)n1 (protonated)
Cc1cc(N(C)CCOc2ccc(Cl)c3c2OCC(=O)N3)[n-]/c(=N/c2ccc(F)c(F)c2)n1 (cis-trans isomerization)
Cc1cc(N(C)CCOc2ccc(Cl)c3c2OCC(=O)N3)[n-]/c(=N/c2ccc(F)c(F)c2)n1 (3D coordinates assigned)
Cc1cc(N(C)CCOc2ccc(Cl)c3c2OCC(=O)N3)[n-]/c(=N/c2ccc(F)c(F)c2)n1 (nonaromatic ring conformer: 62.29918735973868 kcal/mol)

>  <smiles>  (5) 
Cc1cc(N(C)CCOc2ccc(Cl)c3c2OCC(=O)N3)[nH]c(=Nc2ccc(F)c(F)c2)n1

>  <score_type>  (5) 
oracle

>  <origin>  (5) 
adg

>  <m_score__min__energy>  (5) 
-10.31

>  <m_primary>  (5) 
energy

$$$$
5:0
     RDKit          3D

 50 52  0  0  0  0  0  0  0  0999 V2000
   57.0170   34.2690   45.0190 C   0  0  0  0  0  0  0  0  0  0  0  0
   58.2540   33.9850   45.8190 C   0  0  0  0  0  0  0  0  0  0  0  0
   59.5280   34.1970   45.2700 C   0  0  0  0  0  0  0  0  0  0  0  0
   60.6740   33.8890   46.0080 C   0  0  0  0  0  0  0  0  0  0  0  0
   60.5610   33.3690   47.3050 C   0  0  0  0  0  0  0  0  0  0  0  0
   61.9990   32.9390   48.2290 S   0  0  0  0  0  0  0  0  0  0  0  0
   62.0030   33.6910   49.5300 O   0  0  0  0  0  0  0  0  0  0  0  0
   63.2290   33.3100   47.4490 O   0  0  0  0  0  0  0  0  0  0  0  0
   62.0300   31.2340   48.5340 N   0  0  0  0  0  0  0  0  0  0  0  0
   60.8700   30.4540   48.4000 N   0  0  0  0  0  0  0  0  0  0  0  0
   60.1750   30.0600   49.5150 C   0  0  0  0  0  0  0  0  0  0  0  0
   60.6380   30.4440   50.8940 C   0  0  0  0  0  0  0  0  0  0  0  0
   58.9750   29.3510   49.3710 C   0  0  0  0  0  0  0  0  0  0  0  0
   58.5210   29.0100   48.1020 C   0  0  0  0  0  0  0  0  0  0  0  0
   59.2620   29.3670   46.9700 C   0  0  0  0  0  0  0  0  0  0  0  0
   58.7710   28.9780   45.5950 C   0  0  0  0  0  0  0  0  0  0  0  0
   57.2940   29.1950   45.4480 C   0  0  0  0  0  0  0  0  0  0  0  0
   56.8380   30.3520   45.2420 O   0  0  0  0  0  0  0  0  0  0  0  0
   56.4060   28.0860   45.6090 N   0  0  0  0  0  0  0  0  0  0  0  0
   56.8570   26.7170   45.8360 C   0  0  0  0  0  0  0  0  0  0  0  0
   55.6910   25.7890   45.9940 C   0  0  0  0  0  0  0  0  0  0  0  0
   54.5240   26.2680   45.9960 O   0  0  0  0  0  0  0  0  0  0  0  0
   55.9170   24.3850   46.1930 N   0  0  0  0  0  0  0  0  0  0  0  0
   56.3260   23.5380   45.2960 C   0  0  0  0  0  0  0  0  0  0  0  0
   55.5660   23.0760   44.2780 N   0  0  0  0  0  0  0  0  0  0  0  0
   56.2600   22.2100   43.4940 C   0  0  0  0  0  0  0  0  0  0  0  0
   57.5740   21.9780   43.8890 C   0  0  0  0  0  0  0  0  0  0  0  0
   57.8750   22.8930   45.2700 S   0  0  0  0  0  0  0  0  0  0  0  0
   60.4500   30.1030   47.1440 C   0  0  0  0  0  0  0  0  0  0  0  0
   61.1280   30.4460   46.1370 O   0  0  0  0  0  0  0  0  0  0  0  0
   59.2880   33.1810   47.8630 C   0  0  0  0  0  0  0  0  0  0  0  0
   58.1420   33.4790   47.1210 C   0  0  0  0  0  0  0  0  0  0  0  0
   56.1757   34.4622   45.7008 H   0  0  0  0  0  0  0  0  0  0  0  0
   57.1851   35.1519   44.3848 H   0  0  0  0  0  0  0  0  0  0  0  0
   56.7832   33.4012   44.3848 H   0  0  0  0  0  0  0  0  0  0  0  0
   59.6250   34.6075   44.2541 H   0  0  0  0  0  0  0  0  0  0  0  0
   61.6690   34.0553   45.5694 H   0  0  0  0  0  0  0  0  0  0  0  0
   60.0192   29.9307   51.6447 H   0  0  0  0  0  0  0  0  0  0  0  0
   61.6900   30.1497   51.0228 H   0  0  0  0  0  0  0  0  0  0  0  0
   60.5433   31.5323   51.0228 H   0  0  0  0  0  0  0  0  0  0  0  0
   58.3936   29.0649   50.2599 H   0  0  0  0  0  0  0  0  0  0  0  0
   57.5765   28.4579   47.9875 H   0  0  0  0  0  0  0  0  0  0  0  0
   59.2966   29.5863   44.8441 H   0  0  0  0  0  0  0  0  0  0  0  0
   58.9750   27.9069   45.4499 H   0  0  0  0  0  0  0  0  0  0  0  0
   57.4633   26.3907   44.9782 H   0  0  0  0  0  0  0  0  0  0  0  0
   57.4536   26.6922   46.7598 H   0  0  0  0  0  0  0  0  0  0  0  0
   55.8154   21.7274   42.6112 H   0  0  0  0  0  0  0  0  0  0  0  0
   58.2913   21.3125   43.3864 H   0  0  0  0  0  0  0  0  0  0  0  0
   59.1913   32.7972   48.8893 H   0  0  0  0  0  0  0  0  0  0  0  0
   57.1472   33.3156   47.5610 H   0  0  0  0  0  0  0  0  0  0  0  0
  1  2  1  0
  2  3  2  0
  3  4  1  0
  4  5  2  0
  5  6  1  0
  6  7  2  0
  6  8  2  0
  6  9  1  0
  9 10  1  0
 10 11  1  0
 11 12  1  0
 11 13  2  0
 13 14  1  0
 14 15  2  0
 15 16  1  0
 16 17  1  0
 17 18  2  0
 17 19  1  0
 19 20  1  0
 20 21  1  0
 21 22  2  0
 21 23  1  0
 23 24  2  3
 24 25  1  0
 25 26  1  0
 26 27  2  0
 27 28  1  0
 15 29  1  0
 29 30  2  0
  5 31  1  0
 31 32  2  0
 32  2  1  0
 29 10  1  0
 28 24  1  0
  1 33  1  0
  1 34  1  0
  1 35  1  0
  3 36  1  0
  4 37  1  0
 12 38  1  0
 12 39  1  0
 12 40  1  0
 13 41  1  0
 14 42  1  0
 16 43  1  0
 16 44  1  0
 20 45  1  0
 20 46  1  0
 26 47  1  0
 27 48  1  0
 31 49  1  0
 32 50  1  0
M  CHG  3   9  -1  19  -1  25  -1
M  END
>  <UniqueID>  (6) 
5

>  <SMILES>  (6) 
Cc1ccc(S(=O)(=O)[N-]n2c(C)ccc(CC(=O)[N-]CC(=O)N=c3[n-]ccs3)c2=O)cc1

>  <Energy>  (6) 
84.32537662806081

>  <Genealogy>  (6) 
Cc1ccc(S(=O)(=O)[N-]n2c(C)ccc(CC(=O)[N-]CC(=O)N=c3[n-]ccs3)c2=O)cc1 (protonated)
Cc1ccc(S(=O)(=O)[N-]n2c(C)ccc(CC(=O)[N-]CC(=O)N=c3[n-]ccs3)c2=O)cc1 (3D coordinates assigned)
Cc1ccc(S(=O)(=O)[N-]n2c(C)ccc(CC(=O)[N-]CC(=O)N=c3[n-]ccs3)c2=O)cc1 (optimized conformer: 84.32537662806081 kcal/mol)

>  <smiles>  (6) 
Cc1ccc(S(=O)(=O)Nn2c(C)ccc(CC(=O)NCC(=O)N=c3[nH]ccs3)c2=O)cc1

>  <score_type>  (6) 
oracle

>  <origin>  (6) 
adg

>  <m_score__min__energy>  (6) 
-14.390000000000001

>  <m_primary>  (6) 
energy

$$$$
6:0
     RDKit          3D

 22 23  0  0  0  0  0  0  0  0999 V2000
   61.0590   34.2380   49.3700 C   0  0  0  0  0  0  0  0  0  0  0  0
   60.0650   34.7760   48.4870 O   0  0  0  0  0  0  0  0  0  0  0  0
   59.4280   33.9700   47.5520 C   0  0  0  0  0  0  0  0  0  0  0  0
   58.8890   34.4520   46.3770 C   0  0  0  0  0  0  0  0  0  0  0  0
   58.2540   33.6110   45.4570 C   0  0  0  0  0  0  0  0  0  0  0  0
   58.1670   32.2810   45.7320 C   0  0  0  0  0  0  0  0  0  0  0  0
   57.5200   31.3530   44.8170 C   0  0  0  0  0  0  0  0  0  0  0  0
   58.0620   30.7880   43.7240 N   0  0  0  0  0  0  0  0  0  0  0  0
   57.2000   29.9920   43.1140 N   0  0  0  0  0  0  0  0  0  0  0  0
   56.0650   30.0600   43.8580 C   0  0  0  0  0  0  0  0  0  0  0  0
   55.0050   29.4270   43.5910 O   0  0  0  0  0  0  0  0  0  0  0  0
   56.2930   30.8840   44.8700 O   0  0  0  0  0  0  0  0  0  0  0  0
   58.7060   31.8130   46.9010 C   0  0  0  0  0  0  0  0  0  0  0  0
   59.3290   32.6160   47.8100 C   0  0  0  0  0  0  0  0  0  0  0  0
   60.7516   34.4044   50.4130 H   0  0  0  0  0  0  0  0  0  0  0  0
   61.1663   33.1586   49.1871 H   0  0  0  0  0  0  0  0  0  0  0  0
   62.0214   34.7384   49.1871 H   0  0  0  0  0  0  0  0  0  0  0  0
   58.9606   35.5275   46.1575 H   0  0  0  0  0  0  0  0  0  0  0  0
   57.8318   34.0181   44.5264 H   0  0  0  0  0  0  0  0  0  0  0  0
   57.3850   29.4410   42.2470 H   0  0  0  0  0  0  0  0  0  0  0  0
   58.6327   30.7369   47.1170 H   0  0  0  0  0  0  0  0  0  0  0  0
   59.7467   32.1922   48.7352 H   0  0  0  0  0  0  0  0  0  0  0  0
  1  2  1  0
  2  3  1  0
  3  4  2  0
  4  5  1  0
  5  6  2  0
  6  7  1  0
  7  8  2  0
  8  9  1  0
  9 10  1  0
 10 11  2  0
 10 12  1  0
  6 13  1  0
 13 14  2  0
 14  3  1  0
 12  7  1  0
  1 15  1  0
  1 16  1  0
  1 17  1  0
  4 18  1  0
  5 19  1  0
  9 20  1  0
 13 21  1  0
 14 22  1  0
M  END
>  <smiles>  (7) 
COc1ccc(-c2n[nH]c(=O)o2)cc1

>  <score_type>  (7) 
oracle

>  <origin>  (7) 
adg

>  <m_score__min__energy>  (7) 
-5.4800000000000004

>  <m_primary>  (7) 
energy

$$$$
7:0
     RDKit          3D

 43 45  0  0  0  0  0  0  0  0999 V2000
   56.7520   26.4930   45.6820 C   0  0  0  0  0  0  0  0  0  0  0  0
   56.0260   27.7140   45.5920 O   0  0  0  0  0  0  0  0  0  0  0  0
   56.5920   28.9510   45.2400 C   0  0  0  0  0  0  0  0  0  0  0  0
   56.1100   29.7120   44.1590 C   0  0  0  0  0  0  0  0  0  0  0  0
   56.6980   30.9360   43.8370 C   0  0  0  0  0  0  0  0  0  0  0  0
   57.7760   31.4250   44.5930 C   0  0  0  0  0  0  0  0  0  0  0  0
   58.4020   32.6830   44.3050 N   0  0  0  0  0  0  0  0  0  0  0  0
   58.4270   34.0530   45.3660 S   0  0  0  0  0  0  0  0  0  0  0  0
   57.1260   34.1190   46.1160 O   0  0  0  0  0  0  0  0  0  0  0  0
   58.5850   35.3050   44.5500 O   0  0  0  0  0  0  0  0  0  0  0  0
   59.7840   33.9270   46.4810 C   0  0  0  0  0  0  0  0  0  0  0  0
   59.5560   33.9120   47.8610 C   0  0  0  0  0  0  0  0  0  0  0  0
   60.6270   33.8210   48.7540 C   0  0  0  0  0  0  0  0  0  0  0  0
   61.9490   33.7430   48.2760 C   0  0  0  0  0  0  0  0  0  0  0  0
   63.1020   33.6500   49.2060 C   0  0  0  0  0  0  0  0  0  0  0  0
   63.1880   34.1640   50.4870 C   0  0  0  0  0  0  0  0  0  0  0  0
   64.3740   33.8630   50.9550 O   0  0  0  0  0  0  0  0  0  0  0  0
   65.0000   33.1880   50.0200 C   0  0  0  0  0  0  0  0  0  0  0  0
   66.3940   32.6790   50.1600 C   0  0  0  0  0  0  0  0  0  0  0  0
   64.2590   33.0270   48.9050 N   0  0  0  0  0  0  0  0  0  0  0  0
   62.1690   33.7540   46.8870 C   0  0  0  0  0  0  0  0  0  0  0  0
   61.0950   33.8440   45.9970 C   0  0  0  0  0  0  0  0  0  0  0  0
   58.2570   30.6680   45.6680 C   0  0  0  0  0  0  0  0  0  0  0  0
   57.6710   29.4310   45.9980 C   0  0  0  0  0  0  0  0  0  0  0  0
   58.1310   28.6500   47.0700 O   0  0  0  0  0  0  0  0  0  0  0  0
   59.2640   28.9690   47.8730 C   0  0  0  0  0  0  0  0  0  0  0  0
   56.9055   26.2348   46.7402 H   0  0  0  0  0  0  0  0  0  0  0  0
   56.1838   25.6913   45.1877 H   0  0  0  0  0  0  0  0  0  0  0  0
   57.7278   26.6093   45.1877 H   0  0  0  0  0  0  0  0  0  0  0  0
   55.2636   29.3394   43.5634 H   0  0  0  0  0  0  0  0  0  0  0  0
   56.3155   31.5205   42.9873 H   0  0  0  0  0  0  0  0  0  0  0  0
   58.5272   33.9722   48.2457 H   0  0  0  0  0  0  0  0  0  0  0  0
   60.4360   33.8102   49.8372 H   0  0  0  0  0  0  0  0  0  0  0  0
   62.4032   34.7239   51.0167 H   0  0  0  0  0  0  0  0  0  0  0  0
   66.6454   32.5872   51.2269 H   0  0  0  0  0  0  0  0  0  0  0  0
   66.4746   31.6934   49.6782 H   0  0  0  0  0  0  0  0  0  0  0  0
   67.0907   33.3808   49.6782 H   0  0  0  0  0  0  0  0  0  0  0  0
   63.1958   33.6912   46.4974 H   0  0  0  0  0  0  0  0  0  0  0  0
   61.2805   33.8496   44.9128 H   0  0  0  0  0  0  0  0  0  0  0  0
   59.1030   31.0442   46.2620 H   0  0  0  0  0  0  0  0  0  0  0  0
   58.9930   28.8927   48.9364 H   0  0  0  0  0  0  0  0  0  0  0  0
   60.0803   28.2658   47.6513 H   0  0  0  0  0  0  0  0  0  0  0  0
   59.5934   29.9948   47.6513 H   0  0  0  0  0  0  0  0  0  0  0  0
  1  2  1  0
  2  3  1  0
  3  4  2  0
  4  5  1  0
  5  6  2  0
  6  7  1  0
  7  8  1  0
  8  9  2  0
  8 10  2  0
  8 11  1  0
 11 12  2  0
 12 13  1  0
 13 14  2  0
 14 15  1  0
 15 16  2  0
 16 17  1  0
 17 18  1  0
 18 19  1  0
 18 20  2  0
 14 21  1  0
 21 22  2  0
  6 23  1  0
 23 24  2  0
 24 25  1  0
 25 26  1  0
 24  3  1  0
 22 11  1  0
 20 15  1  0
  1 27  1  0
  1 28  1  0
  1 29  1  0
  4 30  1  0
  5 31  1  0
 12 32  1  0
 13 33  1  0
 16 34  1  0
 19 35  1  0
 19 36  1  0
 19 37  1  0
 21 38  1  0
 22 39  1  0
 23 40  1  0
 26 41  1  0
 26 42  1  0
 26 43  1  0
M  CHG  1   7  -1
M  END
>  <UniqueID>  (8) 
6

>  <SMILES>  (8) 
COc1ccc([N-]S(=O)(=O)c2ccc(-c3coc(C)n3)cc2)cc1OC

>  <Energy>  (8) 
76.50586044896977

>  <Genealogy>  (8) 
COc1ccc([N-]S(=O)(=O)c2ccc(-c3coc(C)n3)cc2)cc1OC (protonated)
COc1ccc([N-]S(=O)(=O)c2ccc(-c3coc(C)n3)cc2)cc1OC (3D coordinates assigned)
COc1ccc([N-]S(=O)(=O)c2ccc(-c3coc(C)n3)cc2)cc1OC (optimized conformer: 76.50586044896977 kcal/mol)

>  <smiles>  (8) 
COc1ccc(NS(=O)(=O)c2ccc(-c3coc(C)n3)cc2)cc1OC

>  <score_type>  (8) 
oracle

>  <origin>  (8) 
adg

>  <m_score__min__energy>  (8) 
-8.6799999999999997

>  <m_primary>  (8) 
energy

$$$$
8:0
     RDKit          3D

 45 48  0  0  0  0  0  0  0  0999 V2000
   59.1770   29.2780   49.0340 O   0  0  0  0  0  0  0  0  0  0  0  0
   59.3750   29.7100   47.8650 C   0  0  0  0  0  0  0  0  0  0  0  0
   59.0680   28.8350   46.7070 C   0  0  0  0  0  0  0  0  0  0  0  0
   59.8950   28.8320   45.5740 C   0  0  0  0  0  0  0  0  0  0  0  0
   59.6010   28.0070   44.4880 C   0  0  0  0  0  0  0  0  0  0  0  0
   58.4840   27.1710   44.5220 C   0  0  0  0  0  0  0  0  0  0  0  0
   57.6470   27.1460   45.6520 C   0  0  0  0  0  0  0  0  0  0  0  0
   56.4570   26.2610   45.7080 C   0  0  0  0  0  0  0  0  0  0  0  0
   56.4190   24.8970   45.4800 C   0  0  0  0  0  0  0  0  0  0  0  0
   55.0940   24.5600   45.6530 C   0  0  0  0  0  0  0  0  0  0  0  0
   54.3870   25.6610   45.9640 N   0  0  0  0  0  0  0  0  0  0  0  0
   55.2140   26.6940   45.9970 N   0  0  0  0  0  0  0  0  0  0  0  0
   57.9520   27.9810   46.7430 C   0  0  0  0  0  0  0  0  0  0  0  0
   59.8960   31.0430   47.6840 N   0  0  0  0  0  0  0  0  0  0  0  0
   59.1260   32.0360   46.9690 C   0  0  0  0  0  0  0  0  0  0  0  0
   58.2100   31.6520   45.9730 C   0  0  0  0  0  0  0  0  0  0  0  0
   57.4770   32.6160   45.2760 C   0  0  0  0  0  0  0  0  0  0  0  0
   57.6510   33.9730   45.5650 C   0  0  0  0  0  0  0  0  0  0  0  0
   56.9220   34.9310   44.8710 O   0  0  0  0  0  0  0  0  0  0  0  0
   58.5570   34.3660   46.5540 C   0  0  0  0  0  0  0  0  0  0  0  0
   59.2920   33.4040   47.2530 C   0  0  0  0  0  0  0  0  0  0  0  0
   61.1530   31.3990   48.2990 C   0  0  0  0  0  0  0  0  0  0  0  0
   62.2230   31.8540   47.5130 C   0  0  0  0  0  0  0  0  0  0  0  0
   63.4400   32.2030   48.1050 C   0  0  0  0  0  0  0  0  0  0  0  0
   63.6180   32.0840   49.4940 C   0  0  0  0  0  0  0  0  0  0  0  0
   64.9130   32.5080   50.1370 C   0  0  0  0  0  0  0  0  0  0  0  0
   65.7570   33.0860   49.2040 F   0  0  0  0  0  0  0  0  0  0  0  0
   64.6470   33.4290   51.1340 F   0  0  0  0  0  0  0  0  0  0  0  0
   65.5630   31.4190   50.6920 F   0  0  0  0  0  0  0  0  0  0  0  0
   62.5380   31.6520   50.2830 C   0  0  0  0  0  0  0  0  0  0  0  0
   61.3210   31.3040   49.6900 C   0  0  0  0  0  0  0  0  0  0  0  0
   60.7804   29.4839   45.5416 H   0  0  0  0  0  0  0  0  0  0  0  0
   60.2522   28.0155   43.6015 H   0  0  0  0  0  0  0  0  0  0  0  0
   58.2567   26.5274   43.6594 H   0  0  0  0  0  0  0  0  0  0  0  0
   57.2561   24.2325   45.2198 H   0  0  0  0  0  0  0  0  0  0  0  0
   54.6786   23.5465   45.5522 H   0  0  0  0  0  0  0  0  0  0  0  0
   57.3089   27.9652   47.6353 H   0  0  0  0  0  0  0  0  0  0  0  0
   58.0698   30.5859   45.7413 H   0  0  0  0  0  0  0  0  0  0  0  0
   56.7622   32.3070   44.4990 H   0  0  0  0  0  0  0  0  0  0  0  0
   58.6919   35.4335   46.7826 H   0  0  0  0  0  0  0  0  0  0  0  0
   60.0045   33.7185   48.0298 H   0  0  0  0  0  0  0  0  0  0  0  0
   62.1029   31.9366   46.4227 H   0  0  0  0  0  0  0  0  0  0  0  0
   64.2650   32.5737   47.4789 H   0  0  0  0  0  0  0  0  0  0  0  0
   62.6513   31.5873   51.3752 H   0  0  0  0  0  0  0  0  0  0  0  0
   60.4886   30.9531   50.3176 H   0  0  0  0  0  0  0  0  0  0  0  0
  1  2  2  0
  2  3  1  0
  3  4  2  0
  4  5  1  0
  5  6  2  0
  6  7  1  0
  7  8  1  0
  8  9  1  0
  9 10  2  0
 10 11  1  0
 11 12  1  0
  7 13  2  0
  2 14  1  0
 14 15  1  0
 15 16  2  0
 16 17  1  0
 17 18  2  0
 18 19  1  0
 18 20  1  0
 20 21  2  0
 14 22  1  0
 22 23  2  0
 23 24  1  0
 24 25  2  0
 25 26  1  0
 26 27  1  0
 26 28  1  0
 26 29  1  0
 25 30  1  0
 30 31  2  0
 13  3  1  0
 21 15  1  0
 31 22  1  0
 12  8  2  0
  4 32  1  0
  5 33  1  0
  6 34  1  0
  9 35  1  0
 10 36  1  0
 13 37  1  0
 16 38  1  0
 17 39  1  0
 20 40  1  0
 21 41  1  0
 23 42  1  0
 24 43  1  0
 30 44  1  0
 31 45  1  0
M  CHG  2  11  -1  19  -1
M  END
>  <UniqueID>  (9) 
7

>  <SMILES>  (9) 
O=C(c1cccc(-c2cc[n-]n2)c1)N(c1ccc([O-])cc1)c1ccc(C(F)(F)F)cc1

>  <Energy>  (9) 
94.19786382132972

>  <Genealogy>  (9) 
O=C(c1cccc(-c2cc[n-]n2)c1)N(c1ccc([O-])cc1)c1ccc(C(F)(F)F)cc1 (protonated)
O=C(c1cccc(-c2cc[n-]n2)c1)N(c1ccc([O-])cc1)c1ccc(C(F)(F)F)cc1 (3D coordinates assigned)
O=C(c1cccc(-c2cc[n-]n2)c1)N(c1ccc([O-])cc1)c1ccc(C(F)(F)F)cc1 (optimized conformer: 94.19786382132972 kcal/mol)

>  <smiles>  (9) 
O=C(c1cccc(-c2cc[nH]n2)c1)N(c1ccc(O)cc1)c1ccc(C(F)(F)F)cc1

>  <score_type>  (9) 
oracle

>  <origin>  (9) 
adg

>  <m_score__min__energy>  (9) 
-11.630000000000001

>  <m_primary>  (9) 
energy

$$$$
9:0
     RDKit          3D

 57 60  0  0  0  0  0  0  0  0999 V2000
   66.1950   32.6390   50.4500 C   0  0  0  0  0  0  0  0  0  0  0  0
   64.9100   33.2010   50.1870 O   0  0  0  0  0  0  0  0  0  0  0  0
   63.6950   32.5300   50.4020 C   0  0  0  0  0  0  0  0  0  0  0  0
   63.4170   31.2670   49.8390 C   0  0  0  0  0  0  0  0  0  0  0  0
   62.1890   30.6440   50.0760 C   0  0  0  0  0  0  0  0  0  0  0  0
   61.2170   31.2740   50.8740 C   0  0  0  0  0  0  0  0  0  0  0  0
   59.9640   30.6480   51.1820 N   0  0  0  0  0  0  0  0  0  0  0  0
   58.9330   30.3020   50.2460 C   0  0  0  0  0  0  0  0  0  0  0  0
   57.8870   29.7230   50.6470 O   0  0  0  0  0  0  0  0  0  0  0  0
   59.1330   30.5700   48.7990 C   0  0  0  0  0  0  0  0  0  0  0  0
   59.5870   31.8400   48.4000 C   0  0  0  0  0  0  0  0  0  0  0  0
   59.8000   32.1360   47.0490 C   0  0  0  0  0  0  0  0  0  0  0  0
   60.3660   33.7450   46.5940 S   0  0  0  0  0  0  0  0  0  0  0  0
   59.7250   34.1250   45.2890 O   0  0  0  0  0  0  0  0  0  0  0  0
   59.9570   34.7530   47.6320 O   0  0  0  0  0  0  0  0  0  0  0  0
   62.0920   33.7800   46.3730 N   0  0  0  0  0  0  0  0  0  0  0  0
   62.9750   33.7740   47.3370 C   0  0  0  0  0  0  0  0  0  0  0  0
   64.2090   33.0480   47.2330 N   0  0  0  0  0  0  0  0  0  0  0  0
   62.7210   34.5270   48.5290 N   0  0  0  0  0  0  0  0  0  0  0  0
   59.5530   31.1570   46.0810 C   0  0  0  0  0  0  0  0  0  0  0  0
   59.0950   29.8950   46.4590 C   0  0  0  0  0  0  0  0  0  0  0  0
   58.8840   29.5840   47.8120 C   0  0  0  0  0  0  0  0  0  0  0  0
   58.3210   28.3080   48.1650 N   0  0  0  0  0  0  0  0  0  0  0  0
   58.3710   27.1410   47.3230 C   0  0  0  0  0  0  0  0  0  0  0  0
   59.5670   26.4290   47.1140 C   0  0  0  0  0  0  0  0  0  0  0  0
   59.5810   25.3270   46.3170 N   0  0  0  0  0  0  0  0  0  0  0  0
   58.4530   24.8620   45.7170 C   0  0  0  0  0  0  0  0  0  0  0  0
   58.5070   23.7280   44.8990 C   0  0  0  0  0  0  0  0  0  0  0  0
   57.3420   23.2410   44.2990 C   0  0  0  0  0  0  0  0  0  0  0  0
   56.1210   23.8850   44.5120 C   0  0  0  0  0  0  0  0  0  0  0  0
   56.0560   25.0240   45.3230 C   0  0  0  0  0  0  0  0  0  0  0  0
   57.2210   25.5190   45.9270 C   0  0  0  0  0  0  0  0  0  0  0  0
   57.1910   26.6620   46.7360 C   0  0  0  0  0  0  0  0  0  0  0  0
   61.5040   32.5180   51.4480 C   0  0  0  0  0  0  0  0  0  0  0  0
   62.7300   33.1450   51.2060 C   0  0  0  0  0  0  0  0  0  0  0  0
   66.3501   32.5712   51.5369 H   0  0  0  0  0  0  0  0  0  0  0  0
   66.2529   31.6334   50.0079 H   0  0  0  0  0  0  0  0  0  0  0  0
   66.9726   33.2792   50.0079 H   0  0  0  0  0  0  0  0  0  0  0  0
   64.1706   30.7701   49.2103 H   0  0  0  0  0  0  0  0  0  0  0  0
   61.9816   29.6570   49.6368 H   0  0  0  0  0  0  0  0  0  0  0  0
   59.7773   32.6115   49.1607 H   0  0  0  0  0  0  0  0  0  0  0  0
   62.4240   33.8500   45.3840 H   0  0  0  0  0  0  0  0  0  0  0  0
   64.8710   33.0430   48.0390 H   0  0  0  0  0  0  0  0  0  0  0  0
   64.5360   32.6060   46.3480 H   0  0  0  0  0  0  0  0  0  0  0  0
   63.4070   34.5160   49.3180 H   0  0  0  0  0  0  0  0  0  0  0  0
   61.8570   35.1080   48.6290 H   0  0  0  0  0  0  0  0  0  0  0  0
   59.7206   31.3833   45.0176 H   0  0  0  0  0  0  0  0  0  0  0  0
   58.8969   29.1350   45.6888 H   0  0  0  0  0  0  0  0  0  0  0  0
   57.8120   28.2410   49.0780 H   0  0  0  0  0  0  0  0  0  0  0  0
   60.4956   26.7657   47.5980 H   0  0  0  0  0  0  0  0  0  0  0  0
   59.4671   23.2192   44.7279 H   0  0  0  0  0  0  0  0  0  0  0  0
   57.3870   22.3485   43.6576 H   0  0  0  0  0  0  0  0  0  0  0  0
   55.2067   23.4955   44.0405 H   0  0  0  0  0  0  0  0  0  0  0  0
   55.0930   25.5299   45.4863 H   0  0  0  0  0  0  0  0  0  0  0  0
   56.2394   27.1852   46.9113 H   0  0  0  0  0  0  0  0  0  0  0  0
   60.7595   33.0059   52.0942 H   0  0  0  0  0  0  0  0  0  0  0  0
   62.9371   34.1293   51.6513 H   0  0  0  0  0  0  0  0  0  0  0  0
  1  2  1  0
  2  3  1  0
  3  4  2  0
  4  5  1  0
  5  6  2  0
  6  7  1  0
  7  8  1  0
  8  9  2  0
  8 10  1  0
 10 11  2  0
 11 12  1  0
 12 13  1  0
 13 14  2  0
 13 15  2  0
 13 16  1  0
 16 17  2  3
 17 18  1  0
 17 19  1  0
 12 20  2  0
 20 21  1  0
 21 22  2  0
 22 23  1  0
 23 24  1  0
 24 25  2  0
 25 26  1  0
 26 27  2  0
 27 28  1  0
 28 29  2  0
 29 30  1  0
 30 31  2  0
 31 32  1  0
 32 33  2  0
  6 34  1  0
 34 35  2  0
 35  3  1  0
 22 10  1  0
 33 24  1  0
 32 27  1  0
  1 36  1  0
  1 37  1  0
  1 38  1  0
  4 39  1  0
  5 40  1  0
 11 41  1  0
 16 42  1  0
 18 43  1  0
 18 44  1  0
 19 45  1  0
 19 46  1  0
 20 47  1  0
 21 48  1  0
 23 49  1  0
 25 50  1  0
 28 51  1  0
 29 52  1  0
 30 53  1  0
 31 54  1  0
 33 55  1  0
 34 56  1  0
 35 57  1  0
M  CHG  2   7  -1  16   1
M  END
>  <UniqueID>  (10) 
8

>  <SMILES>  (10) 
COc1ccc([N-]C(=O)c2cc(S(=O)(=O)[NH+]=C(N)N)ccc2Nc2cnc3ccccc3c2)cc1

>  <Energy>  (10) 
79.79848838164011

>  <Genealogy>  (10) 
COc1ccc([N-]C(=O)c2cc(S(=O)(=O)[NH+]=C(N)N)ccc2Nc2cnc3ccccc3c2)cc1 (protonated)
COc1ccc([N-]C(=O)c2cc(S(=O)(=O)[NH+]=C(N)N)ccc2Nc2cnc3ccccc3c2)cc1 (3D coordinates assigned)
COc1ccc([N-]C(=O)c2cc(S(=O)(=O)[NH+]=C(N)N)ccc2Nc2cnc3ccccc3c2)cc1 (optimized conformer: 79.79848838164011 kcal/mol)

>  <smiles>  (10) 
COc1ccc(NC(=O)c2cc(S(=O)(=O)N=C(N)N)ccc2Nc2cnc3ccccc3c2)cc1

>  <score_type>  (10) 
oracle

>  <origin>  (10) 
adg

>  <m_score__min__energy>  (10) 
-9.9700000000000006

>  <m_primary>  (10) 
energy

$$$$
10:0
     RDKit          3D

 37 40  0  0  0  0  0  0  0  0999 V2000
   56.2470   30.6490   43.5580 C   0  0  0  0  0  0  0  0  0  0  0  0
   56.7740   30.6510   44.8820 O   0  0  0  0  0  0  0  0  0  0  0  0
   57.9540   29.9990   45.2820 C   0  0  0  0  0  0  0  0  0  0  0  0
   59.1790   30.6940   45.3160 C   0  0  0  0  0  0  0  0  0  0  0  0
   60.3490   30.0540   45.7100 C   0  0  0  0  0  0  0  0  0  0  0  0
   60.3250   28.7140   46.0770 C   0  0  0  0  0  0  0  0  0  0  0  0
   59.1220   27.9860   46.0560 C   0  0  0  0  0  0  0  0  0  0  0  0
   59.1150   26.6320   46.4300 C   0  0  0  0  0  0  0  0  0  0  0  0
   60.3040   26.0180   46.8210 O   0  0  0  0  0  0  0  0  0  0  0  0
   57.9180   25.8930   46.4130 C   0  0  0  0  0  0  0  0  0  0  0  0
   57.9270   24.5410   46.7890 C   0  0  0  0  0  0  0  0  0  0  0  0
   56.7540   23.7830   46.7820 C   0  0  0  0  0  0  0  0  0  0  0  0
   56.7990   22.4340   47.1640 C   0  0  0  0  0  0  0  0  0  0  0  0
   55.6420   21.6610   47.1640 C   0  0  0  0  0  0  0  0  0  0  0  0
   54.4170   22.2180   46.7820 C   0  0  0  0  0  0  0  0  0  0  0  0
   53.1730   21.3740   46.7860 C   0  0  0  0  0  0  0  0  0  0  0  0
   54.3550   23.5700   46.3960 C   0  0  0  0  0  0  0  0  0  0  0  0
   53.1220   24.1000   46.0210 O   0  0  0  0  0  0  0  0  0  0  0  0
   55.5270   24.3710   46.3910 C   0  0  0  0  0  0  0  0  0  0  0  0
   55.5100   25.7360   46.0100 C   0  0  0  0  0  0  0  0  0  0  0  0
   54.3060   26.3220   45.6240 O   0  0  0  0  0  0  0  0  0  0  0  0
   56.7040   26.5070   46.0170 C   0  0  0  0  0  0  0  0  0  0  0  0
   56.7140   27.8760   45.6400 C   0  0  0  0  0  0  0  0  0  0  0  0
   55.5270   28.4900   45.2500 O   0  0  0  0  0  0  0  0  0  0  0  0
   57.9180   28.6250   45.6560 C   0  0  0  0  0  0  0  0  0  0  0  0
   55.1478   30.6448   43.6009 H   0  0  0  0  0  0  0  0  0  0  0  0
   56.5898   31.5485   43.0256 H   0  0  0  0  0  0  0  0  0  0  0  0
   56.5966   29.7522   43.0256 H   0  0  0  0  0  0  0  0  0  0  0  0
   59.2103   31.7551   45.0276 H   0  0  0  0  0  0  0  0  0  0  0  0
   61.2974   30.6108   45.7312 H   0  0  0  0  0  0  0  0  0  0  0  0
   61.2564   28.2177   46.3871 H   0  0  0  0  0  0  0  0  0  0  0  0
   58.8733   24.0706   47.0942 H   0  0  0  0  0  0  0  0  0  0  0  0
   57.7562   21.9838   47.4658 H   0  0  0  0  0  0  0  0  0  0  0  0
   55.6910   20.6045   47.4665 H   0  0  0  0  0  0  0  0  0  0  0  0
   52.8719   21.1697   47.8241 H   0  0  0  0  0  0  0  0  0  0  0  0
   52.3642   21.9106   46.2684 H   0  0  0  0  0  0  0  0  0  0  0  0
   53.3727   20.4241   46.2684 H   0  0  0  0  0  0  0  0  0  0  0  0
  1  2  1  0
  2  3  1  0
  3  4  2  0
  4  5  1  0
  5  6  2  0
  6  7  1  0
  7  8  2  0
  8  9  1  0
  8 10  1  0
 10 11  2  0
 11 12  1  0
 12 13  2  0
 13 14  1  0
 14 15  2  0
 15 16  1  0
 15 17  1  0
 17 18  1  0
 17 19  2  0
 19 20  1  0
 20 21  1  0
 20 22  2  0
 22 23  1  0
 23 24  1  0
 23 25  2  0
 25  3  1  0
 25  7  1  0
 22 10  1  0
 19 12  1  0
  1 26  1  0
  1 27  1  0
  1 28  1  0
  4 29  1  0
  5 30  1  0
  6 31  1  0
 11 32  1  0
 13 33  1  0
 14 34  1  0
 16 35  1  0
 16 36  1  0
 16 37  1  0
M  CHG  4   9  -1  18  -1  21  -1  24  -1
M  END
>  <UniqueID>  (11) 
9

>  <SMILES>  (11) 
COc1cccc2c([O-])c3cc4ccc(C)c([O-])c4c([O-])c3c([O-])c12

>  <Energy>  (11) 
63.62650165599144

>  <Genealogy>  (11) 
COc1cccc2c([O-])c3cc4ccc(C)c([O-])c4c([O-])c3c([O-])c12 (protonated)
COc1cccc2c([O-])c3cc4ccc(C)c([O-])c4c([O-])c3c([O-])c12 (3D coordinates assigned)
COc1cccc2c([O-])c3cc4ccc(C)c([O-])c4c([O-])c3c([O-])c12 (optimized conformer: 63.62650165599144 kcal/mol)

>  <smiles>  (11) 
COc1cccc2c(O)c3cc4ccc(C)c(O)c4c(O)c3c(O)c12

>  <score_type>  (11) 
oracle

>  <origin>  (11) 
adg

>  <m_score__min__energy>  (11) 
-17.52

>  <m_primary>  (11) 
energy

$$$$
11:0
     RDKit          3D

 33 34  0  0  0  0  0  0  0  0999 V2000
   57.2400   23.5780   45.0260 C   0  0  0  0  0  0  0  0  0  0  0  0
   57.0120   24.5530   46.0390 O   0  0  0  0  0  0  0  0  0  0  0  0
   57.4350   25.8880   45.9660 C   0  0  0  0  0  0  0  0  0  0  0  0
   58.7810   26.1690   46.2050 C   0  0  0  0  0  0  0  0  0  0  0  0
   59.2540   27.4810   46.1520 C   0  0  0  0  0  0  0  0  0  0  0  0
   58.3820   28.5430   45.8660 C   0  0  0  0  0  0  0  0  0  0  0  0
   58.9170   29.9210   45.8320 C   0  0  0  0  0  0  0  0  0  0  0  0
   60.1590   30.0920   45.6910 O   0  0  0  0  0  0  0  0  0  0  0  0
   58.0390   31.0520   45.9680 N   0  0  0  0  0  0  0  0  0  0  0  0
   58.4800   32.4170   45.8710 C   0  0  0  0  0  0  0  0  0  0  0  0
   58.8970   33.1240   47.0100 C   0  0  0  0  0  0  0  0  0  0  0  0
   59.2910   34.4580   46.9010 C   0  0  0  0  0  0  0  0  0  0  0  0
   59.2560   35.0810   45.6530 C   0  0  0  0  0  0  0  0  0  0  0  0
   58.8350   34.3920   44.5610 N   0  0  0  0  0  0  0  0  0  0  0  0
   58.4430   33.0910   44.6370 C   0  0  0  0  0  0  0  0  0  0  0  0
   57.9320   32.2780   43.1660 Cl  0  0  0  0  0  0  0  0  0  0  0  0
   57.0240   28.2730   45.5910 C   0  0  0  0  0  0  0  0  0  0  0  0
   56.1760   29.3340   45.2310 O   0  0  0  0  0  0  0  0  0  0  0  0
   55.8970   29.7340   43.8930 C   0  0  0  0  0  0  0  0  0  0  0  0
   56.5570   26.9440   45.6570 C   0  0  0  0  0  0  0  0  0  0  0  0
   57.4666   22.6088   45.4943 H   0  0  0  0  0  0  0  0  0  0  0  0
   56.3402   23.4816   44.4007 H   0  0  0  0  0  0  0  0  0  0  0  0
   58.0893   23.8906   44.4007 H   0  0  0  0  0  0  0  0  0  0  0  0
   59.4758   25.3485   46.4374 H   0  0  0  0  0  0  0  0  0  0  0  0
   60.3193   27.6845   46.3359 H   0  0  0  0  0  0  0  0  0  0  0  0
   57.0180   30.8800   46.1030 H   0  0  0  0  0  0  0  0  0  0  0  0
   58.9131   32.6252   47.9903 H   0  0  0  0  0  0  0  0  0  0  0  0
   59.6258   35.0129   47.7898 H   0  0  0  0  0  0  0  0  0  0  0  0
   59.5695   36.1307   45.5536 H   0  0  0  0  0  0  0  0  0  0  0  0
   55.2677   30.6362   43.9037 H   0  0  0  0  0  0  0  0  0  0  0  0
   56.8405   29.9512   43.3709 H   0  0  0  0  0  0  0  0  0  0  0  0
   55.3672   28.9236   43.3709 H   0  0  0  0  0  0  0  0  0  0  0  0
   55.4952   26.7302   45.4650 H   0  0  0  0  0  0  0  0  0  0  0  0
  1  2  1  0
  2  3  1  0
  3  4  2  0
  4  5  1  0
  5  6  2  0
  6  7  1  0
  7  8  2  0
  7  9  1  0
  9 10  1  0
 10 11  2  0
 11 12  1  0
 12 13  2  0
 13 14  1  0
 14 15  2  0
 15 16  1  0
  6 17  1  0
 17 18  1  0
 18 19  1  0
 17 20  2  0
 20  3  1  0
 15 10  1  0
  1 21  1  0
  1 22  1  0
  1 23  1  0
  4 24  1  0
  5 25  1  0
  9 26  1  0
 11 27  1  0
 12 28  1  0
 13 29  1  0
 19 30  1  0
 19 31  1  0
 19 32  1  0
 20 33  1  0
M  END
>  <UniqueID>  (12) 
10

>  <SMILES>  (12) 
COc1ccc(C(=O)Nc2cccnc2Cl)c(OC)c1

>  <Energy>  (12) 
42.300216121878314

>  <Genealogy>  (12) 
COc1ccc(C(=O)Nc2cccnc2Cl)c(OC)c1 (3D coordinates assigned)
COc1ccc(C(=O)Nc2cccnc2Cl)c(OC)c1 (optimized conformer: 42.300216121878314 kcal/mol)

>  <smiles>  (12) 
COc1ccc(C(=O)Nc2cccnc2Cl)c(OC)c1

>  <score_type>  (12) 
oracle

>  <origin>  (12) 
adg

>  <m_score__min__energy>  (12) 
-5.9400000000000004

>  <m_primary>  (12) 
energy

$$$$
12:0
     RDKit          3D

 34 36  0  0  0  0  0  0  0  0999 V2000
   59.7320   33.5690   48.1670 C   0  0  0  0  0  0  0  0  0  0  0  0
   59.1070   33.4150   46.8120 C   0  0  0  0  0  0  0  0  0  0  0  0
   58.4920   34.5100   46.1870 C   0  0  0  0  0  0  0  0  0  0  0  0
   57.8740   34.3550   44.9440 C   0  0  0  0  0  0  0  0  0  0  0  0
   57.8600   33.1050   44.3200 C   0  0  0  0  0  0  0  0  0  0  0  0
   58.4620   32.0000   44.9310 C   0  0  0  0  0  0  0  0  0  0  0  0
   58.4140   30.7610   44.2750 O   0  0  0  0  0  0  0  0  0  0  0  0
   57.8210   29.6080   44.8060 C   0  0  0  0  0  0  0  0  0  0  0  0
   56.4280   29.3970   44.7400 C   0  0  0  0  0  0  0  0  0  0  0  0
   55.5080   30.4020   44.1140 C   0  0  0  0  0  0  0  0  0  0  0  0
   55.8960   28.2530   45.2470 N   0  0  0  0  0  0  0  0  0  0  0  0
   56.6560   27.3020   45.8490 C   0  0  0  0  0  0  0  0  0  0  0  0
   56.0540   26.1450   46.3550 C   0  0  0  0  0  0  0  0  0  0  0  0
   56.8310   25.1660   46.9820 C   0  0  0  0  0  0  0  0  0  0  0  0
   56.2290   24.0190   47.4840 O   0  0  0  0  0  0  0  0  0  0  0  0
   58.2120   25.3420   47.1070 C   0  0  0  0  0  0  0  0  0  0  0  0
   58.8240   26.4950   46.6040 C   0  0  0  0  0  0  0  0  0  0  0  0
   58.0530   27.4850   45.9690 C   0  0  0  0  0  0  0  0  0  0  0  0
   58.6290   28.6560   45.4430 C   0  0  0  0  0  0  0  0  0  0  0  0
   59.8720   28.8550   45.5290 O   0  0  0  0  0  0  0  0  0  0  0  0
   59.0720   32.1560   46.1900 C   0  0  0  0  0  0  0  0  0  0  0  0
   58.9752   33.3825   48.9432 H   0  0  0  0  0  0  0  0  0  0  0  0
   60.5544   32.8466   48.2757 H   0  0  0  0  0  0  0  0  0  0  0  0
   60.1247   34.5908   48.2757 H   0  0  0  0  0  0  0  0  0  0  0  0
   58.4965   35.4945   46.6777 H   0  0  0  0  0  0  0  0  0  0  0  0
   57.3978   35.2181   44.4558 H   0  0  0  0  0  0  0  0  0  0  0  0
   57.3720   32.9889   43.3410 H   0  0  0  0  0  0  0  0  0  0  0  0
   54.9907   30.9671   44.9033 H   0  0  0  0  0  0  0  0  0  0  0  0
   56.0917   31.0945   43.4897 H   0  0  0  0  0  0  0  0  0  0  0  0
   54.7667   29.8816   43.4897 H   0  0  0  0  0  0  0  0  0  0  0  0
   54.9671   26.0051   46.2594 H   0  0  0  0  0  0  0  0  0  0  0  0
   58.8199   24.5709   47.6028 H   0  0  0  0  0  0  0  0  0  0  0  0
   59.9113   26.6276   46.7054 H   0  0  0  0  0  0  0  0  0  0  0  0
   59.5241   31.2866   46.6898 H   0  0  0  0  0  0  0  0  0  0  0  0
  1  2  1  0
  2  3  2  0
  3  4  1  0
  4  5  2  0
  5  6  1  0
  6  7  1  0
  7  8  1  0
  8  9  2  0
  9 10  1  0
  9 11  1  0
 11 12  1  0
 12 13  2  0
 13 14  1  0
 14 15  1  0
 14 16  2  0
 16 17  1  0
 17 18  2  0
 18 19  1  0
 19 20  2  0
  6 21  2  0
 21  2  1  0
 19  8  1  0
 18 12  1  0
  1 22  1  0
  1 23  1  0
  1 24  1  0
  3 25  1  0
  4 26  1  0
  5 27  1  0
 10 28  1  0
 10 29  1  0
 10 30  1  0
 13 31  1  0
 16 32  1  0
 17 33  1  0
 21 34  1  0
M  CHG  2  11  -1  15  -1
M  END
>  <UniqueID>  (13) 
11

>  <SMILES>  (13) 
Cc1cccc(Oc2c(C)[n-]c3cc([O-])ccc3c2=O)c1

>  <Energy>  (13) 
48.08717982124395

>  <Genealogy>  (13) 
Cc1cccc(Oc2c(C)[n-]c3cc([O-])ccc3c2=O)c1 (protonated)
Cc1cccc(Oc2c(C)[n-]c3cc([O-])ccc3c2=O)c1 (3D coordinates assigned)
Cc1cccc(Oc2c(C)[n-]c3cc([O-])ccc3c2=O)c1 (optimized conformer: 48.08717982124395 kcal/mol)

>  <smiles>  (13) 
Cc1cccc(Oc2c(C)[nH]c3cc(O)ccc3c2=O)c1

>  <score_type>  (13) 
oracle

>  <origin>  (13) 
adg

>  <m_score__min__energy>  (13) 
-10.5

>  <m_primary>  (13) 
energy

$$$$
13:0
     RDKit          3D

 55 59  0  0  0  0  0  0  0  0999 V2000
   56.9730   20.8570   42.9910 C   0  0  0  0  0  0  0  0  0  0  0  0
   55.9180   21.7710   43.2750 O   0  0  0  0  0  0  0  0  0  0  0  0
   56.0920   23.0040   43.9200 C   0  0  0  0  0  0  0  0  0  0  0  0
   55.3190   23.2720   45.0710 C   0  0  0  0  0  0  0  0  0  0  0  0
   55.4500   24.4900   45.7600 C   0  0  0  0  0  0  0  0  0  0  0  0
   56.3590   25.4350   45.2880 C   0  0  0  0  0  0  0  0  0  0  0  0
   56.5750   26.6450   45.8620 N   0  0  0  0  0  0  0  0  0  0  0  0
   57.5140   27.3530   45.1820 C   0  0  0  0  0  0  0  0  0  0  0  0
   57.9410   28.6760   45.5750 N   0  0  0  0  0  0  0  0  0  0  0  0
   58.7650   28.8380   46.7850 C   0  0  0  0  0  0  0  0  0  0  0  0
   59.7350   30.0120   46.6300 C   0  0  0  0  0  0  0  0  0  0  0  0
   59.0070   31.1850   46.1400 N   0  0  0  0  0  0  0  0  0  0  0  0
   58.7390   32.3020   47.0070 C   0  0  0  0  0  0  0  0  0  0  0  0
   57.5630   32.7520   47.0890 O   0  0  0  0  0  0  0  0  0  0  0  0
   59.8200   32.9420   47.7940 C   0  0  0  0  0  0  0  0  0  0  0  0
   59.6460   33.2210   49.1600 C   0  0  0  0  0  0  0  0  0  0  0  0
   60.6730   33.8140   49.8990 C   0  0  0  0  0  0  0  0  0  0  0  0
   61.8900   34.1410   49.2850 C   0  0  0  0  0  0  0  0  0  0  0  0
   63.0100   34.7360   50.0920 C   0  0  0  0  0  0  0  0  0  0  0  0
   64.0150   33.7150   50.3740 N   0  0  0  0  0  0  0  0  0  0  0  0
   64.7920   33.0940   49.4670 C   0  0  0  0  0  0  0  0  0  0  0  0
   65.5480   32.1400   50.1210 C   0  0  0  0  0  0  0  0  0  0  0  0
   65.1660   32.2270   51.4480 C   0  0  0  0  0  0  0  0  0  0  0  0
   64.2330   33.1870   51.5670 N   0  0  0  0  0  0  0  0  0  0  0  0
   62.0790   33.8380   47.9280 C   0  0  0  0  0  0  0  0  0  0  0  0
   61.0520   33.2450   47.1880 C   0  0  0  0  0  0  0  0  0  0  0  0
   58.2690   31.0230   44.8860 C   0  0  0  0  0  0  0  0  0  0  0  0
   57.2750   29.8690   45.0230 C   0  0  0  0  0  0  0  0  0  0  0  0
   58.1040   26.4890   43.8430 S   0  0  0  0  0  0  0  0  0  0  0  0
   57.1160   25.1710   44.1590 C   0  0  0  0  0  0  0  0  0  0  0  0
   57.0100   23.9750   43.4550 C   0  0  0  0  0  0  0  0  0  0  0  0
   57.4008   20.4863   43.9342 H   0  0  0  0  0  0  0  0  0  0  0  0
   56.5783   20.0106   42.4098 H   0  0  0  0  0  0  0  0  0  0  0  0
   57.7545   21.3682   42.4098 H   0  0  0  0  0  0  0  0  0  0  0  0
   54.6050   22.5176   45.4331 H   0  0  0  0  0  0  0  0  0  0  0  0
   54.8456   24.6938   46.6562 H   0  0  0  0  0  0  0  0  0  0  0  0
   58.1073   29.0252   47.6466 H   0  0  0  0  0  0  0  0  0  0  0  0
   59.3476   27.9179   46.9402 H   0  0  0  0  0  0  0  0  0  0  0  0
   60.1896   30.2433   47.6046 H   0  0  0  0  0  0  0  0  0  0  0  0
   60.5240   29.7436   45.9120 H   0  0  0  0  0  0  0  0  0  0  0  0
   58.6942   32.9707   49.6514 H   0  0  0  0  0  0  0  0  0  0  0  0
   60.5257   34.0254   50.9684 H   0  0  0  0  0  0  0  0  0  0  0  0
   63.4729   35.5566   49.5243 H   0  0  0  0  0  0  0  0  0  0  0  0
   62.6083   35.1212   51.0408 H   0  0  0  0  0  0  0  0  0  0  0  0
   64.8203   33.3094   48.3887 H   0  0  0  0  0  0  0  0  0  0  0  0
   66.2921   31.4591   49.6819 H   0  0  0  0  0  0  0  0  0  0  0  0
   65.5608   31.6119   52.2700 H   0  0  0  0  0  0  0  0  0  0  0  0
   63.7420   33.4660   52.4460 H   0  0  0  0  0  0  0  0  0  0  0  0
   63.0398   34.0682   47.4443 H   0  0  0  0  0  0  0  0  0  0  0  0
   61.2088   33.0138   46.1241 H   0  0  0  0  0  0  0  0  0  0  0  0
   57.7239   31.9511   44.6592 H   0  0  0  0  0  0  0  0  0  0  0  0
   58.9750   30.8031   44.0716 H   0  0  0  0  0  0  0  0  0  0  0  0
   56.4593   30.1720   45.6959 H   0  0  0  0  0  0  0  0  0  0  0  0
   56.8751   29.6243   44.0279 H   0  0  0  0  0  0  0  0  0  0  0  0
   57.6235   23.7897   42.5610 H   0  0  0  0  0  0  0  0  0  0  0  0
  1  2  1  0
  2  3  1  0
  3  4  2  0
  4  5  1  0
  5  6  2  0
  6  7  1  0
  7  8  2  0
  8  9  1  0
  9 10  1  0
 10 11  1  0
 11 12  1  0
 12 13  1  0
 13 14  2  0
 13 15  1  0
 15 16  2  0
 16 17  1  0
 17 18  2  0
 18 19  1  0
 19 20  1  0
 20 21  1  0
 21 22  2  0
 22 23  1  0
 23 24  2  0
 18 25  1  0
 25 26  2  0
 12 27  1  0
 27 28  1  0
  8 29  1  0
 29 30  1  0
 30 31  2  0
 31  3  1  0
 30  6  1  0
 28  9  1  0
 26 15  1  0
 24 20  1  0
  1 32  1  0
  1 33  1  0
  1 34  1  0
  4 35  1  0
  5 36  1  0
 10 37  1  0
 10 38  1  0
 11 39  1  0
 11 40  1  0
 16 41  1  0
 17 42  1  0
 19 43  1  0
 19 44  1  0
 21 45  1  0
 22 46  1  0
 23 47  1  0
 24 48  1  0
 25 49  1  0
 26 50  1  0
 27 51  1  0
 27 52  1  0
 28 53  1  0
 28 54  1  0
 31 55  1  0
M  CHG  1  24   1
M  END
>  <UniqueID>  (14) 
12

>  <SMILES>  (14) 
COc1ccc2nc(N3CCN(C(=O)c4ccc(Cn5ccc[nH+]5)cc4)CC3)sc2c1

>  <Energy>  (14) 
127.20587619109833

>  <Genealogy>  (14) 
COc1ccc2nc(N3CCN(C(=O)c4ccc(Cn5ccc[nH+]5)cc4)CC3)sc2c1 (protonated)
COc1ccc2nc(N3CCN(C(=O)c4ccc(Cn5ccc[nH+]5)cc4)CC3)sc2c1 (3D coordinates assigned)
COc1ccc2nc(N3CCN(C(=O)c4ccc(Cn5ccc[nH+]5)cc4)CC3)sc2c1 (nonaromatic ring conformer: 127.20587619109833 kcal/mol)

>  <smiles>  (14) 
COc1ccc2nc(N3CCN(C(=O)c4ccc(Cn5cccn5)cc4)CC3)sc2c1

>  <score_type>  (14) 
oracle

>  <origin>  (14) 
adg

>  <m_score__min__energy>  (14) 
-7.3700000000000001

>  <m_primary>  (14) 
energy

$$$$
14:0
     RDKit          3D

 31 33  0  0  0  0  0  0  0  0999 V2000
   59.4970   22.1300   44.7560 C   0  0  0  0  0  0  0  0  0  0  0  0
   58.3040   23.0230   44.8150 C   0  0  0  0  0  0  0  0  0  0  0  0
   57.3940   23.2340   43.7850 C   0  0  0  0  0  0  0  0  0  0  0  0
   56.4320   24.1550   44.0580 N   0  0  0  0  0  0  0  0  0  0  0  0
   56.5830   24.6830   45.2910 C   0  0  0  0  0  0  0  0  0  0  0  0
   55.4890   25.9200   45.9750 S   0  0  0  0  0  0  0  0  0  0  0  0
   56.6750   27.2310   45.7010 C   0  0  0  0  0  0  0  0  0  0  0  0
   58.0380   27.1600   45.9160 C   0  0  0  0  0  0  0  0  0  0  0  0
   58.5330   28.4070   45.5840 C   0  0  0  0  0  0  0  0  0  0  0  0
   59.8720   28.7710   45.7080 O   0  0  0  0  0  0  0  0  0  0  0  0
   57.5410   29.2280   45.1660 N   0  0  0  0  0  0  0  0  0  0  0  0
   57.6560   30.5860   44.7120 C   0  0  0  0  0  0  0  0  0  0  0  0
   57.8300   31.6320   45.6330 C   0  0  0  0  0  0  0  0  0  0  0  0
   57.9560   32.9510   45.1860 C   0  0  0  0  0  0  0  0  0  0  0  0
   57.9170   33.2340   43.8180 C   0  0  0  0  0  0  0  0  0  0  0  0
   57.7530   32.1970   42.8940 C   0  0  0  0  0  0  0  0  0  0  0  0
   57.7160   32.4720   41.5660 F   0  0  0  0  0  0  0  0  0  0  0  0
   57.6260   30.8760   43.3380 C   0  0  0  0  0  0  0  0  0  0  0  0
   56.4070   28.5030   45.2440 C   0  0  0  0  0  0  0  0  0  0  0  0
   55.1480   28.9770   44.8920 O   0  0  0  0  0  0  0  0  0  0  0  0
   57.9140   24.0420   46.0950 S   0  0  0  0  0  0  0  0  0  0  0  0
   59.8232   21.8859   45.7778 H   0  0  0  0  0  0  0  0  0  0  0  0
   59.2357   21.2037   44.2234 H   0  0  0  0  0  0  0  0  0  0  0  0
   60.3121   22.6418   44.2234 H   0  0  0  0  0  0  0  0  0  0  0  0
   57.4482   22.6984   42.8257 H   0  0  0  0  0  0  0  0  0  0  0  0
   58.6098   26.2921   46.2762 H   0  0  0  0  0  0  0  0  0  0  0  0
   60.5410   28.6110   44.9660 H   0  0  0  0  0  0  0  0  0  0  0  0
   57.8673   31.4128   46.7103 H   0  0  0  0  0  0  0  0  0  0  0  0
   58.0860   33.7670   45.9122 H   0  0  0  0  0  0  0  0  0  0  0  0
   58.0153   34.2722   43.4680 H   0  0  0  0  0  0  0  0  0  0  0  0
   57.5023   30.0620   42.6085 H   0  0  0  0  0  0  0  0  0  0  0  0
  1  2  1  0
  2  3  2  0
  3  4  1  0
  4  5  2  0
  5  6  1  0
  6  7  1  0
  7  8  1  0
  8  9  2  0
  9 10  1  0
  9 11  1  0
 11 12  1  0
 12 13  2  0
 13 14  1  0
 14 15  2  0
 15 16  1  0
 16 17  1  0
 16 18  2  0
 11 19  1  0
 19 20  1  0
  5 21  1  0
 21  2  1  0
 19  7  2  0
 18 12  1  0
  1 22  1  0
  1 23  1  0
  1 24  1  0
  3 25  1  0
  8 26  1  0
 10 27  1  0
 13 28  1  0
 14 29  1  0
 15 30  1  0
 18 31  1  0
M  CHG  1  20  -1
M  END
>  <UniqueID>  (15) 
13

>  <SMILES>  (15) 
Cc1cnc(Sc2cc(O)n(-c3cccc(F)c3)c2[O-])s1

>  <Energy>  (15) 
92.19590734802107

>  <Genealogy>  (15) 
Cc1cnc(Sc2cc(O)n(-c3cccc(F)c3)c2[O-])s1 (protonated)
Cc1cnc(Sc2cc(O)n(-c3cccc(F)c3)c2[O-])s1 (3D coordinates assigned)
Cc1cnc(Sc2cc(O)n(-c3cccc(F)c3)c2[O-])s1 (optimized conformer: 92.19590734802107 kcal/mol)

>  <smiles>  (15) 
Cc1cnc(Sc2cc(O)n(-c3cccc(F)c3)c2O)s1

>  <score_type>  (15) 
oracle

>  <origin>  (15) 
adg

>  <m_score__min__energy>  (15) 
-9.75

>  <m_primary>  (15) 
energy

$$$$
15:0
     RDKit          3D

 40 42  0  0  0  0  0  0  0  0999 V2000
   60.9540   33.8780   48.6800 C   0  0  0  0  0  0  0  0  0  0  0  0
   61.4350   33.2290   47.4620 N   0  0  0  0  0  0  0  0  0  0  0  0
   62.8080   33.4840   47.0280 C   0  0  0  0  0  0  0  0  0  0  0  0
   60.7570   32.0520   46.9920 C   0  0  0  0  0  0  0  0  0  0  0  0
   61.3330   30.7960   47.2200 C   0  0  0  0  0  0  0  0  0  0  0  0
   60.6910   29.6370   46.7980 C   0  0  0  0  0  0  0  0  0  0  0  0
   59.4630   29.7090   46.1430 C   0  0  0  0  0  0  0  0  0  0  0  0
   58.8520   30.9550   45.8890 C   0  0  0  0  0  0  0  0  0  0  0  0
   57.6020   31.0570   45.2180 C   0  0  0  0  0  0  0  0  0  0  0  0
   56.7030   29.6310   44.6660 S   0  0  0  0  0  0  0  0  0  0  0  0
   57.1710   29.2570   43.2880 O   0  0  0  0  0  0  0  0  0  0  0  0
   55.2300   29.9300   44.6230 O   0  0  0  0  0  0  0  0  0  0  0  0
   56.9830   28.3250   45.7740 N   0  0  0  0  0  0  0  0  0  0  0  0
   56.6230   27.0970   45.5590 C   0  0  0  0  0  0  0  0  0  0  0  0
   55.5210   26.5590   46.1220 N   0  0  0  0  0  0  0  0  0  0  0  0
   55.3250   25.2880   45.7780 N   0  0  0  0  0  0  0  0  0  0  0  0
   56.2720   24.8130   44.9390 C   0  0  0  0  0  0  0  0  0  0  0  0
   56.2890   23.1750   44.3190 S   0  0  0  0  0  0  0  0  0  0  0  0
   56.6610   23.1900   42.6310 N   0  0  0  0  0  0  0  0  0  0  0  0
   57.3330   22.3770   45.0480 O   0  0  0  0  0  0  0  0  0  0  0  0
   54.9440   22.5420   44.5380 O   0  0  0  0  0  0  0  0  0  0  0  0
   57.4290   25.9820   44.5760 S   0  0  0  0  0  0  0  0  0  0  0  0
   57.0500   32.3240   44.9820 C   0  0  0  0  0  0  0  0  0  0  0  0
   57.7100   33.4790   45.3920 C   0  0  0  0  0  0  0  0  0  0  0  0
   58.9320   33.3940   46.0530 C   0  0  0  0  0  0  0  0  0  0  0  0
   59.5160   32.1420   46.3190 C   0  0  0  0  0  0  0  0  0  0  0  0
   61.3480   33.3465   49.5588 H   0  0  0  0  0  0  0  0  0  0  0  0
   61.2976   34.9228   48.6990 H   0  0  0  0  0  0  0  0  0  0  0  0
   59.8544   33.8532   48.6990 H   0  0  0  0  0  0  0  0  0  0  0  0
   63.4549   33.6041   47.9095 H   0  0  0  0  0  0  0  0  0  0  0  0
   63.1650   32.6368   46.4240 H   0  0  0  0  0  0  0  0  0  0  0  0
   62.8369   34.4029   46.4240 H   0  0  0  0  0  0  0  0  0  0  0  0
   62.3013   30.7257   47.7372 H   0  0  0  0  0  0  0  0  0  0  0  0
   61.1554   28.6570   46.9823 H   0  0  0  0  0  0  0  0  0  0  0  0
   58.9642   28.7833   45.8202 H   0  0  0  0  0  0  0  0  0  0  0  0
   56.1210   22.4120   42.1920 H   0  0  0  0  0  0  0  0  0  0  0  0
   56.2770   24.0800   42.2420 H   0  0  0  0  0  0  0  0  0  0  0  0
   56.0821   32.4065   44.4658 H   0  0  0  0  0  0  0  0  0  0  0  0
   57.2634   34.4643   45.1925 H   0  0  0  0  0  0  0  0  0  0  0  0
   59.4455   34.3136   46.3701 H   0  0  0  0  0  0  0  0  0  0  0  0
  1  2  1  0
  2  3  1  0
  2  4  1  0
  4  5  2  0
  5  6  1  0
  6  7  2  0
  7  8  1  0
  8  9  2  0
  9 10  1  0
 10 11  2  0
 10 12  2  0
 10 13  1  0
 13 14  2  3
 14 15  1  0
 15 16  1  0
 16 17  2  0
 17 18  1  0
 18 19  1  0
 18 20  2  0
 18 21  2  0
 17 22  1  0
  9 23  1  0
 23 24  2  0
 24 25  1  0
 25 26  2  0
 26  4  1  0
 26  8  1  0
 22 14  1  0
  1 27  1  0
  1 28  1  0
  1 29  1  0
  3 30  1  0
  3 31  1  0
  3 32  1  0
  5 33  1  0
  6 34  1  0
  7 35  1  0
 19 36  1  0
 19 37  1  0
 23 38  1  0
 24 39  1  0
 25 40  1  0
M  CHG  1  15  -1
M  END
>  <UniqueID>  (16) 
14

>  <SMILES>  (16) 
CN(C)c1cccc2c(S(=O)(=O)N=c3[n-]nc(S(N)(=O)=O)s3)cccc12

>  <Energy>  (16) 
90.18413327348657

>  <Genealogy>  (16) 
CN(C)c1cccc2c(S(=O)(=O)N=c3[n-]nc(S(N)(=O)=O)s3)cccc12 (protonated)
CN(C)c1cccc2c(S(=O)(=O)N=c3[n-]nc(S(N)(=O)=O)s3)cccc12 (3D coordinates assigned)
CN(C)c1cccc2c(S(=O)(=O)N=c3[n-]nc(S(N)(=O)=O)s3)cccc12 (optimized conformer: 90.18413327348657 kcal/mol)

>  <smiles>  (16) 
CN(C)c1cccc2c(S(=O)(=O)N=c3[nH]nc(S(N)(=O)=O)s3)cccc12

>  <score_type>  (16) 
oracle

>  <origin>  (16) 
adg

>  <m_score__min__energy>  (16) 
-11.44

>  <m_primary>  (16) 
energy

$$$$
16:0
     RDKit          3D

 54 58  0  0  0  0  0  0  0  0999 V2000
   61.4360   30.9170   50.8760 C   0  0  0  0  0  0  0  0  0  0  0  0
   60.3420   30.9910   49.9140 N   0  0  0  0  0  0  0  0  0  0  0  0
   60.1440   32.2020   49.1740 C   0  0  0  0  0  0  0  0  0  0  0  0
   60.2920   32.1910   47.8190 N   0  0  0  0  0  0  0  0  0  0  0  0
   60.1160   33.3150   47.0730 C   0  0  0  0  0  0  0  0  0  0  0  0
   59.7780   34.5190   47.6890 C   0  0  0  0  0  0  0  0  0  0  0  0
   59.6200   34.5590   49.0730 C   0  0  0  0  0  0  0  0  0  0  0  0
   59.7930   33.3960   49.8380 C   0  0  0  0  0  0  0  0  0  0  0  0
   59.6530   33.4450   51.3390 C   0  0  0  0  0  0  0  0  0  0  0  0
   58.2470   33.3120   51.7130 N   0  0  0  0  0  0  0  0  0  0  0  0
   57.6350   32.1850   51.9220 C   0  0  0  0  0  0  0  0  0  0  0  0
   56.2690   32.1270   51.9810 N   0  0  0  0  0  0  0  0  0  0  0  0
   55.6870   30.9260   52.2100 C   0  0  0  0  0  0  0  0  0  0  0  0
   54.3490   30.6130   52.3610 C   0  0  0  0  0  0  0  0  0  0  0  0
   53.2490   31.3690   52.2320 C   0  0  0  0  0  0  0  0  0  0  0  0
   52.3830   31.4020   51.0390 C   0  0  0  0  0  0  0  0  0  0  0  0
   52.3660   30.4660   50.0720 N   0  0  0  0  0  0  0  0  0  0  0  0
   51.3390   30.8500   49.2830 C   0  0  0  0  0  0  0  0  0  0  0  0
   51.0120   30.2220   48.2430 O   0  0  0  0  0  0  0  0  0  0  0  0
   50.6880   31.9560   49.6990 N   0  0  0  0  0  0  0  0  0  0  0  0
   51.3540   32.2840   50.8180 C   0  0  0  0  0  0  0  0  0  0  0  0
   51.0250   33.3670   51.6230 O   0  0  0  0  0  0  0  0  0  0  0  0
   54.3700   29.2640   52.7170 C   0  0  0  0  0  0  0  0  0  0  0  0
   55.6460   28.8080   52.7430 N   0  0  0  0  0  0  0  0  0  0  0  0
   56.4220   29.8330   52.4340 N   0  0  0  0  0  0  0  0  0  0  0  0
   57.7760   29.8590   52.3760 C   0  0  0  0  0  0  0  0  0  0  0  0
   58.4570   28.7660   52.5920 N   0  0  0  0  0  0  0  0  0  0  0  0
   59.3860   28.3660   53.6660 C   0  0  0  0  0  0  0  0  0  0  0  0
   60.8540   28.7160   53.4840 C   0  0  0  0  0  0  0  0  0  0  0  0
   60.0010   29.4810   54.4980 C   0  0  0  0  0  0  0  0  0  0  0  0
   58.3740   31.0520   52.1060 N   0  0  0  0  0  0  0  0  0  0  0  0
   59.6680   29.5150   49.3030 S   0  0  0  0  0  0  0  0  0  0  0  0
   60.4030   28.1060   50.1100 C   0  0  0  0  0  0  0  0  0  0  0  0
   58.1860   29.5010   49.5480 O   0  0  0  0  0  0  0  0  0  0  0  0
   59.9350   29.4160   47.8280 O   0  0  0  0  0  0  0  0  0  0  0  0
   61.0286   30.9446   51.8974 H   0  0  0  0  0  0  0  0  0  0  0  0
   61.9916   29.9792   50.7280 H   0  0  0  0  0  0  0  0  0  0  0  0
   62.1128   31.7714   50.7280 H   0  0  0  0  0  0  0  0  0  0  0  0
   60.5470   31.3000   47.3360 H   0  0  0  0  0  0  0  0  0  0  0  0
   60.2407   33.2736   45.9809 H   0  0  0  0  0  0  0  0  0  0  0  0
   59.6372   35.4294   47.0879 H   0  0  0  0  0  0  0  0  0  0  0  0
   59.3586   35.5062   49.5675 H   0  0  0  0  0  0  0  0  0  0  0  0
   60.2286   32.6210   51.7859 H   0  0  0  0  0  0  0  0  0  0  0  0
   60.0354   34.4086   51.7066 H   0  0  0  0  0  0  0  0  0  0  0  0
   52.9719   32.0128   53.0798 H   0  0  0  0  0  0  0  0  0  0  0  0
   53.4801   28.6585   52.9437 H   0  0  0  0  0  0  0  0  0  0  0  0
   58.8322   27.4426   53.8910 H   0  0  0  0  0  0  0  0  0  0  0  0
   61.6328   28.0216   53.8324 H   0  0  0  0  0  0  0  0  0  0  0  0
   61.4876   28.9970   52.6298 H   0  0  0  0  0  0  0  0  0  0  0  0
   60.1656   29.3370   55.5760 H   0  0  0  0  0  0  0  0  0  0  0  0
   59.7657   30.5406   54.6764 H   0  0  0  0  0  0  0  0  0  0  0  0
   60.3370   28.2325   51.2007 H   0  0  0  0  0  0  0  0  0  0  0  0
   59.8665   27.1926   49.8137 H   0  0  0  0  0  0  0  0  0  0  0  0
   61.4591   28.0234   49.8137 H   0  0  0  0  0  0  0  0  0  0  0  0
  1  2  1  0
  2  3  1  0
  3  4  2  0
  4  5  1  0
  5  6  2  0
  6  7  1  0
  7  8  2  0
  8  9  1  0
  9 10  1  0
 10 11  2  3
 11 12  1  0
 12 13  2  0
 13 14  1  0
 14 15  2  3
 15 16  1  0
 16 17  1  0
 17 18  1  0
 18 19  2  0
 18 20  1  0
 20 21  1  0
 21 22  1  0
 14 23  1  0
 23 24  2  0
 24 25  1  0
 25 26  1  0
 26 27  2  3
 27 28  1  0
 28 29  1  0
 29 30  1  0
 26 31  1  0
  2 32  1  0
 32 33  1  0
 32 34  2  0
 32 35  2  0
  8  3  1  0
 31 11  1  0
 25 13  1  0
 30 28  1  0
 21 16  2  0
  1 36  1  0
  1 37  1  0
  1 38  1  0
  4 39  1  0
  5 40  1  0
  6 41  1  0
  7 42  1  0
  9 43  1  0
  9 44  1  0
 15 45  1  0
 23 46  1  0
 28 47  1  0
 29 48  1  0
 29 49  1  0
 30 50  1  0
 30 51  1  0
 33 52  1  0
 33 53  1  0
 33 54  1  0
M  CHG  5   4   1  17  -1  20  -1  22  -1  31  -1
M  END
>  <UniqueID>  (17) 
15

>  <SMILES>  (17) 
CN(c1[nH+]cccc1CN=c1nc2c(=Cc3[n-]c(=O)[n-]c3[O-])cnn2c(=NC2CC2)[n-]1)S(C)(=O)=O

>  <Energy>  (17) 
405.34825837350917

>  <Genealogy>  (17) 
CN(c1[nH+]cccc1CN=c1nc2c(=Cc3[n-]c(=O)[n-]c3[O-])cnn2c(=NC2CC2)[n-]1)S(C)(=O)=O (protonated)
CN(c1[nH+]cccc1CN=c1nc2c(=Cc3[n-]c(=O)[n-]c3[O-])cnn2c(=NC2CC2)[n-]1)S(C)(=O)=O (3D coordinates assigned)
CN(c1[nH+]cccc1CN=c1nc2c(=Cc3[n-]c(=O)[n-]c3[O-])cnn2c(=NC2CC2)[n-]1)S(C)(=O)=O (nonaromatic ring conformer: 405.34825837350917 kcal/mol)

>  <smiles>  (17) 
CN(c1ncccc1CN=c1nc2c(=Cc3[nH]c(=O)[nH]c3O)cnn2c(=NC2CC2)[nH]1)S(C)(=O)=O

>  <score_type>  (17) 
oracle

>  <origin>  (17) 
adg

>  <m_score__min__energy>  (17) 
-17.710000000000001

>  <m_primary>  (17) 
energy

$$$$
17:0
     RDKit          3D

 37 39  0  0  1  0  0  0  0  0999 V2000
   57.2840   25.3240   44.7660 C   0  0  0  0  0  0  0  0  0  0  0  0
   56.6660   26.4630   45.9780 S   0  0  0  0  0  0  0  0  0  0  0  0
   57.2680   26.1340   47.3140 O   0  0  0  0  0  0  0  0  0  0  0  0
   55.1650   26.4200   45.9980 O   0  0  0  0  0  0  0  0  0  0  0  0
   57.2070   28.1090   45.6210 C   0  0  0  0  0  0  0  0  0  0  0  0
   57.9280   28.7490   46.5380 N   0  0  0  0  0  0  0  0  0  0  0  0
   58.3580   30.0130   46.2910 C   0  0  0  0  0  0  0  0  0  0  0  0
   59.0240   30.5730   47.1680 N   0  0  0  0  0  0  0  0  0  0  0  0
   59.5820   31.7930   47.3000 C   0  0  0  0  0  0  0  0  0  0  0  0
   58.8050   32.8830   47.7280 C   0  0  0  0  0  0  0  0  0  0  0  0
   59.4180   34.1080   47.9670 C   0  0  0  0  0  0  0  0  0  0  0  0
   60.7660   34.2350   47.7810 C   0  0  0  0  0  0  0  0  0  0  0  0
   61.5490   33.1860   47.3620 C   0  0  0  0  0  0  0  0  0  0  0  0
   63.0040   33.4430   47.1930 C   0  0  0  0  0  0  0  0  0  0  0  0
   63.1490   34.1990   46.0390 F   0  0  0  0  0  0  0  0  0  0  0  0
   63.3960   34.1930   48.2810 F   0  0  0  0  0  0  0  0  0  0  0  0
   63.7120   32.2640   47.1090 F   0  0  0  0  0  0  0  0  0  0  0  0
   60.9780   31.9670   47.1190 C   0  0  0  0  0  0  0  0  0  0  0  0
   58.0640   30.6440   45.1140 C   0  0  0  0  0  0  0  0  0  0  0  0
   58.4760   31.9130   44.8290 C   0  0  0  0  0  0  0  0  0  0  0  0
   58.1400   32.5070   43.5970 C   0  0  0  0  0  0  0  0  0  0  0  0
   57.3990   31.7420   42.7480 C   0  0  0  0  0  0  0  0  0  0  0  0
   56.9670   30.4650   43.0030 C   0  0  0  0  0  0  0  0  0  0  0  0
   57.3110   29.9150   44.2120 C   0  0  0  0  0  0  0  0  0  0  0  0
   56.8820   28.6610   44.4500 N   0  0  0  0  0  0  0  0  0  0  0  0
   57.7496   24.4660   45.2730 H   0  0  0  0  0  0  0  0  0  0  0  0
   56.4534   24.9716   44.1368 H   0  0  0  0  0  0  0  0  0  0  0  0
   58.0322   25.8283   44.1368 H   0  0  0  0  0  0  0  0  0  0  0  0
   57.7206   32.7680   47.8728 H   0  0  0  0  0  0  0  0  0  0  0  0
   58.8220   34.9691   48.3035 H   0  0  0  0  0  0  0  0  0  0  0  0
   61.2399   35.2089   47.9730 H   0  0  0  0  0  0  0  0  0  0  0  0
   61.5999   31.1238   46.7841 H   0  0  0  0  0  0  0  0  0  0  0  0
   59.0724   32.4739   45.5636 H   0  0  0  0  0  0  0  0  0  0  0  0
   58.4570   33.5275   43.3361 H   0  0  0  0  0  0  0  0  0  0  0  0
   57.1245   32.1841   41.7789 H   0  0  0  0  0  0  0  0  0  0  0  0
   56.3695   29.9052   42.2684 H   0  0  0  0  0  0  0  0  0  0  0  0
   56.3140   28.1280   43.7520 H   0  0  0  0  0  0  0  0  0  0  0  0
  1  2  1  0
  2  3  2  0
  2  4  2  0
  2  5  1  0
  5  6  2  0
  6  7  1  0
  7  8  2  0
  8  9  1  0
  9 10  2  0
 10 11  1  0
 11 12  2  0
 12 13  1  0
 13 14  1  0
 14 15  1  0
 14 16  1  0
 14 17  1  0
 13 18  2  0
  7 19  1  0
 19 20  2  0
 20 21  1  0
 21 22  2  0
 22 23  1  0
 23 24  2  0
 24 25  1  0
 25  5  1  0
 18  9  1  0
 24 19  1  0
  1 26  1  0
  1 27  1  0
  1 28  1  0
 10 29  1  0
 11 30  1  0
 12 31  1  0
 18 32  1  0
 20 33  1  0
 21 34  1  0
 22 35  1  0
 23 36  1  0
 25 37  1  0
M  END
>  <smiles>  (18) 
CS(=O)(=O)c1nc(=Nc2cccc(C(F)(F)F)c2)c2ccccc2[nH]1

>  <score_type>  (18) 
oracle

>  <origin>  (18) 
adg

>  <m_score__min__energy>  (18) 
-8.6400000000000006

>  <m_primary>  (18) 
energy

$$$$
18:0
     RDKit          3D

 42 43  0  0  0  0  0  0  0  0999 V2000
   57.9390   35.2545   44.8339 H   0  0  0  0  0  0  0  0  0  0  0  0
   58.6870   34.4580   44.9610 C   0  0  0  0  0  0  0  0  0  0  0  0
   59.6840   34.6310   46.0390 C   0  0  0  0  0  0  0  0  0  0  0  0
   59.7600   35.7180   46.6770 O   0  0  0  0  0  0  0  0  0  0  0  0
   60.5370   33.5330   46.3900 N   0  0  0  0  0  0  0  0  0  0  0  0
   60.5980   32.7240   45.7310 H   0  0  0  0  0  0  0  0  0  0  0  0
   61.5200   33.6270   47.4300 C   0  0  0  0  0  0  0  0  0  0  0  0
   62.8340   33.2180   47.1580 C   0  0  0  0  0  0  0  0  0  0  0  0
   63.0842   32.8089   46.1680 H   0  0  0  0  0  0  0  0  0  0  0  0
   63.8270   33.3260   48.1340 C   0  0  0  0  0  0  0  0  0  0  0  0
   64.8566   33.0115   47.9082 H   0  0  0  0  0  0  0  0  0  0  0  0
   63.5130   33.8330   49.3960 C   0  0  0  0  0  0  0  0  0  0  0  0
   64.2980   33.9287   50.1606 H   0  0  0  0  0  0  0  0  0  0  0  0
   62.2030   34.2190   49.6890 C   0  0  0  0  0  0  0  0  0  0  0  0
   61.9604   34.6123   50.6872 H   0  0  0  0  0  0  0  0  0  0  0  0
   61.1940   34.1090   48.7200 C   0  0  0  0  0  0  0  0  0  0  0  0
   59.8450   34.4360   49.0740 N   0  0  0  0  0  0  0  0  0  0  0  0
   59.2680   33.8130   49.6790 H   0  0  0  0  0  0  0  0  0  0  0  0
   59.4280   35.3510   48.7860 H   0  0  0  0  0  0  0  0  0  0  0  0
   58.6180   33.4100   44.1240 C   0  0  0  0  0  0  0  0  0  0  0  0
   59.1114   33.5110   43.1461 H   0  0  0  0  0  0  0  0  0  0  0  0
   57.9330   32.1320   44.4100 C   0  0  0  0  0  0  0  0  0  0  0  0
   57.0320   31.5720   43.4930 C   0  0  0  0  0  0  0  0  0  0  0  0
   56.7997   32.1046   42.5590 H   0  0  0  0  0  0  0  0  0  0  0  0
   56.4280   30.3410   43.7600 C   0  0  0  0  0  0  0  0  0  0  0  0
   55.7081   29.9185   43.0436 H   0  0  0  0  0  0  0  0  0  0  0  0
   56.7350   29.6380   44.9400 C   0  0  0  0  0  0  0  0  0  0  0  0
   56.1460   28.4010   45.2450 O   0  0  0  0  0  0  0  0  0  0  0  0
   56.8650   27.2470   45.6710 C   0  0  0  0  0  0  0  0  0  0  0  0
   57.3803   26.7959   44.8102 H   0  0  0  0  0  0  0  0  0  0  0  0
   57.6081   27.5336   46.4297 H   0  0  0  0  0  0  0  0  0  0  0  0
   55.9090   26.2610   46.2530 C   0  0  0  0  0  0  0  0  0  0  0  0
   54.6800   26.3390   45.9900 O   0  0  0  0  0  0  0  0  0  0  0  0
   56.3660   25.2850   47.1300 O   0  0  0  0  0  0  0  0  0  0  0  0
   57.6580   30.1790   45.8490 C   0  0  0  0  0  0  0  0  0  0  0  0
   57.9500   29.4510   47.0140 O   0  0  0  0  0  0  0  0  0  0  0  0
   59.2610   29.2520   47.5330 C   0  0  0  0  0  0  0  0  0  0  0  0
   59.2249   29.2575   48.6324 H   0  0  0  0  0  0  0  0  0  0  0  0
   59.6507   28.2844   47.1838 H   0  0  0  0  0  0  0  0  0  0  0  0
   59.9202   30.0604   47.1838 H   0  0  0  0  0  0  0  0  0  0  0  0
   58.2620   31.4210   45.5720 C   0  0  0  0  0  0  0  0  0  0  0  0
   58.9991   31.8369   46.2746 H   0  0  0  0  0  0  0  0  0  0  0  0
  1  2  1  0
  2  3  1  0
  3  4  2  0
  3  5  1  0
  5  6  1  0
  5  7  1  0
  7  8  2  0
  8  9  1  0
  8 10  1  0
 10 11  1  0
 10 12  2  0
 12 13  1  0
 12 14  1  0
 14 15  1  0
 14 16  2  0
 16 17  1  0
 17 18  1  0
 17 19  1  0
  2 20  2  0
 20 21  1  0
 20 22  1  0
 22 23  2  0
 23 24  1  0
 23 25  1  0
 25 26  1  0
 25 27  2  0
 27 28  1  0
 28 29  1  0
 29 30  1  0
 29 31  1  0
 29 32  1  0
 32 33  2  0
 32 34  1  0
 27 35  1  0
 35 36  1  0
 36 37  1  0
 37 38  1  0
 37 39  1  0
 37 40  1  0
 35 41  2  0
 41 42  1  0
 16  7  1  0
 41 22  1  0
M  CHG  1  34  -1
M  END
>  <UniqueID>  (19) 
16

>  <SMILES>  (19) 
COc1cc(/C=C\C(=O)Nc2ccccc2N)ccc1OCC(=O)[O-]

>  <Energy>  (19) 
53.12101188866743

>  <Genealogy>  (19) 
COc1cc(C=CC(=O)Nc2ccccc2N)ccc1OCC(=O)[O-] (protonated)
COc1cc(/C=C\C(=O)Nc2ccccc2N)ccc1OCC(=O)[O-] (cis-trans isomerization)
COc1cc(/C=C\C(=O)Nc2ccccc2N)ccc1OCC(=O)[O-] (3D coordinates assigned)
COc1cc(/C=C\C(=O)Nc2ccccc2N)ccc1OCC(=O)[O-] (optimized conformer: 53.12101188866743 kcal/mol)

>  <smiles>  (19) 
COc1cc(C=CC(=O)Nc2ccccc2N)ccc1OCC(=O)O

>  <score_type>  (19) 
oracle

>  <origin>  (19) 
adg

>  <m_score__min__energy>  (19) 
-10.5

>  <m_primary>  (19) 
energy

$$$$
19:0
     RDKit          3D

 38 40  0  0  0  0  0  0  0  0999 V2000
   55.8750   27.4120   44.8240 H   0  0  0  0  0  0  0  0  0  0  0  0
   56.4630   27.1610   45.6500 N   0  0  0  0  0  0  0  0  0  0  0  0
   57.3680   27.9670   46.1100 C   0  0  0  0  0  0  0  0  0  0  0  0
   58.3460   27.4860   46.9230 N   0  0  0  0  0  0  0  0  0  0  0  0
   59.3390   28.2820   47.3940 C   0  0  0  0  0  0  0  0  0  0  0  0
   60.1111   27.8683   48.0593 H   0  0  0  0  0  0  0  0  0  0  0  0
   59.3750   29.6370   47.0270 C   0  0  0  0  0  0  0  0  0  0  0  0
   60.4470   30.5530   47.4920 C   0  0  0  0  0  0  0  0  0  0  0  0
   61.1620   30.3060   48.6800 C   0  0  0  0  0  0  0  0  0  0  0  0
   60.9307   29.4133   49.2797 H   0  0  0  0  0  0  0  0  0  0  0  0
   62.1630   31.1850   49.1040 C   0  0  0  0  0  0  0  0  0  0  0  0
   62.7163   30.9778   50.0318 H   0  0  0  0  0  0  0  0  0  0  0  0
   62.4660   32.3330   48.3500 C   0  0  0  0  0  0  0  0  0  0  0  0
   63.4620   33.2450   48.7340 O   0  0  0  0  0  0  0  0  0  0  0  0
   64.6570   32.8870   49.4200 C   0  0  0  0  0  0  0  0  0  0  0  0
   64.4861   32.9382   50.5054 H   0  0  0  0  0  0  0  0  0  0  0  0
   64.9464   31.8627   49.1423 H   0  0  0  0  0  0  0  0  0  0  0  0
   65.4619   33.5835   49.1423 H   0  0  0  0  0  0  0  0  0  0  0  0
   61.7500   32.5860   47.1760 C   0  0  0  0  0  0  0  0  0  0  0  0
   61.9769   33.4835   46.5818 H   0  0  0  0  0  0  0  0  0  0  0  0
   60.7490   31.7090   46.7510 C   0  0  0  0  0  0  0  0  0  0  0  0
   60.1917   31.9250   45.8276 H   0  0  0  0  0  0  0  0  0  0  0  0
   58.3980   30.1110   46.2070 N   0  0  0  0  0  0  0  0  0  0  0  0
   57.3830   29.3290   45.7490 C   0  0  0  0  0  0  0  0  0  0  0  0
   56.3610   29.9410   44.8710 C   0  0  0  0  0  0  0  0  0  0  0  0
   55.2590   29.3510   44.7200 O   0  0  0  0  0  0  0  0  0  0  0  0
   56.5720   31.1890   44.1990 N   0  0  0  0  0  0  0  0  0  0  0  0
   57.3100   32.3110   44.7050 C   0  0  0  0  0  0  0  0  0  0  0  0
   57.0400   32.8660   45.9710 C   0  0  0  0  0  0  0  0  0  0  0  0
   56.2387   32.4441   46.5955 H   0  0  0  0  0  0  0  0  0  0  0  0
   57.7880   33.9520   46.4360 C   0  0  0  0  0  0  0  0  0  0  0  0
   57.5668   34.3898   47.4206 H   0  0  0  0  0  0  0  0  0  0  0  0
   58.8160   34.4820   45.6520 C   0  0  0  0  0  0  0  0  0  0  0  0
   59.3995   35.3401   46.0170 H   0  0  0  0  0  0  0  0  0  0  0  0
   59.1030   33.9220   44.4040 C   0  0  0  0  0  0  0  0  0  0  0  0
   59.9156   34.3363   43.7892 H   0  0  0  0  0  0  0  0  0  0  0  0
   58.3580   32.8360   43.9370 C   0  0  0  0  0  0  0  0  0  0  0  0
   58.5958   32.3902   42.9599 H   0  0  0  0  0  0  0  0  0  0  0  0
  1  2  1  0
  2  3  2  0
  3  4  1  0
  4  5  1  0
  5  6  1  0
  5  7  2  0
  7  8  1  0
  8  9  2  0
  9 10  1  0
  9 11  1  0
 11 12  1  0
 11 13  2  0
 13 14  1  0
 14 15  1  0
 15 16  1  0
 15 17  1  0
 15 18  1  0
 13 19  1  0
 19 20  1  0
 19 21  2  0
 21 22  1  0
  7 23  1  0
 23 24  2  0
 24 25  1  0
 25 26  2  0
 25 27  1  0
 27 28  1  0
 28 29  2  0
 29 30  1  0
 29 31  1  0
 31 32  1  0
 31 33  2  0
 33 34  1  0
 33 35  1  0
 35 36  1  0
 35 37  2  0
 37 38  1  0
 24  3  1  0
 37 28  1  0
 21  8  1  0
M  CHG  2   4  -1  27  -1
M  END
>  <UniqueID>  (20) 
17

>  <SMILES>  (20) 
[H]/N=c1\[n-]cc(-c2ccc(OC)cc2)nc1C(=O)[N-]c1ccccc1

>  <Energy>  (20) 
54.19379769943884

>  <Genealogy>  (20) 
COc1ccc(-c2c[n-]c(=N)c(C(=O)[N-]c3ccccc3)n2)cc1 (protonated)
[H]/N=c1\[n-]cc(-c2ccc(OC)cc2)nc1C(=O)[N-]c1ccccc1 (cis-trans isomerization)
[H]/N=c1\[n-]cc(-c2ccc(OC)cc2)nc1C(=O)[N-]c1ccccc1 (3D coordinates assigned)
[H]/N=c1\[n-]cc(-c2ccc(OC)cc2)nc1C(=O)[N-]c1ccccc1 (optimized conformer: 54.19379769943884 kcal/mol)

>  <smiles>  (20) 
COc1ccc(-c2c[nH]c(=N)c(C(=O)Nc3ccccc3)n2)cc1

>  <score_type>  (20) 
oracle

>  <origin>  (20) 
adg

>  <m_score__min__energy>  (20) 
-10.82

>  <m_primary>  (20) 
energy

$$$$
20:0
     RDKit          3D

 53 56  0  0  0  0  0  0  0  0999 V2000
   57.3366   31.9953   49.7340 H   0  0  0  0  0  0  0  0  0  0  0  0
   58.1060   32.3450   49.0300 C   0  0  0  0  0  0  0  0  0  0  0  0
   59.4170   32.1400   49.3050 N   0  0  0  0  0  0  0  0  0  0  0  0
   60.4000   32.6290   48.5060 C   0  0  0  0  0  0  0  0  0  0  0  0
   61.7370   32.4470   48.8780 C   0  0  0  0  0  0  0  0  0  0  0  0
   61.9857   31.8063   49.7369 H   0  0  0  0  0  0  0  0  0  0  0  0
   62.7550   33.0770   48.1610 C   0  0  0  0  0  0  0  0  0  0  0  0
   64.4310   32.8390   48.6200 Cl  0  0  0  0  0  0  0  0  0  0  0  0
   62.4320   33.9450   47.1180 C   0  0  0  0  0  0  0  0  0  0  0  0
   63.2285   34.5006   46.6015 H   0  0  0  0  0  0  0  0  0  0  0  0
   61.1000   34.1120   46.7260 C   0  0  0  0  0  0  0  0  0  0  0  0
   60.8522   34.8344   45.9343 H   0  0  0  0  0  0  0  0  0  0  0  0
   60.0710   33.3640   47.3350 C   0  0  0  0  0  0  0  0  0  0  0  0
   58.7020   33.4110   46.9350 C   0  0  0  0  0  0  0  0  0  0  0  0
   58.2670   33.6520   45.7220 N   0  0  0  0  0  0  0  0  0  0  0  0
   58.8940   33.5460   44.3980 C   0  0  0  0  0  0  0  0  0  0  0  0
   59.9322   33.2030   44.5188 H   0  0  0  0  0  0  0  0  0  0  0  0
   58.8665   34.5357   43.9187 H   0  0  0  0  0  0  0  0  0  0  0  0
   58.1380   32.5510   43.5050 C   0  0  0  0  0  0  0  0  0  0  0  0
   58.7286   32.3740   42.5940 H   0  0  0  0  0  0  0  0  0  0  0  0
   57.1569   32.9890   43.2695 H   0  0  0  0  0  0  0  0  0  0  0  0
   57.9000   31.2310   44.1920 C   0  0  0  0  0  0  0  0  0  0  0  0
   56.7220   30.5110   43.9540 C   0  0  0  0  0  0  0  0  0  0  0  0
   55.9906   30.8847   43.2223 H   0  0  0  0  0  0  0  0  0  0  0  0
   56.4720   29.3230   44.6400 C   0  0  0  0  0  0  0  0  0  0  0  0
   55.5387   28.7717   44.4532 H   0  0  0  0  0  0  0  0  0  0  0  0
   57.3980   28.8260   45.5640 C   0  0  0  0  0  0  0  0  0  0  0  0
   57.0700   27.6210   46.2730 N   0  0  0  0  0  0  0  0  0  0  0  0
   56.5990   26.4080   45.6780 C   0  0  0  0  0  0  0  0  0  0  0  0
   55.4840   25.9450   46.0340 O   0  0  0  0  0  0  0  0  0  0  0  0
   57.3430   25.7720   44.6270 N   0  0  0  0  0  0  0  0  0  0  0  0
   57.9800   26.3690   44.0520 H   0  0  0  0  0  0  0  0  0  0  0  0
   57.2380   24.3750   44.3020 C   0  0  0  0  0  0  0  0  0  0  0  0
   58.1160   23.4240   44.8560 C   0  0  0  0  0  0  0  0  0  0  0  0
   58.8854   23.7416   45.5751 H   0  0  0  0  0  0  0  0  0  0  0  0
   58.0130   22.0770   44.4950 C   0  0  0  0  0  0  0  0  0  0  0  0
   58.6955   21.3369   44.9383 H   0  0  0  0  0  0  0  0  0  0  0  0
   57.0460   21.6680   43.5730 C   0  0  0  0  0  0  0  0  0  0  0  0
   56.9500   20.3630   43.2230 F   0  0  0  0  0  0  0  0  0  0  0  0
   56.1840   22.6100   43.0030 C   0  0  0  0  0  0  0  0  0  0  0  0
   55.4262   22.2900   42.2727 H   0  0  0  0  0  0  0  0  0  0  0  0
   56.2840   23.9580   43.3600 C   0  0  0  0  0  0  0  0  0  0  0  0
   55.6110   24.6966   42.9000 H   0  0  0  0  0  0  0  0  0  0  0  0
   58.5760   29.5550   45.8370 C   0  0  0  0  0  0  0  0  0  0  0  0
   59.4460   29.1020   46.8420 O   0  0  0  0  0  0  0  0  0  0  0  0
   59.1840   29.1800   48.2390 C   0  0  0  0  0  0  0  0  0  0  0  0
   60.0920   28.9097   48.7980 H   0  0  0  0  0  0  0  0  0  0  0  0
   58.8850   30.2061   48.4993 H   0  0  0  0  0  0  0  0  0  0  0  0
   58.3725   28.4845   48.4993 H   0  0  0  0  0  0  0  0  0  0  0  0
   58.8290   30.7440   45.1240 C   0  0  0  0  0  0  0  0  0  0  0  0
   59.7642   31.2958   45.2999 H   0  0  0  0  0  0  0  0  0  0  0  0
   57.7300   32.9980   47.8570 C   0  0  0  0  0  0  0  0  0  0  0  0
   56.6661   33.1900   47.6540 H   0  0  0  0  0  0  0  0  0  0  0  0
  1  2  1  0
  2  3  1  0
  3  4  1  0
  4  5  2  0
  5  6  1  0
  5  7  1  0
  7  8  1  0
  7  9  2  0
  9 10  1  0
  9 11  1  0
 11 12  1  0
 11 13  2  0
 13 14  1  0
 14 15  2  0
 15 16  1  0
 16 17  1  0
 16 18  1  0
 16 19  1  0
 19 20  1  0
 19 21  1  0
 19 22  1  0
 22 23  2  0
 23 24  1  0
 23 25  1  0
 25 26  1  0
 25 27  2  0
 27 28  1  0
 28 29  1  0
 29 30  2  0
 29 31  1  0
 31 32  1  0
 31 33  1  0
 33 34  2  0
 34 35  1  0
 34 36  1  0
 36 37  1  0
 36 38  2  0
 38 39  1  0
 38 40  1  0
 40 41  1  0
 40 42  2  0
 42 43  1  0
 27 44  1  0
 44 45  1  0
 45 46  1  0
 46 47  1  0
 46 48  1  0
 46 49  1  0
 44 50  2  0
 50 51  1  0
 14 52  1  0
 52 53  1  0
 52  2  2  0
 13  4  1  0
 50 22  1  0
 42 33  1  0
M  CHG  2   3  -1  28  -1
M  END
>  <UniqueID>  (21) 
18

>  <SMILES>  (21) 
COc1cc(CC/N=c2/cc[n-]c3cc(Cl)ccc23)ccc1[N-]C(=O)Nc1ccc(F)cc1

>  <Energy>  (21) 
82.07484432763574

>  <Genealogy>  (21) 
COc1cc(CCN=c2cc[n-]c3cc(Cl)ccc23)ccc1[N-]C(=O)Nc1ccc(F)cc1 (protonated)
COc1cc(CC/N=c2/cc[n-]c3cc(Cl)ccc23)ccc1[N-]C(=O)Nc1ccc(F)cc1 (cis-trans isomerization)
COc1cc(CC/N=c2/cc[n-]c3cc(Cl)ccc23)ccc1[N-]C(=O)Nc1ccc(F)cc1 (3D coordinates assigned)
COc1cc(CC/N=c2/cc[n-]c3cc(Cl)ccc23)ccc1[N-]C(=O)Nc1ccc(F)cc1 (optimized conformer: 82.07484432763574 kcal/mol)

>  <smiles>  (21) 
COc1cc(CCN=c2cc[nH]c3cc(Cl)ccc23)ccc1NC(=O)Nc1ccc(F)cc1

>  <score_type>  (21) 
oracle

>  <origin>  (21) 
adg

>  <m_score__min__energy>  (21) 
-11.27

>  <m_primary>  (21) 
energy

$$$$
21:0
     RDKit          3D

 31 32  0  0  0  0  0  0  0  0999 V2000
   55.1100   26.2240   45.9850 N   0  0  0  0  0  0  0  0  0  0  0  0
   56.8380   26.2980   45.9420 S   0  0  0  0  0  0  0  0  0  0  0  0
   57.3820   25.5690   47.1380 O   0  0  0  0  0  0  0  0  0  0  0  0
   57.3390   25.6430   44.6860 O   0  0  0  0  0  0  0  0  0  0  0  0
   57.3610   27.9780   45.9750 C   0  0  0  0  0  0  0  0  0  0  0  0
   56.9560   28.8650   44.9680 C   0  0  0  0  0  0  0  0  0  0  0  0
   57.3650   30.2010   45.0010 C   0  0  0  0  0  0  0  0  0  0  0  0
   58.1780   30.6680   46.0440 C   0  0  0  0  0  0  0  0  0  0  0  0
   58.6000   32.0410   46.0740 N   0  0  0  0  0  0  0  0  0  0  0  0
   59.2090   32.6020   47.2830 C   0  0  0  0  0  0  0  0  0  0  0  0
   60.2520   33.6740   46.9330 C   0  0  0  0  0  0  0  0  0  0  0  0
   59.6290   34.8740   46.2020 C   0  0  0  0  0  0  0  0  0  0  0  0
   59.1500   34.5050   44.7960 C   0  0  0  0  0  0  0  0  0  0  0  0
   58.0040   33.1460   44.8780 S   0  0  0  0  0  0  0  0  0  0  0  0
   57.9220   32.4860   43.5300 O   0  0  0  0  0  0  0  0  0  0  0  0
   56.6440   33.6420   45.2810 O   0  0  0  0  0  0  0  0  0  0  0  0
   58.5830   29.7770   47.0520 C   0  0  0  0  0  0  0  0  0  0  0  0
   58.1720   28.4410   47.0190 C   0  0  0  0  0  0  0  0  0  0  0  0
   54.7800   27.0920   46.4650 H   0  0  0  0  0  0  0  0  0  0  0  0
   56.3141   28.5083   44.1490 H   0  0  0  0  0  0  0  0  0  0  0  0
   57.0475   30.8901   44.2045 H   0  0  0  0  0  0  0  0  0  0  0  0
   58.4223   33.0558   47.9037 H   0  0  0  0  0  0  0  0  0  0  0  0
   59.7130   31.7903   47.8282 H   0  0  0  0  0  0  0  0  0  0  0  0
   60.7200   34.0297   47.8628 H   0  0  0  0  0  0  0  0  0  0  0  0
   60.9932   33.2170   46.2608 H   0  0  0  0  0  0  0  0  0  0  0  0
   58.7704   35.2381   46.7853 H   0  0  0  0  0  0  0  0  0  0  0  0
   60.4023   35.6502   46.1040 H   0  0  0  0  0  0  0  0  0  0  0  0
   58.6519   35.3741   44.3415 H   0  0  0  0  0  0  0  0  0  0  0  0
   60.0165   34.2092   44.1863 H   0  0  0  0  0  0  0  0  0  0  0  0
   59.2262   30.1320   47.8707 H   0  0  0  0  0  0  0  0  0  0  0  0
   58.4867   27.7510   47.8158 H   0  0  0  0  0  0  0  0  0  0  0  0
  1  2  1  0
  2  3  2  0
  2  4  2  0
  2  5  1  0
  5  6  2  0
  6  7  1  0
  7  8  2  0
  8  9  1  0
  9 10  1  0
 10 11  1  0
 11 12  1  0
 12 13  1  0
 13 14  1  0
 14 15  2  0
 14 16  2  0
  8 17  1  0
 17 18  2  0
 18  5  1  0
 14  9  1  0
  1 19  1  0
  6 20  1  0
  7 21  1  0
 10 22  1  0
 10 23  1  0
 11 24  1  0
 11 25  1  0
 12 26  1  0
 12 27  1  0
 13 28  1  0
 13 29  1  0
 17 30  1  0
 18 31  1  0
M  CHG  1   1  -1
M  END
>  <UniqueID>  (22) 
19

>  <SMILES>  (22) 
[NH-]S(=O)(=O)c1ccc(N2CCCCS2(=O)=O)cc1

>  <Energy>  (22) 
30.567139336539324

>  <Genealogy>  (22) 
[NH-]S(=O)(=O)c1ccc(N2CCCCS2(=O)=O)cc1 (protonated)
[NH-]S(=O)(=O)c1ccc(N2CCCCS2(=O)=O)cc1 (3D coordinates assigned)
[NH-]S(=O)(=O)c1ccc(N2CCCCS2(=O)=O)cc1 (nonaromatic ring conformer: 30.567139336539324 kcal/mol)

>  <smiles>  (22) 
NS(=O)(=O)c1ccc(N2CCCCS2(=O)=O)cc1

>  <score_type>  (22) 
oracle

>  <origin>  (22) 
adg

>  <m_score__min__energy>  (22) 
-10.359999999999999

>  <m_primary>  (22) 
energy

$$$$
22:0
     RDKit          3D

 28 29  0  0  0  0  0  0  0  0999 V2000
   55.1840   29.1790   44.8850 N   0  0  0  0  0  0  0  0  0  0  0  0
   56.5580   29.2900   44.5210 C   0  0  0  0  0  0  0  0  0  0  0  0
   57.3290   28.3180   44.7470 O   0  0  0  0  0  0  0  0  0  0  0  0
   57.0930   30.5380   43.9200 C   0  0  0  0  0  0  0  0  0  0  0  0
   56.9990   30.7120   42.5260 C   0  0  0  0  0  0  0  0  0  0  0  0
   57.5200   31.8520   41.9120 C   0  0  0  0  0  0  0  0  0  0  0  0
   58.1500   32.8300   42.6760 C   0  0  0  0  0  0  0  0  0  0  0  0
   58.2430   32.6860   44.0610 C   0  0  0  0  0  0  0  0  0  0  0  0
   57.6910   31.5590   44.7030 C   0  0  0  0  0  0  0  0  0  0  0  0
   57.7520   31.4270   46.1340 N   0  0  0  0  0  0  0  0  0  0  0  0
   58.3940   32.3210   47.0530 C   0  0  0  0  0  0  0  0  0  0  0  0
   57.7140   33.0210   47.8510 O   0  0  0  0  0  0  0  0  0  0  0  0
   59.8680   32.3970   47.0950 C   0  0  0  0  0  0  0  0  0  0  0  0
   60.5280   33.6060   46.7820 C   0  0  0  0  0  0  0  0  0  0  0  0
   59.6410   35.0490   46.2970 Cl  0  0  0  0  0  0  0  0  0  0  0  0
   61.9250   33.6710   46.8140 C   0  0  0  0  0  0  0  0  0  0  0  0
   62.6750   32.5460   47.1580 C   0  0  0  0  0  0  0  0  0  0  0  0
   62.0340   31.3490   47.4760 C   0  0  0  0  0  0  0  0  0  0  0  0
   60.6370   31.2650   47.4500 C   0  0  0  0  0  0  0  0  0  0  0  0
   59.8910   29.7450   47.9350 Cl  0  0  0  0  0  0  0  0  0  0  0  0
   54.8200   29.6280   45.7550 H   0  0  0  0  0  0  0  0  0  0  0  0
   56.5092   29.9405   41.9137 H   0  0  0  0  0  0  0  0  0  0  0  0
   57.4326   31.9777   40.8227 H   0  0  0  0  0  0  0  0  0  0  0  0
   58.5757   33.7186   42.1870 H   0  0  0  0  0  0  0  0  0  0  0  0
   58.7513   33.4585   44.6567 H   0  0  0  0  0  0  0  0  0  0  0  0
   62.4348   34.6139   46.5667 H   0  0  0  0  0  0  0  0  0  0  0  0
   63.7733   32.6032   47.1784 H   0  0  0  0  0  0  0  0  0  0  0  0
   62.6298   30.4655   47.7489 H   0  0  0  0  0  0  0  0  0  0  0  0
  1  2  1  0
  2  3  2  0
  2  4  1  0
  4  5  2  0
  5  6  1  0
  6  7  2  0
  7  8  1  0
  8  9  2  0
  9 10  1  0
 10 11  1  0
 11 12  2  0
 11 13  1  0
 13 14  2  0
 14 15  1  0
 14 16  1  0
 16 17  2  0
 17 18  1  0
 18 19  2  0
 19 20  1  0
  9  4  1  0
 19 13  1  0
  1 21  1  0
  5 22  1  0
  6 23  1  0
  7 24  1  0
  8 25  1  0
 16 26  1  0
 17 27  1  0
 18 28  1  0
M  CHG  2   1  -1  10  -1
M  END
>  <UniqueID>  (23) 
20

>  <SMILES>  (23) 
[NH-]C(=O)c1ccccc1[N-]C(=O)c1c(Cl)cccc1Cl

>  <Energy>  (23) 
43.16276540476713

>  <Genealogy>  (23) 
[NH-]C(=O)c1ccccc1[N-]C(=O)c1c(Cl)cccc1Cl (protonated)
[NH-]C(=O)c1ccccc1[N-]C(=O)c1c(Cl)cccc1Cl (3D coordinates assigned)
[NH-]C(=O)c1ccccc1[N-]C(=O)c1c(Cl)cccc1Cl (optimized conformer: 43.16276540476713 kcal/mol)

>  <smiles>  (23) 
NC(=O)c1ccccc1NC(=O)c1c(Cl)cccc1Cl

>  <score_type>  (23) 
oracle

>  <origin>  (23) 
adg

>  <m_score__min__energy>  (23) 
-11.75

>  <m_primary>  (23) 
energy

$$$$
23:0
     RDKit          3D

 38 40  0  0  0  0  0  0  0  0999 V2000
   59.6690   36.0760   45.2530 O   0  0  0  0  0  0  0  0  0  0  0  0
   59.3870   34.9650   45.7720 C   0  0  0  0  0  0  0  0  0  0  0  0
   58.1170   34.3700   45.4810 N   0  0  0  0  0  0  0  0  0  0  0  0
   57.8960   32.9880   45.1650 C   0  0  0  0  0  0  0  0  0  0  0  0
   57.7150   32.6200   43.8270 C   0  0  0  0  0  0  0  0  0  0  0  0
   57.5300   31.2790   43.4830 C   0  0  0  0  0  0  0  0  0  0  0  0
   57.5320   30.2830   44.4700 C   0  0  0  0  0  0  0  0  0  0  0  0
   57.3510   28.9090   44.0830 N   0  0  0  0  0  0  0  0  0  0  0  0
   58.4200   28.0100   43.7410 C   0  0  0  0  0  0  0  0  0  0  0  0
   58.1440   26.8340   42.6380 S   0  0  0  0  0  0  0  0  0  0  0  0
   59.7230   28.1120   44.3400 N   0  0  0  0  0  0  0  0  0  0  0  0
   59.9740   28.5860   45.6730 C   0  0  0  0  0  0  0  0  0  0  0  0
   60.7610   29.7290   45.9140 C   0  0  0  0  0  0  0  0  0  0  0  0
   60.9920   30.1620   47.2230 C   0  0  0  0  0  0  0  0  0  0  0  0
   60.4230   29.4760   48.3000 C   0  0  0  0  0  0  0  0  0  0  0  0
   59.6160   28.3600   48.0670 C   0  0  0  0  0  0  0  0  0  0  0  0
   59.3920   27.9170   46.7610 C   0  0  0  0  0  0  0  0  0  0  0  0
   57.7570   30.6480   45.8100 C   0  0  0  0  0  0  0  0  0  0  0  0
   57.9310   31.9920   46.1550 C   0  0  0  0  0  0  0  0  0  0  0  0
   60.3400   34.3450   46.7100 C   0  0  0  0  0  0  0  0  0  0  0  0
   61.6100   33.8630   46.4050 C   0  0  0  0  0  0  0  0  0  0  0  0
   62.2450   33.2570   47.4950 C   0  0  0  0  0  0  0  0  0  0  0  0
   61.4870   33.2590   48.6580 C   0  0  0  0  0  0  0  0  0  0  0  0
   60.0180   34.0030   48.3250 S   0  0  0  0  0  0  0  0  0  0  0  0
   57.7184   33.3908   43.0422 H   0  0  0  0  0  0  0  0  0  0  0  0
   57.3815   31.0019   42.4289 H   0  0  0  0  0  0  0  0  0  0  0  0
   56.3740   28.5430   44.0200 H   0  0  0  0  0  0  0  0  0  0  0  0
   60.5420   27.7990   43.7700 H   0  0  0  0  0  0  0  0  0  0  0  0
   61.1956   30.2831   45.0689 H   0  0  0  0  0  0  0  0  0  0  0  0
   61.6228   31.0444   47.4059 H   0  0  0  0  0  0  0  0  0  0  0  0
   60.6106   29.8147   49.3296 H   0  0  0  0  0  0  0  0  0  0  0  0
   59.1560   27.8289   48.9133 H   0  0  0  0  0  0  0  0  0  0  0  0
   58.7551   27.0378   46.5842 H   0  0  0  0  0  0  0  0  0  0  0  0
   57.7962   29.8729   46.5896 H   0  0  0  0  0  0  0  0  0  0  0  0
   58.0960   32.2705   47.2063 H   0  0  0  0  0  0  0  0  0  0  0  0
   62.0678   33.9497   45.4086 H   0  0  0  0  0  0  0  0  0  0  0  0
   63.2524   32.8192   47.4356 H   0  0  0  0  0  0  0  0  0  0  0  0
   61.7949   32.8451   49.6295 H   0  0  0  0  0  0  0  0  0  0  0  0
  1  2  2  0
  2  3  1  0
  3  4  1  0
  4  5  2  0
  5  6  1  0
  6  7  2  0
  7  8  1  0
  8  9  1  0
  9 10  2  0
  9 11  1  0
 11 12  1  0
 12 13  2  0
 13 14  1  0
 14 15  2  0
 15 16  1  0
 16 17  2  0
  7 18  1  0
 18 19  2  0
  2 20  1  0
 20 21  2  0
 21 22  1  0
 22 23  2  0
 23 24  1  0
 19  4  1  0
 24 20  1  0
 17 12  1  0
  5 25  1  0
  6 26  1  0
  8 27  1  0
 11 28  1  0
 13 29  1  0
 14 30  1  0
 15 31  1  0
 16 32  1  0
 17 33  1  0
 18 34  1  0
 19 35  1  0
 21 36  1  0
 22 37  1  0
 23 38  1  0
M  CHG  1   3  -1
M  END
>  <UniqueID>  (24) 
21

>  <SMILES>  (24) 
O=C([N-]c1ccc(NC(=S)Nc2ccccc2)cc1)c1cccs1

>  <Energy>  (24) 
76.0730780442502

>  <Genealogy>  (24) 
O=C([N-]c1ccc(NC(=S)Nc2ccccc2)cc1)c1cccs1 (protonated)
O=C([N-]c1ccc(NC(=S)Nc2ccccc2)cc1)c1cccs1 (3D coordinates assigned)
O=C([N-]c1ccc(NC(=S)Nc2ccccc2)cc1)c1cccs1 (optimized conformer: 76.0730780442502 kcal/mol)

>  <smiles>  (24) 
O=C(Nc1ccc(NC(=S)Nc2ccccc2)cc1)c1cccs1

>  <score_type>  (24) 
oracle

>  <origin>  (24) 
adg

>  <m_score__min__energy>  (24) 
-9.0399999999999991

>  <m_primary>  (24) 
energy

$$$$
24:0
     RDKit          3D

 45 47  0  0  0  0  0  0  0  0999 V2000
   60.4570   26.8720   46.5700 C   0  0  0  0  0  0  0  0  0  0  0  0
   59.0070   26.5410   46.3660 C   0  0  0  0  0  0  0  0  0  0  0  0
   58.5200   25.2710   46.7010 C   0  0  0  0  0  0  0  0  0  0  0  0
   57.1640   24.9780   46.5460 C   0  0  0  0  0  0  0  0  0  0  0  0
   56.2780   25.9480   46.0680 C   0  0  0  0  0  0  0  0  0  0  0  0
   54.9710   25.6150   45.9590 F   0  0  0  0  0  0  0  0  0  0  0  0
   56.7520   27.2380   45.7400 C   0  0  0  0  0  0  0  0  0  0  0  0
   55.9050   28.2930   45.2540 N   0  0  0  0  0  0  0  0  0  0  0  0
   56.2190   29.3720   43.9320 S   0  0  0  0  0  0  0  0  0  0  0  0
   56.9560   28.6340   42.8500 O   0  0  0  0  0  0  0  0  0  0  0  0
   54.9100   29.8610   43.3820 O   0  0  0  0  0  0  0  0  0  0  0  0
   57.1390   30.7560   44.5000 C   0  0  0  0  0  0  0  0  0  0  0  0
   57.4210   31.8290   43.6460 C   0  0  0  0  0  0  0  0  0  0  0  0
   58.1590   32.9100   44.1270 C   0  0  0  0  0  0  0  0  0  0  0  0
   58.6040   32.9250   45.4590 C   0  0  0  0  0  0  0  0  0  0  0  0
   59.3840   34.0660   45.9950 C   0  0  0  0  0  0  0  0  0  0  0  0
   59.5290   35.0960   45.2810 O   0  0  0  0  0  0  0  0  0  0  0  0
   59.9790   34.0230   47.3110 N   0  0  0  0  0  0  0  0  0  0  0  0
   59.4470   34.8970   48.3600 C   0  0  0  0  0  0  0  0  0  0  0  0
   61.2600   33.3960   47.5110 C   0  0  0  0  0  0  0  0  0  0  0  0
   62.3740   33.8040   46.7560 C   0  0  0  0  0  0  0  0  0  0  0  0
   63.6150   33.1880   46.9400 C   0  0  0  0  0  0  0  0  0  0  0  0
   63.7560   32.1630   47.8790 C   0  0  0  0  0  0  0  0  0  0  0  0
   62.6550   31.7500   48.6340 C   0  0  0  0  0  0  0  0  0  0  0  0
   61.4090   32.3620   48.4530 C   0  0  0  0  0  0  0  0  0  0  0  0
   60.3410   31.9160   49.1600 F   0  0  0  0  0  0  0  0  0  0  0  0
   58.3110   31.8200   46.2740 C   0  0  0  0  0  0  0  0  0  0  0  0
   57.5880   30.7790   45.7820 N   0  0  0  0  0  0  0  0  0  0  0  0
   58.1150   27.5220   45.9060 C   0  0  0  0  0  0  0  0  0  0  0  0
   60.6738   26.9215   47.6473 H   0  0  0  0  0  0  0  0  0  0  0  0
   61.0797   26.0929   46.1061 H   0  0  0  0  0  0  0  0  0  0  0  0
   60.6800   27.8441   46.1061 H   0  0  0  0  0  0  0  0  0  0  0  0
   59.2071   24.5035   47.0868 H   0  0  0  0  0  0  0  0  0  0  0  0
   56.7896   23.9759   46.8020 H   0  0  0  0  0  0  0  0  0  0  0  0
   57.0639   31.8194   42.6056 H   0  0  0  0  0  0  0  0  0  0  0  0
   58.3933   33.7536   43.4611 H   0  0  0  0  0  0  0  0  0  0  0  0
   59.6999   34.4815   49.3466 H   0  0  0  0  0  0  0  0  0  0  0  0
   59.8881   35.8998   48.2604 H   0  0  0  0  0  0  0  0  0  0  0  0
   58.3537   34.9658   48.2604 H   0  0  0  0  0  0  0  0  0  0  0  0
   62.2682   34.6119   46.0170 H   0  0  0  0  0  0  0  0  0  0  0  0
   64.4819   33.5106   46.3447 H   0  0  0  0  0  0  0  0  0  0  0  0
   64.7341   31.6809   48.0240 H   0  0  0  0  0  0  0  0  0  0  0  0
   62.7676   30.9423   49.3721 H   0  0  0  0  0  0  0  0  0  0  0  0
   58.6677   31.7964   47.3143 H   0  0  0  0  0  0  0  0  0  0  0  0
   58.4909   28.5290   45.6721 H   0  0  0  0  0  0  0  0  0  0  0  0
  1  2  1  0
  2  3  2  0
  3  4  1  0
  4  5  2  0
  5  6  1  0
  5  7  1  0
  7  8  1  0
  8  9  1  0
  9 10  2  0
  9 11  2  0
  9 12  1  0
 12 13  2  0
 13 14  1  0
 14 15  2  0
 15 16  1  0
 16 17  2  0
 16 18  1  0
 18 19  1  0
 18 20  1  0
 20 21  2  0
 21 22  1  0
 22 23  2  0
 23 24  1  0
 24 25  2  0
 25 26  1  0
 15 27  1  0
 27 28  2  0
  7 29  2  0
 29  2  1  0
 28 12  1  0
 25 20  1  0
  1 30  1  0
  1 31  1  0
  1 32  1  0
  3 33  1  0
  4 34  1  0
 13 35  1  0
 14 36  1  0
 19 37  1  0
 19 38  1  0
 19 39  1  0
 21 40  1  0
 22 41  1  0
 23 42  1  0
 24 43  1  0
 27 44  1  0
 29 45  1  0
M  CHG  1   8  -1
M  END
>  <UniqueID>  (25) 
22

>  <SMILES>  (25) 
Cc1ccc(F)c([N-]S(=O)(=O)c2ccc(C(=O)N(C)c3ccccc3F)cn2)c1

>  <Energy>  (25) 
62.50773004634453

>  <Genealogy>  (25) 
Cc1ccc(F)c([N-]S(=O)(=O)c2ccc(C(=O)N(C)c3ccccc3F)cn2)c1 (protonated)
Cc1ccc(F)c([N-]S(=O)(=O)c2ccc(C(=O)N(C)c3ccccc3F)cn2)c1 (3D coordinates assigned)
Cc1ccc(F)c([N-]S(=O)(=O)c2ccc(C(=O)N(C)c3ccccc3F)cn2)c1 (optimized conformer: 62.50773004634453 kcal/mol)

>  <smiles>  (25) 
Cc1ccc(F)c(NS(=O)(=O)c2ccc(C(=O)N(C)c3ccccc3F)cn2)c1

>  <score_type>  (25) 
oracle

>  <origin>  (25) 
adg

>  <m_score__min__energy>  (25) 
-11

>  <m_primary>  (25) 
energy

$$$$
25:0
     RDKit          3D

 47 49  0  0  0  0  0  0  0  0999 V2000
   63.8190   32.0320   48.8980 C   0  0  0  0  0  0  0  0  0  0  0  0
   62.6200   31.5630   48.1370 C   0  0  0  0  0  0  0  0  0  0  0  0
   62.3010   32.1540   47.0710 O   0  0  0  0  0  0  0  0  0  0  0  0
   61.7980   30.5100   48.6690 N   0  0  0  0  0  0  0  0  0  0  0  0
   60.7380   29.8600   47.9450 C   0  0  0  0  0  0  0  0  0  0  0  0
   60.7150   29.9380   46.5460 C   0  0  0  0  0  0  0  0  0  0  0  0
   59.6790   29.3450   45.8180 C   0  0  0  0  0  0  0  0  0  0  0  0
   58.6460   28.6730   46.4810 C   0  0  0  0  0  0  0  0  0  0  0  0
   57.3320   27.9640   45.5490 S   0  0  0  0  0  0  0  0  0  0  0  0
   56.4660   27.0830   46.4090 O   0  0  0  0  0  0  0  0  0  0  0  0
   57.9160   27.1250   44.4470 O   0  0  0  0  0  0  0  0  0  0  0  0
   56.3640   29.2250   44.8510 N   0  0  0  0  0  0  0  0  0  0  0  0
   56.8710   30.3920   44.1900 C   0  0  0  0  0  0  0  0  0  0  0  0
   56.8870   30.5120   42.7880 C   0  0  0  0  0  0  0  0  0  0  0  0
   57.3960   31.6660   42.1870 C   0  0  0  0  0  0  0  0  0  0  0  0
   57.8950   32.7050   42.9720 C   0  0  0  0  0  0  0  0  0  0  0  0
   57.8920   32.5940   44.3670 C   0  0  0  0  0  0  0  0  0  0  0  0
   58.5460   33.8960   45.3570 S   0  0  0  0  0  0  0  0  0  0  0  0
   59.1940   34.9320   44.4800 O   0  0  0  0  0  0  0  0  0  0  0  0
   57.4270   34.5310   46.1310 O   0  0  0  0  0  0  0  0  0  0  0  0
   59.7120   33.2900   46.4540 O   0  0  0  0  0  0  0  0  0  0  0  0
   59.5310   33.1870   47.8430 C   0  0  0  0  0  0  0  0  0  0  0  0
   58.5670   32.3410   48.4290 C   0  0  0  0  0  0  0  0  0  0  0  0
   58.4180   32.2990   49.8180 C   0  0  0  0  0  0  0  0  0  0  0  0
   59.2330   33.0880   50.6360 C   0  0  0  0  0  0  0  0  0  0  0  0
   60.2010   33.9170   50.0630 C   0  0  0  0  0  0  0  0  0  0  0  0
   60.3460   33.9680   48.6740 C   0  0  0  0  0  0  0  0  0  0  0  0
   57.3720   31.4410   44.9710 C   0  0  0  0  0  0  0  0  0  0  0  0
   58.6540   28.6030   47.8800 C   0  0  0  0  0  0  0  0  0  0  0  0
   59.6870   29.2020   48.6100 C   0  0  0  0  0  0  0  0  0  0  0  0
   63.6215   31.9547   49.9774 H   0  0  0  0  0  0  0  0  0  0  0  0
   64.6859   31.4067   48.6382 H   0  0  0  0  0  0  0  0  0  0  0  0
   64.0315   33.0795   48.6382 H   0  0  0  0  0  0  0  0  0  0  0  0
   61.9340   30.2490   49.6720 H   0  0  0  0  0  0  0  0  0  0  0  0
   61.5187   30.4702   46.0162 H   0  0  0  0  0  0  0  0  0  0  0  0
   59.6759   29.4069   44.7198 H   0  0  0  0  0  0  0  0  0  0  0  0
   56.4975   29.6947   42.1633 H   0  0  0  0  0  0  0  0  0  0  0  0
   57.4032   31.7553   41.0907 H   0  0  0  0  0  0  0  0  0  0  0  0
   58.2915   33.6130   42.4941 H   0  0  0  0  0  0  0  0  0  0  0  0
   57.9298   31.7116   47.7904 H   0  0  0  0  0  0  0  0  0  0  0  0
   57.6580   31.6439   50.2688 H   0  0  0  0  0  0  0  0  0  0  0  0
   59.1122   33.0560   51.7289 H   0  0  0  0  0  0  0  0  0  0  0  0
   60.8496   34.5301   50.7060 H   0  0  0  0  0  0  0  0  0  0  0  0
   61.1063   34.6267   48.2290 H   0  0  0  0  0  0  0  0  0  0  0  0
   57.3573   31.3594   46.0679 H   0  0  0  0  0  0  0  0  0  0  0  0
   57.8453   28.0753   48.4068 H   0  0  0  0  0  0  0  0  0  0  0  0
   59.6772   29.1582   49.7091 H   0  0  0  0  0  0  0  0  0  0  0  0
  1  2  1  0
  2  3  2  0
  2  4  1  0
  4  5  1  0
  5  6  2  0
  6  7  1  0
  7  8  2  0
  8  9  1  0
  9 10  2  0
  9 11  2  0
  9 12  1  0
 12 13  1  0
 13 14  2  0
 14 15  1  0
 15 16  2  0
 16 17  1  0
 17 18  1  0
 18 19  2  0
 18 20  2  0
 18 21  1  0
 21 22  1  0
 22 23  2  0
 23 24  1  0
 24 25  2  0
 25 26  1  0
 26 27  2  0
 17 28  2  0
  8 29  1  0
 29 30  2  0
 30  5  1  0
 28 13  1  0
 27 22  1  0
  1 31  1  0
  1 32  1  0
  1 33  1  0
  4 34  1  0
  6 35  1  0
  7 36  1  0
 14 37  1  0
 15 38  1  0
 16 39  1  0
 23 40  1  0
 24 41  1  0
 25 42  1  0
 26 43  1  0
 27 44  1  0
 28 45  1  0
 29 46  1  0
 30 47  1  0
M  CHG  1  12  -1
M  END
>  <UniqueID>  (26) 
23

>  <SMILES>  (26) 
CC(=O)Nc1ccc(S(=O)(=O)[N-]c2cccc(S(=O)(=O)Oc3ccccc3)c2)cc1

>  <Energy>  (26) 
54.21849963624545

>  <Genealogy>  (26) 
CC(=O)Nc1ccc(S(=O)(=O)[N-]c2cccc(S(=O)(=O)Oc3ccccc3)c2)cc1 (protonated)
CC(=O)Nc1ccc(S(=O)(=O)[N-]c2cccc(S(=O)(=O)Oc3ccccc3)c2)cc1 (3D coordinates assigned)
CC(=O)Nc1ccc(S(=O)(=O)[N-]c2cccc(S(=O)(=O)Oc3ccccc3)c2)cc1 (optimized conformer: 54.21849963624545 kcal/mol)

>  <smiles>  (26) 
CC(=O)Nc1ccc(S(=O)(=O)Nc2cccc(S(=O)(=O)Oc3ccccc3)c2)cc1

>  <score_type>  (26) 
oracle

>  <origin>  (26) 
adg

>  <m_score__min__energy>  (26) 
-10.449999999999999

>  <m_primary>  (26) 
energy

$$$$
26:0
     RDKit          3D

 43 45  0  0  0  0  0  0  0  0999 V2000
   59.2480   28.5300   47.9970 C   0  0  0  0  0  0  0  0  0  0  0  0
   58.1320   27.6920   47.7180 O   0  0  0  0  0  0  0  0  0  0  0  0
   58.0260   26.8500   46.5990 C   0  0  0  0  0  0  0  0  0  0  0  0
   58.0600   25.4460   46.7160 C   0  0  0  0  0  0  0  0  0  0  0  0
   57.9530   24.6410   45.5800 C   0  0  0  0  0  0  0  0  0  0  0  0
   57.8050   25.2220   44.3210 C   0  0  0  0  0  0  0  0  0  0  0  0
   57.7690   26.6110   44.1910 C   0  0  0  0  0  0  0  0  0  0  0  0
   57.8950   27.4350   45.3250 C   0  0  0  0  0  0  0  0  0  0  0  0
   57.8320   28.8650   45.2050 N   0  0  0  0  0  0  0  0  0  0  0  0
   56.6360   29.5880   44.8640 C   0  0  0  0  0  0  0  0  0  0  0  0
   55.5180   29.0070   44.8550 O   0  0  0  0  0  0  0  0  0  0  0  0
   56.6880   30.9860   44.5580 N   0  0  0  0  0  0  0  0  0  0  0  0
   57.5160   31.9510   45.2210 C   0  0  0  0  0  0  0  0  0  0  0  0
   58.1430   31.5970   46.4230 C   0  0  0  0  0  0  0  0  0  0  0  0
   58.9430   32.5200   47.1020 C   0  0  0  0  0  0  0  0  0  0  0  0
   59.1030   33.8220   46.6020 C   0  0  0  0  0  0  0  0  0  0  0  0
   60.0000   34.8030   47.3070 C   0  0  0  0  0  0  0  0  0  0  0  0
   61.3460   34.1820   47.5640 C   0  0  0  0  0  0  0  0  0  0  0  0
   61.7710   33.9250   48.8760 C   0  0  0  0  0  0  0  0  0  0  0  0
   63.0080   33.3130   49.0910 C   0  0  0  0  0  0  0  0  0  0  0  0
   63.7890   32.9630   48.0340 N   0  0  0  0  0  0  0  0  0  0  0  0
   63.3970   33.1910   46.7520 C   0  0  0  0  0  0  0  0  0  0  0  0
   62.1670   33.8000   46.4930 C   0  0  0  0  0  0  0  0  0  0  0  0
   58.4600   34.1830   45.4070 C   0  0  0  0  0  0  0  0  0  0  0  0
   57.6620   33.2590   44.7290 C   0  0  0  0  0  0  0  0  0  0  0  0
   59.3729   28.6238   49.0858 H   0  0  0  0  0  0  0  0  0  0  0  0
   60.1561   28.0887   47.5604 H   0  0  0  0  0  0  0  0  0  0  0  0
   59.0775   29.5251   47.5604 H   0  0  0  0  0  0  0  0  0  0  0  0
   58.1714   24.9819   47.7071 H   0  0  0  0  0  0  0  0  0  0  0  0
   57.9855   23.5459   45.6785 H   0  0  0  0  0  0  0  0  0  0  0  0
   57.7165   24.5845   43.4290 H   0  0  0  0  0  0  0  0  0  0  0  0
   57.6415   27.0643   43.1969 H   0  0  0  0  0  0  0  0  0  0  0  0
   58.7300   29.3960   45.2680 H   0  0  0  0  0  0  0  0  0  0  0  0
   58.0047   30.5864   46.8347 H   0  0  0  0  0  0  0  0  0  0  0  0
   59.4497   32.2249   48.0327 H   0  0  0  0  0  0  0  0  0  0  0  0
   60.1260   35.6971   46.6787 H   0  0  0  0  0  0  0  0  0  0  0  0
   59.5431   35.0817   48.2680 H   0  0  0  0  0  0  0  0  0  0  0  0
   61.1348   34.2034   49.7291 H   0  0  0  0  0  0  0  0  0  0  0  0
   63.3511   33.1138   50.1170 H   0  0  0  0  0  0  0  0  0  0  0  0
   64.0498   32.8953   45.9175 H   0  0  0  0  0  0  0  0  0  0  0  0
   61.8446   33.9787   45.4566 H   0  0  0  0  0  0  0  0  0  0  0  0
   58.5855   35.1984   45.0030 H   0  0  0  0  0  0  0  0  0  0  0  0
   57.1450   33.5568   43.8049 H   0  0  0  0  0  0  0  0  0  0  0  0
  1  2  1  0
  2  3  1  0
  3  4  2  0
  4  5  1  0
  5  6  2  0
  6  7  1  0
  7  8  2  0
  8  9  1  0
  9 10  1  0
 10 11  2  0
 10 12  1  0
 12 13  1  0
 13 14  2  0
 14 15  1  0
 15 16  2  0
 16 17  1  0
 17 18  1  0
 18 19  2  0
 19 20  1  0
 20 21  2  0
 21 22  1  0
 22 23  2  0
 16 24  1  0
 24 25  2  0
  8  3  1  0
 25 13  1  0
 23 18  1  0
  1 26  1  0
  1 27  1  0
  1 28  1  0
  4 29  1  0
  5 30  1  0
  6 31  1  0
  7 32  1  0
  9 33  1  0
 14 34  1  0
 15 35  1  0
 17 36  1  0
 17 37  1  0
 19 38  1  0
 20 39  1  0
 22 40  1  0
 23 41  1  0
 24 42  1  0
 25 43  1  0
M  CHG  1  12  -1
M  END
>  <UniqueID>  (27) 
24

>  <SMILES>  (27) 
COc1ccccc1NC(=O)[N-]c1ccc(Cc2ccncc2)cc1

>  <Energy>  (27) 
52.653239515439836

>  <Genealogy>  (27) 
COc1ccccc1NC(=O)[N-]c1ccc(Cc2ccncc2)cc1 (protonated)
COc1ccccc1NC(=O)[N-]c1ccc(Cc2ccncc2)cc1 (3D coordinates assigned)
COc1ccccc1NC(=O)[N-]c1ccc(Cc2ccncc2)cc1 (optimized conformer: 52.653239515439836 kcal/mol)

>  <smiles>  (27) 
COc1ccccc1NC(=O)Nc1ccc(Cc2ccncc2)cc1

>  <score_type>  (27) 
oracle

>  <origin>  (27) 
adg

>  <m_score__min__energy>  (27) 
-10.470000000000001

>  <m_primary>  (27) 
energy

$$$$
27:0
     RDKit          3D

 50 52  0  0  0  0  0  0  0  0999 V2000
   54.9890   29.3630   53.0670 C   0  0  0  0  0  0  0  0  0  0  0  0
   56.2590   29.2070   52.4430 O   0  0  0  0  0  0  0  0  0  0  0  0
   57.0510   30.2700   51.9840 C   0  0  0  0  0  0  0  0  0  0  0  0
   56.7040   31.6170   52.1950 C   0  0  0  0  0  0  0  0  0  0  0  0
   57.5290   32.6400   51.7190 C   0  0  0  0  0  0  0  0  0  0  0  0
   58.7120   32.3370   51.0250 C   0  0  0  0  0  0  0  0  0  0  0  0
   59.6110   33.4440   50.5390 C   0  0  0  0  0  0  0  0  0  0  0  0
   59.9840   33.2300   49.0900 C   0  0  0  0  0  0  0  0  0  0  0  0
   59.0530   32.6200   48.2300 C   0  0  0  0  0  0  0  0  0  0  0  0
   59.3230   32.4560   46.8540 C   0  0  0  0  0  0  0  0  0  0  0  0
   58.3530   31.7530   45.9060 C   0  0  2  0  0  0  0  0  0  0  0  0
   58.9790   30.5860   45.3960 O   0  0  0  0  0  0  0  0  0  0  0  0
   58.0600   29.6870   44.7840 C   0  0  1  0  0  0  0  0  0  0  0  0
   57.5330   28.6590   45.8030 C   0  0  0  0  0  0  0  0  0  0  0  0
   56.2860   28.1630   45.3970 O   0  0  0  0  0  0  0  0  0  0  0  0
   56.9310   30.3850   43.9660 C   0  0  1  0  0  0  0  0  0  0  0  0
   55.7550   30.4920   44.7320 O   0  0  0  0  0  0  0  0  0  0  0  0
   57.3860   31.7870   43.5110 C   0  0  2  0  0  0  0  0  0  0  0  0
   58.3720   31.6890   42.5100 O   0  0  0  0  0  0  0  0  0  0  0  0
   57.8810   32.6420   44.7140 C   0  0  1  0  0  0  0  0  0  0  0  0
   56.8680   33.5310   45.1230 O   0  0  0  0  0  0  0  0  0  0  0  0
   60.5820   32.8610   46.3730 C   0  0  0  0  0  0  0  0  0  0  0  0
   61.5100   33.4700   47.2170 C   0  0  0  0  0  0  0  0  0  0  0  0
   61.2180   33.6690   48.5670 C   0  0  0  0  0  0  0  0  0  0  0  0
   62.4350   34.4520   49.5700 Cl  0  0  0  0  0  0  0  0  0  0  0  0
   59.0560   30.9930   50.8160 C   0  0  0  0  0  0  0  0  0  0  0  0
   58.2310   29.9700   51.2910 C   0  0  0  0  0  0  0  0  0  0  0  0
   55.1131   29.3478   54.1599 H   0  0  0  0  0  0  0  0  0  0  0  0
   54.5458   30.3223   52.7616 H   0  0  0  0  0  0  0  0  0  0  0  0
   54.3268   28.5394   52.7616 H   0  0  0  0  0  0  0  0  0  0  0  0
   55.7797   31.8661   52.7368 H   0  0  0  0  0  0  0  0  0  0  0  0
   57.2497   33.6903   51.8892 H   0  0  0  0  0  0  0  0  0  0  0  0
   59.0864   34.4057   50.6389 H   0  0  0  0  0  0  0  0  0  0  0  0
   60.5293   33.4463   51.1446 H   0  0  0  0  0  0  0  0  0  0  0  0
   58.0955   32.2636   48.6377 H   0  0  0  0  0  0  0  0  0  0  0  0
   57.4533   31.5115   46.4909 H   0  0  0  0  0  0  0  0  0  0  0  0
   58.6264   29.1328   44.0211 H   0  0  0  0  0  0  0  0  0  0  0  0
   58.2470   27.8257   45.8795 H   0  0  0  0  0  0  0  0  0  0  0  0
   57.4201   29.1511   46.7803 H   0  0  0  0  0  0  0  0  0  0  0  0
   56.2070   28.3460   44.4250 H   0  0  0  0  0  0  0  0  0  0  0  0
   56.7206   29.7693   43.0790 H   0  0  0  0  0  0  0  0  0  0  0  0
   55.9510   30.0940   45.6200 H   0  0  0  0  0  0  0  0  0  0  0  0
   56.5153   32.3038   43.0811 H   0  0  0  0  0  0  0  0  0  0  0  0
   58.8800   30.8500   42.6550 H   0  0  0  0  0  0  0  0  0  0  0  0
   58.7539   33.2217   44.3794 H   0  0  0  0  0  0  0  0  0  0  0  0
   56.0090   33.0370   45.1200 H   0  0  0  0  0  0  0  0  0  0  0  0
   60.8377   32.6948   45.3161 H   0  0  0  0  0  0  0  0  0  0  0  0
   62.4806   33.7964   46.8152 H   0  0  0  0  0  0  0  0  0  0  0  0
   59.9806   30.7430   50.2750 H   0  0  0  0  0  0  0  0  0  0  0  0
   58.5105   28.9201   51.1193 H   0  0  0  0  0  0  0  0  0  0  0  0
  1  2  1  0
  2  3  1  0
  3  4  2  0
  4  5  1  0
  5  6  2  0
  6  7  1  0
  7  8  1  0
  8  9  2  0
  9 10  1  0
 10 11  1  0
 11 12  1  0
 12 13  1  0
 13 14  1  0
 14 15  1  0
 13 16  1  0
 16 17  1  0
 16 18  1  0
 18 19  1  0
 18 20  1  0
 20 21  1  0
 10 22  2  0
 22 23  1  0
 23 24  2  0
 24 25  1  0
  6 26  1  0
 26 27  2  0
 27  3  1  0
 24  8  1  0
 20 11  1  0
  1 28  1  0
  1 29  1  0
  1 30  1  0
  4 31  1  0
  5 32  1  0
  7 33  1  0
  7 34  1  0
  9 35  1  0
 11 36  1  1
 13 37  1  6
 14 38  1  0
 14 39  1  0
 15 40  1  0
 16 41  1  6
 17 42  1  0
 18 43  1  6
 19 44  1  0
 20 45  1  6
 21 46  1  0
 22 47  1  0
 23 48  1  0
 26 49  1  0
 27 50  1  0
M  END
>  <UniqueID>  (28) 
25

>  <SMILES>  (28) 
COc1ccc(Cc2cc([C@@H]3O[C@@H](CO)C(O)C(O)C3O)ccc2Cl)cc1

>  <Energy>  (28) 
67.0109565557914

>  <Genealogy>  (28) 
COc1ccc(Cc2cc([C@@H]3O[C@@H](CO)C(O)C(O)C3O)ccc2Cl)cc1 (chirality)
COc1ccc(Cc2cc([C@@H]3O[C@@H](CO)C(O)C(O)C3O)ccc2Cl)cc1 (3D coordinates assigned)
COc1ccc(Cc2cc([C@@H]3O[C@@H](CO)C(O)C(O)C3O)ccc2Cl)cc1 (nonaromatic ring conformer: 67.0109565557914 kcal/mol)

>  <smiles>  (28) 
COc1ccc(Cc2cc(C3OC(CO)C(O)C(O)C3O)ccc2Cl)cc1

>  <score_type>  (28) 
oracle

>  <origin>  (28) 
adg

>  <m_score__min__energy>  (28) 
-7.9100000000000001

>  <m_primary>  (28) 
energy

$$$$
28:0
     RDKit          3D

 49 51  0  0  0  0  0  0  0  0999 V2000
   54.6890   26.1600   45.9840 N   0  0  0  0  0  0  0  0  0  0  0  0
   56.1630   25.3020   46.2660 S   0  0  0  0  0  0  0  0  0  0  0  0
   56.2260   24.1010   45.3650 O   0  0  0  0  0  0  0  0  0  0  0  0
   56.2080   24.8370   47.6950 O   0  0  0  0  0  0  0  0  0  0  0  0
   57.5280   26.3630   45.9380 C   0  0  0  0  0  0  0  0  0  0  0  0
   58.2870   26.8850   46.9940 C   0  0  0  0  0  0  0  0  0  0  0  0
   59.3640   27.7380   46.7340 C   0  0  0  0  0  0  0  0  0  0  0  0
   59.6920   28.0790   45.4110 C   0  0  0  0  0  0  0  0  0  0  0  0
   60.8340   29.0140   45.1230 C   0  0  0  0  0  0  0  0  0  0  0  0
   60.7650   30.1830   45.9970 N   0  0  0  0  0  0  0  0  0  0  0  0
   59.6500   31.0910   45.9760 C   0  0  0  0  0  0  0  0  0  0  0  0
   58.7290   30.9280   45.1290 O   0  0  0  0  0  0  0  0  0  0  0  0
   59.5740   32.2310   46.9210 C   0  0  0  0  0  0  0  0  0  0  0  0
   59.5830   33.5490   46.4310 C   0  0  0  0  0  0  0  0  0  0  0  0
   59.5180   34.6320   47.3110 C   0  0  0  0  0  0  0  0  0  0  0  0
   59.4370   34.4140   48.6860 C   0  0  0  0  0  0  0  0  0  0  0  0
   59.4130   33.1080   49.1920 C   0  0  0  0  0  0  0  0  0  0  0  0
   59.3090   32.8320   50.9330 S   0  0  0  0  0  0  0  0  0  0  0  0
   60.6710   32.4680   51.4570 O   0  0  0  0  0  0  0  0  0  0  0  0
   58.8750   34.1030   51.6100 O   0  0  0  0  0  0  0  0  0  0  0  0
   58.1840   31.5550   51.3210 N   0  0  0  0  0  0  0  0  0  0  0  0
   57.0070   32.0980   52.0140 C   0  0  0  0  0  0  0  0  0  0  0  0
   56.0220   30.9590   52.3550 C   0  0  0  0  0  0  0  0  0  0  0  0
   56.5460   29.6840   52.0260 O   0  0  0  0  0  0  0  0  0  0  0  0
   57.7980   29.5030   52.6590 C   0  0  0  0  0  0  0  0  0  0  0  0
   58.8340   30.5290   52.1550 C   0  0  0  0  0  0  0  0  0  0  0  0
   59.4740   32.0210   48.3080 C   0  0  0  0  0  0  0  0  0  0  0  0
   58.9230   27.5630   44.3570 C   0  0  0  0  0  0  0  0  0  0  0  0
   57.8460   26.7110   44.6200 C   0  0  0  0  0  0  0  0  0  0  0  0
   54.7730   27.0800   46.4720 H   0  0  0  0  0  0  0  0  0  0  0  0
   58.0344   26.6226   48.0320 H   0  0  0  0  0  0  0  0  0  0  0  0
   59.9562   28.1433   47.5677 H   0  0  0  0  0  0  0  0  0  0  0  0
   61.7852   28.4886   45.2941 H   0  0  0  0  0  0  0  0  0  0  0  0
   60.7697   29.3456   44.0761 H   0  0  0  0  0  0  0  0  0  0  0  0
   61.5940   30.3880   46.5960 H   0  0  0  0  0  0  0  0  0  0  0  0
   59.6416   33.7285   45.3473 H   0  0  0  0  0  0  0  0  0  0  0  0
   59.5307   35.6594   46.9183 H   0  0  0  0  0  0  0  0  0  0  0  0
   59.3918   35.2701   49.3753 H   0  0  0  0  0  0  0  0  0  0  0  0
   57.3273   32.5927   52.9428 H   0  0  0  0  0  0  0  0  0  0  0  0
   56.5053   32.8245   51.3579 H   0  0  0  0  0  0  0  0  0  0  0  0
   55.8075   30.9867   53.4335 H   0  0  0  0  0  0  0  0  0  0  0  0
   55.1083   31.1128   51.7620 H   0  0  0  0  0  0  0  0  0  0  0  0
   57.6716   29.6252   53.7449 H   0  0  0  0  0  0  0  0  0  0  0  0
   58.1647   28.4936   52.4212 H   0  0  0  0  0  0  0  0  0  0  0  0
   59.3117   31.0145   53.0187 H   0  0  0  0  0  0  0  0  0  0  0  0
   59.5872   30.0042   51.5490 H   0  0  0  0  0  0  0  0  0  0  0  0
   59.4434   30.9948   48.7031 H   0  0  0  0  0  0  0  0  0  0  0  0
   59.1686   27.8301   43.3186 H   0  0  0  0  0  0  0  0  0  0  0  0
   57.2464   26.3128   43.7882 H   0  0  0  0  0  0  0  0  0  0  0  0
  1  2  1  0
  2  3  2  0
  2  4  2  0
  2  5  1  0
  5  6  2  0
  6  7  1  0
  7  8  2  0
  8  9  1  0
  9 10  1  0
 10 11  1  0
 11 12  2  0
 11 13  1  0
 13 14  2  0
 14 15  1  0
 15 16  2  0
 16 17  1  0
 17 18  1  0
 18 19  2  0
 18 20  2  0
 18 21  1  0
 21 22  1  0
 22 23  1  0
 23 24  1  0
 24 25  1  0
 25 26  1  0
 17 27  2  0
  8 28  1  0
 28 29  2  0
 29  5  1  0
 27 13  1  0
 26 21  1  0
  1 30  1  0
  6 31  1  0
  7 32  1  0
  9 33  1  0
  9 34  1  0
 10 35  1  0
 14 36  1  0
 15 37  1  0
 16 38  1  0
 22 39  1  0
 22 40  1  0
 23 41  1  0
 23 42  1  0
 25 43  1  0
 25 44  1  0
 26 45  1  0
 26 46  1  0
 27 47  1  0
 28 48  1  0
 29 49  1  0
M  CHG  1   1  -1
M  END
>  <UniqueID>  (29) 
26

>  <SMILES>  (29) 
[NH-]S(=O)(=O)c1ccc(CNC(=O)c2cccc(S(=O)(=O)N3CCOCC3)c2)cc1

>  <Energy>  (29) 
57.07460172094641

>  <Genealogy>  (29) 
[NH-]S(=O)(=O)c1ccc(CNC(=O)c2cccc(S(=O)(=O)N3CCOCC3)c2)cc1 (protonated)
[NH-]S(=O)(=O)c1ccc(CNC(=O)c2cccc(S(=O)(=O)N3CCOCC3)c2)cc1 (3D coordinates assigned)
[NH-]S(=O)(=O)c1ccc(CNC(=O)c2cccc(S(=O)(=O)N3CCOCC3)c2)cc1 (nonaromatic ring conformer: 57.07460172094641 kcal/mol)

>  <smiles>  (29) 
NS(=O)(=O)c1ccc(CNC(=O)c2cccc(S(=O)(=O)N3CCOCC3)c2)cc1

>  <score_type>  (29) 
oracle

>  <origin>  (29) 
adg

>  <m_score__min__energy>  (29) 
-11.789999999999999

>  <m_primary>  (29) 
energy

$$$$
29:0
     RDKit          3D

 45 48  0  0  1  0  0  0  0  0999 V2000
   55.4960   25.0780   45.6770 C   0  0  0  0  0  0  0  0  0  0  0  0
   55.5390   26.4030   46.1430 O   0  0  0  0  0  0  0  0  0  0  0  0
   56.6930   27.1810   45.9770 C   0  0  0  0  0  0  0  0  0  0  0  0
   56.6330   28.2960   45.1460 C   0  0  0  0  0  0  0  0  0  0  0  0
   57.7690   29.0910   44.9610 C   0  0  0  0  0  0  0  0  0  0  0  0
   57.6860   30.2940   44.0590 C   0  0  0  0  0  0  0  0  0  0  0  0
   57.0090   31.3040   44.8840 N   0  0  0  0  0  0  0  0  0  0  0  0
   57.6230   32.3720   45.2670 C   0  0  0  0  0  0  0  0  0  0  0  0
   57.5550   33.4890   44.4970 N   0  0  0  0  0  0  0  0  0  0  0  0
   58.1920   34.6220   44.8770 C   0  0  0  0  0  0  0  0  0  0  0  0
   58.9060   34.6720   46.0230 N   0  0  0  0  0  0  0  0  0  0  0  0
   58.9780   33.5750   46.7900 C   0  0  0  0  0  0  0  0  0  0  0  0
   58.3460   32.3990   46.4410 C   0  0  0  0  0  0  0  0  0  0  0  0
   58.5820   31.4690   47.3780 N   0  0  0  0  0  0  0  0  0  0  0  0
   59.3600   32.0630   48.3080 C   0  0  0  0  0  0  0  0  0  0  0  0
   59.6070   33.3470   47.9570 N   0  0  0  0  0  0  0  0  0  0  0  0
   60.4130   34.2710   48.7400 C   0  0  0  0  0  0  0  0  0  0  0  0
   61.8450   33.8830   48.7920 C   0  0  0  0  0  0  0  0  0  0  0  0
   62.4390   33.5510   47.5710 C   0  0  0  0  0  0  0  0  0  0  0  0
   63.7570   33.1800   47.5170 C   0  0  0  0  0  0  0  0  0  0  0  0
   64.4860   33.1400   48.6760 C   0  0  0  0  0  0  0  0  0  0  0  0
   63.9140   33.4680   49.9020 C   0  0  0  0  0  0  0  0  0  0  0  0
   62.5710   33.8470   49.9620 C   0  0  0  0  0  0  0  0  0  0  0  0
   58.9360   28.7500   45.6130 C   0  0  0  0  0  0  0  0  0  0  0  0
   58.9880   27.6550   46.4260 N   0  0  0  0  0  0  0  0  0  0  0  0
   57.8840   26.8800   46.6080 C   0  0  0  0  0  0  0  0  0  0  0  0
   57.9520   25.8610   47.3710 O   0  0  0  0  0  0  0  0  0  0  0  0
   55.4736   24.3885   46.5338 H   0  0  0  0  0  0  0  0  0  0  0  0
   54.5927   24.9333   45.0662 H   0  0  0  0  0  0  0  0  0  0  0  0
   56.3880   24.8750   45.0662 H   0  0  0  0  0  0  0  0  0  0  0  0
   55.6930   28.5518   44.6351 H   0  0  0  0  0  0  0  0  0  0  0  0
   58.6902   30.6352   43.7673 H   0  0  0  0  0  0  0  0  0  0  0  0
   57.1535   30.0855   43.1193 H   0  0  0  0  0  0  0  0  0  0  0  0
   57.0030   33.4620   43.6020 H   0  0  0  0  0  0  0  0  0  0  0  0
   58.1270   35.5175   44.2414 H   0  0  0  0  0  0  0  0  0  0  0  0
   59.7381   31.5748   49.2183 H   0  0  0  0  0  0  0  0  0  0  0  0
   60.3362   35.2722   48.2908 H   0  0  0  0  0  0  0  0  0  0  0  0
   60.0279   34.2556   49.7703 H   0  0  0  0  0  0  0  0  0  0  0  0
   61.8440   33.5878   46.6466 H   0  0  0  0  0  0  0  0  0  0  0  0
   64.2233   32.9178   46.5559 H   0  0  0  0  0  0  0  0  0  0  0  0
   65.5444   32.8428   48.6372 H   0  0  0  0  0  0  0  0  0  0  0  0
   64.5178   33.4288   50.8206 H   0  0  0  0  0  0  0  0  0  0  0  0
   62.1036   34.1108   50.9222 H   0  0  0  0  0  0  0  0  0  0  0  0
   59.8355   29.3682   45.4759 H   0  0  0  0  0  0  0  0  0  0  0  0
   59.8900   27.4020   46.9230 H   0  0  0  0  0  0  0  0  0  0  0  0
  1  2  1  0
  2  3  1  0
  3  4  2  0
  4  5  1  0
  5  6  1  0
  6  7  1  0
  7  8  2  0
  8  9  1  0
  9 10  1  0
 10 11  2  0
 11 12  1  0
 12 13  2  0
 13 14  1  0
 14 15  2  0
 15 16  1  0
 16 17  1  0
 17 18  1  0
 18 19  2  0
 19 20  1  0
 20 21  2  0
 21 22  1  0
 22 23  2  0
  5 24  2  0
 24 25  1  0
 25 26  1  0
 26 27  2  0
 26  3  1  0
 13  8  1  0
 23 18  1  0
 16 12  1  0
  1 28  1  0
  1 29  1  0
  1 30  1  0
  4 31  1  0
  6 32  1  0
  6 33  1  0
  9 34  1  0
 10 35  1  0
 15 36  1  0
 17 37  1  0
 17 38  1  0
 19 39  1  0
 20 40  1  0
 21 41  1  0
 22 42  1  0
 23 43  1  0
 24 44  1  0
 25 45  1  0
M  END
>  <smiles>  (30) 
COc1cc(CN=c2[nH]cnc3c2ncn3Cc2ccccc2)c[nH]c1=O

>  <score_type>  (30) 
oracle

>  <origin>  (30) 
adg

>  <m_score__min__energy>  (30) 
-8.6500000000000004

>  <m_primary>  (30) 
energy

$$$$
30:0
     RDKit          3D

 68 70  0  0  0  0  0  0  0  0999 V2000
   58.5150   33.4770   52.0200 C   0  0  0  0  0  0  0  0  0  0  0  0
   58.0080   32.3360   51.1370 C   0  0  0  0  0  0  0  0  0  0  0  0
   58.5280   30.9630   51.5800 C   0  0  0  0  0  0  0  0  0  0  0  0
   59.2610   30.2290   50.4800 C   0  0  0  0  0  0  0  0  0  0  0  0
   58.5230   29.6800   49.4150 C   0  0  0  0  0  0  0  0  0  0  0  0
   59.1660   28.9640   48.4030 C   0  0  0  0  0  0  0  0  0  0  0  0
   60.5480   28.7990   48.4370 C   0  0  0  0  0  0  0  0  0  0  0  0
   61.3020   29.3730   49.4660 C   0  0  0  0  0  0  0  0  0  0  0  0
   60.6690   30.0980   50.4970 C   0  0  0  0  0  0  0  0  0  0  0  0
   61.3960   30.6870   51.5500 O   0  0  0  0  0  0  0  0  0  0  0  0
   62.6700   30.2540   52.0320 C   0  0  0  0  0  0  0  0  0  0  0  0
   63.8160   30.9080   51.2570 C   0  0  0  0  0  0  0  0  0  0  0  0
   63.2950   31.5070   50.0150 N   0  0  0  0  0  0  0  0  0  0  0  0
   64.2830   32.3580   49.3310 C   0  0  0  0  0  0  0  0  0  0  0  0
   64.1000   33.8440   49.6660 C   0  0  0  0  0  0  0  0  0  0  0  0
   62.6920   34.1170   49.9310 N   0  0  0  0  0  0  0  0  0  0  0  0
   61.5930   33.6610   49.1330 C   0  0  0  0  0  0  0  0  0  0  0  0
   60.5790   33.1990   49.7230 O   0  0  0  0  0  0  0  0  0  0  0  0
   61.5870   33.8320   47.6300 C   0  0  0  0  0  0  0  0  0  0  0  0
   60.2920   33.3940   46.9830 C   0  0  0  0  0  0  0  0  0  0  0  0
   59.6510   34.2290   46.0560 C   0  0  0  0  0  0  0  0  0  0  0  0
   58.4620   33.8260   45.4430 C   0  0  0  0  0  0  0  0  0  0  0  0
   57.9020   32.5750   45.7330 C   0  0  0  0  0  0  0  0  0  0  0  0
   56.7290   32.1450   45.0220 N   0  0  0  0  0  0  0  0  0  0  0  0
   56.7810   31.1600   43.9410 C   0  0  0  0  0  0  0  0  0  0  0  0
   57.3700   29.8640   44.4450 C   0  0  0  0  0  0  0  0  0  0  0  0
   58.7620   29.6660   44.4270 C   0  0  0  0  0  0  0  0  0  0  0  0
   59.3100   28.4420   44.8220 C   0  0  0  0  0  0  0  0  0  0  0  0
   60.6920   28.2630   44.7890 O   0  0  0  0  0  0  0  0  0  0  0  0
   58.4670   27.4040   45.2420 C   0  0  0  0  0  0  0  0  0  0  0  0
   57.0820   27.5920   45.2660 C   0  0  0  0  0  0  0  0  0  0  0  0
   56.5300   28.8140   44.8680 C   0  0  0  0  0  0  0  0  0  0  0  0
   55.1480   28.9760   44.8900 O   0  0  0  0  0  0  0  0  0  0  0  0
   58.5180   31.7540   46.6940 C   0  0  0  0  0  0  0  0  0  0  0  0
   59.6950   32.1700   47.3250 C   0  0  0  0  0  0  0  0  0  0  0  0
   58.3934   33.2033   53.0785 H   0  0  0  0  0  0  0  0  0  0  0  0
   59.5789   33.6595   51.8083 H   0  0  0  0  0  0  0  0  0  0  0  0
   57.9374   34.3889   51.8083 H   0  0  0  0  0  0  0  0  0  0  0  0
   56.9087   32.3242   51.1754 H   0  0  0  0  0  0  0  0  0  0  0  0
   58.3798   32.5169   50.1177 H   0  0  0  0  0  0  0  0  0  0  0  0
   59.2160   31.1046   52.4265 H   0  0  0  0  0  0  0  0  0  0  0  0
   57.6557   30.3538   51.8592 H   0  0  0  0  0  0  0  0  0  0  0  0
   57.4320   29.8158   49.3794 H   0  0  0  0  0  0  0  0  0  0  0  0
   58.5805   28.5303   47.5789 H   0  0  0  0  0  0  0  0  0  0  0  0
   61.0492   28.2147   47.6513 H   0  0  0  0  0  0  0  0  0  0  0  0
   62.3960   29.2582   49.4711 H   0  0  0  0  0  0  0  0  0  0  0  0
   62.7594   30.5215   53.0952 H   0  0  0  0  0  0  0  0  0  0  0  0
   62.7384   29.1648   51.8945 H   0  0  0  0  0  0  0  0  0  0  0  0
   64.2763   31.6919   51.8764 H   0  0  0  0  0  0  0  0  0  0  0  0
   64.5692   30.1463   51.0070 H   0  0  0  0  0  0  0  0  0  0  0  0
   62.4260   32.0540   50.2230 H   0  0  0  0  0  0  0  0  0  0  0  0
   65.2921   32.0471   49.6395 H   0  0  0  0  0  0  0  0  0  0  0  0
   64.1400   32.2365   48.2471 H   0  0  0  0  0  0  0  0  0  0  0  0
   64.6952   34.0943   50.5566 H   0  0  0  0  0  0  0  0  0  0  0  0
   64.4360   34.4541   48.8146 H   0  0  0  0  0  0  0  0  0  0  0  0
   61.7507   34.8949   47.3989 H   0  0  0  0  0  0  0  0  0  0  0  0
   62.3855   33.1922   47.2262 H   0  0  0  0  0  0  0  0  0  0  0  0
   60.0876   35.2082   45.8099 H   0  0  0  0  0  0  0  0  0  0  0  0
   57.9621   34.4956   44.7277 H   0  0  0  0  0  0  0  0  0  0  0  0
   55.8500   32.7010   45.1260 H   0  0  0  0  0  0  0  0  0  0  0  0
   55.7627   30.9757   43.5680 H   0  0  0  0  0  0  0  0  0  0  0  0
   57.4130   31.5502   43.1296 H   0  0  0  0  0  0  0  0  0  0  0  0
   59.4249   30.4805   44.0996 H   0  0  0  0  0  0  0  0  0  0  0  0
   61.1970   28.1930   43.9130 H   0  0  0  0  0  0  0  0  0  0  0  0
   58.8959   26.4400   45.5532 H   0  0  0  0  0  0  0  0  0  0  0  0
   56.4239   26.7759   45.5991 H   0  0  0  0  0  0  0  0  0  0  0  0
   58.0728   30.7813   46.9504 H   0  0  0  0  0  0  0  0  0  0  0  0
   60.1562   31.5337   48.0947 H   0  0  0  0  0  0  0  0  0  0  0  0
  1  2  1  0
  2  3  1  0
  3  4  1  0
  4  5  2  0
  5  6  1  0
  6  7  2  0
  7  8  1  0
  8  9  2  0
  9 10  1  0
 10 11  1  0
 11 12  1  0
 12 13  1  0
 13 14  1  0
 14 15  1  0
 15 16  1  0
 16 17  1  0
 17 18  2  0
 17 19  1  0
 19 20  1  0
 20 21  2  0
 21 22  1  0
 22 23  2  0
 23 24  1  0
 24 25  1  0
 25 26  1  0
 26 27  2  0
 27 28  1  0
 28 29  1  0
 28 30  2  0
 30 31  1  0
 31 32  2  0
 32 33  1  0
 23 34  1  0
 34 35  2  0
  9  4  1  0
 35 20  1  0
 32 26  1  0
  1 36  1  0
  1 37  1  0
  1 38  1  0
  2 39  1  0
  2 40  1  0
  3 41  1  0
  3 42  1  0
  5 43  1  0
  6 44  1  0
  7 45  1  0
  8 46  1  0
 11 47  1  0
 11 48  1  0
 12 49  1  0
 12 50  1  0
 13 51  1  0
 14 52  1  0
 14 53  1  0
 15 54  1  0
 15 55  1  0
 19 56  1  0
 19 57  1  0
 21 58  1  0
 22 59  1  0
 24 60  1  0
 25 61  1  0
 25 62  1  0
 27 63  1  0
 29 64  1  0
 30 65  1  0
 31 66  1  0
 34 67  1  0
 35 68  1  0
M  CHG  2  16  -1  33  -1
M  END
>  <UniqueID>  (31) 
27

>  <SMILES>  (31) 
CCCc1ccccc1OCCNCC[N-]C(=O)Cc1ccc(NCc2cc(O)ccc2[O-])cc1

>  <Energy>  (31) 
60.627626312912646

>  <Genealogy>  (31) 
CCCc1ccccc1OCCNCC[N-]C(=O)Cc1ccc(NCc2cc(O)ccc2[O-])cc1 (protonated)
CCCc1ccccc1OCCNCC[N-]C(=O)Cc1ccc(NCc2cc(O)ccc2[O-])cc1 (3D coordinates assigned)
CCCc1ccccc1OCCNCC[N-]C(=O)Cc1ccc(NCc2cc(O)ccc2[O-])cc1 (optimized conformer: 60.627626312912646 kcal/mol)

>  <smiles>  (31) 
CCCc1ccccc1OCCNCCNC(=O)Cc1ccc(NCc2cc(O)ccc2O)cc1

>  <score_type>  (31) 
oracle

>  <origin>  (31) 
adg

>  <m_score__min__energy>  (31) 
-11.869999999999999

>  <m_primary>  (31) 
energy

$$$$
31:0
     RDKit          3D

 42 44  0  0  0  0  0  0  0  0999 V2000
   56.6920   28.8380   42.5960 N   0  0  0  0  0  0  0  0  0  0  0  0
   57.2020   29.9080   43.3970 C   0  0  0  0  0  0  0  0  0  0  0  0
   56.9670   31.2360   43.0290 C   0  0  0  0  0  0  0  0  0  0  0  0
   57.4680   32.2800   43.8090 C   0  0  0  0  0  0  0  0  0  0  0  0
   58.2160   32.0090   44.9650 C   0  0  0  0  0  0  0  0  0  0  0  0
   58.7000   33.1010   45.7590 N   0  0  0  0  0  0  0  0  0  0  0  0
   59.1140   34.3360   45.0900 C   0  0  0  0  0  0  0  0  0  0  0  0
   60.0240   35.1440   46.0190 C   0  0  0  0  0  0  0  0  0  0  0  0
   59.4110   35.3310   47.2820 O   0  0  0  0  0  0  0  0  0  0  0  0
   59.2720   34.0830   47.9330 C   0  0  0  0  0  0  0  0  0  0  0  0
   58.3070   33.1710   47.1680 C   0  0  0  0  0  0  0  0  0  0  0  0
   58.4670   30.6700   45.3370 C   0  0  0  0  0  0  0  0  0  0  0  0
   59.4460   30.2450   46.7480 S   0  0  0  0  0  0  0  0  0  0  0  0
   59.8730   28.8120   46.6210 O   0  0  0  0  0  0  0  0  0  0  0  0
   58.6860   30.4210   48.0340 O   0  0  0  0  0  0  0  0  0  0  0  0
   60.8520   31.2630   46.7960 N   0  0  0  0  0  0  0  0  0  0  0  0
   61.6970   31.3860   47.9570 C   0  0  0  0  0  0  0  0  0  0  0  0
   61.5320   30.5270   49.0630 C   0  0  0  0  0  0  0  0  0  0  0  0
   62.3430   30.6580   50.1930 C   0  0  0  0  0  0  0  0  0  0  0  0
   62.1120   29.5870   51.5640 Cl  0  0  0  0  0  0  0  0  0  0  0  0
   63.3360   31.6380   50.2320 C   0  0  0  0  0  0  0  0  0  0  0  0
   63.5170   32.4910   49.1420 C   0  0  0  0  0  0  0  0  0  0  0  0
   62.7070   32.3710   48.0070 C   0  0  0  0  0  0  0  0  0  0  0  0
   62.9660   33.5000   46.6810 Cl  0  0  0  0  0  0  0  0  0  0  0  0
   57.9460   29.6300   44.5510 C   0  0  0  0  0  0  0  0  0  0  0  0
   57.0230   27.8590   42.7380 H   0  0  0  0  0  0  0  0  0  0  0  0
   55.9680   29.0150   41.8640 H   0  0  0  0  0  0  0  0  0  0  0  0
   56.3856   31.4591   42.1222 H   0  0  0  0  0  0  0  0  0  0  0  0
   57.2750   33.3224   43.5153 H   0  0  0  0  0  0  0  0  0  0  0  0
   59.6602   34.0874   44.1681 H   0  0  0  0  0  0  0  0  0  0  0  0
   58.2238   34.9326   44.8415 H   0  0  0  0  0  0  0  0  0  0  0  0
   60.9727   34.6039   46.1545 H   0  0  0  0  0  0  0  0  0  0  0  0
   60.2071   36.1293   45.5655 H   0  0  0  0  0  0  0  0  0  0  0  0
   60.2567   33.5963   47.9924 H   0  0  0  0  0  0  0  0  0  0  0  0
   58.8671   34.2559   48.9411 H   0  0  0  0  0  0  0  0  0  0  0  0
   58.3347   32.1620   47.6051 H   0  0  0  0  0  0  0  0  0  0  0  0
   57.2881   33.5793   47.2403 H   0  0  0  0  0  0  0  0  0  0  0  0
   61.0190   31.8670   45.9610 H   0  0  0  0  0  0  0  0  0  0  0  0
   60.7574   29.7464   49.0358 H   0  0  0  0  0  0  0  0  0  0  0  0
   63.9757   31.7381   51.1213 H   0  0  0  0  0  0  0  0  0  0  0  0
   64.3008   33.2620   49.1753 H   0  0  0  0  0  0  0  0  0  0  0  0
   58.1240   28.5850   44.8446 H   0  0  0  0  0  0  0  0  0  0  0  0
  1  2  1  0
  2  3  2  0
  3  4  1  0
  4  5  2  0
  5  6  1  0
  6  7  1  0
  7  8  1  0
  8  9  1  0
  9 10  1  0
 10 11  1  0
  5 12  1  0
 12 13  1  0
 13 14  2  0
 13 15  2  0
 13 16  1  0
 16 17  1  0
 17 18  2  0
 18 19  1  0
 19 20  1  0
 19 21  2  0
 21 22  1  0
 22 23  2  0
 23 24  1  0
 12 25  2  0
 25  2  1  0
 11  6  1  0
 23 17  1  0
  1 26  1  0
  1 27  1  0
  3 28  1  0
  4 29  1  0
  7 30  1  0
  7 31  1  0
  8 32  1  0
  8 33  1  0
 10 34  1  0
 10 35  1  0
 11 36  1  0
 11 37  1  0
 16 38  1  0
 18 39  1  0
 21 40  1  0
 22 41  1  0
 25 42  1  0
M  END
>  <UniqueID>  (32) 
28

>  <SMILES>  (32) 
Nc1ccc(N2CCOCC2)c(S(=O)(=O)Nc2cc(Cl)ccc2Cl)c1

>  <Energy>  (32) 
52.30316056996587

>  <Genealogy>  (32) 
Nc1ccc(N2CCOCC2)c(S(=O)(=O)Nc2cc(Cl)ccc2Cl)c1 (3D coordinates assigned)
Nc1ccc(N2CCOCC2)c(S(=O)(=O)Nc2cc(Cl)ccc2Cl)c1 (nonaromatic ring conformer: 52.30316056996587 kcal/mol)

>  <smiles>  (32) 
Nc1ccc(N2CCOCC2)c(S(=O)(=O)Nc2cc(Cl)ccc2Cl)c1

>  <score_type>  (32) 
oracle

>  <origin>  (32) 
adg

>  <m_score__min__energy>  (32) 
-7.9100000000000001

>  <m_primary>  (32) 
energy

$$$$
32:0
     RDKit          3D

 44 46  0  0  0  0  0  0  0  0999 V2000
   55.9890   31.2570   44.8140 O   0  0  0  0  0  0  0  0  0  0  0  0
   57.2190   31.2910   44.5370 C   0  0  0  0  0  0  0  0  0  0  0  0
   57.8110   30.2080   43.7970 N   0  0  0  0  0  0  0  0  0  0  0  0
   57.0810   28.9800   43.4870 C   0  0  0  0  0  0  0  0  0  0  0  0
   57.7710   27.7510   44.0870 C   0  0  0  0  0  0  0  0  0  0  0  0
   59.5940   27.9300   44.1180 S   0  0  0  0  0  0  0  0  0  0  0  0
   59.7250   28.4600   45.8380 C   0  0  0  0  0  0  0  0  0  0  0  0
   60.3070   29.7080   46.1060 C   0  0  0  0  0  0  0  0  0  0  0  0
   60.5070   30.1280   47.4220 C   0  0  0  0  0  0  0  0  0  0  0  0
   60.1180   29.3120   48.4840 C   0  0  0  0  0  0  0  0  0  0  0  0
   59.5060   28.0820   48.2320 C   0  0  0  0  0  0  0  0  0  0  0  0
   59.2740   27.6580   46.9170 C   0  0  0  0  0  0  0  0  0  0  0  0
   58.6180   26.3970   46.7240 N   0  0  0  0  0  0  0  0  0  0  0  0
   57.5380   26.0310   47.3430 C   0  0  0  0  0  0  0  0  0  0  0  0
   56.5150   25.1820   46.6810 C   0  0  0  0  0  0  0  0  0  0  0  0
   55.3800   25.7200   46.0360 C   0  0  0  0  0  0  0  0  0  0  0  0
   55.1650   27.0920   45.9770 O   0  0  0  0  0  0  0  0  0  0  0  0
   54.4740   24.8940   45.4530 N   0  0  0  0  0  0  0  0  0  0  0  0
   54.6350   23.5470   45.4740 C   0  0  0  0  0  0  0  0  0  0  0  0
   53.7800   22.8040   44.9260 O   0  0  0  0  0  0  0  0  0  0  0  0
   55.7160   23.0020   46.0820 N   0  0  0  0  0  0  0  0  0  0  0  0
   56.6530   23.7800   46.6820 C   0  0  0  0  0  0  0  0  0  0  0  0
   57.6410   23.2300   47.2380 O   0  0  0  0  0  0  0  0  0  0  0  0
   58.0370   32.4270   45.0230 C   0  0  0  0  0  0  0  0  0  0  0  0
   58.4410   33.4290   44.1230 C   0  0  0  0  0  0  0  0  0  0  0  0
   59.1720   34.5320   44.5700 C   0  0  0  0  0  0  0  0  0  0  0  0
   59.5170   34.6450   45.9190 C   0  0  0  0  0  0  0  0  0  0  0  0
   59.1390   33.6470   46.8210 C   0  0  0  0  0  0  0  0  0  0  0  0
   59.5830   33.7830   48.5130 Cl  0  0  0  0  0  0  0  0  0  0  0  0
   58.4080   32.5390   46.3770 C   0  0  0  0  0  0  0  0  0  0  0  0
   58.7950   30.2740   43.4600 H   0  0  0  0  0  0  0  0  0  0  0  0
   56.0636   29.0553   43.8983 H   0  0  0  0  0  0  0  0  0  0  0  0
   57.0532   28.8613   42.3938 H   0  0  0  0  0  0  0  0  0  0  0  0
   57.4110   27.6096   45.1168 H   0  0  0  0  0  0  0  0  0  0  0  0
   57.5267   26.8838   43.4560 H   0  0  0  0  0  0  0  0  0  0  0  0
   60.6079   30.3603   45.2730 H   0  0  0  0  0  0  0  0  0  0  0  0
   60.9723   31.1045   47.6219 H   0  0  0  0  0  0  0  0  0  0  0  0
   60.2932   29.6371   49.5202 H   0  0  0  0  0  0  0  0  0  0  0  0
   59.2036   27.4408   49.0731 H   0  0  0  0  0  0  0  0  0  0  0  0
   57.3765   26.3568   48.3812 H   0  0  0  0  0  0  0  0  0  0  0  0
   58.1792   33.3435   43.0581 H   0  0  0  0  0  0  0  0  0  0  0  0
   59.4767   35.3134   43.8583 H   0  0  0  0  0  0  0  0  0  0  0  0
   60.0855   35.5186   46.2707 H   0  0  0  0  0  0  0  0  0  0  0  0
   58.1217   31.7514   47.0895 H   0  0  0  0  0  0  0  0  0  0  0  0
  1  2  2  0
  2  3  1  0
  3  4  1  0
  4  5  1  0
  5  6  1  0
  6  7  1  0
  7  8  2  0
  8  9  1  0
  9 10  2  0
 10 11  1  0
 11 12  2  0
 12 13  1  0
 13 14  2  3
 14 15  1  0
 15 16  2  0
 16 17  1  0
 16 18  1  0
 18 19  1  0
 19 20  2  0
 19 21  1  0
 21 22  1  0
 22 23  2  0
  2 24  1  0
 24 25  2  0
 25 26  1  0
 26 27  2  0
 27 28  1  0
 28 29  1  0
 28 30  2  0
 12  7  1  0
 22 15  1  0
 30 24  1  0
  3 31  1  0
  4 32  1  0
  4 33  1  0
  5 34  1  0
  5 35  1  0
  8 36  1  0
  9 37  1  0
 10 38  1  0
 11 39  1  0
 14 40  1  0
 25 41  1  0
 26 42  1  0
 27 43  1  0
 30 44  1  0
M  CHG  3  17  -1  18  -1  21  -1
M  END
>  <UniqueID>  (33) 
29

>  <SMILES>  (33) 
O=C(NCCSc1ccccc1N=Cc1c([O-])[n-]c(=O)[n-]c1=O)c1cccc(Cl)c1

>  <Energy>  (33) 
48.70001384462708

>  <Genealogy>  (33) 
O=C(NCCSc1ccccc1N=Cc1c([O-])[n-]c(=O)[n-]c1=O)c1cccc(Cl)c1 (protonated)
O=C(NCCSc1ccccc1N=Cc1c([O-])[n-]c(=O)[n-]c1=O)c1cccc(Cl)c1 (3D coordinates assigned)
O=C(NCCSc1ccccc1N=Cc1c([O-])[n-]c(=O)[n-]c1=O)c1cccc(Cl)c1 (optimized conformer: 48.70001384462708 kcal/mol)

>  <smiles>  (33) 
O=C(NCCSc1ccccc1N=Cc1c(O)[nH]c(=O)[nH]c1=O)c1cccc(Cl)c1

>  <score_type>  (33) 
oracle

>  <origin>  (33) 
adg

>  <m_score__min__energy>  (33) 
-16.890000000000001

>  <m_primary>  (33) 
energy

$$$$
33:0
     RDKit          3D

 30 31  0  0  0  0  0  0  0  0999 V2000
   60.0220   34.2190   48.9640 Br  0  0  0  0  0  0  0  0  0  0  0  0
   59.0990   33.4300   47.4900 C   0  0  0  0  0  0  0  0  0  0  0  0
   58.4660   34.2420   46.5440 C   0  0  0  0  0  0  0  0  0  0  0  0
   57.7910   33.6640   45.4640 C   0  0  0  0  0  0  0  0  0  0  0  0
   57.7440   32.2680   45.3230 C   0  0  0  0  0  0  0  0  0  0  0  0
   57.0270   31.6520   44.1510 C   0  0  0  0  0  0  0  0  0  0  0  0
   56.2640   30.4660   44.5690 N   0  0  0  0  0  0  0  0  0  0  0  0
   56.7890   29.2160   43.9960 C   0  0  0  0  0  0  0  0  0  0  0  0
   57.8620   28.5940   44.8610 C   0  0  0  0  0  0  0  0  0  0  0  0
   59.2200   28.7700   44.5480 C   0  0  0  0  0  0  0  0  0  0  0  0
   60.2090   28.2050   45.3600 C   0  0  0  0  0  0  0  0  0  0  0  0
   59.8490   27.4590   46.4870 C   0  0  0  0  0  0  0  0  0  0  0  0
   58.5000   27.2780   46.8030 C   0  0  0  0  0  0  0  0  0  0  0  0
   57.5080   27.8430   45.9940 C   0  0  0  0  0  0  0  0  0  0  0  0
   58.3800   31.4580   46.2780 C   0  0  0  0  0  0  0  0  0  0  0  0
   59.0550   32.0380   47.3560 C   0  0  0  0  0  0  0  0  0  0  0  0
   58.4989   35.3365   46.6493 H   0  0  0  0  0  0  0  0  0  0  0  0
   57.2946   34.3062   44.7216 H   0  0  0  0  0  0  0  0  0  0  0  0
   56.3359   32.3923   43.7216 H   0  0  0  0  0  0  0  0  0  0  0  0
   57.7732   31.3452   43.4033 H   0  0  0  0  0  0  0  0  0  0  0  0
   56.2890   30.4050   45.6140 H   0  0  0  0  0  0  0  0  0  0  0  0
   55.9606   28.5000   43.8905 H   0  0  0  0  0  0  0  0  0  0  0  0
   57.2396   29.4558   43.0216 H   0  0  0  0  0  0  0  0  0  0  0  0
   59.5068   29.3542   43.6612 H   0  0  0  0  0  0  0  0  0  0  0  0
   61.2711   28.3476   45.1119 H   0  0  0  0  0  0  0  0  0  0  0  0
   60.6277   27.0149   47.1245 H   0  0  0  0  0  0  0  0  0  0  0  0
   58.2175   26.6905   47.6890 H   0  0  0  0  0  0  0  0  0  0  0  0
   56.4471   27.6985   46.2462 H   0  0  0  0  0  0  0  0  0  0  0  0
   58.3468   30.3631   46.1773 H   0  0  0  0  0  0  0  0  0  0  0  0
   59.5525   31.3988   48.1003 H   0  0  0  0  0  0  0  0  0  0  0  0
  1  2  1  0
  2  3  2  0
  3  4  1  0
  4  5  2  0
  5  6  1  0
  6  7  1  0
  7  8  1  0
  8  9  1  0
  9 10  2  0
 10 11  1  0
 11 12  2  0
 12 13  1  0
 13 14  2  0
  5 15  1  0
 15 16  2  0
 16  2  1  0
 14  9  1  0
  3 17  1  0
  4 18  1  0
  6 19  1  0
  6 20  1  0
  7 21  1  0
  8 22  1  0
  8 23  1  0
 10 24  1  0
 11 25  1  0
 12 26  1  0
 13 27  1  0
 14 28  1  0
 15 29  1  0
 16 30  1  0
M  END
>  <UniqueID>  (34) 
30

>  <SMILES>  (34) 
Brc1ccc(CNCc2ccccc2)cc1

>  <Energy>  (34) 
29.923964782412817

>  <Genealogy>  (34) 
Brc1ccc(CNCc2ccccc2)cc1 (3D coordinates assigned)
Brc1ccc(CNCc2ccccc2)cc1 (optimized conformer: 29.923964782412817 kcal/mol)

>  <smiles>  (34) 
Brc1ccc(CNCc2ccccc2)cc1

>  <score_type>  (34) 
oracle

>  <origin>  (34) 
adg

>  <m_score__min__energy>  (34) 
-6.5300000000000002

>  <m_primary>  (34) 
energy

$$$$
34:0
     RDKit          3D

 41 42  0  0  0  0  0  0  0  0999 V2000
   62.1640   31.1100   48.2880 C   0  0  0  0  0  0  0  0  0  0  0  0
   60.8940   31.0520   47.5430 N   0  0  0  0  0  0  0  0  0  0  0  0
   59.7570   30.7220   48.4540 C   0  0  0  0  0  0  0  0  0  0  0  0
   59.2210   29.2950   48.2670 C   0  0  0  0  0  0  0  0  0  0  0  0
   58.8610   29.0780   46.8620 N   0  0  0  0  0  0  0  0  0  0  0  0
   57.8470   28.1050   46.5300 C   0  0  0  0  0  0  0  0  0  0  0  0
   57.5840   27.1820   47.3470 O   0  0  0  0  0  0  0  0  0  0  0  0
   57.0890   28.1600   45.2640 C   0  0  0  0  0  0  0  0  0  0  0  0
   57.4740   27.5090   44.2560 O   0  0  0  0  0  0  0  0  0  0  0  0
   55.9190   28.9810   45.1810 N   0  0  0  0  0  0  0  0  0  0  0  0
   55.5300   29.7170   43.9830 C   0  0  0  0  0  0  0  0  0  0  0  0
   56.7700   30.1860   43.2160 C   0  0  0  0  0  0  0  0  0  0  0  0
   57.3680   31.4100   43.8670 C   0  0  0  0  0  0  0  0  0  0  0  0
   57.3610   31.5110   45.2700 C   0  0  0  0  0  0  0  0  0  0  0  0
   57.9310   32.6180   45.9030 C   0  0  0  0  0  0  0  0  0  0  0  0
   58.5240   33.6300   45.1460 C   0  0  0  0  0  0  0  0  0  0  0  0
   58.5520   33.5360   43.7540 C   0  0  0  0  0  0  0  0  0  0  0  0
   57.9840   32.4310   43.1070 C   0  0  0  0  0  0  0  0  0  0  0  0
   58.0700   32.3590   41.3490 Cl  0  0  0  0  0  0  0  0  0  0  0  0
   59.6740   29.7150   45.8160 C   0  0  0  0  0  0  0  0  0  0  0  0
   61.0350   30.1380   46.3830 C   0  0  0  0  0  0  0  0  0  0  0  0
   61.9562   31.1005   49.3682 H   0  0  0  0  0  0  0  0  0  0  0  0
   62.7829   30.2392   48.0260 H   0  0  0  0  0  0  0  0  0  0  0  0
   62.7009   32.0336   48.0260 H   0  0  0  0  0  0  0  0  0  0  0  0
   60.7250   32.0140   47.1620 H   0  0  0  0  0  0  0  0  0  0  0  0
   60.0995   30.8326   49.4935 H   0  0  0  0  0  0  0  0  0  0  0  0
   58.9355   31.4122   48.2117 H   0  0  0  0  0  0  0  0  0  0  0  0
   59.9967   28.5725   48.5607 H   0  0  0  0  0  0  0  0  0  0  0  0
   58.3285   29.1578   48.8952 H   0  0  0  0  0  0  0  0  0  0  0  0
   54.9295   29.0620   43.3347 H   0  0  0  0  0  0  0  0  0  0  0  0
   54.9418   30.5974   44.2813 H   0  0  0  0  0  0  0  0  0  0  0  0
   57.5173   29.3789   43.2093 H   0  0  0  0  0  0  0  0  0  0  0  0
   56.4747   30.4407   42.1875 H   0  0  0  0  0  0  0  0  0  0  0  0
   56.9035   30.7127   45.8728 H   0  0  0  0  0  0  0  0  0  0  0  0
   57.9126   32.6925   47.0003 H   0  0  0  0  0  0  0  0  0  0  0  0
   58.9695   34.5020   45.6471 H   0  0  0  0  0  0  0  0  0  0  0  0
   59.0228   34.3342   43.1614 H   0  0  0  0  0  0  0  0  0  0  0  0
   59.8296   29.0021   44.9929 H   0  0  0  0  0  0  0  0  0  0  0  0
   59.1471   30.6074   45.4472 H   0  0  0  0  0  0  0  0  0  0  0  0
   61.5811   29.2386   46.7038 H   0  0  0  0  0  0  0  0  0  0  0  0
   61.5807   30.6740   45.5925 H   0  0  0  0  0  0  0  0  0  0  0  0
  1  2  1  0
  2  3  1  0
  3  4  1  0
  4  5  1  0
  5  6  1  0
  6  7  2  0
  6  8  1  0
  8  9  2  0
  8 10  1  0
 10 11  1  0
 11 12  1  0
 12 13  1  0
 13 14  2  0
 14 15  1  0
 15 16  2  0
 16 17  1  0
 17 18  2  0
 18 19  1  0
  5 20  1  0
 20 21  1  0
 21  2  1  0
 18 13  1  0
  1 22  1  0
  1 23  1  0
  1 24  1  0
  2 25  1  0
  3 26  1  0
  3 27  1  0
  4 28  1  0
  4 29  1  0
 11 30  1  0
 11 31  1  0
 12 32  1  0
 12 33  1  0
 14 34  1  0
 15 35  1  0
 16 36  1  0
 17 37  1  0
 20 38  1  0
 20 39  1  0
 21 40  1  0
 21 41  1  0
M  CHG  2   2   1  10  -1
M  END
>  <UniqueID>  (35) 
31

>  <SMILES>  (35) 
C[NH+]1CCN(C(=O)C(=O)[N-]CCc2ccccc2Cl)CC1

>  <Energy>  (35) 
44.97316507810251

>  <Genealogy>  (35) 
C[NH+]1CCN(C(=O)C(=O)[N-]CCc2ccccc2Cl)CC1 (protonated)
C[NH+]1CCN(C(=O)C(=O)[N-]CCc2ccccc2Cl)CC1 (3D coordinates assigned)
C[NH+]1CCN(C(=O)C(=O)[N-]CCc2ccccc2Cl)CC1 (nonaromatic ring conformer: 44.97316507810251 kcal/mol)

>  <smiles>  (35) 
CN1CCN(C(=O)C(=O)NCCc2ccccc2Cl)CC1

>  <score_type>  (35) 
oracle

>  <origin>  (35) 
adg

>  <m_score__min__energy>  (35) 
-7.0300000000000002

>  <m_primary>  (35) 
energy

$$$$
35:0
     RDKit          3D

 47 51  0  0  0  0  0  0  0  0999 V2000
   53.7885   31.5584   50.2220 H   0  0  0  0  0  0  0  0  0  0  0  0
   53.5480   31.2430   51.2480 C   0  0  0  0  0  0  0  0  0  0  0  0
   52.2980   31.7390   51.8490 C   0  0  0  0  0  0  0  0  0  0  0  0
   51.8540   31.3460   53.0560 N   0  0  0  0  0  0  0  0  0  0  0  0
   50.6630   31.9720   53.1720 C   0  0  0  0  0  0  0  0  0  0  0  0
   49.9360   31.8600   54.1930 O   0  0  0  0  0  0  0  0  0  0  0  0
   50.3090   32.7190   52.1050 N   0  0  0  0  0  0  0  0  0  0  0  0
   51.3480   32.5540   51.2700 C   0  0  0  0  0  0  0  0  0  0  0  0
   51.3970   33.0920   49.9910 O   0  0  0  0  0  0  0  0  0  0  0  0
   54.4100   30.4310   51.8750 C   0  0  0  0  0  0  0  0  0  0  0  0
   54.2210   29.1290   52.3410 C   0  0  0  0  0  0  0  0  0  0  0  0
   53.2769   28.5675   52.2837 H   0  0  0  0  0  0  0  0  0  0  0  0
   55.3740   28.6610   52.8740 N   0  0  0  0  0  0  0  0  0  0  0  0
   56.2780   29.6220   52.7560 N   0  0  0  0  0  0  0  0  0  0  0  0
   57.5880   29.6210   53.1360 C   0  0  0  0  0  0  0  0  0  0  0  0
   58.1630   28.6070   53.7170 N   0  0  0  0  0  0  0  0  0  0  0  0
   59.5910   28.3080   53.7320 C   0  0  0  0  0  0  0  0  0  0  0  0
   59.8372   28.8048   54.6821 H   0  0  0  0  0  0  0  0  0  0  0  0
   60.1900   28.2660   52.3390 C   0  0  0  0  0  0  0  0  0  0  0  0
   59.5687   28.5121   51.4653 H   0  0  0  0  0  0  0  0  0  0  0  0
   61.0595   28.7311   51.8514 H   0  0  0  0  0  0  0  0  0  0  0  0
   59.9490   26.9740   53.1040 C   0  0  0  0  0  0  0  0  0  0  0  0
   59.1533   26.2853   52.7839 H   0  0  0  0  0  0  0  0  0  0  0  0
   60.5717   26.1167   53.3995 H   0  0  0  0  0  0  0  0  0  0  0  0
   58.3220   30.7410   52.8850 N   0  0  0  0  0  0  0  0  0  0  0  0
   57.7610   31.8310   52.2720 C   0  0  0  0  0  0  0  0  0  0  0  0
   58.4650   32.8960   52.0360 N   0  0  0  0  0  0  0  0  0  0  0  0
   59.6570   32.9190   51.1930 C   0  0  0  0  0  0  0  0  0  0  0  0
   60.1981   31.9668   51.2955 H   0  0  0  0  0  0  0  0  0  0  0  0
   60.3125   33.7459   51.5038 H   0  0  0  0  0  0  0  0  0  0  0  0
   59.2480   33.1120   49.7610 C   0  0  0  0  0  0  0  0  0  0  0  0
   58.5120   32.1190   49.0960 C   0  0  0  0  0  0  0  0  0  0  0  0
   58.2104   31.2079   49.6334 H   0  0  0  0  0  0  0  0  0  0  0  0
   58.1610   32.2840   47.7530 C   0  0  0  0  0  0  0  0  0  0  0  0
   57.5751   31.5049   47.2433 H   0  0  0  0  0  0  0  0  0  0  0  0
   58.5480   33.4310   47.0510 C   0  0  0  0  0  0  0  0  0  0  0  0
   58.1710   33.5490   45.7050 O   0  0  0  0  0  0  0  0  0  0  0  0
   57.0300   34.2680   45.2500 C   0  0  0  0  0  0  0  0  0  0  0  0
   56.4556   34.6300   46.1155 H   0  0  0  0  0  0  0  0  0  0  0  0
   57.3551   35.1247   44.6414 H   0  0  0  0  0  0  0  0  0  0  0  0
   56.3975   33.6050   44.6414 H   0  0  0  0  0  0  0  0  0  0  0  0
   59.3000   34.4210   47.7140 C   0  0  0  0  0  0  0  0  0  0  0  0
   59.6120   35.3263   47.1727 H   0  0  0  0  0  0  0  0  0  0  0  0
   59.6510   34.2570   49.0570 C   0  0  0  0  0  0  0  0  0  0  0  0
   60.2465   35.0299   49.5649 H   0  0  0  0  0  0  0  0  0  0  0  0
   56.4500   31.8050   51.9020 N   0  0  0  0  0  0  0  0  0  0  0  0
   55.7330   30.6840   52.1580 C   0  0  0  0  0  0  0  0  0  0  0  0
  1  2  1  0
  2  3  1  0
  3  4  1  0
  4  5  1  0
  5  6  2  0
  5  7  1  0
  7  8  1  0
  8  9  1  0
  2 10  2  0
 10 11  1  0
 11 12  1  0
 11 13  2  0
 13 14  1  0
 14 15  1  0
 15 16  2  3
 16 17  1  0
 17 18  1  0
 17 19  1  0
 19 20  1  0
 19 21  1  0
 19 22  1  0
 22 23  1  0
 22 24  1  0
 15 25  1  0
 25 26  1  0
 26 27  2  0
 27 28  1  0
 28 29  1  0
 28 30  1  0
 28 31  1  0
 31 32  2  0
 32 33  1  0
 32 34  1  0
 34 35  1  0
 34 36  2  0
 36 37  1  0
 37 38  1  0
 38 39  1  0
 38 40  1  0
 38 41  1  0
 36 42  1  0
 42 43  1  0
 42 44  2  0
 44 45  1  0
 26 46  1  0
 46 47  2  0
  8  3  2  0
 47 10  1  0
 47 14  1  0
 22 17  1  0
 44 31  1  0
M  CHG  4   4  -1   7  -1   9  -1  25  -1
M  END
>  <UniqueID>  (36) 
32

>  <SMILES>  (36) 
COc1ccc(C/N=c2/nc3/c(=C/c4[n-]c(=O)[n-]c4[O-])cnn3c(=NC3CC3)[n-]2)cc1

>  <Energy>  (36) 
391.20855398245027

>  <Genealogy>  (36) 
COc1ccc(CN=c2nc3c(=Cc4[n-]c(=O)[n-]c4[O-])cnn3c(=NC3CC3)[n-]2)cc1 (protonated)
COc1ccc(C/N=c2/nc3/c(=C/c4[n-]c(=O)[n-]c4[O-])cnn3c(=NC3CC3)[n-]2)cc1 (cis-trans isomerization)
COc1ccc(C/N=c2/nc3/c(=C/c4[n-]c(=O)[n-]c4[O-])cnn3c(=NC3CC3)[n-]2)cc1 (3D coordinates assigned)
COc1ccc(C/N=c2/nc3/c(=C/c4[n-]c(=O)[n-]c4[O-])cnn3c(=NC3CC3)[n-]2)cc1 (nonaromatic ring conformer: 391.20855398245027 kcal/mol)

>  <smiles>  (36) 
COc1ccc(CN=c2nc3c(=Cc4[nH]c(=O)[nH]c4O)cnn3c(=NC3CC3)[nH]2)cc1

>  <score_type>  (36) 
oracle

>  <origin>  (36) 
adg

>  <m_score__min__energy>  (36) 
-17.780000000000001

>  <m_primary>  (36) 
energy

$$$$
36:0
     RDKit          3D

 50 52  0  0  0  0  0  0  0  0999 V2000
   57.0110   30.8250   43.5910 C   0  0  0  0  0  0  0  0  0  0  0  0
   56.9610   30.9300   44.9980 O   0  0  0  0  0  0  0  0  0  0  0  0
   57.7270   32.0390   45.4180 C   0  0  0  0  0  0  0  0  0  0  0  0
   56.8430   33.2850   45.4440 C   0  0  0  0  0  0  0  0  0  0  0  0
   57.6560   34.4960   45.5410 N   0  0  0  0  0  0  0  0  0  0  0  0
   59.0670   34.5530   45.3020 C   0  0  0  0  0  0  0  0  0  0  0  0
   59.4870   34.5210   44.1170 O   0  0  0  0  0  0  0  0  0  0  0  0
   60.0100   34.5950   46.3760 N   0  0  0  0  0  0  0  0  0  0  0  0
   60.0080   33.7060   47.4990 C   0  0  0  0  0  0  0  0  0  0  0  0
   59.5940   34.1950   48.7620 C   0  0  0  0  0  0  0  0  0  0  0  0
   59.5430   33.3460   49.8800 C   0  0  0  0  0  0  0  0  0  0  0  0
   59.9000   32.0150   49.6950 C   0  0  0  0  0  0  0  0  0  0  0  0
   59.9020   30.9290   50.5380 C   0  0  0  0  0  0  0  0  0  0  0  0
   59.5660   30.9340   51.7510 O   0  0  0  0  0  0  0  0  0  0  0  0
   60.2930   29.8320   49.8480 N   0  0  0  0  0  0  0  0  0  0  0  0
   60.3110   28.4630   50.3630 C   0  0  0  0  0  0  0  0  0  0  0  0
   60.5280   30.1870   48.5820 N   0  0  0  0  0  0  0  0  0  0  0  0
   60.8680   29.2660   47.4910 C   0  0  0  0  0  0  0  0  0  0  0  0
   59.7300   28.3160   47.2260 C   0  0  0  0  0  0  0  0  0  0  0  0
   59.9250   26.9290   47.3290 C   0  0  0  0  0  0  0  0  0  0  0  0
   58.8710   26.0450   47.0740 C   0  0  0  0  0  0  0  0  0  0  0  0
   57.6090   26.5370   46.7160 C   0  0  0  0  0  0  0  0  0  0  0  0
   56.2810   25.4310   46.3780 S   0  0  0  0  0  0  0  0  0  0  0  0
   54.8620   26.3370   45.9820 N   0  0  0  0  0  0  0  0  0  0  0  0
   55.9930   24.5840   47.5850 O   0  0  0  0  0  0  0  0  0  0  0  0
   56.6520   24.5450   45.2220 O   0  0  0  0  0  0  0  0  0  0  0  0
   57.4120   27.9210   46.6070 C   0  0  0  0  0  0  0  0  0  0  0  0
   58.4630   28.8060   46.8630 C   0  0  0  0  0  0  0  0  0  0  0  0
   60.2920   31.5190   48.4780 C   0  0  0  0  0  0  0  0  0  0  0  0
   60.3540   32.3410   47.3490 C   0  0  0  0  0  0  0  0  0  0  0  0
   57.4684   29.8646   43.3110 H   0  0  0  0  0  0  0  0  0  0  0  0
   55.9909   30.8781   43.1829 H   0  0  0  0  0  0  0  0  0  0  0  0
   57.6127   31.6505   43.1829 H   0  0  0  0  0  0  0  0  0  0  0  0
   58.1246   31.8499   46.4260 H   0  0  0  0  0  0  0  0  0  0  0  0
   58.5619   32.1951   44.7191 H   0  0  0  0  0  0  0  0  0  0  0  0
   56.2470   33.3237   44.5203 H   0  0  0  0  0  0  0  0  0  0  0  0
   56.1837   33.2314   46.3229 H   0  0  0  0  0  0  0  0  0  0  0  0
   59.3090   35.2521   48.8688 H   0  0  0  0  0  0  0  0  0  0  0  0
   59.2318   33.7207   50.8663 H   0  0  0  0  0  0  0  0  0  0  0  0
   60.3107   28.4849   51.4628 H   0  0  0  0  0  0  0  0  0  0  0  0
   59.4198   27.9255   50.0067 H   0  0  0  0  0  0  0  0  0  0  0  0
   61.2160   27.9491   50.0067 H   0  0  0  0  0  0  0  0  0  0  0  0
   61.0747   29.8459   46.5794 H   0  0  0  0  0  0  0  0  0  0  0  0
   61.7555   28.6845   47.7811 H   0  0  0  0  0  0  0  0  0  0  0  0
   60.9124   26.5353   47.6119 H   0  0  0  0  0  0  0  0  0  0  0  0
   59.0337   24.9601   47.1549 H   0  0  0  0  0  0  0  0  0  0  0  0
   55.1530   27.0800   45.3040 H   0  0  0  0  0  0  0  0  0  0  0  0
   56.4252   28.3122   46.3185 H   0  0  0  0  0  0  0  0  0  0  0  0
   58.2983   29.8904   46.7802 H   0  0  0  0  0  0  0  0  0  0  0  0
   60.6625   31.9393   46.3726 H   0  0  0  0  0  0  0  0  0  0  0  0
  1  2  1  0
  2  3  1  0
  3  4  1  0
  4  5  1  0
  5  6  1  0
  6  7  2  0
  6  8  1  0
  8  9  1  0
  9 10  2  0
 10 11  1  0
 11 12  2  0
 12 13  1  0
 13 14  2  0
 13 15  1  0
 15 16  1  0
 15 17  1  0
 17 18  1  0
 18 19  1  0
 19 20  2  0
 20 21  1  0
 21 22  2  0
 22 23  1  0
 23 24  1  0
 23 25  2  0
 23 26  2  0
 22 27  1  0
 27 28  2  0
 17 29  1  0
 29 30  2  0
 30  9  1  0
 29 12  1  0
 28 19  1  0
  1 31  1  0
  1 32  1  0
  1 33  1  0
  3 34  1  0
  3 35  1  0
  4 36  1  0
  4 37  1  0
 10 38  1  0
 11 39  1  0
 16 40  1  0
 16 41  1  0
 16 42  1  0
 18 43  1  0
 18 44  1  0
 20 45  1  0
 21 46  1  0
 24 47  1  0
 27 48  1  0
 28 49  1  0
 30 50  1  0
M  CHG  3   5  -1   8  -1  24  -1
M  END
>  <UniqueID>  (37) 
33

>  <SMILES>  (37) 
COCC[N-]C(=O)[N-]c1ccc2c(=O)n(C)n(Cc3ccc(S([NH-])(=O)=O)cc3)c2c1

>  <Energy>  (37) 
96.69095281542032

>  <Genealogy>  (37) 
COCC[N-]C(=O)[N-]c1ccc2c(=O)n(C)n(Cc3ccc(S([NH-])(=O)=O)cc3)c2c1 (protonated)
COCC[N-]C(=O)[N-]c1ccc2c(=O)n(C)n(Cc3ccc(S([NH-])(=O)=O)cc3)c2c1 (3D coordinates assigned)
COCC[N-]C(=O)[N-]c1ccc2c(=O)n(C)n(Cc3ccc(S([NH-])(=O)=O)cc3)c2c1 (optimized conformer: 96.69095281542032 kcal/mol)

>  <smiles>  (37) 
COCCNC(=O)Nc1ccc2c(=O)n(C)n(Cc3ccc(S(N)(=O)=O)cc3)c2c1

>  <score_type>  (37) 
oracle

>  <origin>  (37) 
adg

>  <m_score__min__energy>  (37) 
-12.65

>  <m_primary>  (37) 
energy

$$$$
37:0
     RDKit          3D

 63 68  0  0  0  0  0  0  0  0999 V2000
   66.0870   33.8270   50.1600 O   0  0  0  0  0  0  0  0  0  0  0  0
   66.0350   32.5690   50.1140 C   0  0  0  0  0  0  0  0  0  0  0  0
   67.1240   31.8270   50.6750 N   0  0  0  0  0  0  0  0  0  0  0  0
   67.0280   30.4980   51.7880 S   0  0  0  0  0  0  0  0  0  0  0  0
   67.8700   29.3420   51.3280 O   0  0  0  0  0  0  0  0  0  0  0  0
   67.5690   30.9670   53.1090 O   0  0  0  0  0  0  0  0  0  0  0  0
   65.3450   30.0020   51.9840 C   0  0  0  0  0  0  0  0  0  0  0  0
   64.3510   30.9550   52.2470 C   0  0  0  0  0  0  0  0  0  0  0  0
   63.0130   30.5670   52.3610 C   0  0  0  0  0  0  0  0  0  0  0  0
   62.6520   29.2170   52.2210 C   0  0  0  0  0  0  0  0  0  0  0  0
   61.2060   28.8010   52.2900 C   0  0  0  0  0  0  0  0  0  0  0  0
   60.4160   29.5370   51.3020 N   0  0  0  0  0  0  0  0  0  0  0  0
   60.4410   29.3230   49.8900 C   0  0  0  0  0  0  0  0  0  0  0  0
   60.9020   28.2760   49.3590 O   0  0  0  0  0  0  0  0  0  0  0  0
   59.9020   30.4930   49.1190 C   0  0  2  0  0  0  0  0  0  0  0  0
   58.7080   30.1600   48.2050 C   0  0  0  0  0  0  0  0  0  0  0  0
   59.2320   30.5940   46.8690 C   0  0  0  0  0  0  0  0  0  0  0  0
   58.4740   30.5130   45.5920 C   0  0  0  0  0  0  0  0  0  0  0  0
   58.0380   29.2620   45.1120 C   0  0  0  0  0  0  0  0  0  0  0  0
   57.3100   29.1680   43.9220 C   0  0  0  0  0  0  0  0  0  0  0  0
   57.0110   30.3190   43.1920 C   0  0  0  0  0  0  0  0  0  0  0  0
   57.4400   31.5650   43.6490 C   0  0  0  0  0  0  0  0  0  0  0  0
   58.1660   31.6710   44.8410 C   0  0  0  0  0  0  0  0  0  0  0  0
   58.5600   32.9010   45.2540 F   0  0  0  0  0  0  0  0  0  0  0  0
   60.4310   31.0680   46.9440 N   0  0  0  0  0  0  0  0  0  0  0  0
   60.8720   31.0310   48.2400 O   0  0  0  0  0  0  0  0  0  0  0  0
   59.5850   31.4340   50.2420 C   0  0  0  0  0  0  0  0  0  0  0  0
   59.1000   32.7410   50.1690 C   0  0  0  0  0  0  0  0  0  0  0  0
   58.9120   33.4550   51.3630 C   0  0  0  0  0  0  0  0  0  0  0  0
   59.2160   32.8590   52.6020 C   0  0  0  0  0  0  0  0  0  0  0  0
   59.7130   31.5480   52.6580 C   0  0  0  0  0  0  0  0  0  0  0  0
   59.8910   30.8530   51.4580 C   0  0  0  0  0  0  0  0  0  0  0  0
   63.6500   28.2620   51.9760 C   0  0  0  0  0  0  0  0  0  0  0  0
   64.9860   28.6540   51.8510 C   0  0  0  0  0  0  0  0  0  0  0  0
   64.8930   31.9200   49.5280 N   0  0  0  0  0  0  0  0  0  0  0  0
   63.8120   32.6470   48.9250 C   0  0  0  0  0  0  0  0  0  0  0  0
   63.7240   32.7150   47.5270 C   0  0  0  0  0  0  0  0  0  0  0  0
   62.6890   33.4310   46.9180 C   0  0  0  0  0  0  0  0  0  0  0  0
   61.7440   34.0990   47.7010 C   0  0  0  0  0  0  0  0  0  0  0  0
   61.8350   34.0550   49.0920 C   0  0  0  0  0  0  0  0  0  0  0  0
   62.8680   33.3370   49.7070 C   0  0  0  0  0  0  0  0  0  0  0  0
   62.9700   33.3580   51.0590 F   0  0  0  0  0  0  0  0  0  0  0  0
   64.6255   32.0137   52.3643 H   0  0  0  0  0  0  0  0  0  0  0  0
   62.2391   31.3226   52.5613 H   0  0  0  0  0  0  0  0  0  0  0  0
   61.1288   27.7229   52.0856 H   0  0  0  0  0  0  0  0  0  0  0  0
   60.8180   29.0238   53.2949 H   0  0  0  0  0  0  0  0  0  0  0  0
   58.4787   29.0842   48.2177 H   0  0  0  0  0  0  0  0  0  0  0  0
   57.7658   30.6456   48.4992 H   0  0  0  0  0  0  0  0  0  0  0  0
   58.2729   28.3495   45.6796 H   0  0  0  0  0  0  0  0  0  0  0  0
   56.9725   28.1854   43.5608 H   0  0  0  0  0  0  0  0  0  0  0  0
   56.4372   30.2437   42.2565 H   0  0  0  0  0  0  0  0  0  0  0  0
   57.2063   32.4700   43.0690 H   0  0  0  0  0  0  0  0  0  0  0  0
   58.8701   33.2015   49.1968 H   0  0  0  0  0  0  0  0  0  0  0  0
   58.5256   34.4844   51.3305 H   0  0  0  0  0  0  0  0  0  0  0  0
   59.0628   33.4252   53.5326 H   0  0  0  0  0  0  0  0  0  0  0  0
   59.9566   31.0785   53.6225 H   0  0  0  0  0  0  0  0  0  0  0  0
   63.3800   27.1998   51.8818 H   0  0  0  0  0  0  0  0  0  0  0  0
   65.7602   27.8997   51.6470 H   0  0  0  0  0  0  0  0  0  0  0  0
   64.7320   30.9100   49.7030 H   0  0  0  0  0  0  0  0  0  0  0  0
   64.4734   32.2022   46.9062 H   0  0  0  0  0  0  0  0  0  0  0  0
   62.6186   33.4685   45.8209 H   0  0  0  0  0  0  0  0  0  0  0  0
   60.9285   34.6594   47.2205 H   0  0  0  0  0  0  0  0  0  0  0  0
   61.0936   34.5856   49.7074 H   0  0  0  0  0  0  0  0  0  0  0  0
  1  2  2  0
  2  3  1  0
  3  4  1  0
  4  5  2  0
  4  6  2  0
  4  7  1  0
  7  8  2  0
  8  9  1  0
  9 10  2  0
 10 11  1  0
 11 12  1  0
 12 13  1  0
 13 14  2  0
 13 15  1  0
 15 16  1  0
 16 17  1  0
 17 18  1  0
 18 19  2  0
 19 20  1  0
 20 21  2  0
 21 22  1  0
 22 23  2  0
 23 24  1  0
 17 25  2  0
 25 26  1  0
 15 27  1  0
 27 28  2  0
 28 29  1  0
 29 30  2  0
 30 31  1  0
 31 32  2  0
 10 33  1  0
 33 34  2  0
  2 35  1  0
 35 36  1  0
 36 37  2  0
 37 38  1  0
 38 39  2  0
 39 40  1  0
 40 41  2  0
 41 42  1  0
 34  7  1  0
 41 36  1  0
 32 12  1  0
 15 26  1  6
 32 27  1  0
 23 18  1  0
  8 43  1  0
  9 44  1  0
 11 45  1  0
 11 46  1  0
 16 47  1  0
 16 48  1  0
 19 49  1  0
 20 50  1  0
 21 51  1  0
 22 52  1  0
 28 53  1  0
 29 54  1  0
 30 55  1  0
 31 56  1  0
 33 57  1  0
 34 58  1  0
 35 59  1  0
 37 60  1  0
 38 61  1  0
 39 62  1  0
 40 63  1  0
M  CHG  1   3  -1
M  END
>  <UniqueID>  (38) 
34

>  <SMILES>  (38) 
O=C([N-]S(=O)(=O)c1ccc(CN2C(=O)[C@@]3(CC(c4ccccc4F)=NO3)c3ccccc32)cc1)Nc1ccccc1F

>  <Energy>  (38) 
116.12055626458915

>  <Genealogy>  (38) 
O=C([N-]S(=O)(=O)c1ccc(CN2C(=O)C3(CC(c4ccccc4F)=NO3)c3ccccc32)cc1)Nc1ccccc1F (protonated)
O=C([N-]S(=O)(=O)c1ccc(CN2C(=O)[C@@]3(CC(c4ccccc4F)=NO3)c3ccccc32)cc1)Nc1ccccc1F (chirality)
O=C([N-]S(=O)(=O)c1ccc(CN2C(=O)[C@@]3(CC(c4ccccc4F)=NO3)c3ccccc32)cc1)Nc1ccccc1F (3D coordinates assigned)
O=C([N-]S(=O)(=O)c1ccc(CN2C(=O)[C@@]3(CC(c4ccccc4F)=NO3)c3ccccc32)cc1)Nc1ccccc1F (nonaromatic ring conformer: 116.12055626458915 kcal/mol)

>  <smiles>  (38) 
O=C(Nc1ccccc1F)NS(=O)(=O)c1ccc(CN2C(=O)C3(CC(c4ccccc4F)=NO3)c3ccccc32)cc1

>  <score_type>  (38) 
oracle

>  <origin>  (38) 
adg

>  <m_score__min__energy>  (38) 
-13.15

>  <m_primary>  (38) 
energy

$$$$
38:0
     RDKit          3D

 51 54  0  0  0  0  0  0  0  0999 V2000
   53.2990   22.6484   46.6900 H   0  0  0  0  0  0  0  0  0  0  0  0
   54.1170   23.1400   46.1430 C   0  0  0  0  0  0  0  0  0  0  0  0
   54.3930   24.4500   46.3680 N   0  0  0  0  0  0  0  0  0  0  0  0
   55.3920   25.0830   45.6970 C   0  0  0  0  0  0  0  0  0  0  0  0
   55.6230   26.3400   45.9420 N   0  0  0  0  0  0  0  0  0  0  0  0
   56.7820   27.1000   45.5520 C   0  0  0  0  0  0  0  0  0  0  0  0
   57.9500   26.4120   45.2080 C   0  0  0  0  0  0  0  0  0  0  0  0
   57.9564   25.3120   45.2069 H   0  0  0  0  0  0  0  0  0  0  0  0
   59.1080   27.1130   44.8660 C   0  0  0  0  0  0  0  0  0  0  0  0
   60.0178   26.5636   44.5823 H   0  0  0  0  0  0  0  0  0  0  0  0
   59.1150   28.5100   44.8830 C   0  0  0  0  0  0  0  0  0  0  0  0
   60.0287   29.0555   44.6045 H   0  0  0  0  0  0  0  0  0  0  0  0
   57.9610   29.2230   45.2540 C   0  0  0  0  0  0  0  0  0  0  0  0
   57.9730   30.7090   45.2910 C   0  0  0  0  0  0  0  0  0  0  0  0
   57.4170   31.4540   44.2350 C   0  0  0  0  0  0  0  0  0  0  0  0
   56.9717   30.9338   43.3742 H   0  0  0  0  0  0  0  0  0  0  0  0
   57.4270   32.8500   44.2730 C   0  0  0  0  0  0  0  0  0  0  0  0
   56.9984   33.4237   43.4380 H   0  0  0  0  0  0  0  0  0  0  0  0
   57.9790   33.5210   45.3670 C   0  0  0  0  0  0  0  0  0  0  0  0
   57.9894   34.6208   45.3870 H   0  0  0  0  0  0  0  0  0  0  0  0
   58.5210   32.7960   46.4420 C   0  0  0  0  0  0  0  0  0  0  0  0
   59.1120   33.4630   47.5700 N   0  0  0  0  0  0  0  0  0  0  0  0
   58.5690   33.4950   48.4630 H   0  0  0  0  0  0  0  0  0  0  0  0
   60.3400   34.2080   47.5070 C   0  0  0  0  0  0  0  0  0  0  0  0
   60.7860   34.6020   46.3980 O   0  0  0  0  0  0  0  0  0  0  0  0
   61.0220   34.5990   48.7030 N   0  0  0  0  0  0  0  0  0  0  0  0
   62.3140   34.1390   49.1290 C   0  0  0  0  0  0  0  0  0  0  0  0
   63.1680   33.5530   48.1890 C   0  0  0  0  0  0  0  0  0  0  0  0
   62.8499   33.4710   47.1392 H   0  0  0  0  0  0  0  0  0  0  0  0
   64.4220   33.0710   48.5730 C   0  0  0  0  0  0  0  0  0  0  0  0
   65.0890   32.6253   47.8204 H   0  0  0  0  0  0  0  0  0  0  0  0
   64.8380   33.1510   49.9130 C   0  0  0  0  0  0  0  0  0  0  0  0
   66.1360   32.6640   50.3020 N   0  0  0  0  0  0  0  0  0  0  0  0
   67.1500   33.3840   50.1840 O   0  0  0  0  0  0  0  0  0  0  0  0
   66.2850   31.3770   50.7720 O   0  0  0  0  0  0  0  0  0  0  0  0
   63.9650   33.7120   50.8630 C   0  0  0  0  0  0  0  0  0  0  0  0
   64.2699   33.7689   51.9184 H   0  0  0  0  0  0  0  0  0  0  0  0
   62.7120   34.1980   50.4750 C   0  0  0  0  0  0  0  0  0  0  0  0
   62.0350   34.6285   51.2275 H   0  0  0  0  0  0  0  0  0  0  0  0
   58.5330   31.3940   46.3870 C   0  0  0  0  0  0  0  0  0  0  0  0
   58.9857   30.8223   47.2106 H   0  0  0  0  0  0  0  0  0  0  0  0
   56.7990   28.5080   45.5980 C   0  0  0  0  0  0  0  0  0  0  0  0
   55.8949   29.0538   45.9059 H   0  0  0  0  0  0  0  0  0  0  0  0
   56.1480   24.3840   44.8060 N   0  0  0  0  0  0  0  0  0  0  0  0
   55.9220   23.0650   44.5600 C   0  0  0  0  0  0  0  0  0  0  0  0
   56.7470   22.3500   43.5300 C   0  0  0  0  0  0  0  0  0  0  0  0
   58.0720   22.3440   43.9300 F   0  0  0  0  0  0  0  0  0  0  0  0
   56.3100   21.0430   43.3930 F   0  0  0  0  0  0  0  0  0  0  0  0
   56.6460   22.9810   42.3010 F   0  0  0  0  0  0  0  0  0  0  0  0
   54.8700   22.4180   45.2190 C   0  0  0  0  0  0  0  0  0  0  0  0
   54.6425   21.3619   45.0119 H   0  0  0  0  0  0  0  0  0  0  0  0
  1  2  1  0
  2  3  1  0
  3  4  1  0
  4  5  2  0
  5  6  1  0
  6  7  2  0
  7  8  1  0
  7  9  1  0
  9 10  1  0
  9 11  2  0
 11 12  1  0
 11 13  1  0
 13 14  1  0
 14 15  2  0
 15 16  1  0
 15 17  1  0
 17 18  1  0
 17 19  2  0
 19 20  1  0
 19 21  1  0
 21 22  1  0
 22 23  1  0
 22 24  1  0
 24 25  2  0
 24 26  1  0
 26 27  1  0
 27 28  2  0
 28 29  1  0
 28 30  1  0
 30 31  1  0
 30 32  2  0
 32 33  1  0
 33 34  2  0
 33 35  1  0
 32 36  1  0
 36 37  1  0
 36 38  2  0
 38 39  1  0
 21 40  2  0
 40 41  1  0
 13 42  2  0
 42 43  1  0
  4 44  1  0
 44 45  2  0
 45 46  1  0
 46 47  1  0
 46 48  1  0
 46 49  1  0
 45 50  1  0
 50 51  1  0
 50  2  2  0
 42  6  1  0
 40 14  1  0
 38 27  1  0
M  CHG  4   3  -1  26  -1  33   1  35  -1
M  END
>  <UniqueID>  (39) 
35

>  <SMILES>  (39) 
O=C([N-]c1ccc([N+](=O)[O-])cc1)Nc1cccc(-c2cccc(/N=c3\nc(C(F)(F)F)cc[n-]3)c2)c1

>  <Energy>  (39) 
75.9046686567163

>  <Genealogy>  (39) 
O=C([N-]c1ccc([N+](=O)[O-])cc1)Nc1cccc(-c2cccc(N=c3nc(C(F)(F)F)cc[n-]3)c2)c1 (protonated)
O=C([N-]c1ccc([N+](=O)[O-])cc1)Nc1cccc(-c2cccc(/N=c3\nc(C(F)(F)F)cc[n-]3)c2)c1 (cis-trans isomerization)
O=C([N-]c1ccc([N+](=O)[O-])cc1)Nc1cccc(-c2cccc(/N=c3\nc(C(F)(F)F)cc[n-]3)c2)c1 (3D coordinates assigned)
O=C([N-]c1ccc([N+](=O)[O-])cc1)Nc1cccc(-c2cccc(/N=c3\nc(C(F)(F)F)cc[n-]3)c2)c1 (optimized conformer: 75.9046686567163 kcal/mol)

>  <smiles>  (39) 
O=C(Nc1ccc([N+](=O)[O-])cc1)Nc1cccc(-c2cccc(N=c3nc(C(F)(F)F)cc[nH]3)c2)c1

>  <score_type>  (39) 
oracle

>  <origin>  (39) 
adg

>  <m_score__min__energy>  (39) 
-12.789999999999999

>  <m_primary>  (39) 
energy

$$$$
39:0
     RDKit          3D

 30 31  0  0  0  0  0  0  0  0999 V2000
   63.7370   31.9780   48.7250 C   0  0  0  0  0  0  0  0  0  0  0  0
   62.5210   32.4760   48.0020 C   0  0  0  0  0  0  0  0  0  0  0  0
   62.6270   33.5270   47.0780 C   0  0  0  0  0  0  0  0  0  0  0  0
   61.5000   33.9670   46.3780 C   0  0  0  0  0  0  0  0  0  0  0  0
   60.2590   33.3480   46.5780 C   0  0  0  0  0  0  0  0  0  0  0  0
   58.8370   33.9170   45.7140 S   0  0  0  0  0  0  0  0  0  0  0  0
   57.8360   34.4760   46.6870 O   0  0  0  0  0  0  0  0  0  0  0  0
   59.2210   35.0120   44.7590 O   0  0  0  0  0  0  0  0  0  0  0  0
   58.1260   32.5720   44.8310 C   0  0  0  0  0  0  0  0  0  0  0  0
   57.9300   32.6640   43.4460 C   0  0  0  0  0  0  0  0  0  0  0  0
   57.3840   31.5880   42.7410 C   0  0  0  0  0  0  0  0  0  0  0  0
   57.0350   30.4070   43.4120 C   0  0  0  0  0  0  0  0  0  0  0  0
   56.4770   29.3060   42.6910 N   0  0  0  0  0  0  0  0  0  0  0  0
   57.2400   30.3120   44.7960 C   0  0  0  0  0  0  0  0  0  0  0  0
   57.7860   31.3890   45.5010 C   0  0  0  0  0  0  0  0  0  0  0  0
   60.1530   32.2920   47.4940 C   0  0  0  0  0  0  0  0  0  0  0  0
   61.2790   31.8520   48.1950 C   0  0  0  0  0  0  0  0  0  0  0  0
   63.5716   32.0457   49.8104 H   0  0  0  0  0  0  0  0  0  0  0  0
   63.9252   30.9304   48.4474 H   0  0  0  0  0  0  0  0  0  0  0  0
   64.6060   32.5927   48.4474 H   0  0  0  0  0  0  0  0  0  0  0  0
   63.6015   34.0067   46.9039 H   0  0  0  0  0  0  0  0  0  0  0  0
   61.5877   34.8022   45.6676 H   0  0  0  0  0  0  0  0  0  0  0  0
   58.2067   33.5855   42.9128 H   0  0  0  0  0  0  0  0  0  0  0  0
   57.2273   31.6677   41.6551 H   0  0  0  0  0  0  0  0  0  0  0  0
   55.8770   29.4660   41.8510 H   0  0  0  0  0  0  0  0  0  0  0  0
   56.6600   28.3230   42.9900 H   0  0  0  0  0  0  0  0  0  0  0  0
   56.9706   29.3879   45.3283 H   0  0  0  0  0  0  0  0  0  0  0  0
   57.9493   31.3074   46.5857 H   0  0  0  0  0  0  0  0  0  0  0  0
   59.1796   31.8078   47.6616 H   0  0  0  0  0  0  0  0  0  0  0  0
   61.1914   31.0130   48.9010 H   0  0  0  0  0  0  0  0  0  0  0  0
  1  2  1  0
  2  3  2  0
  3  4  1  0
  4  5  2  0
  5  6  1  0
  6  7  2  0
  6  8  2  0
  6  9  1  0
  9 10  2  0
 10 11  1  0
 11 12  2  0
 12 13  1  0
 12 14  1  0
 14 15  2  0
  5 16  1  0
 16 17  2  0
 17  2  1  0
 15  9  1  0
  1 18  1  0
  1 19  1  0
  1 20  1  0
  3 21  1  0
  4 22  1  0
 10 23  1  0
 11 24  1  0
 13 25  1  0
 13 26  1  0
 14 27  1  0
 15 28  1  0
 16 29  1  0
 17 30  1  0
M  END
>  <UniqueID>  (40) 
36

>  <SMILES>  (40) 
Cc1ccc(S(=O)(=O)c2ccc(N)cc2)cc1

>  <Energy>  (40) 
30.61319043270316

>  <Genealogy>  (40) 
Cc1ccc(S(=O)(=O)c2ccc(N)cc2)cc1 (3D coordinates assigned)
Cc1ccc(S(=O)(=O)c2ccc(N)cc2)cc1 (optimized conformer: 30.61319043270316 kcal/mol)

>  <smiles>  (40) 
Cc1ccc(S(=O)(=O)c2ccc(N)cc2)cc1

>  <score_type>  (40) 
oracle

>  <origin>  (40) 
adg

>  <m_score__min__energy>  (40) 
-7.1200000000000001

>  <m_primary>  (40) 
energy

$$$$
40:0
     RDKit          3D

 57 60  0  0  0  0  0  0  0  0999 V2000
   57.0914   29.4422   43.7576 H   0  0  0  0  0  0  0  0  0  0  0  0
   57.3660   30.4770   44.0100 C   0  0  0  0  0  0  0  0  0  0  0  0
   57.3820   30.8780   45.3090 N   0  0  0  0  0  0  0  0  0  0  0  0
   57.7170   32.1480   45.6620 C   0  0  0  0  0  0  0  0  0  0  0  0
   57.7207   32.4394   46.7227 H   0  0  0  0  0  0  0  0  0  0  0  0
   58.0580   33.0880   44.6770 C   0  0  0  0  0  0  0  0  0  0  0  0
   58.3740   34.5130   45.0460 C   0  0  0  0  0  0  0  0  0  0  0  0
   57.4428   35.0983   45.0296 H   0  0  0  0  0  0  0  0  0  0  0  0
   59.1010   34.8983   44.3160 H   0  0  0  0  0  0  0  0  0  0  0  0
   59.0030   34.6230   46.4420 C   0  0  0  0  0  0  0  0  0  0  0  0
   58.7959   33.6991   47.0019 H   0  0  0  0  0  0  0  0  0  0  0  0
   58.5655   35.4940   46.9518 H   0  0  0  0  0  0  0  0  0  0  0  0
   60.4520   34.8160   46.3600 N   0  0  0  0  0  0  0  0  0  0  0  0
   61.3490   33.9360   46.6970 C   0  0  0  0  0  0  0  0  0  0  0  0
   62.6710   34.1500   46.4470 N   0  0  0  0  0  0  0  0  0  0  0  0
   63.6260   33.2500   46.8040 C   0  0  0  0  0  0  0  0  0  0  0  0
   64.6851   33.4593   46.5929 H   0  0  0  0  0  0  0  0  0  0  0  0
   63.2630   32.0610   47.4380 C   0  0  0  0  0  0  0  0  0  0  0  0
   64.0327   31.3320   47.7313 H   0  0  0  0  0  0  0  0  0  0  0  0
   61.9110   31.8030   47.6980 C   0  0  0  0  0  0  0  0  0  0  0  0
   61.4990   30.5010   48.3320 C   0  0  0  0  0  0  0  0  0  0  0  0
   60.8798   30.7083   49.2172 H   0  0  0  0  0  0  0  0  0  0  0  0
   62.4013   29.9445   48.6254 H   0  0  0  0  0  0  0  0  0  0  0  0
   60.7310   29.6960   47.3840 N   0  0  0  0  0  0  0  0  0  0  0  0
   60.8900   29.8500   46.3630 H   0  0  0  0  0  0  0  0  0  0  0  0
   59.7470   28.7390   47.8080 C   0  0  0  0  0  0  0  0  0  0  0  0
   59.5870   28.4990   49.0350 O   0  0  0  0  0  0  0  0  0  0  0  0
   58.9060   28.0470   46.8200 C   0  0  0  0  0  0  0  0  0  0  0  0
   59.1790   27.9920   45.4990 N   0  0  0  0  0  0  0  0  0  0  0  0
   58.2110   27.2990   44.9210 N   0  0  0  0  0  0  0  0  0  0  0  0
   58.1220   27.0810   43.4820 C   0  0  0  0  0  0  0  0  0  0  0  0
   57.7128   26.0786   43.2876 H   0  0  0  0  0  0  0  0  0  0  0  0
   57.4615   27.8394   43.0364 H   0  0  0  0  0  0  0  0  0  0  0  0
   59.1246   27.1605   43.0364 H   0  0  0  0  0  0  0  0  0  0  0  0
   57.3030   26.9420   45.8500 C   0  0  0  0  0  0  0  0  0  0  0  0
   56.2200   26.2680   45.5800 N   0  0  0  0  0  0  0  0  0  0  0  0
   56.0180   24.8700   45.8310 C   0  0  0  0  0  0  0  0  0  0  0  0
   55.1890   24.5300   46.7150 O   0  0  0  0  0  0  0  0  0  0  0  0
   56.8090   23.8260   45.1310 C   0  0  0  0  0  0  0  0  0  0  0  0
   56.2360   23.0940   44.0760 C   0  0  0  0  0  0  0  0  0  0  0  0
   55.1995   23.2975   43.7689 H   0  0  0  0  0  0  0  0  0  0  0  0
   56.9760   22.1090   43.4150 C   0  0  0  0  0  0  0  0  0  0  0  0
   56.5227   21.5462   42.5857 H   0  0  0  0  0  0  0  0  0  0  0  0
   58.2890   21.8380   43.8050 C   0  0  0  0  0  0  0  0  0  0  0  0
   58.8703   21.0647   43.2814 H   0  0  0  0  0  0  0  0  0  0  0  0
   58.8640   22.5500   44.8610 C   0  0  0  0  0  0  0  0  0  0  0  0
   60.1370   22.2810   45.2440 F   0  0  0  0  0  0  0  0  0  0  0  0
   58.1280   23.5350   45.5260 C   0  0  0  0  0  0  0  0  0  0  0  0
   58.5824   24.0857   46.3628 H   0  0  0  0  0  0  0  0  0  0  0  0
   57.7210   27.3830   47.0920 C   0  0  0  0  0  0  0  0  0  0  0  0
   57.2291   27.2404   48.0655 H   0  0  0  0  0  0  0  0  0  0  0  0
   60.9470   32.7520   47.3250 C   0  0  0  0  0  0  0  0  0  0  0  0
   59.8814   32.5662   47.5251 H   0  0  0  0  0  0  0  0  0  0  0  0
   58.0450   32.6880   43.3320 C   0  0  0  0  0  0  0  0  0  0  0  0
   58.3083   33.4068   42.5421 H   0  0  0  0  0  0  0  0  0  0  0  0
   57.6980   31.3780   42.9960 C   0  0  0  0  0  0  0  0  0  0  0  0
   57.6863   31.0589   41.9434 H   0  0  0  0  0  0  0  0  0  0  0  0
  1  2  1  0
  2  3  2  0
  3  4  1  0
  4  5  1  0
  4  6  2  0
  6  7  1  0
  7  8  1  0
  7  9  1  0
  7 10  1  0
 10 11  1  0
 10 12  1  0
 10 13  1  0
 13 14  2  0
 14 15  1  0
 15 16  1  0
 16 17  1  0
 16 18  2  0
 18 19  1  0
 18 20  1  0
 20 21  1  0
 21 22  1  0
 21 23  1  0
 21 24  1  0
 24 25  1  0
 24 26  1  0
 26 27  2  0
 26 28  1  0
 28 29  1  0
 29 30  1  0
 30 31  1  0
 31 32  1  0
 31 33  1  0
 31 34  1  0
 30 35  1  0
 35 36  2  3
 36 37  1  0
 37 38  2  0
 37 39  1  0
 39 40  2  0
 40 41  1  0
 40 42  1  0
 42 43  1  0
 42 44  2  0
 44 45  1  0
 44 46  1  0
 46 47  1  0
 46 48  2  0
 48 49  1  0
 35 50  1  0
 50 51  1  0
 20 52  2  0
 52 53  1  0
  6 54  1  0
 54 55  1  0
 54 56  2  0
 56 57  1  0
 56  2  1  0
 52 14  1  0
 50 28  2  0
 48 39  1  0
M  CHG  2  15  -1  29  -1
M  END
>  <UniqueID>  (41) 
37

>  <SMILES>  (41) 
Cn1[n-]c(C(=O)NCc2cc[n-]/c(=N\CCc3cccnc3)c2)cc1=NC(=O)c1cccc(F)c1

>  <Energy>  (41) 
95.48511408439018

>  <Genealogy>  (41) 
Cn1[n-]c(C(=O)NCc2cc[n-]c(=NCCc3cccnc3)c2)cc1=NC(=O)c1cccc(F)c1 (protonated)
Cn1[n-]c(C(=O)NCc2cc[n-]/c(=N\CCc3cccnc3)c2)cc1=NC(=O)c1cccc(F)c1 (cis-trans isomerization)
Cn1[n-]c(C(=O)NCc2cc[n-]/c(=N\CCc3cccnc3)c2)cc1=NC(=O)c1cccc(F)c1 (3D coordinates assigned)
Cn1[n-]c(C(=O)NCc2cc[n-]/c(=N\CCc3cccnc3)c2)cc1=NC(=O)c1cccc(F)c1 (optimized conformer: 95.48511408439018 kcal/mol)

>  <smiles>  (41) 
Cn1[nH]c(C(=O)NCc2cc[nH]c(=NCCc3cccnc3)c2)cc1=NC(=O)c1cccc(F)c1

>  <score_type>  (41) 
oracle

>  <origin>  (41) 
adg

>  <m_score__min__energy>  (41) 
-11.82

>  <m_primary>  (41) 
energy

$$$$
41:0
     RDKit          3D

 48 51  0  0  0  0  0  0  0  0999 V2000
   59.9160   28.7530   48.4730 C   0  0  0  0  0  0  0  0  0  0  0  0
   58.8900   29.5960   49.2220 C   0  0  0  0  0  0  0  0  0  0  0  0
   59.5260   30.6650   49.9210 O   0  0  0  0  0  0  0  0  0  0  0  0
   58.9090   31.5160   50.8560 C   0  0  0  0  0  0  0  0  0  0  0  0
   57.7750   31.1280   51.5990 C   0  0  0  0  0  0  0  0  0  0  0  0
   57.2010   32.0060   52.5200 C   0  0  0  0  0  0  0  0  0  0  0  0
   57.7530   33.2710   52.7220 C   0  0  0  0  0  0  0  0  0  0  0  0
   58.8790   33.6640   51.9980 C   0  0  0  0  0  0  0  0  0  0  0  0
   59.4530   32.7980   51.0490 C   0  0  0  0  0  0  0  0  0  0  0  0
   60.6180   33.1800   50.3020 N   0  0  0  0  0  0  0  0  0  0  0  0
   60.6240   33.8210   49.0190 C   0  0  0  0  0  0  0  0  0  0  0  0
   61.4690   34.7300   48.8030 O   0  0  0  0  0  0  0  0  0  0  0  0
   59.7010   33.4110   47.9350 C   0  0  0  0  0  0  0  0  0  0  0  0
   59.8100   32.1440   47.3400 C   0  0  0  0  0  0  0  0  0  0  0  0
   58.9250   31.7600   46.3280 C   0  0  0  0  0  0  0  0  0  0  0  0
   57.9210   32.6330   45.8930 C   0  0  0  0  0  0  0  0  0  0  0  0
   57.0160   32.1860   44.8750 N   0  0  0  0  0  0  0  0  0  0  0  0
   57.3520   30.9310   43.7270 S   0  0  0  0  0  0  0  0  0  0  0  0
   56.2680   30.9150   42.6860 O   0  0  0  0  0  0  0  0  0  0  0  0
   58.6690   31.2120   43.0610 O   0  0  0  0  0  0  0  0  0  0  0  0
   57.4480   29.3770   44.5470 C   0  0  0  0  0  0  0  0  0  0  0  0
   58.7070   28.7760   44.7940 C   0  0  0  0  0  0  0  0  0  0  0  0
   58.7890   27.5230   45.4300 C   0  0  0  0  0  0  0  0  0  0  0  0
   57.5970   26.9070   45.8030 C   0  0  0  0  0  0  0  0  0  0  0  0
   57.4400   25.7220   46.4100 N   0  0  0  0  0  0  0  0  0  0  0  0
   56.0900   25.6370   46.5200 C   0  0  0  0  0  0  0  0  0  0  0  0
   55.5190   24.6480   47.0490 O   0  0  0  0  0  0  0  0  0  0  0  0
   55.3990   26.6930   46.0210 N   0  0  0  0  0  0  0  0  0  0  0  0
   56.3850   27.4840   45.5720 C   0  0  0  0  0  0  0  0  0  0  0  0
   56.2640   28.7220   44.9480 C   0  0  0  0  0  0  0  0  0  0  0  0
   57.8280   33.9120   46.4680 C   0  0  0  0  0  0  0  0  0  0  0  0
   58.7140   34.2990   47.4770 C   0  0  0  0  0  0  0  0  0  0  0  0
   60.5564   28.2268   49.1962 H   0  0  0  0  0  0  0  0  0  0  0  0
   59.3958   28.0180   47.8412 H   0  0  0  0  0  0  0  0  0  0  0  0
   60.5361   29.4059   47.8412 H   0  0  0  0  0  0  0  0  0  0  0  0
   58.1711   30.0134   48.5016 H   0  0  0  0  0  0  0  0  0  0  0  0
   58.3727   28.9558   49.9518 H   0  0  0  0  0  0  0  0  0  0  0  0
   57.3405   30.1282   51.4521 H   0  0  0  0  0  0  0  0  0  0  0  0
   56.3105   31.6993   53.0883 H   0  0  0  0  0  0  0  0  0  0  0  0
   57.3007   33.9585   53.4519 H   0  0  0  0  0  0  0  0  0  0  0  0
   59.3207   34.6566   52.1700 H   0  0  0  0  0  0  0  0  0  0  0  0
   60.5960   31.4496   47.6718 H   0  0  0  0  0  0  0  0  0  0  0  0
   59.0184   30.7642   45.8701 H   0  0  0  0  0  0  0  0  0  0  0  0
   59.6280   29.2928   44.4862 H   0  0  0  0  0  0  0  0  0  0  0  0
   59.7611   27.0468   45.6257 H   0  0  0  0  0  0  0  0  0  0  0  0
   55.2772   29.1755   44.7730 H   0  0  0  0  0  0  0  0  0  0  0  0
   57.0535   34.6123   46.1219 H   0  0  0  0  0  0  0  0  0  0  0  0
   58.6379   35.3051   47.9151 H   0  0  0  0  0  0  0  0  0  0  0  0
  1  2  1  0
  2  3  1  0
  3  4  1  0
  4  5  2  0
  5  6  1  0
  6  7  2  0
  7  8  1  0
  8  9  2  0
  9 10  1  0
 10 11  1  0
 11 12  2  0
 11 13  1  0
 13 14  2  0
 14 15  1  0
 15 16  2  0
 16 17  1  0
 17 18  1  0
 18 19  2  0
 18 20  2  0
 18 21  1  0
 21 22  2  0
 22 23  1  0
 23 24  2  0
 24 25  1  0
 25 26  1  0
 26 27  2  0
 26 28  1  0
 28 29  1  0
 29 30  2  0
 16 31  1  0
 31 32  2  0
  9  4  1  0
 32 13  1  0
 30 21  1  0
 29 24  1  0
  1 33  1  0
  1 34  1  0
  1 35  1  0
  2 36  1  0
  2 37  1  0
  5 38  1  0
  6 39  1  0
  7 40  1  0
  8 41  1  0
 14 42  1  0
 15 43  1  0
 22 44  1  0
 23 45  1  0
 30 46  1  0
 31 47  1  0
 32 48  1  0
M  CHG  4  10  -1  17  -1  25  -1  28  -1
M  END
>  <UniqueID>  (42) 
38

>  <SMILES>  (42) 
CCOc1ccccc1[N-]C(=O)c1ccc([N-]S(=O)(=O)c2ccc3[n-]c(=O)[n-]c3c2)cc1

>  <Energy>  (42) 
95.66029862521088

>  <Genealogy>  (42) 
CCOc1ccccc1[N-]C(=O)c1ccc([N-]S(=O)(=O)c2ccc3[n-]c(=O)[n-]c3c2)cc1 (protonated)
CCOc1ccccc1[N-]C(=O)c1ccc([N-]S(=O)(=O)c2ccc3[n-]c(=O)[n-]c3c2)cc1 (3D coordinates assigned)
CCOc1ccccc1[N-]C(=O)c1ccc([N-]S(=O)(=O)c2ccc3[n-]c(=O)[n-]c3c2)cc1 (optimized conformer: 95.66029862521088 kcal/mol)

>  <smiles>  (42) 
CCOc1ccccc1NC(=O)c1ccc(NS(=O)(=O)c2ccc3[nH]c(=O)[nH]c3c2)cc1

>  <score_type>  (42) 
oracle

>  <origin>  (42) 
adg

>  <m_score__min__energy>  (42) 
-15.32

>  <m_primary>  (42) 
energy

$$$$
42:0
     RDKit          3D

 53 55  0  0  0  0  0  0  0  0999 V2000
   58.8140   34.5580   45.5880 C   0  0  0  0  0  0  0  0  0  0  0  0
   59.4410   33.7070   46.6490 C   0  0  0  0  0  0  0  0  0  0  0  0
   60.3790   34.2440   47.3790 N   0  0  0  0  0  0  0  0  0  0  0  0
   61.1170   33.6600   48.4680 C   0  0  0  0  0  0  0  0  0  0  0  0
   60.5120   32.9490   49.4570 C   0  0  0  0  0  0  0  0  0  0  0  0
   61.3230   32.5880   50.6650 C   0  0  0  0  0  0  0  0  0  0  0  0
   60.7690   32.3180   51.7610 O   0  0  0  0  0  0  0  0  0  0  0  0
   62.8280   32.6690   50.6580 C   0  0  0  0  0  0  0  0  0  0  0  0
   63.4130   32.9360   49.2510 C   0  0  0  0  0  0  0  0  0  0  0  0
   64.8710   33.4200   49.3870 C   0  0  0  0  0  0  0  0  0  0  0  0
   63.4040   31.6390   48.4050 C   0  0  0  0  0  0  0  0  0  0  0  0
   62.5730   34.0430   48.5710 C   0  0  0  0  0  0  0  0  0  0  0  0
   59.0450   32.5520   49.2790 C   0  0  2  0  0  0  0  0  0  0  0  0
   58.3560   31.9420   50.4850 C   0  0  0  0  0  0  0  0  0  0  0  0
   57.7680   32.6050   51.5540 C   0  0  0  0  0  0  0  0  0  0  0  0
   57.2910   31.6200   52.3920 C   0  0  0  0  0  0  0  0  0  0  0  0
   57.6150   30.4190   51.7930 C   0  0  0  0  0  0  0  0  0  0  0  0
   58.2470   30.6420   50.6640 O   0  0  0  0  0  0  0  0  0  0  0  0
   58.9020   31.7090   48.0140 C   0  0  0  0  0  0  0  0  0  0  0  0
   58.6800   30.2800   48.1050 C   0  0  0  0  0  0  0  0  0  0  0  0
   58.5090   29.1360   48.1780 N   0  0  0  0  0  0  0  0  0  0  0  0
   59.0350   32.2810   46.7950 C   0  0  0  0  0  0  0  0  0  0  0  0
   58.8710   31.2900   45.2820 S   0  0  0  0  0  0  0  0  0  0  0  0
   57.1710   31.8260   44.8410 C   0  0  0  0  0  0  0  0  0  0  0  0
   56.4540   30.8370   43.9160 C   0  0  0  0  0  0  0  0  0  0  0  0
   57.1430   29.4630   43.8570 C   0  0  0  0  0  0  0  0  0  0  0  0
   56.7790   28.7510   42.6280 N   0  0  0  0  0  0  0  0  0  0  0  0
   58.2247   35.3578   46.0602 H   0  0  0  0  0  0  0  0  0  0  0  0
   59.6015   35.0033   44.9623 H   0  0  0  0  0  0  0  0  0  0  0  0
   58.1553   33.9378   44.9623 H   0  0  0  0  0  0  0  0  0  0  0  0
   63.1381   33.4852   51.3271 H   0  0  0  0  0  0  0  0  0  0  0  0
   63.2113   31.6942   50.9939 H   0  0  0  0  0  0  0  0  0  0  0  0
   65.1308   33.5063   50.4524 H   0  0  0  0  0  0  0  0  0  0  0  0
   65.5440   32.6971   48.9028 H   0  0  0  0  0  0  0  0  0  0  0  0
   64.9781   34.4019   48.9028 H   0  0  0  0  0  0  0  0  0  0  0  0
   63.3979   30.7653   49.0733 H   0  0  0  0  0  0  0  0  0  0  0  0
   62.5057   31.6214   47.7704 H   0  0  0  0  0  0  0  0  0  0  0  0
   64.3020   31.6089   47.7704 H   0  0  0  0  0  0  0  0  0  0  0  0
   62.6569   34.9669   49.1620 H   0  0  0  0  0  0  0  0  0  0  0  0
   62.9607   34.1881   47.5519 H   0  0  0  0  0  0  0  0  0  0  0  0
   58.4880   33.4939   49.1667 H   0  0  0  0  0  0  0  0  0  0  0  0
   57.6974   33.6927   51.7017 H   0  0  0  0  0  0  0  0  0  0  0  0
   56.7599   31.7620   53.3448 H   0  0  0  0  0  0  0  0  0  0  0  0
   57.3791   29.4248   52.2004 H   0  0  0  0  0  0  0  0  0  0  0  0
   56.5847   31.9294   45.7660 H   0  0  0  0  0  0  0  0  0  0  0  0
   57.2560   32.7804   44.3008 H   0  0  0  0  0  0  0  0  0  0  0  0
   55.4255   30.6982   44.2806 H   0  0  0  0  0  0  0  0  0  0  0  0
   56.4756   31.2603   42.9009 H   0  0  0  0  0  0  0  0  0  0  0  0
   58.2335   29.6049   43.8822 H   0  0  0  0  0  0  0  0  0  0  0  0
   56.8148   28.8663   44.7208 H   0  0  0  0  0  0  0  0  0  0  0  0
   57.5150   28.9030   41.8930 H   0  0  0  0  0  0  0  0  0  0  0  0
   56.6750   27.7230   42.8240 H   0  0  0  0  0  0  0  0  0  0  0  0
   55.8670   29.1260   42.2740 H   0  0  0  0  0  0  0  0  0  0  0  0
  1  2  1  0
  2  3  2  0
  3  4  1  0
  4  5  2  0
  5  6  1  0
  6  7  2  0
  6  8  1  0
  8  9  1  0
  9 10  1  0
  9 11  1  0
  9 12  1  0
  5 13  1  0
 13 14  1  0
 14 15  2  0
 15 16  1  0
 16 17  2  0
 17 18  1  0
 13 19  1  0
 19 20  1  0
 20 21  3  0
 19 22  2  0
 22 23  1  0
 23 24  1  0
 24 25  1  0
 25 26  1  0
 26 27  1  0
 22  2  1  0
 12  4  1  0
 18 14  1  0
  1 28  1  0
  1 29  1  0
  1 30  1  0
  8 31  1  0
  8 32  1  0
 10 33  1  0
 10 34  1  0
 10 35  1  0
 11 36  1  0
 11 37  1  0
 11 38  1  0
 12 39  1  0
 12 40  1  0
 13 41  1  6
 15 42  1  0
 16 43  1  0
 17 44  1  0
 24 45  1  0
 24 46  1  0
 25 47  1  0
 25 48  1  0
 26 49  1  0
 26 50  1  0
 27 51  1  0
 27 52  1  0
 27 53  1  0
M  CHG  1  27   1
M  END
>  <UniqueID>  (43) 
39

>  <SMILES>  (43) 
CC1=NC2=C(C(=O)CC(C)(C)C2)[C@H](c2ccco2)C(C#N)=C1SCCC[NH3+]

>  <Energy>  (43) 
96.21123205408095

>  <Genealogy>  (43) 
CC1=NC2=C(C(=O)CC(C)(C)C2)C(c2ccco2)C(C#N)=C1SCCC[NH3+] (protonated)
CC1=NC2=C(C(=O)CC(C)(C)C2)[C@H](c2ccco2)C(C#N)=C1SCCC[NH3+] (chirality)
CC1=NC2=C(C(=O)CC(C)(C)C2)[C@H](c2ccco2)C(C#N)=C1SCCC[NH3+] (3D coordinates assigned)
CC1=NC2=C(C(=O)CC(C)(C)C2)[C@H](c2ccco2)C(C#N)=C1SCCC[NH3+] (nonaromatic ring conformer: 96.21123205408095 kcal/mol)

>  <smiles>  (43) 
CC1=NC2=C(C(=O)CC(C)(C)C2)C(c2ccco2)C(C#N)=C1SCCCN

>  <score_type>  (43) 
oracle

>  <origin>  (43) 
adg

>  <m_score__min__energy>  (43) 
-4.2999999999999998

>  <m_primary>  (43) 
energy

$$$$
43:0
     RDKit          3D

 35 36  0  0  0  0  0  0  0  0999 V2000
   54.7800   26.1810   45.9960 N   0  0  0  0  0  0  0  0  0  0  0  0
   56.4230   25.6640   45.8670 S   0  0  0  0  0  0  0  0  0  0  0  0
   56.5830   24.7960   44.6490 O   0  0  0  0  0  0  0  0  0  0  0  0
   56.7910   24.8600   47.0820 O   0  0  0  0  0  0  0  0  0  0  0  0
   57.4740   27.0700   45.7370 C   0  0  0  0  0  0  0  0  0  0  0  0
   58.8640   26.9180   45.8150 C   0  0  0  0  0  0  0  0  0  0  0  0
   59.6990   28.0330   45.7110 C   0  0  0  0  0  0  0  0  0  0  0  0
   59.1520   29.3040   45.5140 C   0  0  0  0  0  0  0  0  0  0  0  0
   57.7590   29.4640   45.4000 C   0  0  0  0  0  0  0  0  0  0  0  0
   57.1620   30.7560   45.2270 N   0  0  0  0  0  0  0  0  0  0  0  0
   57.8370   31.9670   44.8610 C   0  0  0  0  0  0  0  0  0  0  0  0
   57.4980   32.5520   43.7980 O   0  0  0  0  0  0  0  0  0  0  0  0
   58.9530   32.5350   45.6870 C   0  0  0  0  0  0  0  0  0  0  0  0
   58.7620   33.9710   45.8550 N   0  0  0  0  0  0  0  0  0  0  0  0
   59.7910   34.8410   46.3360 C   0  0  0  0  0  0  0  0  0  0  0  0
   59.7150   36.0810   46.1160 O   0  0  0  0  0  0  0  0  0  0  0  0
   60.9430   34.2890   47.0890 C   0  0  0  0  0  0  0  0  0  0  0  0
   62.0990   33.8540   46.4120 C   0  0  0  0  0  0  0  0  0  0  0  0
   63.1860   33.3410   47.1270 C   0  0  0  0  0  0  0  0  0  0  0  0
   63.1340   33.2570   48.5210 C   0  0  0  0  0  0  0  0  0  0  0  0
   64.1890   32.7590   49.2110 F   0  0  0  0  0  0  0  0  0  0  0  0
   61.9930   33.6840   49.2030 C   0  0  0  0  0  0  0  0  0  0  0  0
   60.9010   34.1980   48.4930 C   0  0  0  0  0  0  0  0  0  0  0  0
   56.9260   28.3460   45.5350 C   0  0  0  0  0  0  0  0  0  0  0  0
   54.7820   27.0660   46.5510 H   0  0  0  0  0  0  0  0  0  0  0  0
   59.2993   25.9181   45.9585 H   0  0  0  0  0  0  0  0  0  0  0  0
   60.7897   27.9104   45.7843 H   0  0  0  0  0  0  0  0  0  0  0  0
   59.8123   30.1813   45.4479 H   0  0  0  0  0  0  0  0  0  0  0  0
   58.9603   32.0496   46.6741 H   0  0  0  0  0  0  0  0  0  0  0  0
   59.9108   32.3532   45.1775 H   0  0  0  0  0  0  0  0  0  0  0  0
   62.1471   33.9181   45.3149 H   0  0  0  0  0  0  0  0  0  0  0  0
   64.0847   33.0026   46.5905 H   0  0  0  0  0  0  0  0  0  0  0  0
   61.9518   33.6165   50.3002 H   0  0  0  0  0  0  0  0  0  0  0  0
   60.0048   34.5328   49.0358 H   0  0  0  0  0  0  0  0  0  0  0  0
   55.8342   28.4691   45.4823 H   0  0  0  0  0  0  0  0  0  0  0  0
  1  2  1  0
  2  3  2  0
  2  4  2  0
  2  5  1  0
  5  6  2  0
  6  7  1  0
  7  8  2  0
  8  9  1  0
  9 10  1  0
 10 11  1  0
 11 12  2  0
 11 13  1  0
 13 14  1  0
 14 15  1  0
 15 16  2  0
 15 17  1  0
 17 18  2  0
 18 19  1  0
 19 20  2  0
 20 21  1  0
 20 22  1  0
 22 23  2  0
  9 24  2  0
 24  5  1  0
 23 17  1  0
  1 25  1  0
  6 26  1  0
  7 27  1  0
  8 28  1  0
 13 29  1  0
 13 30  1  0
 18 31  1  0
 19 32  1  0
 22 33  1  0
 23 34  1  0
 24 35  1  0
M  CHG  3   1  -1  10  -1  14  -1
M  END
>  <UniqueID>  (44) 
40

>  <SMILES>  (44) 
[NH-]S(=O)(=O)c1cccc([N-]C(=O)C[N-]C(=O)c2ccc(F)cc2)c1

>  <Energy>  (44) 
38.050508684384724

>  <Genealogy>  (44) 
[NH-]S(=O)(=O)c1cccc([N-]C(=O)C[N-]C(=O)c2ccc(F)cc2)c1 (protonated)
[NH-]S(=O)(=O)c1cccc([N-]C(=O)C[N-]C(=O)c2ccc(F)cc2)c1 (3D coordinates assigned)
[NH-]S(=O)(=O)c1cccc([N-]C(=O)C[N-]C(=O)c2ccc(F)cc2)c1 (optimized conformer: 38.050508684384724 kcal/mol)

>  <smiles>  (44) 
NS(=O)(=O)c1cccc(NC(=O)CNC(=O)c2ccc(F)cc2)c1

>  <score_type>  (44) 
oracle

>  <origin>  (44) 
adg

>  <m_score__min__energy>  (44) 
-13.4

>  <m_primary>  (44) 
energy

$$$$
44:0
     RDKit          3D

 34 35  0  0  0  0  0  0  0  0999 V2000
   57.4938   34.7022   44.2341 H   0  0  0  0  0  0  0  0  0  0  0  0
   57.7700   33.7770   44.7610 C   0  0  0  0  0  0  0  0  0  0  0  0
   57.8580   33.7830   46.2360 C   0  0  0  0  0  0  0  0  0  0  0  0
   57.1916   33.0972   46.7796 H   0  0  0  0  0  0  0  0  0  0  0  0
   60.0650   34.2000   47.3460 C   0  0  0  0  0  0  0  0  0  0  0  0
   60.4230   34.1520   48.7000 C   0  0  0  0  0  0  0  0  0  0  0  0
   59.6760   34.3877   49.4723 H   0  0  0  0  0  0  0  0  0  0  0  0
   61.7250   33.8060   49.0740 C   0  0  0  0  0  0  0  0  0  0  0  0
   61.9990   33.7758   50.1389 H   0  0  0  0  0  0  0  0  0  0  0  0
   62.6840   33.4970   48.0970 C   0  0  0  0  0  0  0  0  0  0  0  0
   64.0710   33.0950   48.5010 C   0  0  0  0  0  0  0  0  0  0  0  0
   64.1418   33.0745   49.5985 H   0  0  0  0  0  0  0  0  0  0  0  0
   64.2943   32.0952   48.1004 H   0  0  0  0  0  0  0  0  0  0  0  0
   64.7944   33.8205   48.1004 H   0  0  0  0  0  0  0  0  0  0  0  0
   62.3120   33.4940   46.7440 C   0  0  0  0  0  0  0  0  0  0  0  0
   63.0484   33.2207   45.9739 H   0  0  0  0  0  0  0  0  0  0  0  0
   61.0090   33.8370   46.3710 C   0  0  0  0  0  0  0  0  0  0  0  0
   60.7217   33.8226   45.3093 H   0  0  0  0  0  0  0  0  0  0  0  0
   58.6780   34.5500   46.9730 C   0  0  0  0  0  0  0  0  0  0  0  0
   58.2865   35.5151   47.3271 H   0  0  0  0  0  0  0  0  0  0  0  0
   58.0120   32.7020   44.0740 N   0  0  0  0  0  0  0  0  0  0  0  0
   57.8260   31.3420   44.5000 C   0  0  0  0  0  0  0  0  0  0  0  0
   58.8130   30.7680   45.3120 C   0  0  0  0  0  0  0  0  0  0  0  0
   59.6925   31.3615   45.6023 H   0  0  0  0  0  0  0  0  0  0  0  0
   58.6910   29.4480   45.7570 C   0  0  0  0  0  0  0  0  0  0  0  0
   59.4703   29.0121   46.3995 H   0  0  0  0  0  0  0  0  0  0  0  0
   57.5750   28.6750   45.3860 C   0  0  0  0  0  0  0  0  0  0  0  0
   57.4070   27.3150   45.8190 N   0  0  0  0  0  0  0  0  0  0  0  0
   56.2770   26.7390   45.9280 C   0  0  0  0  0  0  0  0  0  0  0  0
   55.1790   26.1810   46.0340 O   0  0  0  0  0  0  0  0  0  0  0  0
   56.5940   29.2440   44.5650 C   0  0  0  0  0  0  0  0  0  0  0  0
   55.7196   28.6468   44.2671 H   0  0  0  0  0  0  0  0  0  0  0  0
   56.7150   30.5640   44.1200 C   0  0  0  0  0  0  0  0  0  0  0  0
   55.9396   30.9965   43.4707 H   0  0  0  0  0  0  0  0  0  0  0  0
  1  2  1  0
  2  3  2  0
  3  4  1  0
  3  5  1  0
  5  6  2  0
  6  7  1  0
  6  8  1  0
  8  9  1  0
  8 10  2  0
 10 11  1  0
 11 12  1  0
 11 13  1  0
 11 14  1  0
 10 15  1  0
 15 16  1  0
 15 17  2  0
 17 18  1  0
  2 19  1  0
 19 20  1  0
 19 21  2  0
 21 22  1  0
 22 23  2  0
 23 24  1  0
 23 25  1  0
 25 26  1  0
 25 27  2  0
 27 28  1  0
 28 29  2  0
 29 30  2  0
 27 31  1  0
 31 32  1  0
 31 33  2  0
 33 34  1  0
 17  5  1  0
 33 22  1  0
M  END
>  <UniqueID>  (45) 
41

>  <SMILES>  (45) 
Cc1ccc(C=C/C=N/c2ccc(N=C=O)cc2)cc1

>  <Energy>  (45) 
44.320384129745946

>  <Genealogy>  (45) 
Cc1ccc(C=C/C=N/c2ccc(N=C=O)cc2)cc1 (cis-trans isomerization)
Cc1ccc(C=C/C=N/c2ccc(N=C=O)cc2)cc1 (3D coordinates assigned)
Cc1ccc(C=C/C=N/c2ccc(N=C=O)cc2)cc1 (optimized conformer: 44.320384129745946 kcal/mol)

>  <smiles>  (45) 
Cc1ccc(C=CC=Nc2ccc(N=C=O)cc2)cc1

>  <score_type>  (45) 
oracle

>  <origin>  (45) 
adg

>  <m_score__min__energy>  (45) 
-7.29

>  <m_primary>  (45) 
energy

$$$$
45:0
     RDKit          3D

 37 39  0  0  0  0  0  0  0  0999 V2000
   54.9290   26.7050   46.2740 O   0  0  0  0  0  0  0  0  0  0  0  0
   55.8800   25.8860   46.3700 C   0  0  0  0  0  0  0  0  0  0  0  0
   57.2120   26.3900   46.5460 N   0  0  0  0  0  0  0  0  0  0  0  0
   57.7920   27.5170   45.8730 C   0  0  0  0  0  0  0  0  0  0  0  0
   58.9970   27.3470   45.1820 C   0  0  0  0  0  0  0  0  0  0  0  0
   59.5700   28.4150   44.4900 C   0  0  0  0  0  0  0  0  0  0  0  0
   58.9510   29.6670   44.4960 C   0  0  0  0  0  0  0  0  0  0  0  0
   57.7690   29.8690   45.2160 C   0  0  0  0  0  0  0  0  0  0  0  0
   57.1630   31.1340   45.1720 O   0  0  0  0  0  0  0  0  0  0  0  0
   57.7890   32.3460   45.4950 C   0  0  0  0  0  0  0  0  0  0  0  0
   58.1890   32.5670   46.8180 C   0  0  0  0  0  0  0  0  0  0  0  0
   58.8080   33.7680   47.1790 C   0  0  0  0  0  0  0  0  0  0  0  0
   59.0160   34.7630   46.2200 C   0  0  0  0  0  0  0  0  0  0  0  0
   58.5990   34.5600   44.9010 C   0  0  0  0  0  0  0  0  0  0  0  0
   57.9820   33.3580   44.5380 C   0  0  0  0  0  0  0  0  0  0  0  0
   57.1950   28.7900   45.9130 C   0  0  0  0  0  0  0  0  0  0  0  0
   55.5950   24.4820   46.3050 N   0  0  0  0  0  0  0  0  0  0  0  0
   56.1190   23.5590   45.3420 C   0  0  0  0  0  0  0  0  0  0  0  0
   55.7410   23.6970   44.0000 C   0  0  0  0  0  0  0  0  0  0  0  0
   56.2590   22.8370   43.0270 C   0  0  0  0  0  0  0  0  0  0  0  0
   57.1420   21.8190   43.3930 C   0  0  0  0  0  0  0  0  0  0  0  0
   57.6430   20.9840   42.4480 F   0  0  0  0  0  0  0  0  0  0  0  0
   57.4990   21.6510   44.7330 C   0  0  0  0  0  0  0  0  0  0  0  0
   56.9860   22.5110   45.7110 C   0  0  0  0  0  0  0  0  0  0  0  0
   57.3110   22.3000   47.0110 F   0  0  0  0  0  0  0  0  0  0  0  0
   59.4952   26.3663   45.1843 H   0  0  0  0  0  0  0  0  0  0  0  0
   60.5109   28.2704   43.9388 H   0  0  0  0  0  0  0  0  0  0  0  0
   59.3958   30.4994   43.9310 H   0  0  0  0  0  0  0  0  0  0  0  0
   58.0154   31.7913   47.5784 H   0  0  0  0  0  0  0  0  0  0  0  0
   59.1312   33.9295   48.2180 H   0  0  0  0  0  0  0  0  0  0  0  0
   59.5076   35.7055   46.5028 H   0  0  0  0  0  0  0  0  0  0  0  0
   58.7562   35.3462   44.1479 H   0  0  0  0  0  0  0  0  0  0  0  0
   57.6471   33.2042   43.5016 H   0  0  0  0  0  0  0  0  0  0  0  0
   56.2731   28.9430   46.4932 H   0  0  0  0  0  0  0  0  0  0  0  0
   55.0323   24.4868   43.7101 H   0  0  0  0  0  0  0  0  0  0  0  0
   55.9709   22.9623   41.9728 H   0  0  0  0  0  0  0  0  0  0  0  0
   58.1851   20.8407   45.0204 H   0  0  0  0  0  0  0  0  0  0  0  0
  1  2  2  0
  2  3  1  0
  3  4  1  0
  4  5  2  0
  5  6  1  0
  6  7  2  0
  7  8  1  0
  8  9  1  0
  9 10  1  0
 10 11  2  0
 11 12  1  0
 12 13  2  0
 13 14  1  0
 14 15  2  0
  8 16  2  0
  2 17  1  0
 17 18  1  0
 18 19  2  0
 19 20  1  0
 20 21  2  0
 21 22  1  0
 21 23  1  0
 23 24  2  0
 24 25  1  0
 16  4  1  0
 24 18  1  0
 15 10  1  0
  5 26  1  0
  6 27  1  0
  7 28  1  0
 11 29  1  0
 12 30  1  0
 13 31  1  0
 14 32  1  0
 15 33  1  0
 16 34  1  0
 19 35  1  0
 20 36  1  0
 23 37  1  0
M  CHG  2   3  -1  17  -1
M  END
>  <UniqueID>  (46) 
42

>  <SMILES>  (46) 
O=C([N-]c1cccc(Oc2ccccc2)c1)[N-]c1ccc(F)cc1F

>  <Energy>  (46) 
54.03480594314603

>  <Genealogy>  (46) 
O=C([N-]c1cccc(Oc2ccccc2)c1)[N-]c1ccc(F)cc1F (protonated)
O=C([N-]c1cccc(Oc2ccccc2)c1)[N-]c1ccc(F)cc1F (3D coordinates assigned)
O=C([N-]c1cccc(Oc2ccccc2)c1)[N-]c1ccc(F)cc1F (optimized conformer: 54.03480594314603 kcal/mol)

>  <smiles>  (46) 
O=C(Nc1cccc(Oc2ccccc2)c1)Nc1ccc(F)cc1F

>  <score_type>  (46) 
oracle

>  <origin>  (46) 
adg

>  <m_score__min__energy>  (46) 
-11.49

>  <m_primary>  (46) 
energy

$$$$
46:0
     RDKit          3D

 44 46  0  0  0  0  0  0  0  0999 V2000
   59.9420   33.9450   50.2720 C   0  0  0  0  0  0  0  0  0  0  0  0
   59.4630   33.2710   49.0200 C   0  0  0  0  0  0  0  0  0  0  0  0
   58.9520   34.0320   47.9550 C   0  0  0  0  0  0  0  0  0  0  0  0
   58.4720   33.4040   46.8010 C   0  0  0  0  0  0  0  0  0  0  0  0
   58.4880   32.0090   46.7100 C   0  0  0  0  0  0  0  0  0  0  0  0
   58.0200   31.3820   45.6000 N   0  0  0  0  0  0  0  0  0  0  0  0
   58.0100   30.0240   45.4960 C   0  0  0  0  0  0  0  0  0  0  0  0
   57.5450   29.3870   44.2960 N   0  0  0  0  0  0  0  0  0  0  0  0
   56.3790   29.5100   43.7270 C   0  0  0  0  0  0  0  0  0  0  0  0
   55.1610   29.1840   44.4090 N   0  0  0  0  0  0  0  0  0  0  0  0
   56.3190   29.9260   42.3630 N   0  0  0  0  0  0  0  0  0  0  0  0
   58.5520   29.2510   46.5480 C   0  0  0  0  0  0  0  0  0  0  0  0
   58.5790   27.7420   46.4910 C   0  0  2  0  0  0  0  0  0  0  0  0
   57.2100   27.2320   46.3280 C   0  0  0  0  0  0  0  0  0  0  0  0
   56.1320   26.8290   46.1990 N   0  0  0  0  0  0  0  0  0  0  0  0
   59.2360   27.1750   47.7260 C   0  0  0  0  0  0  0  0  0  0  0  0
   58.8450   26.0740   48.2050 O   0  0  0  0  0  0  0  0  0  0  0  0
   60.2760   27.9190   48.3790 N   0  0  0  0  0  0  0  0  0  0  0  0
   60.6860   27.7010   49.7390 C   0  0  0  0  0  0  0  0  0  0  0  0
   60.9410   26.4060   50.2310 C   0  0  0  0  0  0  0  0  0  0  0  0
   61.3070   26.2200   51.5670 C   0  0  0  0  0  0  0  0  0  0  0  0
   61.4090   27.3160   52.4260 C   0  0  0  0  0  0  0  0  0  0  0  0
   61.1360   28.6010   51.9540 C   0  0  0  0  0  0  0  0  0  0  0  0
   60.7680   28.7940   50.6170 C   0  0  0  0  0  0  0  0  0  0  0  0
   59.0010   29.8880   47.6680 N   0  0  0  0  0  0  0  0  0  0  0  0
   58.9850   31.2400   47.7760 C   0  0  0  0  0  0  0  0  0  0  0  0
   59.4640   31.8680   48.9310 C   0  0  0  0  0  0  0  0  0  0  0  0
   59.5577   33.4043   51.1495 H   0  0  0  0  0  0  0  0  0  0  0  0
   61.0418   33.9421   50.2922 H   0  0  0  0  0  0  0  0  0  0  0  0
   59.5776   34.9827   50.2922 H   0  0  0  0  0  0  0  0  0  0  0  0
   58.9293   35.1293   48.0293 H   0  0  0  0  0  0  0  0  0  0  0  0
   58.0828   34.0064   45.9669 H   0  0  0  0  0  0  0  0  0  0  0  0
   55.1430   28.5700   45.2510 H   0  0  0  0  0  0  0  0  0  0  0  0
   54.2440   29.4170   43.9680 H   0  0  0  0  0  0  0  0  0  0  0  0
   57.1930   30.1520   41.8380 H   0  0  0  0  0  0  0  0  0  0  0  0
   55.4010   30.0060   41.8720 H   0  0  0  0  0  0  0  0  0  0  0  0
   59.1763   27.4206   45.6250 H   0  0  0  0  0  0  0  0  0  0  0  0
   60.7890   28.6390   47.8210 H   0  0  0  0  0  0  0  0  0  0  0  0
   60.8518   25.5379   49.5613 H   0  0  0  0  0  0  0  0  0  0  0  0
   61.5153   25.2074   51.9428 H   0  0  0  0  0  0  0  0  0  0  0  0
   61.7046   27.1668   53.4750 H   0  0  0  0  0  0  0  0  0  0  0  0
   61.2101   29.4630   52.6333 H   0  0  0  0  0  0  0  0  0  0  0  0
   60.5420   29.8069   50.2524 H   0  0  0  0  0  0  0  0  0  0  0  0
   59.8413   31.2639   49.7693 H   0  0  0  0  0  0  0  0  0  0  0  0
  1  2  1  0
  2  3  2  0
  3  4  1  0
  4  5  2  0
  5  6  1  0
  6  7  2  0
  7  8  1  0
  8  9  2  3
  9 10  1  0
  9 11  1  0
  7 12  1  0
 12 13  1  0
 13 14  1  0
 14 15  3  0
 13 16  1  0
 16 17  2  0
 16 18  1  0
 18 19  1  0
 19 20  2  0
 20 21  1  0
 21 22  2  0
 22 23  1  0
 23 24  2  0
 12 25  2  0
 25 26  1  0
 26 27  2  0
 27  2  1  0
 26  5  1  0
 24 19  1  0
  1 28  1  0
  1 29  1  0
  1 30  1  0
  3 31  1  0
  4 32  1  0
 10 33  1  0
 10 34  1  0
 11 35  1  0
 11 36  1  0
 13 37  1  6
 18 38  1  0
 20 39  1  0
 21 40  1  0
 22 41  1  0
 23 42  1  0
 24 43  1  0
 27 44  1  0
M  END
>  <UniqueID>  (47) 
43

>  <SMILES>  (47) 
Cc1ccc2nc(N=C(N)N)c([C@H](C#N)C(=O)Nc3ccccc3)nc2c1

>  <Energy>  (47) 
55.06925572522517

>  <Genealogy>  (47) 
Cc1ccc2nc(N=C(N)N)c([C@H](C#N)C(=O)Nc3ccccc3)nc2c1 (chirality)
Cc1ccc2nc(N=C(N)N)c([C@H](C#N)C(=O)Nc3ccccc3)nc2c1 (3D coordinates assigned)
Cc1ccc2nc(N=C(N)N)c([C@H](C#N)C(=O)Nc3ccccc3)nc2c1 (optimized conformer: 55.06925572522517 kcal/mol)

>  <smiles>  (47) 
Cc1ccc2nc(N=C(N)N)c(C(C#N)C(=O)Nc3ccccc3)nc2c1

>  <score_type>  (47) 
oracle

>  <origin>  (47) 
adg

>  <m_score__min__energy>  (47) 
-8.0999999999999996

>  <m_primary>  (47) 
energy

$$$$
47:0
     RDKit          3D

 40 43  0  0  0  0  0  0  0  0999 V2000
   55.9390   30.6900   43.3120 O   0  0  0  0  0  0  0  0  0  0  0  0
   56.6370   30.7020   44.3610 C   0  0  0  0  0  0  0  0  0  0  0  0
   56.6400   31.8900   45.1660 N   0  0  0  0  0  0  0  0  0  0  0  0
   57.7420   32.7920   45.3410 C   0  0  0  0  0  0  0  0  0  0  0  0
   57.7680   34.0530   44.7190 C   0  0  0  0  0  0  0  0  0  0  0  0
   58.8620   34.9020   44.9000 C   0  0  0  0  0  0  0  0  0  0  0  0
   59.9440   34.4960   45.6840 C   0  0  0  0  0  0  0  0  0  0  0  0
   59.9440   33.2310   46.2910 C   0  0  0  0  0  0  0  0  0  0  0  0
   61.0940   32.8010   47.1120 C   0  0  0  0  0  0  0  0  0  0  0  0
   61.7240   33.5850   48.0080 N   0  0  0  0  0  0  0  0  0  0  0  0
   62.6770   32.7510   48.4770 C   0  0  0  0  0  0  0  0  0  0  0  0
   63.6650   33.1270   49.5100 C   0  0  0  0  0  0  0  0  0  0  0  0
   64.9880   32.6560   49.4380 C   0  0  0  0  0  0  0  0  0  0  0  0
   65.9200   33.0140   50.4160 C   0  0  0  0  0  0  0  0  0  0  0  0
   65.5430   33.8450   51.4740 C   0  0  0  0  0  0  0  0  0  0  0  0
   66.4500   34.1910   52.4210 F   0  0  0  0  0  0  0  0  0  0  0  0
   64.2320   34.3190   51.5550 C   0  0  0  0  0  0  0  0  0  0  0  0
   63.2960   33.9640   50.5800 C   0  0  0  0  0  0  0  0  0  0  0  0
   62.6220   31.5350   47.8960 N   0  0  0  0  0  0  0  0  0  0  0  0
   61.6330   31.6070   47.0600 O   0  0  0  0  0  0  0  0  0  0  0  0
   58.8400   32.3800   46.1070 C   0  0  0  0  0  0  0  0  0  0  0  0
   57.4790   29.5280   44.6920 C   0  0  0  0  0  0  0  0  0  0  0  0
   58.8790   29.6090   44.5720 C   0  0  0  0  0  0  0  0  0  0  0  0
   59.6820   28.5070   44.8740 C   0  0  0  0  0  0  0  0  0  0  0  0
   59.1000   27.3100   45.2930 C   0  0  0  0  0  0  0  0  0  0  0  0
   57.7120   27.2110   45.4060 C   0  0  0  0  0  0  0  0  0  0  0  0
   56.8990   28.3110   45.1080 C   0  0  0  0  0  0  0  0  0  0  0  0
   55.5200   28.1890   45.2460 O   0  0  0  0  0  0  0  0  0  0  0  0
   56.9247   34.3714   44.0885 H   0  0  0  0  0  0  0  0  0  0  0  0
   58.8714   35.8934   44.4236 H   0  0  0  0  0  0  0  0  0  0  0  0
   60.8006   35.1713   45.8264 H   0  0  0  0  0  0  0  0  0  0  0  0
   65.2911   32.0020   48.6071 H   0  0  0  0  0  0  0  0  0  0  0  0
   66.9528   32.6406   50.3526 H   0  0  0  0  0  0  0  0  0  0  0  0
   63.9354   34.9732   52.3881 H   0  0  0  0  0  0  0  0  0  0  0  0
   62.2649   34.3408   50.6490 H   0  0  0  0  0  0  0  0  0  0  0  0
   58.8385   31.3816   46.5688 H   0  0  0  0  0  0  0  0  0  0  0  0
   59.3445   30.5479   44.2376 H   0  0  0  0  0  0  0  0  0  0  0  0
   60.7755   28.5828   44.7814 H   0  0  0  0  0  0  0  0  0  0  0  0
   59.7347   26.4446   45.5342 H   0  0  0  0  0  0  0  0  0  0  0  0
   57.2552   26.2645   45.7306 H   0  0  0  0  0  0  0  0  0  0  0  0
  1  2  2  0
  2  3  1  0
  3  4  1  0
  4  5  2  0
  5  6  1  0
  6  7  2  0
  7  8  1  0
  8  9  1  0
  9 10  2  0
 10 11  1  0
 11 12  1  0
 12 13  2  0
 13 14  1  0
 14 15  2  0
 15 16  1  0
 15 17  1  0
 17 18  2  0
 11 19  2  0
 19 20  1  0
  8 21  2  0
  2 22  1  0
 22 23  2  0
 23 24  1  0
 24 25  2  0
 25 26  1  0
 26 27  2  0
 27 28  1  0
 21  4  1  0
 27 22  1  0
 20  9  1  0
 18 12  1  0
  5 29  1  0
  6 30  1  0
  7 31  1  0
 13 32  1  0
 14 33  1  0
 17 34  1  0
 18 35  1  0
 21 36  1  0
 23 37  1  0
 24 38  1  0
 25 39  1  0
 26 40  1  0
M  CHG  2   3  -1  28  -1
M  END
>  <UniqueID>  (48) 
44

>  <SMILES>  (48) 
O=C([N-]c1cccc(-c2nc(-c3ccc(F)cc3)no2)c1)c1ccccc1[O-]

>  <Energy>  (48) 
86.93600992054401

>  <Genealogy>  (48) 
O=C([N-]c1cccc(-c2nc(-c3ccc(F)cc3)no2)c1)c1ccccc1[O-] (protonated)
O=C([N-]c1cccc(-c2nc(-c3ccc(F)cc3)no2)c1)c1ccccc1[O-] (3D coordinates assigned)
O=C([N-]c1cccc(-c2nc(-c3ccc(F)cc3)no2)c1)c1ccccc1[O-] (optimized conformer: 86.93600992054401 kcal/mol)

>  <smiles>  (48) 
O=C(Nc1cccc(-c2nc(-c3ccc(F)cc3)no2)c1)c1ccccc1O

>  <score_type>  (48) 
oracle

>  <origin>  (48) 
adg

>  <m_score__min__energy>  (48) 
-14.85

>  <m_primary>  (48) 
energy

$$$$
48:0
     RDKit          3D

 37 39  0  0  0  0  0  0  0  0999 V2000
   56.8250   29.3830   43.6220 O   0  0  0  0  0  0  0  0  0  0  0  0
   57.0500   29.9710   44.7130 C   0  0  0  0  0  0  0  0  0  0  0  0
   56.6100   31.3270   44.8660 N   0  0  0  0  0  0  0  0  0  0  0  0
   57.4440   32.4640   45.1390 C   0  0  0  0  0  0  0  0  0  0  0  0
   57.3990   33.0460   46.4120 C   0  0  0  0  0  0  0  0  0  0  0  0
   58.2090   34.1440   46.7150 C   0  0  0  0  0  0  0  0  0  0  0  0
   59.0820   34.6580   45.7520 C   0  0  0  0  0  0  0  0  0  0  0  0
   59.1510   34.0680   44.4870 C   0  0  0  0  0  0  0  0  0  0  0  0
   58.3420   32.9690   44.1810 C   0  0  0  0  0  0  0  0  0  0  0  0
   57.8390   29.2830   45.7610 C   0  0  0  0  0  0  0  0  0  0  0  0
   58.6790   30.0490   46.5910 C   0  0  0  0  0  0  0  0  0  0  0  0
   59.4810   29.4340   47.5520 C   0  0  0  0  0  0  0  0  0  0  0  0
   59.4580   28.0470   47.6990 C   0  0  0  0  0  0  0  0  0  0  0  0
   60.5570   27.2070   49.0140 Br  0  0  0  0  0  0  0  0  0  0  0  0
   58.6250   27.2720   46.8870 C   0  0  0  0  0  0  0  0  0  0  0  0
   57.8120   27.8750   45.9110 C   0  0  0  0  0  0  0  0  0  0  0  0
   56.9230   27.0690   45.1180 N   0  0  0  0  0  0  0  0  0  0  0  0
   56.1030   25.6810   45.7570 S   0  0  0  0  0  0  0  0  0  0  0  0
   54.6180   25.8800   45.6460 O   0  0  0  0  0  0  0  0  0  0  0  0
   56.4730   25.5060   47.2040 O   0  0  0  0  0  0  0  0  0  0  0  0
   56.5500   24.2540   44.8420 C   0  0  0  0  0  0  0  0  0  0  0  0
   57.7340   23.5480   44.9810 C   0  0  0  0  0  0  0  0  0  0  0  0
   57.7990   22.4230   44.1510 C   0  0  0  0  0  0  0  0  0  0  0  0
   56.6670   22.2450   43.3650 C   0  0  0  0  0  0  0  0  0  0  0  0
   55.5820   23.4860   43.7050 S   0  0  0  0  0  0  0  0  0  0  0  0
   56.7228   32.6370   47.1772 H   0  0  0  0  0  0  0  0  0  0  0  0
   58.1594   34.6043   47.7128 H   0  0  0  0  0  0  0  0  0  0  0  0
   59.7142   35.5262   45.9896 H   0  0  0  0  0  0  0  0  0  0  0  0
   59.8425   34.4685   43.7311 H   0  0  0  0  0  0  0  0  0  0  0  0
   58.4080   32.4984   43.1890 H   0  0  0  0  0  0  0  0  0  0  0  0
   58.7031   31.1432   46.4806 H   0  0  0  0  0  0  0  0  0  0  0  0
   60.1328   30.0436   48.1951 H   0  0  0  0  0  0  0  0  0  0  0  0
   58.6053   26.1794   47.0128 H   0  0  0  0  0  0  0  0  0  0  0  0
   56.8240   27.2530   44.0950 H   0  0  0  0  0  0  0  0  0  0  0  0
   58.5387   23.8410   45.6714 H   0  0  0  0  0  0  0  0  0  0  0  0
   58.6641   21.7441   44.1235 H   0  0  0  0  0  0  0  0  0  0  0  0
   56.5071   21.4308   42.6428 H   0  0  0  0  0  0  0  0  0  0  0  0
  1  2  2  0
  2  3  1  0
  3  4  1  0
  4  5  2  0
  5  6  1  0
  6  7  2  0
  7  8  1  0
  8  9  2  0
  2 10  1  0
 10 11  2  0
 11 12  1  0
 12 13  2  0
 13 14  1  0
 13 15  1  0
 15 16  2  0
 16 17  1  0
 17 18  1  0
 18 19  2  0
 18 20  2  0
 18 21  1  0
 21 22  2  0
 22 23  1  0
 23 24  2  0
 24 25  1  0
  9  4  1  0
 16 10  1  0
 25 21  1  0
  5 26  1  0
  6 27  1  0
  7 28  1  0
  8 29  1  0
  9 30  1  0
 11 31  1  0
 12 32  1  0
 15 33  1  0
 17 34  1  0
 22 35  1  0
 23 36  1  0
 24 37  1  0
M  CHG  1   3  -1
M  END
>  <UniqueID>  (49) 
45

>  <SMILES>  (49) 
O=C([N-]c1ccccc1)c1ccc(Br)cc1NS(=O)(=O)c1cccs1

>  <Energy>  (49) 
77.44114734163453

>  <Genealogy>  (49) 
O=C([N-]c1ccccc1)c1ccc(Br)cc1NS(=O)(=O)c1cccs1 (protonated)
O=C([N-]c1ccccc1)c1ccc(Br)cc1NS(=O)(=O)c1cccs1 (3D coordinates assigned)
O=C([N-]c1ccccc1)c1ccc(Br)cc1NS(=O)(=O)c1cccs1 (optimized conformer: 77.44114734163453 kcal/mol)

>  <smiles>  (49) 
O=C(Nc1ccccc1)c1ccc(Br)cc1NS(=O)(=O)c1cccs1

>  <score_type>  (49) 
oracle

>  <origin>  (49) 
adg

>  <m_score__min__energy>  (49) 
-10.73

>  <m_primary>  (49) 
energy

$$$$
49:0
     RDKit          3D

 31 32  0  0  0  0  0  0  0  0999 V2000
   53.6670   24.4840   45.5830 C   0  0  0  0  0  0  0  0  0  0  0  0
   54.5610   25.5380   45.9250 O   0  0  0  0  0  0  0  0  0  0  0  0
   55.9580   25.4090   45.9980 C   0  0  0  0  0  0  0  0  0  0  0  0
   56.5740   24.1610   46.2200 C   0  0  0  0  0  0  0  0  0  0  0  0
   57.9640   24.0590   46.2820 C   0  0  0  0  0  0  0  0  0  0  0  0
   58.7560   25.1950   46.1290 C   0  0  0  0  0  0  0  0  0  0  0  0
   58.1610   26.4390   45.9110 C   0  0  0  0  0  0  0  0  0  0  0  0
   56.7590   26.5600   45.8370 C   0  0  0  0  0  0  0  0  0  0  0  0
   56.1340   27.8390   45.6100 N   0  0  0  0  0  0  0  0  0  0  0  0
   56.8610   29.1150   44.6840 S   0  0  0  0  0  0  0  0  0  0  0  0
   57.1710   28.6110   43.3030 O   0  0  0  0  0  0  0  0  0  0  0  0
   55.8930   30.2600   44.5810 O   0  0  0  0  0  0  0  0  0  0  0  0
   58.3620   29.6320   45.4460 C   0  0  0  0  0  0  0  0  0  0  0  0
   59.5770   29.0450   45.0650 C   0  0  0  0  0  0  0  0  0  0  0  0
   60.7710   29.4420   45.6740 C   0  0  0  0  0  0  0  0  0  0  0  0
   60.7570   30.4290   46.6650 C   0  0  0  0  0  0  0  0  0  0  0  0
   61.9160   30.8130   47.2560 F   0  0  0  0  0  0  0  0  0  0  0  0
   59.5480   31.0210   47.0440 C   0  0  0  0  0  0  0  0  0  0  0  0
   58.3530   30.6250   46.4360 C   0  0  0  0  0  0  0  0  0  0  0  0
   53.2756   24.0226   46.5017 H   0  0  0  0  0  0  0  0  0  0  0  0
   52.8324   24.8885   44.9916 H   0  0  0  0  0  0  0  0  0  0  0  0
   54.2023   23.7266   44.9916 H   0  0  0  0  0  0  0  0  0  0  0  0
   55.9543   23.2608   46.3453 H   0  0  0  0  0  0  0  0  0  0  0  0
   58.4356   23.0798   46.4520 H   0  0  0  0  0  0  0  0  0  0  0  0
   59.8516   25.1116   46.1800 H   0  0  0  0  0  0  0  0  0  0  0  0
   58.7921   27.3325   45.7960 H   0  0  0  0  0  0  0  0  0  0  0  0
   55.1530   27.9980   45.9290 H   0  0  0  0  0  0  0  0  0  0  0  0
   59.5907   28.2699   44.2846 H   0  0  0  0  0  0  0  0  0  0  0  0
   61.7220   28.9780   45.3737 H   0  0  0  0  0  0  0  0  0  0  0  0
   59.5373   31.7991   47.8214 H   0  0  0  0  0  0  0  0  0  0  0  0
   57.4037   31.0934   46.7349 H   0  0  0  0  0  0  0  0  0  0  0  0
  1  2  1  0
  2  3  1  0
  3  4  2  0
  4  5  1  0
  5  6  2  0
  6  7  1  0
  7  8  2  0
  8  9  1  0
  9 10  1  0
 10 11  2  0
 10 12  2  0
 10 13  1  0
 13 14  2  0
 14 15  1  0
 15 16  2  0
 16 17  1  0
 16 18  1  0
 18 19  2  0
  8  3  1  0
 19 13  1  0
  1 20  1  0
  1 21  1  0
  1 22  1  0
  4 23  1  0
  5 24  1  0
  6 25  1  0
  7 26  1  0
  9 27  1  0
 14 28  1  0
 15 29  1  0
 18 30  1  0
 19 31  1  0
M  END
>  <UniqueID>  (50) 
46

>  <SMILES>  (50) 
COc1ccccc1NS(=O)(=O)c1ccc(F)cc1

>  <Energy>  (50) 
34.48510704368985

>  <Genealogy>  (50) 
COc1ccccc1NS(=O)(=O)c1ccc(F)cc1 (3D coordinates assigned)
COc1ccccc1NS(=O)(=O)c1ccc(F)cc1 (optimized conformer: 34.48510704368985 kcal/mol)

>  <smiles>  (50) 
COc1ccccc1NS(=O)(=O)c1ccc(F)cc1

>  <score_type>  (50) 
oracle

>  <origin>  (50) 
adg

>  <m_score__min__energy>  (50) 
-6.96

>  <m_primary>  (50) 
energy

$$$$
50:0
     RDKit          3D

 33 34  0  0  0  0  0  0  0  0999 V2000
   57.0150   33.5660   46.3050 C   0  0  0  0  0  0  0  0  0  0  0  0
   58.5020   33.7090   46.6280 C   0  0  0  0  0  0  0  0  0  0  0  0
   59.2160   32.3420   46.7120 C   0  0  1  0  0  0  0  0  0  0  0  0
   58.8800   31.4670   45.5340 C   0  0  0  0  0  0  0  0  0  0  0  0
   58.4430   31.9760   44.4660 O   0  0  0  0  0  0  0  0  0  0  0  0
   59.1180   30.0560   45.6250 N   0  0  0  0  0  0  0  0  0  0  0  0
   58.1110   29.0390   45.7130 C   0  0  0  0  0  0  0  0  0  0  0  0
   58.3630   27.8520   46.3300 N   0  0  0  0  0  0  0  0  0  0  0  0
   57.4160   26.8830   46.4180 C   0  0  0  0  0  0  0  0  0  0  0  0
   56.1510   27.1050   45.8630 C   0  0  0  0  0  0  0  0  0  0  0  0
   55.1560   26.1340   45.9350 O   0  0  0  0  0  0  0  0  0  0  0  0
   55.8960   28.2870   45.2460 N   0  0  0  0  0  0  0  0  0  0  0  0
   56.8430   29.2580   45.1570 C   0  0  0  0  0  0  0  0  0  0  0  0
   56.5730   30.3450   44.5780 O   0  0  0  0  0  0  0  0  0  0  0  0
   60.7210   32.4910   46.8350 C   0  0  0  0  0  0  0  0  0  0  0  0
   61.4930   31.4350   47.3560 C   0  0  0  0  0  0  0  0  0  0  0  0
   62.8790   31.5650   47.4800 C   0  0  0  0  0  0  0  0  0  0  0  0
   63.5110   32.7470   47.0850 C   0  0  0  0  0  0  0  0  0  0  0  0
   62.7570   33.8020   46.5670 C   0  0  0  0  0  0  0  0  0  0  0  0
   61.3700   33.6780   46.4410 C   0  0  0  0  0  0  0  0  0  0  0  0
   56.4401   33.5107   47.2412 H   0  0  0  0  0  0  0  0  0  0  0  0
   56.6814   34.4362   45.7207 H   0  0  0  0  0  0  0  0  0  0  0  0
   56.8533   32.6482   45.7207 H   0  0  0  0  0  0  0  0  0  0  0  0
   58.9793   34.3099   45.8399 H   0  0  0  0  0  0  0  0  0  0  0  0
   58.5883   34.1955   47.6108 H   0  0  0  0  0  0  0  0  0  0  0  0
   58.8454   31.8557   47.6264 H   0  0  0  0  0  0  0  0  0  0  0  0
   57.6415   25.9313   46.9215 H   0  0  0  0  0  0  0  0  0  0  0  0
   54.2630   26.3250   46.3740 H   0  0  0  0  0  0  0  0  0  0  0  0
   61.0019   30.5013   47.6675 H   0  0  0  0  0  0  0  0  0  0  0  0
   63.4736   30.7351   47.8894 H   0  0  0  0  0  0  0  0  0  0  0  0
   64.6022   32.8464   47.1821 H   0  0  0  0  0  0  0  0  0  0  0  0
   63.2552   34.7326   46.2574 H   0  0  0  0  0  0  0  0  0  0  0  0
   60.7817   34.5125   46.0317 H   0  0  0  0  0  0  0  0  0  0  0  0
  1  2  1  0
  2  3  1  0
  3  4  1  0
  4  5  2  0
  4  6  1  0
  6  7  1  0
  7  8  2  0
  8  9  1  0
  9 10  2  0
 10 11  1  0
 10 12  1  0
 12 13  1  0
 13 14  2  0
  3 15  1  0
 15 16  2  0
 16 17  1  0
 17 18  2  0
 18 19  1  0
 19 20  2  0
 13  7  1  0
 20 15  1  0
  1 21  1  0
  1 22  1  0
  1 23  1  0
  2 24  1  0
  2 25  1  0
  3 26  1  1
  9 27  1  0
 11 28  1  0
 16 29  1  0
 17 30  1  0
 18 31  1  0
 19 32  1  0
 20 33  1  0
M  CHG  2   6  -1  12  -1
M  END
>  <UniqueID>  (51) 
47

>  <SMILES>  (51) 
CC[C@@H](C(=O)[N-]c1ncc(O)[n-]c1=O)c1ccccc1

>  <Energy>  (51) 
32.4310805893501

>  <Genealogy>  (51) 
CCC(C(=O)[N-]c1ncc(O)[n-]c1=O)c1ccccc1 (protonated)
CC[C@@H](C(=O)[N-]c1ncc(O)[n-]c1=O)c1ccccc1 (chirality)
CC[C@@H](C(=O)[N-]c1ncc(O)[n-]c1=O)c1ccccc1 (3D coordinates assigned)
CC[C@@H](C(=O)[N-]c1ncc(O)[n-]c1=O)c1ccccc1 (optimized conformer: 32.4310805893501 kcal/mol)

>  <smiles>  (51) 
CCC(C(=O)Nc1ncc(O)[nH]c1=O)c1ccccc1

>  <score_type>  (51) 
oracle

>  <origin>  (51) 
adg

>  <m_score__min__energy>  (51) 
-10.93

>  <m_primary>  (51) 
energy

$$$$
51:0
     RDKit          3D

 37 40  0  0  0  0  0  0  0  0999 V2000
   56.6450   31.1800   42.4070 O   0  0  0  0  0  0  0  0  0  0  0  0
   56.9130   30.8490   43.8480 S   0  0  0  0  0  0  0  0  0  0  0  0
   55.6160   30.4870   44.5160 O   0  0  0  0  0  0  0  0  0  0  0  0
   57.9910   29.4900   43.9310 N   0  0  0  0  0  0  0  0  0  0  0  0
   58.6780   29.0810   45.1280 C   0  0  0  0  0  0  0  0  0  0  0  0
   58.4670   27.8190   45.7110 C   0  0  0  0  0  0  0  0  0  0  0  0
   59.1470   27.4580   46.8760 C   0  0  0  0  0  0  0  0  0  0  0  0
   60.0450   28.3450   47.4720 C   0  0  0  0  0  0  0  0  0  0  0  0
   60.2780   29.6110   46.9040 C   0  0  0  0  0  0  0  0  0  0  0  0
   61.2300   30.5680   47.5200 C   0  0  0  0  0  0  0  0  0  0  0  0
   61.5660   30.6490   48.8790 C   0  0  0  0  0  0  0  0  0  0  0  0
   62.4500   31.6450   48.9700 N   0  0  0  0  0  0  0  0  0  0  0  0
   63.1680   32.2540   49.9380 C   0  0  0  0  0  0  0  0  0  0  0  0
   63.9620   33.2860   49.4150 C   0  0  0  0  0  0  0  0  0  0  0  0
   63.7220   33.3910   47.7190 S   0  0  0  0  0  0  0  0  0  0  0  0
   62.6280   32.1220   47.7600 C   0  0  0  0  0  0  0  0  0  0  0  0
   61.9110   31.5110   46.8020 N   0  0  0  0  0  0  0  0  0  0  0  0
   59.5890   29.9650   45.7300 C   0  0  0  0  0  0  0  0  0  0  0  0
   57.6450   32.2480   44.6240 C   0  0  0  0  0  0  0  0  0  0  0  0
   57.4240   32.5030   45.9860 C   0  0  0  0  0  0  0  0  0  0  0  0
   58.0170   33.6120   46.5980 C   0  0  0  0  0  0  0  0  0  0  0  0
   58.8300   34.4710   45.8530 C   0  0  0  0  0  0  0  0  0  0  0  0
   59.0490   34.2240   44.4950 C   0  0  0  0  0  0  0  0  0  0  0  0
   58.4580   33.1160   43.8800 C   0  0  0  0  0  0  0  0  0  0  0  0
   58.1980   28.9990   43.0330 H   0  0  0  0  0  0  0  0  0  0  0  0
   57.7628   27.1126   45.2471 H   0  0  0  0  0  0  0  0  0  0  0  0
   58.9741   26.4694   47.3264 H   0  0  0  0  0  0  0  0  0  0  0  0
   60.5737   28.0525   48.3912 H   0  0  0  0  0  0  0  0  0  0  0  0
   61.1818   30.0232   49.6980 H   0  0  0  0  0  0  0  0  0  0  0  0
   63.1347   31.9763   51.0018 H   0  0  0  0  0  0  0  0  0  0  0  0
   64.6347   33.9288   50.0018 H   0  0  0  0  0  0  0  0  0  0  0  0
   59.7665   30.9508   45.2754 H   0  0  0  0  0  0  0  0  0  0  0  0
   56.7830   31.8293   46.5736 H   0  0  0  0  0  0  0  0  0  0  0  0
   57.8435   33.8084   47.6663 H   0  0  0  0  0  0  0  0  0  0  0  0
   59.2976   35.3418   46.3358 H   0  0  0  0  0  0  0  0  0  0  0  0
   59.6871   34.9020   43.9092 H   0  0  0  0  0  0  0  0  0  0  0  0
   58.6309   32.9246   42.8107 H   0  0  0  0  0  0  0  0  0  0  0  0
  1  2  2  0
  2  3  2  0
  2  4  1  0
  4  5  1  0
  5  6  2  0
  6  7  1  0
  7  8  2  0
  8  9  1  0
  9 10  1  0
 10 11  2  0
 11 12  1  0
 12 13  1  0
 13 14  2  0
 14 15  1  0
 15 16  1  0
 16 17  2  0
  9 18  2  0
  2 19  1  0
 19 20  2  0
 20 21  1  0
 21 22  2  0
 22 23  1  0
 23 24  2  0
 18  5  1  0
 24 19  1  0
 17 10  1  0
 16 12  1  0
  4 25  1  0
  6 26  1  0
  7 27  1  0
  8 28  1  0
 11 29  1  0
 13 30  1  0
 14 31  1  0
 18 32  1  0
 20 33  1  0
 21 34  1  0
 22 35  1  0
 23 36  1  0
 24 37  1  0
M  END
>  <UniqueID>  (52) 
48

>  <SMILES>  (52) 
O=S(=O)(Nc1cccc(-c2cn3ccsc3n2)c1)c1ccccc1

>  <Energy>  (52) 
123.87147145286829

>  <Genealogy>  (52) 
O=S(=O)(Nc1cccc(-c2cn3ccsc3n2)c1)c1ccccc1 (3D coordinates assigned)
O=S(=O)(Nc1cccc(-c2cn3ccsc3n2)c1)c1ccccc1 (optimized conformer: 123.87147145286829 kcal/mol)

>  <smiles>  (52) 
O=S(=O)(Nc1cccc(-c2cn3ccsc3n2)c1)c1ccccc1

>  <score_type>  (52) 
oracle

>  <origin>  (52) 
adg

>  <m_score__min__energy>  (52) 
-8.7300000000000004

>  <m_primary>  (52) 
energy

$$$$
52:0
     RDKit          3D

 37 39  0  0  0  0  0  0  0  0999 V2000
   54.1220   25.9640   45.6220 O   0  0  0  0  0  0  0  0  0  0  0  0
   55.0940   25.2040   45.8640 C   0  0  0  0  0  0  0  0  0  0  0  0
   55.1430   23.9140   45.2380 N   0  0  0  0  0  0  0  0  0  0  0  0
   56.3340   23.2210   44.8410 C   0  0  0  0  0  0  0  0  0  0  0  0
   56.2610   22.2790   43.8070 C   0  0  0  0  0  0  0  0  0  0  0  0
   57.4040   21.5800   43.4060 C   0  0  0  0  0  0  0  0  0  0  0  0
   58.6310   21.8290   44.0270 C   0  0  0  0  0  0  0  0  0  0  0  0
   58.7190   22.7860   45.0410 C   0  0  0  0  0  0  0  0  0  0  0  0
   59.9110   23.0360   45.6350 F   0  0  0  0  0  0  0  0  0  0  0  0
   57.5780   23.4890   45.4410 C   0  0  0  0  0  0  0  0  0  0  0  0
   56.1200   25.6490   46.7600 N   0  0  0  0  0  0  0  0  0  0  0  0
   57.2170   26.5040   46.4050 C   0  0  0  0  0  0  0  0  0  0  0  0
   58.4530   26.4220   47.0550 C   0  0  0  0  0  0  0  0  0  0  0  0
   59.4920   27.2640   46.6730 C   0  0  0  0  0  0  0  0  0  0  0  0
   59.2880   28.1920   45.6480 C   0  0  0  0  0  0  0  0  0  0  0  0
   60.2370   28.9480   45.3030 O   0  0  0  0  0  0  0  0  0  0  0  0
   58.0740   28.2810   45.0230 N   0  0  0  0  0  0  0  0  0  0  0  0
   57.9250   29.2300   43.9900 N   0  0  0  0  0  0  0  0  0  0  0  0
   56.8910   30.6220   44.0560 S   0  0  0  0  0  0  0  0  0  0  0  0
   56.7110   31.1690   42.6690 O   0  0  0  0  0  0  0  0  0  0  0  0
   55.5480   30.2200   44.6000 O   0  0  0  0  0  0  0  0  0  0  0  0
   57.6170   31.8580   45.0650 C   0  0  0  0  0  0  0  0  0  0  0  0
   58.4660   31.6370   46.1390 C   0  0  0  0  0  0  0  0  0  0  0  0
   58.8980   32.8230   46.7430 C   0  0  0  0  0  0  0  0  0  0  0  0
   58.3910   33.9700   46.1450 C   0  0  0  0  0  0  0  0  0  0  0  0
   57.4060   33.5110   44.8600 S   0  0  0  0  0  0  0  0  0  0  0  0
   57.0420   27.4600   45.3990 C   0  0  0  0  0  0  0  0  0  0  0  0
   55.2996   22.0880   43.3077 H   0  0  0  0  0  0  0  0  0  0  0  0
   57.3372   20.8334   42.6009 H   0  0  0  0  0  0  0  0  0  0  0  0
   59.5273   21.2716   43.7174 H   0  0  0  0  0  0  0  0  0  0  0  0
   57.6535   24.2542   46.2276 H   0  0  0  0  0  0  0  0  0  0  0  0
   58.6027   25.6938   47.8658 H   0  0  0  0  0  0  0  0  0  0  0  0
   60.4688   27.1999   47.1748 H   0  0  0  0  0  0  0  0  0  0  0  0
   58.7678   30.6357   46.4799 H   0  0  0  0  0  0  0  0  0  0  0  0
   59.5752   32.8451   47.6096 H   0  0  0  0  0  0  0  0  0  0  0  0
   58.5984   35.0038   46.4586 H   0  0  0  0  0  0  0  0  0  0  0  0
   56.0645   27.5544   44.9034 H   0  0  0  0  0  0  0  0  0  0  0  0
  1  2  2  0
  2  3  1  0
  3  4  1  0
  4  5  2  0
  5  6  1  0
  6  7  2  0
  7  8  1  0
  8  9  1  0
  8 10  2  0
  2 11  1  0
 11 12  1  0
 12 13  1  0
 13 14  2  0
 14 15  1  0
 15 16  2  0
 15 17  1  0
 17 18  1  0
 18 19  1  0
 19 20  2  0
 19 21  2  0
 19 22  1  0
 22 23  2  0
 23 24  1  0
 24 25  2  0
 25 26  1  0
 17 27  1  0
 10  4  1  0
 27 12  2  0
 26 22  1  0
  5 28  1  0
  6 29  1  0
  7 30  1  0
 10 31  1  0
 13 32  1  0
 14 33  1  0
 23 34  1  0
 24 35  1  0
 25 36  1  0
 27 37  1  0
M  CHG  3   3  -1  11  -1  18  -1
M  END
>  <UniqueID>  (53) 
49

>  <SMILES>  (53) 
O=C([N-]c1cccc(F)c1)[N-]c1ccc(=O)n([N-]S(=O)(=O)c2cccs2)c1

>  <Energy>  (53) 
78.13861060086288

>  <Genealogy>  (53) 
O=C([N-]c1cccc(F)c1)[N-]c1ccc(=O)n([N-]S(=O)(=O)c2cccs2)c1 (protonated)
O=C([N-]c1cccc(F)c1)[N-]c1ccc(=O)n([N-]S(=O)(=O)c2cccs2)c1 (3D coordinates assigned)
O=C([N-]c1cccc(F)c1)[N-]c1ccc(=O)n([N-]S(=O)(=O)c2cccs2)c1 (optimized conformer: 78.13861060086288 kcal/mol)

>  <smiles>  (53) 
O=C(Nc1cccc(F)c1)Nc1ccc(=O)n(NS(=O)(=O)c2cccs2)c1

>  <score_type>  (53) 
oracle

>  <origin>  (53) 
adg

>  <m_score__min__energy>  (53) 
-13.369999999999999

>  <m_primary>  (53) 
energy

$$$$
53:0
     RDKit          3D

 36 38  0  0  0  0  0  0  0  0999 V2000
   56.6510   30.0240   43.3720 C   0  0  0  0  0  0  0  0  0  0  0  0
   57.1010   29.8690   44.7140 O   0  0  0  0  0  0  0  0  0  0  0  0
   57.7410   30.8710   45.4570 C   0  0  0  0  0  0  0  0  0  0  0  0
   58.2340   30.6490   46.7550 C   0  0  0  0  0  0  0  0  0  0  0  0
   58.8610   31.6820   47.4550 C   0  0  0  0  0  0  0  0  0  0  0  0
   59.0060   32.9530   46.8770 C   0  0  0  0  0  0  0  0  0  0  0  0
   58.5300   33.1750   45.5670 C   0  0  0  0  0  0  0  0  0  0  0  0
   57.8890   32.1360   44.8770 C   0  0  0  0  0  0  0  0  0  0  0  0
   58.6100   34.5390   44.9340 C   0  0  0  0  0  0  0  0  0  0  0  0
   59.6440   35.4340   45.6220 C   0  0  0  0  0  0  0  0  0  0  0  0
   59.4860   35.3870   47.0830 N   0  0  0  0  0  0  0  0  0  0  0  0
   59.7420   34.0410   47.6400 C   0  0  2  0  0  0  0  0  0  0  0  0
   61.2370   33.7610   47.7480 C   0  0  0  0  0  0  0  0  0  0  0  0
   62.0290   33.4750   46.6150 C   0  0  0  0  0  0  0  0  0  0  0  0
   63.4020   33.2530   46.7480 C   0  0  0  0  0  0  0  0  0  0  0  0
   64.0050   33.3220   48.0050 C   0  0  0  0  0  0  0  0  0  0  0  0
   63.2360   33.6190   49.1330 C   0  0  0  0  0  0  0  0  0  0  0  0
   61.8620   33.8420   49.0050 C   0  0  0  0  0  0  0  0  0  0  0  0
   55.6110   30.3822   43.3731 H   0  0  0  0  0  0  0  0  0  0  0  0
   57.2897   30.7539   42.8531 H   0  0  0  0  0  0  0  0  0  0  0  0
   56.7047   29.0556   42.8531 H   0  0  0  0  0  0  0  0  0  0  0  0
   58.1254   29.6583   47.2206 H   0  0  0  0  0  0  0  0  0  0  0  0
   59.2450   31.4979   48.4692 H   0  0  0  0  0  0  0  0  0  0  0  0
   57.4969   32.3179   43.8655 H   0  0  0  0  0  0  0  0  0  0  0  0
   58.8890   34.4232   43.8763 H   0  0  0  0  0  0  0  0  0  0  0  0
   57.6253   35.0183   45.0372 H   0  0  0  0  0  0  0  0  0  0  0  0
   60.6539   35.0876   45.3572 H   0  0  0  0  0  0  0  0  0  0  0  0
   59.4937   36.4701   45.2844 H   0  0  0  0  0  0  0  0  0  0  0  0
   60.1380   36.0820   47.5170 H   0  0  0  0  0  0  0  0  0  0  0  0
   58.5110   35.6800   47.3290 H   0  0  0  0  0  0  0  0  0  0  0  0
   59.3339   34.0281   48.6614 H   0  0  0  0  0  0  0  0  0  0  0  0
   61.5618   33.4266   45.6203 H   0  0  0  0  0  0  0  0  0  0  0  0
   64.0092   33.0233   45.8600 H   0  0  0  0  0  0  0  0  0  0  0  0
   65.0854   33.1426   48.1074 H   0  0  0  0  0  0  0  0  0  0  0  0
   63.7123   33.6774   50.1228 H   0  0  0  0  0  0  0  0  0  0  0  0
   61.2639   34.0832   49.8962 H   0  0  0  0  0  0  0  0  0  0  0  0
  1  2  1  0
  2  3  1  0
  3  4  2  0
  4  5  1  0
  5  6  2  0
  6  7  1  0
  7  8  2  0
  7  9  1  0
  9 10  1  0
 10 11  1  0
 11 12  1  0
 12 13  1  0
 13 14  2  0
 14 15  1  0
 15 16  2  0
 16 17  1  0
 17 18  2  0
  8  3  1  0
 18 13  1  0
 12  6  1  0
  1 19  1  0
  1 20  1  0
  1 21  1  0
  4 22  1  0
  5 23  1  0
  8 24  1  0
  9 25  1  0
  9 26  1  0
 10 27  1  0
 10 28  1  0
 11 29  1  0
 11 30  1  0
 12 31  1  1
 14 32  1  0
 15 33  1  0
 16 34  1  0
 17 35  1  0
 18 36  1  0
M  CHG  1  11   1
M  END
>  <UniqueID>  (54) 
50

>  <SMILES>  (54) 
COc1ccc2c(c1)CC[NH2+][C@@H]2c1ccccc1

>  <Energy>  (54) 
41.70957646760684

>  <Genealogy>  (54) 
COc1ccc2c(c1)CC[NH2+]C2c1ccccc1 (protonated)
COc1ccc2c(c1)CC[NH2+][C@@H]2c1ccccc1 (chirality)
COc1ccc2c(c1)CC[NH2+][C@@H]2c1ccccc1 (3D coordinates assigned)
COc1ccc2c(c1)CC[NH2+][C@@H]2c1ccccc1 (nonaromatic ring conformer: 41.70957646760684 kcal/mol)

>  <smiles>  (54) 
COc1ccc2c(c1)CCNC2c1ccccc1

>  <score_type>  (54) 
oracle

>  <origin>  (54) 
adg

>  <m_score__min__energy>  (54) 
-5.4199999999999999

>  <m_primary>  (54) 
energy

$$$$
54:0
     RDKit          3D

 61 63  0  0  0  0  0  0  0  0999 V2000
   59.8048   35.6863   46.0187 H   0  0  0  0  0  0  0  0  0  0  0  0
   59.1660   34.8240   45.7770 C   0  0  0  0  0  0  0  0  0  0  0  0
   59.2430   34.2290   44.5150 C   0  0  0  0  0  0  0  0  0  0  0  0
   59.9347   34.6305   43.7597 H   0  0  0  0  0  0  0  0  0  0  0  0
   58.4420   33.1240   44.2110 C   0  0  0  0  0  0  0  0  0  0  0  0
   58.5037   32.6595   43.2158 H   0  0  0  0  0  0  0  0  0  0  0  0
   57.5570   32.6040   45.1740 C   0  0  0  0  0  0  0  0  0  0  0  0
   56.6980   31.4920   44.8860 N   0  0  0  0  0  0  0  0  0  0  0  0
   57.0140   30.1120   45.1200 C   0  0  0  0  0  0  0  0  0  0  0  0
   56.1130   29.2370   45.0700 O   0  0  0  0  0  0  0  0  0  0  0  0
   58.3340   29.7230   45.5060 N   0  0  0  0  0  0  0  0  0  0  0  0
   58.9040   29.7130   46.6800 C   0  0  0  0  0  0  0  0  0  0  0  0
   58.7100   30.7170   47.6040 C   0  0  0  0  0  0  0  0  0  0  0  0
   58.0879   31.6182   47.4998 H   0  0  0  0  0  0  0  0  0  0  0  0
   59.4750   30.3350   48.6930 C   0  0  0  0  0  0  0  0  0  0  0  0
   59.5850   31.0770   50.0130 C   0  0  0  0  0  0  0  0  0  0  0  0
   58.2280   31.0790   50.7450 C   0  0  0  0  0  0  0  0  0  0  0  0
   58.3977   31.0788   51.8318 H   0  0  0  0  0  0  0  0  0  0  0  0
   57.6604   31.9780   50.4627 H   0  0  0  0  0  0  0  0  0  0  0  0
   57.6578   30.1817   50.4627 H   0  0  0  0  0  0  0  0  0  0  0  0
   60.0120   32.5300   49.7410 C   0  0  0  0  0  0  0  0  0  0  0  0
   60.1654   33.0521   50.6969 H   0  0  0  0  0  0  0  0  0  0  0  0
   60.9496   32.5351   49.1658 H   0  0  0  0  0  0  0  0  0  0  0  0
   59.2262   33.0415   49.1658 H   0  0  0  0  0  0  0  0  0  0  0  0
   60.6320   30.3880   50.9090 C   0  0  0  0  0  0  0  0  0  0  0  0
   60.3773   30.5556   51.9659 H   0  0  0  0  0  0  0  0  0  0  0  0
   60.6394   29.3080   50.7004 H   0  0  0  0  0  0  0  0  0  0  0  0
   61.6268   30.8085   50.7004 H   0  0  0  0  0  0  0  0  0  0  0  0
   60.0530   29.1420   48.4370 N   0  0  0  0  0  0  0  0  0  0  0  0
   59.7120   28.7580   47.2150 N   0  0  0  0  0  0  0  0  0  0  0  0
   60.1050   27.4390   46.7120 C   0  0  0  0  0  0  0  0  0  0  0  0
   60.4901   26.8390   47.5497 H   0  0  0  0  0  0  0  0  0  0  0  0
   60.8762   27.5835   45.9410 H   0  0  0  0  0  0  0  0  0  0  0  0
   58.9400   26.7070   46.0800 C   0  0  0  0  0  0  0  0  0  0  0  0
   58.7910   26.7480   44.6860 C   0  0  0  0  0  0  0  0  0  0  0  0
   59.4999   27.3291   44.0779 H   0  0  0  0  0  0  0  0  0  0  0  0
   57.7500   26.0570   44.0650 C   0  0  0  0  0  0  0  0  0  0  0  0
   57.6369   26.1030   42.9718 H   0  0  0  0  0  0  0  0  0  0  0  0
   56.8510   25.3070   44.8270 C   0  0  0  0  0  0  0  0  0  0  0  0
   56.0324   24.7644   44.3315 H   0  0  0  0  0  0  0  0  0  0  0  0
   56.9880   25.2430   46.2220 C   0  0  0  0  0  0  0  0  0  0  0  0
   56.0530   24.3990   47.0440 C   0  0  0  0  0  0  0  0  0  0  0  0
   55.8902   24.8826   48.0185 H   0  0  0  0  0  0  0  0  0  0  0  0
   56.5013   23.4045   47.1856 H   0  0  0  0  0  0  0  0  0  0  0  0
   54.7730   24.2480   46.3630 N   0  0  0  0  0  0  0  0  0  0  0  0
   54.4750   23.1630   45.4720 C   0  0  0  0  0  0  0  0  0  0  0  0
   53.2880   22.9640   45.0860 O   0  0  0  0  0  0  0  0  0  0  0  0
   55.5680   22.2710   44.9660 C   0  0  0  0  0  0  0  0  0  0  0  0
   55.4022   21.2512   45.3435 H   0  0  0  0  0  0  0  0  0  0  0  0
   56.5313   22.6651   45.3219 H   0  0  0  0  0  0  0  0  0  0  0  0
   55.5920   22.2410   43.5490 O   0  0  0  0  0  0  0  0  0  0  0  0
   56.8780   21.8810   43.0900 C   0  0  0  0  0  0  0  0  0  0  0  0
   57.5365   21.6967   43.9516 H   0  0  0  0  0  0  0  0  0  0  0  0
   56.8075   20.9681   42.4804 H   0  0  0  0  0  0  0  0  0  0  0  0
   57.2917   22.6979   42.4804 H   0  0  0  0  0  0  0  0  0  0  0  0
   58.0390   25.9360   46.8440 C   0  0  0  0  0  0  0  0  0  0  0  0
   58.1607   25.8772   47.9357 H   0  0  0  0  0  0  0  0  0  0  0  0
   57.4650   33.2270   46.4260 C   0  0  0  0  0  0  0  0  0  0  0  0
   56.7496   32.8513   47.1724 H   0  0  0  0  0  0  0  0  0  0  0  0
   58.2770   34.3230   46.7320 C   0  0  0  0  0  0  0  0  0  0  0  0
   58.2162   34.7916   47.7254 H   0  0  0  0  0  0  0  0  0  0  0  0
  1  2  1  0
  2  3  2  0
  3  4  1  0
  3  5  1  0
  5  6  1  0
  5  7  2  0
  7  8  1  0
  8  9  1  0
  9 10  2  0
  9 11  1  0
 11 12  2  0
 12 13  1  0
 13 14  1  0
 13 15  2  0
 15 16  1  0
 16 17  1  0
 17 18  1  0
 17 19  1  0
 17 20  1  0
 16 21  1  0
 21 22  1  0
 21 23  1  0
 21 24  1  0
 16 25  1  0
 25 26  1  0
 25 27  1  0
 25 28  1  0
 15 29  1  0
 29 30  1  0
 30 31  1  0
 31 32  1  0
 31 33  1  0
 31 34  1  0
 34 35  2  0
 35 36  1  0
 35 37  1  0
 37 38  1  0
 37 39  2  0
 39 40  1  0
 39 41  1  0
 41 42  1  0
 42 43  1  0
 42 44  1  0
 42 45  1  0
 45 46  1  0
 46 47  2  0
 46 48  1  0
 48 49  1  0
 48 50  1  0
 48 51  1  0
 51 52  1  0
 52 53  1  0
 52 54  1  0
 52 55  1  0
 41 56  2  0
 56 57  1  0
  7 58  1  0
 58 59  1  0
 58 60  2  0
 60 61  1  0
 60  2  1  0
 30 12  1  0
 56 34  1  0
M  CHG  3   8  -1  29  -1  45  -1
M  END
>  <UniqueID>  (55) 
51

>  <SMILES>  (55) 
COCC(=O)[N-]Cc1cccc(Cn2[n-]c(C(C)(C)C)c/c2=N/C(=O)[N-]c2ccccc2)c1

>  <Energy>  (55) 
100.07305990479018

>  <Genealogy>  (55) 
COCC(=O)[N-]Cc1cccc(Cn2[n-]c(C(C)(C)C)cc2=NC(=O)[N-]c2ccccc2)c1 (protonated)
COCC(=O)[N-]Cc1cccc(Cn2[n-]c(C(C)(C)C)c/c2=N/C(=O)[N-]c2ccccc2)c1 (cis-trans isomerization)
COCC(=O)[N-]Cc1cccc(Cn2[n-]c(C(C)(C)C)c/c2=N/C(=O)[N-]c2ccccc2)c1 (3D coordinates assigned)
COCC(=O)[N-]Cc1cccc(Cn2[n-]c(C(C)(C)C)c/c2=N/C(=O)[N-]c2ccccc2)c1 (optimized conformer: 100.07305990479018 kcal/mol)

>  <smiles>  (55) 
COCC(=O)NCc1cccc(Cn2[nH]c(C(C)(C)C)cc2=NC(=O)Nc2ccccc2)c1

>  <score_type>  (55) 
oracle

>  <origin>  (55) 
adg

>  <m_score__min__energy>  (55) 
-12.48

>  <m_primary>  (55) 
energy

$$$$
55:0
     RDKit          3D

 50 52  0  0  0  0  0  0  0  0999 V2000
   60.7960   26.3910   50.0940 C   0  0  0  0  0  0  0  0  0  0  0  0
   60.5100   27.7260   49.6890 O   0  0  0  0  0  0  0  0  0  0  0  0
   59.7360   28.0750   48.5690 C   0  0  0  0  0  0  0  0  0  0  0  0
   59.1440   27.0980   47.7460 C   0  0  0  0  0  0  0  0  0  0  0  0
   58.3670   27.4660   46.6360 C   0  0  0  0  0  0  0  0  0  0  0  0
   57.7660   26.4810   45.7810 N   0  0  0  0  0  0  0  0  0  0  0  0
   56.2790   25.6440   46.0850 S   0  0  0  0  0  0  0  0  0  0  0  0
   56.0230   24.3970   44.8410 C   0  0  0  0  0  0  0  0  0  0  0  0
   56.3030   25.0260   47.4550 O   0  0  0  0  0  0  0  0  0  0  0  0
   55.1490   26.6300   46.0140 O   0  0  0  0  0  0  0  0  0  0  0  0
   58.1640   28.8290   46.3580 C   0  0  0  0  0  0  0  0  0  0  0  0
   57.2370   29.3240   44.9370 S   0  0  0  0  0  0  0  0  0  0  0  0
   55.7610   29.1590   45.1750 O   0  0  0  0  0  0  0  0  0  0  0  0
   57.6370   28.4650   43.7700 O   0  0  0  0  0  0  0  0  0  0  0  0
   57.5700   31.0220   44.6080 C   0  0  0  0  0  0  0  0  0  0  0  0
   57.9990   31.4370   43.3380 C   0  0  0  0  0  0  0  0  0  0  0  0
   58.3030   32.7820   43.1060 C   0  0  0  0  0  0  0  0  0  0  0  0
   58.1810   33.7160   44.1380 C   0  0  0  0  0  0  0  0  0  0  0  0
   57.7540   33.3070   45.4050 C   0  0  0  0  0  0  0  0  0  0  0  0
   57.4490   31.9630   45.6400 C   0  0  0  0  0  0  0  0  0  0  0  0
   58.7470   29.8010   47.1780 C   0  0  0  0  0  0  0  0  0  0  0  0
   59.5470   29.4350   48.2690 C   0  0  0  0  0  0  0  0  0  0  0  0
   60.2980   30.6930   49.2590 S   0  0  0  0  0  0  0  0  0  0  0  0
   61.3300   30.0940   50.1720 O   0  0  0  0  0  0  0  0  0  0  0  0
   59.2330   31.3530   50.0900 O   0  0  0  0  0  0  0  0  0  0  0  0
   61.1070   31.8870   48.2360 C   0  0  0  0  0  0  0  0  0  0  0  0
   62.4610   31.7260   47.9120 C   0  0  0  0  0  0  0  0  0  0  0  0
   63.1000   32.6810   47.1230 C   0  0  0  0  0  0  0  0  0  0  0  0
   62.3880   33.7880   46.6650 C   0  0  0  0  0  0  0  0  0  0  0  0
   61.0410   33.9230   47.0050 C   0  0  0  0  0  0  0  0  0  0  0  0
   60.4230   32.9820   47.7780 N   0  0  0  0  0  0  0  0  0  0  0  0
   59.0920   33.1420   48.1080 O   0  0  0  0  0  0  0  0  0  0  0  0
   60.8079   26.3357   51.1925 H   0  0  0  0  0  0  0  0  0  0  0  0
   60.0223   25.7149   49.7011 H   0  0  0  0  0  0  0  0  0  0  0  0
   61.7787   26.0912   49.7011 H   0  0  0  0  0  0  0  0  0  0  0  0
   59.2922   26.0325   47.9756 H   0  0  0  0  0  0  0  0  0  0  0  0
   55.8245   23.4301   45.3265 H   0  0  0  0  0  0  0  0  0  0  0  0
   55.1633   24.6757   44.2139 H   0  0  0  0  0  0  0  0  0  0  0  0
   56.9229   24.3145   44.2139 H   0  0  0  0  0  0  0  0  0  0  0  0
   58.0962   30.7035   42.5241 H   0  0  0  0  0  0  0  0  0  0  0  0
   58.6387   33.1052   42.1096 H   0  0  0  0  0  0  0  0  0  0  0  0
   58.4210   34.7735   43.9536 H   0  0  0  0  0  0  0  0  0  0  0  0
   57.6580   34.0428   46.2170 H   0  0  0  0  0  0  0  0  0  0  0  0
   57.1132   31.6431   46.6374 H   0  0  0  0  0  0  0  0  0  0  0  0
   58.5753   30.8662   46.9637 H   0  0  0  0  0  0  0  0  0  0  0  0
   63.0167   30.8503   48.2785 H   0  0  0  0  0  0  0  0  0  0  0  0
   64.1621   32.5614   46.8629 H   0  0  0  0  0  0  0  0  0  0  0  0
   62.8825   34.5477   46.0419 H   0  0  0  0  0  0  0  0  0  0  0  0
   60.4727   34.7943   46.6475 H   0  0  0  0  0  0  0  0  0  0  0  0
   58.7220   32.8220   48.9950 H   0  0  0  0  0  0  0  0  0  0  0  0
  1  2  1  0
  2  3  1  0
  3  4  2  0
  4  5  1  0
  5  6  1  0
  6  7  1  0
  7  8  1  0
  7  9  2  0
  7 10  2  0
  5 11  2  0
 11 12  1  0
 12 13  2  0
 12 14  2  0
 12 15  1  0
 15 16  2  0
 16 17  1  0
 17 18  2  0
 18 19  1  0
 19 20  2  0
 11 21  1  0
 21 22  2  0
 22 23  1  0
 23 24  2  0
 23 25  2  0
 23 26  1  0
 26 27  2  0
 27 28  1  0
 28 29  2  0
 29 30  1  0
 30 31  2  0
 31 32  1  0
 22  3  1  0
 31 26  1  0
 20 15  1  0
  1 33  1  0
  1 34  1  0
  1 35  1  0
  4 36  1  0
  8 37  1  0
  8 38  1  0
  8 39  1  0
 16 40  1  0
 17 41  1  0
 18 42  1  0
 19 43  1  0
 20 44  1  0
 21 45  1  0
 27 46  1  0
 28 47  1  0
 29 48  1  0
 30 49  1  0
 32 50  1  0
M  CHG  2   6  -1  31   1
M  END
>  <UniqueID>  (56) 
52

>  <SMILES>  (56) 
COc1cc([N-]S(C)(=O)=O)c(S(=O)(=O)c2ccccc2)cc1S(=O)(=O)c1cccc[n+]1O

>  <Energy>  (56) 
55.986691406724134

>  <Genealogy>  (56) 
COc1cc([N-]S(C)(=O)=O)c(S(=O)(=O)c2ccccc2)cc1S(=O)(=O)c1cccc[n+]1O (protonated)
COc1cc([N-]S(C)(=O)=O)c(S(=O)(=O)c2ccccc2)cc1S(=O)(=O)c1cccc[n+]1O (3D coordinates assigned)
COc1cc([N-]S(C)(=O)=O)c(S(=O)(=O)c2ccccc2)cc1S(=O)(=O)c1cccc[n+]1O (optimized conformer: 55.986691406724134 kcal/mol)

>  <smiles>  (56) 
COc1cc(NS(C)(=O)=O)c(S(=O)(=O)c2ccccc2)cc1S(=O)(=O)c1cccc[n+]1[O-]

>  <score_type>  (56) 
oracle

>  <origin>  (56) 
adg

>  <m_score__min__energy>  (56) 
-9.3599999999999994

>  <m_primary>  (56) 
energy

$$$$
56:0
     RDKit          3D

 39 41  0  0  0  0  0  0  0  0999 V2000
   53.3460   24.0580   45.2250 C   0  0  0  0  0  0  0  0  0  0  0  0
   54.7390   24.2000   45.4750 O   0  0  0  0  0  0  0  0  0  0  0  0
   55.7000   23.3380   44.9350 C   0  0  0  0  0  0  0  0  0  0  0  0
   55.3720   22.0540   44.6200 N   0  0  0  0  0  0  0  0  0  0  0  0
   56.2690   21.2040   44.0580 C   0  0  0  0  0  0  0  0  0  0  0  0
   55.9120   19.9910   43.7760 N   0  0  0  0  0  0  0  0  0  0  0  0
   57.5640   21.6610   43.7860 C   0  0  0  0  0  0  0  0  0  0  0  0
   57.8980   22.9370   44.1030 N   0  0  0  0  0  0  0  0  0  0  0  0
   57.0110   23.7910   44.6840 C   0  0  0  0  0  0  0  0  0  0  0  0
   57.4470   25.1700   45.0070 C   0  0  0  0  0  0  0  0  0  0  0  0
   57.5790   25.5970   46.3400 C   0  0  0  0  0  0  0  0  0  0  0  0
   58.0030   26.8980   46.6270 C   0  0  0  0  0  0  0  0  0  0  0  0
   58.3010   27.7890   45.5870 C   0  0  0  0  0  0  0  0  0  0  0  0
   58.7500   29.1620   45.8940 C   0  0  0  0  0  0  0  0  0  0  0  0
   59.9000   29.3280   46.6850 C   0  0  0  0  0  0  0  0  0  0  0  0
   60.3780   30.6050   46.9810 C   0  0  0  0  0  0  0  0  0  0  0  0
   59.7130   31.7310   46.4960 C   0  0  0  0  0  0  0  0  0  0  0  0
   58.5610   31.5830   45.7210 C   0  0  0  0  0  0  0  0  0  0  0  0
   58.0590   30.3060   45.4200 C   0  0  0  0  0  0  0  0  0  0  0  0
   56.5620   30.1770   44.4820 S   0  0  0  0  0  0  0  0  0  0  0  0
   55.5360   28.9630   45.1630 N   0  0  0  0  0  0  0  0  0  0  0  0
   55.8250   31.4870   44.5090 O   0  0  0  0  0  0  0  0  0  0  0  0
   56.8850   29.8280   43.0560 O   0  0  0  0  0  0  0  0  0  0  0  0
   58.2070   27.3560   44.2570 C   0  0  0  0  0  0  0  0  0  0  0  0
   57.7840   26.0550   43.9690 C   0  0  0  0  0  0  0  0  0  0  0  0
   52.8056   24.0029   46.1815 H   0  0  0  0  0  0  0  0  0  0  0  0
   52.9865   24.9242   44.6501 H   0  0  0  0  0  0  0  0  0  0  0  0
   53.1687   23.1371   44.6501 H   0  0  0  0  0  0  0  0  0  0  0  0
   56.6060   19.2210   43.6420 H   0  0  0  0  0  0  0  0  0  0  0  0
   58.3029   20.9924   43.3201 H   0  0  0  0  0  0  0  0  0  0  0  0
   57.3474   24.9035   47.1618 H   0  0  0  0  0  0  0  0  0  0  0  0
   58.1031   27.2235   47.6730 H   0  0  0  0  0  0  0  0  0  0  0  0
   60.4272   28.4443   47.0737 H   0  0  0  0  0  0  0  0  0  0  0  0
   61.2809   30.7239   47.5980 H   0  0  0  0  0  0  0  0  0  0  0  0
   60.0964   32.7364   46.7242 H   0  0  0  0  0  0  0  0  0  0  0  0
   58.0413   32.4754   45.3423 H   0  0  0  0  0  0  0  0  0  0  0  0
   54.5660   29.3510   45.1720 H   0  0  0  0  0  0  0  0  0  0  0  0
   58.4669   28.0421   43.4374 H   0  0  0  0  0  0  0  0  0  0  0  0
   57.7145   25.7220   42.9229 H   0  0  0  0  0  0  0  0  0  0  0  0
  1  2  1  0
  2  3  1  0
  3  4  1  0
  4  5  1  0
  5  6  2  3
  5  7  1  0
  7  8  2  0
  8  9  1  0
  9 10  1  0
 10 11  2  0
 11 12  1  0
 12 13  2  0
 13 14  1  0
 14 15  2  0
 15 16  1  0
 16 17  2  0
 17 18  1  0
 18 19  2  0
 19 20  1  0
 20 21  1  0
 20 22  2  0
 20 23  2  0
 13 24  1  0
 24 25  2  0
  9  3  2  0
 25 10  1  0
 19 14  1  0
  1 26  1  0
  1 27  1  0
  1 28  1  0
  6 29  1  0
  7 30  1  0
 11 31  1  0
 12 32  1  0
 15 33  1  0
 16 34  1  0
 17 35  1  0
 18 36  1  0
 21 37  1  0
 24 38  1  0
 25 39  1  0
M  CHG  2   4  -1  21  -1
M  END
>  <UniqueID>  (57) 
53

>  <SMILES>  (57) 
COc1[n-]c(=N)cnc1-c1ccc(-c2ccccc2S([NH-])(=O)=O)cc1

>  <Energy>  (57) 
55.24086435130588

>  <Genealogy>  (57) 
COc1[n-]c(=N)cnc1-c1ccc(-c2ccccc2S([NH-])(=O)=O)cc1 (protonated)
COc1[n-]c(=N)cnc1-c1ccc(-c2ccccc2S([NH-])(=O)=O)cc1 (3D coordinates assigned)
COc1[n-]c(=N)cnc1-c1ccc(-c2ccccc2S([NH-])(=O)=O)cc1 (optimized conformer: 55.24086435130588 kcal/mol)

>  <smiles>  (57) 
COc1[nH]c(=N)cnc1-c1ccc(-c2ccccc2S(N)(=O)=O)cc1

>  <score_type>  (57) 
oracle

>  <origin>  (57) 
adg

>  <m_score__min__energy>  (57) 
-12.17

>  <m_primary>  (57) 
energy

$$$$
57:0
     RDKit          3D

 43 46  0  0  0  0  0  0  0  0999 V2000
   54.5125   30.0448   43.9971 H   0  0  0  0  0  0  0  0  0  0  0  0
   55.5300   30.0510   44.4150 C   0  0  0  0  0  0  0  0  0  0  0  0
   56.0910   28.8960   44.8500 N   0  0  0  0  0  0  0  0  0  0  0  0
   57.3450   28.9050   45.3680 C   0  0  0  0  0  0  0  0  0  0  0  0
   57.9340   27.6930   45.8300 N   0  0  0  0  0  0  0  0  0  0  0  0
   58.1460   27.0080   47.1170 C   0  0  0  0  0  0  0  0  0  0  0  0
   57.2031   26.7460   47.6192 H   0  0  0  0  0  0  0  0  0  0  0  0
   58.6706   27.5698   47.9039 H   0  0  0  0  0  0  0  0  0  0  0  0
   58.8470   25.8170   46.5470 C   0  0  0  0  0  0  0  0  0  0  0  0
   59.8223   25.4529   46.9022 H   0  0  0  0  0  0  0  0  0  0  0  0
   58.0730   24.6210   46.6380 O   0  0  0  0  0  0  0  0  0  0  0  0
   57.5950   23.9010   45.5330 C   0  0  0  0  0  0  0  0  0  0  0  0
   56.3820   24.2970   44.9550 C   0  0  0  0  0  0  0  0  0  0  0  0
   55.8332   25.1549   45.3707 H   0  0  0  0  0  0  0  0  0  0  0  0
   55.8640   23.6090   43.8530 C   0  0  0  0  0  0  0  0  0  0  0  0
   54.9107   23.9263   43.4051 H   0  0  0  0  0  0  0  0  0  0  0  0
   56.5570   22.5190   43.3210 C   0  0  0  0  0  0  0  0  0  0  0  0
   56.0540   21.8520   42.2520 F   0  0  0  0  0  0  0  0  0  0  0  0
   57.7680   22.1150   43.8890 C   0  0  0  0  0  0  0  0  0  0  0  0
   58.3123   21.2564   43.4690 H   0  0  0  0  0  0  0  0  0  0  0  0
   58.2890   22.8010   44.9910 C   0  0  0  0  0  0  0  0  0  0  0  0
   59.2429   22.4810   45.4356 H   0  0  0  0  0  0  0  0  0  0  0  0
   58.6240   26.5260   45.2500 C   0  0  0  0  0  0  0  0  0  0  0  0
   57.9867   25.9559   44.5580 H   0  0  0  0  0  0  0  0  0  0  0  0
   59.5089   26.7242   44.6274 H   0  0  0  0  0  0  0  0  0  0  0  0
   58.0380   30.0690   45.4470 N   0  0  0  0  0  0  0  0  0  0  0  0
   57.4850   31.2280   45.0030 C   0  0  0  0  0  0  0  0  0  0  0  0
   58.1600   32.3340   45.1120 N   0  0  0  0  0  0  0  0  0  0  0  0
   58.9500   32.7570   46.2370 C   0  0  0  0  0  0  0  0  0  0  0  0
   60.0340   33.6430   46.0980 C   0  0  0  0  0  0  0  0  0  0  0  0
   60.2801   34.0548   45.1081 H   0  0  0  0  0  0  0  0  0  0  0  0
   60.8000   34.0030   47.2100 C   0  0  0  0  0  0  0  0  0  0  0  0
   61.6273   34.7188   47.0951 H   0  0  0  0  0  0  0  0  0  0  0  0
   60.5200   33.4560   48.4750 C   0  0  0  0  0  0  0  0  0  0  0  0
   61.3140   33.8840   49.6840 C   0  0  0  0  0  0  0  0  0  0  0  0
   62.1440   32.8620   50.1110 F   0  0  0  0  0  0  0  0  0  0  0  0
   62.0860   34.9830   49.3550 F   0  0  0  0  0  0  0  0  0  0  0  0
   60.4710   34.2210   50.7290 F   0  0  0  0  0  0  0  0  0  0  0  0
   59.4400   32.5680   48.6090 C   0  0  0  0  0  0  0  0  0  0  0  0
   59.1936   32.1529   49.5974 H   0  0  0  0  0  0  0  0  0  0  0  0
   58.6760   32.2080   47.4950 C   0  0  0  0  0  0  0  0  0  0  0  0
   57.8527   31.4873   47.6080 H   0  0  0  0  0  0  0  0  0  0  0  0
   56.2230   31.2140   44.4950 N   0  0  0  0  0  0  0  0  0  0  0  0
  1  2  1  0
  2  3  2  0
  3  4  1  0
  4  5  1  0
  5  6  1  0
  6  7  1  0
  6  8  1  0
  6  9  1  0
  9 10  1  0
  9 11  1  0
 11 12  1  0
 12 13  2  0
 13 14  1  0
 13 15  1  0
 15 16  1  0
 15 17  2  0
 17 18  1  0
 17 19  1  0
 19 20  1  0
 19 21  2  0
 21 22  1  0
  9 23  1  0
 23 24  1  0
 23 25  1  0
  4 26  2  0
 26 27  1  0
 27 28  2  0
 28 29  1  0
 29 30  2  0
 30 31  1  0
 30 32  1  0
 32 33  1  0
 32 34  2  0
 34 35  1  0
 35 36  1  0
 35 37  1  0
 35 38  1  0
 34 39  1  0
 39 40  1  0
 39 41  2  0
 41 42  1  0
 27 43  1  0
 43  2  1  0
 23  5  1  0
 41 29  1  0
 21 12  1  0
M  CHG  1  43  -1
M  END
>  <UniqueID>  (58) 
54

>  <SMILES>  (58) 
Fc1ccc(OC2CN(c3nc[n-]/c(=N\c4ccc(C(F)(F)F)cc4)n3)C2)cc1

>  <Energy>  (58) 
98.5573794886074

>  <Genealogy>  (58) 
Fc1ccc(OC2CN(c3nc[n-]c(=Nc4ccc(C(F)(F)F)cc4)n3)C2)cc1 (protonated)
Fc1ccc(OC2CN(c3nc[n-]/c(=N\c4ccc(C(F)(F)F)cc4)n3)C2)cc1 (cis-trans isomerization)
Fc1ccc(OC2CN(c3nc[n-]/c(=N\c4ccc(C(F)(F)F)cc4)n3)C2)cc1 (3D coordinates assigned)
Fc1ccc(OC2CN(c3nc[n-]/c(=N\c4ccc(C(F)(F)F)cc4)n3)C2)cc1 (nonaromatic ring conformer: 98.5573794886074 kcal/mol)

>  <smiles>  (58) 
Fc1ccc(OC2CN(c3nc[nH]c(=Nc4ccc(C(F)(F)F)cc4)n3)C2)cc1

>  <score_type>  (58) 
oracle

>  <origin>  (58) 
adg

>  <m_score__min__energy>  (58) 
-9.0500000000000007

>  <m_primary>  (58) 
energy

$$$$
58:0
     RDKit          3D

 30 31  0  0  0  0  0  0  0  0999 V2000
   60.6100   26.6770   47.6490 C   0  0  0  0  0  0  0  0  0  0  0  0
   59.6480   26.7350   46.5000 C   0  0  0  0  0  0  0  0  0  0  0  0
   59.0800   25.5560   45.9950 C   0  0  0  0  0  0  0  0  0  0  0  0
   58.1480   25.6140   44.9550 C   0  0  0  0  0  0  0  0  0  0  0  0
   57.7730   26.8480   44.4170 C   0  0  0  0  0  0  0  0  0  0  0  0
   58.3340   28.0380   44.9110 C   0  0  0  0  0  0  0  0  0  0  0  0
   57.9390   29.3230   44.3970 N   0  0  0  0  0  0  0  0  0  0  0  0
   56.7290   29.9990   44.7710 C   0  0  0  0  0  0  0  0  0  0  0  0
   55.7600   29.3500   45.2460 O   0  0  0  0  0  0  0  0  0  0  0  0
   56.5630   31.3990   44.5140 N   0  0  0  0  0  0  0  0  0  0  0  0
   57.4150   32.4500   44.9930 C   0  0  0  0  0  0  0  0  0  0  0  0
   57.3780   32.8770   46.3330 C   0  0  0  0  0  0  0  0  0  0  0  0
   58.2020   33.9220   46.7620 C   0  0  0  0  0  0  0  0  0  0  0  0
   59.0540   34.5580   45.8560 C   0  0  0  0  0  0  0  0  0  0  0  0
   59.0780   34.1560   44.5190 C   0  0  0  0  0  0  0  0  0  0  0  0
   58.2550   33.1120   44.0850 C   0  0  0  0  0  0  0  0  0  0  0  0
   58.2820   32.7350   42.7820 F   0  0  0  0  0  0  0  0  0  0  0  0
   59.2550   27.9740   45.9690 C   0  0  0  0  0  0  0  0  0  0  0  0
   60.0521   26.7106   48.5964 H   0  0  0  0  0  0  0  0  0  0  0  0
   61.1877   25.7424   47.5967 H   0  0  0  0  0  0  0  0  0  0  0  0
   61.2958   27.5354   47.5967 H   0  0  0  0  0  0  0  0  0  0  0  0
   59.3689   24.5829   46.4187 H   0  0  0  0  0  0  0  0  0  0  0  0
   57.7088   24.6864   44.5592 H   0  0  0  0  0  0  0  0  0  0  0  0
   57.0348   26.8881   43.6025 H   0  0  0  0  0  0  0  0  0  0  0  0
   58.5220   29.7520   43.6430 H   0  0  0  0  0  0  0  0  0  0  0  0
   56.6984   32.3870   47.0458 H   0  0  0  0  0  0  0  0  0  0  0  0
   58.1793   34.2435   47.8137 H   0  0  0  0  0  0  0  0  0  0  0  0
   59.7063   35.3759   46.1960 H   0  0  0  0  0  0  0  0  0  0  0  0
   59.7456   34.6615   43.8057 H   0  0  0  0  0  0  0  0  0  0  0  0
   59.6723   28.9027   46.3855 H   0  0  0  0  0  0  0  0  0  0  0  0
  1  2  1  0
  2  3  2  0
  3  4  1  0
  4  5  2  0
  5  6  1  0
  6  7  1  0
  7  8  1  0
  8  9  2  0
  8 10  1  0
 10 11  1  0
 11 12  2  0
 12 13  1  0
 13 14  2  0
 14 15  1  0
 15 16  2  0
 16 17  1  0
  6 18  2  0
 18  2  1  0
 16 11  1  0
  1 19  1  0
  1 20  1  0
  1 21  1  0
  3 22  1  0
  4 23  1  0
  5 24  1  0
  7 25  1  0
 12 26  1  0
 13 27  1  0
 14 28  1  0
 15 29  1  0
 18 30  1  0
M  CHG  1  10  -1
M  END
>  <UniqueID>  (59) 
55

>  <SMILES>  (59) 
Cc1cccc(NC(=O)[N-]c2ccccc2F)c1

>  <Energy>  (59) 
36.80663775561308

>  <Genealogy>  (59) 
Cc1cccc(NC(=O)[N-]c2ccccc2F)c1 (protonated)
Cc1cccc(NC(=O)[N-]c2ccccc2F)c1 (3D coordinates assigned)
Cc1cccc(NC(=O)[N-]c2ccccc2F)c1 (optimized conformer: 36.80663775561308 kcal/mol)

>  <smiles>  (59) 
Cc1cccc(NC(=O)Nc2ccccc2F)c1

>  <score_type>  (59) 
oracle

>  <origin>  (59) 
adg

>  <m_score__min__energy>  (59) 
-8.25

>  <m_primary>  (59) 
energy

$$$$
59:0
     RDKit          3D

 26 27  0  0  0  0  0  0  0  0999 V2000
   59.2680   31.4220   49.2020 O   0  0  0  0  0  0  0  0  0  0  0  0
   59.9970   32.3090   49.7200 C   0  0  0  0  0  0  0  0  0  0  0  0
   60.6380   33.3060   48.9050 N   0  0  0  0  0  0  0  0  0  0  0  0
   59.8960   34.5220   48.5590 C   0  0  0  0  0  0  0  0  0  0  0  0
   59.1580   34.3200   47.2640 C   0  0  0  0  0  0  0  0  0  0  0  0
   59.6250   34.9250   46.0850 C   0  0  0  0  0  0  0  0  0  0  0  0
   58.9640   34.7060   44.8710 C   0  0  0  0  0  0  0  0  0  0  0  0
   57.8400   33.8760   44.8260 C   0  0  0  0  0  0  0  0  0  0  0  0
   57.3770   33.2610   45.9940 C   0  0  0  0  0  0  0  0  0  0  0  0
   58.0350   33.4790   47.2080 C   0  0  0  0  0  0  0  0  0  0  0  0
   62.0000   33.1820   48.5490 N   0  0  0  0  0  0  0  0  0  0  0  0
   63.0630   33.7510   49.1520 C   0  0  0  0  0  0  0  0  0  0  0  0
   64.2000   33.4650   48.4870 N   0  0  0  0  0  0  0  0  0  0  0  0
   63.8500   32.7120   47.4550 N   0  0  0  0  0  0  0  0  0  0  0  0
   62.5170   32.5450   47.4850 C   0  0  0  0  0  0  0  0  0  0  0  0
   60.1454   32.3214   50.8099 H   0  0  0  0  0  0  0  0  0  0  0  0
   59.1750   34.7492   49.3581 H   0  0  0  0  0  0  0  0  0  0  0  0
   60.6023   35.3578   48.4469 H   0  0  0  0  0  0  0  0  0  0  0  0
   60.5133   35.5731   46.1163 H   0  0  0  0  0  0  0  0  0  0  0  0
   59.3291   35.1872   43.9517 H   0  0  0  0  0  0  0  0  0  0  0  0
   57.3195   33.7065   43.8719 H   0  0  0  0  0  0  0  0  0  0  0  0
   56.4945   32.6054   45.9572 H   0  0  0  0  0  0  0  0  0  0  0  0
   57.6714   32.9895   48.1235 H   0  0  0  0  0  0  0  0  0  0  0  0
   63.0097   34.3652   50.0630 H   0  0  0  0  0  0  0  0  0  0  0  0
   64.5120   32.3300   46.7450 H   0  0  0  0  0  0  0  0  0  0  0  0
   61.9354   31.9719   46.7479 H   0  0  0  0  0  0  0  0  0  0  0  0
  1  2  2  0
  2  3  1  0
  3  4  1  0
  4  5  1  0
  5  6  2  0
  6  7  1  0
  7  8  2  0
  8  9  1  0
  9 10  2  0
  3 11  1  0
 11 12  1  0
 12 13  2  0
 13 14  1  0
 14 15  2  0
 10  5  1  0
 15 11  1  0
  2 16  1  0
  4 17  1  0
  4 18  1  0
  6 19  1  0
  7 20  1  0
  8 21  1  0
  9 22  1  0
 10 23  1  0
 12 24  1  0
 14 25  1  0
 15 26  1  0
M  CHG  1  14   1
M  END
>  <UniqueID>  (60) 
56

>  <SMILES>  (60) 
O=CN(Cc1ccccc1)n1cn[nH+]c1

>  <Energy>  (60) 
64.01495649580357

>  <Genealogy>  (60) 
O=CN(Cc1ccccc1)n1cn[nH+]c1 (protonated)
O=CN(Cc1ccccc1)n1cn[nH+]c1 (3D coordinates assigned)
O=CN(Cc1ccccc1)n1cn[nH+]c1 (optimized conformer: 64.01495649580357 kcal/mol)

>  <smiles>  (60) 
O=CN(Cc1ccccc1)n1cnnc1

>  <score_type>  (60) 
oracle

>  <origin>  (60) 
adg

>  <m_score__min__energy>  (60) 
-4.4900000000000002

>  <m_primary>  (60) 
energy

$$$$
60:0
     RDKit          3D

 39 41  0  0  0  0  0  0  0  0999 V2000
   57.9900   32.8150   47.7270 N   0  0  0  0  0  0  0  0  0  0  0  0
   59.1030   33.4890   46.5910 S   0  0  0  0  0  0  0  0  0  0  0  0
   59.0100   34.9890   46.6440 O   0  0  0  0  0  0  0  0  0  0  0  0
   58.7470   33.0400   45.2020 O   0  0  0  0  0  0  0  0  0  0  0  0
   60.7500   32.9760   46.9960 C   0  0  0  0  0  0  0  0  0  0  0  0
   61.7270   33.9600   47.2190 C   0  0  0  0  0  0  0  0  0  0  0  0
   63.0480   33.6020   47.4950 C   0  0  0  0  0  0  0  0  0  0  0  0
   63.4110   32.2560   47.5500 C   0  0  0  0  0  0  0  0  0  0  0  0
   62.4510   31.2640   47.3420 C   0  0  0  0  0  0  0  0  0  0  0  0
   61.1160   31.6080   47.0760 C   0  0  0  0  0  0  0  0  0  0  0  0
   60.1350   30.5190   46.8930 C   0  0  0  0  0  0  0  0  0  0  0  0
   59.7560   30.1250   45.6020 C   0  0  0  0  0  0  0  0  0  0  0  0
   58.8310   29.0920   45.4240 C   0  0  0  0  0  0  0  0  0  0  0  0
   58.2930   28.4210   46.5370 C   0  0  0  0  0  0  0  0  0  0  0  0
   57.3200   27.3740   46.3850 N   0  0  0  0  0  0  0  0  0  0  0  0
   57.6130   26.0740   45.8430 C   0  0  0  0  0  0  0  0  0  0  0  0
   58.7870   25.7840   45.4830 O   0  0  0  0  0  0  0  0  0  0  0  0
   56.5500   25.0580   45.6920 C   0  0  0  0  0  0  0  0  0  0  0  0
   56.9010   23.7110   45.5030 C   0  0  0  0  0  0  0  0  0  0  0  0
   55.9380   22.7630   45.3560 N   0  0  0  0  0  0  0  0  0  0  0  0
   54.6160   23.0740   45.3950 C   0  0  0  0  0  0  0  0  0  0  0  0
   53.7560   22.1660   45.2510 O   0  0  0  0  0  0  0  0  0  0  0  0
   54.2150   24.3960   45.5990 C   0  0  0  0  0  0  0  0  0  0  0  0
   55.1830   25.3910   45.7610 C   0  0  0  0  0  0  0  0  0  0  0  0
   54.7730   26.6940   46.0190 O   0  0  0  0  0  0  0  0  0  0  0  0
   58.6670   28.8260   47.8260 C   0  0  0  0  0  0  0  0  0  0  0  0
   59.5930   29.8580   48.0040 C   0  0  0  0  0  0  0  0  0  0  0  0
   57.1900   33.4820   47.8040 H   0  0  0  0  0  0  0  0  0  0  0  0
   61.4487   35.0233   47.1758 H   0  0  0  0  0  0  0  0  0  0  0  0
   63.8036   34.3822   47.6693 H   0  0  0  0  0  0  0  0  0  0  0  0
   64.4544   31.9762   47.7574 H   0  0  0  0  0  0  0  0  0  0  0  0
   62.7428   30.2044   47.3869 H   0  0  0  0  0  0  0  0  0  0  0  0
   60.1881   30.6306   44.7258 H   0  0  0  0  0  0  0  0  0  0  0  0
   58.5224   28.8025   44.4086 H   0  0  0  0  0  0  0  0  0  0  0  0
   56.3550   27.5640   46.7370 H   0  0  0  0  0  0  0  0  0  0  0  0
   57.9618   23.4216   45.4738 H   0  0  0  0  0  0  0  0  0  0  0  0
   53.1458   24.6522   45.6319 H   0  0  0  0  0  0  0  0  0  0  0  0
   58.2287   28.3282   48.7035 H   0  0  0  0  0  0  0  0  0  0  0  0
   59.8973   30.1523   49.0193 H   0  0  0  0  0  0  0  0  0  0  0  0
  1  2  1  0
  2  3  2  0
  2  4  2  0
  2  5  1  0
  5  6  2  0
  6  7  1  0
  7  8  2  0
  8  9  1  0
  9 10  2  0
 10 11  1  0
 11 12  2  0
 12 13  1  0
 13 14  2  0
 14 15  1  0
 15 16  1  0
 16 17  2  0
 16 18  1  0
 18 19  2  0
 19 20  1  0
 20 21  1  0
 21 22  2  0
 21 23  1  0
 23 24  2  0
 24 25  1  0
 14 26  1  0
 26 27  2  0
 10  5  1  0
 27 11  1  0
 24 18  1  0
  1 28  1  0
  6 29  1  0
  7 30  1  0
  8 31  1  0
  9 32  1  0
 12 33  1  0
 13 34  1  0
 15 35  1  0
 19 36  1  0
 23 37  1  0
 26 38  1  0
 27 39  1  0
M  CHG  3   1  -1  20  -1  25  -1
M  END
>  <UniqueID>  (61) 
57

>  <SMILES>  (61) 
[NH-]S(=O)(=O)c1ccccc1-c1ccc(NC(=O)c2c[n-]c(=O)cc2[O-])cc1

>  <Energy>  (61) 
60.30451908802924

>  <Genealogy>  (61) 
[NH-]S(=O)(=O)c1ccccc1-c1ccc(NC(=O)c2c[n-]c(=O)cc2[O-])cc1 (protonated)
[NH-]S(=O)(=O)c1ccccc1-c1ccc(NC(=O)c2c[n-]c(=O)cc2[O-])cc1 (3D coordinates assigned)
[NH-]S(=O)(=O)c1ccccc1-c1ccc(NC(=O)c2c[n-]c(=O)cc2[O-])cc1 (optimized conformer: 60.30451908802924 kcal/mol)

>  <smiles>  (61) 
NS(=O)(=O)c1ccccc1-c1ccc(NC(=O)c2c[nH]c(=O)cc2O)cc1

>  <score_type>  (61) 
oracle

>  <origin>  (61) 
adg

>  <m_score__min__energy>  (61) 
-13.789999999999999

>  <m_primary>  (61) 
energy

$$$$
61:0
     RDKit          3D

 51 54  0  0  0  0  0  0  0  0999 V2000
   51.3650   31.5340   50.3470 C   0  0  0  0  0  0  0  0  0  0  0  0
   52.3380   30.8010   51.2120 C   0  0  0  0  0  0  0  0  0  0  0  0
   51.9310   29.6810   51.9440 C   0  0  0  0  0  0  0  0  0  0  0  0
   52.8570   29.0200   52.7520 C   0  0  0  0  0  0  0  0  0  0  0  0
   54.1760   29.4690   52.8150 C   0  0  0  0  0  0  0  0  0  0  0  0
   54.5660   30.5910   52.0500 C   0  0  0  0  0  0  0  0  0  0  0  0
   55.7770   31.0760   52.0630 N   0  0  0  0  0  0  0  0  0  0  0  0
   57.0220   30.4220   51.7600 C   0  0  0  0  0  0  0  0  0  0  0  0
   57.1830   29.2010   52.0310 O   0  0  0  0  0  0  0  0  0  0  0  0
   58.0880   31.1610   51.0440 C   0  0  0  0  0  0  0  0  0  0  0  0
   58.2510   32.5460   51.2310 C   0  0  0  0  0  0  0  0  0  0  0  0
   59.2610   33.2390   50.5600 C   0  0  0  0  0  0  0  0  0  0  0  0
   60.1350   32.5610   49.6960 C   0  0  0  0  0  0  0  0  0  0  0  0
   61.2180   33.3160   48.9730 C   0  0  0  0  0  0  0  0  0  0  0  0
   61.2160   32.9980   47.5810 O   0  0  0  0  0  0  0  0  0  0  0  0
   60.2410   33.4040   46.6500 C   0  0  0  0  0  0  0  0  0  0  0  0
   60.0720   34.7580   46.2960 C   0  0  0  0  0  0  0  0  0  0  0  0
   59.0930   35.1340   45.3750 C   0  0  0  0  0  0  0  0  0  0  0  0
   58.2710   34.1730   44.7870 C   0  0  0  0  0  0  0  0  0  0  0  0
   58.4230   32.8190   45.1170 C   0  0  0  0  0  0  0  0  0  0  0  0
   57.5970   31.8510   44.5250 C   0  0  0  0  0  0  0  0  0  0  0  0
   57.7490   30.4980   44.8500 C   0  0  0  0  0  0  0  0  0  0  0  0
   56.7070   29.2820   44.1170 S   0  0  0  0  0  0  0  0  0  0  0  0
   55.1520   29.3270   44.8700 N   0  0  0  0  0  0  0  0  0  0  0  0
   57.3150   27.9200   44.2970 O   0  0  0  0  0  0  0  0  0  0  0  0
   56.5540   29.5530   42.6470 O   0  0  0  0  0  0  0  0  0  0  0  0
   58.7230   30.1120   45.7780 C   0  0  0  0  0  0  0  0  0  0  0  0
   59.5500   31.0660   46.3750 C   0  0  0  0  0  0  0  0  0  0  0  0
   59.4140   32.4290   46.0520 C   0  0  0  0  0  0  0  0  0  0  0  0
   59.9680   31.1840   49.4950 C   0  0  0  0  0  0  0  0  0  0  0  0
   58.9580   30.4880   50.1660 C   0  0  0  0  0  0  0  0  0  0  0  0
   53.6320   31.2210   51.2880 N   0  0  0  0  0  0  0  0  0  0  0  0
   50.6466   32.0752   50.9803 H   0  0  0  0  0  0  0  0  0  0  0  0
   51.9064   32.2506   49.7119 H   0  0  0  0  0  0  0  0  0  0  0  0
   50.8256   30.8159   49.7119 H   0  0  0  0  0  0  0  0  0  0  0  0
   50.8920   29.3249   51.8835 H   0  0  0  0  0  0  0  0  0  0  0  0
   52.5463   28.1438   53.3400 H   0  0  0  0  0  0  0  0  0  0  0  0
   54.9070   28.9536   53.4553 H   0  0  0  0  0  0  0  0  0  0  0  0
   57.5773   33.0875   51.9114 H   0  0  0  0  0  0  0  0  0  0  0  0
   59.3722   34.3231   50.7096 H   0  0  0  0  0  0  0  0  0  0  0  0
   61.0486   34.3959   49.0963 H   0  0  0  0  0  0  0  0  0  0  0  0
   62.1912   33.0297   49.3984 H   0  0  0  0  0  0  0  0  0  0  0  0
   60.7172   35.5248   46.7495 H   0  0  0  0  0  0  0  0  0  0  0  0
   58.9690   36.1947   45.1113 H   0  0  0  0  0  0  0  0  0  0  0  0
   57.5015   34.4782   44.0626 H   0  0  0  0  0  0  0  0  0  0  0  0
   56.8264   32.1570   43.8021 H   0  0  0  0  0  0  0  0  0  0  0  0
   55.1580   28.6040   45.6250 H   0  0  0  0  0  0  0  0  0  0  0  0
   58.8380   29.0496   46.0390 H   0  0  0  0  0  0  0  0  0  0  0  0
   60.3124   30.7501   47.1022 H   0  0  0  0  0  0  0  0  0  0  0  0
   60.6358   30.6475   48.8049 H   0  0  0  0  0  0  0  0  0  0  0  0
   58.8424   29.4058   50.0064 H   0  0  0  0  0  0  0  0  0  0  0  0
  1  2  1  0
  2  3  2  0
  3  4  1  0
  4  5  2  0
  5  6  1  0
  6  7  2  3
  7  8  1  0
  8  9  2  0
  8 10  1  0
 10 11  2  0
 11 12  1  0
 12 13  2  0
 13 14  1  0
 14 15  1  0
 15 16  1  0
 16 17  2  0
 17 18  1  0
 18 19  2  0
 19 20  1  0
 20 21  2  0
 21 22  1  0
 22 23  1  0
 23 24  1  0
 23 25  2  0
 23 26  2  0
 22 27  2  0
 27 28  1  0
 28 29  2  0
 13 30  1  0
 30 31  2  0
  6 32  1  0
 32  2  1  0
 31 10  1  0
 29 16  1  0
 29 20  1  0
  1 33  1  0
  1 34  1  0
  1 35  1  0
  3 36  1  0
  4 37  1  0
  5 38  1  0
 11 39  1  0
 12 40  1  0
 14 41  1  0
 14 42  1  0
 17 43  1  0
 18 44  1  0
 19 45  1  0
 21 46  1  0
 24 47  1  0
 27 48  1  0
 28 49  1  0
 30 50  1  0
 31 51  1  0
M  CHG  2  24  -1  32  -1
M  END
>  <UniqueID>  (62) 
58

>  <SMILES>  (62) 
Cc1cccc(=NC(=O)c2ccc(COc3cccc4cc(S([NH-])(=O)=O)ccc34)cc2)[n-]1

>  <Energy>  (62) 
66.83001676923425

>  <Genealogy>  (62) 
Cc1cccc(=NC(=O)c2ccc(COc3cccc4cc(S([NH-])(=O)=O)ccc34)cc2)[n-]1 (protonated)
Cc1cccc(=NC(=O)c2ccc(COc3cccc4cc(S([NH-])(=O)=O)ccc34)cc2)[n-]1 (3D coordinates assigned)
Cc1cccc(=NC(=O)c2ccc(COc3cccc4cc(S([NH-])(=O)=O)ccc34)cc2)[n-]1 (optimized conformer: 66.83001676923425 kcal/mol)

>  <smiles>  (62) 
Cc1cccc(=NC(=O)c2ccc(COc3cccc4cc(S(N)(=O)=O)ccc34)cc2)[nH]1

>  <score_type>  (62) 
oracle

>  <origin>  (62) 
adg

>  <m_score__min__energy>  (62) 
-13.859999999999999

>  <m_primary>  (62) 
energy

$$$$
62:0
     RDKit          3D

 49 51  0  0  0  0  0  0  0  0999 V2000
   62.5820   30.8110   50.9430 C   0  0  0  0  0  0  0  0  0  0  0  0
   62.3900   30.6950   49.5370 O   0  0  0  0  0  0  0  0  0  0  0  0
   62.6070   31.7320   48.6160 C   0  0  0  0  0  0  0  0  0  0  0  0
   63.7980   32.4850   48.6050 C   0  0  0  0  0  0  0  0  0  0  0  0
   63.9740   33.5120   47.6760 C   0  0  0  0  0  0  0  0  0  0  0  0
   62.9720   33.7950   46.7480 C   0  0  0  0  0  0  0  0  0  0  0  0
   61.7900   33.0520   46.7450 C   0  0  0  0  0  0  0  0  0  0  0  0
   61.5950   32.0200   47.6850 C   0  0  0  0  0  0  0  0  0  0  0  0
   60.4120   31.2600   47.7310 O   0  0  0  0  0  0  0  0  0  0  0  0
   59.6460   30.9980   48.9080 C   0  0  0  0  0  0  0  0  0  0  0  0
   58.7680   32.1650   49.2350 C   0  0  0  0  0  0  0  0  0  0  0  0
   58.0550   32.1400   50.2750 O   0  0  0  0  0  0  0  0  0  0  0  0
   58.7880   33.3230   48.3940 N   0  0  0  0  0  0  0  0  0  0  0  0
   58.4980   33.3360   46.9900 C   0  0  0  0  0  0  0  0  0  0  0  0
   58.7950   34.4860   46.2490 C   0  0  0  0  0  0  0  0  0  0  0  0
   58.5630   34.5190   44.8720 C   0  0  0  0  0  0  0  0  0  0  0  0
   58.0480   33.3950   44.2220 C   0  0  0  0  0  0  0  0  0  0  0  0
   57.7650   32.2280   44.9450 C   0  0  0  0  0  0  0  0  0  0  0  0
   57.1470   30.8060   44.1080 S   0  0  0  0  0  0  0  0  0  0  0  0
   55.9830   30.2290   44.8650 O   0  0  0  0  0  0  0  0  0  0  0  0
   56.6640   31.2010   42.7410 O   0  0  0  0  0  0  0  0  0  0  0  0
   58.3950   29.5970   44.0290 N   0  0  0  0  0  0  0  0  0  0  0  0
   58.7670   28.8300   45.0160 C   0  0  0  0  0  0  0  0  0  0  0  0
   58.4210   27.3960   45.1920 C   0  0  0  0  0  0  0  0  0  0  0  0
   59.2120   26.9850   46.4420 C   0  0  0  0  0  0  0  0  0  0  0  0
   59.7850   28.2720   47.0590 C   0  0  0  0  0  0  0  0  0  0  0  0
   59.5470   29.3200   46.0890 N   0  0  0  0  0  0  0  0  0  0  0  0
   57.9970   32.2000   46.3290 C   0  0  0  0  0  0  0  0  0  0  0  0
   61.7549   30.3113   51.4685 H   0  0  0  0  0  0  0  0  0  0  0  0
   63.5342   30.3369   51.2234 H   0  0  0  0  0  0  0  0  0  0  0  0
   62.6053   31.8744   51.2234 H   0  0  0  0  0  0  0  0  0  0  0  0
   64.5929   32.2625   49.3320 H   0  0  0  0  0  0  0  0  0  0  0  0
   64.9043   34.0989   47.6759 H   0  0  0  0  0  0  0  0  0  0  0  0
   63.1133   34.6050   46.0172 H   0  0  0  0  0  0  0  0  0  0  0  0
   61.0067   33.2732   46.0051 H   0  0  0  0  0  0  0  0  0  0  0  0
   59.0193   30.1095   48.7413 H   0  0  0  0  0  0  0  0  0  0  0  0
   60.3345   30.8254   49.7484 H   0  0  0  0  0  0  0  0  0  0  0  0
   59.2136   35.3689   46.7542 H   0  0  0  0  0  0  0  0  0  0  0  0
   58.7861   35.4310   44.2989 H   0  0  0  0  0  0  0  0  0  0  0  0
   57.8637   33.4258   43.1380 H   0  0  0  0  0  0  0  0  0  0  0  0
   58.8570   29.4720   43.1000 H   0  0  0  0  0  0  0  0  0  0  0  0
   57.3401   27.2695   45.3520 H   0  0  0  0  0  0  0  0  0  0  0  0
   58.6668   26.7855   44.3106 H   0  0  0  0  0  0  0  0  0  0  0  0
   58.5470   26.4853   47.1618 H   0  0  0  0  0  0  0  0  0  0  0  0
   60.0182   26.2834   46.1816 H   0  0  0  0  0  0  0  0  0  0  0  0
   59.2731   28.5032   48.0048 H   0  0  0  0  0  0  0  0  0  0  0  0
   60.8565   28.1680   47.2850 H   0  0  0  0  0  0  0  0  0  0  0  0
   59.8500   30.3130   46.2050 H   0  0  0  0  0  0  0  0  0  0  0  0
   57.7857   31.2840   46.9002 H   0  0  0  0  0  0  0  0  0  0  0  0
  1  2  1  0
  2  3  1  0
  3  4  2  0
  4  5  1  0
  5  6  2  0
  6  7  1  0
  7  8  2  0
  8  9  1  0
  9 10  1  0
 10 11  1  0
 11 12  2  0
 11 13  1  0
 13 14  1  0
 14 15  2  0
 15 16  1  0
 16 17  2  0
 17 18  1  0
 18 19  1  0
 19 20  2  0
 19 21  2  0
 19 22  1  0
 22 23  2  3
 23 24  1  0
 24 25  1  0
 25 26  1  0
 26 27  1  0
 18 28  2  0
  8  3  1  0
 28 14  1  0
 27 23  1  0
  1 29  1  0
  1 30  1  0
  1 31  1  0
  4 32  1  0
  5 33  1  0
  6 34  1  0
  7 35  1  0
 10 36  1  0
 10 37  1  0
 15 38  1  0
 16 39  1  0
 17 40  1  0
 22 41  1  0
 24 42  1  0
 24 43  1  0
 25 44  1  0
 25 45  1  0
 26 46  1  0
 26 47  1  0
 27 48  1  0
 28 49  1  0
M  CHG  2  13  -1  22   1
M  END
>  <UniqueID>  (63) 
59

>  <SMILES>  (63) 
COc1ccccc1OCC(=O)[N-]c1cccc(S(=O)(=O)[NH+]=C2CCCN2)c1

>  <Energy>  (63) 
61.56115883800028

>  <Genealogy>  (63) 
COc1ccccc1OCC(=O)[N-]c1cccc(S(=O)(=O)[NH+]=C2CCCN2)c1 (protonated)
COc1ccccc1OCC(=O)[N-]c1cccc(S(=O)(=O)[NH+]=C2CCCN2)c1 (3D coordinates assigned)
COc1ccccc1OCC(=O)[N-]c1cccc(S(=O)(=O)[NH+]=C2CCCN2)c1 (nonaromatic ring conformer: 61.56115883800028 kcal/mol)

>  <smiles>  (63) 
COc1ccccc1OCC(=O)Nc1cccc(S(=O)(=O)N=C2CCCN2)c1

>  <score_type>  (63) 
oracle

>  <origin>  (63) 
adg

>  <m_score__min__energy>  (63) 
-9.75

>  <m_primary>  (63) 
energy

$$$$
63:0
     RDKit          3D

 45 49  0  0  0  0  0  0  0  0999 V2000
   57.7750   28.3360   46.8730 C   0  0  0  0  0  0  0  0  0  0  0  0
   57.4910   29.4750   46.0030 N   0  0  0  0  0  0  0  0  0  0  0  0
   56.4770   29.5930   45.1140 C   0  0  0  0  0  0  0  0  0  0  0  0
   55.5400   28.5960   44.8690 O   0  0  0  0  0  0  0  0  0  0  0  0
   56.4890   30.8310   44.4870 C   0  0  0  0  0  0  0  0  0  0  0  0
   57.5670   31.4910   45.0410 C   0  0  0  0  0  0  0  0  0  0  0  0
   58.0560   32.7720   44.8030 C   0  0  0  0  0  0  0  0  0  0  0  0
   59.1810   33.1930   45.5320 C   0  0  0  0  0  0  0  0  0  0  0  0
   59.7980   32.3320   46.4800 C   0  0  0  0  0  0  0  0  0  0  0  0
   61.0060   32.7980   47.2680 C   0  0  2  0  0  0  0  0  0  0  0  0
   62.0810   31.7530   47.1490 C   0  0  0  0  0  0  0  0  0  0  0  0
   62.7020   31.2180   48.2080 C   0  0  0  0  0  0  0  0  0  0  0  0
   62.4900   31.6620   49.5680 N   0  0  1  0  0  0  0  0  0  0  0  0
   63.6750   32.3620   50.0280 C   0  0  0  0  0  0  0  0  0  0  0  0
   63.5710   33.5440   50.7960 C   0  0  0  0  0  0  0  0  0  0  0  0
   64.7190   34.2070   51.2360 C   0  0  0  0  0  0  0  0  0  0  0  0
   65.9830   33.7060   50.9180 C   0  0  0  0  0  0  0  0  0  0  0  0
   66.1020   32.5400   50.1590 C   0  0  0  0  0  0  0  0  0  0  0  0
   64.9570   31.8700   49.7160 C   0  0  0  0  0  0  0  0  0  0  0  0
   61.3210   32.4920   49.7760 C   0  0  0  0  0  0  0  0  0  0  0  0
   60.9270   32.7540   51.0540 N   0  0  0  0  0  0  0  0  0  0  0  0
   59.9030   33.5990   51.3240 C   0  0  0  0  0  0  0  0  0  0  0  0
   59.5590   33.8100   52.5170 O   0  0  0  0  0  0  0  0  0  0  0  0
   59.2570   34.2280   50.3130 N   0  0  0  0  0  0  0  0  0  0  0  0
   59.6020   34.0100   49.0200 C   0  0  0  0  0  0  0  0  0  0  0  0
   58.9900   34.6290   48.1090 O   0  0  0  0  0  0  0  0  0  0  0  0
   60.6330   33.1010   48.7060 C   0  0  0  0  0  0  0  0  0  0  0  0
   59.2670   31.0400   46.6990 C   0  0  0  0  0  0  0  0  0  0  0  0
   58.1500   30.6500   45.9560 C   0  0  0  0  0  0  0  0  0  0  0  0
   57.6969   28.6493   47.9245 H   0  0  0  0  0  0  0  0  0  0  0  0
   57.0495   27.5333   46.6747 H   0  0  0  0  0  0  0  0  0  0  0  0
   58.7924   27.9679   46.6747 H   0  0  0  0  0  0  0  0  0  0  0  0
   55.7943   31.2032   43.7196 H   0  0  0  0  0  0  0  0  0  0  0  0
   57.5767   33.4343   44.0671 H   0  0  0  0  0  0  0  0  0  0  0  0
   59.5892   34.2011   45.3671 H   0  0  0  0  0  0  0  0  0  0  0  0
   61.3922   33.7423   46.8568 H   0  0  0  0  0  0  0  0  0  0  0  0
   62.3710   31.4119   46.1442 H   0  0  0  0  0  0  0  0  0  0  0  0
   63.4120   30.3961   48.0340 H   0  0  0  0  0  0  0  0  0  0  0  0
   62.3470   30.7950   50.1360 H   0  0  0  0  0  0  0  0  0  0  0  0
   62.5784   33.9448   51.0491 H   0  0  0  0  0  0  0  0  0  0  0  0
   64.6272   35.1256   51.8342 H   0  0  0  0  0  0  0  0  0  0  0  0
   66.8855   34.2301   51.2656 H   0  0  0  0  0  0  0  0  0  0  0  0
   67.0987   32.1475   49.9089 H   0  0  0  0  0  0  0  0  0  0  0  0
   65.0587   30.9516   49.1192 H   0  0  0  0  0  0  0  0  0  0  0  0
   59.7213   30.3601   47.4348 H   0  0  0  0  0  0  0  0  0  0  0  0
  1  2  1  0
  2  3  1  0
  3  4  1  0
  3  5  2  0
  5  6  1  0
  6  7  2  0
  7  8  1  0
  8  9  2  0
  9 10  1  0
 10 11  1  0
 11 12  2  0
 12 13  1  0
 13 14  1  0
 14 15  2  0
 15 16  1  0
 16 17  2  0
 17 18  1  0
 18 19  2  0
 13 20  1  0
 20 21  1  0
 21 22  1  0
 22 23  2  0
 22 24  1  0
 24 25  1  0
 25 26  2  0
 25 27  1  0
  9 28  1  0
 28 29  2  0
 29  2  1  0
 29  6  1  0
 27 10  1  0
 19 14  1  0
 27 20  2  0
  1 30  1  0
  1 31  1  0
  1 32  1  0
  5 33  1  0
  7 34  1  0
  8 35  1  0
 10 36  1  6
 11 37  1  0
 12 38  1  0
 13 39  1  1
 15 40  1  0
 16 41  1  0
 17 42  1  0
 18 43  1  0
 19 44  1  0
 28 45  1  0
M  CHG  4   4  -1  13   1  21  -1  24  -1
M  END
>  <UniqueID>  (64) 
60

>  <SMILES>  (64) 
Cn1c([O-])cc2ccc([C@@H]3C=C[N@@H+](c4ccccc4)c4[n-]c(=O)[n-]c(=O)c43)cc21

>  <Energy>  (64) 
98.24284430268294

>  <Genealogy>  (64) 
Cn1c([O-])cc2ccc(C3C=C[NH+](c4ccccc4)c4[n-]c(=O)[n-]c(=O)c43)cc21 (protonated)
Cn1c([O-])cc2ccc([C@@H]3C=C[N@@H+](c4ccccc4)c4[n-]c(=O)[n-]c(=O)c43)cc21 (chirality)
Cn1c([O-])cc2ccc([C@@H]3C=C[N@@H+](c4ccccc4)c4[n-]c(=O)[n-]c(=O)c43)cc21 (3D coordinates assigned)
Cn1c([O-])cc2ccc([C@@H]3C=C[N@@H+](c4ccccc4)c4[n-]c(=O)[n-]c(=O)c43)cc21 (nonaromatic ring conformer: 98.24284430268294 kcal/mol)

>  <smiles>  (64) 
Cn1c(O)cc2ccc(C3C=CN(c4ccccc4)c4[nH]c(=O)[nH]c(=O)c43)cc21

>  <score_type>  (64) 
oracle

>  <origin>  (64) 
adg

>  <m_score__min__energy>  (64) 
-11.33

>  <m_primary>  (64) 
energy

$$$$
64:0
     RDKit          3D

 51 53  0  0  0  0  0  0  0  0999 V2000
   60.7610   26.6950   46.4280 C   0  0  0  0  0  0  0  0  0  0  0  0
   59.6980   27.6670   45.9900 C   0  0  0  0  0  0  0  0  0  0  0  0
   58.6440   27.1870   45.1920 C   0  0  0  0  0  0  0  0  0  0  0  0
   57.6750   28.0600   44.6920 C   0  0  0  0  0  0  0  0  0  0  0  0
   57.7420   29.4250   44.9840 C   0  0  0  0  0  0  0  0  0  0  0  0
   56.5990   30.5550   44.2640 S   0  0  0  0  0  0  0  0  0  0  0  0
   55.2410   29.9140   44.2210 O   0  0  0  0  0  0  0  0  0  0  0  0
   57.0190   30.9230   42.8680 O   0  0  0  0  0  0  0  0  0  0  0  0
   56.5240   31.9910   45.2320 N   0  0  0  0  0  0  0  0  0  0  0  0
   57.6500   32.8230   45.5420 C   0  0  0  0  0  0  0  0  0  0  0  0
   58.3930   33.4740   44.5430 C   0  0  0  0  0  0  0  0  0  0  0  0
   59.5210   34.2240   44.8820 C   0  0  0  0  0  0  0  0  0  0  0  0
   59.9130   34.3410   46.2170 C   0  0  0  0  0  0  0  0  0  0  0  0
   59.1610   33.7270   47.2340 C   0  0  0  0  0  0  0  0  0  0  0  0
   59.6050   33.7960   48.6730 C   0  0  0  0  0  0  0  0  0  0  0  0
   58.9800   32.8100   49.4140 F   0  0  0  0  0  0  0  0  0  0  0  0
   59.2950   35.0230   49.2340 F   0  0  0  0  0  0  0  0  0  0  0  0
   60.9730   33.6070   48.7330 F   0  0  0  0  0  0  0  0  0  0  0  0
   58.0340   32.9600   46.8820 C   0  0  0  0  0  0  0  0  0  0  0  0
   58.7570   29.9050   45.8160 C   0  0  0  0  0  0  0  0  0  0  0  0
   59.7270   29.0410   46.3430 C   0  0  0  0  0  0  0  0  0  0  0  0
   60.7620   29.6060   47.1660 N   0  0  0  0  0  0  0  0  0  0  0  0
   60.5100   30.1870   48.4550 C   0  0  0  0  0  0  0  0  0  0  0  0
   59.3500   30.1440   48.9470 O   0  0  0  0  0  0  0  0  0  0  0  0
   61.5800   30.9520   49.2050 C   0  0  0  0  0  0  0  0  0  0  0  0
   62.8170   31.2500   48.4410 N   0  0  0  0  0  0  0  0  0  0  0  0
   62.6230   31.8680   47.1240 C   0  0  0  0  0  0  0  0  0  0  0  0
   63.1760   33.2800   47.1930 C   0  0  0  0  0  0  0  0  0  0  0  0
   64.1630   33.2650   48.3420 C   0  0  0  0  0  0  0  0  0  0  0  0
   63.8180   32.0390   49.1760 C   0  0  0  0  0  0  0  0  0  0  0  0
   60.7972   26.6619   47.5269 H   0  0  0  0  0  0  0  0  0  0  0  0
   60.5251   25.6936   46.0386 H   0  0  0  0  0  0  0  0  0  0  0  0
   61.7373   27.0193   46.0386 H   0  0  0  0  0  0  0  0  0  0  0  0
   58.5822   26.1137   44.9594 H   0  0  0  0  0  0  0  0  0  0  0  0
   56.8572   27.6721   44.0669 H   0  0  0  0  0  0  0  0  0  0  0  0
   58.0851   33.3926   43.4901 H   0  0  0  0  0  0  0  0  0  0  0  0
   60.1031   34.7246   44.0942 H   0  0  0  0  0  0  0  0  0  0  0  0
   60.8145   34.9163   46.4743 H   0  0  0  0  0  0  0  0  0  0  0  0
   57.4480   32.4624   47.6688 H   0  0  0  0  0  0  0  0  0  0  0  0
   58.7954   30.9767   46.0610 H   0  0  0  0  0  0  0  0  0  0  0  0
   61.6520   29.8490   46.6840 H   0  0  0  0  0  0  0  0  0  0  0  0
   61.1455   31.9088   49.5302 H   0  0  0  0  0  0  0  0  0  0  0  0
   61.8906   30.2972   50.0325 H   0  0  0  0  0  0  0  0  0  0  0  0
   63.1606   31.2918   46.3565 H   0  0  0  0  0  0  0  0  0  0  0  0
   61.5557   31.8839   46.8585 H   0  0  0  0  0  0  0  0  0  0  0  0
   63.6829   33.5420   46.2526 H   0  0  0  0  0  0  0  0  0  0  0  0
   62.3814   34.0255   47.3437 H   0  0  0  0  0  0  0  0  0  0  0  0
   65.1921   33.1906   47.9608 H   0  0  0  0  0  0  0  0  0  0  0  0
   64.1016   34.1877   48.9377 H   0  0  0  0  0  0  0  0  0  0  0  0
   64.7218   31.4339   49.3401 H   0  0  0  0  0  0  0  0  0  0  0  0
   63.4175   32.3449   50.1537 H   0  0  0  0  0  0  0  0  0  0  0  0
  1  2  1  0
  2  3  2  0
  3  4  1  0
  4  5  2  0
  5  6  1  0
  6  7  2  0
  6  8  2  0
  6  9  1  0
  9 10  1  0
 10 11  2  0
 11 12  1  0
 12 13  2  0
 13 14  1  0
 14 15  1  0
 15 16  1  0
 15 17  1  0
 15 18  1  0
 14 19  2  0
  5 20  1  0
 20 21  2  0
 21 22  1  0
 22 23  1  0
 23 24  2  0
 23 25  1  0
 25 26  1  0
 26 27  1  0
 27 28  1  0
 28 29  1  0
 29 30  1  0
 21  2  1  0
 30 26  1  0
 19 10  1  0
  1 31  1  0
  1 32  1  0
  1 33  1  0
  3 34  1  0
  4 35  1  0
 11 36  1  0
 12 37  1  0
 13 38  1  0
 19 39  1  0
 20 40  1  0
 22 41  1  0
 25 42  1  0
 25 43  1  0
 27 44  1  0
 27 45  1  0
 28 46  1  0
 28 47  1  0
 29 48  1  0
 29 49  1  0
 30 50  1  0
 30 51  1  0
M  CHG  1   9  -1
M  END
>  <UniqueID>  (65) 
61

>  <SMILES>  (65) 
Cc1ccc(S(=O)(=O)[N-]c2cccc(C(F)(F)F)c2)cc1NC(=O)CN1CCCC1

>  <Energy>  (65) 
69.0532967795872

>  <Genealogy>  (65) 
Cc1ccc(S(=O)(=O)[N-]c2cccc(C(F)(F)F)c2)cc1NC(=O)CN1CCCC1 (protonated)
Cc1ccc(S(=O)(=O)[N-]c2cccc(C(F)(F)F)c2)cc1NC(=O)CN1CCCC1 (3D coordinates assigned)
Cc1ccc(S(=O)(=O)[N-]c2cccc(C(F)(F)F)c2)cc1NC(=O)CN1CCCC1 (nonaromatic ring conformer: 69.0532967795872 kcal/mol)

>  <smiles>  (65) 
Cc1ccc(S(=O)(=O)Nc2cccc(C(F)(F)F)c2)cc1NC(=O)CN1CCCC1

>  <score_type>  (65) 
oracle

>  <origin>  (65) 
adg

>  <m_score__min__energy>  (65) 
-10.640000000000001

>  <m_primary>  (65) 
energy

$$$$
65:0
     RDKit          3D

 41 43  0  0  0  0  0  0  0  0999 V2000
   63.4738   33.7230   46.1510 H   0  0  0  0  0  0  0  0  0  0  0  0
   62.6270   33.7320   46.8530 C   0  0  0  0  0  0  0  0  0  0  0  0
   61.3370   33.6060   46.4420 N   0  0  0  0  0  0  0  0  0  0  0  0
   60.4680   33.6510   47.4770 C   0  0  0  0  0  0  0  0  0  0  0  0
   59.0120   33.4680   47.3340 C   0  0  0  0  0  0  0  0  0  0  0  0
   58.4070   32.6840   48.1130 O   0  0  0  0  0  0  0  0  0  0  0  0
   58.2450   34.1440   46.2290 C   0  0  0  0  0  0  0  0  0  0  0  0
   58.2829   35.2325   46.3830 H   0  0  0  0  0  0  0  0  0  0  0  0
   57.2082   33.7776   46.2575 H   0  0  0  0  0  0  0  0  0  0  0  0
   58.8310   33.8160   44.8470 C   0  0  0  0  0  0  0  0  0  0  0  0
   59.8562   33.4384   44.9745 H   0  0  0  0  0  0  0  0  0  0  0  0
   58.8231   34.7354   44.2431 H   0  0  0  0  0  0  0  0  0  0  0  0
   58.0110   32.7730   44.1290 C   0  0  0  0  0  0  0  0  0  0  0  0
   58.0370   32.6910   42.7300 C   0  0  0  0  0  0  0  0  0  0  0  0
   58.5770   33.4466   42.1405 H   0  0  0  0  0  0  0  0  0  0  0  0
   57.3730   31.6440   42.0910 C   0  0  0  0  0  0  0  0  0  0  0  0
   57.3733   31.5819   40.9928 H   0  0  0  0  0  0  0  0  0  0  0  0
   56.7260   30.7010   42.8240 N   0  0  0  0  0  0  0  0  0  0  0  0
   56.6800   30.7500   44.1850 C   0  0  0  0  0  0  0  0  0  0  0  0
   56.1000   29.8140   44.8800 N   0  0  0  0  0  0  0  0  0  0  0  0
   56.6410   28.5290   45.2220 C   0  0  0  0  0  0  0  0  0  0  0  0
   55.9010   27.5860   45.6150 O   0  0  0  0  0  0  0  0  0  0  0  0
   58.1100   28.2950   45.0590 C   0  0  0  0  0  0  0  0  0  0  0  0
   58.3111   27.2136   45.0719 H   0  0  0  0  0  0  0  0  0  0  0  0
   58.4416   28.7225   44.1012 H   0  0  0  0  0  0  0  0  0  0  0  0
   58.8600   28.9560   46.1840 C   0  0  0  0  0  0  0  0  0  0  0  0
   58.3930   28.8520   47.5040 C   0  0  0  0  0  0  0  0  0  0  0  0
   57.4601   28.3082   47.7135 H   0  0  0  0  0  0  0  0  0  0  0  0
   59.1090   29.4370   48.5540 C   0  0  0  0  0  0  0  0  0  0  0  0
   58.6510   29.3380   49.8260 F   0  0  0  0  0  0  0  0  0  0  0  0
   60.3010   30.1200   48.2930 C   0  0  0  0  0  0  0  0  0  0  0  0
   60.8618   30.5826   49.1185 H   0  0  0  0  0  0  0  0  0  0  0  0
   60.7800   30.2150   46.9830 C   0  0  0  0  0  0  0  0  0  0  0  0
   61.9410   30.8680   46.7340 F   0  0  0  0  0  0  0  0  0  0  0  0
   60.0670   29.6310   45.9310 C   0  0  0  0  0  0  0  0  0  0  0  0
   60.4517   29.7000   44.9028 H   0  0  0  0  0  0  0  0  0  0  0  0
   57.3080   31.8030   44.8580 C   0  0  0  0  0  0  0  0  0  0  0  0
   57.2507   31.8700   45.9545 H   0  0  0  0  0  0  0  0  0  0  0  0
   61.2760   33.8410   48.9390 S   0  0  0  0  0  0  0  0  0  0  0  0
   62.7970   33.8730   48.2250 C   0  0  0  0  0  0  0  0  0  0  0  0
   63.7568   33.9856   48.7504 H   0  0  0  0  0  0  0  0  0  0  0  0
  1  2  1  0
  2  3  1  0
  3  4  2  0
  4  5  1  0
  5  6  2  0
  5  7  1  0
  7  8  1  0
  7  9  1  0
  7 10  1  0
 10 11  1  0
 10 12  1  0
 10 13  1  0
 13 14  1  0
 14 15  1  0
 14 16  2  0
 16 17  1  0
 16 18  1  0
 18 19  1  0
 19 20  2  0
 20 21  1  0
 21 22  2  0
 21 23  1  0
 23 24  1  0
 23 25  1  0
 23 26  1  0
 26 27  2  0
 27 28  1  0
 27 29  1  0
 29 30  1  0
 29 31  2  0
 31 32  1  0
 31 33  1  0
 33 34  1  0
 33 35  2  0
 35 36  1  0
 19 37  1  0
 37 38  1  0
  4 39  1  0
 39 40  1  0
 40 41  1  0
 40  2  2  0
 37 13  2  0
 35 26  1  0
M  CHG  1  18  -1
M  END
>  <UniqueID>  (66) 
62

>  <SMILES>  (66) 
O=C(Cc1cc(F)cc(F)c1)/N=c1/cc(CCC(=O)c2nccs2)cc[n-]1

>  <Energy>  (66) 
65.94249151052269

>  <Genealogy>  (66) 
O=C(Cc1cc(F)cc(F)c1)N=c1cc(CCC(=O)c2nccs2)cc[n-]1 (protonated)
O=C(Cc1cc(F)cc(F)c1)/N=c1/cc(CCC(=O)c2nccs2)cc[n-]1 (cis-trans isomerization)
O=C(Cc1cc(F)cc(F)c1)/N=c1/cc(CCC(=O)c2nccs2)cc[n-]1 (3D coordinates assigned)
O=C(Cc1cc(F)cc(F)c1)/N=c1/cc(CCC(=O)c2nccs2)cc[n-]1 (optimized conformer: 65.94249151052269 kcal/mol)

>  <smiles>  (66) 
O=C(Cc1cc(F)cc(F)c1)N=c1cc(CCC(=O)c2nccs2)cc[nH]1

>  <score_type>  (66) 
oracle

>  <origin>  (66) 
adg

>  <m_score__min__energy>  (66) 
-10.08

>  <m_primary>  (66) 
energy

$$$$
66:0
     RDKit          3D

 43 46  0  0  0  0  0  0  0  0999 V2000
   60.3800   27.9490   49.1330 C   0  0  0  0  0  0  0  0  0  0  0  0
   60.3280   29.3300   48.7930 O   0  0  0  0  0  0  0  0  0  0  0  0
   59.5760   29.8610   47.7320 C   0  0  0  0  0  0  0  0  0  0  0  0
   58.6560   29.0900   47.0050 C   0  0  0  0  0  0  0  0  0  0  0  0
   57.9070   29.6490   45.9590 C   0  0  0  0  0  0  0  0  0  0  0  0
   56.7710   28.6010   45.0870 S   0  0  0  0  0  0  0  0  0  0  0  0
   57.3860   28.1880   43.7800 O   0  0  0  0  0  0  0  0  0  0  0  0
   55.4880   29.3360   44.8210 O   0  0  0  0  0  0  0  0  0  0  0  0
   56.4300   27.2050   46.0590 N   0  0  0  0  0  0  0  0  0  0  0  0
   56.2530   25.8760   45.5530 C   0  0  0  0  0  0  0  0  0  0  0  0
   54.9660   25.2940   45.6220 C   0  0  0  0  0  0  0  0  0  0  0  0
   54.7390   23.9910   45.1430 C   0  0  0  0  0  0  0  0  0  0  0  0
   55.8180   23.3040   44.5960 C   0  0  0  0  0  0  0  0  0  0  0  0
   57.0560   23.8570   44.5170 C   0  0  0  0  0  0  0  0  0  0  0  0
   57.3230   25.1400   44.9850 C   0  0  0  0  0  0  0  0  0  0  0  0
   57.9240   22.9610   43.9260 O   0  0  0  0  0  0  0  0  0  0  0  0
   57.1810   21.7750   43.6070 C   0  0  0  0  0  0  0  0  0  0  0  0
   57.7140   20.6840   44.2630 F   0  0  0  0  0  0  0  0  0  0  0  0
   57.1840   21.5630   42.2410 F   0  0  0  0  0  0  0  0  0  0  0  0
   55.8450   22.0300   44.0640 O   0  0  0  0  0  0  0  0  0  0  0  0
   58.0800   31.0210   45.6340 C   0  0  0  0  0  0  0  0  0  0  0  0
   57.3400   31.6420   44.6050 C   0  0  0  0  0  0  0  0  0  0  0  0
   57.5360   32.9870   44.3000 C   0  0  0  0  0  0  0  0  0  0  0  0
   58.4660   33.7450   45.0080 C   0  0  0  0  0  0  0  0  0  0  0  0
   59.2180   33.1640   46.0460 C   0  0  0  0  0  0  0  0  0  0  0  0
   60.1620   33.9100   46.7730 O   0  0  0  0  0  0  0  0  0  0  0  0
   59.8960   34.5900   47.9970 C   0  0  0  0  0  0  0  0  0  0  0  0
   59.0210   31.8010   46.3640 C   0  0  0  0  0  0  0  0  0  0  0  0
   59.7550   31.2040   47.4050 C   0  0  0  0  0  0  0  0  0  0  0  0
   60.3841   27.8408   50.2277 H   0  0  0  0  0  0  0  0  0  0  0  0
   59.5006   27.4356   48.7171 H   0  0  0  0  0  0  0  0  0  0  0  0
   61.2956   27.5032   48.7171 H   0  0  0  0  0  0  0  0  0  0  0  0
   58.5198   28.0286   47.2599 H   0  0  0  0  0  0  0  0  0  0  0  0
   54.1328   25.8668   46.0552 H   0  0  0  0  0  0  0  0  0  0  0  0
   53.7416   23.5306   45.1991 H   0  0  0  0  0  0  0  0  0  0  0  0
   58.3332   25.5698   44.9163 H   0  0  0  0  0  0  0  0  0  0  0  0
   56.6006   31.0576   44.0378 H   0  0  0  0  0  0  0  0  0  0  0  0
   56.9517   33.4543   43.4936 H   0  0  0  0  0  0  0  0  0  0  0  0
   58.6136   34.8050   44.7539 H   0  0  0  0  0  0  0  0  0  0  0  0
   60.1520   33.9355   48.8432 H   0  0  0  0  0  0  0  0  0  0  0  0
   60.5018   35.5069   48.0462 H   0  0  0  0  0  0  0  0  0  0  0  0
   58.8289   34.8525   48.0462 H   0  0  0  0  0  0  0  0  0  0  0  0
   60.4816   31.8065   47.9698 H   0  0  0  0  0  0  0  0  0  0  0  0
  1  2  1  0
  2  3  1  0
  3  4  2  0
  4  5  1  0
  5  6  1  0
  6  7  2  0
  6  8  2  0
  6  9  1  0
  9 10  1  0
 10 11  2  0
 11 12  1  0
 12 13  2  0
 13 14  1  0
 14 15  2  0
 14 16  1  0
 16 17  1  0
 17 18  1  0
 17 19  1  0
 17 20  1  0
  5 21  2  0
 21 22  1  0
 22 23  2  0
 23 24  1  0
 24 25  2  0
 25 26  1  0
 26 27  1  0
 25 28  1  0
 28 29  2  0
 29  3  1  0
 15 10  1  0
 28 21  1  0
 20 13  1  0
  1 30  1  0
  1 31  1  0
  1 32  1  0
  4 33  1  0
 11 34  1  0
 12 35  1  0
 15 36  1  0
 22 37  1  0
 23 38  1  0
 24 39  1  0
 27 40  1  0
 27 41  1  0
 27 42  1  0
 29 43  1  0
M  CHG  1   9  -1
M  END
>  <UniqueID>  (67) 
63

>  <SMILES>  (67) 
COc1cc(S(=O)(=O)[N-]c2ccc3c(c2)OC(F)(F)O3)c2cccc(OC)c2c1

>  <Energy>  (67) 
84.9354104716445

>  <Genealogy>  (67) 
COc1cc(S(=O)(=O)[N-]c2ccc3c(c2)OC(F)(F)O3)c2cccc(OC)c2c1 (protonated)
COc1cc(S(=O)(=O)[N-]c2ccc3c(c2)OC(F)(F)O3)c2cccc(OC)c2c1 (3D coordinates assigned)
COc1cc(S(=O)(=O)[N-]c2ccc3c(c2)OC(F)(F)O3)c2cccc(OC)c2c1 (nonaromatic ring conformer: 84.9354104716445 kcal/mol)

>  <smiles>  (67) 
COc1cc(S(=O)(=O)Nc2ccc3c(c2)OC(F)(F)O3)c2cccc(OC)c2c1

>  <score_type>  (67) 
oracle

>  <origin>  (67) 
adg

>  <m_score__min__energy>  (67) 
-9.1999999999999993

>  <m_primary>  (67) 
energy

$$$$
67:0
     RDKit          3D

 46 47  0  0  0  0  0  0  0  0999 V2000
   55.0290   22.8000   48.1220 C   0  0  0  0  0  0  0  0  0  0  0  0
   54.4890   22.4670   46.7320 C   0  0  0  0  0  0  0  0  0  0  0  0
   53.9760   23.7080   45.9800 C   0  0  0  0  0  0  0  0  0  0  0  0
   54.8050   24.0770   44.7360 C   0  0  0  0  0  0  0  0  0  0  0  0
   56.2260   23.5630   44.8190 C   0  0  0  0  0  0  0  0  0  0  0  0
   56.6300   22.5350   43.9500 C   0  0  0  0  0  0  0  0  0  0  0  0
   57.9440   22.0630   43.9710 C   0  0  0  0  0  0  0  0  0  0  0  0
   58.8670   22.6050   44.8630 C   0  0  0  0  0  0  0  0  0  0  0  0
   58.4830   23.6310   45.7280 C   0  0  0  0  0  0  0  0  0  0  0  0
   57.1700   24.1290   45.7070 C   0  0  0  0  0  0  0  0  0  0  0  0
   56.7770   25.1620   46.6220 N   0  0  0  0  0  0  0  0  0  0  0  0
   56.3620   26.4850   46.2540 C   0  0  0  0  0  0  0  0  0  0  0  0
   55.1460   26.6940   46.0020 O   0  0  0  0  0  0  0  0  0  0  0  0
   57.3560   27.5940   46.0520 C   0  0  0  0  0  0  0  0  0  0  0  0
   57.5090   27.9510   44.5710 C   0  0  0  0  0  0  0  0  0  0  0  0
   56.5620   29.4120   44.1720 S   0  0  0  0  0  0  0  0  0  0  0  0
   56.3310   29.4820   42.6890 O   0  0  0  0  0  0  0  0  0  0  0  0
   55.2280   29.3460   44.8640 O   0  0  0  0  0  0  0  0  0  0  0  0
   57.4370   30.8420   44.7150 C   0  0  0  0  0  0  0  0  0  0  0  0
   57.4050   32.0150   43.9490 C   0  0  0  0  0  0  0  0  0  0  0  0
   58.0570   33.1680   44.4000 C   0  0  0  0  0  0  0  0  0  0  0  0
   58.7290   33.1570   45.6270 C   0  0  0  0  0  0  0  0  0  0  0  0
   59.5840   34.7420   46.2620 Br  0  0  0  0  0  0  0  0  0  0  0  0
   58.7590   31.9900   46.3960 C   0  0  0  0  0  0  0  0  0  0  0  0
   58.1180   30.8340   45.9410 C   0  0  0  0  0  0  0  0  0  0  0  0
   54.3555   22.3847   48.8862 H   0  0  0  0  0  0  0  0  0  0  0  0
   56.0315   22.3630   48.2403 H   0  0  0  0  0  0  0  0  0  0  0  0
   55.0887   23.8920   48.2403 H   0  0  0  0  0  0  0  0  0  0  0  0
   55.2955   22.0068   46.1423 H   0  0  0  0  0  0  0  0  0  0  0  0
   53.6379   21.7824   46.8619 H   0  0  0  0  0  0  0  0  0  0  0  0
   52.9412   23.5151   45.6607 H   0  0  0  0  0  0  0  0  0  0  0  0
   54.0549   24.5558   46.6764 H   0  0  0  0  0  0  0  0  0  0  0  0
   54.3229   23.6421   43.8480 H   0  0  0  0  0  0  0  0  0  0  0  0
   54.8474   25.1744   44.6735 H   0  0  0  0  0  0  0  0  0  0  0  0
   55.9049   22.0985   43.2473 H   0  0  0  0  0  0  0  0  0  0  0  0
   58.2509   21.2621   43.2823 H   0  0  0  0  0  0  0  0  0  0  0  0
   59.8987   22.2242   44.8856 H   0  0  0  0  0  0  0  0  0  0  0  0
   59.2151   24.0531   46.4322 H   0  0  0  0  0  0  0  0  0  0  0  0
   57.0140   28.4842   46.6003 H   0  0  0  0  0  0  0  0  0  0  0  0
   58.3325   27.2531   46.4264 H   0  0  0  0  0  0  0  0  0  0  0  0
   58.5707   28.1382   44.3526 H   0  0  0  0  0  0  0  0  0  0  0  0
   57.1366   27.1120   43.9649 H   0  0  0  0  0  0  0  0  0  0  0  0
   56.8657   32.0294   42.9904 H   0  0  0  0  0  0  0  0  0  0  0  0
   58.0412   34.0831   43.7898 H   0  0  0  0  0  0  0  0  0  0  0  0
   59.2878   31.9813   47.3605 H   0  0  0  0  0  0  0  0  0  0  0  0
   58.1478   29.9158   46.5461 H   0  0  0  0  0  0  0  0  0  0  0  0
  1  2  1  0
  2  3  1  0
  3  4  1  0
  4  5  1  0
  5  6  2  0
  6  7  1  0
  7  8  2  0
  8  9  1  0
  9 10  2  0
 10 11  1  0
 11 12  1  0
 12 13  2  0
 12 14  1  0
 14 15  1  0
 15 16  1  0
 16 17  2  0
 16 18  2  0
 16 19  1  0
 19 20  2  0
 20 21  1  0
 21 22  2  0
 22 23  1  0
 22 24  1  0
 24 25  2  0
 10  5  1  0
 25 19  1  0
  1 26  1  0
  1 27  1  0
  1 28  1  0
  2 29  1  0
  2 30  1  0
  3 31  1  0
  3 32  1  0
  4 33  1  0
  4 34  1  0
  6 35  1  0
  7 36  1  0
  8 37  1  0
  9 38  1  0
 14 39  1  0
 14 40  1  0
 15 41  1  0
 15 42  1  0
 20 43  1  0
 21 44  1  0
 24 45  1  0
 25 46  1  0
M  CHG  1  11  -1
M  END
>  <UniqueID>  (68) 
64

>  <SMILES>  (68) 
CCCCc1ccccc1[N-]C(=O)CCS(=O)(=O)c1ccc(Br)cc1

>  <Energy>  (68) 
35.564367882836635

>  <Genealogy>  (68) 
CCCCc1ccccc1[N-]C(=O)CCS(=O)(=O)c1ccc(Br)cc1 (protonated)
CCCCc1ccccc1[N-]C(=O)CCS(=O)(=O)c1ccc(Br)cc1 (3D coordinates assigned)
CCCCc1ccccc1[N-]C(=O)CCS(=O)(=O)c1ccc(Br)cc1 (optimized conformer: 35.564367882836635 kcal/mol)

>  <smiles>  (68) 
CCCCc1ccccc1NC(=O)CCS(=O)(=O)c1ccc(Br)cc1

>  <score_type>  (68) 
oracle

>  <origin>  (68) 
adg

>  <m_score__min__energy>  (68) 
-10.4

>  <m_primary>  (68) 
energy

$$$$
68:0
     RDKit          3D

 54 57  0  0  0  0  0  0  0  0999 V2000
   63.0730   34.1930   50.4250 O   0  0  0  0  0  0  0  0  0  0  0  0
   62.7750   33.0750   49.9270 C   0  0  0  0  0  0  0  0  0  0  0  0
   63.8240   32.3220   49.1590 C   0  0  0  0  0  0  0  0  0  0  0  0
   63.4620   32.2020   47.7830 O   0  0  0  0  0  0  0  0  0  0  0  0
   62.2140   32.5430   47.2380 C   0  0  0  0  0  0  0  0  0  0  0  0
   61.9370   33.8220   46.7170 C   0  0  0  0  0  0  0  0  0  0  0  0
   60.6630   34.1220   46.2270 C   0  0  0  0  0  0  0  0  0  0  0  0
   59.6520   33.1510   46.2470 C   0  0  0  0  0  0  0  0  0  0  0  0
   58.0450   33.5350   45.6430 S   0  0  0  0  0  0  0  0  0  0  0  0
   58.0460   34.9040   45.0210 O   0  0  0  0  0  0  0  0  0  0  0  0
   57.0610   33.5410   46.7800 O   0  0  0  0  0  0  0  0  0  0  0  0
   57.5690   32.3350   44.4490 C   0  0  0  0  0  0  0  0  0  0  0  0
   57.7620   32.5810   43.0820 C   0  0  0  0  0  0  0  0  0  0  0  0
   57.3880   31.6230   42.1370 C   0  0  0  0  0  0  0  0  0  0  0  0
   56.8240   30.4130   42.5510 C   0  0  0  0  0  0  0  0  0  0  0  0
   56.6390   30.1580   43.9130 C   0  0  0  0  0  0  0  0  0  0  0  0
   57.0150   31.1160   44.8610 C   0  0  0  0  0  0  0  0  0  0  0  0
   59.9350   31.8680   46.7320 C   0  0  0  0  0  0  0  0  0  0  0  0
   61.2080   31.5690   47.2240 C   0  0  0  0  0  0  0  0  0  0  0  0
   61.4410   32.5580   50.0770 N   0  0  0  0  0  0  0  0  0  0  0  0
   61.2220   31.1140   50.2480 C   0  0  0  0  0  0  0  0  0  0  0  0
   59.7310   30.7680   50.2840 C   0  0  0  0  0  0  0  0  0  0  0  0
   59.0150   31.6810   51.1900 N   0  0  0  0  0  0  0  0  0  0  0  0
   57.9940   31.1690   52.0870 C   0  0  0  0  0  0  0  0  0  0  0  0
   58.0050   31.4600   53.4680 C   0  0  0  0  0  0  0  0  0  0  0  0
   56.9920   30.9620   54.2890 C   0  0  0  0  0  0  0  0  0  0  0  0
   55.9820   30.1700   53.7460 C   0  0  0  0  0  0  0  0  0  0  0  0
   56.0000   29.8850   52.3820 C   0  0  0  0  0  0  0  0  0  0  0  0
   56.9870   30.3880   51.5960 N   0  0  0  0  0  0  0  0  0  0  0  0
   59.2750   33.1300   51.0990 C   0  0  0  0  0  0  0  0  0  0  0  0
   60.2930   33.4680   50.0030 C   0  0  0  0  0  0  0  0  0  0  0  0
   64.7805   32.8600   49.2339 H   0  0  0  0  0  0  0  0  0  0  0  0
   63.9155   31.3128   49.5870 H   0  0  0  0  0  0  0  0  0  0  0  0
   62.7265   34.5877   46.6957 H   0  0  0  0  0  0  0  0  0  0  0  0
   60.4527   35.1237   45.8241 H   0  0  0  0  0  0  0  0  0  0  0  0
   58.2090   33.5308   42.7532 H   0  0  0  0  0  0  0  0  0  0  0  0
   57.5375   31.8210   41.0654 H   0  0  0  0  0  0  0  0  0  0  0  0
   56.5257   29.6615   41.8052 H   0  0  0  0  0  0  0  0  0  0  0  0
   56.1980   29.2046   44.2393 H   0  0  0  0  0  0  0  0  0  0  0  0
   56.8752   30.9114   45.9327 H   0  0  0  0  0  0  0  0  0  0  0  0
   59.1534   31.0941   46.7256 H   0  0  0  0  0  0  0  0  0  0  0  0
   61.4220   30.5591   47.6039 H   0  0  0  0  0  0  0  0  0  0  0  0
   61.6917   30.5803   49.4086 H   0  0  0  0  0  0  0  0  0  0  0  0
   61.6678   30.8106   51.2068 H   0  0  0  0  0  0  0  0  0  0  0  0
   59.3127   30.8606   49.2709 H   0  0  0  0  0  0  0  0  0  0  0  0
   59.6122   29.7370   50.6487 H   0  0  0  0  0  0  0  0  0  0  0  0
   58.8090   32.0770   53.8957 H   0  0  0  0  0  0  0  0  0  0  0  0
   56.9909   31.1946   55.3641 H   0  0  0  0  0  0  0  0  0  0  0  0
   55.1800   29.7745   54.3866 H   0  0  0  0  0  0  0  0  0  0  0  0
   55.2149   29.2527   51.9419 H   0  0  0  0  0  0  0  0  0  0  0  0
   58.3296   33.6462   50.8758 H   0  0  0  0  0  0  0  0  0  0  0  0
   59.6933   33.4592   52.0616 H   0  0  0  0  0  0  0  0  0  0  0  0
   59.8130   33.3675   49.0183 H   0  0  0  0  0  0  0  0  0  0  0  0
   60.6446   34.5003   50.1470 H   0  0  0  0  0  0  0  0  0  0  0  0
  1  2  2  0
  2  3  1  0
  3  4  1  0
  4  5  1  0
  5  6  2  0
  6  7  1  0
  7  8  2  0
  8  9  1  0
  9 10  2  0
  9 11  2  0
  9 12  1  0
 12 13  2  0
 13 14  1  0
 14 15  2  0
 15 16  1  0
 16 17  2  0
  8 18  1  0
 18 19  2  0
  2 20  1  0
 20 21  1  0
 21 22  1  0
 22 23  1  0
 23 24  1  0
 24 25  2  0
 25 26  1  0
 26 27  2  0
 27 28  1  0
 28 29  2  0
 23 30  1  0
 30 31  1  0
 19  5  1  0
 31 20  1  0
 17 12  1  0
 29 24  1  0
  3 32  1  0
  3 33  1  0
  6 34  1  0
  7 35  1  0
 13 36  1  0
 14 37  1  0
 15 38  1  0
 16 39  1  0
 17 40  1  0
 18 41  1  0
 19 42  1  0
 21 43  1  0
 21 44  1  0
 22 45  1  0
 22 46  1  0
 25 47  1  0
 26 48  1  0
 27 49  1  0
 28 50  1  0
 30 51  1  0
 30 52  1  0
 31 53  1  0
 31 54  1  0
M  END
>  <UniqueID>  (69) 
65

>  <SMILES>  (69) 
O=C(COc1ccc(S(=O)(=O)c2ccccc2)cc1)N1CCN(c2ccccn2)CC1

>  <Energy>  (69) 
63.913464678421654

>  <Genealogy>  (69) 
O=C(COc1ccc(S(=O)(=O)c2ccccc2)cc1)N1CCN(c2ccccn2)CC1 (3D coordinates assigned)
O=C(COc1ccc(S(=O)(=O)c2ccccc2)cc1)N1CCN(c2ccccn2)CC1 (nonaromatic ring conformer: 63.913464678421654 kcal/mol)

>  <smiles>  (69) 
O=C(COc1ccc(S(=O)(=O)c2ccccc2)cc1)N1CCN(c2ccccn2)CC1

>  <score_type>  (69) 
oracle

>  <origin>  (69) 
adg

>  <m_score__min__energy>  (69) 
-9.1500000000000004

>  <m_primary>  (69) 
energy

$$$$
69:0
     RDKit          3D

 31 33  0  0  0  0  0  0  0  0999 V2000
   56.1690   24.7280   46.7080 O   0  0  0  0  0  0  0  0  0  0  0  0
   55.9850   25.7470   45.9910 C   0  0  0  0  0  0  0  0  0  0  0  0
   54.7300   26.3400   45.9450 O   0  0  0  0  0  0  0  0  0  0  0  0
   57.1250   26.3490   45.2330 C   0  0  0  0  0  0  0  0  0  0  0  0
   57.6350   27.5690   45.9510 C   0  0  0  0  0  0  0  0  0  0  0  0
   58.4320   27.4330   47.0910 C   0  0  0  0  0  0  0  0  0  0  0  0
   58.8750   28.5630   47.7760 C   0  0  0  0  0  0  0  0  0  0  0  0
   58.5210   29.8490   47.3530 C   0  0  0  0  0  0  0  0  0  0  0  0
   57.7370   30.0070   46.1740 C   0  0  0  0  0  0  0  0  0  0  0  0
   57.2850   28.8510   45.5050 C   0  0  0  0  0  0  0  0  0  0  0  0
   57.4150   31.3260   45.5630 C   0  0  0  0  0  0  0  0  0  0  0  0
   56.3690   31.4420   44.8670 O   0  0  0  0  0  0  0  0  0  0  0  0
   58.3300   32.4840   45.6460 C   0  0  0  0  0  0  0  0  0  0  0  0
   58.6690   33.1660   44.4650 C   0  0  0  0  0  0  0  0  0  0  0  0
   59.5450   34.2490   44.4990 C   0  0  0  0  0  0  0  0  0  0  0  0
   60.0910   34.6670   45.7110 C   0  0  0  0  0  0  0  0  0  0  0  0
   59.7520   34.0170   46.9030 C   0  0  0  0  0  0  0  0  0  0  0  0
   60.4900   34.6020   48.3910 Cl  0  0  0  0  0  0  0  0  0  0  0  0
   58.8490   32.9270   46.8790 C   0  0  0  0  0  0  0  0  0  0  0  0
   58.4110   32.2250   48.1330 C   0  0  0  0  0  0  0  0  0  0  0  0
   58.9510   30.9130   48.1580 O   0  0  0  0  0  0  0  0  0  0  0  0
   57.9361   25.6108   45.1483 H   0  0  0  0  0  0  0  0  0  0  0  0
   56.7779   26.6395   44.2304 H   0  0  0  0  0  0  0  0  0  0  0  0
   58.7106   26.4308   47.4488 H   0  0  0  0  0  0  0  0  0  0  0  0
   59.5133   28.4420   48.6636 H   0  0  0  0  0  0  0  0  0  0  0  0
   56.6456   28.9572   44.6162 H   0  0  0  0  0  0  0  0  0  0  0  0
   58.2392   32.8421   43.5056 H   0  0  0  0  0  0  0  0  0  0  0  0
   59.8057   34.7744   43.5684 H   0  0  0  0  0  0  0  0  0  0  0  0
   60.7931   35.5135   45.7309 H   0  0  0  0  0  0  0  0  0  0  0  0
   58.7687   32.7848   49.0098 H   0  0  0  0  0  0  0  0  0  0  0  0
   57.3127   32.1682   48.1550 H   0  0  0  0  0  0  0  0  0  0  0  0
  1  2  2  0
  2  3  1  0
  2  4  1  0
  4  5  1  0
  5  6  2  0
  6  7  1  0
  7  8  2  0
  8  9  1  0
  9 10  2  0
  9 11  1  0
 11 12  2  0
 11 13  1  0
 13 14  2  0
 14 15  1  0
 15 16  2  0
 16 17  1  0
 17 18  1  0
 17 19  2  0
 19 20  1  0
 20 21  1  0
 10  5  1  0
 19 13  1  0
 21  8  1  0
  4 22  1  0
  4 23  1  0
  6 24  1  0
  7 25  1  0
 10 26  1  0
 14 27  1  0
 15 28  1  0
 16 29  1  0
 20 30  1  0
 20 31  1  0
M  CHG  1   3  -1
M  END
>  <UniqueID>  (70) 
66

>  <SMILES>  (70) 
O=C([O-])Cc1ccc2c(c1)C(=O)c1cccc(Cl)c1CO2

>  <Energy>  (70) 
48.546747956354515

>  <Genealogy>  (70) 
O=C([O-])Cc1ccc2c(c1)C(=O)c1cccc(Cl)c1CO2 (protonated)
O=C([O-])Cc1ccc2c(c1)C(=O)c1cccc(Cl)c1CO2 (3D coordinates assigned)
O=C([O-])Cc1ccc2c(c1)C(=O)c1cccc(Cl)c1CO2 (nonaromatic ring conformer: 48.546747956354515 kcal/mol)

>  <smiles>  (70) 
O=C(O)Cc1ccc2c(c1)C(=O)c1cccc(Cl)c1CO2

>  <score_type>  (70) 
oracle

>  <origin>  (70) 
adg

>  <m_score__min__energy>  (70) 
-10.449999999999999

>  <m_primary>  (70) 
energy

$$$$
70:0
     RDKit          3D

 52 55  0  0  0  0  0  0  0  0999 V2000
   57.9760   20.8850   42.5980 O   0  0  0  0  0  0  0  0  0  0  0  0
   57.1970   21.4390   43.4220 C   0  0  0  0  0  0  0  0  0  0  0  0
   55.8950   20.8880   43.6490 N   0  0  0  0  0  0  0  0  0  0  0  0
   55.5330   20.1330   44.8450 C   0  0  0  0  0  0  0  0  0  0  0  0
   55.9560   20.8840   46.0780 C   0  0  0  0  0  0  0  0  0  0  0  0
   55.3880   22.1250   46.4000 C   0  0  0  0  0  0  0  0  0  0  0  0
   55.8300   22.8060   47.5320 C   0  0  0  0  0  0  0  0  0  0  0  0
   56.8020   22.2570   48.3060 N   0  0  0  0  0  0  0  0  0  0  0  0
   57.3510   21.0770   48.0040 N   0  0  0  0  0  0  0  0  0  0  0  0
   56.9590   20.3720   46.9090 C   0  0  0  0  0  0  0  0  0  0  0  0
   57.6380   22.6450   44.1610 C   0  0  0  0  0  0  0  0  0  0  0  0
   57.0650   23.8990   43.8850 C   0  0  0  0  0  0  0  0  0  0  0  0
   57.4810   25.0380   44.5790 C   0  0  0  0  0  0  0  0  0  0  0  0
   58.4760   24.9440   45.5630 C   0  0  0  0  0  0  0  0  0  0  0  0
   58.8900   26.1620   46.3460 C   0  0  0  0  0  0  0  0  0  0  0  0
   58.3570   27.3820   45.7140 N   0  0  0  0  0  0  0  0  0  0  0  0
   59.2320   28.2620   45.1390 C   0  0  0  0  0  0  0  0  0  0  0  0
   58.7790   29.4450   44.5570 C   0  0  0  0  0  0  0  0  0  0  0  0
   57.4120   29.7580   44.5670 C   0  0  0  0  0  0  0  0  0  0  0  0
   56.9400   31.0300   43.9590 C   0  0  0  0  0  0  0  0  0  0  0  0
   56.7780   31.1040   42.7110 O   0  0  0  0  0  0  0  0  0  0  0  0
   56.6310   32.1290   44.7740 O   0  0  0  0  0  0  0  0  0  0  0  0
   57.5630   32.9930   45.3670 C   0  0  0  0  0  0  0  0  0  0  0  0
   58.3250   33.8230   44.5350 C   0  0  0  0  0  0  0  0  0  0  0  0
   59.2500   34.7180   45.0830 C   0  0  0  0  0  0  0  0  0  0  0  0
   59.4160   34.7920   46.4670 C   0  0  0  0  0  0  0  0  0  0  0  0
   58.6490   33.9800   47.3070 C   0  0  0  0  0  0  0  0  0  0  0  0
   57.7230   33.0860   46.7630 C   0  0  0  0  0  0  0  0  0  0  0  0
   56.5220   28.8470   45.1710 C   0  0  0  0  0  0  0  0  0  0  0  0
   55.1530   29.0980   45.2080 O   0  0  0  0  0  0  0  0  0  0  0  0
   57.0140   27.6630   45.7410 C   0  0  0  0  0  0  0  0  0  0  0  0
   56.2020   26.8590   46.2770 O   0  0  0  0  0  0  0  0  0  0  0  0
   59.0430   23.6940   45.8500 C   0  0  0  0  0  0  0  0  0  0  0  0
   58.6320   22.5540   45.1520 C   0  0  0  0  0  0  0  0  0  0  0  0
   54.4433   19.9843   44.8655 H   0  0  0  0  0  0  0  0  0  0  0  0
   56.0433   19.1587   44.8240 H   0  0  0  0  0  0  0  0  0  0  0  0
   54.6007   22.5567   45.7646 H   0  0  0  0  0  0  0  0  0  0  0  0
   55.3952   23.7810   47.7971 H   0  0  0  0  0  0  0  0  0  0  0  0
   57.4279   19.4042   46.6777 H   0  0  0  0  0  0  0  0  0  0  0  0
   56.2827   23.9840   43.1163 H   0  0  0  0  0  0  0  0  0  0  0  0
   57.0258   26.0135   44.3525 H   0  0  0  0  0  0  0  0  0  0  0  0
   58.4994   26.0842   47.3714 H   0  0  0  0  0  0  0  0  0  0  0  0
   59.9884   26.2192   46.3644 H   0  0  0  0  0  0  0  0  0  0  0  0
   60.3079   28.0332   45.1357 H   0  0  0  0  0  0  0  0  0  0  0  0
   59.4961   30.1351   44.0884 H   0  0  0  0  0  0  0  0  0  0  0  0
   58.1953   33.7708   43.4439 H   0  0  0  0  0  0  0  0  0  0  0  0
   59.8471   35.3641   44.4226 H   0  0  0  0  0  0  0  0  0  0  0  0
   60.1504   35.4893   46.8964 H   0  0  0  0  0  0  0  0  0  0  0  0
   58.7744   34.0447   48.3979 H   0  0  0  0  0  0  0  0  0  0  0  0
   57.1169   32.4527   47.4275 H   0  0  0  0  0  0  0  0  0  0  0  0
   59.8155   23.6097   46.6286 H   0  0  0  0  0  0  0  0  0  0  0  0
   59.0891   21.5797   45.3795 H   0  0  0  0  0  0  0  0  0  0  0  0
  1  2  2  0
  2  3  1  0
  3  4  1  0
  4  5  1  0
  5  6  2  0
  6  7  1  0
  7  8  2  0
  8  9  1  0
  9 10  2  0
  2 11  1  0
 11 12  2  0
 12 13  1  0
 13 14  2  0
 14 15  1  0
 15 16  1  0
 16 17  1  0
 17 18  2  0
 18 19  1  0
 19 20  1  0
 20 21  2  0
 20 22  1  0
 22 23  1  0
 23 24  2  0
 24 25  1  0
 25 26  2  0
 26 27  1  0
 27 28  2  0
 19 29  2  0
 29 30  1  0
 29 31  1  0
 31 32  2  0
 14 33  1  0
 33 34  2  0
 10  5  1  0
 34 11  1  0
 31 16  1  0
 28 23  1  0
  4 35  1  0
  4 36  1  0
  6 37  1  0
  7 38  1  0
 10 39  1  0
 12 40  1  0
 13 41  1  0
 15 42  1  0
 15 43  1  0
 17 44  1  0
 18 45  1  0
 24 46  1  0
 25 47  1  0
 26 48  1  0
 27 49  1  0
 28 50  1  0
 33 51  1  0
 34 52  1  0
M  CHG  2   3  -1  30  -1
M  END
>  <UniqueID>  (71) 
67

>  <SMILES>  (71) 
O=C([N-]Cc1ccnnc1)c1ccc(Cn2ccc(C(=O)Oc3ccccc3)c([O-])c2=O)cc1

>  <Energy>  (71) 
66.00988765843675

>  <Genealogy>  (71) 
O=C([N-]Cc1ccnnc1)c1ccc(Cn2ccc(C(=O)Oc3ccccc3)c([O-])c2=O)cc1 (protonated)
O=C([N-]Cc1ccnnc1)c1ccc(Cn2ccc(C(=O)Oc3ccccc3)c([O-])c2=O)cc1 (3D coordinates assigned)
O=C([N-]Cc1ccnnc1)c1ccc(Cn2ccc(C(=O)Oc3ccccc3)c([O-])c2=O)cc1 (optimized conformer: 66.00988765843675 kcal/mol)

>  <smiles>  (71) 
O=C(NCc1ccnnc1)c1ccc(Cn2ccc(C(=O)Oc3ccccc3)c(O)c2=O)cc1

>  <score_type>  (71) 
oracle

>  <origin>  (71) 
adg

>  <m_score__min__energy>  (71) 
-14.76

>  <m_primary>  (71) 
energy

$$$$
71:0
     RDKit          3D

 35 37  0  0  0  0  0  0  0  0999 V2000
   57.6230   30.9360   43.2480 O   0  0  0  0  0  0  0  0  0  0  0  0
   57.0160   30.3230   44.4790 S   0  0  0  0  0  0  0  0  0  0  0  0
   55.5460   30.6270   44.5040 O   0  0  0  0  0  0  0  0  0  0  0  0
   57.7630   31.0160   45.8830 N   0  0  0  0  0  0  0  0  0  0  0  0
   58.2580   32.3590   45.9800 C   0  0  0  0  0  0  0  0  0  0  0  0
   58.2070   33.2530   44.8960 C   0  0  0  0  0  0  0  0  0  0  0  0
   58.7040   34.5490   45.0360 C   0  0  0  0  0  0  0  0  0  0  0  0
   59.2490   34.9450   46.2580 C   0  0  0  0  0  0  0  0  0  0  0  0
   59.2910   34.0730   47.2980 N   0  0  0  0  0  0  0  0  0  0  0  0
   58.8130   32.8030   47.1910 C   0  0  0  0  0  0  0  0  0  0  0  0
   58.9140   31.7390   48.5830 Cl  0  0  0  0  0  0  0  0  0  0  0  0
   57.2370   28.5760   44.4790 C   0  0  0  0  0  0  0  0  0  0  0  0
   57.8080   27.9440   43.3670 C   0  0  0  0  0  0  0  0  0  0  0  0
   57.9780   26.5570   43.3550 C   0  0  0  0  0  0  0  0  0  0  0  0
   57.5810   25.7800   44.4580 C   0  0  0  0  0  0  0  0  0  0  0  0
   57.7560   24.3050   44.4450 C   0  0  0  0  0  0  0  0  0  0  0  0
   58.7260   23.6920   45.2610 C   0  0  0  0  0  0  0  0  0  0  0  0
   58.8920   22.3040   45.2430 C   0  0  0  0  0  0  0  0  0  0  0  0
   58.0960   21.5130   44.4100 C   0  0  0  0  0  0  0  0  0  0  0  0
   57.1310   22.1090   43.5960 C   0  0  0  0  0  0  0  0  0  0  0  0
   56.9590   23.4960   43.6120 C   0  0  0  0  0  0  0  0  0  0  0  0
   57.0130   26.4230   45.5740 C   0  0  0  0  0  0  0  0  0  0  0  0
   56.8450   27.8110   45.5830 C   0  0  0  0  0  0  0  0  0  0  0  0
   57.7751   32.9304   43.9372 H   0  0  0  0  0  0  0  0  0  0  0  0
   58.6666   35.2522   44.1909 H   0  0  0  0  0  0  0  0  0  0  0  0
   59.6448   35.9642   46.3789 H   0  0  0  0  0  0  0  0  0  0  0  0
   58.1239   28.5420   42.4995 H   0  0  0  0  0  0  0  0  0  0  0  0
   58.4256   26.0694   42.4764 H   0  0  0  0  0  0  0  0  0  0  0  0
   59.3574   24.3093   45.9170 H   0  0  0  0  0  0  0  0  0  0  0  0
   59.6506   21.8335   45.8858 H   0  0  0  0  0  0  0  0  0  0  0  0
   58.2298   20.4213   44.3957 H   0  0  0  0  0  0  0  0  0  0  0  0
   56.5048   21.4858   42.9407 H   0  0  0  0  0  0  0  0  0  0  0  0
   56.1957   23.9590   42.9694 H   0  0  0  0  0  0  0  0  0  0  0  0
   56.6991   25.8293   46.4452 H   0  0  0  0  0  0  0  0  0  0  0  0
   56.4029   28.3036   46.4616 H   0  0  0  0  0  0  0  0  0  0  0  0
  1  2  2  0
  2  3  2  0
  2  4  1  0
  4  5  1  0
  5  6  2  0
  6  7  1  0
  7  8  2  0
  8  9  1  0
  9 10  2  0
 10 11  1  0
  2 12  1  0
 12 13  2  0
 13 14  1  0
 14 15  2  0
 15 16  1  0
 16 17  2  0
 17 18  1  0
 18 19  2  0
 19 20  1  0
 20 21  2  0
 15 22  1  0
 22 23  2  0
 10  5  1  0
 23 12  1  0
 21 16  1  0
  6 24  1  0
  7 25  1  0
  8 26  1  0
 13 27  1  0
 14 28  1  0
 17 29  1  0
 18 30  1  0
 19 31  1  0
 20 32  1  0
 21 33  1  0
 22 34  1  0
 23 35  1  0
M  CHG  1   4  -1
M  END
>  <UniqueID>  (72) 
68

>  <SMILES>  (72) 
O=S(=O)([N-]c1cccnc1Cl)c1ccc(-c2ccccc2)cc1

>  <Energy>  (72) 
47.349914128908495

>  <Genealogy>  (72) 
O=S(=O)([N-]c1cccnc1Cl)c1ccc(-c2ccccc2)cc1 (protonated)
O=S(=O)([N-]c1cccnc1Cl)c1ccc(-c2ccccc2)cc1 (3D coordinates assigned)
O=S(=O)([N-]c1cccnc1Cl)c1ccc(-c2ccccc2)cc1 (optimized conformer: 47.349914128908495 kcal/mol)

>  <smiles>  (72) 
O=S(=O)(Nc1cccnc1Cl)c1ccc(-c2ccccc2)cc1

>  <score_type>  (72) 
oracle

>  <origin>  (72) 
adg

>  <m_score__min__energy>  (72) 
-9.3699999999999992

>  <m_primary>  (72) 
energy

$$$$
72:0
     RDKit          3D

 48 51  0  0  0  0  0  0  0  0999 V2000
   63.1950   33.3980   47.1070 C   0  0  0  0  0  0  0  0  0  0  0  0
   62.6680   32.0380   47.1260 N   0  0  0  0  0  0  0  0  0  0  0  0
   61.3060   31.7650   47.4880 C   0  0  0  0  0  0  0  0  0  0  0  0
   60.5850   32.6980   47.9390 O   0  0  0  0  0  0  0  0  0  0  0  0
   60.7330   30.4040   47.3570 C   0  0  0  0  0  0  0  0  0  0  0  0
   60.7780   29.7390   46.1180 C   0  0  0  0  0  0  0  0  0  0  0  0
   60.2520   28.4500   45.9820 C   0  0  0  0  0  0  0  0  0  0  0  0
   59.7020   27.7950   47.0880 C   0  0  0  0  0  0  0  0  0  0  0  0
   59.1360   26.4860   46.9260 N   0  0  0  0  0  0  0  0  0  0  0  0
   57.9060   26.1610   46.6230 C   0  0  0  0  0  0  0  0  0  0  0  0
   57.5260   24.8720   46.8320 N   0  0  0  0  0  0  0  0  0  0  0  0
   56.2860   24.4220   46.5160 C   0  0  0  0  0  0  0  0  0  0  0  0
   55.9340   23.0830   46.7290 C   0  0  0  0  0  0  0  0  0  0  0  0
   54.6540   22.6370   46.3820 C   0  0  0  0  0  0  0  0  0  0  0  0
   53.7270   23.5240   45.8230 C   0  0  0  0  0  0  0  0  0  0  0  0
   54.0750   24.8630   45.6110 C   0  0  0  0  0  0  0  0  0  0  0  0
   55.3540   25.3120   45.9570 C   0  0  0  0  0  0  0  0  0  0  0  0
   55.7050   26.6080   45.7750 N   0  0  0  0  0  0  0  0  0  0  0  0
   56.9430   27.0740   46.1010 C   0  0  0  0  0  0  0  0  0  0  0  0
   57.2090   28.3400   45.9760 N   0  0  0  0  0  0  0  0  0  0  0  0
   56.6610   29.3220   44.6570 S   0  0  0  0  0  0  0  0  0  0  0  0
   55.1670   29.4620   44.7310 O   0  0  0  0  0  0  0  0  0  0  0  0
   57.0180   28.6620   43.3540 O   0  0  0  0  0  0  0  0  0  0  0  0
   57.3960   30.9150   44.7790 C   0  0  0  0  0  0  0  0  0  0  0  0
   57.7750   31.4380   46.0250 C   0  0  0  0  0  0  0  0  0  0  0  0
   58.3290   32.7190   46.1090 C   0  0  0  0  0  0  0  0  0  0  0  0
   58.5050   33.4840   44.9520 C   0  0  0  0  0  0  0  0  0  0  0  0
   58.1240   32.9690   43.7090 C   0  0  0  0  0  0  0  0  0  0  0  0
   57.5680   31.6880   43.6220 C   0  0  0  0  0  0  0  0  0  0  0  0
   59.6280   28.4600   48.3200 C   0  0  0  0  0  0  0  0  0  0  0  0
   60.1540   29.7480   48.4590 C   0  0  0  0  0  0  0  0  0  0  0  0
   63.3324   33.7525   48.1392 H   0  0  0  0  0  0  0  0  0  0  0  0
   64.1625   33.4090   46.5837 H   0  0  0  0  0  0  0  0  0  0  0  0
   62.4876   34.0581   46.5837 H   0  0  0  0  0  0  0  0  0  0  0  0
   63.3230   31.2550   46.9130 H   0  0  0  0  0  0  0  0  0  0  0  0
   61.2310   30.2373   45.2482 H   0  0  0  0  0  0  0  0  0  0  0  0
   60.2711   27.9503   45.0022 H   0  0  0  0  0  0  0  0  0  0  0  0
   56.6616   22.3843   47.1677 H   0  0  0  0  0  0  0  0  0  0  0  0
   54.3755   21.5860   46.5491 H   0  0  0  0  0  0  0  0  0  0  0  0
   52.7227   23.1681   45.5497 H   0  0  0  0  0  0  0  0  0  0  0  0
   53.3451   25.5601   45.1737 H   0  0  0  0  0  0  0  0  0  0  0  0
   57.6360   30.8391   46.9371 H   0  0  0  0  0  0  0  0  0  0  0  0
   58.6268   33.1255   47.0868 H   0  0  0  0  0  0  0  0  0  0  0  0
   58.9431   34.4907   45.0195 H   0  0  0  0  0  0  0  0  0  0  0  0
   58.2615   33.5714   42.7990 H   0  0  0  0  0  0  0  0  0  0  0  0
   57.2652   31.2865   42.6437 H   0  0  0  0  0  0  0  0  0  0  0  0
   59.1540   27.9663   49.1811 H   0  0  0  0  0  0  0  0  0  0  0  0
   60.1149   30.2517   49.4361 H   0  0  0  0  0  0  0  0  0  0  0  0
  1  2  1  0
  2  3  1  0
  3  4  2  0
  3  5  1  0
  5  6  2  0
  6  7  1  0
  7  8  2  0
  8  9  1  0
  9 10  2  3
 10 11  1  0
 11 12  1  0
 12 13  2  0
 13 14  1  0
 14 15  2  0
 15 16  1  0
 16 17  2  0
 17 18  1  0
 18 19  1  0
 19 20  2  3
 20 21  1  0
 21 22  2  0
 21 23  2  0
 21 24  1  0
 24 25  2  0
 25 26  1  0
 26 27  2  0
 27 28  1  0
 28 29  2  0
  8 30  1  0
 30 31  2  0
 31  5  1  0
 19 10  1  0
 29 24  1  0
 17 12  1  0
  1 32  1  0
  1 33  1  0
  1 34  1  0
  2 35  1  0
  6 36  1  0
  7 37  1  0
 13 38  1  0
 14 39  1  0
 15 40  1  0
 16 41  1  0
 25 42  1  0
 26 43  1  0
 27 44  1  0
 28 45  1  0
 29 46  1  0
 30 47  1  0
 31 48  1  0
M  CHG  2  11  -1  18  -1
M  END
>  <UniqueID>  (73) 
69

>  <SMILES>  (73) 
CNC(=O)c1ccc(N=c2[n-]c3ccccc3[n-]c2=NS(=O)(=O)c2ccccc2)cc1

>  <Energy>  (73) 
71.4730062188965

>  <Genealogy>  (73) 
CNC(=O)c1ccc(N=c2[n-]c3ccccc3[n-]c2=NS(=O)(=O)c2ccccc2)cc1 (protonated)
CNC(=O)c1ccc(N=c2[n-]c3ccccc3[n-]c2=NS(=O)(=O)c2ccccc2)cc1 (3D coordinates assigned)
CNC(=O)c1ccc(N=c2[n-]c3ccccc3[n-]c2=NS(=O)(=O)c2ccccc2)cc1 (optimized conformer: 71.4730062188965 kcal/mol)

>  <smiles>  (73) 
CNC(=O)c1ccc(N=c2[nH]c3ccccc3[nH]c2=NS(=O)(=O)c2ccccc2)cc1

>  <score_type>  (73) 
oracle

>  <origin>  (73) 
adg

>  <m_score__min__energy>  (73) 
-12

>  <m_primary>  (73) 
energy

$$$$
73:0
     RDKit          3D

 51 53  0  0  0  0  0  0  0  0999 V2000
   60.8230   31.9290   49.1140 H   0  0  0  0  0  0  0  0  0  0  0  0
   60.9100   32.8800   48.6890 N   0  0  0  0  0  0  0  0  0  0  0  0
   59.3060   33.4880   48.4790 S   0  0  0  0  0  0  0  0  0  0  0  0
   58.3710   32.7550   49.3990 O   0  0  0  0  0  0  0  0  0  0  0  0
   59.2710   34.9520   48.8200 O   0  0  0  0  0  0  0  0  0  0  0  0
   58.8120   33.2600   46.8060 C   0  0  0  0  0  0  0  0  0  0  0  0
   59.4280   33.9990   45.7880 C   0  0  0  0  0  0  0  0  0  0  0  0
   60.2259   34.7147   46.0352 H   0  0  0  0  0  0  0  0  0  0  0  0
   59.0310   33.8290   44.4590 C   0  0  0  0  0  0  0  0  0  0  0  0
   59.5108   34.4176   43.6632 H   0  0  0  0  0  0  0  0  0  0  0  0
   58.0260   32.9130   44.1390 C   0  0  0  0  0  0  0  0  0  0  0  0
   57.7062   32.7948   43.0932 H   0  0  0  0  0  0  0  0  0  0  0  0
   57.4240   32.1450   45.1420 C   0  0  0  0  0  0  0  0  0  0  0  0
   56.3770   31.2330   44.7810 N   0  0  0  0  0  0  0  0  0  0  0  0
   56.5030   29.8100   44.6660 C   0  0  0  0  0  0  0  0  0  0  0  0
   55.5220   29.0870   44.9820 O   0  0  0  0  0  0  0  0  0  0  0  0
   57.7120   29.2000   44.0710 C   0  0  0  0  0  0  0  0  0  0  0  0
   57.5708   28.5137   43.2230 H   0  0  0  0  0  0  0  0  0  0  0  0
   58.9680   29.4210   44.4880 C   0  0  0  0  0  0  0  0  0  0  0  0
   59.7523   29.4948   43.7202 H   0  0  0  0  0  0  0  0  0  0  0  0
   59.3790   29.5730   45.9000 C   0  0  0  0  0  0  0  0  0  0  0  0
   58.5340   29.1070   46.9130 C   0  0  0  0  0  0  0  0  0  0  0  0
   57.5610   28.6650   46.6524 H   0  0  0  0  0  0  0  0  0  0  0  0
   58.9170   29.1990   48.2520 C   0  0  0  0  0  0  0  0  0  0  0  0
   58.2362   28.8461   49.0406 H   0  0  0  0  0  0  0  0  0  0  0  0
   60.1700   29.7410   48.6000 C   0  0  0  0  0  0  0  0  0  0  0  0
   60.5960   29.8520   49.9340 O   0  0  0  0  0  0  0  0  0  0  0  0
   59.8070   29.5410   51.0830 C   0  0  0  0  0  0  0  0  0  0  0  0
   59.1138   28.7241   50.8338 H   0  0  0  0  0  0  0  0  0  0  0  0
   60.4787   29.2383   51.8998 H   0  0  0  0  0  0  0  0  0  0  0  0
   59.0150   30.7410   51.5300 C   0  0  0  0  0  0  0  0  0  0  0  0
   59.6680   31.9110   51.9540 C   0  0  0  0  0  0  0  0  0  0  0  0
   60.7671   31.9555   51.9555 H   0  0  0  0  0  0  0  0  0  0  0  0
   58.9250   33.0190   52.3740 C   0  0  0  0  0  0  0  0  0  0  0  0
   59.4404   33.9348   52.6992 H   0  0  0  0  0  0  0  0  0  0  0  0
   57.5280   32.9640   52.3810 C   0  0  0  0  0  0  0  0  0  0  0  0
   56.9451   33.8377   52.7079 H   0  0  0  0  0  0  0  0  0  0  0  0
   56.8720   31.8000   51.9730 C   0  0  0  0  0  0  0  0  0  0  0  0
   55.7729   31.7571   51.9820 H   0  0  0  0  0  0  0  0  0  0  0  0
   57.6110   30.6890   51.5530 C   0  0  0  0  0  0  0  0  0  0  0  0
   57.0913   29.7716   51.2397 H   0  0  0  0  0  0  0  0  0  0  0  0
   61.0350   30.1870   47.5890 C   0  0  0  0  0  0  0  0  0  0  0  0
   62.2810   30.7140   47.9630 O   0  0  0  0  0  0  0  0  0  0  0  0
   63.0550   31.6020   47.1620 C   0  0  0  0  0  0  0  0  0  0  0  0
   63.6374   32.2702   47.8134 H   0  0  0  0  0  0  0  0  0  0  0  0
   63.7397   31.0206   46.5270 H   0  0  0  0  0  0  0  0  0  0  0  0
   62.3856   32.2009   46.5270 H   0  0  0  0  0  0  0  0  0  0  0  0
   60.6410   30.0890   46.2410 C   0  0  0  0  0  0  0  0  0  0  0  0
   61.3272   30.4193   45.4473 H   0  0  0  0  0  0  0  0  0  0  0  0
   57.8080   32.3360   46.4820 C   0  0  0  0  0  0  0  0  0  0  0  0
   57.3183   31.7578   47.2794 H   0  0  0  0  0  0  0  0  0  0  0  0
  1  2  1  0
  2  3  1  0
  3  4  2  0
  3  5  2  0
  3  6  1  0
  6  7  2  0
  7  8  1  0
  7  9  1  0
  9 10  1  0
  9 11  2  0
 11 12  1  0
 11 13  1  0
 13 14  1  0
 14 15  1  0
 15 16  2  0
 15 17  1  0
 17 18  1  0
 17 19  2  0
 19 20  1  0
 19 21  1  0
 21 22  2  0
 22 23  1  0
 22 24  1  0
 24 25  1  0
 24 26  2  0
 26 27  1  0
 27 28  1  0
 28 29  1  0
 28 30  1  0
 28 31  1  0
 31 32  2  0
 32 33  1  0
 32 34  1  0
 34 35  1  0
 34 36  2  0
 36 37  1  0
 36 38  1  0
 38 39  1  0
 38 40  2  0
 40 41  1  0
 26 42  1  0
 42 43  1  0
 43 44  1  0
 44 45  1  0
 44 46  1  0
 44 47  1  0
 42 48  2  0
 48 49  1  0
 13 50  2  0
 50 51  1  0
 50  6  1  0
 48 21  1  0
 40 31  1  0
M  CHG  2   2  -1  14  -1
M  END
>  <UniqueID>  (74) 
70

>  <SMILES>  (74) 
COc1cc(/C=C\C(=O)[N-]c2cccc(S([NH-])(=O)=O)c2)ccc1OCc1ccccc1

>  <Energy>  (74) 
63.689536641025825

>  <Genealogy>  (74) 
COc1cc(C=CC(=O)[N-]c2cccc(S([NH-])(=O)=O)c2)ccc1OCc1ccccc1 (protonated)
COc1cc(/C=C\C(=O)[N-]c2cccc(S([NH-])(=O)=O)c2)ccc1OCc1ccccc1 (cis-trans isomerization)
COc1cc(/C=C\C(=O)[N-]c2cccc(S([NH-])(=O)=O)c2)ccc1OCc1ccccc1 (3D coordinates assigned)
COc1cc(/C=C\C(=O)[N-]c2cccc(S([NH-])(=O)=O)c2)ccc1OCc1ccccc1 (optimized conformer: 63.689536641025825 kcal/mol)

>  <smiles>  (74) 
COc1cc(C=CC(=O)Nc2cccc(S(N)(=O)=O)c2)ccc1OCc1ccccc1

>  <score_type>  (74) 
oracle

>  <origin>  (74) 
adg

>  <m_score__min__energy>  (74) 
-13.279999999999999

>  <m_primary>  (74) 
energy

$$$$
74:0
     RDKit          3D

 55 58  0  0  0  0  0  0  0  0999 V2000
   67.1760   31.0990   52.0800 C   0  0  0  0  0  0  0  0  0  0  0  0
   66.1470   32.0750   51.5890 C   0  0  0  0  0  0  0  0  0  0  0  0
   65.4880   32.9200   52.4830 C   0  0  0  0  0  0  0  0  0  0  0  0
   64.5260   33.7710   52.0400 N   0  0  0  0  0  0  0  0  0  0  0  0
   64.1530   33.8340   50.7260 C   0  0  0  0  0  0  0  0  0  0  0  0
   63.0450   34.7950   50.3420 C   0  0  0  0  0  0  0  0  0  0  0  0
   61.7120   34.1080   50.1490 C   0  0  0  0  0  0  0  0  0  0  0  0
   61.1960   33.2330   51.1180 C   0  0  0  0  0  0  0  0  0  0  0  0
   59.9380   32.6430   50.9520 C   0  0  0  0  0  0  0  0  0  0  0  0
   59.3690   31.5490   52.2080 Cl  0  0  0  0  0  0  0  0  0  0  0  0
   59.1630   32.9330   49.8090 C   0  0  0  0  0  0  0  0  0  0  0  0
   57.8770   32.3210   49.6260 N   0  0  0  0  0  0  0  0  0  0  0  0
   59.6690   33.8370   48.8520 C   0  0  0  0  0  0  0  0  0  0  0  0
   58.7620   34.2590   47.4030 Cl  0  0  0  0  0  0  0  0  0  0  0  0
   60.9230   34.4280   49.0360 C   0  0  0  0  0  0  0  0  0  0  0  0
   64.7870   32.9810   49.7840 C   0  0  0  0  0  0  0  0  0  0  0  0
   64.4310   32.9590   48.3100 C   0  0  0  0  0  0  0  0  0  0  0  0
   63.1280   32.2480   48.0350 C   0  0  0  0  0  0  0  0  0  0  0  0
   62.3200   32.6100   46.9430 C   0  0  0  0  0  0  0  0  0  0  0  0
   61.0950   31.9740   46.7260 C   0  0  0  0  0  0  0  0  0  0  0  0
   60.6500   30.9640   47.5980 C   0  0  0  0  0  0  0  0  0  0  0  0
   59.3470   30.2850   47.3880 C   0  0  0  0  0  0  0  0  0  0  0  0
   58.8120   29.6890   48.3640 O   0  0  0  0  0  0  0  0  0  0  0  0
   58.6460   30.2750   46.0790 C   0  0  0  0  0  0  0  0  0  0  0  0
   58.4810   29.0820   45.3500 C   0  0  0  0  0  0  0  0  0  0  0  0
   57.7900   29.0820   44.1350 C   0  0  0  0  0  0  0  0  0  0  0  0
   57.2510   30.2700   43.6350 C   0  0  0  0  0  0  0  0  0  0  0  0
   57.3970   31.4580   44.3550 C   0  0  0  0  0  0  0  0  0  0  0  0
   58.0850   31.4610   45.5730 C   0  0  0  0  0  0  0  0  0  0  0  0
   61.4340   30.6430   48.7180 C   0  0  0  0  0  0  0  0  0  0  0  0
   62.6550   31.2840   48.9390 C   0  0  0  0  0  0  0  0  0  0  0  0
   65.7790   32.0990   50.2420 C   0  0  0  0  0  0  0  0  0  0  0  0
   67.1812   31.0940   53.1800 H   0  0  0  0  0  0  0  0  0  0  0  0
   66.9324   30.0922   51.7099 H   0  0  0  0  0  0  0  0  0  0  0  0
   68.1686   31.3955   51.7099 H   0  0  0  0  0  0  0  0  0  0  0  0
   65.7487   32.8969   53.5514 H   0  0  0  0  0  0  0  0  0  0  0  0
   64.0560   34.3840   52.7440 H   0  0  0  0  0  0  0  0  0  0  0  0
   62.9406   35.5467   51.1382 H   0  0  0  0  0  0  0  0  0  0  0  0
   63.3229   35.2529   49.3812 H   0  0  0  0  0  0  0  0  0  0  0  0
   61.7873   33.0086   52.0180 H   0  0  0  0  0  0  0  0  0  0  0  0
   57.7540   31.4620   49.0470 H   0  0  0  0  0  0  0  0  0  0  0  0
   57.0120   32.7190   50.0530 H   0  0  0  0  0  0  0  0  0  0  0  0
   61.2949   35.1535   48.2975 H   0  0  0  0  0  0  0  0  0  0  0  0
   64.3481   33.9960   47.9527 H   0  0  0  0  0  0  0  0  0  0  0  0
   65.2261   32.4096   47.7847 H   0  0  0  0  0  0  0  0  0  0  0  0
   62.6547   33.3998   46.2543 H   0  0  0  0  0  0  0  0  0  0  0  0
   60.4736   32.2655   45.8664 H   0  0  0  0  0  0  0  0  0  0  0  0
   58.8993   28.1422   45.7397 H   0  0  0  0  0  0  0  0  0  0  0  0
   57.6704   28.1449   43.5715 H   0  0  0  0  0  0  0  0  0  0  0  0
   56.7125   30.2698   42.6758 H   0  0  0  0  0  0  0  0  0  0  0  0
   56.9701   32.3931   43.9634 H   0  0  0  0  0  0  0  0  0  0  0  0
   58.1879   32.3984   46.1393 H   0  0  0  0  0  0  0  0  0  0  0  0
   61.0831   29.8795   49.4279 H   0  0  0  0  0  0  0  0  0  0  0  0
   63.2507   31.0314   49.8286 H   0  0  0  0  0  0  0  0  0  0  0  0
   66.2720   31.4191   49.5316 H   0  0  0  0  0  0  0  0  0  0  0  0
  1  2  1  0
  2  3  2  0
  3  4  1  0
  4  5  2  0
  5  6  1  0
  6  7  1  0
  7  8  2  0
  8  9  1  0
  9 10  1  0
  9 11  2  0
 11 12  1  0
 11 13  1  0
 13 14  1  0
 13 15  2  0
  5 16  1  0
 16 17  1  0
 17 18  1  0
 18 19  2  0
 19 20  1  0
 20 21  2  0
 21 22  1  0
 22 23  2  0
 22 24  1  0
 24 25  2  0
 25 26  1  0
 26 27  2  0
 27 28  1  0
 28 29  2  0
 21 30  1  0
 30 31  2  0
 16 32  2  0
 32  2  1  0
 15  7  1  0
 31 18  1  0
 29 24  1  0
  1 33  1  0
  1 34  1  0
  1 35  1  0
  3 36  1  0
  4 37  1  0
  6 38  1  0
  6 39  1  0
  8 40  1  0
 12 41  1  0
 12 42  1  0
 15 43  1  0
 17 44  1  0
 17 45  1  0
 19 46  1  0
 20 47  1  0
 25 48  1  0
 26 49  1  0
 27 50  1  0
 28 51  1  0
 29 52  1  0
 30 53  1  0
 31 54  1  0
 32 55  1  0
M  CHG  1   4   1
M  END
>  <UniqueID>  (75) 
71

>  <SMILES>  (75) 
Cc1c[nH+]c(Cc2cc(Cl)c(N)c(Cl)c2)c(Cc2ccc(C(=O)c3ccccc3)cc2)c1

>  <Energy>  (75) 
62.461085401928486

>  <Genealogy>  (75) 
Cc1c[nH+]c(Cc2cc(Cl)c(N)c(Cl)c2)c(Cc2ccc(C(=O)c3ccccc3)cc2)c1 (protonated)
Cc1c[nH+]c(Cc2cc(Cl)c(N)c(Cl)c2)c(Cc2ccc(C(=O)c3ccccc3)cc2)c1 (3D coordinates assigned)
Cc1c[nH+]c(Cc2cc(Cl)c(N)c(Cl)c2)c(Cc2ccc(C(=O)c3ccccc3)cc2)c1 (optimized conformer: 62.461085401928486 kcal/mol)

>  <smiles>  (75) 
Cc1cnc(Cc2cc(Cl)c(N)c(Cl)c2)c(Cc2ccc(C(=O)c3ccccc3)cc2)c1

>  <score_type>  (75) 
oracle

>  <origin>  (75) 
adg

>  <m_score__min__energy>  (75) 
-8.3699999999999992

>  <m_primary>  (75) 
energy

$$$$
75:0
     RDKit          3D

 48 50  0  0  1  0  0  0  0  0999 V2000
   63.7730   33.8000   47.6360 C   0  0  0  0  0  0  0  0  0  0  0  0
   62.3070   33.8260   47.7260 C   0  0  0  0  0  0  0  0  0  0  0  0
   61.5550   33.8420   46.5970 C   0  0  0  0  0  0  0  0  0  0  0  0
   60.1870   33.8660   46.7140 C   0  0  0  0  0  0  0  0  0  0  0  0
   59.4420   33.8830   45.6710 N   0  0  0  0  0  0  0  0  0  0  0  0
   57.9290   33.1390   45.5170 S   0  0  0  0  0  0  0  0  0  0  0  0
   57.3300   33.6650   44.2070 O   0  0  0  0  0  0  0  0  0  0  0  0
   56.9230   33.4690   46.5530 O   0  0  0  0  0  0  0  0  0  0  0  0
   58.0090   31.3950   45.2770 C   0  0  0  0  0  0  0  0  0  0  0  0
   57.2180   30.7660   44.3290 C   0  0  0  0  0  0  0  0  0  0  0  0
   57.2480   29.4040   44.1110 C   0  0  0  0  0  0  0  0  0  0  0  0
   58.0930   28.6050   44.8560 C   0  0  0  0  0  0  0  0  0  0  0  0
   58.1090   27.2030   44.6140 N   0  0  0  0  0  0  0  0  0  0  0  0
   57.0980   26.4290   45.2370 C   0  0  0  0  0  0  0  0  0  0  0  0
   56.2310   26.9850   45.9700 O   0  0  0  0  0  0  0  0  0  0  0  0
   56.9830   24.9820   45.0860 C   0  0  0  0  0  0  0  0  0  0  0  0
   56.7470   24.4750   43.8030 C   0  0  0  0  0  0  0  0  0  0  0  0
   56.6230   23.1310   43.5570 C   0  0  0  0  0  0  0  0  0  0  0  0
   56.7420   22.2670   44.6330 C   0  0  0  0  0  0  0  0  0  0  0  0
   56.9740   22.7580   45.8910 C   0  0  0  0  0  0  0  0  0  0  0  0
   57.0790   21.8480   46.9030 F   0  0  0  0  0  0  0  0  0  0  0  0
   57.0950   24.1150   46.1270 C   0  0  0  0  0  0  0  0  0  0  0  0
   57.3430   24.5960   47.4900 C   0  0  0  0  0  0  0  0  0  0  0  0
   58.9050   29.2010   45.8190 C   0  0  0  0  0  0  0  0  0  0  0  0
   58.8450   30.5850   46.0100 C   0  0  0  0  0  0  0  0  0  0  0  0
   59.6380   33.8730   47.9310 N   0  0  0  0  0  0  0  0  0  0  0  0
   60.3650   33.8580   49.0740 C   0  0  0  0  0  0  0  0  0  0  0  0
   59.6860   33.8680   50.4000 C   0  0  0  0  0  0  0  0  0  0  0  0
   61.7120   33.8340   48.9480 N   0  0  0  0  0  0  0  0  0  0  0  0
   64.2024   33.7924   48.6487 H   0  0  0  0  0  0  0  0  0  0  0  0
   64.0912   32.8961   47.0960 H   0  0  0  0  0  0  0  0  0  0  0  0
   64.1231   34.6921   47.0960 H   0  0  0  0  0  0  0  0  0  0  0  0
   62.0323   33.8359   45.6060 H   0  0  0  0  0  0  0  0  0  0  0  0
   56.5356   31.3801   43.7231 H   0  0  0  0  0  0  0  0  0  0  0  0
   56.5994   28.9548   43.3444 H   0  0  0  0  0  0  0  0  0  0  0  0
   58.8210   26.7300   44.0100 H   0  0  0  0  0  0  0  0  0  0  0  0
   56.6578   25.1788   42.9624 H   0  0  0  0  0  0  0  0  0  0  0  0
   56.4357   22.7529   42.5411 H   0  0  0  0  0  0  0  0  0  0  0  0
   56.6499   21.1820   44.4770 H   0  0  0  0  0  0  0  0  0  0  0  0
   56.9633   23.8595   48.2135 H   0  0  0  0  0  0  0  0  0  0  0  0
   58.4241   24.7330   47.6394 H   0  0  0  0  0  0  0  0  0  0  0  0
   56.8276   25.5562   47.6394 H   0  0  0  0  0  0  0  0  0  0  0  0
   59.5882   28.5873   46.4245 H   0  0  0  0  0  0  0  0  0  0  0  0
   59.4900   31.0428   46.7745 H   0  0  0  0  0  0  0  0  0  0  0  0
   58.5780   33.8920   47.9870 H   0  0  0  0  0  0  0  0  0  0  0  0
   60.4419   33.8569   51.1991 H   0  0  0  0  0  0  0  0  0  0  0  0
   59.0706   34.7753   50.4900 H   0  0  0  0  0  0  0  0  0  0  0  0
   59.0442   32.9792   50.4900 H   0  0  0  0  0  0  0  0  0  0  0  0
  1  2  1  0
  2  3  2  0
  3  4  1  0
  4  5  2  0
  5  6  1  0
  6  7  2  0
  6  8  2  0
  6  9  1  0
  9 10  2  0
 10 11  1  0
 11 12  2  0
 12 13  1  0
 13 14  1  0
 14 15  2  0
 14 16  1  0
 16 17  2  0
 17 18  1  0
 18 19  2  0
 19 20  1  0
 20 21  1  0
 20 22  2  0
 22 23  1  0
 12 24  1  0
 24 25  2  0
  4 26  1  0
 26 27  1  0
 27 28  1  0
 27 29  2  0
 29  2  1  0
 25  9  1  0
 22 16  1  0
  1 30  1  0
  1 31  1  0
  1 32  1  0
  3 33  1  0
 10 34  1  0
 11 35  1  0
 13 36  1  0
 17 37  1  0
 18 38  1  0
 19 39  1  0
 23 40  1  0
 23 41  1  0
 23 42  1  0
 24 43  1  0
 25 44  1  0
 26 45  1  0
 28 46  1  0
 28 47  1  0
 28 48  1  0
M  END
>  <smiles>  (76) 
Cc1cc(=NS(=O)(=O)c2ccc(NC(=O)c3cccc(F)c3C)cc2)[nH]c(C)n1

>  <score_type>  (76) 
oracle

>  <origin>  (76) 
adg

>  <m_score__min__energy>  (76) 
-8.6699999999999999

>  <m_primary>  (76) 
energy

$$$$
76:0
     RDKit          3D

 37 38  0  0  0  0  0  0  0  0999 V2000
   58.1320   27.1930   43.2220 C   0  0  0  0  0  0  0  0  0  0  0  0
   57.7680   27.7700   44.5860 C   0  0  0  0  0  0  0  0  0  0  0  0
   57.5460   29.2200   44.4920 N   0  0  0  0  0  0  0  0  0  0  0  0
   56.2400   29.7260   44.1560 C   0  0  0  0  0  0  0  0  0  0  0  0
   55.2290   29.4140   44.8390 O   0  0  0  0  0  0  0  0  0  0  0  0
   58.5900   30.1310   44.8990 C   0  0  0  0  0  0  0  0  0  0  0  0
   59.7850   29.7310   44.9410 O   0  0  0  0  0  0  0  0  0  0  0  0
   58.2930   31.5420   45.2360 C   0  0  0  0  0  0  0  0  0  0  0  0
   57.8600   32.4160   44.2270 C   0  0  0  0  0  0  0  0  0  0  0  0
   57.5880   33.7520   44.5220 C   0  0  0  0  0  0  0  0  0  0  0  0
   57.7550   34.2090   45.8280 C   0  0  0  0  0  0  0  0  0  0  0  0
   58.1700   33.3560   46.7990 N   0  0  0  0  0  0  0  0  0  0  0  0
   58.4400   32.0460   46.5460 C   0  0  0  0  0  0  0  0  0  0  0  0
   58.9180   30.9950   47.9270 S   0  0  0  0  0  0  0  0  0  0  0  0
   59.8590   32.2970   48.8010 C   0  0  0  0  0  0  0  0  0  0  0  0
   61.1780   32.5580   48.1270 C   0  0  0  0  0  0  0  0  0  0  0  0
   62.3120   31.8000   48.4630 C   0  0  0  0  0  0  0  0  0  0  0  0
   63.5440   32.0710   47.8590 C   0  0  0  0  0  0  0  0  0  0  0  0
   63.6520   33.0980   46.9180 C   0  0  0  0  0  0  0  0  0  0  0  0
   62.5290   33.8580   46.5800 C   0  0  0  0  0  0  0  0  0  0  0  0
   61.2950   33.5920   47.1830 C   0  0  0  0  0  0  0  0  0  0  0  0
   58.7144   26.2698   43.3580 H   0  0  0  0  0  0  0  0  0  0  0  0
   57.2124   26.9673   42.6621 H   0  0  0  0  0  0  0  0  0  0  0  0
   58.7317   27.9257   42.6621 H   0  0  0  0  0  0  0  0  0  0  0  0
   56.8493   27.2865   44.9495 H   0  0  0  0  0  0  0  0  0  0  0  0
   58.5981   27.5828   45.2831 H   0  0  0  0  0  0  0  0  0  0  0  0
   56.1240   30.3946   43.2903 H   0  0  0  0  0  0  0  0  0  0  0  0
   57.7345   32.0459   43.1988 H   0  0  0  0  0  0  0  0  0  0  0  0
   57.2455   34.4372   43.7326 H   0  0  0  0  0  0  0  0  0  0  0  0
   57.5503   35.2619   46.0722 H   0  0  0  0  0  0  0  0  0  0  0  0
   59.2684   33.2250   48.8058 H   0  0  0  0  0  0  0  0  0  0  0  0
   60.0536   31.9566   49.8288 H   0  0  0  0  0  0  0  0  0  0  0  0
   62.2307   30.9907   49.2036 H   0  0  0  0  0  0  0  0  0  0  0  0
   64.4292   31.4747   48.1252 H   0  0  0  0  0  0  0  0  0  0  0  0
   64.6215   33.3085   46.4429 H   0  0  0  0  0  0  0  0  0  0  0  0
   62.6154   34.6663   45.8390 H   0  0  0  0  0  0  0  0  0  0  0  0
   60.4137   34.1942   46.9173 H   0  0  0  0  0  0  0  0  0  0  0  0
  1  2  1  0
  2  3  1  0
  3  4  1  0
  4  5  2  0
  3  6  1  0
  6  7  2  0
  6  8  1  0
  8  9  2  0
  9 10  1  0
 10 11  2  0
 11 12  1  0
 12 13  2  0
 13 14  1  0
 14 15  1  0
 15 16  1  0
 16 17  2  0
 17 18  1  0
 18 19  2  0
 19 20  1  0
 20 21  2  0
 13  8  1  0
 21 16  1  0
  1 22  1  0
  1 23  1  0
  1 24  1  0
  2 25  1  0
  2 26  1  0
  4 27  1  0
  9 28  1  0
 10 29  1  0
 11 30  1  0
 15 31  1  0
 15 32  1  0
 17 33  1  0
 18 34  1  0
 19 35  1  0
 20 36  1  0
 21 37  1  0
M  END
>  <UniqueID>  (77) 
72

>  <SMILES>  (77) 
CCN(C=O)C(=O)c1cccnc1SCc1ccccc1

>  <Energy>  (77) 
36.09373485398707

>  <Genealogy>  (77) 
CCN(C=O)C(=O)c1cccnc1SCc1ccccc1 (3D coordinates assigned)
CCN(C=O)C(=O)c1cccnc1SCc1ccccc1 (optimized conformer: 36.09373485398707 kcal/mol)

>  <smiles>  (77) 
CCN(C=O)C(=O)c1cccnc1SCc1ccccc1

>  <score_type>  (77) 
oracle

>  <origin>  (77) 
adg

>  <m_score__min__energy>  (77) 
-7.7400000000000002

>  <m_primary>  (77) 
energy

$$$$
77:0
     RDKit          3D

 47 49  0  0  0  0  0  0  0  0999 V2000
   56.0670   30.0990   43.1180 C   0  0  0  0  0  0  0  0  0  0  0  0
   57.2700   30.8440   42.9660 O   0  0  0  0  0  0  0  0  0  0  0  0
   57.7690   31.7550   43.9120 C   0  0  0  0  0  0  0  0  0  0  0  0
   58.2550   33.0220   43.5390 C   0  0  0  0  0  0  0  0  0  0  0  0
   58.7570   33.9000   44.5020 C   0  0  0  0  0  0  0  0  0  0  0  0
   58.7720   33.5390   45.8580 C   0  0  0  0  0  0  0  0  0  0  0  0
   59.3250   34.4700   46.8780 C   0  0  0  0  0  0  0  0  0  0  0  0
   59.3050   35.7120   46.6720 O   0  0  0  0  0  0  0  0  0  0  0  0
   59.7990   33.9910   48.1430 N   0  0  0  0  0  0  0  0  0  0  0  0
   60.1080   32.7740   48.5040 C   0  0  0  0  0  0  0  0  0  0  0  0
   59.1780   32.0850   49.2210 N   0  0  0  0  0  0  0  0  0  0  0  0
   59.3510   30.7950   49.6090 C   0  0  0  0  0  0  0  0  0  0  0  0
   60.5210   30.1200   49.2740 C   0  0  0  0  0  0  0  0  0  0  0  0
   60.7500   28.4490   49.7580 Cl  0  0  0  0  0  0  0  0  0  0  0  0
   61.5180   30.7940   48.5720 C   0  0  0  0  0  0  0  0  0  0  0  0
   61.3400   32.1300   48.1900 C   0  0  0  0  0  0  0  0  0  0  0  0
   62.7430   32.9260   47.4810 Cl  0  0  0  0  0  0  0  0  0  0  0  0
   58.2640   32.2830   46.2320 C   0  0  0  0  0  0  0  0  0  0  0  0
   57.7940   31.3780   45.2660 C   0  0  0  0  0  0  0  0  0  0  0  0
   57.2950   30.0880   45.6580 N   0  0  0  0  0  0  0  0  0  0  0  0
   58.1000   28.8930   45.6370 C   0  0  0  0  0  0  0  0  0  0  0  0
   59.2710   28.9340   45.1730 O   0  0  0  0  0  0  0  0  0  0  0  0
   57.5770   27.6020   46.1480 C   0  0  0  0  0  0  0  0  0  0  0  0
   58.3880   26.7880   46.9550 C   0  0  0  0  0  0  0  0  0  0  0  0
   57.9070   25.5700   47.4380 C   0  0  0  0  0  0  0  0  0  0  0  0
   56.6130   25.1580   47.1080 C   0  0  0  0  0  0  0  0  0  0  0  0
   56.1750   24.0200   47.5660 N   0  0  0  0  0  0  0  0  0  0  0  0
   56.5230   22.6830   47.1610 C   0  0  0  0  0  0  0  0  0  0  0  0
   55.9710   22.0250   45.9310 C   0  0  0  0  0  0  0  0  0  0  0  0
   57.3290   22.0330   47.8770 O   0  0  0  0  0  0  0  0  0  0  0  0
   55.8460   25.9530   46.3120 N   0  0  0  0  0  0  0  0  0  0  0  0
   56.2880   27.1450   45.8300 C   0  0  0  0  0  0  0  0  0  0  0  0
   55.8512   29.9654   44.1883 H   0  0  0  0  0  0  0  0  0  0  0  0
   55.2371   30.6415   42.6416 H   0  0  0  0  0  0  0  0  0  0  0  0
   56.1828   29.1143   42.6416 H   0  0  0  0  0  0  0  0  0  0  0  0
   58.2393   33.3230   42.4811 H   0  0  0  0  0  0  0  0  0  0  0  0
   59.1439   34.8829   44.1950 H   0  0  0  0  0  0  0  0  0  0  0  0
   58.5671   30.2842   50.1875 H   0  0  0  0  0  0  0  0  0  0  0  0
   62.4523   30.2730   48.3157 H   0  0  0  0  0  0  0  0  0  0  0  0
   58.2341   32.0049   47.2958 H   0  0  0  0  0  0  0  0  0  0  0  0
   56.2900   30.0280   45.9330 H   0  0  0  0  0  0  0  0  0  0  0  0
   59.4083   27.1121   47.2080 H   0  0  0  0  0  0  0  0  0  0  0  0
   58.5430   24.9378   48.0750 H   0  0  0  0  0  0  0  0  0  0  0  0
   55.2896   21.2127   46.2241 H   0  0  0  0  0  0  0  0  0  0  0  0
   55.4212   22.7671   45.3335 H   0  0  0  0  0  0  0  0  0  0  0  0
   56.7974   21.6127   45.3335 H   0  0  0  0  0  0  0  0  0  0  0  0
   55.6335   27.7535   45.1887 H   0  0  0  0  0  0  0  0  0  0  0  0
  1  2  1  0
  2  3  1  0
  3  4  2  0
  4  5  1  0
  5  6  2  0
  6  7  1  0
  7  8  2  0
  7  9  1  0
  9 10  2  3
 10 11  1  0
 11 12  1  0
 12 13  2  0
 13 14  1  0
 13 15  1  0
 15 16  2  0
 16 17  1  0
  6 18  1  0
 18 19  2  0
 19 20  1  0
 20 21  1  0
 21 22  2  0
 21 23  1  0
 23 24  1  0
 24 25  2  0
 25 26  1  0
 26 27  2  3
 27 28  1  0
 28 29  1  0
 28 30  2  0
 26 31  1  0
 31 32  1  0
 19  3  1  0
 32 23  2  0
 16 10  1  0
  1 33  1  0
  1 34  1  0
  1 35  1  0
  4 36  1  0
  5 37  1  0
 12 38  1  0
 15 39  1  0
 18 40  1  0
 20 41  1  0
 24 42  1  0
 25 43  1  0
 29 44  1  0
 29 45  1  0
 29 46  1  0
 32 47  1  0
M  CHG  2  11  -1  31  -1
M  END
>  <UniqueID>  (78) 
73

>  <SMILES>  (78) 
COc1ccc(C(=O)N=c2[n-]cc(Cl)cc2Cl)cc1NC(=O)c1ccc(=NC(C)=O)[n-]c1

>  <Energy>  (78) 
76.8753922505895

>  <Genealogy>  (78) 
COc1ccc(C(=O)N=c2[n-]cc(Cl)cc2Cl)cc1NC(=O)c1ccc(=NC(C)=O)[n-]c1 (protonated)
COc1ccc(C(=O)N=c2[n-]cc(Cl)cc2Cl)cc1NC(=O)c1ccc(=NC(C)=O)[n-]c1 (3D coordinates assigned)
COc1ccc(C(=O)N=c2[n-]cc(Cl)cc2Cl)cc1NC(=O)c1ccc(=NC(C)=O)[n-]c1 (optimized conformer: 76.8753922505895 kcal/mol)

>  <smiles>  (78) 
COc1ccc(C(=O)N=c2[nH]cc(Cl)cc2Cl)cc1NC(=O)c1ccc(=NC(C)=O)[nH]c1

>  <score_type>  (78) 
oracle

>  <origin>  (78) 
adg

>  <m_score__min__energy>  (78) 
-11.33

>  <m_primary>  (78) 
energy

$$$$
78:0
     RDKit          3D

 55 58  0  0  0  0  0  0  0  0999 V2000
   59.4490   30.8610   49.7370 C   0  0  0  0  0  0  0  0  0  0  0  0
   59.7320   29.9000   48.6120 C   0  0  0  0  0  0  0  0  0  0  0  0
   59.1720   28.6120   48.6550 C   0  0  0  0  0  0  0  0  0  0  0  0
   59.4100   27.7000   47.6240 C   0  0  0  0  0  0  0  0  0  0  0  0
   60.2000   28.0650   46.5350 C   0  0  0  0  0  0  0  0  0  0  0  0
   60.7510   29.3460   46.4680 C   0  0  0  0  0  0  0  0  0  0  0  0
   60.5250   30.2740   47.4990 C   0  0  0  0  0  0  0  0  0  0  0  0
   61.0970   31.6320   47.3800 C   0  0  0  0  0  0  0  0  0  0  0  0
   60.4840   32.5320   46.5640 N   0  0  0  0  0  0  0  0  0  0  0  0
   60.9760   33.7860   46.3880 C   0  0  0  0  0  0  0  0  0  0  0  0
   60.3090   34.6720   45.5380 O   0  0  0  0  0  0  0  0  0  0  0  0
   58.9420   35.0240   45.7140 C   0  0  0  0  0  0  0  0  0  0  0  0
   58.0850   33.8330   45.4380 C   0  0  0  0  0  0  0  0  0  0  0  0
   56.9150   33.7880   45.9080 O   0  0  0  0  0  0  0  0  0  0  0  0
   58.6200   32.7200   44.7070 N   0  0  0  0  0  0  0  0  0  0  0  0
   57.8340   31.5910   44.2950 C   0  0  0  0  0  0  0  0  0  0  0  0
   57.5440   30.5810   45.2250 C   0  0  0  0  0  0  0  0  0  0  0  0
   56.7910   29.4650   44.8470 C   0  0  0  0  0  0  0  0  0  0  0  0
   56.3370   29.3410   43.5320 C   0  0  0  0  0  0  0  0  0  0  0  0
   56.6440   30.3270   42.5910 C   0  0  0  0  0  0  0  0  0  0  0  0
   57.3950   31.4460   42.9640 C   0  0  0  0  0  0  0  0  0  0  0  0
   57.7350   32.3570   42.0180 F   0  0  0  0  0  0  0  0  0  0  0  0
   62.1140   34.1610   47.0330 N   0  0  0  0  0  0  0  0  0  0  0  0
   62.7510   33.3070   47.8740 C   0  0  0  0  0  0  0  0  0  0  0  0
   62.2610   32.0220   48.0730 C   0  0  0  0  0  0  0  0  0  0  0  0
   63.0140   31.1670   49.0530 C   0  0  0  0  0  0  0  0  0  0  0  0
   63.3140   31.9260   50.2090 O   0  0  0  0  0  0  0  0  0  0  0  0
   64.1660   33.0510   49.9650 C   0  0  0  0  0  0  0  0  0  0  0  0
   63.7800   34.1200   51.0020 C   0  0  0  0  0  0  0  0  0  0  0  0
   65.6240   32.6280   50.2260 C   0  0  0  0  0  0  0  0  0  0  0  0
   64.0410   33.6810   48.5300 C   0  0  0  0  0  0  0  0  0  0  0  0
   59.5989   30.3519   50.7005 H   0  0  0  0  0  0  0  0  0  0  0  0
   60.1323   31.7201   49.6660 H   0  0  0  0  0  0  0  0  0  0  0  0
   58.4092   31.2127   49.6660 H   0  0  0  0  0  0  0  0  0  0  0  0
   58.5412   28.3195   49.5073 H   0  0  0  0  0  0  0  0  0  0  0  0
   58.9731   26.6916   47.6716 H   0  0  0  0  0  0  0  0  0  0  0  0
   60.3895   27.3427   45.7273 H   0  0  0  0  0  0  0  0  0  0  0  0
   61.3665   29.6311   45.6020 H   0  0  0  0  0  0  0  0  0  0  0  0
   58.7799   35.3613   46.7484 H   0  0  0  0  0  0  0  0  0  0  0  0
   58.6787   35.8356   45.0197 H   0  0  0  0  0  0  0  0  0  0  0  0
   59.6570   32.6670   44.5880 H   0  0  0  0  0  0  0  0  0  0  0  0
   57.9114   30.6677   46.2582 H   0  0  0  0  0  0  0  0  0  0  0  0
   56.5561   28.6844   45.5856 H   0  0  0  0  0  0  0  0  0  0  0  0
   55.7377   28.4670   43.2372 H   0  0  0  0  0  0  0  0  0  0  0  0
   56.2938   30.2227   41.5534 H   0  0  0  0  0  0  0  0  0  0  0  0
   62.3969   30.3006   49.3333 H   0  0  0  0  0  0  0  0  0  0  0  0
   63.9492   30.8175   48.5913 H   0  0  0  0  0  0  0  0  0  0  0  0
   63.9254   33.7173   52.0153 H   0  0  0  0  0  0  0  0  0  0  0  0
   64.4141   35.0085   50.8661 H   0  0  0  0  0  0  0  0  0  0  0  0
   62.7245   34.3985   50.8661 H   0  0  0  0  0  0  0  0  0  0  0  0
   65.8023   32.5763   51.3102 H   0  0  0  0  0  0  0  0  0  0  0  0
   65.8052   31.6403   49.7771 H   0  0  0  0  0  0  0  0  0  0  0  0
   66.3057   33.3654   49.7771 H   0  0  0  0  0  0  0  0  0  0  0  0
   64.0933   34.7764   48.6155 H   0  0  0  0  0  0  0  0  0  0  0  0
   64.8652   33.2948   47.9123 H   0  0  0  0  0  0  0  0  0  0  0  0
  1  2  1  0
  2  3  2  0
  3  4  1  0
  4  5  2  0
  5  6  1  0
  6  7  2  0
  7  8  1  0
  8  9  2  0
  9 10  1  0
 10 11  1  0
 11 12  1  0
 12 13  1  0
 13 14  2  0
 13 15  1  0
 15 16  1  0
 16 17  2  0
 17 18  1  0
 18 19  2  0
 19 20  1  0
 20 21  2  0
 21 22  1  0
 10 23  2  0
 23 24  1  0
 24 25  2  0
 25 26  1  0
 26 27  1  0
 27 28  1  0
 28 29  1  0
 28 30  1  0
 28 31  1  0
  7  2  1  0
 25  8  1  0
 21 16  1  0
 31 24  1  0
  1 32  1  0
  1 33  1  0
  1 34  1  0
  3 35  1  0
  4 36  1  0
  5 37  1  0
  6 38  1  0
 12 39  1  0
 12 40  1  0
 15 41  1  0
 17 42  1  0
 18 43  1  0
 19 44  1  0
 20 45  1  0
 26 46  1  0
 26 47  1  0
 29 48  1  0
 29 49  1  0
 29 50  1  0
 30 51  1  0
 30 52  1  0
 30 53  1  0
 31 54  1  0
 31 55  1  0
M  END
>  <UniqueID>  (79) 
74

>  <SMILES>  (79) 
Cc1ccccc1-c1nc(OCC(=O)Nc2ccccc2F)nc2c1COC(C)(C)C2

>  <Energy>  (79) 
78.16064945869891

>  <Genealogy>  (79) 
Cc1ccccc1-c1nc(OCC(=O)Nc2ccccc2F)nc2c1COC(C)(C)C2 (3D coordinates assigned)
Cc1ccccc1-c1nc(OCC(=O)Nc2ccccc2F)nc2c1COC(C)(C)C2 (nonaromatic ring conformer: 78.16064945869891 kcal/mol)

>  <smiles>  (79) 
Cc1ccccc1-c1nc(OCC(=O)Nc2ccccc2F)nc2c1COC(C)(C)C2

>  <score_type>  (79) 
oracle

>  <origin>  (79) 
adg

>  <m_score__min__energy>  (79) 
-8.4399999999999995

>  <m_primary>  (79) 
energy

$$$$
79:0
     RDKit          3D

 48 50  0  0  0  0  0  0  0  0999 V2000
   55.0590   22.9470   47.5530 C   0  0  0  0  0  0  0  0  0  0  0  0
   55.5430   24.2120   47.0080 N   0  0  0  0  0  0  0  0  0  0  0  0
   56.7490   24.8230   47.4880 C   0  0  0  0  0  0  0  0  0  0  0  0
   57.3110   24.3760   48.5240 O   0  0  0  0  0  0  0  0  0  0  0  0
   57.3330   25.9920   46.7940 C   0  0  0  0  0  0  0  0  0  0  0  0
   58.7250   26.1970   46.8470 C   0  0  0  0  0  0  0  0  0  0  0  0
   59.3020   27.2940   46.2100 C   0  0  0  0  0  0  0  0  0  0  0  0
   58.5070   28.1810   45.4820 C   0  0  0  0  0  0  0  0  0  0  0  0
   57.1280   27.9660   45.3650 C   0  0  0  0  0  0  0  0  0  0  0  0
   56.3640   28.8470   44.5270 N   0  0  0  0  0  0  0  0  0  0  0  0
   56.2670   30.2620   44.7210 C   0  0  0  0  0  0  0  0  0  0  0  0
   55.1720   30.8420   44.4900 O   0  0  0  0  0  0  0  0  0  0  0  0
   57.3820   30.9990   45.2360 N   0  0  0  0  0  0  0  0  0  0  0  0
   57.3050   32.3530   45.7660 C   0  0  2  0  0  0  0  0  0  0  0  0
   57.7630   33.3390   44.6810 C   0  0  0  0  0  0  0  0  0  0  0  0
   59.1770   33.5770   45.0350 C   0  0  0  0  0  0  0  0  0  0  0  0
   59.9640   34.2560   44.3240 O   0  0  0  0  0  0  0  0  0  0  0  0
   59.5140   33.0710   46.3180 N   0  0  0  0  0  0  0  0  0  0  0  0
   60.8280   33.0310   46.9140 C   0  0  0  0  0  0  0  0  0  0  0  0
   61.1050   32.1280   47.9540 C   0  0  0  0  0  0  0  0  0  0  0  0
   62.3830   32.0680   48.5220 C   0  0  0  0  0  0  0  0  0  0  0  0
   63.4070   32.9010   48.0590 C   0  0  0  0  0  0  0  0  0  0  0  0
   64.6710   32.7970   48.6600 O   0  0  0  0  0  0  0  0  0  0  0  0
   64.9330   33.0790   50.0340 C   0  0  0  0  0  0  0  0  0  0  0  0
   63.1360   33.8080   47.0150 C   0  0  0  0  0  0  0  0  0  0  0  0
   61.8610   33.8670   46.4440 C   0  0  0  0  0  0  0  0  0  0  0  0
   58.3160   32.5110   46.9220 C   0  0  0  0  0  0  0  0  0  0  0  0
   56.5310   26.8900   46.0540 C   0  0  0  0  0  0  0  0  0  0  0  0
   55.1520   26.7140   45.9960 O   0  0  0  0  0  0  0  0  0  0  0  0
   55.0758   22.9909   48.6520 H   0  0  0  0  0  0  0  0  0  0  0  0
   54.0294   22.7695   47.2088 H   0  0  0  0  0  0  0  0  0  0  0  0
   55.7071   22.1276   47.2088 H   0  0  0  0  0  0  0  0  0  0  0  0
   54.9630   24.7010   46.2900 H   0  0  0  0  0  0  0  0  0  0  0  0
   59.3613   25.4865   47.3949 H   0  0  0  0  0  0  0  0  0  0  0  0
   60.3869   27.4614   46.2810 H   0  0  0  0  0  0  0  0  0  0  0  0
   58.9667   29.0547   44.9970 H   0  0  0  0  0  0  0  0  0  0  0  0
   56.2731   32.5434   46.0959 H   0  0  0  0  0  0  0  0  0  0  0  0
   57.6743   32.8950   43.6785 H   0  0  0  0  0  0  0  0  0  0  0  0
   57.1611   34.2590   44.6449 H   0  0  0  0  0  0  0  0  0  0  0  0
   60.3113   31.4628   48.3249 H   0  0  0  0  0  0  0  0  0  0  0  0
   62.5838   31.3598   49.3394 H   0  0  0  0  0  0  0  0  0  0  0  0
   64.3206   32.4199   50.6668 H   0  0  0  0  0  0  0  0  0  0  0  0
   65.9982   32.9059   50.2472 H   0  0  0  0  0  0  0  0  0  0  0  0
   64.6822   34.1286   50.2472 H   0  0  0  0  0  0  0  0  0  0  0  0
   63.9315   34.4729   46.6475 H   0  0  0  0  0  0  0  0  0  0  0  0
   61.6627   34.5708   45.6222 H   0  0  0  0  0  0  0  0  0  0  0  0
   58.5357   31.5337   47.3765 H   0  0  0  0  0  0  0  0  0  0  0  0
   57.9231   33.1559   47.7218 H   0  0  0  0  0  0  0  0  0  0  0  0
  1  2  1  0
  2  3  1  0
  3  4  2  0
  3  5  1  0
  5  6  2  0
  6  7  1  0
  7  8  2  0
  8  9  1  0
  9 10  1  0
 10 11  1  0
 11 12  2  0
 11 13  1  0
 13 14  1  0
 14 15  1  0
 15 16  1  0
 16 17  2  0
 16 18  1  0
 18 19  1  0
 19 20  2  0
 20 21  1  0
 21 22  2  0
 22 23  1  0
 23 24  1  0
 22 25  1  0
 25 26  2  0
 18 27  1  0
  9 28  2  0
 28 29  1  0
 28  5  1  0
 27 14  1  0
 26 19  1  0
  1 30  1  0
  1 31  1  0
  1 32  1  0
  2 33  1  0
  6 34  1  0
  7 35  1  0
  8 36  1  0
 14 37  1  1
 15 38  1  0
 15 39  1  0
 20 40  1  0
 21 41  1  0
 24 42  1  0
 24 43  1  0
 24 44  1  0
 25 45  1  0
 26 46  1  0
 27 47  1  0
 27 48  1  0
M  CHG  3  10  -1  13  -1  29  -1
M  END
>  <UniqueID>  (80) 
75

>  <SMILES>  (80) 
CNC(=O)c1cccc([N-]C(=O)[N-][C@@H]2CC(=O)N(c3ccc(OC)cc3)C2)c1[O-]

>  <Energy>  (80) 
67.14585452545256

>  <Genealogy>  (80) 
CNC(=O)c1cccc([N-]C(=O)[N-]C2CC(=O)N(c3ccc(OC)cc3)C2)c1[O-] (protonated)
CNC(=O)c1cccc([N-]C(=O)[N-][C@@H]2CC(=O)N(c3ccc(OC)cc3)C2)c1[O-] (chirality)
CNC(=O)c1cccc([N-]C(=O)[N-][C@@H]2CC(=O)N(c3ccc(OC)cc3)C2)c1[O-] (3D coordinates assigned)
CNC(=O)c1cccc([N-]C(=O)[N-][C@@H]2CC(=O)N(c3ccc(OC)cc3)C2)c1[O-] (nonaromatic ring conformer: 67.14585452545256 kcal/mol)

>  <smiles>  (80) 
CNC(=O)c1cccc(NC(=O)NC2CC(=O)N(c3ccc(OC)cc3)C2)c1O

>  <score_type>  (80) 
oracle

>  <origin>  (80) 
adg

>  <m_score__min__energy>  (80) 
-16.02

>  <m_primary>  (80) 
energy

$$$$
80:0
     RDKit          3D

 60 65  0  0  0  0  0  0  0  0999 V2000
   60.7900   28.1430   47.2180 O   0  0  0  0  0  0  0  0  0  0  0  0
   60.2580   27.6970   48.2730 C   0  0  0  0  0  0  0  0  0  0  0  0
   59.5100   26.3830   48.2350 C   0  0  0  0  0  0  0  0  0  0  0  0
   59.2160   25.9100   46.8620 N   0  0  0  0  0  0  0  0  0  0  0  0
   57.8900   25.3400   46.6500 C   0  0  0  0  0  0  0  0  0  0  0  0
   57.6320   23.9610   46.8320 C   0  0  0  0  0  0  0  0  0  0  0  0
   56.3460   23.4590   46.6560 C   0  0  0  0  0  0  0  0  0  0  0  0
   55.3370   24.2810   46.2850 N   0  0  0  0  0  0  0  0  0  0  0  0
   55.5330   25.6030   46.0570 C   0  0  0  0  0  0  0  0  0  0  0  0
   54.5560   26.3070   45.6870 O   0  0  0  0  0  0  0  0  0  0  0  0
   56.8170   26.1700   46.2120 C   0  0  0  0  0  0  0  0  0  0  0  0
   57.0210   27.6080   45.8950 C   0  0  0  0  0  0  0  0  0  0  0  0
   58.0080   28.3540   46.4620 N   0  0  0  0  0  0  0  0  0  0  0  0
   57.8080   29.5650   45.9220 C   0  0  0  0  0  0  0  0  0  0  0  0
   58.5360   30.7310   46.1520 C   0  0  0  0  0  0  0  0  0  0  0  0
   58.1370   31.9050   45.4720 C   0  0  0  0  0  0  0  0  0  0  0  0
   58.8560   33.1360   45.6790 N   0  0  0  0  0  0  0  0  0  0  0  0
   59.2520   33.9650   44.5330 C   0  0  0  0  0  0  0  0  0  0  0  0
   59.1550   35.4520   44.8930 C   0  0  0  0  0  0  0  0  0  0  0  0
   59.9150   35.7530   46.1890 C   0  0  0  0  0  0  0  0  0  0  0  0
   59.3980   34.8760   47.3350 C   0  0  0  0  0  0  0  0  0  0  0  0
   59.5050   33.3930   46.9730 C   0  0  0  0  0  0  0  0  0  0  0  0
   57.0210   31.8610   44.5920 C   0  0  0  0  0  0  0  0  0  0  0  0
   56.3120   30.6620   44.3910 C   0  0  0  0  0  0  0  0  0  0  0  0
   56.7430   29.5330   45.0790 C   0  0  0  0  0  0  0  0  0  0  0  0
   56.2180   28.3010   45.0440 N   0  0  0  0  0  0  0  0  0  0  0  0
   60.3900   28.4970   49.5150 C   0  0  0  0  0  0  0  0  0  0  0  0
   61.1900   28.1350   50.6000 C   0  0  0  0  0  0  0  0  0  0  0  0
   61.1170   29.0590   51.5810 N   0  0  0  0  0  0  0  0  0  0  0  0
   60.2810   30.0100   51.1350 C   0  0  0  0  0  0  0  0  0  0  0  0
   59.9110   31.1740   51.8100 C   0  0  0  0  0  0  0  0  0  0  0  0
   59.0320   32.0580   51.1650 C   0  0  0  0  0  0  0  0  0  0  0  0
   58.5490   31.7680   49.8720 C   0  0  0  0  0  0  0  0  0  0  0  0
   58.9380   30.5900   49.2110 C   0  0  0  0  0  0  0  0  0  0  0  0
   59.8100   29.7140   49.8760 C   0  0  0  0  0  0  0  0  0  0  0  0
   60.1191   25.6208   48.7429 H   0  0  0  0  0  0  0  0  0  0  0  0
   58.5438   26.5460   48.7350 H   0  0  0  0  0  0  0  0  0  0  0  0
   59.2960   26.7590   46.2550 H   0  0  0  0  0  0  0  0  0  0  0  0
   59.9430   25.2300   46.5410 H   0  0  0  0  0  0  0  0  0  0  0  0
   58.4510   23.2829   47.1137 H   0  0  0  0  0  0  0  0  0  0  0  0
   56.1488   22.3892   46.8192 H   0  0  0  0  0  0  0  0  0  0  0  0
   59.3937   30.7379   46.8406 H   0  0  0  0  0  0  0  0  0  0  0  0
   60.2888   33.7262   44.2535 H   0  0  0  0  0  0  0  0  0  0  0  0
   58.5767   33.7562   43.6901 H   0  0  0  0  0  0  0  0  0  0  0  0
   59.5863   36.0490   44.0759 H   0  0  0  0  0  0  0  0  0  0  0  0
   58.0956   35.7091   45.0398 H   0  0  0  0  0  0  0  0  0  0  0  0
   60.9855   35.5523   46.0350 H   0  0  0  0  0  0  0  0  0  0  0  0
   59.7596   36.8093   46.4535 H   0  0  0  0  0  0  0  0  0  0  0  0
   59.9962   35.0714   48.2372 H   0  0  0  0  0  0  0  0  0  0  0  0
   58.3410   35.1198   47.5173 H   0  0  0  0  0  0  0  0  0  0  0  0
   60.5662   33.1106   46.9092 H   0  0  0  0  0  0  0  0  0  0  0  0
   59.0029   32.7977   47.7499 H   0  0  0  0  0  0  0  0  0  0  0  0
   56.7086   32.7734   44.0629 H   0  0  0  0  0  0  0  0  0  0  0  0
   55.4468   30.6194   43.7131 H   0  0  0  0  0  0  0  0  0  0  0  0
   61.7982   27.2197   50.6489 H   0  0  0  0  0  0  0  0  0  0  0  0
   61.6190   29.0370   52.4960 H   0  0  0  0  0  0  0  0  0  0  0  0
   60.2965   31.3921   52.8169 H   0  0  0  0  0  0  0  0  0  0  0  0
   58.7179   32.9827   51.6711 H   0  0  0  0  0  0  0  0  0  0  0  0
   57.8619   32.4697   49.3765 H   0  0  0  0  0  0  0  0  0  0  0  0
   58.5691   30.3610   48.2003 H   0  0  0  0  0  0  0  0  0  0  0  0
  1  2  2  0
  2  3  1  0
  3  4  1  0
  4  5  1  0
  5  6  1  0
  6  7  2  0
  7  8  1  0
  8  9  1  0
  9 10  2  0
  9 11  1  0
 11 12  1  0
 12 13  2  0
 13 14  1  0
 14 15  2  0
 15 16  1  0
 16 17  1  0
 17 18  1  0
 18 19  1  0
 19 20  1  0
 20 21  1  0
 21 22  1  0
 16 23  2  0
 23 24  1  0
 24 25  2  0
 25 26  1  0
  2 27  1  0
 27 28  2  0
 28 29  1  0
 29 30  1  0
 30 31  2  0
 31 32  1  0
 32 33  2  0
 33 34  1  0
 34 35  2  0
 11  5  2  0
 26 12  1  0
 35 27  1  0
 25 14  1  0
 35 30  1  0
 22 17  1  0
  3 36  1  0
  3 37  1  0
  4 38  1  0
  4 39  1  0
  6 40  1  0
  7 41  1  0
 15 42  1  0
 18 43  1  0
 18 44  1  0
 19 45  1  0
 19 46  1  0
 20 47  1  0
 20 48  1  0
 21 49  1  0
 21 50  1  0
 22 51  1  0
 22 52  1  0
 23 53  1  0
 24 54  1  0
 28 55  1  0
 29 56  1  0
 31 57  1  0
 32 58  1  0
 33 59  1  0
 34 60  1  0
M  CHG  3   4   1   8  -1  26  -1
M  END
>  <UniqueID>  (81) 
76

>  <SMILES>  (81) 
O=C(C[NH2+]c1cc[n-]c(=O)c1-c1nc2cc(N3CCCCC3)ccc2[n-]1)c1c[nH]c2ccccc12

>  <Energy>  (81) 
153.17070177323166

>  <Genealogy>  (81) 
O=C(C[NH2+]c1cc[n-]c(=O)c1-c1nc2cc(N3CCCCC3)ccc2[n-]1)c1c[nH]c2ccccc12 (protonated)
O=C(C[NH2+]c1cc[n-]c(=O)c1-c1nc2cc(N3CCCCC3)ccc2[n-]1)c1c[nH]c2ccccc12 (3D coordinates assigned)
O=C(C[NH2+]c1cc[n-]c(=O)c1-c1nc2cc(N3CCCCC3)ccc2[n-]1)c1c[nH]c2ccccc12 (nonaromatic ring conformer: 153.17070177323166 kcal/mol)

>  <smiles>  (81) 
O=C(CNc1cc[nH]c(=O)c1-c1nc2cc(N3CCCCC3)ccc2[nH]1)c1c[nH]c2ccccc12

>  <score_type>  (81) 
oracle

>  <origin>  (81) 
adg

>  <m_score__min__energy>  (81) 
-10.77

>  <m_primary>  (81) 
energy

$$$$
81:0
     RDKit          3D

 55 58  0  0  1  0  0  0  0  0999 V2000
   60.0150   34.5850   48.9970 C   0  0  0  0  0  0  0  0  0  0  0  0
   59.5360   33.9840   47.7880 N   0  0  0  0  0  0  0  0  0  0  0  0
   58.4040   33.1220   47.9780 C   0  0  0  0  0  0  0  0  0  0  0  0
   57.4420   33.2720   46.7960 C   0  0  0  0  0  0  0  0  0  0  0  0
   58.2050   33.1620   45.5940 N   0  0  0  0  0  0  0  0  0  0  0  0
   57.4330   32.9610   44.3940 C   0  0  0  0  0  0  0  0  0  0  0  0
   58.0490   31.9430   43.4580 C   0  0  0  0  0  0  0  0  0  0  0  0
   56.9710   30.8630   43.2820 C   0  0  0  0  0  0  0  0  0  0  0  0
   59.7890   30.2590   48.2410 N   0  0  0  0  0  0  0  0  0  0  0  0
   59.6210   29.0390   47.9390 C   0  0  0  0  0  0  0  0  0  0  0  0
   58.0960   29.7440   46.2500 C   0  0  0  0  0  0  0  0  0  0  0  0
   58.7510   28.7270   46.9150 C   0  0  0  0  0  0  0  0  0  0  0  0
   57.2360   29.4620   45.2400 C   0  0  0  0  0  0  0  0  0  0  0  0
   56.6470   30.4430   44.6490 N   0  0  0  0  0  0  0  0  0  0  0  0
   61.0120   30.8850   48.5930 C   0  0  0  0  0  0  0  0  0  0  0  0
   61.6920   30.6380   49.7670 C   0  0  0  0  0  0  0  0  0  0  0  0
   62.8820   31.3210   50.0070 C   0  0  0  0  0  0  0  0  0  0  0  0
   63.3870   32.2330   49.0950 C   0  0  0  0  0  0  0  0  0  0  0  0
   62.7020   32.4670   47.9330 C   0  0  0  0  0  0  0  0  0  0  0  0
   63.3720   33.7220   46.6530 Br  0  0  0  0  0  0  0  0  0  0  0  0
   61.5120   31.8060   47.6600 C   0  0  0  0  0  0  0  0  0  0  0  0
   57.0370   28.1760   44.9030 N   0  0  0  0  0  0  0  0  0  0  0  0
   57.6690   27.1500   45.5410 C   0  0  0  0  0  0  0  0  0  0  0  0
   59.2130   26.4780   47.2530 N   0  0  0  0  0  0  0  0  0  0  0  0
   58.5440   27.4110   46.5650 C   0  0  0  0  0  0  0  0  0  0  0  0
   60.0700   26.8190   48.2630 C   0  0  0  0  0  0  0  0  0  0  0  0
   60.2780   28.0960   48.6110 N   0  0  0  0  0  0  0  0  0  0  0  0
   59.2000   34.1750   45.4290 C   0  0  0  0  0  0  0  0  0  0  0  0
   59.3190   34.9510   46.7240 C   0  0  0  0  0  0  0  0  0  0  0  0
   59.5921   34.0544   49.8628 H   0  0  0  0  0  0  0  0  0  0  0  0
   61.1127   34.5213   49.0283 H   0  0  0  0  0  0  0  0  0  0  0  0
   59.7080   35.6408   49.0283 H   0  0  0  0  0  0  0  0  0  0  0  0
   58.7451   32.0782   48.0426 H   0  0  0  0  0  0  0  0  0  0  0  0
   57.8862   33.3976   48.9085 H   0  0  0  0  0  0  0  0  0  0  0  0
   56.6812   32.4783   46.8300 H   0  0  0  0  0  0  0  0  0  0  0  0
   56.9309   34.2451   46.8383 H   0  0  0  0  0  0  0  0  0  0  0  0
   56.4285   32.6138   44.6775 H   0  0  0  0  0  0  0  0  0  0  0  0
   57.3997   33.9218   43.8594 H   0  0  0  0  0  0  0  0  0  0  0  0
   58.2945   32.4057   42.4907 H   0  0  0  0  0  0  0  0  0  0  0  0
   58.9874   31.5297   43.8561 H   0  0  0  0  0  0  0  0  0  0  0  0
   56.0833   31.2773   42.7816 H   0  0  0  0  0  0  0  0  0  0  0  0
   57.3152   30.0257   42.6572 H   0  0  0  0  0  0  0  0  0  0  0  0
   58.2728   30.7899   46.5412 H   0  0  0  0  0  0  0  0  0  0  0  0
   61.3023   29.9158   50.4995 H   0  0  0  0  0  0  0  0  0  0  0  0
   63.4323   31.1321   50.9405 H   0  0  0  0  0  0  0  0  0  0  0  0
   64.3281   32.7635   49.3021 H   0  0  0  0  0  0  0  0  0  0  0  0
   60.9681   32.0018   46.7242 H   0  0  0  0  0  0  0  0  0  0  0  0
   56.3670   27.9800   44.1180 H   0  0  0  0  0  0  0  0  0  0  0  0
   57.4770   26.1113   45.2342 H   0  0  0  0  0  0  0  0  0  0  0  0
   60.6029   26.0233   48.8042 H   0  0  0  0  0  0  0  0  0  0  0  0
   60.9230   28.3940   49.3770 H   0  0  0  0  0  0  0  0  0  0  0  0
   60.1664   33.7091   45.1860 H   0  0  0  0  0  0  0  0  0  0  0  0
   58.9149   34.8519   44.6102 H   0  0  0  0  0  0  0  0  0  0  0  0
   60.1687   35.6475   46.6690 H   0  0  0  0  0  0  0  0  0  0  0  0
   58.4084   35.5389   46.9113 H   0  0  0  0  0  0  0  0  0  0  0  0
  1  2  1  0
  2  3  1  0
  3  4  1  0
  4  5  1  0
  5  6  1  0
  6  7  1  0
  7  8  1  0
  8  9  1  0
  9 10  2  0
 10 11  1  0
 11 12  2  0
 12 13  1  0
 13 14  2  0
 14 15  1  0
 15 16  2  0
 16 17  1  0
 17 18  2  0
 18 19  1  0
 19 20  1  0
 19 21  2  0
 13 22  1  0
 22 23  1  0
 23 24  2  0
 24 25  1  0
 25 26  2  0
 26 27  1  0
  5 28  1  0
 28 29  1  0
 29  2  1  0
 27 10  1  0
 25 12  1  0
 21 15  1  0
  1 30  1  0
  1 31  1  0
  1 32  1  0
  3 33  1  0
  3 34  1  0
  4 35  1  0
  4 36  1  0
  6 37  1  0
  6 38  1  0
  7 39  1  0
  7 40  1  0
  8 41  1  0
  8 42  1  0
 11 43  1  0
 16 44  1  0
 17 45  1  0
 18 46  1  0
 21 47  1  0
 22 48  1  0
 23 49  1  0
 26 50  1  0
 27 51  1  0
 28 52  1  0
 28 53  1  0
 29 54  1  0
 29 55  1  0
M  END
>  <smiles>  (82) 
CN1CCN(CCCN=c2cc3c(=Nc4cccc(Br)c4)[nH]cnc3c[nH]2)CC1

>  <score_type>  (82) 
oracle

>  <origin>  (82) 
adg

>  <m_score__min__energy>  (82) 
-9.1400000000000006

>  <m_primary>  (82) 
energy

$$$$
82:0
     RDKit          3D

 61 63  0  0  0  0  0  0  0  0999 V2000
   57.1250   31.1930   42.9180 C   0  0  0  0  0  0  0  0  0  0  0  0
   56.9490   29.7640   43.4520 C   0  0  0  0  0  0  0  0  0  0  0  0
   55.7780   29.7250   44.4440 C   0  0  0  0  0  0  0  0  0  0  0  0
   58.2320   29.2190   44.1360 C   0  0  0  0  0  0  0  0  0  0  0  0
   58.3020   29.3970   45.6750 C   0  0  1  0  0  0  0  0  0  0  0  0
   57.7210   28.2370   46.3620 N   0  0  0  0  0  0  0  0  0  0  0  0
   58.0990   26.8930   46.0440 C   0  0  0  0  0  0  0  0  0  0  0  0
   58.8980   26.6630   45.0950 O   0  0  0  0  0  0  0  0  0  0  0  0
   57.5710   25.8120   46.8140 N   0  0  0  0  0  0  0  0  0  0  0  0
   56.1210   24.9750   46.3690 S   0  0  0  0  0  0  0  0  0  0  0  0
   55.0780   25.9700   45.9370 O   0  0  0  0  0  0  0  0  0  0  0  0
   55.5970   24.2200   47.5580 O   0  0  0  0  0  0  0  0  0  0  0  0
   56.4750   23.8420   45.0690 C   0  0  0  0  0  0  0  0  0  0  0  0
   55.6500   23.7990   43.9360 C   0  0  0  0  0  0  0  0  0  0  0  0
   55.9130   22.8870   42.9080 C   0  0  0  0  0  0  0  0  0  0  0  0
   56.9980   22.0120   43.0110 C   0  0  0  0  0  0  0  0  0  0  0  0
   57.8220   22.0480   44.1410 C   0  0  0  0  0  0  0  0  0  0  0  0
   57.5600   22.9580   45.1710 C   0  0  0  0  0  0  0  0  0  0  0  0
   59.7010   29.6930   46.1650 C   0  0  0  0  0  0  0  0  0  0  0  0
   60.6630   28.9470   45.8300 O   0  0  0  0  0  0  0  0  0  0  0  0
   59.9040   30.7490   47.1110 N   0  0  0  0  0  0  0  0  0  0  0  0
   61.0190   31.6510   47.1620 C   0  0  0  0  0  0  0  0  0  0  0  0
   62.3040   31.2120   47.5330 C   0  0  0  0  0  0  0  0  0  0  0  0
   63.3830   32.1000   47.5250 C   0  0  0  0  0  0  0  0  0  0  0  0
   63.1970   33.4270   47.1270 C   0  0  0  0  0  0  0  0  0  0  0  0
   61.9310   33.8670   46.7330 C   0  0  0  0  0  0  0  0  0  0  0  0
   60.8410   32.9880   46.7460 C   0  0  0  0  0  0  0  0  0  0  0  0
   59.5520   33.4640   46.3330 N   0  0  0  0  0  0  0  0  0  0  0  0
   58.4780   33.5760   47.3210 C   0  0  0  0  0  0  0  0  0  0  0  0
   57.1200   33.4500   46.6240 C   0  0  0  0  0  0  0  0  0  0  0  0
   57.0300   34.3400   45.5260 O   0  0  0  0  0  0  0  0  0  0  0  0
   57.9780   33.9800   44.5360 C   0  0  0  0  0  0  0  0  0  0  0  0
   59.4050   34.1690   45.0590 C   0  0  0  0  0  0  0  0  0  0  0  0
   57.2111   31.8921   43.7629 H   0  0  0  0  0  0  0  0  0  0  0  0
   58.0364   31.2455   42.3043 H   0  0  0  0  0  0  0  0  0  0  0  0
   56.2536   31.4650   42.3043 H   0  0  0  0  0  0  0  0  0  0  0  0
   56.7407   29.1160   42.5879 H   0  0  0  0  0  0  0  0  0  0  0  0
   56.1681   29.7380   45.4724 H   0  0  0  0  0  0  0  0  0  0  0  0
   55.1335   30.6022   44.2852 H   0  0  0  0  0  0  0  0  0  0  0  0
   55.1933   28.8069   44.2852 H   0  0  0  0  0  0  0  0  0  0  0  0
   58.3007   28.1432   43.9169 H   0  0  0  0  0  0  0  0  0  0  0  0
   59.0638   29.8118   43.7278 H   0  0  0  0  0  0  0  0  0  0  0  0
   57.6976   30.2815   45.9247 H   0  0  0  0  0  0  0  0  0  0  0  0
   57.1060   28.3850   47.1950 H   0  0  0  0  0  0  0  0  0  0  0  0
   54.7934   24.4844   43.8551 H   0  0  0  0  0  0  0  0  0  0  0  0
   55.2659   22.8587   42.0189 H   0  0  0  0  0  0  0  0  0  0  0  0
   57.2042   21.2946   42.2030 H   0  0  0  0  0  0  0  0  0  0  0  0
   58.6768   21.3601   44.2198 H   0  0  0  0  0  0  0  0  0  0  0  0
   58.2052   22.9805   46.0616 H   0  0  0  0  0  0  0  0  0  0  0  0
   62.4596   30.1646   47.8307 H   0  0  0  0  0  0  0  0  0  0  0  0
   64.3808   31.7540   47.8326 H   0  0  0  0  0  0  0  0  0  0  0  0
   64.0474   34.1247   47.1240 H   0  0  0  0  0  0  0  0  0  0  0  0
   61.7897   34.9092   46.4109 H   0  0  0  0  0  0  0  0  0  0  0  0
   58.5821   32.7740   48.0667 H   0  0  0  0  0  0  0  0  0  0  0  0
   58.5422   34.5545   47.8194 H   0  0  0  0  0  0  0  0  0  0  0  0
   56.9952   32.4186   46.2625 H   0  0  0  0  0  0  0  0  0  0  0  0
   56.3299   33.7027   47.3464 H   0  0  0  0  0  0  0  0  0  0  0  0
   57.8307   32.9250   44.2617 H   0  0  0  0  0  0  0  0  0  0  0  0
   57.8348   34.6263   43.6575 H   0  0  0  0  0  0  0  0  0  0  0  0
   60.1204   33.7619   44.3293 H   0  0  0  0  0  0  0  0  0  0  0  0
   59.6038   35.2408   45.2065 H   0  0  0  0  0  0  0  0  0  0  0  0
  1  2  1  0
  2  3  1  0
  2  4  1  0
  4  5  1  0
  5  6  1  0
  6  7  1  0
  7  8  2  0
  7  9  1  0
  9 10  1  0
 10 11  2  0
 10 12  2  0
 10 13  1  0
 13 14  2  0
 14 15  1  0
 15 16  2  0
 16 17  1  0
 17 18  2  0
  5 19  1  0
 19 20  2  0
 19 21  1  0
 21 22  1  0
 22 23  2  0
 23 24  1  0
 24 25  2  0
 25 26  1  0
 26 27  2  0
 27 28  1  0
 28 29  1  0
 29 30  1  0
 30 31  1  0
 31 32  1  0
 32 33  1  0
 18 13  1  0
 27 22  1  0
 33 28  1  0
  1 34  1  0
  1 35  1  0
  1 36  1  0
  2 37  1  0
  3 38  1  0
  3 39  1  0
  3 40  1  0
  4 41  1  0
  4 42  1  0
  5 43  1  6
  6 44  1  0
 14 45  1  0
 15 46  1  0
 16 47  1  0
 17 48  1  0
 18 49  1  0
 23 50  1  0
 24 51  1  0
 25 52  1  0
 26 53  1  0
 29 54  1  0
 29 55  1  0
 30 56  1  0
 30 57  1  0
 32 58  1  0
 32 59  1  0
 33 60  1  0
 33 61  1  0
M  CHG  2   9  -1  21  -1
M  END
>  <UniqueID>  (83) 
77

>  <SMILES>  (83) 
CC(C)C[C@@H](NC(=O)[N-]S(=O)(=O)c1ccccc1)C(=O)[N-]c1ccccc1N1CCOCC1

>  <Energy>  (83) 
67.10267026573806

>  <Genealogy>  (83) 
CC(C)CC(NC(=O)[N-]S(=O)(=O)c1ccccc1)C(=O)[N-]c1ccccc1N1CCOCC1 (protonated)
CC(C)C[C@@H](NC(=O)[N-]S(=O)(=O)c1ccccc1)C(=O)[N-]c1ccccc1N1CCOCC1 (chirality)
CC(C)C[C@@H](NC(=O)[N-]S(=O)(=O)c1ccccc1)C(=O)[N-]c1ccccc1N1CCOCC1 (3D coordinates assigned)
CC(C)C[C@@H](NC(=O)[N-]S(=O)(=O)c1ccccc1)C(=O)[N-]c1ccccc1N1CCOCC1 (nonaromatic ring conformer: 67.10267026573806 kcal/mol)

>  <smiles>  (83) 
CC(C)CC(NC(=O)NS(=O)(=O)c1ccccc1)C(=O)Nc1ccccc1N1CCOCC1

>  <score_type>  (83) 
oracle

>  <origin>  (83) 
adg

>  <m_score__min__energy>  (83) 
-12.41

>  <m_primary>  (83) 
energy

$$$$
83:0
     RDKit          3D

 48 50  0  0  0  0  0  0  0  0999 V2000
   55.4990   29.2480   44.8070 N   0  0  0  0  0  0  0  0  0  0  0  0
   56.7830   29.7540   43.7690 S   0  0  0  0  0  0  0  0  0  0  0  0
   57.8210   28.6690   43.6920 O   0  0  0  0  0  0  0  0  0  0  0  0
   56.2450   30.0040   42.3880 O   0  0  0  0  0  0  0  0  0  0  0  0
   57.5070   31.2270   44.4040 C   0  0  0  0  0  0  0  0  0  0  0  0
   57.7820   32.3030   43.5490 C   0  0  0  0  0  0  0  0  0  0  0  0
   58.3310   33.4820   44.0600 C   0  0  0  0  0  0  0  0  0  0  0  0
   58.6120   33.5910   45.4240 C   0  0  0  0  0  0  0  0  0  0  0  0
   58.3620   32.5170   46.2850 C   0  0  0  0  0  0  0  0  0  0  0  0
   58.6350   32.6710   47.6850 N   0  0  0  0  0  0  0  0  0  0  0  0
   59.8480   33.1680   48.2650 C   0  0  0  0  0  0  0  0  0  0  0  0
   59.7740   33.9780   49.2260 O   0  0  0  0  0  0  0  0  0  0  0  0
   61.2020   32.8030   47.7220 C   0  0  0  0  0  0  0  0  0  0  0  0
   61.4980   31.4350   47.9990 O   0  0  0  0  0  0  0  0  0  0  0  0
   60.7000   30.3440   47.6180 C   0  0  0  0  0  0  0  0  0  0  0  0
   59.7830   29.8390   48.5470 C   0  0  0  0  0  0  0  0  0  0  0  0
   58.9720   28.7470   48.2230 C   0  0  0  0  0  0  0  0  0  0  0  0
   59.0710   28.1440   46.9620 C   0  0  0  0  0  0  0  0  0  0  0  0
   58.0690   26.7470   46.5640 S   0  0  0  0  0  0  0  0  0  0  0  0
   56.6800   27.2140   46.2310 O   0  0  0  0  0  0  0  0  0  0  0  0
   57.9780   25.8460   47.7640 O   0  0  0  0  0  0  0  0  0  0  0  0
   58.7140   25.8410   45.2100 N   0  0  0  0  0  0  0  0  0  0  0  0
   57.7750   25.8320   44.0830 C   0  0  0  0  0  0  0  0  0  0  0  0
   56.9980   24.5240   44.1170 C   0  0  0  0  0  0  0  0  0  0  0  0
   57.7550   23.6180   45.0690 C   0  0  0  0  0  0  0  0  0  0  0  0
   58.9360   24.4360   45.5690 C   0  0  0  0  0  0  0  0  0  0  0  0
   59.9740   28.6560   46.0230 C   0  0  0  0  0  0  0  0  0  0  0  0
   60.7870   29.7460   46.3460 C   0  0  0  0  0  0  0  0  0  0  0  0
   57.7820   31.3420   45.7750 C   0  0  0  0  0  0  0  0  0  0  0  0
   55.5560   28.2080   44.8780 H   0  0  0  0  0  0  0  0  0  0  0  0
   57.5653   32.2192   42.4738 H   0  0  0  0  0  0  0  0  0  0  0  0
   58.5423   34.3259   43.3869 H   0  0  0  0  0  0  0  0  0  0  0  0
   59.0320   34.5260   45.8232 H   0  0  0  0  0  0  0  0  0  0  0  0
   61.2108   32.9623   46.6336 H   0  0  0  0  0  0  0  0  0  0  0  0
   61.9616   33.4364   48.2035 H   0  0  0  0  0  0  0  0  0  0  0  0
   59.6996   30.3049   49.5400 H   0  0  0  0  0  0  0  0  0  0  0  0
   58.2537   28.3599   48.9607 H   0  0  0  0  0  0  0  0  0  0  0  0
   57.0797   26.6798   44.1717 H   0  0  0  0  0  0  0  0  0  0  0  0
   58.3228   25.9221   43.1334 H   0  0  0  0  0  0  0  0  0  0  0  0
   55.9751   24.6956   44.4835 H   0  0  0  0  0  0  0  0  0  0  0  0
   56.9128   24.0777   43.1152 H   0  0  0  0  0  0  0  0  0  0  0  0
   57.1106   23.3221   45.9100 H   0  0  0  0  0  0  0  0  0  0  0  0
   58.0843   22.6935   44.5721 H   0  0  0  0  0  0  0  0  0  0  0  0
   59.0174   24.3406   46.6618 H   0  0  0  0  0  0  0  0  0  0  0  0
   59.8675   24.0724   45.1107 H   0  0  0  0  0  0  0  0  0  0  0  0
   60.0442   28.1980   45.0254 H   0  0  0  0  0  0  0  0  0  0  0  0
   61.4977   30.1383   45.6037 H   0  0  0  0  0  0  0  0  0  0  0  0
   57.5430   30.5098   46.4535 H   0  0  0  0  0  0  0  0  0  0  0  0
  1  2  1  0
  2  3  2  0
  2  4  2  0
  2  5  1  0
  5  6  2  0
  6  7  1  0
  7  8  2  0
  8  9  1  0
  9 10  1  0
 10 11  1  0
 11 12  2  0
 11 13  1  0
 13 14  1  0
 14 15  1  0
 15 16  2  0
 16 17  1  0
 17 18  2  0
 18 19  1  0
 19 20  2  0
 19 21  2  0
 19 22  1  0
 22 23  1  0
 23 24  1  0
 24 25  1  0
 25 26  1  0
 18 27  1  0
 27 28  2  0
  9 29  2  0
 29  5  1  0
 28 15  1  0
 26 22  1  0
  1 30  1  0
  6 31  1  0
  7 32  1  0
  8 33  1  0
 13 34  1  0
 13 35  1  0
 16 36  1  0
 17 37  1  0
 23 38  1  0
 23 39  1  0
 24 40  1  0
 24 41  1  0
 25 42  1  0
 25 43  1  0
 26 44  1  0
 26 45  1  0
 27 46  1  0
 28 47  1  0
 29 48  1  0
M  CHG  2   1  -1  10  -1
M  END
>  <UniqueID>  (84) 
78

>  <SMILES>  (84) 
[NH-]S(=O)(=O)c1cccc([N-]C(=O)COc2ccc(S(=O)(=O)N3CCCC3)cc2)c1

>  <Energy>  (84) 
52.51674378111052

>  <Genealogy>  (84) 
[NH-]S(=O)(=O)c1cccc([N-]C(=O)COc2ccc(S(=O)(=O)N3CCCC3)cc2)c1 (protonated)
[NH-]S(=O)(=O)c1cccc([N-]C(=O)COc2ccc(S(=O)(=O)N3CCCC3)cc2)c1 (3D coordinates assigned)
[NH-]S(=O)(=O)c1cccc([N-]C(=O)COc2ccc(S(=O)(=O)N3CCCC3)cc2)c1 (nonaromatic ring conformer: 52.51674378111052 kcal/mol)

>  <smiles>  (84) 
NS(=O)(=O)c1cccc(NC(=O)COc2ccc(S(=O)(=O)N3CCCC3)cc2)c1

>  <score_type>  (84) 
oracle

>  <origin>  (84) 
adg

>  <m_score__min__energy>  (84) 
-13.369999999999999

>  <m_primary>  (84) 
energy

$$$$
84:0
     RDKit          3D

 42 44  0  0  1  0  0  0  0  0999 V2000
   56.9860   25.1760   46.1920 C   0  0  0  0  0  0  0  0  0  0  0  0
   56.4080   26.4960   45.8610 C   0  0  0  0  0  0  0  0  0  0  0  0
   55.1700   26.6750   45.9970 O   0  0  0  0  0  0  0  0  0  0  0  0
   57.2580   27.5790   45.3810 C   0  0  0  0  0  0  0  0  0  0  0  0
   58.5430   27.3160   44.9540 C   0  0  0  0  0  0  0  0  0  0  0  0
   59.3640   28.3340   44.4940 C   0  0  0  0  0  0  0  0  0  0  0  0
   58.8660   29.6300   44.4720 C   0  0  0  0  0  0  0  0  0  0  0  0
   57.5860   29.9220   44.8920 C   0  0  0  0  0  0  0  0  0  0  0  0
   57.0390   31.2340   44.8840 N   0  0  0  0  0  0  0  0  0  0  0  0
   57.7030   32.3030   45.1670 C   0  0  0  0  0  0  0  0  0  0  0  0
   58.7790   32.2540   46.0570 C   0  0  0  0  0  0  0  0  0  0  0  0
   59.4930   33.3930   46.3640 C   0  0  0  0  0  0  0  0  0  0  0  0
   60.6130   33.3520   47.2880 C   0  0  0  0  0  0  0  0  0  0  0  0
   61.8150   32.7260   46.9980 C   0  0  0  0  0  0  0  0  0  0  0  0
   62.8750   32.6890   47.8790 C   0  0  0  0  0  0  0  0  0  0  0  0
   62.7780   33.2870   49.1120 C   0  0  0  0  0  0  0  0  0  0  0  0
   64.1610   33.1990   50.1770 S   0  0  0  0  0  0  0  0  0  0  0  0
   63.9930   31.8460   51.2380 N   0  0  0  0  0  0  0  0  0  0  0  0
   64.1770   34.4710   50.9800 O   0  0  0  0  0  0  0  0  0  0  0  0
   65.4250   33.0980   49.3700 O   0  0  0  0  0  0  0  0  0  0  0  0
   61.6070   33.9110   49.4300 C   0  0  0  0  0  0  0  0  0  0  0  0
   60.5320   33.9480   48.5350 C   0  0  0  0  0  0  0  0  0  0  0  0
   59.0820   34.5300   45.7510 N   0  0  0  0  0  0  0  0  0  0  0  0
   58.0390   34.5380   44.8980 C   0  0  0  0  0  0  0  0  0  0  0  0
   57.3300   33.4390   44.5850 N   0  0  0  0  0  0  0  0  0  0  0  0
   56.8130   28.8680   45.3400 C   0  0  0  0  0  0  0  0  0  0  0  0
   57.0362   25.0613   47.2849 H   0  0  0  0  0  0  0  0  0  0  0  0
   56.3532   24.3821   45.7687 H   0  0  0  0  0  0  0  0  0  0  0  0
   57.9986   25.1026   45.7687 H   0  0  0  0  0  0  0  0  0  0  0  0
   58.9218   26.2836   44.9788 H   0  0  0  0  0  0  0  0  0  0  0  0
   60.3879   28.1197   44.1538 H   0  0  0  0  0  0  0  0  0  0  0  0
   59.5099   30.4451   44.1099 H   0  0  0  0  0  0  0  0  0  0  0  0
   59.0598   31.2956   46.5181 H   0  0  0  0  0  0  0  0  0  0  0  0
   61.9286   32.2360   46.0197 H   0  0  0  0  0  0  0  0  0  0  0  0
   63.8053   32.1768   47.5924 H   0  0  0  0  0  0  0  0  0  0  0  0
   63.2850   31.1620   50.8770 H   0  0  0  0  0  0  0  0  0  0  0  0
   63.7850   32.1330   52.2080 H   0  0  0  0  0  0  0  0  0  0  0  0
   61.5057   34.3959   50.4121 H   0  0  0  0  0  0  0  0  0  0  0  0
   59.6041   34.4609   48.8280 H   0  0  0  0  0  0  0  0  0  0  0  0
   59.5550   35.4290   45.9190 H   0  0  0  0  0  0  0  0  0  0  0  0
   57.7526   35.4931   44.4335 H   0  0  0  0  0  0  0  0  0  0  0  0
   55.7884   29.0786   45.6803 H   0  0  0  0  0  0  0  0  0  0  0  0
  1  2  1  0
  2  3  2  0
  2  4  1  0
  4  5  2  0
  5  6  1  0
  6  7  2  0
  7  8  1  0
  8  9  1  0
  9 10  2  0
 10 11  1  0
 11 12  2  0
 12 13  1  0
 13 14  2  0
 14 15  1  0
 15 16  2  0
 16 17  1  0
 17 18  1  0
 17 19  2  0
 17 20  2  0
 16 21  1  0
 21 22  2  0
 12 23  1  0
 23 24  1  0
 24 25  2  0
  8 26  2  0
 26  4  1  0
 25 10  1  0
 22 13  1  0
  1 27  1  0
  1 28  1  0
  1 29  1  0
  5 30  1  0
  6 31  1  0
  7 32  1  0
 11 33  1  0
 14 34  1  0
 15 35  1  0
 18 36  1  0
 18 37  1  0
 21 38  1  0
 22 39  1  0
 23 40  1  0
 24 41  1  0
 26 42  1  0
M  END
>  <smiles>  (85) 
CC(=O)c1cccc(N=c2cc(-c3ccc(S(N)(=O)=O)cc3)[nH]cn2)c1

>  <score_type>  (85) 
oracle

>  <origin>  (85) 
adg

>  <m_score__min__energy>  (85) 
-9.5600000000000005

>  <m_primary>  (85) 
energy

$$$$
85:0
     RDKit          3D

 38 40  0  0  0  0  0  0  0  0999 V2000
   56.0816   22.1603   43.3019 H   0  0  0  0  0  0  0  0  0  0  0  0
   56.3390   23.2090   43.0920 C   0  0  0  0  0  0  0  0  0  0  0  0
   56.0248   23.6737   42.1458 H   0  0  0  0  0  0  0  0  0  0  0  0
   57.0330   23.9180   43.9860 C   0  0  0  0  0  0  0  0  0  0  0  0
   57.3415   23.4421   44.9285 H   0  0  0  0  0  0  0  0  0  0  0  0
   57.4010   25.3520   43.7310 C   0  0  0  0  0  0  0  0  0  0  0  0
   58.0872   25.4008   42.8727 H   0  0  0  0  0  0  0  0  0  0  0  0
   56.4822   25.9190   43.5203 H   0  0  0  0  0  0  0  0  0  0  0  0
   58.0390   25.9240   44.8730 O   0  0  0  0  0  0  0  0  0  0  0  0
   58.0940   27.2960   45.1710 C   0  0  0  0  0  0  0  0  0  0  0  0
   58.3460   27.7820   46.4640 C   0  0  0  0  0  0  0  0  0  0  0  0
   58.5116   27.0749   47.2902 H   0  0  0  0  0  0  0  0  0  0  0  0
   58.3880   29.1560   46.7090 C   0  0  0  0  0  0  0  0  0  0  0  0
   58.5830   29.5211   47.7282 H   0  0  0  0  0  0  0  0  0  0  0  0
   58.1830   30.0820   45.6630 C   0  0  0  0  0  0  0  0  0  0  0  0
   58.2060   31.4810   45.8900 C   0  0  0  0  0  0  0  0  0  0  0  0
   58.3990   31.9050   47.1150 N   0  0  0  0  0  0  0  0  0  0  0  0
   59.4530   32.7170   47.6440 C   0  0  0  0  0  0  0  0  0  0  0  0
   59.2760   33.4170   48.8480 C   0  0  0  0  0  0  0  0  0  0  0  0
   58.3064   33.3828   49.3663 H   0  0  0  0  0  0  0  0  0  0  0  0
   60.3320   34.1580   49.3890 C   0  0  0  0  0  0  0  0  0  0  0  0
   60.1861   34.7204   50.3230 H   0  0  0  0  0  0  0  0  0  0  0  0
   61.5720   34.1850   48.7450 C   0  0  0  0  0  0  0  0  0  0  0  0
   62.5890   34.9070   49.2780 F   0  0  0  0  0  0  0  0  0  0  0  0
   61.7620   33.4600   47.5600 C   0  0  0  0  0  0  0  0  0  0  0  0
   63.3210   33.4720   46.7540 Cl  0  0  0  0  0  0  0  0  0  0  0  0
   60.7060   32.7170   47.0190 C   0  0  0  0  0  0  0  0  0  0  0  0
   60.8610   32.1317   46.1006 H   0  0  0  0  0  0  0  0  0  0  0  0
   58.0360   32.3480   44.7700 C   0  0  0  0  0  0  0  0  0  0  0  0
   58.2170   33.7800   44.8270 C   0  0  0  0  0  0  0  0  0  0  0  0
   58.3680   34.9270   44.8820 N   0  0  0  0  0  0  0  0  0  0  0  0
   57.7850   31.7990   43.5090 C   0  0  0  0  0  0  0  0  0  0  0  0
   57.6306   32.4665   42.6484 H   0  0  0  0  0  0  0  0  0  0  0  0
   57.7290   30.4550   43.3310 N   0  0  0  0  0  0  0  0  0  0  0  0
   57.5420   30.0930   42.3680 H   0  0  0  0  0  0  0  0  0  0  0  0
   57.9320   29.5890   44.3610 C   0  0  0  0  0  0  0  0  0  0  0  0
   57.8910   28.2060   44.1280 C   0  0  0  0  0  0  0  0  0  0  0  0
   57.6967   27.8323   43.1118 H   0  0  0  0  0  0  0  0  0  0  0  0
  1  2  1  0
  2  3  1  0
  2  4  2  0
  4  5  1  0
  4  6  1  0
  6  7  1  0
  6  8  1  0
  6  9  1  0
  9 10  1  0
 10 11  2  0
 11 12  1  0
 11 13  1  0
 13 14  1  0
 13 15  2  0
 15 16  1  0
 16 17  2  0
 17 18  1  0
 18 19  2  0
 19 20  1  0
 19 21  1  0
 21 22  1  0
 21 23  2  0
 23 24  1  0
 23 25  1  0
 25 26  1  0
 25 27  2  0
 27 28  1  0
 16 29  1  0
 29 30  1  0
 30 31  3  0
 29 32  2  0
 32 33  1  0
 32 34  1  0
 34 35  1  0
 34 36  1  0
 36 37  2  0
 37 38  1  0
 37 10  1  0
 36 15  1  0
 27 18  1  0
M  END
>  <UniqueID>  (86) 
79

>  <SMILES>  (86) 
C=CCOc1ccc2/c(=N/c3ccc(F)c(Cl)c3)c(C#N)c[nH]c2c1

>  <Energy>  (86) 
58.632717937192794

>  <Genealogy>  (86) 
C=CCOc1ccc2/c(=N/c3ccc(F)c(Cl)c3)c(C#N)c[nH]c2c1 (cis-trans isomerization)
C=CCOc1ccc2/c(=N/c3ccc(F)c(Cl)c3)c(C#N)c[nH]c2c1 (3D coordinates assigned)
C=CCOc1ccc2/c(=N/c3ccc(F)c(Cl)c3)c(C#N)c[nH]c2c1 (optimized conformer: 58.632717937192794 kcal/mol)

>  <smiles>  (86) 
C=CCOc1ccc2c(=Nc3ccc(F)c(Cl)c3)c(C#N)c[nH]c2c1

>  <score_type>  (86) 
oracle

>  <origin>  (86) 
adg

>  <m_score__min__energy>  (86) 
-7.1699999999999999

>  <m_primary>  (86) 
energy

$$$$
86:0
     RDKit          3D

 48 50  0  0  0  0  0  0  0  0999 V2000
   58.5610   33.6200   53.2580 C   0  0  0  0  0  0  0  0  0  0  0  0
   59.5440   33.0330   52.2560 C   0  0  0  0  0  0  0  0  0  0  0  0
   59.4120   33.7290   50.9790 N   0  0  0  0  0  0  0  0  0  0  0  0
   59.1290   32.5800   49.7080 S   0  0  0  0  0  0  0  0  0  0  0  0
   57.7740   31.9570   49.8930 O   0  0  0  0  0  0  0  0  0  0  0  0
   60.1570   31.4850   49.7870 O   0  0  0  0  0  0  0  0  0  0  0  0
   59.2050   33.3610   48.1210 C   0  0  0  0  0  0  0  0  0  0  0  0
   58.2800   32.9800   47.1360 C   0  0  0  0  0  0  0  0  0  0  0  0
   58.2250   33.6440   45.9050 C   0  0  0  0  0  0  0  0  0  0  0  0
   57.2750   33.1960   44.9270 N   0  0  0  0  0  0  0  0  0  0  0  0
   57.4320   32.0950   44.0200 C   0  0  0  0  0  0  0  0  0  0  0  0
   57.7770   32.2980   42.8250 O   0  0  0  0  0  0  0  0  0  0  0  0
   57.1370   30.7200   44.4640 C   0  0  0  0  0  0  0  0  0  0  0  0
   58.1590   29.8360   44.8390 C   0  0  0  0  0  0  0  0  0  0  0  0
   57.8280   28.5460   45.2500 C   0  0  0  0  0  0  0  0  0  0  0  0
   56.4870   28.1640   45.2760 C   0  0  0  0  0  0  0  0  0  0  0  0
   56.1600   27.0060   45.6410 O   0  0  0  0  0  0  0  0  0  0  0  0
   55.5310   29.0540   44.9030 N   0  0  0  0  0  0  0  0  0  0  0  0
   55.8470   30.2910   44.5100 N   0  0  0  0  0  0  0  0  0  0  0  0
   59.1250   34.6890   45.6470 C   0  0  0  0  0  0  0  0  0  0  0  0
   60.0540   35.0690   46.6150 C   0  0  0  0  0  0  0  0  0  0  0  0
   60.1250   34.3960   47.8390 C   0  0  0  0  0  0  0  0  0  0  0  0
   61.1090   34.7940   48.7530 O   0  0  0  0  0  0  0  0  0  0  0  0
   62.0820   33.9540   49.3180 C   0  0  0  0  0  0  0  0  0  0  0  0
   62.4860   34.2300   50.6320 C   0  0  0  0  0  0  0  0  0  0  0  0
   63.4380   33.4310   51.2690 C   0  0  0  0  0  0  0  0  0  0  0  0
   64.0150   32.3580   50.5900 C   0  0  0  0  0  0  0  0  0  0  0  0
   63.6520   32.0900   49.2700 C   0  0  0  0  0  0  0  0  0  0  0  0
   62.6960   32.8820   48.6190 C   0  0  0  0  0  0  0  0  0  0  0  0
   62.3500   32.5170   46.8910 S   0  0  0  0  0  0  0  0  0  0  0  0
   63.3900   33.8730   46.2690 C   0  0  0  0  0  0  0  0  0  0  0  0
   58.9105   33.4113   54.2799 H   0  0  0  0  0  0  0  0  0  0  0  0
   58.4914   34.7077   53.1093 H   0  0  0  0  0  0  0  0  0  0  0  0
   57.5704   33.1654   53.1093 H   0  0  0  0  0  0  0  0  0  0  0  0
   60.5696   33.1536   52.6349 H   0  0  0  0  0  0  0  0  0  0  0  0
   59.3285   31.9636   52.1145 H   0  0  0  0  0  0  0  0  0  0  0  0
   57.5886   32.1478   47.3345 H   0  0  0  0  0  0  0  0  0  0  0  0
   59.2106   30.1573   44.8091 H   0  0  0  0  0  0  0  0  0  0  0  0
   58.6146   27.8381   45.5501 H   0  0  0  0  0  0  0  0  0  0  0  0
   59.0977   35.2099   44.6785 H   0  0  0  0  0  0  0  0  0  0  0  0
   60.7380   35.9067   46.4139 H   0  0  0  0  0  0  0  0  0  0  0  0
   62.0482   35.0855   51.1672 H   0  0  0  0  0  0  0  0  0  0  0  0
   63.7328   33.6480   52.3063 H   0  0  0  0  0  0  0  0  0  0  0  0
   64.7569   31.7226   51.0958 H   0  0  0  0  0  0  0  0  0  0  0  0
   64.1199   31.2501   48.7355 H   0  0  0  0  0  0  0  0  0  0  0  0
   63.8156   34.4279   47.1181 H   0  0  0  0  0  0  0  0  0  0  0  0
   64.2044   33.4591   45.6563 H   0  0  0  0  0  0  0  0  0  0  0  0
   62.7791   34.5523   45.6563 H   0  0  0  0  0  0  0  0  0  0  0  0
  1  2  1  0
  2  3  1  0
  3  4  1  0
  4  5  2  0
  4  6  2  0
  4  7  1  0
  7  8  2  0
  8  9  1  0
  9 10  1  0
 10 11  1  0
 11 12  2  0
 11 13  1  0
 13 14  1  0
 14 15  2  0
 15 16  1  0
 16 17  2  0
 16 18  1  0
 18 19  1  0
  9 20  2  0
 20 21  1  0
 21 22  2  0
 22 23  1  0
 23 24  1  0
 24 25  2  0
 25 26  1  0
 26 27  2  0
 27 28  1  0
 28 29  2  0
 29 30  1  0
 30 31  1  0
 22  7  1  0
 29 24  1  0
 19 13  2  0
  1 32  1  0
  1 33  1  0
  1 34  1  0
  2 35  1  0
  2 36  1  0
  8 37  1  0
 14 38  1  0
 15 39  1  0
 20 40  1  0
 21 41  1  0
 25 42  1  0
 26 43  1  0
 27 44  1  0
 28 45  1  0
 31 46  1  0
 31 47  1  0
 31 48  1  0
M  CHG  3   3  -1  10  -1  18  -1
M  END
>  <UniqueID>  (87) 
80

>  <SMILES>  (87) 
CC[N-]S(=O)(=O)c1cc([N-]C(=O)c2ccc(=O)[n-]n2)ccc1Oc1ccccc1SC

>  <Energy>  (87) 
56.330760397012156

>  <Genealogy>  (87) 
CC[N-]S(=O)(=O)c1cc([N-]C(=O)c2ccc(=O)[n-]n2)ccc1Oc1ccccc1SC (protonated)
CC[N-]S(=O)(=O)c1cc([N-]C(=O)c2ccc(=O)[n-]n2)ccc1Oc1ccccc1SC (3D coordinates assigned)
CC[N-]S(=O)(=O)c1cc([N-]C(=O)c2ccc(=O)[n-]n2)ccc1Oc1ccccc1SC (optimized conformer: 56.330760397012156 kcal/mol)

>  <smiles>  (87) 
CCNS(=O)(=O)c1cc(NC(=O)c2ccc(=O)[nH]n2)ccc1Oc1ccccc1SC

>  <score_type>  (87) 
oracle

>  <origin>  (87) 
adg

>  <m_score__min__energy>  (87) 
-14.140000000000001

>  <m_primary>  (87) 
energy

$$$$
87:0
     RDKit          3D

 28 29  0  0  0  0  0  0  0  0999 V2000
   56.6530   20.5600   43.0490 C   0  0  0  0  0  0  0  0  0  0  0  0
   56.1350   21.8860   43.0030 O   0  0  0  0  0  0  0  0  0  0  0  0
   56.6230   22.9530   43.7720 C   0  0  0  0  0  0  0  0  0  0  0  0
   56.8240   22.7480   45.1410 C   0  0  0  0  0  0  0  0  0  0  0  0
   57.3090   23.7790   45.9510 C   0  0  0  0  0  0  0  0  0  0  0  0
   57.6030   25.0350   45.3990 C   0  0  0  0  0  0  0  0  0  0  0  0
   58.0930   26.1570   46.2760 C   0  0  0  0  0  0  0  0  0  0  0  0
   57.5950   27.4900   45.7630 C   0  0  0  0  0  0  0  0  0  0  0  0
   56.2200   27.7430   45.6180 C   0  0  0  0  0  0  0  0  0  0  0  0
   55.2810   26.7820   45.9800 O   0  0  0  0  0  0  0  0  0  0  0  0
   55.7930   28.9350   45.1230 N   0  0  0  0  0  0  0  0  0  0  0  0
   56.6810   29.8980   44.7570 C   0  0  0  0  0  0  0  0  0  0  0  0
   56.2710   30.9970   44.3000 O   0  0  0  0  0  0  0  0  0  0  0  0
   58.0130   29.6770   44.8820 N   0  0  0  0  0  0  0  0  0  0  0  0
   58.4900   28.5030   45.3710 C   0  0  0  0  0  0  0  0  0  0  0  0
   59.7350   28.3380   45.4690 O   0  0  0  0  0  0  0  0  0  0  0  0
   57.3980   25.2460   44.0260 C   0  0  0  0  0  0  0  0  0  0  0  0
   56.9140   24.2140   43.2160 C   0  0  0  0  0  0  0  0  0  0  0  0
   56.7742   20.2498   44.0974 H   0  0  0  0  0  0  0  0  0  0  0  0
   55.9559   19.8762   42.5426 H   0  0  0  0  0  0  0  0  0  0  0  0
   57.6290   20.5299   42.5426 H   0  0  0  0  0  0  0  0  0  0  0  0
   56.5984   21.7668   45.5842 H   0  0  0  0  0  0  0  0  0  0  0  0
   57.4609   23.6047   47.0264 H   0  0  0  0  0  0  0  0  0  0  0  0
   57.7233   26.0029   47.3005 H   0  0  0  0  0  0  0  0  0  0  0  0
   59.1929   26.1613   46.2650 H   0  0  0  0  0  0  0  0  0  0  0  0
   54.7680   29.1120   45.0220 H   0  0  0  0  0  0  0  0  0  0  0  0
   57.6195   26.2291   43.5849 H   0  0  0  0  0  0  0  0  0  0  0  0
   56.7600   24.3876   42.1408 H   0  0  0  0  0  0  0  0  0  0  0  0
  1  2  1  0
  2  3  1  0
  3  4  2  0
  4  5  1  0
  5  6  2  0
  6  7  1  0
  7  8  1  0
  8  9  2  0
  9 10  1  0
  9 11  1  0
 11 12  1  0
 12 13  2  0
 12 14  1  0
 14 15  1  0
 15 16  2  0
  6 17  1  0
 17 18  2  0
 18  3  1  0
 15  8  1  0
  1 19  1  0
  1 20  1  0
  1 21  1  0
  4 22  1  0
  5 23  1  0
  7 24  1  0
  7 25  1  0
 11 26  1  0
 17 27  1  0
 18 28  1  0
M  CHG  2  10  -1  14  -1
M  END
>  <UniqueID>  (88) 
81

>  <SMILES>  (88) 
COc1ccc(Cc2c([O-])[nH]c(=O)[n-]c2=O)cc1

>  <Energy>  (88) 
29.308400175929812

>  <Genealogy>  (88) 
COc1ccc(Cc2c([O-])[nH]c(=O)[n-]c2=O)cc1 (protonated)
COc1ccc(Cc2c([O-])[nH]c(=O)[n-]c2=O)cc1 (3D coordinates assigned)
COc1ccc(Cc2c([O-])[nH]c(=O)[n-]c2=O)cc1 (optimized conformer: 29.308400175929812 kcal/mol)

>  <smiles>  (88) 
COc1ccc(Cc2c(O)[nH]c(=O)[nH]c2=O)cc1

>  <score_type>  (88) 
oracle

>  <origin>  (88) 
adg

>  <m_score__min__energy>  (88) 
-11.369999999999999

>  <m_primary>  (88) 
energy

$$$$
88:0
     RDKit          3D

 40 43  0  0  0  0  0  0  0  0999 V2000
   55.1500   26.7150   45.8800 O   0  0  0  0  0  0  0  0  0  0  0  0
   56.5060   27.0150   45.8570 C   0  0  0  0  0  0  0  0  0  0  0  0
   57.4450   25.9930   45.6950 C   0  0  0  0  0  0  0  0  0  0  0  0
   58.8070   26.2960   45.6600 C   0  0  0  0  0  0  0  0  0  0  0  0
   59.2360   27.6200   45.7910 C   0  0  0  0  0  0  0  0  0  0  0  0
   58.3030   28.6580   45.9680 C   0  0  0  0  0  0  0  0  0  0  0  0
   58.7710   30.0600   46.1010 C   0  0  0  0  0  0  0  0  0  0  0  0
   58.1350   31.0420   45.4060 N   0  0  0  0  0  0  0  0  0  0  0  0
   58.5190   32.3400   45.4960 C   0  0  0  0  0  0  0  0  0  0  0  0
   57.8330   33.3240   44.7750 C   0  0  0  0  0  0  0  0  0  0  0  0
   58.2200   34.6630   44.8780 C   0  0  0  0  0  0  0  0  0  0  0  0
   59.2910   35.0230   45.7020 C   0  0  0  0  0  0  0  0  0  0  0  0
   59.9820   34.0470   46.4240 C   0  0  0  0  0  0  0  0  0  0  0  0
   59.6050   32.6950   46.3220 C   0  0  0  0  0  0  0  0  0  0  0  0
   60.2660   31.6670   47.0190 C   0  0  0  0  0  0  0  0  0  0  0  0
   61.3940   31.9510   47.8570 N   0  0  0  0  0  0  0  0  0  0  0  0
   61.2850   31.7430   49.3020 C   0  0  0  0  0  0  0  0  0  0  0  0
   61.7750   32.9800   50.0560 C   0  0  0  0  0  0  0  0  0  0  0  0
   63.4320   33.5900   49.5380 S   0  0  0  0  0  0  0  0  0  0  0  0
   63.8140   32.3570   48.2450 C   0  0  0  0  0  0  0  0  0  0  0  0
   62.6810   32.2610   47.2230 C   0  0  0  0  0  0  0  0  0  0  0  0
   59.8340   30.3810   46.8960 N   0  0  0  0  0  0  0  0  0  0  0  0
   56.9300   28.3420   45.9910 C   0  0  0  0  0  0  0  0  0  0  0  0
   57.1108   24.9498   45.5951 H   0  0  0  0  0  0  0  0  0  0  0  0
   59.5449   25.4908   45.5290 H   0  0  0  0  0  0  0  0  0  0  0  0
   60.3107   27.8519   45.7554 H   0  0  0  0  0  0  0  0  0  0  0  0
   56.9893   33.0436   44.1273 H   0  0  0  0  0  0  0  0  0  0  0  0
   57.6810   35.4353   44.3097 H   0  0  0  0  0  0  0  0  0  0  0  0
   59.5904   36.0785   45.7819 H   0  0  0  0  0  0  0  0  0  0  0  0
   60.8219   34.3356   47.0731 H   0  0  0  0  0  0  0  0  0  0  0  0
   60.2335   31.5523   49.5626 H   0  0  0  0  0  0  0  0  0  0  0  0
   61.9067   30.8814   49.5868 H   0  0  0  0  0  0  0  0  0  0  0  0
   61.0469   33.7890   49.8968 H   0  0  0  0  0  0  0  0  0  0  0  0
   61.8689   32.6837   51.1112 H   0  0  0  0  0  0  0  0  0  0  0  0
   64.7392   32.6529   47.7288 H   0  0  0  0  0  0  0  0  0  0  0  0
   63.9356   31.3746   48.7246 H   0  0  0  0  0  0  0  0  0  0  0  0
   62.5951   33.2230   46.6965 H   0  0  0  0  0  0  0  0  0  0  0  0
   62.9212   31.4456   46.5248 H   0  0  0  0  0  0  0  0  0  0  0  0
   60.3600   29.6340   47.4010 H   0  0  0  0  0  0  0  0  0  0  0  0
   56.1867   29.1434   46.1151 H   0  0  0  0  0  0  0  0  0  0  0  0
  1  2  1  0
  2  3  2  0
  3  4  1  0
  4  5  2  0
  5  6  1  0
  6  7  1  0
  7  8  2  0
  8  9  1  0
  9 10  2  0
 10 11  1  0
 11 12  2  0
 12 13  1  0
 13 14  2  0
 14 15  1  0
 15 16  1  0
 16 17  1  0
 17 18  1  0
 18 19  1  0
 19 20  1  0
 20 21  1  0
 15 22  2  0
  6 23  2  0
 23  2  1  0
 22  7  1  0
 14  9  1  0
 21 16  1  0
  3 24  1  0
  4 25  1  0
  5 26  1  0
 10 27  1  0
 11 28  1  0
 12 29  1  0
 13 30  1  0
 17 31  1  0
 17 32  1  0
 18 33  1  0
 18 34  1  0
 20 35  1  0
 20 36  1  0
 21 37  1  0
 21 38  1  0
 22 39  1  0
 23 40  1  0
M  CHG  2   1  -1  22   1
M  END
>  <UniqueID>  (89) 
82

>  <SMILES>  (89) 
[O-]c1cccc(-c2nc3ccccc3c(N3CCSCC3)[nH+]2)c1

>  <Energy>  (89) 
56.41003841886882

>  <Genealogy>  (89) 
[O-]c1cccc(-c2nc3ccccc3c(N3CCSCC3)[nH+]2)c1 (protonated)
[O-]c1cccc(-c2nc3ccccc3c(N3CCSCC3)[nH+]2)c1 (3D coordinates assigned)
[O-]c1cccc(-c2nc3ccccc3c(N3CCSCC3)[nH+]2)c1 (nonaromatic ring conformer: 56.41003841886882 kcal/mol)

>  <smiles>  (89) 
Oc1cccc(-c2nc(N3CCSCC3)c3ccccc3n2)c1

>  <score_type>  (89) 
oracle

>  <origin>  (89) 
adg

>  <m_score__min__energy>  (89) 
-10.140000000000001

>  <m_primary>  (89) 
energy

$$$$
89:0
     RDKit          3D

 54 57  0  0  0  0  0  0  0  0999 V2000
   58.2640   21.4930   43.7420 C   0  0  0  0  0  0  0  0  0  0  0  0
   57.0380   21.0930   42.9310 C   0  0  0  0  0  0  0  0  0  0  0  0
   55.9200   21.9180   43.2590 O   0  0  0  0  0  0  0  0  0  0  0  0
   55.7540   22.6330   44.4560 C   0  0  0  0  0  0  0  0  0  0  0  0
   55.1650   22.0690   45.6050 C   0  0  0  0  0  0  0  0  0  0  0  0
   55.0460   22.8240   46.7740 C   0  0  0  0  0  0  0  0  0  0  0  0
   55.5140   24.1390   46.8170 C   0  0  0  0  0  0  0  0  0  0  0  0
   56.1050   24.7150   45.6820 C   0  0  0  0  0  0  0  0  0  0  0  0
   56.6010   26.0610   45.6750 N   0  0  0  0  0  0  0  0  0  0  0  0
   58.0930   26.5760   44.9530 S   0  0  0  0  0  0  0  0  0  0  0  0
   58.0420   26.3740   43.4630 O   0  0  0  0  0  0  0  0  0  0  0  0
   59.2180   25.7460   45.5050 O   0  0  0  0  0  0  0  0  0  0  0  0
   58.3850   28.2650   45.3570 C   0  0  0  0  0  0  0  0  0  0  0  0
   58.9930   28.5870   46.5940 C   0  0  0  0  0  0  0  0  0  0  0  0
   59.2080   29.9260   46.9650 C   0  0  0  0  0  0  0  0  0  0  0  0
   58.7990   30.9270   46.0740 C   0  0  0  0  0  0  0  0  0  0  0  0
   58.2010   30.6060   44.8810 C   0  0  0  0  0  0  0  0  0  0  0  0
   57.9800   29.2920   44.4800 C   0  0  0  0  0  0  0  0  0  0  0  0
   57.8930   31.8110   44.3010 C   0  0  0  0  0  0  0  0  0  0  0  0
   57.3200   31.9750   43.1910 O   0  0  0  0  0  0  0  0  0  0  0  0
   58.2910   32.8120   45.1220 N   0  0  0  0  0  0  0  0  0  0  0  0
   58.1290   34.2430   44.8610 C   0  0  0  0  0  0  0  0  0  0  0  0
   58.8710   32.2750   46.2010 N   0  0  0  0  0  0  0  0  0  0  0  0
   59.4200   33.0290   47.3390 C   0  0  0  0  0  0  0  0  0  0  0  0
   60.9340   33.0220   47.3310 C   0  0  0  0  0  0  0  0  0  0  0  0
   61.6180   33.8430   46.4140 C   0  0  0  0  0  0  0  0  0  0  0  0
   63.0150   33.8540   46.3710 C   0  0  0  0  0  0  0  0  0  0  0  0
   63.7480   33.0560   47.2480 C   0  0  0  0  0  0  0  0  0  0  0  0
   63.0890   32.2500   48.1790 C   0  0  0  0  0  0  0  0  0  0  0  0
   61.6870   32.2300   48.2330 C   0  0  0  0  0  0  0  0  0  0  0  0
   61.0520   31.4010   49.2310 C   0  0  0  0  0  0  0  0  0  0  0  0
   60.5370   30.7380   50.0270 N   0  0  0  0  0  0  0  0  0  0  0  0
   56.2100   23.9570   44.5060 C   0  0  0  0  0  0  0  0  0  0  0  0
   58.0342   21.4180   44.8151 H   0  0  0  0  0  0  0  0  0  0  0  0
   59.1001   20.8210   43.4982 H   0  0  0  0  0  0  0  0  0  0  0  0
   58.5429   22.5287   43.4982 H   0  0  0  0  0  0  0  0  0  0  0  0
   57.2636   21.2011   41.8598 H   0  0  0  0  0  0  0  0  0  0  0  0
   56.7857   20.0486   43.1665 H   0  0  0  0  0  0  0  0  0  0  0  0
   54.7982   21.0322   45.5813 H   0  0  0  0  0  0  0  0  0  0  0  0
   54.5807   22.3800   47.6664 H   0  0  0  0  0  0  0  0  0  0  0  0
   55.4191   24.7249   47.7431 H   0  0  0  0  0  0  0  0  0  0  0  0
   59.3013   27.7791   47.2739 H   0  0  0  0  0  0  0  0  0  0  0  0
   59.6823   30.1797   47.9245 H   0  0  0  0  0  0  0  0  0  0  0  0
   57.5065   29.0628   43.5139 H   0  0  0  0  0  0  0  0  0  0  0  0
   58.0676   34.7853   45.8161 H   0  0  0  0  0  0  0  0  0  0  0  0
   58.9913   34.6106   44.2854 H   0  0  0  0  0  0  0  0  0  0  0  0
   57.2064   34.4086   44.2854 H   0  0  0  0  0  0  0  0  0  0  0  0
   59.0671   34.0693   47.2821 H   0  0  0  0  0  0  0  0  0  0  0  0
   59.0777   32.5495   48.2679 H   0  0  0  0  0  0  0  0  0  0  0  0
   61.0471   34.4822   45.7245 H   0  0  0  0  0  0  0  0  0  0  0  0
   63.5369   34.4934   45.6439 H   0  0  0  0  0  0  0  0  0  0  0  0
   64.8472   33.0611   47.2067 H   0  0  0  0  0  0  0  0  0  0  0  0
   63.6722   31.6276   48.8736 H   0  0  0  0  0  0  0  0  0  0  0  0
   56.6575   24.4094   43.6088 H   0  0  0  0  0  0  0  0  0  0  0  0
  1  2  1  0
  2  3  1  0
  3  4  1  0
  4  5  2  0
  5  6  1  0
  6  7  2  0
  7  8  1  0
  8  9  1  0
  9 10  1  0
 10 11  2  0
 10 12  2  0
 10 13  1  0
 13 14  2  0
 14 15  1  0
 15 16  2  0
 16 17  1  0
 17 18  2  0
 17 19  1  0
 19 20  2  0
 19 21  1  0
 21 22  1  0
 21 23  1  0
 23 24  1  0
 24 25  1  0
 25 26  2  0
 26 27  1  0
 27 28  2  0
 28 29  1  0
 29 30  2  0
 30 31  1  0
 31 32  3  0
  8 33  2  0
 33  4  1  0
 18 13  1  0
 30 25  1  0
 23 16  1  0
  1 34  1  0
  1 35  1  0
  1 36  1  0
  2 37  1  0
  2 38  1  0
  5 39  1  0
  6 40  1  0
  7 41  1  0
 14 42  1  0
 15 43  1  0
 18 44  1  0
 22 45  1  0
 22 46  1  0
 22 47  1  0
 24 48  1  0
 24 49  1  0
 26 50  1  0
 27 51  1  0
 28 52  1  0
 29 53  1  0
 33 54  1  0
M  CHG  1   9  -1
M  END
>  <UniqueID>  (90) 
83

>  <SMILES>  (90) 
CCOc1cccc([N-]S(=O)(=O)c2ccc3c(c2)c(=O)n(C)n3Cc2ccccc2C#N)c1

>  <Energy>  (90) 
102.77845811378995

>  <Genealogy>  (90) 
CCOc1cccc([N-]S(=O)(=O)c2ccc3c(c2)c(=O)n(C)n3Cc2ccccc2C#N)c1 (protonated)
CCOc1cccc([N-]S(=O)(=O)c2ccc3c(c2)c(=O)n(C)n3Cc2ccccc2C#N)c1 (3D coordinates assigned)
CCOc1cccc([N-]S(=O)(=O)c2ccc3c(c2)c(=O)n(C)n3Cc2ccccc2C#N)c1 (optimized conformer: 102.77845811378995 kcal/mol)

>  <smiles>  (90) 
CCOc1cccc(NS(=O)(=O)c2ccc3c(c2)c(=O)n(C)n3Cc2ccccc2C#N)c1

>  <score_type>  (90) 
oracle

>  <origin>  (90) 
adg

>  <m_score__min__energy>  (90) 
-10.57

>  <m_primary>  (90) 
energy

$$$$
90:0
     RDKit          3D

 31 33  0  0  0  0  0  0  0  0999 V2000
   61.0240   33.6230   49.6520 C   0  0  0  0  0  0  0  0  0  0  0  0
   60.2150   33.6170   48.3880 C   0  0  0  0  0  0  0  0  0  0  0  0
   58.9220   33.0790   48.3790 C   0  0  0  0  0  0  0  0  0  0  0  0
   58.1520   33.1060   47.2130 C   0  0  0  0  0  0  0  0  0  0  0  0
   58.6600   33.6880   46.0350 C   0  0  0  0  0  0  0  0  0  0  0  0
   57.8470   33.7180   44.7970 C   0  0  0  0  0  0  0  0  0  0  0  0
   57.1950   34.7550   44.4990 O   0  0  0  0  0  0  0  0  0  0  0  0
   57.7620   32.5520   43.9650 N   0  0  0  0  0  0  0  0  0  0  0  0
   57.3520   31.2380   44.3700 C   0  0  0  0  0  0  0  0  0  0  0  0
   56.0150   30.8410   44.1200 C   0  0  0  0  0  0  0  0  0  0  0  0
   55.5520   29.5730   44.5150 C   0  0  0  0  0  0  0  0  0  0  0  0
   56.4480   28.7360   45.1710 C   0  0  0  0  0  0  0  0  0  0  0  0
   56.3130   27.4700   45.6880 C   0  0  0  0  0  0  0  0  0  0  0  0
   55.1640   26.6900   45.6490 O   0  0  0  0  0  0  0  0  0  0  0  0
   57.4500   27.0910   46.2400 O   0  0  0  0  0  0  0  0  0  0  0  0
   58.3340   28.0660   46.1060 C   0  0  0  0  0  0  0  0  0  0  0  0
   57.7340   29.1140   45.4360 C   0  0  0  0  0  0  0  0  0  0  0  0
   58.2260   30.3610   45.0590 C   0  0  0  0  0  0  0  0  0  0  0  0
   59.9530   34.2430   46.0560 C   0  0  0  0  0  0  0  0  0  0  0  0
   60.7210   34.2130   47.2240 C   0  0  0  0  0  0  0  0  0  0  0  0
   60.3482   33.6180   50.5199 H   0  0  0  0  0  0  0  0  0  0  0  0
   61.6651   32.7296   49.6813 H   0  0  0  0  0  0  0  0  0  0  0  0
   61.6517   34.5258   49.6813 H   0  0  0  0  0  0  0  0  0  0  0  0
   58.5097   32.6322   49.2958 H   0  0  0  0  0  0  0  0  0  0  0  0
   57.1422   32.6697   47.2151 H   0  0  0  0  0  0  0  0  0  0  0  0
   55.3297   31.5340   43.6100 H   0  0  0  0  0  0  0  0  0  0  0  0
   54.5187   29.2550   44.3124 H   0  0  0  0  0  0  0  0  0  0  0  0
   59.3727   28.0454   46.4676 H   0  0  0  0  0  0  0  0  0  0  0  0
   59.2605   30.6559   45.2888 H   0  0  0  0  0  0  0  0  0  0  0  0
   60.3631   34.7045   45.1456 H   0  0  0  0  0  0  0  0  0  0  0  0
   61.7266   34.6589   47.2298 H   0  0  0  0  0  0  0  0  0  0  0  0
  1  2  1  0
  2  3  2  0
  3  4  1  0
  4  5  2  0
  5  6  1  0
  6  7  2  0
  6  8  1  0
  8  9  1  0
  9 10  1  0
 10 11  2  0
 11 12  1  0
 12 13  2  0
 13 14  1  0
 13 15  1  0
 15 16  1  0
 16 17  2  0
 17 18  1  0
  5 19  1  0
 19 20  2  0
 20  2  1  0
 18  9  2  0
 17 12  1  0
  1 21  1  0
  1 22  1  0
  1 23  1  0
  3 24  1  0
  4 25  1  0
 10 26  1  0
 11 27  1  0
 16 28  1  0
 18 29  1  0
 19 30  1  0
 20 31  1  0
M  CHG  2   8  -1  14  -1
M  END
>  <UniqueID>  (91) 
84

>  <SMILES>  (91) 
Cc1ccc(C(=O)[N-]c2ccc3c([O-])occ3c2)cc1

>  <Energy>  (91) 
73.46286528328615

>  <Genealogy>  (91) 
Cc1ccc(C(=O)[N-]c2ccc3c([O-])occ3c2)cc1 (protonated)
Cc1ccc(C(=O)[N-]c2ccc3c([O-])occ3c2)cc1 (3D coordinates assigned)
Cc1ccc(C(=O)[N-]c2ccc3c([O-])occ3c2)cc1 (optimized conformer: 73.46286528328615 kcal/mol)

>  <smiles>  (91) 
Cc1ccc(C(=O)Nc2ccc3c(O)occ3c2)cc1

>  <score_type>  (91) 
oracle

>  <origin>  (91) 
adg

>  <m_score__min__energy>  (91) 
-10.56

>  <m_primary>  (91) 
energy

$$$$
91:0
     RDKit          3D

 40 42  0  0  0  0  0  0  0  0999 V2000
   59.2079   26.8930   47.5784 H   0  0  0  0  0  0  0  0  0  0  0  0
   58.3220   27.1920   46.9990 C   0  0  0  0  0  0  0  0  0  0  0  0
   57.2290   26.4970   47.0910 N   0  0  0  0  0  0  0  0  0  0  0  0
   56.8230   25.4650   46.1790 C   0  0  0  0  0  0  0  0  0  0  0  0
   57.7860   24.5420   45.7550 C   0  0  0  0  0  0  0  0  0  0  0  0
   58.8180   24.6222   46.1272 H   0  0  0  0  0  0  0  0  0  0  0  0
   57.4500   23.5200   44.8640 C   0  0  0  0  0  0  0  0  0  0  0  0
   58.2141   22.7932   44.5512 H   0  0  0  0  0  0  0  0  0  0  0  0
   56.1390   23.4160   44.3650 C   0  0  0  0  0  0  0  0  0  0  0  0
   55.7500   22.4060   43.4730 O   0  0  0  0  0  0  0  0  0  0  0  0
   56.6570   21.5910   42.7370 C   0  0  0  0  0  0  0  0  0  0  0  0
   57.2891   21.0230   43.4354 H   0  0  0  0  0  0  0  0  0  0  0  0
   56.0909   20.8922   42.1036 H   0  0  0  0  0  0  0  0  0  0  0  0
   57.2915   22.2283   42.1036 H   0  0  0  0  0  0  0  0  0  0  0  0
   55.1830   24.3560   44.7630 C   0  0  0  0  0  0  0  0  0  0  0  0
   54.1565   24.2849   44.3740 H   0  0  0  0  0  0  0  0  0  0  0  0
   55.5160   25.3860   45.6500 C   0  0  0  0  0  0  0  0  0  0  0  0
   54.5510   26.3360   45.9670 O   0  0  0  0  0  0  0  0  0  0  0  0
   58.3870   28.3760   46.1270 C   0  0  0  0  0  0  0  0  0  0  0  0
   58.3980   28.4520   44.7380 C   0  0  0  0  0  0  0  0  0  0  0  0
   58.3310   27.3120   43.7710 C   0  0  0  0  0  0  0  0  0  0  0  0
   58.2753   26.3636   44.3255 H   0  0  0  0  0  0  0  0  0  0  0  0
   57.4376   27.4199   43.1383 H   0  0  0  0  0  0  0  0  0  0  0  0
   59.2308   27.3145   43.1383 H   0  0  0  0  0  0  0  0  0  0  0  0
   58.4810   29.7480   44.3680 N   0  0  0  0  0  0  0  0  0  0  0  0
   58.4930   30.1060   43.3870 H   0  0  0  0  0  0  0  0  0  0  0  0
   58.5180   30.5050   45.4550 N   0  0  0  0  0  0  0  0  0  0  0  0
   58.6130   31.9420   45.4410 C   0  0  0  0  0  0  0  0  0  0  0  0
   59.7100   32.5980   46.0300 C   0  0  0  0  0  0  0  0  0  0  0  0
   60.5105   32.0092   46.5016 H   0  0  0  0  0  0  0  0  0  0  0  0
   59.7880   33.9940   46.0190 C   0  0  0  0  0  0  0  0  0  0  0  0
   60.6488   34.4996   46.4810 H   0  0  0  0  0  0  0  0  0  0  0  0
   58.7740   34.7480   45.4220 C   0  0  0  0  0  0  0  0  0  0  0  0
   58.8394   35.8460   45.4106 H   0  0  0  0  0  0  0  0  0  0  0  0
   57.6780   34.1080   44.8400 C   0  0  0  0  0  0  0  0  0  0  0  0
   56.8792   34.7023   44.3724 H   0  0  0  0  0  0  0  0  0  0  0  0
   57.5950   32.7120   44.8510 C   0  0  0  0  0  0  0  0  0  0  0  0
   56.7273   32.2128   44.3949 H   0  0  0  0  0  0  0  0  0  0  0  0
   58.4680   29.6930   46.5330 C   0  0  0  0  0  0  0  0  0  0  0  0
   58.5220   30.0880   47.7300 O   0  0  0  0  0  0  0  0  0  0  0  0
  1  2  1  0
  2  3  2  0
  3  4  1  0
  4  5  2  0
  5  6  1  0
  5  7  1  0
  7  8  1  0
  7  9  2  0
  9 10  1  0
 10 11  1  0
 11 12  1  0
 11 13  1  0
 11 14  1  0
  9 15  1  0
 15 16  1  0
 15 17  2  0
 17 18  1  0
  2 19  1  0
 19 20  2  0
 20 21  1  0
 21 22  1  0
 21 23  1  0
 21 24  1  0
 20 25  1  0
 25 26  1  0
 25 27  1  0
 27 28  1  0
 28 29  2  0
 29 30  1  0
 29 31  1  0
 31 32  1  0
 31 33  2  0
 33 34  1  0
 33 35  1  0
 35 36  1  0
 35 37  2  0
 37 38  1  0
 27 39  1  0
 39 40  2  0
 17  4  1  0
 39 19  1  0
 37 28  1  0
M  CHG  1  18  -1
M  END
>  <UniqueID>  (92) 
85

>  <SMILES>  (92) 
COc1ccc(/N=C/c2c(C)[nH]n(-c3ccccc3)c2=O)c([O-])c1

>  <Energy>  (92) 
83.46339401485153

>  <Genealogy>  (92) 
COc1ccc(N=Cc2c(C)[nH]n(-c3ccccc3)c2=O)c([O-])c1 (protonated)
COc1ccc(/N=C/c2c(C)[nH]n(-c3ccccc3)c2=O)c([O-])c1 (cis-trans isomerization)
COc1ccc(/N=C/c2c(C)[nH]n(-c3ccccc3)c2=O)c([O-])c1 (3D coordinates assigned)
COc1ccc(/N=C/c2c(C)[nH]n(-c3ccccc3)c2=O)c([O-])c1 (optimized conformer: 83.46339401485153 kcal/mol)

>  <smiles>  (92) 
COc1ccc(N=Cc2c(C)[nH]n(-c3ccccc3)c2=O)c(O)c1

>  <score_type>  (92) 
oracle

>  <origin>  (92) 
adg

>  <m_score__min__energy>  (92) 
-11.92

>  <m_primary>  (92) 
energy

$$$$
92:0
     RDKit          3D

 54 57  0  0  0  0  0  0  0  0999 V2000
   60.7570   30.3660   45.9920 O   0  0  0  0  0  0  0  0  0  0  0  0
   59.7480   29.4150   46.1520 C   0  0  0  0  0  0  0  0  0  0  0  0
   59.9810   28.2890   46.9510 C   0  0  0  0  0  0  0  0  0  0  0  0
   58.9880   27.3230   47.1140 C   0  0  0  0  0  0  0  0  0  0  0  0
   57.7410   27.4720   46.4950 C   0  0  0  0  0  0  0  0  0  0  0  0
   56.7310   26.4650   46.7010 N   0  0  0  0  0  0  0  0  0  0  0  0
   56.8580   25.0850   46.2410 C   0  0  0  0  0  0  0  0  0  0  0  0
   55.5190   24.5630   45.8220 C   0  0  0  0  0  0  0  0  0  0  0  0
   54.3820   25.2790   45.9440 N   0  0  0  0  0  0  0  0  0  0  0  0
   53.4480   24.4940   45.3800 C   0  0  0  0  0  0  0  0  0  0  0  0
   54.0390   23.3400   44.9240 C   0  0  0  0  0  0  0  0  0  0  0  0
   55.3540   23.3810   45.1930 N   0  0  0  0  0  0  0  0  0  0  0  0
   57.5090   28.5970   45.6800 C   0  0  0  0  0  0  0  0  0  0  0  0
   58.5030   29.5770   45.5100 C   0  0  0  0  0  0  0  0  0  0  0  0
   58.2540   30.7420   44.5790 C   0  0  0  0  0  0  0  0  0  0  0  0
   58.6670   32.0310   45.1760 N   0  0  0  0  0  0  0  0  0  0  0  0
   57.8840   32.2850   46.4100 C   0  0  0  0  0  0  0  0  0  0  0  0
   57.7050   33.7830   46.7490 C   0  0  0  0  0  0  0  0  0  0  0  0
   58.7690   34.6470   46.2020 N   0  0  0  0  0  0  0  0  0  0  0  0
   59.8590   35.0020   47.1360 C   0  0  0  0  0  0  0  0  0  0  0  0
   60.8020   33.8560   47.4280 C   0  0  0  0  0  0  0  0  0  0  0  0
   62.0650   33.8030   46.8150 C   0  0  0  0  0  0  0  0  0  0  0  0
   62.9480   32.7590   47.1030 C   0  0  0  0  0  0  0  0  0  0  0  0
   62.5800   31.7600   48.0070 C   0  0  0  0  0  0  0  0  0  0  0  0
   61.3370   31.8180   48.6430 C   0  0  0  0  0  0  0  0  0  0  0  0
   60.4580   32.8690   48.3680 C   0  0  0  0  0  0  0  0  0  0  0  0
   59.1770   34.3890   44.8030 C   0  0  0  0  0  0  0  0  0  0  0  0
   58.5190   33.1370   44.2180 C   0  0  0  0  0  0  0  0  0  0  0  0
   60.5490   31.3550   45.9240 H   0  0  0  0  0  0  0  0  0  0  0  0
   60.9521   28.1655   47.4527 H   0  0  0  0  0  0  0  0  0  0  0  0
   59.1864   26.4365   47.7342 H   0  0  0  0  0  0  0  0  0  0  0  0
   55.7960   26.7650   47.0600 H   0  0  0  0  0  0  0  0  0  0  0  0
   57.5482   25.0477   45.3853 H   0  0  0  0  0  0  0  0  0  0  0  0
   57.2487   24.4642   47.0608 H   0  0  0  0  0  0  0  0  0  0  0  0
   52.3784   24.7371   45.2965 H   0  0  0  0  0  0  0  0  0  0  0  0
   53.5175   22.5137   44.4187 H   0  0  0  0  0  0  0  0  0  0  0  0
   56.5403   28.7102   45.1712 H   0  0  0  0  0  0  0  0  0  0  0  0
   58.8232   30.5824   43.6514 H   0  0  0  0  0  0  0  0  0  0  0  0
   57.1731   30.7918   44.3811 H   0  0  0  0  0  0  0  0  0  0  0  0
   56.8868   31.8381   46.2841 H   0  0  0  0  0  0  0  0  0  0  0  0
   58.4491   31.8378   47.2410 H   0  0  0  0  0  0  0  0  0  0  0  0
   56.7407   34.1187   46.3399 H   0  0  0  0  0  0  0  0  0  0  0  0
   57.7505   33.8720   47.8444 H   0  0  0  0  0  0  0  0  0  0  0  0
   60.4392   35.8267   46.6963 H   0  0  0  0  0  0  0  0  0  0  0  0
   59.3884   35.2841   48.0894 H   0  0  0  0  0  0  0  0  0  0  0  0
   62.3607   34.5883   46.1038 H   0  0  0  0  0  0  0  0  0  0  0  0
   63.9342   32.7239   46.6171 H   0  0  0  0  0  0  0  0  0  0  0  0
   63.2681   30.9282   48.2182 H   0  0  0  0  0  0  0  0  0  0  0  0
   61.0502   31.0355   49.3609 H   0  0  0  0  0  0  0  0  0  0  0  0
   59.4914   32.9243   48.8901 H   0  0  0  0  0  0  0  0  0  0  0  0
   58.8934   35.2558   44.1880 H   0  0  0  0  0  0  0  0  0  0  0  0
   60.2648   34.2260   44.7985 H   0  0  0  0  0  0  0  0  0  0  0  0
   57.4510   33.3303   44.0388 H   0  0  0  0  0  0  0  0  0  0  0  0
   59.0009   32.8726   43.2652 H   0  0  0  0  0  0  0  0  0  0  0  0
  1  2  1  0
  2  3  2  0
  3  4  1  0
  4  5  2  0
  5  6  1  0
  6  7  1  0
  7  8  1  0
  8  9  2  0
  9 10  1  0
 10 11  2  0
 11 12  1  0
  5 13  1  0
 13 14  2  0
 14 15  1  0
 15 16  1  0
 16 17  1  0
 17 18  1  0
 18 19  1  0
 19 20  1  0
 20 21  1  0
 21 22  2  0
 22 23  1  0
 23 24  2  0
 24 25  1  0
 25 26  2  0
 19 27  1  0
 27 28  1  0
 14  2  1  0
 28 16  1  0
 12  8  1  0
 26 21  1  0
  1 29  1  0
  3 30  1  0
  4 31  1  0
  6 32  1  0
  7 33  1  0
  7 34  1  0
 10 35  1  0
 11 36  1  0
 13 37  1  0
 15 38  1  0
 15 39  1  0
 17 40  1  0
 17 41  1  0
 18 42  1  0
 18 43  1  0
 20 44  1  0
 20 45  1  0
 22 46  1  0
 23 47  1  0
 24 48  1  0
 25 49  1  0
 26 50  1  0
 27 51  1  0
 27 52  1  0
 28 53  1  0
 28 54  1  0
M  CHG  1  12  -1
M  END
>  <UniqueID>  (93) 
86

>  <SMILES>  (93) 
Oc1ccc(NCc2ncc[n-]2)cc1CN1CCN(Cc2ccccc2)CC1

>  <Energy>  (93) 
96.61344217036036

>  <Genealogy>  (93) 
Oc1ccc(NCc2ncc[n-]2)cc1CN1CCN(Cc2ccccc2)CC1 (protonated)
Oc1ccc(NCc2ncc[n-]2)cc1CN1CCN(Cc2ccccc2)CC1 (3D coordinates assigned)
Oc1ccc(NCc2ncc[n-]2)cc1CN1CCN(Cc2ccccc2)CC1 (nonaromatic ring conformer: 96.61344217036036 kcal/mol)

>  <smiles>  (93) 
Oc1ccc(NCc2ncc[nH]2)cc1CN1CCN(Cc2ccccc2)CC1

>  <score_type>  (93) 
oracle

>  <origin>  (93) 
adg

>  <m_score__min__energy>  (93) 
-9.3399999999999999

>  <m_primary>  (93) 
energy

$$$$
93:0
     RDKit          3D

 54 57  0  0  0  0  0  0  0  0999 V2000
   56.3440   30.1010   42.8930 C   0  0  0  0  0  0  0  0  0  0  0  0
   55.5250   29.7140   44.1190 C   0  0  0  0  0  0  0  0  0  0  0  0
   56.3930   29.5420   45.2770 N   0  0  0  0  0  0  0  0  0  0  0  0
   57.6730   28.9030   45.2220 C   0  0  0  0  0  0  0  0  0  0  0  0
   58.5960   29.3950   44.5180 O   0  0  0  0  0  0  0  0  0  0  0  0
   57.9170   27.6700   45.9940 C   0  0  0  0  0  0  0  0  0  0  0  0
   58.3610   27.6610   47.3230 C   0  0  0  0  0  0  0  0  0  0  0  0
   58.5660   28.8270   48.1430 N   0  0  0  0  0  0  0  0  0  0  0  0
   59.7290   29.0450   48.9570 C   0  0  0  0  0  0  0  0  0  0  0  0
   60.3960   28.0670   49.3870 O   0  0  0  0  0  0  0  0  0  0  0  0
   60.1060   30.4060   49.3860 C   0  0  0  0  0  0  0  0  0  0  0  0
   61.2260   30.9630   48.8490 N   0  0  0  0  0  0  0  0  0  0  0  0
   61.6320   32.2110   49.1930 C   0  0  0  0  0  0  0  0  0  0  0  0
   63.1020   32.9120   48.4480 S   0  0  0  0  0  0  0  0  0  0  0  0
   62.4110   32.9560   46.7560 C   0  0  0  0  0  0  0  0  0  0  0  0
   60.9500   33.3140   46.7790 C   0  0  0  0  0  0  0  0  0  0  0  0
   60.5430   34.5890   47.2020 C   0  0  0  0  0  0  0  0  0  0  0  0
   59.1820   34.9120   47.2580 C   0  0  0  0  0  0  0  0  0  0  0  0
   58.2210   33.9630   46.8980 C   0  0  0  0  0  0  0  0  0  0  0  0
   58.6190   32.6890   46.4800 C   0  0  0  0  0  0  0  0  0  0  0  0
   57.6860   31.7670   46.1380 F   0  0  0  0  0  0  0  0  0  0  0  0
   59.9770   32.3640   46.4190 C   0  0  0  0  0  0  0  0  0  0  0  0
   60.9180   32.9350   50.0920 N   0  0  0  0  0  0  0  0  0  0  0  0
   59.7850   32.4350   50.6460 C   0  0  0  0  0  0  0  0  0  0  0  0
   59.3390   31.1570   50.3010 C   0  0  0  0  0  0  0  0  0  0  0  0
   57.8000   30.6000   50.9500 Cl  0  0  0  0  0  0  0  0  0  0  0  0
   58.6190   26.0650   47.8100 S   0  0  0  0  0  0  0  0  0  0  0  0
   58.1750   25.3720   46.3490 C   0  0  0  0  0  0  0  0  0  0  0  0
   57.7820   26.3690   45.4590 C   0  0  0  0  0  0  0  0  0  0  0  0
   57.4420   26.0450   44.0230 C   0  0  0  0  0  0  0  0  0  0  0  0
   57.1190   24.5520   43.8290 C   0  0  0  0  0  0  0  0  0  0  0  0
   58.1430   23.6550   44.5420 C   0  0  0  0  0  0  0  0  0  0  0  0
   58.1320   23.9040   46.0560 C   0  0  0  0  0  0  0  0  0  0  0  0
   57.2952   30.5504   43.2144 H   0  0  0  0  0  0  0  0  0  0  0  0
   56.5476   29.2039   42.2900 H   0  0  0  0  0  0  0  0  0  0  0  0
   55.7802   30.8280   42.2900 H   0  0  0  0  0  0  0  0  0  0  0  0
   54.7921   30.5066   44.3301 H   0  0  0  0  0  0  0  0  0  0  0  0
   55.0077   28.7645   43.9170 H   0  0  0  0  0  0  0  0  0  0  0  0
   57.8170   29.5520   48.1820 H   0  0  0  0  0  0  0  0  0  0  0  0
   62.9559   33.7064   46.1644 H   0  0  0  0  0  0  0  0  0  0  0  0
   62.5200   31.9577   46.3071 H   0  0  0  0  0  0  0  0  0  0  0  0
   61.2961   35.3370   47.4905 H   0  0  0  0  0  0  0  0  0  0  0  0
   58.8684   35.9141   47.5858 H   0  0  0  0  0  0  0  0  0  0  0  0
   57.1519   34.2181   46.9434 H   0  0  0  0  0  0  0  0  0  0  0  0
   60.2861   31.3615   46.0882 H   0  0  0  0  0  0  0  0  0  0  0  0
   59.2159   33.0378   51.3690 H   0  0  0  0  0  0  0  0  0  0  0  0
   56.5667   26.6396   43.7225 H   0  0  0  0  0  0  0  0  0  0  0  0
   58.3186   26.2860   43.4038 H   0  0  0  0  0  0  0  0  0  0  0  0
   56.1187   24.3470   44.2381 H   0  0  0  0  0  0  0  0  0  0  0  0
   57.1562   24.3287   42.7525 H   0  0  0  0  0  0  0  0  0  0  0  0
   57.8941   22.6011   44.3489 H   0  0  0  0  0  0  0  0  0  0  0  0
   59.1453   23.8913   44.1552 H   0  0  0  0  0  0  0  0  0  0  0  0
   57.2144   23.4762   46.4861 H   0  0  0  0  0  0  0  0  0  0  0  0
   59.0184   23.4276   46.5002 H   0  0  0  0  0  0  0  0  0  0  0  0
  1  2  1  0
  2  3  1  0
  3  4  1  0
  4  5  2  0
  4  6  1  0
  6  7  2  0
  7  8  1  0
  8  9  1  0
  9 10  2  0
  9 11  1  0
 11 12  2  0
 12 13  1  0
 13 14  1  0
 14 15  1  0
 15 16  1  0
 16 17  2  0
 17 18  1  0
 18 19  2  0
 19 20  1  0
 20 21  1  0
 20 22  2  0
 13 23  2  0
 23 24  1  0
 24 25  2  0
 25 26  1  0
  7 27  1  0
 27 28  1  0
 28 29  2  0
 29 30  1  0
 30 31  1  0
 31 32  1  0
 32 33  1  0
 29  6  1  0
 25 11  1  0
 33 28  1  0
 22 16  1  0
  1 34  1  0
  1 35  1  0
  1 36  1  0
  2 37  1  0
  2 38  1  0
  8 39  1  0
 15 40  1  0
 15 41  1  0
 17 42  1  0
 18 43  1  0
 19 44  1  0
 22 45  1  0
 24 46  1  0
 30 47  1  0
 30 48  1  0
 31 49  1  0
 31 50  1  0
 32 51  1  0
 32 52  1  0
 33 53  1  0
 33 54  1  0
M  CHG  1   3  -1
M  END
>  <UniqueID>  (94) 
87

>  <SMILES>  (94) 
CC[N-]C(=O)c1c(NC(=O)c2nc(SCc3cccc(F)c3)ncc2Cl)sc2c1CCCC2

>  <Energy>  (94) 
85.19915203884268

>  <Genealogy>  (94) 
CC[N-]C(=O)c1c(NC(=O)c2nc(SCc3cccc(F)c3)ncc2Cl)sc2c1CCCC2 (protonated)
CC[N-]C(=O)c1c(NC(=O)c2nc(SCc3cccc(F)c3)ncc2Cl)sc2c1CCCC2 (3D coordinates assigned)
CC[N-]C(=O)c1c(NC(=O)c2nc(SCc3cccc(F)c3)ncc2Cl)sc2c1CCCC2 (nonaromatic ring conformer: 85.19915203884268 kcal/mol)

>  <smiles>  (94) 
CCNC(=O)c1c(NC(=O)c2nc(SCc3cccc(F)c3)ncc2Cl)sc2c1CCCC2

>  <score_type>  (94) 
oracle

>  <origin>  (94) 
adg

>  <m_score__min__energy>  (94) 
-11.26

>  <m_primary>  (94) 
energy

$$$$
