0:0
     RDKit          3D

 43 45  0  0  0  0  0  0  0  0999 V2000
   55.8813   24.9119   47.0385 H   0  0  0  0  0  0  0  0  0  0  0  0
   56.6920   25.4900   46.5710 C   0  0  0  0  0  0  0  0  0  0  0  0
   57.9590   24.9990   46.5670 N   0  0  0  0  0  0  0  0  0  0  0  0
   58.9850   25.6850   46.0010 C   0  0  0  0  0  0  0  0  0  0  0  0
   60.0007   25.2629   46.0147 H   0  0  0  0  0  0  0  0  0  0  0  0
   58.7540   26.9260   45.4010 C   0  0  0  0  0  0  0  0  0  0  0  0
   59.5867   27.4814   44.9448 H   0  0  0  0  0  0  0  0  0  0  0  0
   57.4540   27.4630   45.3820 C   0  0  0  0  0  0  0  0  0  0  0  0
   57.2100   28.7850   44.7460 C   0  0  0  0  0  0  0  0  0  0  0  0
   57.2470   29.9370   45.4720 N   0  0  0  0  0  0  0  0  0  0  0  0
   57.0140   31.0260   44.7090 C   0  0  0  0  0  0  0  0  0  0  0  0
   56.9580   32.2430   45.1620 N   0  0  0  0  0  0  0  0  0  0  0  0
   57.9260   32.8870   46.0070 C   0  0  0  0  0  0  0  0  0  0  0  0
   58.5960   34.0630   45.6210 C   0  0  0  0  0  0  0  0  0  0  0  0
   58.3987   34.5066   44.6339 H   0  0  0  0  0  0  0  0  0  0  0  0
   59.5110   34.6700   46.4860 C   0  0  0  0  0  0  0  0  0  0  0  0
   60.0398   35.5805   46.1676 H   0  0  0  0  0  0  0  0  0  0  0  0
   59.7610   34.1310   47.7530 C   0  0  0  0  0  0  0  0  0  0  0  0
   60.6920   34.7820   48.5780 O   0  0  0  0  0  0  0  0  0  0  0  0
   61.5780   34.1390   49.4950 C   0  0  0  0  0  0  0  0  0  0  0  0
   61.2911   33.0817   49.5942 H   0  0  0  0  0  0  0  0  0  0  0  0
   61.5087   34.6445   50.4695 H   0  0  0  0  0  0  0  0  0  0  0  0
   63.0250   34.2240   48.9950 C   0  0  0  0  0  0  0  0  0  0  0  0
   63.7094   34.0335   49.8349 H   0  0  0  0  0  0  0  0  0  0  0  0
   63.1989   35.2287   48.5824 H   0  0  0  0  0  0  0  0  0  0  0  0
   63.2690   33.2240   47.9330 N   0  0  0  0  0  0  0  0  0  0  0  0
   62.3960   32.0490   48.1060 C   0  0  0  0  0  0  0  0  0  0  0  0
   62.2514   31.8544   49.1790 H   0  0  0  0  0  0  0  0  0  0  0  0
   61.4216   32.2435   47.6341 H   0  0  0  0  0  0  0  0  0  0  0  0
   62.8635   31.1722   47.6341 H   0  0  0  0  0  0  0  0  0  0  0  0
   63.0280   33.8200   46.6090 C   0  0  0  0  0  0  0  0  0  0  0  0
   62.6182   34.8334   46.7322 H   0  0  0  0  0  0  0  0  0  0  0  0
   63.9755   33.8727   46.0527 H   0  0  0  0  0  0  0  0  0  0  0  0
   62.3102   33.1993   46.0527 H   0  0  0  0  0  0  0  0  0  0  0  0
   59.0650   32.9730   48.1530 C   0  0  0  0  0  0  0  0  0  0  0  0
   59.2421   32.5447   49.1506 H   0  0  0  0  0  0  0  0  0  0  0  0
   58.1500   32.3660   47.2870 C   0  0  0  0  0  0  0  0  0  0  0  0
   57.6011   31.4708   47.6146 H   0  0  0  0  0  0  0  0  0  0  0  0
   56.7340   30.6200   43.1070 S   0  0  0  0  0  0  0  0  0  0  0  0
   56.9360   28.9730   43.3850 C   0  0  0  0  0  0  0  0  0  0  0  0
   56.8650   28.1789   42.6271 H   0  0  0  0  0  0  0  0  0  0  0  0
   56.4160   26.7270   45.9830 C   0  0  0  0  0  0  0  0  0  0  0  0
   55.3903   27.1244   45.9898 H   0  0  0  0  0  0  0  0  0  0  0  0
  1  2  1  0
  2  3  2  0
  3  4  1  0
  4  5  1  0
  4  6  2  0
  6  7  1  0
  6  8  1  0
  8  9  1  0
  9 10  1  0
 10 11  1  0
 11 12  2  0
 12 13  1  0
 13 14  2  0
 14 15  1  0
 14 16  1  0
 16 17  1  0
 16 18  2  0
 18 19  1  0
 19 20  1  0
 20 21  1  0
 20 22  1  0
 20 23  1  0
 23 24  1  0
 23 25  1  0
 23 26  1  0
 26 27  1  0
 27 28  1  0
 27 29  1  0
 27 30  1  0
 26 31  1  0
 31 32  1  0
 31 33  1  0
 31 34  1  0
 18 35  1  0
 35 36  1  0
 35 37  2  0
 37 38  1  0
 11 39  1  0
 39 40  1  0
 40 41  1  0
  8 42  2  0
 42 43  1  0
 42  2  1  0
 40  9  2  0
 37 13  1  0
M  CHG  1  10  -1
M  END
>  <UniqueID>  (1) 
1

>  <SMILES>  (1) 
CN(C)CCOc1ccc(/N=c2\[n-]c(-c3ccncc3)cs2)cc1

>  <Energy>  (1) 
82.85729646898059

>  <Genealogy>  (1) 
CN(C)CCOc1ccc(N=c2[n-]c(-c3ccncc3)cs2)cc1 (protonated)
CN(C)CCOc1ccc(/N=c2\[n-]c(-c3ccncc3)cs2)cc1 (cis-trans isomerization)
CN(C)CCOc1ccc(/N=c2\[n-]c(-c3ccncc3)cs2)cc1 (3D coordinates assigned)
CN(C)CCOc1ccc(/N=c2\[n-]c(-c3ccncc3)cs2)cc1 (optimized conformer: 82.85729646898059 kcal/mol)

>  <smiles>  (1) 
CN(C)CCOc1ccc(N=c2[nH]c(-c3ccncc3)cs2)cc1

>  <score_type>  (1) 
oracle

>  <origin>  (1) 
adg

>  <m_score__min__energy>  (1) 
-9.5099999999999998

>  <m_primary>  (1) 
energy

$$$$
1:0
     RDKit          3D

 34 36  0  0  0  0  0  0  0  0999 V2000
   57.5165   25.0713   48.3038 H   0  0  0  0  0  0  0  0  0  0  0  0
   57.0480   24.3200   47.6510 C   0  0  0  0  0  0  0  0  0  0  0  0
   57.1190   23.0190   47.8170 O   0  0  0  0  0  0  0  0  0  0  0  0
   56.4420   22.4340   46.8540 C   0  0  0  0  0  0  0  0  0  0  0  0
   56.3100   20.9570   46.7020 C   0  0  0  0  0  0  0  0  0  0  0  0
   56.2681   20.4884   47.6963 H   0  0  0  0  0  0  0  0  0  0  0  0
   55.3877   20.7263   46.1488 H   0  0  0  0  0  0  0  0  0  0  0  0
   57.1768   20.5664   46.1488 H   0  0  0  0  0  0  0  0  0  0  0  0
   55.8990   23.3800   46.0070 C   0  0  0  0  0  0  0  0  0  0  0  0
   55.2857   23.2022   45.1113 H   0  0  0  0  0  0  0  0  0  0  0  0
   56.2920   24.5970   46.5270 C   0  0  0  0  0  0  0  0  0  0  0  0
   55.9710   25.9260   45.9890 C   0  0  0  0  0  0  0  0  0  0  0  0
   54.7740   26.3240   45.9870 O   0  0  0  0  0  0  0  0  0  0  0  0
   57.0280   26.7520   45.4730 N   0  0  0  0  0  0  0  0  0  0  0  0
   56.9980   28.0460   45.3550 C   0  0  0  0  0  0  0  0  0  0  0  0
   55.9190   28.7560   44.9550 N   0  0  0  0  0  0  0  0  0  0  0  0
   56.1470   30.0680   44.9150 N   0  0  0  0  0  0  0  0  0  0  0  0
   57.4050   30.4140   45.2810 C   0  0  0  0  0  0  0  0  0  0  0  0
   57.8900   31.8130   45.3170 C   0  0  0  0  0  0  0  0  0  0  0  0
   58.0810   32.5240   44.1190 C   0  0  0  0  0  0  0  0  0  0  0  0
   57.8688   32.0373   43.1556 H   0  0  0  0  0  0  0  0  0  0  0  0
   58.5380   33.8430   44.1430 C   0  0  0  0  0  0  0  0  0  0  0  0
   58.6835   34.3901   43.1999 H   0  0  0  0  0  0  0  0  0  0  0  0
   58.8110   34.4700   45.3610 C   0  0  0  0  0  0  0  0  0  0  0  0
   59.1702   35.5096   45.3741 H   0  0  0  0  0  0  0  0  0  0  0  0
   58.6280   33.7760   46.5710 C   0  0  0  0  0  0  0  0  0  0  0  0
   58.8880   34.3600   47.8190 O   0  0  0  0  0  0  0  0  0  0  0  0
   60.1130   34.2260   48.5320 C   0  0  0  0  0  0  0  0  0  0  0  0
   59.9122   34.2480   49.6133 H   0  0  0  0  0  0  0  0  0  0  0  0
   60.5890   33.2704   48.2668 H   0  0  0  0  0  0  0  0  0  0  0  0
   60.7843   35.0561   48.2668 H   0  0  0  0  0  0  0  0  0  0  0  0
   58.1690   32.4530   46.5390 C   0  0  0  0  0  0  0  0  0  0  0  0
   58.0245   31.9064   47.4826 H   0  0  0  0  0  0  0  0  0  0  0  0
   58.3100   29.0420   45.6840 S   0  0  0  0  0  0  0  0  0  0  0  0
  1  2  1  0
  2  3  1  0
  3  4  1  0
  4  5  1  0
  5  6  1  0
  5  7  1  0
  5  8  1  0
  4  9  2  0
  9 10  1  0
  9 11  1  0
 11 12  1  0
 12 13  2  0
 12 14  1  0
 14 15  2  0
 15 16  1  0
 16 17  1  0
 17 18  2  0
 18 19  1  0
 19 20  2  0
 20 21  1  0
 20 22  1  0
 22 23  1  0
 22 24  2  0
 24 25  1  0
 24 26  1  0
 26 27  1  0
 27 28  1  0
 28 29  1  0
 28 30  1  0
 28 31  1  0
 26 32  2  0
 32 33  1  0
 18 34  1  0
 11  2  2  0
 34 15  1  0
 32 19  1  0
M  CHG  1  16  -1
M  END
>  <UniqueID>  (2) 
2

>  <SMILES>  (2) 
COc1cccc(-c2n[n-]/c(=N\C(=O)c3coc(C)c3)s2)c1

>  <Energy>  (2) 
97.24867743977599

>  <Genealogy>  (2) 
COc1cccc(-c2n[n-]c(=NC(=O)c3coc(C)c3)s2)c1 (protonated)
COc1cccc(-c2n[n-]/c(=N\C(=O)c3coc(C)c3)s2)c1 (cis-trans isomerization)
COc1cccc(-c2n[n-]/c(=N\C(=O)c3coc(C)c3)s2)c1 (3D coordinates assigned)
COc1cccc(-c2n[n-]/c(=N\C(=O)c3coc(C)c3)s2)c1 (optimized conformer: 97.24867743977599 kcal/mol)

>  <smiles>  (2) 
COc1cccc(-c2n[nH]c(=NC(=O)c3coc(C)c3)s2)c1

>  <score_type>  (2) 
oracle

>  <origin>  (2) 
adg

>  <m_score__min__energy>  (2) 
-9.7200000000000006

>  <m_primary>  (2) 
energy

$$$$
2:0
     RDKit          3D

 39 40  0  0  0  0  0  0  0  0999 V2000
   59.4260   29.5710   46.1850 C   0  0  0  0  0  0  0  0  0  0  0  0
   60.0830   30.9300   46.4230 C   0  0  0  0  0  0  0  0  0  0  0  0
   59.2610   31.8260   47.3570 C   0  0  0  0  0  0  0  0  0  0  0  0
   59.0600   33.1600   46.7700 N   0  0  0  0  0  0  0  0  0  0  0  0
   57.7910   33.4630   46.0920 C   0  0  0  0  0  0  0  0  0  0  0  0
   57.5990   32.5460   44.9260 C   0  0  0  0  0  0  0  0  0  0  0  0
   58.1110   32.7340   43.6580 C   0  0  0  0  0  0  0  0  0  0  0  0
   57.7130   31.6320   42.9320 C   0  0  0  0  0  0  0  0  0  0  0  0
   56.9870   30.8430   43.8020 C   0  0  0  0  0  0  0  0  0  0  0  0
   56.9390   31.4120   44.9840 O   0  0  0  0  0  0  0  0  0  0  0  0
   60.1660   34.0830   46.6890 C   0  0  0  0  0  0  0  0  0  0  0  0
   60.0500   35.1330   46.0010 O   0  0  0  0  0  0  0  0  0  0  0  0
   61.4370   33.8310   47.4020 C   0  0  0  0  0  0  0  0  0  0  0  0
   61.5480   34.0470   48.7810 C   0  0  0  0  0  0  0  0  0  0  0  0
   62.7510   33.7910   49.4370 C   0  0  0  0  0  0  0  0  0  0  0  0
   63.8490   33.3010   48.7070 C   0  0  0  0  0  0  0  0  0  0  0  0
   65.0840   33.0260   49.3140 O   0  0  0  0  0  0  0  0  0  0  0  0
   65.2630   32.1330   50.4090 C   0  0  0  0  0  0  0  0  0  0  0  0
   63.7150   33.0810   47.3710 N   0  0  0  0  0  0  0  0  0  0  0  0
   62.5480   33.3250   46.7120 C   0  0  0  0  0  0  0  0  0  0  0  0
   59.1981   29.0995   47.1523 H   0  0  0  0  0  0  0  0  0  0  0  0
   58.4949   29.7085   45.6157 H   0  0  0  0  0  0  0  0  0  0  0  0
   60.1121   28.9267   45.6157 H   0  0  0  0  0  0  0  0  0  0  0  0
   61.0742   30.7685   46.8717 H   0  0  0  0  0  0  0  0  0  0  0  0
   60.1563   31.4398   45.4510 H   0  0  0  0  0  0  0  0  0  0  0  0
   58.2805   31.3590   47.5318 H   0  0  0  0  0  0  0  0  0  0  0  0
   59.8093   31.9399   48.3037 H   0  0  0  0  0  0  0  0  0  0  0  0
   56.9596   33.3302   46.7999 H   0  0  0  0  0  0  0  0  0  0  0  0
   57.8143   34.5023   45.7324 H   0  0  0  0  0  0  0  0  0  0  0  0
   58.7107   33.5846   43.3017 H   0  0  0  0  0  0  0  0  0  0  0  0
   57.9298   31.4234   41.8739 H   0  0  0  0  0  0  0  0  0  0  0  0
   56.5190   29.8817   43.5434 H   0  0  0  0  0  0  0  0  0  0  0  0
   60.6828   34.4200   49.3487 H   0  0  0  0  0  0  0  0  0  0  0  0
   62.8411   33.9710   50.5184 H   0  0  0  0  0  0  0  0  0  0  0  0
   65.1524   32.6849   51.3541 H   0  0  0  0  0  0  0  0  0  0  0  0
   64.5068   31.3357   50.3593 H   0  0  0  0  0  0  0  0  0  0  0  0
   66.2681   31.6887   50.3593 H   0  0  0  0  0  0  0  0  0  0  0  0
   64.5310   32.7130   46.8300 H   0  0  0  0  0  0  0  0  0  0  0  0
   62.4768   33.1240   45.6329 H   0  0  0  0  0  0  0  0  0  0  0  0
  1  2  1  0
  2  3  1  0
  3  4  1  0
  4  5  1  0
  5  6  1  0
  6  7  2  0
  7  8  1  0
  8  9  2  0
  9 10  1  0
  4 11  1  0
 11 12  2  0
 11 13  1  0
 13 14  2  0
 14 15  1  0
 15 16  2  0
 16 17  1  0
 17 18  1  0
 16 19  1  0
 19 20  2  0
 10  6  1  0
 20 13  1  0
  1 21  1  0
  1 22  1  0
  1 23  1  0
  2 24  1  0
  2 25  1  0
  3 26  1  0
  3 27  1  0
  5 28  1  0
  5 29  1  0
  7 30  1  0
  8 31  1  0
  9 32  1  0
 14 33  1  0
 15 34  1  0
 18 35  1  0
 18 36  1  0
 18 37  1  0
 19 38  1  0
 20 39  1  0
M  CHG  1  19   1
M  END
>  <UniqueID>  (3) 
3

>  <SMILES>  (3) 
CCCN(Cc1ccco1)C(=O)c1ccc(OC)[nH+]c1

>  <Energy>  (3) 
61.953512022789084

>  <Genealogy>  (3) 
CCCN(Cc1ccco1)C(=O)c1ccc(OC)[nH+]c1 (protonated)
CCCN(Cc1ccco1)C(=O)c1ccc(OC)[nH+]c1 (3D coordinates assigned)
CCCN(Cc1ccco1)C(=O)c1ccc(OC)[nH+]c1 (optimized conformer: 61.953512022789084 kcal/mol)

>  <smiles>  (3) 
CCCN(Cc1ccco1)C(=O)c1ccc(OC)nc1

>  <score_type>  (3) 
oracle

>  <origin>  (3) 
adg

>  <m_score__min__energy>  (3) 
-4.9900000000000002

>  <m_primary>  (3) 
energy

$$$$
3:0
     RDKit          3D

 51 53  0  0  0  0  0  0  0  0999 V2000
   58.9366   33.7454   48.4320 H   0  0  0  0  0  0  0  0  0  0  0  0
   58.9180   32.6810   48.7090 C   0  0  0  0  0  0  0  0  0  0  0  0
   58.5200   32.3120   49.9540 N   0  0  0  0  0  0  0  0  0  0  0  0
   58.4650   31.0110   50.3450 C   0  0  0  0  0  0  0  0  0  0  0  0
   58.0120   30.6790   51.7080 C   0  0  0  0  0  0  0  0  0  0  0  0
   58.5350   31.2410   52.7080 O   0  0  0  0  0  0  0  0  0  0  0  0
   56.9770   29.7070   51.8960 N   0  0  0  0  0  0  0  0  0  0  0  0
   55.6790   30.0500   52.4600 C   0  0  0  0  0  0  0  0  0  0  0  0
   55.7405   30.0337   53.5582 H   0  0  0  0  0  0  0  0  0  0  0  0
   55.3875   31.0560   52.1239 H   0  0  0  0  0  0  0  0  0  0  0  0
   54.9285   29.3193   52.1239 H   0  0  0  0  0  0  0  0  0  0  0  0
   58.8380   30.0070   49.4410 C   0  0  0  0  0  0  0  0  0  0  0  0
   58.7872   28.9502   49.7419 H   0  0  0  0  0  0  0  0  0  0  0  0
   59.2740   30.3470   48.1590 C   0  0  0  0  0  0  0  0  0  0  0  0
   59.6310   29.3060   47.2890 O   0  0  0  0  0  0  0  0  0  0  0  0
   58.8050   28.2350   46.9200 C   0  0  0  0  0  0  0  0  0  0  0  0
   58.9510   27.0200   47.5940 C   0  0  0  0  0  0  0  0  0  0  0  0
   59.7263   26.9146   48.3672 H   0  0  0  0  0  0  0  0  0  0  0  0
   58.1210   25.9390   47.2940 C   0  0  0  0  0  0  0  0  0  0  0  0
   58.2395   24.9918   47.8407 H   0  0  0  0  0  0  0  0  0  0  0  0
   57.1350   26.0510   46.2990 C   0  0  0  0  0  0  0  0  0  0  0  0
   56.2020   24.9290   46.0450 C   0  0  0  0  0  0  0  0  0  0  0  0
   55.5470   24.4330   47.0030 O   0  0  0  0  0  0  0  0  0  0  0  0
   56.0220   24.4340   44.7060 N   0  0  0  0  0  0  0  0  0  0  0  0
   56.5320   23.3400   44.2270 C   0  0  0  0  0  0  0  0  0  0  0  0
   55.8990   22.5230   43.3550 N   0  0  0  0  0  0  0  0  0  0  0  0
   56.6900   21.4820   42.9890 C   0  0  0  0  0  0  0  0  0  0  0  0
   56.3560   20.7063   42.2842 H   0  0  0  0  0  0  0  0  0  0  0  0
   57.9550   21.4680   43.5710 C   0  0  0  0  0  0  0  0  0  0  0  0
   58.7351   20.7116   43.3997 H   0  0  0  0  0  0  0  0  0  0  0  0
   58.0850   22.8080   44.5820 S   0  0  0  0  0  0  0  0  0  0  0  0
   57.0280   27.2540   45.5790 C   0  0  0  0  0  0  0  0  0  0  0  0
   56.2831   27.3417   44.7744 H   0  0  0  0  0  0  0  0  0  0  0  0
   57.8630   28.3470   45.8760 C   0  0  0  0  0  0  0  0  0  0  0  0
   57.7930   29.5700   45.1270 N   0  0  0  0  0  0  0  0  0  0  0  0
   56.3600   30.2320   44.4160 S   0  0  0  0  0  0  0  0  0  0  0  0
   55.1630   29.4400   44.8660 O   0  0  0  0  0  0  0  0  0  0  0  0
   56.2030   31.6770   44.8070 O   0  0  0  0  0  0  0  0  0  0  0  0
   56.5010   30.1200   42.6460 C   0  0  0  0  0  0  0  0  0  0  0  0
   57.3380   29.4552   42.3862 H   0  0  0  0  0  0  0  0  0  0  0  0
   55.5675   29.7145   42.2287 H   0  0  0  0  0  0  0  0  0  0  0  0
   56.6847   31.1211   42.2287 H   0  0  0  0  0  0  0  0  0  0  0  0
   59.3060   31.7070   47.7740 C   0  0  0  0  0  0  0  0  0  0  0  0
   59.7080   32.0460   46.4730 O   0  0  0  0  0  0  0  0  0  0  0  0
   59.6620   33.3550   45.9200 C   0  0  0  0  0  0  0  0  0  0  0  0
   60.2577   33.3863   44.9958 H   0  0  0  0  0  0  0  0  0  0  0  0
   60.0747   34.0776   46.6394 H   0  0  0  0  0  0  0  0  0  0  0  0
   58.2190   33.7080   45.6080 C   0  0  0  0  0  0  0  0  0  0  0  0
   57.6634   33.8439   46.5476 H   0  0  0  0  0  0  0  0  0  0  0  0
   58.1874   34.6404   45.0252 H   0  0  0  0  0  0  0  0  0  0  0  0
   57.7605   32.8955   45.0252 H   0  0  0  0  0  0  0  0  0  0  0  0
  1  2  1  0
  2  3  2  0
  3  4  1  0
  4  5  1  0
  5  6  2  0
  5  7  1  0
  7  8  1  0
  8  9  1  0
  8 10  1  0
  8 11  1  0
  4 12  2  0
 12 13  1  0
 12 14  1  0
 14 15  1  0
 15 16  1  0
 16 17  2  0
 17 18  1  0
 17 19  1  0
 19 20  1  0
 19 21  2  0
 21 22  1  0
 22 23  2  0
 22 24  1  0
 24 25  2  0
 25 26  1  0
 26 27  1  0
 27 28  1  0
 27 29  2  0
 29 30  1  0
 29 31  1  0
 21 32  1  0
 32 33  1  0
 32 34  2  0
 34 35  1  0
 35 36  1  0
 36 37  2  0
 36 38  2  0
 36 39  1  0
 39 40  1  0
 39 41  1  0
 39 42  1  0
 14 43  2  0
 43 44  1  0
 44 45  1  0
 45 46  1  0
 45 47  1  0
 45 48  1  0
 48 49  1  0
 48 50  1  0
 48 51  1  0
 43  2  1  0
 34 16  1  0
 31 25  1  0
M  CHG  3   7  -1  26  -1  35  -1
M  END
>  <UniqueID>  (4) 
4

>  <SMILES>  (4) 
CCOc1cnc(C(=O)[N-]C)cc1Oc1ccc(C(=O)/N=c2\[n-]ccs2)cc1[N-]S(C)(=O)=O

>  <Energy>  (4) 
87.49017362236783

>  <Genealogy>  (4) 
CCOc1cnc(C(=O)[N-]C)cc1Oc1ccc(C(=O)N=c2[n-]ccs2)cc1[N-]S(C)(=O)=O (protonated)
CCOc1cnc(C(=O)[N-]C)cc1Oc1ccc(C(=O)/N=c2\[n-]ccs2)cc1[N-]S(C)(=O)=O (cis-trans isomerization)
CCOc1cnc(C(=O)[N-]C)cc1Oc1ccc(C(=O)/N=c2\[n-]ccs2)cc1[N-]S(C)(=O)=O (3D coordinates assigned)
CCOc1cnc(C(=O)[N-]C)cc1Oc1ccc(C(=O)/N=c2\[n-]ccs2)cc1[N-]S(C)(=O)=O (optimized conformer: 87.49017362236783 kcal/mol)

>  <smiles>  (4) 
CCOc1cnc(C(=O)NC)cc1Oc1ccc(C(=O)N=c2[nH]ccs2)cc1NS(C)(=O)=O

>  <score_type>  (4) 
oracle

>  <origin>  (4) 
adg

>  <m_score__min__energy>  (4) 
-12.470000000000001

>  <m_primary>  (4) 
energy

$$$$
4:0
     RDKit          3D

 36 37  0  0  0  0  0  0  0  0999 V2000
   59.6630   36.4020   45.3490 O   0  0  0  0  0  0  0  0  0  0  0  0
   59.4300   35.1960   45.6280 C   0  0  0  0  0  0  0  0  0  0  0  0
   60.3130   34.4830   46.4280 C   0  0  0  0  0  0  0  0  0  0  0  0
   60.0280   33.1540   46.7210 C   0  0  0  0  0  0  0  0  0  0  0  0
   58.8870   32.5540   46.2450 N   0  0  0  0  0  0  0  0  0  0  0  0
   58.5460   31.1340   46.5270 C   0  0  2  0  0  0  0  0  0  0  0  0
   58.7340   30.8620   47.9190 O   0  0  0  0  0  0  0  0  0  0  0  0
   58.7820   29.5590   48.4340 C   0  0  0  0  0  0  0  0  0  0  0  0
   58.7500   29.3660   49.9210 C   0  0  0  0  0  0  0  0  0  0  0  0
   57.8910   30.3010   50.5130 O   0  0  0  0  0  0  0  0  0  0  0  0
   58.8590   28.5020   47.6100 C   0  0  0  0  0  0  0  0  0  0  0  0
   58.8550   28.6640   46.1110 C   0  0  1  0  0  0  0  0  0  0  0  0
   57.5340   28.4410   45.6480 O   0  0  0  0  0  0  0  0  0  0  0  0
   57.4120   28.7920   44.2850 C   0  0  0  0  0  0  0  0  0  0  0  0
   56.1790   29.6650   44.1030 C   0  0  0  0  0  0  0  0  0  0  0  0
   55.3100   29.4830   45.1850 O   0  0  0  0  0  0  0  0  0  0  0  0
   59.3260   30.0780   45.7100 C   0  0  2  0  0  0  0  0  0  0  0  0
   60.6840   30.1830   45.9730 F   0  0  0  0  0  0  0  0  0  0  0  0
   58.0440   33.2840   45.4370 C   0  0  0  0  0  0  0  0  0  0  0  0
   57.0070   32.7550   44.9490 O   0  0  0  0  0  0  0  0  0  0  0  0
   58.3170   34.5860   45.1470 N   0  0  0  0  0  0  0  0  0  0  0  0
   61.2216   34.9610   46.8229 H   0  0  0  0  0  0  0  0  0  0  0  0
   60.7261   32.5744   47.3429 H   0  0  0  0  0  0  0  0  0  0  0  0
   57.4952   31.0348   46.2173 H   0  0  0  0  0  0  0  0  0  0  0  0
   58.3931   28.3505   50.1478 H   0  0  0  0  0  0  0  0  0  0  0  0
   59.7644   29.5067   50.3226 H   0  0  0  0  0  0  0  0  0  0  0  0
   57.8500   31.0790   49.8960 H   0  0  0  0  0  0  0  0  0  0  0  0
   58.9268   27.4916   48.0395 H   0  0  0  0  0  0  0  0  0  0  0  0
   59.5485   27.9402   45.6580 H   0  0  0  0  0  0  0  0  0  0  0  0
   58.3065   29.3472   43.9663 H   0  0  0  0  0  0  0  0  0  0  0  0
   57.3141   27.8815   43.6756 H   0  0  0  0  0  0  0  0  0  0  0  0
   56.4827   30.7210   44.0512 H   0  0  0  0  0  0  0  0  0  0  0  0
   55.6663   29.3828   43.1716 H   0  0  0  0  0  0  0  0  0  0  0  0
   55.8290   29.7190   45.9970 H   0  0  0  0  0  0  0  0  0  0  0  0
   59.1406   30.2505   44.6395 H   0  0  0  0  0  0  0  0  0  0  0  0
   57.6600   35.1260   44.5380 H   0  0  0  0  0  0  0  0  0  0  0  0
  1  2  2  0
  2  3  1  0
  3  4  2  0
  4  5  1  0
  5  6  1  0
  6  7  1  0
  7  8  1  0
  8  9  1  0
  9 10  1  0
  8 11  2  0
 11 12  1  0
 12 13  1  0
 13 14  1  0
 14 15  1  0
 15 16  1  0
 12 17  1  0
 17 18  1  0
  5 19  1  0
 19 20  2  0
 19 21  1  0
 21  2  1  0
 17  6  1  0
  3 22  1  0
  4 23  1  0
  6 24  1  6
  9 25  1  0
  9 26  1  0
 10 27  1  0
 11 28  1  0
 12 29  1  6
 14 30  1  0
 14 31  1  0
 15 32  1  0
 15 33  1  0
 16 34  1  0
 17 35  1  6
 21 36  1  0
M  END
>  <UniqueID>  (5) 
5

>  <SMILES>  (5) 
O=c1ccn([C@@H]2OC(CO)=C[C@@H](OCCO)C2F)c(=O)[nH]1

>  <Energy>  (5) 
42.62756879993881

>  <Genealogy>  (5) 
O=c1ccn([C@@H]2OC(CO)=C[C@@H](OCCO)C2F)c(=O)[nH]1 (chirality)
O=c1ccn([C@@H]2OC(CO)=C[C@@H](OCCO)C2F)c(=O)[nH]1 (3D coordinates assigned)
O=c1ccn([C@@H]2OC(CO)=C[C@@H](OCCO)C2F)c(=O)[nH]1 (nonaromatic ring conformer: 42.62756879993881 kcal/mol)

>  <smiles>  (5) 
O=c1ccn(C2OC(CO)=CC(OCCO)C2F)c(=O)[nH]1

>  <score_type>  (5) 
oracle

>  <origin>  (5) 
adg

>  <m_score__min__energy>  (5) 
-6.6100000000000003

>  <m_primary>  (5) 
energy

$$$$
5:0
     RDKit          3D

 49 50  0  0  0  0  0  0  0  0999 V2000
   59.2400   34.2590   53.3180 C   0  0  0  0  0  0  0  0  0  0  0  0
   58.7190   33.0270   52.6440 C   0  0  0  0  0  0  0  0  0  0  0  0
   57.4840   32.7810   52.6940 O   0  0  0  0  0  0  0  0  0  0  0  0
   59.5730   32.1400   51.9090 N   0  0  0  0  0  0  0  0  0  0  0  0
   59.5110   31.8560   50.5040 C   0  0  0  0  0  0  0  0  0  0  0  0
   60.5250   31.0860   49.9230 C   0  0  0  0  0  0  0  0  0  0  0  0
   60.5100   30.8110   48.5530 C   0  0  0  0  0  0  0  0  0  0  0  0
   59.4760   31.3030   47.7420 C   0  0  0  0  0  0  0  0  0  0  0  0
   59.4840   31.0210   46.3330 N   0  0  0  0  0  0  0  0  0  0  0  0
   58.9080   29.8380   45.7600 C   0  0  0  0  0  0  0  0  0  0  0  0
   58.6490   28.8380   46.4830 O   0  0  0  0  0  0  0  0  0  0  0  0
   58.6370   29.7670   44.2880 C   0  0  0  0  0  0  0  0  0  0  0  0
   57.4780   30.6080   43.9500 N   0  0  0  0  0  0  0  0  0  0  0  0
   56.1380   30.0170   44.0350 C   0  0  0  0  0  0  0  0  0  0  0  0
   57.6710   31.9560   43.4580 C   0  0  0  0  0  0  0  0  0  0  0  0
   57.7740   32.1600   42.2160 O   0  0  0  0  0  0  0  0  0  0  0  0
   57.8320   33.1320   44.3900 C   0  0  0  0  0  0  0  0  0  0  0  0
   59.2440   33.4200   44.6580 N   0  0  0  0  0  0  0  0  0  0  0  0
   59.4340   34.5850   45.9400 S   0  0  0  0  0  0  0  0  0  0  0  0
   59.6450   35.9430   45.3360 O   0  0  0  0  0  0  0  0  0  0  0  0
   58.1770   34.6220   46.7650 O   0  0  0  0  0  0  0  0  0  0  0  0
   60.8180   34.2060   46.9680 C   0  0  0  0  0  0  0  0  0  0  0  0
   61.9850   33.6530   46.4210 C   0  0  0  0  0  0  0  0  0  0  0  0
   63.0830   33.3770   47.2420 C   0  0  0  0  0  0  0  0  0  0  0  0
   63.0200   33.6520   48.6110 C   0  0  0  0  0  0  0  0  0  0  0  0
   64.0880   33.3880   49.4050 F   0  0  0  0  0  0  0  0  0  0  0  0
   61.8570   34.2010   49.1610 C   0  0  0  0  0  0  0  0  0  0  0  0
   60.7580   34.4770   48.3420 C   0  0  0  0  0  0  0  0  0  0  0  0
   58.4860   32.1180   48.3150 C   0  0  0  0  0  0  0  0  0  0  0  0
   58.5060   32.3970   49.6850 C   0  0  0  0  0  0  0  0  0  0  0  0
   59.1858   34.1308   54.4092 H   0  0  0  0  0  0  0  0  0  0  0  0
   60.2856   34.4257   53.0199 H   0  0  0  0  0  0  0  0  0  0  0  0
   58.6312   35.1253   53.0199 H   0  0  0  0  0  0  0  0  0  0  0  0
   61.3399   30.6943   50.5495 H   0  0  0  0  0  0  0  0  0  0  0  0
   61.3132   30.2055   48.1079 H   0  0  0  0  0  0  0  0  0  0  0  0
   59.9860   31.6830   45.7010 H   0  0  0  0  0  0  0  0  0  0  0  0
   59.5196   30.1242   43.7372 H   0  0  0  0  0  0  0  0  0  0  0  0
   58.4211   28.7249   44.0098 H   0  0  0  0  0  0  0  0  0  0  0  0
   55.8581   29.8935   45.0916 H   0  0  0  0  0  0  0  0  0  0  0  0
   55.4131   30.6789   43.5386 H   0  0  0  0  0  0  0  0  0  0  0  0
   56.1380   29.0354   43.5386 H   0  0  0  0  0  0  0  0  0  0  0  0
   57.3682   34.0174   43.9307 H   0  0  0  0  0  0  0  0  0  0  0  0
   57.3449   32.8833   45.3444 H   0  0  0  0  0  0  0  0  0  0  0  0
   62.0368   33.4359   45.3439 H   0  0  0  0  0  0  0  0  0  0  0  0
   63.9969   32.9432   46.8101 H   0  0  0  0  0  0  0  0  0  0  0  0
   61.8070   34.4158   50.2387 H   0  0  0  0  0  0  0  0  0  0  0  0
   59.8441   34.9078   48.7769 H   0  0  0  0  0  0  0  0  0  0  0  0
   57.6906   32.5391   47.6826 H   0  0  0  0  0  0  0  0  0  0  0  0
   57.7312   33.0431   50.1235 H   0  0  0  0  0  0  0  0  0  0  0  0
  1  2  1  0
  2  3  2  0
  2  4  1  0
  4  5  1  0
  5  6  2  0
  6  7  1  0
  7  8  2  0
  8  9  1  0
  9 10  1  0
 10 11  2  0
 10 12  1  0
 12 13  1  0
 13 14  1  0
 13 15  1  0
 15 16  2  0
 15 17  1  0
 17 18  1  0
 18 19  1  0
 19 20  2  0
 19 21  2  0
 19 22  1  0
 22 23  2  0
 23 24  1  0
 24 25  2  0
 25 26  1  0
 25 27  1  0
 27 28  2  0
  8 29  1  0
 29 30  2  0
 30  5  1  0
 28 22  1  0
  1 31  1  0
  1 32  1  0
  1 33  1  0
  6 34  1  0
  7 35  1  0
  9 36  1  0
 12 37  1  0
 12 38  1  0
 14 39  1  0
 14 40  1  0
 14 41  1  0
 17 42  1  0
 17 43  1  0
 23 44  1  0
 24 45  1  0
 27 46  1  0
 28 47  1  0
 29 48  1  0
 30 49  1  0
M  CHG  2   4  -1  18  -1
M  END
>  <UniqueID>  (6) 
6

>  <SMILES>  (6) 
CC(=O)[N-]c1ccc(NC(=O)CN(C)C(=O)C[N-]S(=O)(=O)c2ccc(F)cc2)cc1

>  <Energy>  (6) 
50.51513347120546

>  <Genealogy>  (6) 
CC(=O)[N-]c1ccc(NC(=O)CN(C)C(=O)C[N-]S(=O)(=O)c2ccc(F)cc2)cc1 (protonated)
CC(=O)[N-]c1ccc(NC(=O)CN(C)C(=O)C[N-]S(=O)(=O)c2ccc(F)cc2)cc1 (3D coordinates assigned)
CC(=O)[N-]c1ccc(NC(=O)CN(C)C(=O)C[N-]S(=O)(=O)c2ccc(F)cc2)cc1 (optimized conformer: 50.51513347120546 kcal/mol)

>  <smiles>  (6) 
CC(=O)Nc1ccc(NC(=O)CN(C)C(=O)CNS(=O)(=O)c2ccc(F)cc2)cc1

>  <score_type>  (6) 
oracle

>  <origin>  (6) 
adg

>  <m_score__min__energy>  (6) 
-10.15

>  <m_primary>  (6) 
energy

$$$$
6:0
     RDKit          3D

 39 41  0  0  0  0  0  0  0  0999 V2000
   55.4310   23.5790   44.2390 C   0  0  0  0  0  0  0  0  0  0  0  0
   54.4750   24.3590   45.5180 S   0  0  0  0  0  0  0  0  0  0  0  0
   54.7470   23.6680   46.8250 O   0  0  0  0  0  0  0  0  0  0  0  0
   53.0160   24.2540   45.1750 O   0  0  0  0  0  0  0  0  0  0  0  0
   54.9370   26.0270   45.6260 N   0  0  0  0  0  0  0  0  0  0  0  0
   56.2700   26.5030   45.8570 C   0  0  0  0  0  0  0  0  0  0  0  0
   57.2940   25.6550   46.3140 C   0  0  0  0  0  0  0  0  0  0  0  0
   58.5730   26.1600   46.5450 C   0  0  0  0  0  0  0  0  0  0  0  0
   58.8490   27.5080   46.3160 C   0  0  0  0  0  0  0  0  0  0  0  0
   57.8470   28.3700   45.8410 C   0  0  0  0  0  0  0  0  0  0  0  0
   58.1700   29.7970   45.6050 C   0  0  0  0  0  0  0  0  0  0  0  0
   57.4750   30.5630   44.6590 C   0  0  0  0  0  0  0  0  0  0  0  0
   57.8280   31.8970   44.4690 C   0  0  0  0  0  0  0  0  0  0  0  0
   58.8720   32.4380   45.2180 C   0  0  0  0  0  0  0  0  0  0  0  0
   59.3420   34.1550   45.0000 S   0  0  0  0  0  0  0  0  0  0  0  0
   60.3560   34.1560   46.4790 C   0  0  0  0  0  0  0  0  0  0  0  0
   61.7180   33.8370   46.3970 C   0  0  0  0  0  0  0  0  0  0  0  0
   62.5070   33.8330   47.5520 C   0  0  0  0  0  0  0  0  0  0  0  0
   61.9380   34.1490   48.7910 C   0  0  0  0  0  0  0  0  0  0  0  0
   62.9270   34.1420   50.2390 Cl  0  0  0  0  0  0  0  0  0  0  0  0
   60.5780   34.4720   48.8730 C   0  0  0  0  0  0  0  0  0  0  0  0
   59.7880   34.4770   47.7190 C   0  0  0  0  0  0  0  0  0  0  0  0
   59.5330   31.6540   46.1100 N   0  0  0  0  0  0  0  0  0  0  0  0
   59.1920   30.3760   46.2930 N   0  0  0  0  0  0  0  0  0  0  0  0
   56.5490   27.8590   45.6260 C   0  0  0  0  0  0  0  0  0  0  0  0
   55.5400   28.6800   45.2390 F   0  0  0  0  0  0  0  0  0  0  0  0
   56.2066   22.9462   44.6951 H   0  0  0  0  0  0  0  0  0  0  0  0
   54.7713   22.9581   43.6151 H   0  0  0  0  0  0  0  0  0  0  0  0
   55.9069   24.3499   43.6151 H   0  0  0  0  0  0  0  0  0  0  0  0
   57.0855   24.5894   46.4900 H   0  0  0  0  0  0  0  0  0  0  0  0
   59.3678   25.4925   46.9094 H   0  0  0  0  0  0  0  0  0  0  0  0
   59.8590   27.8988   46.5089 H   0  0  0  0  0  0  0  0  0  0  0  0
   56.6591   30.1152   44.0726 H   0  0  0  0  0  0  0  0  0  0  0  0
   57.2894   32.5163   43.7366 H   0  0  0  0  0  0  0  0  0  0  0  0
   62.1670   33.5896   45.4238 H   0  0  0  0  0  0  0  0  0  0  0  0
   63.5758   33.5812   47.4864 H   0  0  0  0  0  0  0  0  0  0  0  0
   60.1305   34.7221   49.8462 H   0  0  0  0  0  0  0  0  0  0  0  0
   58.7202   34.7331   47.7848 H   0  0  0  0  0  0  0  0  0  0  0  0
   60.3200   32.0520   46.6680 H   0  0  0  0  0  0  0  0  0  0  0  0
  1  2  1  0
  2  3  2  0
  2  4  2  0
  2  5  1  0
  5  6  1  0
  6  7  2  0
  7  8  1  0
  8  9  2  0
  9 10  1  0
 10 11  1  0
 11 12  2  0
 12 13  1  0
 13 14  2  0
 14 15  1  0
 15 16  1  0
 16 17  2  0
 17 18  1  0
 18 19  2  0
 19 20  1  0
 19 21  1  0
 21 22  2  0
 14 23  1  0
 23 24  2  0
 10 25  2  0
 25 26  1  0
 25  6  1  0
 24 11  1  0
 22 16  1  0
  1 27  1  0
  1 28  1  0
  1 29  1  0
  7 30  1  0
  8 31  1  0
  9 32  1  0
 12 33  1  0
 13 34  1  0
 17 35  1  0
 18 36  1  0
 21 37  1  0
 22 38  1  0
 23 39  1  0
M  CHG  2   5  -1  23   1
M  END
>  <UniqueID>  (7) 
7

>  <SMILES>  (7) 
CS(=O)(=O)[N-]c1cccc(-c2ccc(Sc3ccc(Cl)cc3)[nH+]n2)c1F

>  <Energy>  (7) 
41.83225648932941

>  <Genealogy>  (7) 
CS(=O)(=O)[N-]c1cccc(-c2ccc(Sc3ccc(Cl)cc3)[nH+]n2)c1F (protonated)
CS(=O)(=O)[N-]c1cccc(-c2ccc(Sc3ccc(Cl)cc3)[nH+]n2)c1F (3D coordinates assigned)
CS(=O)(=O)[N-]c1cccc(-c2ccc(Sc3ccc(Cl)cc3)[nH+]n2)c1F (optimized conformer: 41.83225648932941 kcal/mol)

>  <smiles>  (7) 
CS(=O)(=O)Nc1cccc(-c2ccc(Sc3ccc(Cl)cc3)nn2)c1F

>  <score_type>  (7) 
oracle

>  <origin>  (7) 
adg

>  <m_score__min__energy>  (7) 
-9.7899999999999991

>  <m_primary>  (7) 
energy

$$$$
7:0
     RDKit          3D

 32 34  0  0  0  0  0  0  0  0999 V2000
   59.2980   33.4790   49.0980 C   0  0  0  0  0  0  0  0  0  0  0  0
   59.1010   33.6160   47.6170 C   0  0  0  0  0  0  0  0  0  0  0  0
   59.3390   34.8450   46.9830 C   0  0  0  0  0  0  0  0  0  0  0  0
   59.1990   34.9590   45.5980 C   0  0  0  0  0  0  0  0  0  0  0  0
   58.8320   33.8490   44.8340 C   0  0  0  0  0  0  0  0  0  0  0  0
   58.5920   32.6100   45.4520 C   0  0  0  0  0  0  0  0  0  0  0  0
   58.2380   31.4000   44.6220 C   0  0  1  0  0  0  0  0  0  0  0  0
   58.6720   30.0930   45.3450 C   0  0  0  0  0  0  0  0  0  0  0  0
   57.7410   29.0620   44.9490 N   0  0  0  0  0  0  0  0  0  0  0  0
   57.8040   27.6840   45.3430 C   0  0  0  0  0  0  0  0  0  0  0  0
   58.9190   26.8620   45.2290 C   0  0  0  0  0  0  0  0  0  0  0  0
   58.6800   25.5590   45.6820 C   0  0  0  0  0  0  0  0  0  0  0  0
   57.3860   25.3570   46.1480 C   0  0  0  0  0  0  0  0  0  0  0  0
   56.5320   26.7990   45.9960 S   0  0  0  0  0  0  0  0  0  0  0  0
   56.4100   29.8030   44.1980 S   0  0  0  0  0  0  0  0  0  0  0  0
   56.2830   29.3740   42.7640 O   0  0  0  0  0  0  0  0  0  0  0  0
   55.1430   29.5480   44.9630 O   0  0  0  0  0  0  0  0  0  0  0  0
   56.8530   31.4180   44.3080 O   0  0  0  0  0  0  0  0  0  0  0  0
   58.7470   32.4970   46.8460 C   0  0  0  0  0  0  0  0  0  0  0  0
   58.5057   34.0300   49.6258 H   0  0  0  0  0  0  0  0  0  0  0  0
   59.2536   32.4159   49.3770 H   0  0  0  0  0  0  0  0  0  0  0  0
   60.2792   33.8906   49.3770 H   0  0  0  0  0  0  0  0  0  0  0  0
   59.6366   35.7208   47.5783 H   0  0  0  0  0  0  0  0  0  0  0  0
   59.3785   35.9269   45.1070 H   0  0  0  0  0  0  0  0  0  0  0  0
   58.7303   33.9451   43.7429 H   0  0  0  0  0  0  0  0  0  0  0  0
   58.7908   31.4311   43.6715 H   0  0  0  0  0  0  0  0  0  0  0  0
   59.6930   29.8159   45.0438 H   0  0  0  0  0  0  0  0  0  0  0  0
   58.6670   30.2281   46.4367 H   0  0  0  0  0  0  0  0  0  0  0  0
   59.8855   27.1990   44.8261 H   0  0  0  0  0  0  0  0  0  0  0  0
   59.4450   24.7686   45.6703 H   0  0  0  0  0  0  0  0  0  0  0  0
   56.9874   24.4133   46.5487 H   0  0  0  0  0  0  0  0  0  0  0  0
   58.5897   31.5246   47.3356 H   0  0  0  0  0  0  0  0  0  0  0  0
  1  2  1  0
  2  3  2  0
  3  4  1  0
  4  5  2  0
  5  6  1  0
  6  7  1  0
  7  8  1  0
  8  9  1  0
  9 10  1  0
 10 11  2  0
 11 12  1  0
 12 13  2  0
 13 14  1  0
  9 15  1  0
 15 16  2  0
 15 17  2  0
 15 18  1  0
  6 19  2  0
 19  2  1  0
 18  7  1  0
 14 10  1  0
  1 20  1  0
  1 21  1  0
  1 22  1  0
  3 23  1  0
  4 24  1  0
  5 25  1  0
  7 26  1  6
  8 27  1  0
  8 28  1  0
 11 29  1  0
 12 30  1  0
 13 31  1  0
 19 32  1  0
M  END
>  <UniqueID>  (8) 
8

>  <SMILES>  (8) 
Cc1cccc([C@H]2CN(c3cccs3)S(=O)(=O)O2)c1

>  <Energy>  (8) 
67.62306661287995

>  <Genealogy>  (8) 
Cc1cccc([C@H]2CN(c3cccs3)S(=O)(=O)O2)c1 (chirality)
Cc1cccc([C@H]2CN(c3cccs3)S(=O)(=O)O2)c1 (3D coordinates assigned)
Cc1cccc([C@H]2CN(c3cccs3)S(=O)(=O)O2)c1 (nonaromatic ring conformer: 67.62306661287995 kcal/mol)

>  <smiles>  (8) 
Cc1cccc(C2CN(c3cccs3)S(=O)(=O)O2)c1

>  <score_type>  (8) 
oracle

>  <origin>  (8) 
adg

>  <m_score__min__energy>  (8) 
-8.1500000000000004

>  <m_primary>  (8) 
energy

$$$$
8:0
     RDKit          3D

 43 45  0  0  0  0  0  0  0  0999 V2000
   62.7215   33.8735   46.3310 H   0  0  0  0  0  0  0  0  0  0  0  0
   61.7230   33.8530   46.7920 C   0  0  0  0  0  0  0  0  0  0  0  0
   60.5830   33.7800   45.9860 C   0  0  0  0  0  0  0  0  0  0  0  0
   60.6865   33.7413   44.8916 H   0  0  0  0  0  0  0  0  0  0  0  0
   59.3080   33.7560   46.5690 C   0  0  0  0  0  0  0  0  0  0  0  0
   57.8650   33.6790   45.5640 S   0  0  0  0  0  0  0  0  0  0  0  0
   57.7300   34.9720   44.8120 O   0  0  0  0  0  0  0  0  0  0  0  0
   56.6390   33.4730   46.4080 O   0  0  0  0  0  0  0  0  0  0  0  0
   58.0000   32.3690   44.4320 N   0  0  0  0  0  0  0  0  0  0  0  0
   58.0790   32.6240   43.4220 H   0  0  0  0  0  0  0  0  0  0  0  0
   58.1310   30.9880   44.8160 C   0  0  0  0  0  0  0  0  0  0  0  0
   57.1900   30.0150   44.4260 C   0  0  0  0  0  0  0  0  0  0  0  0
   56.3298   30.3043   43.8045 H   0  0  0  0  0  0  0  0  0  0  0  0
   57.3430   28.6850   44.8240 C   0  0  0  0  0  0  0  0  0  0  0  0
   56.6019   27.9328   44.5158 H   0  0  0  0  0  0  0  0  0  0  0  0
   58.4360   28.3040   45.6140 C   0  0  0  0  0  0  0  0  0  0  0  0
   58.6400   26.6310   46.1170 S   0  0  0  0  0  0  0  0  0  0  0  0
   59.8800   26.5190   46.9590 O   0  0  0  0  0  0  0  0  0  0  0  0
   58.7640   25.7420   44.9100 O   0  0  0  0  0  0  0  0  0  0  0  0
   57.2550   26.1450   47.0360 N   0  0  0  0  0  0  0  0  0  0  0  0
   56.1390   25.7930   46.4790 C   0  0  0  0  0  0  0  0  0  0  0  0
   55.1360   26.6050   46.2320 O   0  0  0  0  0  0  0  0  0  0  0  0
   54.1610   25.9660   45.6500 N   0  0  0  0  0  0  0  0  0  0  0  0
   54.5550   24.6810   45.5130 C   0  0  0  0  0  0  0  0  0  0  0  0
   53.7240   23.6170   44.8740 C   0  0  0  0  0  0  0  0  0  0  0  0
   53.2469   23.0061   45.6545 H   0  0  0  0  0  0  0  0  0  0  0  0
   52.9487   24.0835   44.2484 H   0  0  0  0  0  0  0  0  0  0  0  0
   54.3644   22.9778   44.2484 H   0  0  0  0  0  0  0  0  0  0  0  0
   55.8200   24.5250   46.0510 C   0  0  0  0  0  0  0  0  0  0  0  0
   56.6850   23.3030   46.0480 C   0  0  0  0  0  0  0  0  0  0  0  0
   56.8980   23.0020   47.0844 H   0  0  0  0  0  0  0  0  0  0  0  0
   56.1632   22.4857   45.5287 H   0  0  0  0  0  0  0  0  0  0  0  0
   57.6293   23.5235   45.5287 H   0  0  0  0  0  0  0  0  0  0  0  0
   59.3810   29.2640   45.9930 C   0  0  0  0  0  0  0  0  0  0  0  0
   60.2452   28.9697   46.6066 H   0  0  0  0  0  0  0  0  0  0  0  0
   59.2310   30.5950   45.5950 C   0  0  0  0  0  0  0  0  0  0  0  0
   59.9813   31.3415   45.8946 H   0  0  0  0  0  0  0  0  0  0  0  0
   59.1850   33.7970   47.9660 C   0  0  0  0  0  0  0  0  0  0  0  0
   58.1881   33.7693   48.4301 H   0  0  0  0  0  0  0  0  0  0  0  0
   60.3270   33.8730   48.7700 C   0  0  0  0  0  0  0  0  0  0  0  0
   60.2270   33.9115   49.8648 H   0  0  0  0  0  0  0  0  0  0  0  0
   61.5950   33.9000   48.1830 C   0  0  0  0  0  0  0  0  0  0  0  0
   62.7010   33.9770   48.9640 F   0  0  0  0  0  0  0  0  0  0  0  0
  1  2  1  0
  2  3  2  0
  3  4  1  0
  3  5  1  0
  5  6  1  0
  6  7  2  0
  6  8  2  0
  6  9  1  0
  9 10  1  0
  9 11  1  0
 11 12  2  0
 12 13  1  0
 12 14  1  0
 14 15  1  0
 14 16  2  0
 16 17  1  0
 17 18  2  0
 17 19  2  0
 17 20  1  0
 20 21  2  0
 21 22  1  0
 22 23  1  0
 23 24  1  0
 24 25  1  0
 25 26  1  0
 25 27  1  0
 25 28  1  0
 24 29  2  0
 29 30  1  0
 30 31  1  0
 30 32  1  0
 30 33  1  0
 16 34  1  0
 34 35  1  0
 34 36  2  0
 36 37  1  0
  5 38  2  0
 38 39  1  0
 38 40  1  0
 40 41  1  0
 40 42  2  0
 42 43  1  0
 42  2  1  0
 36 11  1  0
 29 21  1  0
M  CHG  1  23  -1
M  END
>  <UniqueID>  (9) 
9

>  <SMILES>  (9) 
Cc1[n-]o/c(=N\S(=O)(=O)c2ccc(NS(=O)(=O)c3ccc(F)cc3)cc2)c1C

>  <Energy>  (9) 
80.9381471089013

>  <Genealogy>  (9) 
Cc1[n-]oc(=NS(=O)(=O)c2ccc(NS(=O)(=O)c3ccc(F)cc3)cc2)c1C (protonated)
Cc1[n-]o/c(=N\S(=O)(=O)c2ccc(NS(=O)(=O)c3ccc(F)cc3)cc2)c1C (cis-trans isomerization)
Cc1[n-]o/c(=N\S(=O)(=O)c2ccc(NS(=O)(=O)c3ccc(F)cc3)cc2)c1C (3D coordinates assigned)
Cc1[n-]o/c(=N\S(=O)(=O)c2ccc(NS(=O)(=O)c3ccc(F)cc3)cc2)c1C (optimized conformer: 80.9381471089013 kcal/mol)

>  <smiles>  (9) 
Cc1[nH]oc(=NS(=O)(=O)c2ccc(NS(=O)(=O)c3ccc(F)cc3)cc2)c1C

>  <score_type>  (9) 
oracle

>  <origin>  (9) 
adg

>  <m_score__min__energy>  (9) 
-12.31

>  <m_primary>  (9) 
energy

$$$$
9:0
     RDKit          3D

 35 37  0  0  0  0  0  0  0  0999 V2000
   61.4840   31.5160   48.4030 C   0  0  0  0  0  0  0  0  0  0  0  0
   60.5620   30.3890   48.0440 C   0  0  0  0  0  0  0  0  0  0  0  0
   59.4000   30.1610   48.7950 C   0  0  0  0  0  0  0  0  0  0  0  0
   58.5200   29.1330   48.4410 C   0  0  0  0  0  0  0  0  0  0  0  0
   58.7950   28.3180   47.3280 C   0  0  0  0  0  0  0  0  0  0  0  0
   57.9060   27.2690   46.9160 N   0  0  0  0  0  0  0  0  0  0  0  0
   56.9450   27.3360   45.8550 C   0  0  0  0  0  0  0  0  0  0  0  0
   55.7930   26.8430   45.9920 O   0  0  0  0  0  0  0  0  0  0  0  0
   57.3160   27.9950   44.5670 C   0  0  0  0  0  0  0  0  0  0  0  0
   57.1780   29.4390   44.7000 N   0  0  0  0  0  0  0  0  0  0  0  0
   56.0420   30.0970   44.5450 N   0  0  0  0  0  0  0  0  0  0  0  0
   56.2500   31.3790   44.8000 N   0  0  0  0  0  0  0  0  0  0  0  0
   57.5570   31.4580   45.1250 C   0  0  0  0  0  0  0  0  0  0  0  0
   58.2460   32.7000   45.4960 C   0  0  0  0  0  0  0  0  0  0  0  0
   58.4720   33.7450   44.6040 C   0  0  0  0  0  0  0  0  0  0  0  0
   59.2670   34.9710   45.4370 S   0  0  0  0  0  0  0  0  0  0  0  0
   59.3020   34.1150   46.8830 C   0  0  0  0  0  0  0  0  0  0  0  0
   59.8300   34.6480   48.1720 C   0  0  0  0  0  0  0  0  0  0  0  0
   58.6980   32.9150   46.7620 N   0  0  0  0  0  0  0  0  0  0  0  0
   58.1530   30.2510   45.0750 N   0  0  0  0  0  0  0  0  0  0  0  0
   59.9330   28.5770   46.5550 C   0  0  0  0  0  0  0  0  0  0  0  0
   60.8130   29.6030   46.9090 C   0  0  0  0  0  0  0  0  0  0  0  0
   61.5522   31.5994   49.4977 H   0  0  0  0  0  0  0  0  0  0  0  0
   62.4832   31.3189   47.9873 H   0  0  0  0  0  0  0  0  0  0  0  0
   61.0929   32.4563   47.9873 H   0  0  0  0  0  0  0  0  0  0  0  0
   59.1793   30.7939   49.6672 H   0  0  0  0  0  0  0  0  0  0  0  0
   57.6101   28.9614   49.0348 H   0  0  0  0  0  0  0  0  0  0  0  0
   58.3583   27.7483   44.3164 H   0  0  0  0  0  0  0  0  0  0  0  0
   56.6506   27.6363   43.7679 H   0  0  0  0  0  0  0  0  0  0  0  0
   58.1821   33.7652   43.5431 H   0  0  0  0  0  0  0  0  0  0  0  0
   59.3290   34.1423   49.0106 H   0  0  0  0  0  0  0  0  0  0  0  0
   60.9133   34.4653   48.2281 H   0  0  0  0  0  0  0  0  0  0  0  0
   59.6371   35.7295   48.2281 H   0  0  0  0  0  0  0  0  0  0  0  0
   60.1361   27.9680   45.6618 H   0  0  0  0  0  0  0  0  0  0  0  0
   61.7057   29.7952   46.2958 H   0  0  0  0  0  0  0  0  0  0  0  0
  1  2  1  0
  2  3  2  0
  3  4  1  0
  4  5  2  0
  5  6  1  0
  6  7  1  0
  7  8  2  0
  7  9  1  0
  9 10  1  0
 10 11  1  0
 11 12  2  0
 12 13  1  0
 13 14  1  0
 14 15  2  0
 15 16  1  0
 16 17  1  0
 17 18  1  0
 17 19  2  0
 13 20  2  0
  5 21  1  0
 21 22  2  0
 22  2  1  0
 20 10  1  0
 19 14  1  0
  1 23  1  0
  1 24  1  0
  1 25  1  0
  3 26  1  0
  4 27  1  0
  9 28  1  0
  9 29  1  0
 15 30  1  0
 18 31  1  0
 18 32  1  0
 18 33  1  0
 21 34  1  0
 22 35  1  0
M  CHG  1   6  -1
M  END
>  <UniqueID>  (10) 
10

>  <SMILES>  (10) 
Cc1ccc([N-]C(=O)Cn2nnc(-c3csc(C)n3)n2)cc1

>  <Energy>  (10) 
102.76083952838768

>  <Genealogy>  (10) 
Cc1ccc([N-]C(=O)Cn2nnc(-c3csc(C)n3)n2)cc1 (protonated)
Cc1ccc([N-]C(=O)Cn2nnc(-c3csc(C)n3)n2)cc1 (3D coordinates assigned)
Cc1ccc([N-]C(=O)Cn2nnc(-c3csc(C)n3)n2)cc1 (optimized conformer: 102.76083952838768 kcal/mol)

>  <smiles>  (10) 
Cc1ccc(NC(=O)Cn2nnc(-c3csc(C)n3)n2)cc1

>  <score_type>  (10) 
oracle

>  <origin>  (10) 
adg

>  <m_score__min__energy>  (10) 
-9.2699999999999996

>  <m_primary>  (10) 
energy

$$$$
10:0
     RDKit          3D

 41 42  0  0  0  0  0  0  0  0999 V2000
   59.3070   34.1130   46.4310 C   0  0  0  0  0  0  0  0  0  0  0  0
   58.3410   34.1190   45.3190 N   0  0  0  0  0  0  0  0  0  0  0  0
   56.9980   33.8060   45.8340 C   0  0  0  0  0  0  0  0  0  0  0  0
   58.7260   33.1390   44.2820 C   0  0  0  0  0  0  0  0  0  0  0  0
   58.0470   31.8150   44.5240 C   0  0  0  0  0  0  0  0  0  0  0  0
   57.0320   31.3650   43.6650 C   0  0  0  0  0  0  0  0  0  0  0  0
   56.3940   30.1450   43.9080 C   0  0  0  0  0  0  0  0  0  0  0  0
   56.7660   29.3510   45.0030 C   0  0  0  0  0  0  0  0  0  0  0  0
   56.0770   28.1120   45.2430 N   0  0  0  0  0  0  0  0  0  0  0  0
   56.6540   26.9980   45.9460 C   0  0  0  0  0  0  0  0  0  0  0  0
   57.8980   26.9410   46.1350 O   0  0  0  0  0  0  0  0  0  0  0  0
   55.8380   25.9180   46.4130 N   0  0  0  0  0  0  0  0  0  0  0  0
   55.1880   24.9480   45.5420 C   0  0  0  0  0  0  0  0  0  0  0  0
   56.2120   23.9760   45.0270 C   0  0  0  0  0  0  0  0  0  0  0  0
   57.4260   23.8030   45.7120 C   0  0  0  0  0  0  0  0  0  0  0  0
   58.3680   22.8780   45.2550 C   0  0  0  0  0  0  0  0  0  0  0  0
   58.1010   22.1090   44.1190 C   0  0  0  0  0  0  0  0  0  0  0  0
   56.8900   22.2610   43.4400 C   0  0  0  0  0  0  0  0  0  0  0  0
   55.9430   23.1860   43.8930 C   0  0  0  0  0  0  0  0  0  0  0  0
   54.7650   23.3090   43.2290 F   0  0  0  0  0  0  0  0  0  0  0  0
   57.7640   29.8170   45.8780 C   0  0  0  0  0  0  0  0  0  0  0  0
   58.4020   31.0370   45.6360 C   0  0  0  0  0  0  0  0  0  0  0  0
   58.7646   34.1164   47.3879 H   0  0  0  0  0  0  0  0  0  0  0  0
   59.9333   33.2109   46.3677 H   0  0  0  0  0  0  0  0  0  0  0  0
   59.9445   35.0072   46.3677 H   0  0  0  0  0  0  0  0  0  0  0  0
   57.0168   33.8104   46.9338 H   0  0  0  0  0  0  0  0  0  0  0  0
   56.2829   34.5616   45.4765 H   0  0  0  0  0  0  0  0  0  0  0  0
   56.6906   32.8122   45.4765 H   0  0  0  0  0  0  0  0  0  0  0  0
   58.4291   33.5222   43.2946 H   0  0  0  0  0  0  0  0  0  0  0  0
   59.8153   32.9910   44.3213 H   0  0  0  0  0  0  0  0  0  0  0  0
   56.7377   31.9743   42.7978 H   0  0  0  0  0  0  0  0  0  0  0  0
   55.5934   29.8048   43.2347 H   0  0  0  0  0  0  0  0  0  0  0  0
   55.1400   27.9870   44.8000 H   0  0  0  0  0  0  0  0  0  0  0  0
   54.4178   24.4041   46.1085 H   0  0  0  0  0  0  0  0  0  0  0  0
   54.7183   25.4704   44.6955 H   0  0  0  0  0  0  0  0  0  0  0  0
   57.6360   24.3987   46.6126 H   0  0  0  0  0  0  0  0  0  0  0  0
   59.3212   22.7548   45.7901 H   0  0  0  0  0  0  0  0  0  0  0  0
   58.8453   21.3833   43.7593 H   0  0  0  0  0  0  0  0  0  0  0  0
   56.6804   21.6526   42.5478 H   0  0  0  0  0  0  0  0  0  0  0  0
   58.0438   29.2182   46.7573 H   0  0  0  0  0  0  0  0  0  0  0  0
   59.1870   31.3890   46.3215 H   0  0  0  0  0  0  0  0  0  0  0  0
  1  2  1  0
  2  3  1  0
  2  4  1  0
  4  5  1  0
  5  6  2  0
  6  7  1  0
  7  8  2  0
  8  9  1  0
  9 10  1  0
 10 11  2  0
 10 12  1  0
 12 13  1  0
 13 14  1  0
 14 15  2  0
 15 16  1  0
 16 17  2  0
 17 18  1  0
 18 19  2  0
 19 20  1  0
  8 21  1  0
 21 22  2  0
 22  5  1  0
 19 14  1  0
  1 23  1  0
  1 24  1  0
  1 25  1  0
  3 26  1  0
  3 27  1  0
  3 28  1  0
  4 29  1  0
  4 30  1  0
  6 31  1  0
  7 32  1  0
  9 33  1  0
 13 34  1  0
 13 35  1  0
 15 36  1  0
 16 37  1  0
 17 38  1  0
 18 39  1  0
 21 40  1  0
 22 41  1  0
M  CHG  1  12  -1
M  END
>  <UniqueID>  (11) 
11

>  <SMILES>  (11) 
CN(C)Cc1ccc(NC(=O)[N-]Cc2ccccc2F)cc1

>  <Energy>  (11) 
41.97705700331508

>  <Genealogy>  (11) 
CN(C)Cc1ccc(NC(=O)[N-]Cc2ccccc2F)cc1 (protonated)
CN(C)Cc1ccc(NC(=O)[N-]Cc2ccccc2F)cc1 (3D coordinates assigned)
CN(C)Cc1ccc(NC(=O)[N-]Cc2ccccc2F)cc1 (optimized conformer: 41.97705700331508 kcal/mol)

>  <smiles>  (11) 
CN(C)Cc1ccc(NC(=O)NCc2ccccc2F)cc1

>  <score_type>  (11) 
oracle

>  <origin>  (11) 
adg

>  <m_score__min__energy>  (11) 
-9.2400000000000002

>  <m_primary>  (11) 
energy

$$$$
11:0
     RDKit          3D

 42 44  0  0  0  0  0  0  0  0999 V2000
   60.2300   27.1200   48.6240 C   0  0  0  0  0  0  0  0  0  0  0  0
   59.9680   28.3730   49.2490 O   0  0  0  0  0  0  0  0  0  0  0  0
   59.9390   29.6020   48.5740 C   0  0  0  0  0  0  0  0  0  0  0  0
   58.8190   30.4530   48.6010 C   0  0  0  0  0  0  0  0  0  0  0  0
   58.8440   31.6740   47.9210 C   0  0  0  0  0  0  0  0  0  0  0  0
   59.9850   32.0590   47.1960 C   0  0  0  0  0  0  0  0  0  0  0  0
   60.0840   33.3350   46.5450 N   0  0  0  0  0  0  0  0  0  0  0  0
   59.0550   34.3260   46.4230 C   0  0  0  0  0  0  0  0  0  0  0  0
   59.2730   35.5280   46.7310 O   0  0  0  0  0  0  0  0  0  0  0  0
   57.7060   33.9170   45.9210 C   0  0  0  0  0  0  0  0  0  0  0  0
   57.7750   33.3610   44.1790 S   0  0  0  0  0  0  0  0  0  0  0  0
   57.7340   31.6110   44.5620 C   0  0  0  0  0  0  0  0  0  0  0  0
   58.8890   30.9240   44.7480 N   0  0  0  0  0  0  0  0  0  0  0  0
   58.8810   29.5830   44.9650 C   0  0  0  0  0  0  0  0  0  0  0  0
   59.9760   28.9760   45.1070 O   0  0  0  0  0  0  0  0  0  0  0  0
   57.6590   28.8840   45.0020 C   0  0  0  0  0  0  0  0  0  0  0  0
   57.6140   27.4130   45.1850 C   0  0  0  0  0  0  0  0  0  0  0  0
   57.8030   26.5560   44.0860 C   0  0  0  0  0  0  0  0  0  0  0  0
   57.7650   25.1690   44.2570 C   0  0  0  0  0  0  0  0  0  0  0  0
   57.5380   24.6270   45.5240 C   0  0  0  0  0  0  0  0  0  0  0  0
   57.3490   25.4690   46.6220 C   0  0  0  0  0  0  0  0  0  0  0  0
   57.3870   26.8570   46.4560 C   0  0  0  0  0  0  0  0  0  0  0  0
   56.4770   29.6250   44.8310 C   0  0  0  0  0  0  0  0  0  0  0  0
   55.2330   29.0010   44.8910 O   0  0  0  0  0  0  0  0  0  0  0  0
   56.5430   30.9630   44.6110 N   0  0  0  0  0  0  0  0  0  0  0  0
   61.1010   31.2150   47.1810 C   0  0  0  0  0  0  0  0  0  0  0  0
   61.0750   29.9920   47.8570 C   0  0  0  0  0  0  0  0  0  0  0  0
   60.3906   26.3521   49.3951 H   0  0  0  0  0  0  0  0  0  0  0  0
   59.3717   26.8363   47.9972 H   0  0  0  0  0  0  0  0  0  0  0  0
   61.1300   27.2040   47.9972 H   0  0  0  0  0  0  0  0  0  0  0  0
   57.9193   30.1561   49.1599 H   0  0  0  0  0  0  0  0  0  0  0  0
   57.9666   32.3367   47.9534 H   0  0  0  0  0  0  0  0  0  0  0  0
   57.3282   33.0929   46.5440 H   0  0  0  0  0  0  0  0  0  0  0  0
   57.0390   34.7899   45.9772 H   0  0  0  0  0  0  0  0  0  0  0  0
   57.9817   26.9793   43.0866 H   0  0  0  0  0  0  0  0  0  0  0  0
   57.9139   24.5043   43.3933 H   0  0  0  0  0  0  0  0  0  0  0  0
   57.5080   23.5355   45.6572 H   0  0  0  0  0  0  0  0  0  0  0  0
   57.1700   25.0398   47.6189 H   0  0  0  0  0  0  0  0  0  0  0  0
   57.2386   27.5166   47.3237 H   0  0  0  0  0  0  0  0  0  0  0  0
   55.1420   28.0510   45.2270 H   0  0  0  0  0  0  0  0  0  0  0  0
   62.0058   31.5164   46.6329 H   0  0  0  0  0  0  0  0  0  0  0  0
   61.9540   29.3315   47.8250 H   0  0  0  0  0  0  0  0  0  0  0  0
  1  2  1  0
  2  3  1  0
  3  4  2  0
  4  5  1  0
  5  6  2  0
  6  7  1  0
  7  8  1  0
  8  9  2  0
  8 10  1  0
 10 11  1  0
 11 12  1  0
 12 13  2  0
 13 14  1  0
 14 15  2  0
 14 16  1  0
 16 17  1  0
 17 18  2  0
 18 19  1  0
 19 20  2  0
 20 21  1  0
 21 22  2  0
 16 23  2  0
 23 24  1  0
 23 25  1  0
  6 26  1  0
 26 27  2  0
 27  3  1  0
 25 12  1  0
 22 17  1  0
  1 28  1  0
  1 29  1  0
  1 30  1  0
  4 31  1  0
  5 32  1  0
 10 33  1  0
 10 34  1  0
 18 35  1  0
 19 36  1  0
 20 37  1  0
 21 38  1  0
 22 39  1  0
 24 40  1  0
 26 41  1  0
 27 42  1  0
M  CHG  2   7  -1  25  -1
M  END
>  <UniqueID>  (12) 
12

>  <SMILES>  (12) 
COc1ccc([N-]C(=O)CSc2nc(=O)c(-c3ccccc3)c(O)[n-]2)cc1

>  <Energy>  (12) 
47.382985067418915

>  <Genealogy>  (12) 
COc1ccc([N-]C(=O)CSc2nc(=O)c(-c3ccccc3)c(O)[n-]2)cc1 (protonated)
COc1ccc([N-]C(=O)CSc2nc(=O)c(-c3ccccc3)c(O)[n-]2)cc1 (3D coordinates assigned)
COc1ccc([N-]C(=O)CSc2nc(=O)c(-c3ccccc3)c(O)[n-]2)cc1 (optimized conformer: 47.382985067418915 kcal/mol)

>  <smiles>  (12) 
COc1ccc(NC(=O)CSc2nc(=O)c(-c3ccccc3)c(O)[nH]2)cc1

>  <score_type>  (12) 
oracle

>  <origin>  (12) 
adg

>  <m_score__min__energy>  (12) 
-11.48

>  <m_primary>  (12) 
energy

$$$$
12:0
     RDKit          3D

 32 33  0  0  0  0  0  0  0  0999 V2000
   57.7840   32.3270   42.3340 C   0  0  0  0  0  0  0  0  0  0  0  0
   58.0700   31.8060   43.5350 C   0  0  0  0  0  0  0  0  0  0  0  0
   58.3130   32.7430   44.6580 C   0  0  0  0  0  0  0  0  0  0  0  0
   57.7790   32.4810   45.9290 C   0  0  0  0  0  0  0  0  0  0  0  0
   58.0270   33.3570   46.9910 C   0  0  0  0  0  0  0  0  0  0  0  0
   58.8210   34.4910   46.7950 C   0  0  0  0  0  0  0  0  0  0  0  0
   59.0620   35.3360   47.8250 F   0  0  0  0  0  0  0  0  0  0  0  0
   59.3750   34.7440   45.5360 C   0  0  0  0  0  0  0  0  0  0  0  0
   59.1290   33.8710   44.4730 C   0  0  0  0  0  0  0  0  0  0  0  0
   58.0130   30.3650   43.7430 N   0  0  0  0  0  0  0  0  0  0  0  0
   59.1120   29.8930   44.6110 C   0  0  0  0  0  0  0  0  0  0  0  0
   59.1750   28.3510   44.6520 C   0  0  0  0  0  0  0  0  0  0  0  0
   57.8150   27.6930   44.3720 C   0  0  0  0  0  0  0  0  0  0  0  0
   56.6650   28.5550   44.8930 C   0  0  0  0  0  0  0  0  0  0  0  0
   56.6860   29.9780   44.2860 C   0  0  0  0  0  0  0  0  0  0  0  0
   57.5976   31.6633   41.4768 H   0  0  0  0  0  0  0  0  0  0  0  0
   57.7356   33.4184   42.2053 H   0  0  0  0  0  0  0  0  0  0  0  0
   57.1634   31.5838   46.0907 H   0  0  0  0  0  0  0  0  0  0  0  0
   57.5964   33.1532   47.9825 H   0  0  0  0  0  0  0  0  0  0  0  0
   60.0057   35.6320   45.3823 H   0  0  0  0  0  0  0  0  0  0  0  0
   59.5762   34.0680   43.4875 H   0  0  0  0  0  0  0  0  0  0  0  0
   58.1330   29.8910   42.8150 H   0  0  0  0  0  0  0  0  0  0  0  0
   60.0658   30.2799   44.2231 H   0  0  0  0  0  0  0  0  0  0  0  0
   58.9284   30.2592   45.6319 H   0  0  0  0  0  0  0  0  0  0  0  0
   59.8943   28.0081   43.8937 H   0  0  0  0  0  0  0  0  0  0  0  0
   59.4823   28.0585   45.6669 H   0  0  0  0  0  0  0  0  0  0  0  0
   57.6987   27.5579   43.2865 H   0  0  0  0  0  0  0  0  0  0  0  0
   57.7848   26.7228   44.8896 H   0  0  0  0  0  0  0  0  0  0  0  0
   55.7121   28.0715   44.6317 H   0  0  0  0  0  0  0  0  0  0  0  0
   56.7778   28.6490   45.9832 H   0  0  0  0  0  0  0  0  0  0  0  0
   55.9490   30.0207   43.4705 H   0  0  0  0  0  0  0  0  0  0  0  0
   56.4477   30.6819   45.0970 H   0  0  0  0  0  0  0  0  0  0  0  0
  1  2  2  0
  2  3  1  0
  3  4  2  0
  4  5  1  0
  5  6  2  0
  6  7  1  0
  6  8  1  0
  8  9  2  0
  2 10  1  0
 10 11  1  0
 11 12  1  0
 12 13  1  0
 13 14  1  0
 14 15  1  0
  9  3  1  0
 15 10  1  0
  1 16  1  0
  1 17  1  0
  4 18  1  0
  5 19  1  0
  8 20  1  0
  9 21  1  0
 10 22  1  0
 11 23  1  0
 11 24  1  0
 12 25  1  0
 12 26  1  0
 13 27  1  0
 13 28  1  0
 14 29  1  0
 14 30  1  0
 15 31  1  0
 15 32  1  0
M  CHG  1  10   1
M  END
>  <UniqueID>  (13) 
13

>  <SMILES>  (13) 
C=C(c1ccc(F)cc1)[NH+]1CCCCC1

>  <Energy>  (13) 
46.06152129493612

>  <Genealogy>  (13) 
C=C(c1ccc(F)cc1)[NH+]1CCCCC1 (protonated)
C=C(c1ccc(F)cc1)[NH+]1CCCCC1 (3D coordinates assigned)
C=C(c1ccc(F)cc1)[NH+]1CCCCC1 (nonaromatic ring conformer: 46.06152129493612 kcal/mol)

>  <smiles>  (13) 
C=C(c1ccc(F)cc1)N1CCCCC1

>  <score_type>  (13) 
oracle

>  <origin>  (13) 
adg

>  <m_score__min__energy>  (13) 
-4.8099999999999996

>  <m_primary>  (13) 
energy

$$$$
13:0
     RDKit          3D

 35 37  0  0  0  0  0  0  0  0999 V2000
   64.0850   33.0000   47.8720 C   0  0  0  0  0  0  0  0  0  0  0  0
   63.5950   32.9550   49.1800 C   0  0  0  0  0  0  0  0  0  0  0  0
   62.2820   33.3520   49.4500 C   0  0  0  0  0  0  0  0  0  0  0  0
   61.4470   33.7910   48.4090 C   0  0  0  0  0  0  0  0  0  0  0  0
   60.0460   34.2660   48.7040 C   0  0  0  0  0  0  0  0  0  0  0  0
   58.9900   33.3230   48.0870 C   0  0  2  0  0  0  0  0  0  0  0  0
   59.4980   31.8970   47.9910 C   0  0  0  0  0  0  0  0  0  0  0  0
   59.8890   31.3720   46.7460 C   0  0  0  0  0  0  0  0  0  0  0  0
   60.3300   30.0500   46.6430 C   0  0  0  0  0  0  0  0  0  0  0  0
   60.3850   29.2380   47.7780 C   0  0  0  0  0  0  0  0  0  0  0  0
   59.9950   29.7470   49.0190 C   0  0  0  0  0  0  0  0  0  0  0  0
   59.5520   31.0680   49.1270 C   0  0  0  0  0  0  0  0  0  0  0  0
   58.5430   33.7930   46.7680 N   0  0  0  0  0  0  0  0  0  0  0  0
   57.4160   33.4140   46.1410 C   0  0  0  0  0  0  0  0  0  0  0  0
   57.3940   34.0080   44.9010 C   0  0  0  0  0  0  0  0  0  0  0  0
   58.5080   34.7480   44.7360 N   0  0  0  0  0  0  0  0  0  0  0  0
   59.1890   34.5910   45.8900 C   0  0  0  0  0  0  0  0  0  0  0  0
   61.9500   33.8430   47.0980 C   0  0  0  0  0  0  0  0  0  0  0  0
   63.2630   33.4440   46.8320 C   0  0  0  0  0  0  0  0  0  0  0  0
   65.1178   32.6860   47.6607 H   0  0  0  0  0  0  0  0  0  0  0  0
   64.2430   32.6069   49.9979 H   0  0  0  0  0  0  0  0  0  0  0  0
   61.9012   33.3205   50.4815 H   0  0  0  0  0  0  0  0  0  0  0  0
   59.9018   34.3005   49.7940 H   0  0  0  0  0  0  0  0  0  0  0  0
   59.9187   35.2651   48.2617 H   0  0  0  0  0  0  0  0  0  0  0  0
   58.1249   33.3348   48.7663 H   0  0  0  0  0  0  0  0  0  0  0  0
   59.8474   32.0059   45.8480 H   0  0  0  0  0  0  0  0  0  0  0  0
   60.6346   29.6479   45.6655 H   0  0  0  0  0  0  0  0  0  0  0  0
   60.7351   28.1985   47.6948 H   0  0  0  0  0  0  0  0  0  0  0  0
   60.0367   29.1070   49.9127 H   0  0  0  0  0  0  0  0  0  0  0  0
   59.2435   31.4625   50.1064 H   0  0  0  0  0  0  0  0  0  0  0  0
   56.6447   32.7444   46.5493 H   0  0  0  0  0  0  0  0  0  0  0  0
   56.5906   33.8963   44.1580 H   0  0  0  0  0  0  0  0  0  0  0  0
   60.1626   35.0608   46.0935 H   0  0  0  0  0  0  0  0  0  0  0  0
   61.3084   34.1988   46.2784 H   0  0  0  0  0  0  0  0  0  0  0  0
   63.6500   33.4794   45.8029 H   0  0  0  0  0  0  0  0  0  0  0  0
  1  2  2  0
  2  3  1  0
  3  4  2  0
  4  5  1  0
  5  6  1  0
  6  7  1  0
  7  8  2  0
  8  9  1  0
  9 10  2  0
 10 11  1  0
 11 12  2  0
  6 13  1  0
 13 14  1  0
 14 15  2  0
 15 16  1  0
 16 17  2  0
  4 18  1  0
 18 19  2  0
 19  1  1  0
 12  7  1  0
 17 13  1  0
  1 20  1  0
  2 21  1  0
  3 22  1  0
  5 23  1  0
  5 24  1  0
  6 25  1  1
  8 26  1  0
  9 27  1  0
 10 28  1  0
 11 29  1  0
 12 30  1  0
 14 31  1  0
 15 32  1  0
 17 33  1  0
 18 34  1  0
 19 35  1  0
M  END
>  <UniqueID>  (14) 
14

>  <SMILES>  (14) 
c1ccc(C[C@H](c2ccccc2)n2ccnc2)cc1

>  <Energy>  (14) 
64.73606207390972

>  <Genealogy>  (14) 
c1ccc(C[C@H](c2ccccc2)n2ccnc2)cc1 (chirality)
c1ccc(C[C@H](c2ccccc2)n2ccnc2)cc1 (3D coordinates assigned)
c1ccc(C[C@H](c2ccccc2)n2ccnc2)cc1 (optimized conformer: 64.73606207390972 kcal/mol)

>  <smiles>  (14) 
c1ccc(CC(c2ccccc2)n2ccnc2)cc1

>  <score_type>  (14) 
oracle

>  <origin>  (14) 
adg

>  <m_score__min__energy>  (14) 
-6.2699999999999996

>  <m_primary>  (14) 
energy

$$$$
14:0
     RDKit          3D

 73 75  0  0  0  0  0  0  0  0999 V2000
   60.6660   27.8570   50.3340 C   0  0  0  0  0  0  0  0  0  0  0  0
   60.3410   29.2900   50.7530 C   0  0  0  0  0  0  0  0  0  0  0  0
   58.8570   29.6540   50.5580 C   0  0  0  0  0  0  0  0  0  0  0  0
   58.5880   30.9450   49.7530 C   0  0  0  0  0  0  0  0  0  0  0  0
   58.4850   32.2310   50.5950 C   0  0  0  0  0  0  0  0  0  0  0  0
   59.3510   32.1940   51.8670 C   0  0  0  0  0  0  0  0  0  0  0  0
   60.7240   32.8450   51.6120 C   0  0  0  0  0  0  0  0  0  0  0  0
   60.7900   33.7560   50.3500 C   0  0  0  0  0  0  0  0  0  0  0  0
   61.4650   33.2110   49.1120 N   0  0  1  0  0  0  0  0  0  0  0  0
   62.6030   34.0960   48.7220 C   0  0  0  0  0  0  0  0  0  0  0  0
   61.8470   31.7640   49.3180 C   0  0  0  0  0  0  0  0  0  0  0  0
   63.3210   31.4920   49.6690 C   0  0  0  0  0  0  0  0  0  0  0  0
   60.4290   33.2880   48.0190 C   0  0  0  0  0  0  0  0  0  0  0  0
   60.5700   34.4810   47.0230 C   0  0  0  0  0  0  0  0  0  0  0  0
   59.2190   35.0460   46.5560 C   0  0  0  0  0  0  0  0  0  0  0  0
   58.5740   34.1200   45.6270 N   0  0  0  0  0  0  0  0  0  0  0  0
   58.3570   32.8060   45.8100 C   0  0  0  0  0  0  0  0  0  0  0  0
   57.6710   32.3780   44.6970 C   0  0  0  0  0  0  0  0  0  0  0  0
   57.1360   31.0030   44.4510 C   0  0  0  0  0  0  0  0  0  0  0  0
   57.0470   30.2780   45.6790 O   0  0  0  0  0  0  0  0  0  0  0  0
   58.0360   29.4250   46.2030 C   0  0  0  0  0  0  0  0  0  0  0  0
   59.2580   29.9250   46.6900 C   0  0  0  0  0  0  0  0  0  0  0  0
   60.2040   29.0430   47.2090 C   0  0  0  0  0  0  0  0  0  0  0  0
   61.2960   29.4850   47.6570 O   0  0  0  0  0  0  0  0  0  0  0  0
   59.9660   27.7380   47.2380 O   0  0  0  0  0  0  0  0  0  0  0  0
   58.8350   27.2040   46.7850 C   0  0  0  0  0  0  0  0  0  0  0  0
   58.6660   25.8150   46.8440 C   0  0  0  0  0  0  0  0  0  0  0  0
   57.4940   25.2270   46.3690 C   0  0  0  0  0  0  0  0  0  0  0  0
   57.3480   23.8420   46.4220 O   0  0  0  0  0  0  0  0  0  0  0  0
   56.4750   26.0300   45.8390 C   0  0  0  0  0  0  0  0  0  0  0  0
   56.6230   27.4210   45.7790 C   0  0  0  0  0  0  0  0  0  0  0  0
   55.5800   28.1760   45.2490 O   0  0  0  0  0  0  0  0  0  0  0  0
   57.8140   28.0280   46.2480 C   0  0  0  0  0  0  0  0  0  0  0  0
   57.5170   33.4250   43.8600 N   0  0  0  0  0  0  0  0  0  0  0  0
   58.0730   34.4700   44.4520 N   0  0  0  0  0  0  0  0  0  0  0  0
   60.8069   27.2358   51.2308 H   0  0  0  0  0  0  0  0  0  0  0  0
   59.8366   27.4531   49.7348 H   0  0  0  0  0  0  0  0  0  0  0  0
   61.5884   27.8504   49.7348 H   0  0  0  0  0  0  0  0  0  0  0  0
   60.5941   29.4098   51.8168 H   0  0  0  0  0  0  0  0  0  0  0  0
   60.9307   29.9614   50.1115 H   0  0  0  0  0  0  0  0  0  0  0  0
   58.3698   28.8195   50.0325 H   0  0  0  0  0  0  0  0  0  0  0  0
   58.4567   29.8382   51.5659 H   0  0  0  0  0  0  0  0  0  0  0  0
   59.4089   31.0744   49.0323 H   0  0  0  0  0  0  0  0  0  0  0  0
   57.6050   30.8104   49.2780 H   0  0  0  0  0  0  0  0  0  0  0  0
   58.8088   33.0809   49.9762 H   0  0  0  0  0  0  0  0  0  0  0  0
   57.4373   32.3287   50.9156 H   0  0  0  0  0  0  0  0  0  0  0  0
   58.8359   32.7412   52.6703 H   0  0  0  0  0  0  0  0  0  0  0  0
   59.5064   31.1446   52.1579 H   0  0  0  0  0  0  0  0  0  0  0  0
   60.9812   33.4565   52.4895 H   0  0  0  0  0  0  0  0  0  0  0  0
   61.4303   32.0202   51.4362 H   0  0  0  0  0  0  0  0  0  0  0  0
   59.7552   34.0069   50.0740 H   0  0  0  0  0  0  0  0  0  0  0  0
   61.4229   34.6019   50.6564 H   0  0  0  0  0  0  0  0  0  0  0  0
   63.0962   34.4795   49.6274 H   0  0  0  0  0  0  0  0  0  0  0  0
   63.3269   33.5212   48.1257 H   0  0  0  0  0  0  0  0  0  0  0  0
   62.2241   34.9391   48.1257 H   0  0  0  0  0  0  0  0  0  0  0  0
   61.2286   31.3672   50.1367 H   0  0  0  0  0  0  0  0  0  0  0  0
   61.6814   31.2753   48.3465 H   0  0  0  0  0  0  0  0  0  0  0  0
   63.4395   31.4701   50.7624 H   0  0  0  0  0  0  0  0  0  0  0  0
   63.6254   30.5225   49.2477 H   0  0  0  0  0  0  0  0  0  0  0  0
   63.9513   32.2890   49.2477 H   0  0  0  0  0  0  0  0  0  0  0  0
   60.4842   32.3561   47.4372 H   0  0  0  0  0  0  0  0  0  0  0  0
   59.4686   33.4433   48.5323 H   0  0  0  0  0  0  0  0  0  0  0  0
   61.1322   35.2857   47.5194 H   0  0  0  0  0  0  0  0  0  0  0  0
   61.0901   34.1012   46.1312 H   0  0  0  0  0  0  0  0  0  0  0  0
   58.5673   35.1960   47.4294 H   0  0  0  0  0  0  0  0  0  0  0  0
   59.3905   36.0042   46.0437 H   0  0  0  0  0  0  0  0  0  0  0  0
   58.6649   32.1975   46.6731 H   0  0  0  0  0  0  0  0  0  0  0  0
   56.1352   31.0783   44.0008 H   0  0  0  0  0  0  0  0  0  0  0  0
   57.8167   30.4709   43.7701 H   0  0  0  0  0  0  0  0  0  0  0  0
   59.4651   31.0049   46.6612 H   0  0  0  0  0  0  0  0  0  0  0  0
   59.4618   25.1845   47.2672 H   0  0  0  0  0  0  0  0  0  0  0  0
   56.6670   23.3600   45.8490 H   0  0  0  0  0  0  0  0  0  0  0  0
   55.5509   25.5634   45.4669 H   0  0  0  0  0  0  0  0  0  0  0  0
  1  2  1  0
  2  3  1  0
  3  4  1  0
  4  5  1  0
  5  6  1  0
  6  7  1  0
  7  8  1  0
  9  8  1  1
  9 10  1  0
  9 11  1  0
 11 12  1  0
  9 13  1  0
 13 14  1  0
 14 15  1  0
 15 16  1  0
 16 17  1  0
 17 18  2  0
 18 19  1  0
 19 20  1  0
 20 21  1  0
 21 22  2  0
 22 23  1  0
 23 24  2  0
 23 25  1  0
 25 26  1  0
 26 27  2  0
 27 28  1  0
 28 29  1  0
 28 30  2  0
 30 31  1  0
 31 32  1  0
 31 33  2  0
 18 34  1  0
 34 35  2  0
 35 16  1  0
 33 21  1  0
 33 26  1  0
  1 36  1  0
  1 37  1  0
  1 38  1  0
  2 39  1  0
  2 40  1  0
  3 41  1  0
  3 42  1  0
  4 43  1  0
  4 44  1  0
  5 45  1  0
  5 46  1  0
  6 47  1  0
  6 48  1  0
  7 49  1  0
  7 50  1  0
  8 51  1  0
  8 52  1  0
 10 53  1  0
 10 54  1  0
 10 55  1  0
 11 56  1  0
 11 57  1  0
 12 58  1  0
 12 59  1  0
 12 60  1  0
 13 61  1  0
 13 62  1  0
 14 63  1  0
 14 64  1  0
 15 65  1  0
 15 66  1  0
 17 67  1  0
 19 68  1  0
 19 69  1  0
 22 70  1  0
 27 71  1  0
 29 72  1  0
 30 73  1  0
M  CHG  2   9   1  32  -1
M  END
>  <UniqueID>  (15) 
15

>  <SMILES>  (15) 
CCCCCCCC[N@@+](C)(CC)CCCn1cc(COc2cc(=O)oc3cc(O)cc([O-])c23)nn1

>  <Energy>  (15) 
129.17698787453526

>  <Genealogy>  (15) 
CCCCCCCC[N+](C)(CC)CCCn1cc(COc2cc(=O)oc3cc(O)cc([O-])c23)nn1 (protonated)
CCCCCCCC[N@@+](C)(CC)CCCn1cc(COc2cc(=O)oc3cc(O)cc([O-])c23)nn1 (chirality)
CCCCCCCC[N@@+](C)(CC)CCCn1cc(COc2cc(=O)oc3cc(O)cc([O-])c23)nn1 (3D coordinates assigned)
CCCCCCCC[N@@+](C)(CC)CCCn1cc(COc2cc(=O)oc3cc(O)cc([O-])c23)nn1 (optimized conformer: 129.17698787453526 kcal/mol)

>  <smiles>  (15) 
CCCCCCCC[N+](C)(CC)CCCn1cc(COc2cc(=O)oc3cc(O)cc(O)c23)nn1

>  <score_type>  (15) 
oracle

>  <origin>  (15) 
adg

>  <m_score__min__energy>  (15) 
-10.58

>  <m_primary>  (15) 
energy

$$$$
15:0
     RDKit          3D

 66 70  0  0  0  0  0  0  0  0999 V2000
   59.8790   33.2890   50.7870 C   0  0  0  0  0  0  0  0  0  0  0  0
   60.7940   34.2190   50.2180 O   0  0  0  0  0  0  0  0  0  0  0  0
   61.9110   33.8680   49.4450 C   0  0  0  0  0  0  0  0  0  0  0  0
   63.1870   33.7020   50.0210 C   0  0  0  0  0  0  0  0  0  0  0  0
   64.2760   33.3220   49.2320 C   0  0  0  0  0  0  0  0  0  0  0  0
   64.1070   33.1030   47.8660 C   0  0  0  0  0  0  0  0  0  0  0  0
   62.8500   33.2680   47.2810 C   0  0  0  0  0  0  0  0  0  0  0  0
   61.7450   33.6580   48.0590 C   0  0  0  0  0  0  0  0  0  0  0  0
   60.4590   33.8310   47.4350 N   0  0  0  0  0  0  0  0  0  0  0  0
   60.1620   35.0570   46.6820 C   0  0  0  0  0  0  0  0  0  0  0  0
   59.1140   34.7760   45.6020 C   0  0  0  0  0  0  0  0  0  0  0  0
   57.8770   34.2080   46.1860 N   0  0  0  0  0  0  0  0  0  0  0  0
   56.9280   33.7300   45.1570 C   0  0  0  0  0  0  0  0  0  0  0  0
   57.3240   32.4050   44.5640 C   0  0  0  0  0  0  0  0  0  0  0  0
   58.0460   32.2810   43.4330 N   0  0  0  0  0  0  0  0  0  0  0  0
   58.1990   31.0030   43.2750 O   0  0  0  0  0  0  0  0  0  0  0  0
   57.6100   30.3610   44.2550 C   0  0  0  0  0  0  0  0  0  0  0  0
   57.5970   28.8930   44.3990 C   0  0  0  0  0  0  0  0  0  0  0  0
   58.1050   28.0690   43.3820 C   0  0  0  0  0  0  0  0  0  0  0  0
   58.0840   26.6790   43.5200 C   0  0  0  0  0  0  0  0  0  0  0  0
   57.5620   26.0830   44.6810 C   0  0  0  0  0  0  0  0  0  0  0  0
   57.5240   24.6080   44.8340 C   0  0  0  0  0  0  0  0  0  0  0  0
   57.9530   24.0860   45.8990 O   0  0  0  0  0  0  0  0  0  0  0  0
   57.0220   23.7650   43.7840 N   0  0  0  0  0  0  0  0  0  0  0  0
   56.8360   22.3220   43.9640 C   0  0  0  0  0  0  0  0  0  0  0  0
   58.1990   21.6190   44.1310 C   0  0  0  0  0  0  0  0  0  0  0  0
   58.5270   21.4120   45.6180 C   0  0  0  0  0  0  0  0  0  0  0  0
   57.5820   20.6030   46.3090 O   0  0  0  0  0  0  0  0  0  0  0  0
   56.2490   20.7070   45.8170 C   0  0  0  0  0  0  0  0  0  0  0  0
   55.9190   22.0620   45.1740 C   0  0  0  0  0  0  0  0  0  0  0  0
   57.0430   26.9100   45.6920 C   0  0  0  0  0  0  0  0  0  0  0  0
   57.0620   28.3010   45.5530 C   0  0  0  0  0  0  0  0  0  0  0  0
   57.0230   31.2130   45.1190 N   0  0  0  0  0  0  0  0  0  0  0  0
   58.0740   33.2530   47.3070 C   0  0  0  0  0  0  0  0  0  0  0  0
   59.5090   32.7150   47.3950 C   0  0  0  0  0  0  0  0  0  0  0  0
   59.9341   33.3450   51.8842 H   0  0  0  0  0  0  0  0  0  0  0  0
   58.8577   33.5316   50.4583 H   0  0  0  0  0  0  0  0  0  0  0  0
   60.1381   32.2718   50.4583 H   0  0  0  0  0  0  0  0  0  0  0  0
   63.3263   33.8727   51.0987 H   0  0  0  0  0  0  0  0  0  0  0  0
   65.2682   33.1955   49.6898 H   0  0  0  0  0  0  0  0  0  0  0  0
   64.9650   32.7998   47.2480 H   0  0  0  0  0  0  0  0  0  0  0  0
   62.7228   33.0915   46.2027 H   0  0  0  0  0  0  0  0  0  0  0  0
   59.7762   35.8221   47.3718 H   0  0  0  0  0  0  0  0  0  0  0  0
   61.0846   35.4142   46.2012 H   0  0  0  0  0  0  0  0  0  0  0  0
   58.8681   35.7170   45.0881 H   0  0  0  0  0  0  0  0  0  0  0  0
   59.5319   34.0438   44.8954 H   0  0  0  0  0  0  0  0  0  0  0  0
   55.9346   33.6253   45.6176 H   0  0  0  0  0  0  0  0  0  0  0  0
   56.9261   34.4686   44.3418 H   0  0  0  0  0  0  0  0  0  0  0  0
   58.5224   28.5211   42.4702 H   0  0  0  0  0  0  0  0  0  0  0  0
   58.4796   26.0452   42.7127 H   0  0  0  0  0  0  0  0  0  0  0  0
   56.9600   24.1490   42.8140 H   0  0  0  0  0  0  0  0  0  0  0  0
   56.3537   21.9039   43.0681 H   0  0  0  0  0  0  0  0  0  0  0  0
   58.1640   20.6405   43.6297 H   0  0  0  0  0  0  0  0  0  0  0  0
   58.9794   22.2511   43.6822 H   0  0  0  0  0  0  0  0  0  0  0  0
   59.5138   20.9316   45.6915 H   0  0  0  0  0  0  0  0  0  0  0  0
   58.5047   22.4047   46.0914 H   0  0  0  0  0  0  0  0  0  0  0  0
   56.0976   19.9211   45.0624 H   0  0  0  0  0  0  0  0  0  0  0  0
   55.5824   20.5985   46.6852 H   0  0  0  0  0  0  0  0  0  0  0  0
   54.8710   22.0586   44.8399 H   0  0  0  0  0  0  0  0  0  0  0  0
   56.0771   22.8569   45.9178 H   0  0  0  0  0  0  0  0  0  0  0  0
   56.6181   26.4588   46.6007 H   0  0  0  0  0  0  0  0  0  0  0  0
   56.6547   28.9356   46.3539 H   0  0  0  0  0  0  0  0  0  0  0  0
   57.8340   33.7659   48.2500 H   0  0  0  0  0  0  0  0  0  0  0  0
   57.4121   32.3934   47.1255 H   0  0  0  0  0  0  0  0  0  0  0  0
   59.6168   32.1114   48.3083 H   0  0  0  0  0  0  0  0  0  0  0  0
   59.7175   32.0936   46.5116 H   0  0  0  0  0  0  0  0  0  0  0  0
  1  2  1  0
  2  3  1  0
  3  4  2  0
  4  5  1  0
  5  6  2  0
  6  7  1  0
  7  8  2  0
  8  9  1  0
  9 10  1  0
 10 11  1  0
 11 12  1  0
 12 13  1  0
 13 14  1  0
 14 15  2  0
 15 16  1  0
 16 17  1  0
 17 18  1  0
 18 19  2  0
 19 20  1  0
 20 21  2  0
 21 22  1  0
 22 23  2  0
 22 24  1  0
 24 25  1  0
 25 26  1  0
 26 27  1  0
 27 28  1  0
 28 29  1  0
 29 30  1  0
 21 31  1  0
 31 32  2  0
 17 33  2  0
 12 34  1  0
 34 35  1  0
  8  3  1  0
 35  9  1  0
 33 14  1  0
 32 18  1  0
 30 25  1  0
  1 36  1  0
  1 37  1  0
  1 38  1  0
  4 39  1  0
  5 40  1  0
  6 41  1  0
  7 42  1  0
 10 43  1  0
 10 44  1  0
 11 45  1  0
 11 46  1  0
 13 47  1  0
 13 48  1  0
 19 49  1  0
 20 50  1  0
 24 51  1  0
 25 52  1  0
 26 53  1  0
 26 54  1  0
 27 55  1  0
 27 56  1  0
 29 57  1  0
 29 58  1  0
 30 59  1  0
 30 60  1  0
 31 61  1  0
 32 62  1  0
 34 63  1  0
 34 64  1  0
 35 65  1  0
 35 66  1  0
M  END
>  <UniqueID>  (16) 
16

>  <SMILES>  (16) 
COc1ccccc1N1CCN(Cc2noc(-c3ccc(C(=O)NC4CCOCC4)cc3)n2)CC1

>  <Energy>  (16) 
125.76858605845875

>  <Genealogy>  (16) 
COc1ccccc1N1CCN(Cc2noc(-c3ccc(C(=O)NC4CCOCC4)cc3)n2)CC1 (3D coordinates assigned)
COc1ccccc1N1CCN(Cc2noc(-c3ccc(C(=O)NC4CCOCC4)cc3)n2)CC1 (nonaromatic ring conformer: 125.76858605845875 kcal/mol)

>  <smiles>  (16) 
COc1ccccc1N1CCN(Cc2noc(-c3ccc(C(=O)NC4CCOCC4)cc3)n2)CC1

>  <score_type>  (16) 
oracle

>  <origin>  (16) 
adg

>  <m_score__min__energy>  (16) 
-9.3800000000000008

>  <m_primary>  (16) 
energy

$$$$
16:0
     RDKit          3D

 30 31  0  0  0  0  0  0  0  0999 V2000
   55.4050   25.0480   45.6520 C   0  0  0  0  0  0  0  0  0  0  0  0
   55.4630   26.4440   45.9340 O   0  0  0  0  0  0  0  0  0  0  0  0
   56.6510   27.1850   46.0320 C   0  0  0  0  0  0  0  0  0  0  0  0
   57.8020   26.6740   46.6580 C   0  0  0  0  0  0  0  0  0  0  0  0
   58.9660   27.4410   46.7350 C   0  0  0  0  0  0  0  0  0  0  0  0
   59.0090   28.7310   46.1850 C   0  0  0  0  0  0  0  0  0  0  0  0
   60.2400   29.5540   46.2690 C   0  0  0  0  0  0  0  0  0  0  0  0
   61.1870   29.3410   45.4640 O   0  0  0  0  0  0  0  0  0  0  0  0
   60.3880   30.5590   47.2850 N   0  0  0  0  0  0  0  0  0  0  0  0
   61.3410   31.5950   47.1930 N   0  0  0  0  0  0  0  0  0  0  0  0
   62.6800   31.4360   47.4540 C   0  0  0  0  0  0  0  0  0  0  0  0
   63.4790   32.5240   47.2730 N   0  0  0  0  0  0  0  0  0  0  0  0
   62.4570   33.7300   46.7520 S   0  0  0  0  0  0  0  0  0  0  0  0
   61.0530   32.8470   46.7660 C   0  0  0  0  0  0  0  0  0  0  0  0
   59.5690   33.4150   46.3740 S   0  0  0  0  0  0  0  0  0  0  0  0
   57.8540   29.2460   45.5690 C   0  0  0  0  0  0  0  0  0  0  0  0
   56.6770   28.4780   45.4870 C   0  0  0  0  0  0  0  0  0  0  0  0
   55.5110   28.9630   44.8720 O   0  0  0  0  0  0  0  0  0  0  0  0
   55.4890   29.7270   43.6700 C   0  0  0  0  0  0  0  0  0  0  0  0
   55.3816   24.4839   46.5961 H   0  0  0  0  0  0  0  0  0  0  0  0
   54.4970   24.8287   45.0712 H   0  0  0  0  0  0  0  0  0  0  0  0
   56.2917   24.7541   45.0712 H   0  0  0  0  0  0  0  0  0  0  0  0
   57.7850   25.6626   47.0901 H   0  0  0  0  0  0  0  0  0  0  0  0
   59.8575   27.0302   47.2314 H   0  0  0  0  0  0  0  0  0  0  0  0
   59.8390   30.4560   48.1670 H   0  0  0  0  0  0  0  0  0  0  0  0
   63.0888   30.4730   47.7940 H   0  0  0  0  0  0  0  0  0  0  0  0
   57.8707   30.2613   45.1461 H   0  0  0  0  0  0  0  0  0  0  0  0
   55.4581   30.7984   43.9171 H   0  0  0  0  0  0  0  0  0  0  0  0
   56.3937   29.5121   43.0823 H   0  0  0  0  0  0  0  0  0  0  0  0
   54.5982   29.4604   43.0823 H   0  0  0  0  0  0  0  0  0  0  0  0
  1  2  1  0
  2  3  1  0
  3  4  2  0
  4  5  1  0
  5  6  2  0
  6  7  1  0
  7  8  2  0
  7  9  1  0
  9 10  1  0
 10 11  1  0
 11 12  2  0
 12 13  1  0
 13 14  1  0
 14 15  2  0
  6 16  1  0
 16 17  2  0
 17 18  1  0
 18 19  1  0
 17  3  1  0
 14 10  1  0
  1 20  1  0
  1 21  1  0
  1 22  1  0
  4 23  1  0
  5 24  1  0
  9 25  1  0
 11 26  1  0
 16 27  1  0
 19 28  1  0
 19 29  1  0
 19 30  1  0
M  END
>  <UniqueID>  (17) 
17

>  <SMILES>  (17) 
COc1ccc(C(=O)Nn2cnsc2=S)cc1OC

>  <Energy>  (17) 
73.27805955567135

>  <Genealogy>  (17) 
COc1ccc(C(=O)Nn2cnsc2=S)cc1OC (3D coordinates assigned)
COc1ccc(C(=O)Nn2cnsc2=S)cc1OC (optimized conformer: 73.27805955567135 kcal/mol)

>  <smiles>  (17) 
COc1ccc(C(=O)Nn2cnsc2=S)cc1OC

>  <score_type>  (17) 
oracle

>  <origin>  (17) 
adg

>  <m_score__min__energy>  (17) 
-6.6699999999999999

>  <m_primary>  (17) 
energy

$$$$
17:0
     RDKit          3D

 49 52  0  0  1  0  0  0  0  0999 V2000
   55.9070   30.7370   44.7000 O   0  0  0  0  0  0  0  0  0  0  0  0
   57.0130   30.2720   44.3590 C   0  0  0  0  0  0  0  0  0  0  0  0
   56.9970   28.9580   43.6430 C   0  0  0  0  0  0  0  0  0  0  0  0
   58.3660   28.2960   43.8010 C   0  0  0  0  0  0  0  0  0  0  0  0
   58.6330   28.1440   45.2510 N   0  0  0  0  0  0  0  0  0  0  0  0
   57.7140   27.4560   46.0800 C   0  0  0  0  0  0  0  0  0  0  0  0
   56.5360   27.1520   45.8210 O   0  0  0  0  0  0  0  0  0  0  0  0
   58.6140   27.1030   47.6140 S   0  0  0  0  0  0  0  0  0  0  0  0
   59.8300   28.4100   47.3040 C   0  0  0  0  0  0  0  0  0  0  0  0
   60.6060   28.9980   48.2110 C   0  0  0  0  0  0  0  0  0  0  0  0
   60.2110   30.1970   48.9180 C   0  0  0  0  0  0  0  0  0  0  0  0
   61.0220   30.8780   49.8010 C   0  0  0  0  0  0  0  0  0  0  0  0
   60.6220   32.0150   50.4700 C   0  0  0  0  0  0  0  0  0  0  0  0
   59.3600   32.5100   50.2630 C   0  0  0  0  0  0  0  0  0  0  0  0
   58.9760   33.6260   50.9250 F   0  0  0  0  0  0  0  0  0  0  0  0
   58.5140   31.8480   49.3780 C   0  0  0  0  0  0  0  0  0  0  0  0
   58.9290   30.7130   48.7180 C   0  0  0  0  0  0  0  0  0  0  0  0
   59.7460   28.6480   45.8770 C   0  0  0  0  0  0  0  0  0  0  0  0
   60.6800   29.2990   45.2710 O   0  0  0  0  0  0  0  0  0  0  0  0
   58.2460   30.9070   44.6090 N   0  0  0  0  0  0  0  0  0  0  0  0
   58.4280   32.1390   45.2700 C   0  0  0  0  0  0  0  0  0  0  0  0
   57.5410   33.1880   45.2560 C   0  0  0  0  0  0  0  0  0  0  0  0
   57.7820   34.3840   45.9370 C   0  0  0  0  0  0  0  0  0  0  0  0
   58.9380   34.5440   46.6490 C   0  0  0  0  0  0  0  0  0  0  0  0
   59.8300   33.4950   46.6650 C   0  0  0  0  0  0  0  0  0  0  0  0
   61.0770   33.6070   47.4100 C   0  0  0  0  0  0  0  0  0  0  0  0
   62.2620   32.9340   47.1410 C   0  0  0  0  0  0  0  0  0  0  0  0
   63.2080   33.3110   48.0690 C   0  0  0  0  0  0  0  0  0  0  0  0
   64.3930   32.9790   48.2240 O   0  0  0  0  0  0  0  0  0  0  0  0
   62.5880   34.2090   48.8890 N   0  0  0  0  0  0  0  0  0  0  0  0
   61.3430   34.3620   48.4810 N   0  0  0  0  0  0  0  0  0  0  0  0
   59.5870   32.3230   45.9940 C   0  0  0  0  0  0  0  0  0  0  0  0
   56.2206   28.3102   44.0760 H   0  0  0  0  0  0  0  0  0  0  0  0
   56.7780   29.1153   42.5766 H   0  0  0  0  0  0  0  0  0  0  0  0
   58.3621   27.3087   43.3160 H   0  0  0  0  0  0  0  0  0  0  0  0
   59.1464   28.9116   43.3298 H   0  0  0  0  0  0  0  0  0  0  0  0
   61.5880   28.5544   48.4323 H   0  0  0  0  0  0  0  0  0  0  0  0
   62.0376   30.4954   49.9803 H   0  0  0  0  0  0  0  0  0  0  0  0
   61.3093   32.5209   51.1640 H   0  0  0  0  0  0  0  0  0  0  0  0
   57.4999   32.2368   49.2034 H   0  0  0  0  0  0  0  0  0  0  0  0
   58.2419   30.2063   48.0244 H   0  0  0  0  0  0  0  0  0  0  0  0
   59.1030   30.4000   44.2610 H   0  0  0  0  0  0  0  0  0  0  0  0
   56.6055   33.0823   44.6870 H   0  0  0  0  0  0  0  0  0  0  0  0
   57.0417   35.1967   45.9002 H   0  0  0  0  0  0  0  0  0  0  0  0
   59.1483   35.4782   47.1903 H   0  0  0  0  0  0  0  0  0  0  0  0
   62.4193   32.2175   46.3214 H   0  0  0  0  0  0  0  0  0  0  0  0
   63.0160   34.6880   49.6950 H   0  0  0  0  0  0  0  0  0  0  0  0
   60.6660   34.9950   48.9460 H   0  0  0  0  0  0  0  0  0  0  0  0
   60.3315   31.5143   46.0345 H   0  0  0  0  0  0  0  0  0  0  0  0
  1  2  2  0
  2  3  1  0
  3  4  1  0
  4  5  1  0
  5  6  1  0
  6  7  2  0
  6  8  1  0
  8  9  1  0
  9 10  2  0
 10 11  1  0
 11 12  2  0
 12 13  1  0
 13 14  2  0
 14 15  1  0
 14 16  1  0
 16 17  2  0
  9 18  1  0
 18 19  2  0
  2 20  1  0
 20 21  1  0
 21 22  2  0
 22 23  1  0
 23 24  2  0
 24 25  1  0
 25 26  1  0
 26 27  2  0
 27 28  1  0
 28 29  2  0
 28 30  1  0
 30 31  1  0
 25 32  2  0
 18  5  1  0
 32 21  1  0
 17 11  1  0
 31 26  1  0
  3 33  1  0
  3 34  1  0
  4 35  1  0
  4 36  1  0
 10 37  1  0
 12 38  1  0
 13 39  1  0
 16 40  1  0
 17 41  1  0
 20 42  1  0
 22 43  1  0
 23 44  1  0
 24 45  1  0
 27 46  1  0
 30 47  1  0
 31 48  1  0
 32 49  1  0
M  END
>  <smiles>  (18) 
O=C(CCN1C(=O)SC(=Cc2ccc(F)cc2)C1=O)Nc1cccc(-c2cc(=O)[nH][nH]2)c1

>  <score_type>  (18) 
oracle

>  <origin>  (18) 
adg

>  <m_score__min__energy>  (18) 
-10.619999999999999

>  <m_primary>  (18) 
energy

$$$$
18:0
     RDKit          3D

 38 39  0  0  0  0  0  0  0  0999 V2000
   57.0870   31.0520   42.5480 C   0  0  0  0  0  0  0  0  0  0  0  0
   56.4470   29.6810   42.7510 C   0  0  0  0  0  0  0  0  0  0  0  0
   55.2590   29.7610   43.7080 C   0  0  0  0  0  0  0  0  0  0  0  0
   55.5400   28.9730   44.9000 N   0  0  0  0  0  0  0  0  0  0  0  0
   56.8590   28.5570   45.2640 C   0  0  0  0  0  0  0  0  0  0  0  0
   57.2050   27.3580   45.0750 O   0  0  0  0  0  0  0  0  0  0  0  0
   57.8460   29.5100   45.8220 C   0  0  0  0  0  0  0  0  0  0  0  0
   57.7200   30.8180   45.4690 N   0  0  0  0  0  0  0  0  0  0  0  0
   58.5490   31.7770   45.9530 C   0  0  0  0  0  0  0  0  0  0  0  0
   58.2870   33.4540   45.5170 S   0  0  0  0  0  0  0  0  0  0  0  0
   57.2370   34.0400   46.4180 O   0  0  0  0  0  0  0  0  0  0  0  0
   57.8040   33.5310   44.0960 O   0  0  0  0  0  0  0  0  0  0  0  0
   59.8090   34.3770   45.6710 C   0  0  0  0  0  0  0  0  0  0  0  0
   60.4470   34.1260   47.0120 C   0  0  0  0  0  0  0  0  0  0  0  0
   59.6890   34.2720   48.1880 C   0  0  0  0  0  0  0  0  0  0  0  0
   60.2900   34.1170   49.4390 C   0  0  0  0  0  0  0  0  0  0  0  0
   61.6500   33.8130   49.5300 C   0  0  0  0  0  0  0  0  0  0  0  0
   62.4120   33.6650   48.3680 C   0  0  0  0  0  0  0  0  0  0  0  0
   61.8180   33.8230   47.1110 C   0  0  0  0  0  0  0  0  0  0  0  0
   62.5790   33.6920   45.9970 F   0  0  0  0  0  0  0  0  0  0  0  0
   59.5450   31.4400   46.8110 N   0  0  0  0  0  0  0  0  0  0  0  0
   59.7320   30.1500   47.1850 C   0  0  0  0  0  0  0  0  0  0  0  0
   58.8890   29.1440   46.7030 C   0  0  0  0  0  0  0  0  0  0  0  0
   59.2230   27.4890   47.2040 Cl  0  0  0  0  0  0  0  0  0  0  0  0
   57.2991   31.5063   43.5271 H   0  0  0  0  0  0  0  0  0  0  0  0
   58.0254   30.9389   41.9853 H   0  0  0  0  0  0  0  0  0  0  0  0
   56.3977   31.6987   41.9853 H   0  0  0  0  0  0  0  0  0  0  0  0
   56.0997   29.2999   41.7793 H   0  0  0  0  0  0  0  0  0  0  0  0
   57.1994   29.0068   43.1861 H   0  0  0  0  0  0  0  0  0  0  0  0
   55.0886   30.8095   43.9937 H   0  0  0  0  0  0  0  0  0  0  0  0
   54.3612   29.3651   43.2108 H   0  0  0  0  0  0  0  0  0  0  0  0
   60.5029   34.0654   44.8764 H   0  0  0  0  0  0  0  0  0  0  0  0
   59.5842   35.4499   45.5802 H   0  0  0  0  0  0  0  0  0  0  0  0
   58.6170   34.5096   48.1218 H   0  0  0  0  0  0  0  0  0  0  0  0
   59.6912   34.2346   50.3542 H   0  0  0  0  0  0  0  0  0  0  0  0
   62.1214   33.6901   50.5163 H   0  0  0  0  0  0  0  0  0  0  0  0
   63.4826   33.4234   48.4418 H   0  0  0  0  0  0  0  0  0  0  0  0
   60.5520   29.8934   47.8719 H   0  0  0  0  0  0  0  0  0  0  0  0
  1  2  1  0
  2  3  1  0
  3  4  1  0
  4  5  1  0
  5  6  2  0
  5  7  1  0
  7  8  2  0
  8  9  1  0
  9 10  1  0
 10 11  2  0
 10 12  2  0
 10 13  1  0
 13 14  1  0
 14 15  2  0
 15 16  1  0
 16 17  2  0
 17 18  1  0
 18 19  2  0
 19 20  1  0
  9 21  2  0
 21 22  1  0
 22 23  2  0
 23 24  1  0
 23  7  1  0
 19 14  1  0
  1 25  1  0
  1 26  1  0
  1 27  1  0
  2 28  1  0
  2 29  1  0
  3 30  1  0
  3 31  1  0
 13 32  1  0
 13 33  1  0
 15 34  1  0
 16 35  1  0
 17 36  1  0
 18 37  1  0
 22 38  1  0
M  CHG  1   4  -1
M  END
>  <UniqueID>  (19) 
18

>  <SMILES>  (19) 
CCC[N-]C(=O)c1nc(S(=O)(=O)Cc2ccccc2F)ncc1Cl

>  <Energy>  (19) 
30.517329576143826

>  <Genealogy>  (19) 
CCC[N-]C(=O)c1nc(S(=O)(=O)Cc2ccccc2F)ncc1Cl (protonated)
CCC[N-]C(=O)c1nc(S(=O)(=O)Cc2ccccc2F)ncc1Cl (3D coordinates assigned)
CCC[N-]C(=O)c1nc(S(=O)(=O)Cc2ccccc2F)ncc1Cl (optimized conformer: 30.517329576143826 kcal/mol)

>  <smiles>  (19) 
CCCNC(=O)c1nc(S(=O)(=O)Cc2ccccc2F)ncc1Cl

>  <score_type>  (19) 
oracle

>  <origin>  (19) 
adg

>  <m_score__min__energy>  (19) 
-10.640000000000001

>  <m_primary>  (19) 
energy

$$$$
19:0
     RDKit          3D

 25 27  0  0  0  0  0  0  0  0999 V2000
   60.0170   34.3470   49.4260 C   0  0  0  0  0  0  0  0  0  0  0  0
   59.5810   34.0480   48.0230 C   0  0  0  0  0  0  0  0  0  0  0  0
   59.9470   34.9070   46.9720 C   0  0  0  0  0  0  0  0  0  0  0  0
   59.5740   34.6150   45.6560 C   0  0  0  0  0  0  0  0  0  0  0  0
   58.8430   33.4560   45.3780 C   0  0  0  0  0  0  0  0  0  0  0  0
   58.4750   33.1590   44.1030 N   0  0  0  0  0  0  0  0  0  0  0  0
   57.7700   32.0310   43.8220 C   0  0  0  0  0  0  0  0  0  0  0  0
   57.3950   31.7350   42.5070 C   0  0  0  0  0  0  0  0  0  0  0  0
   56.6700   30.5700   42.2350 C   0  0  0  0  0  0  0  0  0  0  0  0
   56.3180   29.7000   43.2740 C   0  0  0  0  0  0  0  0  0  0  0  0
   56.6890   29.9900   44.5910 C   0  0  0  0  0  0  0  0  0  0  0  0
   57.4150   31.1540   44.8700 C   0  0  0  0  0  0  0  0  0  0  0  0
   57.7830   31.4520   46.1450 N   0  0  0  0  0  0  0  0  0  0  0  0
   58.4880   32.5800   46.4260 C   0  0  0  0  0  0  0  0  0  0  0  0
   58.8630   32.8740   47.7420 C   0  0  0  0  0  0  0  0  0  0  0  0
   59.3233   33.8713   50.1348 H   0  0  0  0  0  0  0  0  0  0  0  0
   61.0318   33.9539   49.5863 H   0  0  0  0  0  0  0  0  0  0  0  0
   60.0158   35.4353   49.5863 H   0  0  0  0  0  0  0  0  0  0  0  0
   60.5305   35.8146   47.1860 H   0  0  0  0  0  0  0  0  0  0  0  0
   59.8556   35.2969   44.8401 H   0  0  0  0  0  0  0  0  0  0  0  0
   57.6697   32.4169   41.6888 H   0  0  0  0  0  0  0  0  0  0  0  0
   56.3754   30.3366   41.2012 H   0  0  0  0  0  0  0  0  0  0  0  0
   55.7478   28.7854   43.0538 H   0  0  0  0  0  0  0  0  0  0  0  0
   56.4110   29.3051   45.4056 H   0  0  0  0  0  0  0  0  0  0  0  0
   58.5952   32.1852   48.5568 H   0  0  0  0  0  0  0  0  0  0  0  0
  1  2  1  0
  2  3  2  0
  3  4  1  0
  4  5  2  0
  5  6  1  0
  6  7  2  0
  7  8  1  0
  8  9  2  0
  9 10  1  0
 10 11  2  0
 11 12  1  0
 12 13  2  0
 13 14  1  0
 14 15  2  0
 15  2  1  0
 14  5  1  0
 12  7  1  0
  1 16  1  0
  1 17  1  0
  1 18  1  0
  3 19  1  0
  4 20  1  0
  8 21  1  0
  9 22  1  0
 10 23  1  0
 11 24  1  0
 15 25  1  0
M  END
>  <UniqueID>  (20) 
19

>  <SMILES>  (20) 
Cc1ccc2nc3ccccc3nc2c1

>  <Energy>  (20) 
32.71458314555592

>  <Genealogy>  (20) 
Cc1ccc2nc3ccccc3nc2c1 (3D coordinates assigned)
Cc1ccc2nc3ccccc3nc2c1 (optimized conformer: 32.71458314555592 kcal/mol)

>  <smiles>  (20) 
Cc1ccc2nc3ccccc3nc2c1

>  <score_type>  (20) 
oracle

>  <origin>  (20) 
adg

>  <m_score__min__energy>  (20) 
-6.5199999999999996

>  <m_primary>  (20) 
energy

$$$$
20:0
     RDKit          3D

 27 28  0  0  0  0  0  0  0  0999 V2000
   57.0960   31.9890   41.2870 N   0  0  0  0  0  0  0  0  0  0  0  0
   57.4550   31.9300   42.6650 C   0  0  0  0  0  0  0  0  0  0  0  0
   58.2480   32.8850   43.2640 C   0  0  0  0  0  0  0  0  0  0  0  0
   58.5640   32.7730   44.6210 C   0  0  0  0  0  0  0  0  0  0  0  0
   58.0810   31.7070   45.3470 C   0  0  0  0  0  0  0  0  0  0  0  0
   58.4920   31.5850   47.0440 Cl  0  0  0  0  0  0  0  0  0  0  0  0
   57.2890   30.7720   44.7000 C   0  0  0  0  0  0  0  0  0  0  0  0
   56.7740   29.6500   45.4670 N   0  0  0  0  0  0  0  0  0  0  0  0
   57.5380   28.5180   45.4730 C   0  0  0  0  0  0  0  0  0  0  0  0
   58.6620   28.8060   44.6970 O   0  0  0  0  0  0  0  0  0  0  0  0
   57.6760   27.2310   45.9180 C   0  0  0  0  0  0  0  0  0  0  0  0
   55.9980   26.9940   45.8210 C   0  0  0  0  0  0  0  0  0  0  0  0
   55.4730   25.8970   46.1330 N   0  0  0  0  0  0  0  0  0  0  0  0
   55.9410   24.7290   46.5730 C   0  0  0  0  0  0  0  0  0  0  0  0
   57.3540   24.8360   46.6850 C   0  0  0  0  0  0  0  0  0  0  0  0
   57.8080   26.0200   46.3370 C   0  0  0  0  0  0  0  0  0  0  0  0
   59.2220   25.9870   46.4960 O   0  0  0  0  0  0  0  0  0  0  0  0
   56.9610   30.8530   43.3780 C   0  0  0  0  0  0  0  0  0  0  0  0
   57.3700   32.7890   40.6570 H   0  0  0  0  0  0  0  0  0  0  0  0
   56.5290   31.2050   40.8600 H   0  0  0  0  0  0  0  0  0  0  0  0
   58.6309   33.7323   42.6762 H   0  0  0  0  0  0  0  0  0  0  0  0
   59.1950   33.5321   45.1064 H   0  0  0  0  0  0  0  0  0  0  0  0
   55.9000   29.7180   45.9900 H   0  0  0  0  0  0  0  0  0  0  0  0
   55.3568   27.8192   45.4774 H   0  0  0  0  0  0  0  0  0  0  0  0
   55.3394   23.8386   46.8081 H   0  0  0  0  0  0  0  0  0  0  0  0
   58.0002   24.0142   47.0271 H   0  0  0  0  0  0  0  0  0  0  0  0
   56.3285   30.0916   42.8983 H   0  0  0  0  0  0  0  0  0  0  0  0
  1  2  1  0
  2  3  2  0
  3  4  1  0
  4  5  2  0
  5  6  1  0
  5  7  1  0
  7  8  1  0
  8  9  1  0
  9 10  2  0
  9 11  1  0
 11 12  2  0
 12 13  1  0
 13 14  1  0
 14 15  2  0
 15 16  1  0
 16 17  2  0
  7 18  2  0
 18  2  1  0
 16 11  1  0
  1 19  1  0
  1 20  1  0
  3 21  1  0
  4 22  1  0
  8 23  1  0
 12 24  1  0
 14 25  1  0
 15 26  1  0
 18 27  1  0
M  CHG  1  13  -1
M  END
>  <UniqueID>  (21) 
20

>  <SMILES>  (21) 
Nc1ccc(Cl)c(NC(=O)c2c[n-]ccc2=O)c1

>  <Energy>  (21) 
426.98031399176256

>  <Genealogy>  (21) 
Nc1ccc(Cl)c(NC(=O)c2c[n-]ccc2=O)c1 (protonated)
Nc1ccc(Cl)c(NC(=O)c2c[n-]ccc2=O)c1 (3D coordinates assigned)
Nc1ccc(Cl)c(NC(=O)c2c[n-]ccc2=O)c1 (optimized conformer: 426.98031399176256 kcal/mol)

>  <smiles>  (21) 
Nc1ccc(Cl)c(NC(=O)c2c[nH]ccc2=O)c1

>  <score_type>  (21) 
oracle

>  <origin>  (21) 
adg

>  <m_score__min__energy>  (21) 
-7.5999999999999996

>  <m_primary>  (21) 
energy

$$$$
21:0
     RDKit          3D

 44 47  0  0  0  0  0  0  0  0999 V2000
   59.6640   33.8570   50.1470 C   0  0  0  0  0  0  0  0  0  0  0  0
   60.2110   33.8660   48.7510 C   0  0  0  0  0  0  0  0  0  0  0  0
   61.4670   33.3210   48.5680 C   0  0  0  0  0  0  0  0  0  0  0  0
   61.9810   33.3220   47.2860 C   0  0  0  0  0  0  0  0  0  0  0  0
   61.2530   33.8540   46.2310 C   0  0  0  0  0  0  0  0  0  0  0  0
   60.0070   34.3980   46.3970 C   0  0  0  0  0  0  0  0  0  0  0  0
   59.2220   34.9430   45.4130 O   0  0  0  0  0  0  0  0  0  0  0  0
   58.0410   34.4590   44.8810 C   0  0  0  0  0  0  0  0  0  0  0  0
   57.8730   33.0260   45.1660 C   0  0  0  0  0  0  0  0  0  0  0  0
   57.3910   32.7290   46.3140 O   0  0  0  0  0  0  0  0  0  0  0  0
   58.1790   31.9560   44.3180 N   0  0  0  0  0  0  0  0  0  0  0  0
   57.9450   30.6200   44.7940 C   0  0  0  0  0  0  0  0  0  0  0  0
   56.6680   30.1010   44.7710 C   0  0  0  0  0  0  0  0  0  0  0  0
   56.5130   28.8070   45.2460 C   0  0  0  0  0  0  0  0  0  0  0  0
   57.5870   28.0640   45.7230 C   0  0  0  0  0  0  0  0  0  0  0  0
   58.8500   28.5740   45.7470 C   0  0  0  0  0  0  0  0  0  0  0  0
   59.0020   29.8790   45.2690 C   0  0  0  0  0  0  0  0  0  0  0  0
   60.0640   27.9060   46.2190 C   0  0  0  0  0  0  0  0  0  0  0  0
   59.8350   26.5250   46.7250 C   0  0  0  0  0  0  0  0  0  0  0  0
   58.4450   26.0640   46.6550 C   0  0  0  0  0  0  0  0  0  0  0  0
   57.9470   24.8610   47.0340 N   0  0  0  0  0  0  0  0  0  0  0  0
   56.6470   24.8310   46.8140 N   0  0  0  0  0  0  0  0  0  0  0  0
   56.2710   26.0110   46.2890 C   0  0  0  0  0  0  0  0  0  0  0  0
   55.0890   26.2690   45.9790 O   0  0  0  0  0  0  0  0  0  0  0  0
   57.3920   26.7460   46.2020 N   0  0  0  0  0  0  0  0  0  0  0  0
   59.4940   34.3940   47.6910 C   0  0  0  0  0  0  0  0  0  0  0  0
   60.4957   33.8707   50.8668 H   0  0  0  0  0  0  0  0  0  0  0  0
   59.0327   34.7449   50.2992 H   0  0  0  0  0  0  0  0  0  0  0  0
   59.0623   32.9488   50.2992 H   0  0  0  0  0  0  0  0  0  0  0  0
   62.0361   32.9022   49.4111 H   0  0  0  0  0  0  0  0  0  0  0  0
   62.9781   32.8966   47.0992 H   0  0  0  0  0  0  0  0  0  0  0  0
   61.6934   33.8382   45.2231 H   0  0  0  0  0  0  0  0  0  0  0  0
   57.1975   35.0126   45.3192 H   0  0  0  0  0  0  0  0  0  0  0  0
   58.0712   34.5943   43.7898 H   0  0  0  0  0  0  0  0  0  0  0  0
   58.5490   32.0990   43.3620 H   0  0  0  0  0  0  0  0  0  0  0  0
   55.8145   30.6840   44.3947 H   0  0  0  0  0  0  0  0  0  0  0  0
   55.5101   28.3551   45.2453 H   0  0  0  0  0  0  0  0  0  0  0  0
   60.0051   30.3304   45.2729 H   0  0  0  0  0  0  0  0  0  0  0  0
   60.7781   27.8548   45.3839 H   0  0  0  0  0  0  0  0  0  0  0  0
   60.4450   28.4968   47.0650 H   0  0  0  0  0  0  0  0  0  0  0  0
   60.4536   25.8365   46.1307 H   0  0  0  0  0  0  0  0  0  0  0  0
   60.1016   26.5395   47.7921 H   0  0  0  0  0  0  0  0  0  0  0  0
   56.0650   23.9940   47.0360 H   0  0  0  0  0  0  0  0  0  0  0  0
   58.4967   34.8199   47.8754 H   0  0  0  0  0  0  0  0  0  0  0  0
  1  2  1  0
  2  3  2  0
  3  4  1  0
  4  5  2  0
  5  6  1  0
  6  7  1  0
  7  8  1  0
  8  9  1  0
  9 10  2  0
  9 11  1  0
 11 12  1  0
 12 13  2  0
 13 14  1  0
 14 15  2  0
 15 16  1  0
 16 17  2  0
 16 18  1  0
 18 19  1  0
 19 20  1  0
 20 21  2  0
 21 22  1  0
 22 23  1  0
 23 24  2  0
 23 25  1  0
  6 26  2  0
 26  2  1  0
 17 12  1  0
 25 20  1  0
 25 15  1  0
  1 27  1  0
  1 28  1  0
  1 29  1  0
  3 30  1  0
  4 31  1  0
  5 32  1  0
  8 33  1  0
  8 34  1  0
 11 35  1  0
 13 36  1  0
 14 37  1  0
 17 38  1  0
 18 39  1  0
 18 40  1  0
 19 41  1  0
 19 42  1  0
 22 43  1  0
 26 44  1  0
M  END
>  <smiles>  (22) 
Cc1cccc(OCC(=O)Nc2ccc3c(c2)CCc2n[nH]c(=O)n2-3)c1

>  <score_type>  (22) 
oracle

>  <origin>  (22) 
adg

>  <m_score__min__energy>  (22) 
-8.8300000000000001

>  <m_primary>  (22) 
energy

$$$$
22:0
     RDKit          3D

 51 53  0  0  0  0  0  0  0  0999 V2000
   53.8020   24.1220   45.6500 C   0  0  0  0  0  0  0  0  0  0  0  0
   55.0300   24.4960   46.2660 O   0  0  0  0  0  0  0  0  0  0  0  0
   55.9790   25.3560   45.6910 C   0  0  0  0  0  0  0  0  0  0  0  0
   56.1280   26.6920   46.1090 C   0  0  0  0  0  0  0  0  0  0  0  0
   57.0700   27.5310   45.5030 C   0  0  0  0  0  0  0  0  0  0  0  0
   57.1790   28.8830   45.9710 N   0  0  0  0  0  0  0  0  0  0  0  0
   57.0040   30.0500   45.1590 C   0  0  0  0  0  0  0  0  0  0  0  0
   55.9650   30.1870   44.4560 O   0  0  0  0  0  0  0  0  0  0  0  0
   58.0610   31.1210   45.1590 C   0  0  0  0  0  0  0  0  0  0  0  0
   57.4270   32.4970   44.8570 C   0  0  0  0  0  0  0  0  0  0  0  0
   58.2850   33.6220   45.4410 C   0  0  0  0  0  0  0  0  0  0  0  0
   58.3360   33.5470   46.9180 N   0  0  0  0  0  0  0  0  0  0  0  0
   59.6730   34.4950   47.5290 S   0  0  0  0  0  0  0  0  0  0  0  0
   59.3490   34.9690   48.9190 O   0  0  0  0  0  0  0  0  0  0  0  0
   59.8720   35.7050   46.6590 O   0  0  0  0  0  0  0  0  0  0  0  0
   61.1680   33.5570   47.5710 C   0  0  0  0  0  0  0  0  0  0  0  0
   62.2070   33.8330   46.6730 C   0  0  0  0  0  0  0  0  0  0  0  0
   63.3880   33.0930   46.7280 C   0  0  0  0  0  0  0  0  0  0  0  0
   63.5200   32.0810   47.6810 C   0  0  0  0  0  0  0  0  0  0  0  0
   62.5000   31.8190   48.5430 N   0  0  0  0  0  0  0  0  0  0  0  0
   61.3380   32.5270   48.5070 C   0  0  0  0  0  0  0  0  0  0  0  0
   58.3400   32.1710   47.4730 C   0  0  0  0  0  0  0  0  0  0  0  0
   58.8700   31.1230   46.4800 C   0  0  0  0  0  0  0  0  0  0  0  0
   57.9270   27.0220   44.5070 C   0  0  0  0  0  0  0  0  0  0  0  0
   58.9350   27.8480   43.9820 O   0  0  0  0  0  0  0  0  0  0  0  0
   60.0350   28.3570   44.7280 C   0  0  0  0  0  0  0  0  0  0  0  0
   57.7700   25.6890   44.0850 C   0  0  0  0  0  0  0  0  0  0  0  0
   56.8030   24.8660   44.6690 C   0  0  0  0  0  0  0  0  0  0  0  0
   56.6430   23.2040   44.1190 Cl  0  0  0  0  0  0  0  0  0  0  0  0
   53.0566   23.8950   46.4264 H   0  0  0  0  0  0  0  0  0  0  0  0
   53.4387   24.9502   45.0239 H   0  0  0  0  0  0  0  0  0  0  0  0
   53.9620   23.2319   45.0239 H   0  0  0  0  0  0  0  0  0  0  0  0
   55.4966   27.0810   46.9214 H   0  0  0  0  0  0  0  0  0  0  0  0
   58.7813   30.9011   44.3573 H   0  0  0  0  0  0  0  0  0  0  0  0
   57.3498   32.6288   43.7677 H   0  0  0  0  0  0  0  0  0  0  0  0
   56.4279   32.5368   45.3154 H   0  0  0  0  0  0  0  0  0  0  0  0
   59.3067   33.5374   45.0423 H   0  0  0  0  0  0  0  0  0  0  0  0
   57.8354   34.5850   45.1573 H   0  0  0  0  0  0  0  0  0  0  0  0
   62.0917   34.6319   45.9257 H   0  0  0  0  0  0  0  0  0  0  0  0
   64.2085   33.3048   46.0266 H   0  0  0  0  0  0  0  0  0  0  0  0
   64.4493   31.4950   47.7351 H   0  0  0  0  0  0  0  0  0  0  0  0
   62.6120   31.0570   49.2490 H   0  0  0  0  0  0  0  0  0  0  0  0
   60.5297   32.2903   49.2145 H   0  0  0  0  0  0  0  0  0  0  0  0
   58.9764   32.1569   48.3701 H   0  0  0  0  0  0  0  0  0  0  0  0
   57.2975   31.9069   47.7042 H   0  0  0  0  0  0  0  0  0  0  0  0
   59.9224   31.3482   46.2526 H   0  0  0  0  0  0  0  0  0  0  0  0
   58.7692   30.1308   46.9440 H   0  0  0  0  0  0  0  0  0  0  0  0
   59.8250   28.2598   45.8034 H   0  0  0  0  0  0  0  0  0  0  0  0
   60.9422   27.7872   44.4786 H   0  0  0  0  0  0  0  0  0  0  0  0
   60.1879   29.4174   44.4786 H   0  0  0  0  0  0  0  0  0  0  0  0
   58.4146   25.2907   43.2876 H   0  0  0  0  0  0  0  0  0  0  0  0
  1  2  1  0
  2  3  1  0
  3  4  2  0
  4  5  1  0
  5  6  1  0
  6  7  1  0
  7  8  2  0
  7  9  1  0
  9 10  1  0
 10 11  1  0
 11 12  1  0
 12 13  1  0
 13 14  2  0
 13 15  2  0
 13 16  1  0
 16 17  2  0
 17 18  1  0
 18 19  2  0
 19 20  1  0
 20 21  2  0
 12 22  1  0
 22 23  1  0
  5 24  2  0
 24 25  1  0
 25 26  1  0
 24 27  1  0
 27 28  2  0
 28 29  1  0
 28  3  1  0
 23  9  1  0
 21 16  1  0
  1 30  1  0
  1 31  1  0
  1 32  1  0
  4 33  1  0
  9 34  1  0
 10 35  1  0
 10 36  1  0
 11 37  1  0
 11 38  1  0
 17 39  1  0
 18 40  1  0
 19 41  1  0
 20 42  1  0
 21 43  1  0
 22 44  1  0
 22 45  1  0
 23 46  1  0
 23 47  1  0
 26 48  1  0
 26 49  1  0
 26 50  1  0
 27 51  1  0
M  CHG  2   6  -1  20   1
M  END
>  <UniqueID>  (23) 
21

>  <SMILES>  (23) 
COc1cc([N-]C(=O)C2CCN(S(=O)(=O)c3ccc[nH+]c3)CC2)c(OC)cc1Cl

>  <Energy>  (23) 
61.98793535176161

>  <Genealogy>  (23) 
COc1cc([N-]C(=O)C2CCN(S(=O)(=O)c3ccc[nH+]c3)CC2)c(OC)cc1Cl (protonated)
COc1cc([N-]C(=O)C2CCN(S(=O)(=O)c3ccc[nH+]c3)CC2)c(OC)cc1Cl (3D coordinates assigned)
COc1cc([N-]C(=O)C2CCN(S(=O)(=O)c3ccc[nH+]c3)CC2)c(OC)cc1Cl (nonaromatic ring conformer: 61.98793535176161 kcal/mol)

>  <smiles>  (23) 
COc1cc(NC(=O)C2CCN(S(=O)(=O)c3cccnc3)CC2)c(OC)cc1Cl

>  <score_type>  (23) 
oracle

>  <origin>  (23) 
adg

>  <m_score__min__energy>  (23) 
-9.0500000000000007

>  <m_primary>  (23) 
energy

$$$$
23:0
     RDKit          3D

 33 34  0  0  0  0  0  0  0  0999 V2000
   60.3960   27.0080   48.9860 C   0  0  0  0  0  0  0  0  0  0  0  0
   59.6130   27.2090   47.7290 C   0  0  0  0  0  0  0  0  0  0  0  0
   60.1140   28.0160   46.7060 C   0  0  0  0  0  0  0  0  0  0  0  0
   59.3700   28.1850   45.5390 C   0  0  0  0  0  0  0  0  0  0  0  0
   58.1230   27.5450   45.3900 C   0  0  0  0  0  0  0  0  0  0  0  0
   57.3430   27.6970   44.2300 O   0  0  0  0  0  0  0  0  0  0  0  0
   57.0850   28.9240   43.5450 C   0  0  0  0  0  0  0  0  0  0  0  0
   56.1780   29.8170   44.3520 C   0  0  0  0  0  0  0  0  0  0  0  0
   55.2090   29.3140   44.9790 O   0  0  0  0  0  0  0  0  0  0  0  0
   56.4090   31.2270   44.4620 N   0  0  0  0  0  0  0  0  0  0  0  0
   57.3760   31.8720   45.3030 C   0  0  0  0  0  0  0  0  0  0  0  0
   57.3400   33.2670   45.4300 C   0  0  0  0  0  0  0  0  0  0  0  0
   58.2840   33.9290   46.2220 C   0  0  0  0  0  0  0  0  0  0  0  0
   59.2840   33.2020   46.8760 C   0  0  0  0  0  0  0  0  0  0  0  0
   60.5750   34.1080   47.9520 Br  0  0  0  0  0  0  0  0  0  0  0  0
   59.3440   31.8130   46.7290 C   0  0  0  0  0  0  0  0  0  0  0  0
   58.4000   31.1490   45.9390 C   0  0  0  0  0  0  0  0  0  0  0  0
   57.6530   26.7320   46.4490 C   0  0  0  0  0  0  0  0  0  0  0  0
   56.3930   26.0400   46.3820 N   0  0  0  0  0  0  0  0  0  0  0  0
   56.2880   24.8360   46.6940 O   0  0  0  0  0  0  0  0  0  0  0  0
   55.2690   26.7180   45.9700 O   0  0  0  0  0  0  0  0  0  0  0  0
   58.4100   26.5940   47.5730 N   0  0  0  0  0  0  0  0  0  0  0  0
   59.7432   27.1756   49.8554 H   0  0  0  0  0  0  0  0  0  0  0  0
   60.7872   25.9803   49.0139 H   0  0  0  0  0  0  0  0  0  0  0  0
   61.2339   27.7202   49.0139 H   0  0  0  0  0  0  0  0  0  0  0  0
   61.0879   28.5146   46.8197 H   0  0  0  0  0  0  0  0  0  0  0  0
   59.7583   28.8213   44.7301 H   0  0  0  0  0  0  0  0  0  0  0  0
   58.0380   29.4445   43.3696 H   0  0  0  0  0  0  0  0  0  0  0  0
   56.5885   28.6932   42.5909 H   0  0  0  0  0  0  0  0  0  0  0  0
   56.5654   33.8445   44.9042 H   0  0  0  0  0  0  0  0  0  0  0  0
   58.2398   35.0227   46.3306 H   0  0  0  0  0  0  0  0  0  0  0  0
   60.1353   31.2411   47.2357 H   0  0  0  0  0  0  0  0  0  0  0  0
   58.4591   30.0576   45.8150 H   0  0  0  0  0  0  0  0  0  0  0  0
  1  2  1  0
  2  3  2  0
  3  4  1  0
  4  5  2  0
  5  6  1  0
  6  7  1  0
  7  8  1  0
  8  9  2  0
  8 10  1  0
 10 11  1  0
 11 12  2  0
 12 13  1  0
 13 14  2  0
 14 15  1  0
 14 16  1  0
 16 17  2  0
  5 18  1  0
 18 19  1  0
 19 20  2  0
 19 21  1  0
 18 22  2  0
 22  2  1  0
 17 11  1  0
  1 23  1  0
  1 24  1  0
  1 25  1  0
  3 26  1  0
  4 27  1  0
  7 28  1  0
  7 29  1  0
 12 30  1  0
 13 31  1  0
 16 32  1  0
 17 33  1  0
M  CHG  3  10  -1  19   1  21  -1
M  END
>  <UniqueID>  (24) 
22

>  <SMILES>  (24) 
Cc1ccc(OCC(=O)[N-]c2ccc(Br)cc2)c([N+](=O)[O-])n1

>  <Energy>  (24) 
40.265636975352884

>  <Genealogy>  (24) 
Cc1ccc(OCC(=O)[N-]c2ccc(Br)cc2)c([N+](=O)[O-])n1 (protonated)
Cc1ccc(OCC(=O)[N-]c2ccc(Br)cc2)c([N+](=O)[O-])n1 (3D coordinates assigned)
Cc1ccc(OCC(=O)[N-]c2ccc(Br)cc2)c([N+](=O)[O-])n1 (optimized conformer: 40.265636975352884 kcal/mol)

>  <smiles>  (24) 
Cc1ccc(OCC(=O)Nc2ccc(Br)cc2)c([N+](=O)[O-])n1

>  <score_type>  (24) 
oracle

>  <origin>  (24) 
adg

>  <m_score__min__energy>  (24) 
-10.24

>  <m_primary>  (24) 
energy

$$$$
24:0
     RDKit          3D

 44 46  0  0  0  0  0  0  0  0999 V2000
   60.7050   30.0920   49.3550 C   0  0  0  0  0  0  0  0  0  0  0  0
   61.0370   30.4060   48.0070 O   0  0  0  0  0  0  0  0  0  0  0  0
   61.7500   31.5460   47.5950 C   0  0  0  0  0  0  0  0  0  0  0  0
   63.1590   31.5970   47.6230 C   0  0  0  0  0  0  0  0  0  0  0  0
   63.8320   32.7500   47.2090 C   0  0  0  0  0  0  0  0  0  0  0  0
   63.1140   33.8650   46.7770 C   0  0  0  0  0  0  0  0  0  0  0  0
   61.7200   33.8300   46.7470 C   0  0  0  0  0  0  0  0  0  0  0  0
   61.0230   32.6680   47.1330 C   0  0  0  0  0  0  0  0  0  0  0  0
   59.5830   32.6170   47.1120 N   0  0  0  0  0  0  0  0  0  0  0  0
   58.7330   33.7510   46.8570 C   0  0  0  0  0  0  0  0  0  0  0  0
   59.1530   34.9280   47.0230 O   0  0  0  0  0  0  0  0  0  0  0  0
   57.3410   33.5370   46.3450 C   0  0  0  0  0  0  0  0  0  0  0  0
   57.4110   33.2500   44.5370 S   0  0  0  0  0  0  0  0  0  0  0  0
   57.4860   31.4490   44.6250 C   0  0  0  0  0  0  0  0  0  0  0  0
   57.7740   30.8960   45.8370 N   0  0  0  0  0  0  0  0  0  0  0  0
   57.8680   29.5550   45.9800 C   0  0  0  0  0  0  0  0  0  0  0  0
   57.6430   28.7240   44.9160 C   0  0  0  0  0  0  0  0  0  0  0  0
   57.3860   29.2730   43.6610 C   0  0  0  0  0  0  0  0  0  0  0  0
   57.2070   28.5030   42.6750 O   0  0  0  0  0  0  0  0  0  0  0  0
   57.3270   30.6400   43.5150 N   0  0  0  0  0  0  0  0  0  0  0  0
   56.9750   31.2190   42.2050 C   0  0  0  0  0  0  0  0  0  0  0  0
   57.7590   26.9880   45.2860 S   0  0  0  0  0  0  0  0  0  0  0  0
   58.5520   27.4180   46.8890 C   0  0  1  0  0  0  0  0  0  0  0  0
   60.0650   27.2140   46.7690 C   0  0  0  0  0  0  0  0  0  0  0  0
   58.2020   28.8800   47.2540 C   0  0  0  0  0  0  0  0  0  0  0  0
   61.3331   30.6860   50.0352 H   0  0  0  0  0  0  0  0  0  0  0  0
   59.6455   30.3262   49.5358 H   0  0  0  0  0  0  0  0  0  0  0  0
   60.8798   29.0211   49.5358 H   0  0  0  0  0  0  0  0  0  0  0  0
   63.7313   30.7250   47.9724 H   0  0  0  0  0  0  0  0  0  0  0  0
   64.9315   32.7781   47.2239 H   0  0  0  0  0  0  0  0  0  0  0  0
   63.6477   34.7730   46.4596 H   0  0  0  0  0  0  0  0  0  0  0  0
   61.1596   34.7179   46.4189 H   0  0  0  0  0  0  0  0  0  0  0  0
   59.1290   31.6750   47.0700 H   0  0  0  0  0  0  0  0  0  0  0  0
   56.8957   32.6618   46.8408 H   0  0  0  0  0  0  0  0  0  0  0  0
   56.7253   34.4233   46.5580 H   0  0  0  0  0  0  0  0  0  0  0  0
   56.4090   32.1501   42.3558 H   0  0  0  0  0  0  0  0  0  0  0  0
   57.8942   31.4360   41.6411 H   0  0  0  0  0  0  0  0  0  0  0  0
   56.3593   30.5028   41.6411 H   0  0  0  0  0  0  0  0  0  0  0  0
   58.1795   26.7667   47.6934 H   0  0  0  0  0  0  0  0  0  0  0  0
   60.5078   27.1543   47.7742 H   0  0  0  0  0  0  0  0  0  0  0  0
   60.2670   26.2805   46.2233 H   0  0  0  0  0  0  0  0  0  0  0  0
   60.5070   28.0607   46.2233 H   0  0  0  0  0  0  0  0  0  0  0  0
   57.3402   28.9066   47.9370 H   0  0  0  0  0  0  0  0  0  0  0  0
   59.0403   29.3776   47.7635 H   0  0  0  0  0  0  0  0  0  0  0  0
  1  2  1  0
  2  3  1  0
  3  4  2  0
  4  5  1  0
  5  6  2  0
  6  7  1  0
  7  8  2  0
  8  9  1  0
  9 10  1  0
 10 11  2  0
 10 12  1  0
 12 13  1  0
 13 14  1  0
 14 15  2  0
 15 16  1  0
 16 17  2  0
 17 18  1  0
 18 19  2  0
 18 20  1  0
 20 21  1  0
 17 22  1  0
 22 23  1  0
 23 24  1  0
 23 25  1  0
  8  3  1  0
 20 14  1  0
 25 16  1  0
  1 26  1  0
  1 27  1  0
  1 28  1  0
  4 29  1  0
  5 30  1  0
  6 31  1  0
  7 32  1  0
  9 33  1  0
 12 34  1  0
 12 35  1  0
 21 36  1  0
 21 37  1  0
 21 38  1  0
 23 39  1  1
 24 40  1  0
 24 41  1  0
 24 42  1  0
 25 43  1  0
 25 44  1  0
M  END
>  <UniqueID>  (25) 
23

>  <SMILES>  (25) 
COc1ccccc1NC(=O)CSc1nc2c(c(=O)n1C)S[C@@H](C)C2

>  <Energy>  (25) 
58.400519104778034

>  <Genealogy>  (25) 
COc1ccccc1NC(=O)CSc1nc2c(c(=O)n1C)S[C@@H](C)C2 (chirality)
COc1ccccc1NC(=O)CSc1nc2c(c(=O)n1C)S[C@@H](C)C2 (3D coordinates assigned)
COc1ccccc1NC(=O)CSc1nc2c(c(=O)n1C)S[C@@H](C)C2 (nonaromatic ring conformer: 58.400519104778034 kcal/mol)

>  <smiles>  (25) 
COc1ccccc1NC(=O)CSc1nc2c(c(=O)n1C)SC(C)C2

>  <score_type>  (25) 
oracle

>  <origin>  (25) 
adg

>  <m_score__min__energy>  (25) 
-7.3600000000000003

>  <m_primary>  (25) 
energy

$$$$
25:0
     RDKit          3D

 42 45  0  0  0  0  0  0  0  0999 V2000
   56.4010   31.3390   44.7940 N   0  0  0  0  0  0  0  0  0  0  0  0
   57.2500   32.1830   45.1810 C   0  0  0  0  0  0  0  0  0  0  0  0
   57.0640   33.5280   44.9690 N   0  0  0  0  0  0  0  0  0  0  0  0
   58.0690   34.2040   45.4810 N   0  0  0  0  0  0  0  0  0  0  0  0
   58.9370   33.3680   46.0370 C   0  0  0  0  0  0  0  0  0  0  0  0
   60.1190   33.6270   46.6960 C   0  0  0  0  0  0  0  0  0  0  0  0
   60.8190   32.5640   47.1880 C   0  0  0  0  0  0  0  0  0  0  0  0
   60.3280   31.2900   47.0110 C   0  0  0  0  0  0  0  0  0  0  0  0
   59.1280   31.0350   46.3400 C   0  0  0  0  0  0  0  0  0  0  0  0
   58.7780   29.6450   46.1760 C   0  0  0  0  0  0  0  0  0  0  0  0
   58.5720   28.7400   47.1830 C   0  0  0  0  0  0  0  0  0  0  0  0
   58.2400   27.4240   46.9900 C   0  0  0  0  0  0  0  0  0  0  0  0
   58.0980   26.9640   45.6960 C   0  0  0  0  0  0  0  0  0  0  0  0
   57.7520   25.5940   45.5120 N   0  0  0  0  0  0  0  0  0  0  0  0
   56.3980   25.1860   45.6970 C   0  0  0  0  0  0  0  0  0  0  0  0
   55.4920   26.0050   46.0190 O   0  0  0  0  0  0  0  0  0  0  0  0
   56.0470   23.8040   45.5120 N   0  0  0  0  0  0  0  0  0  0  0  0
   54.6710   23.4540   45.7110 C   0  0  0  0  0  0  0  0  0  0  0  0
   54.2990   22.9090   46.9250 C   0  0  0  0  0  0  0  0  0  0  0  0
   52.9590   22.5850   47.0740 C   0  0  0  0  0  0  0  0  0  0  0  0
   52.0390   22.8030   46.0440 C   0  0  0  0  0  0  0  0  0  0  0  0
   52.4580   23.3400   44.8760 N   0  0  0  0  0  0  0  0  0  0  0  0
   53.7500   23.6680   44.6930 C   0  0  0  0  0  0  0  0  0  0  0  0
   58.2960   27.8330   44.6410 C   0  0  0  0  0  0  0  0  0  0  0  0
   58.6330   29.1650   44.8740 C   0  0  0  0  0  0  0  0  0  0  0  0
   58.4280   32.1030   45.8500 C   0  0  0  0  0  0  0  0  0  0  0  0
   55.8740   30.6370   45.2450 H   0  0  0  0  0  0  0  0  0  0  0  0
   56.2590   33.9730   44.4790 H   0  0  0  0  0  0  0  0  0  0  0  0
   58.1640   35.2460   45.4520 H   0  0  0  0  0  0  0  0  0  0  0  0
   60.4861   34.6563   46.8213 H   0  0  0  0  0  0  0  0  0  0  0  0
   61.7676   32.7236   47.7215 H   0  0  0  0  0  0  0  0  0  0  0  0
   60.9010   30.4411   47.4124 H   0  0  0  0  0  0  0  0  0  0  0  0
   58.6805   29.0937   48.2189 H   0  0  0  0  0  0  0  0  0  0  0  0
   58.0902   26.7501   47.8464 H   0  0  0  0  0  0  0  0  0  0  0  0
   58.5080   24.8980   45.2420 H   0  0  0  0  0  0  0  0  0  0  0  0
   56.7680   23.0870   45.2440 H   0  0  0  0  0  0  0  0  0  0  0  0
   55.0280   22.7409   47.7314 H   0  0  0  0  0  0  0  0  0  0  0  0
   52.6127   22.1475   48.0220 H   0  0  0  0  0  0  0  0  0  0  0  0
   50.9802   22.5391   46.1831 H   0  0  0  0  0  0  0  0  0  0  0  0
   54.0769   24.1053   43.7381 H   0  0  0  0  0  0  0  0  0  0  0  0
   58.1868   27.4707   43.6081 H   0  0  0  0  0  0  0  0  0  0  0  0
   58.7862   29.8448   44.0229 H   0  0  0  0  0  0  0  0  0  0  0  0
  1  2  2  3
  2  3  1  0
  3  4  1  0
  4  5  1  0
  5  6  2  0
  6  7  1  0
  7  8  2  0
  8  9  1  0
  9 10  1  0
 10 11  2  0
 11 12  1  0
 12 13  2  0
 13 14  1  0
 14 15  1  0
 15 16  2  0
 15 17  1  0
 17 18  1  0
 18 19  2  0
 19 20  1  0
 20 21  2  0
 21 22  1  0
 22 23  2  0
 13 24  1  0
 24 25  2  0
  9 26  2  0
 26  2  1  0
 26  5  1  0
 25 10  1  0
 23 18  1  0
  1 27  1  0
  3 28  1  0
  4 29  1  0
  6 30  1  0
  7 31  1  0
  8 32  1  0
 11 33  1  0
 12 34  1  0
 14 35  1  0
 17 36  1  0
 19 37  1  0
 20 38  1  0
 21 39  1  0
 23 40  1  0
 24 41  1  0
 25 42  1  0
M  END
>  <smiles>  (26) 
N=c1[nH][nH]c2cccc(-c3ccc(NC(=O)Nc4cccnc4)cc3)c12

>  <score_type>  (26) 
oracle

>  <origin>  (26) 
adg

>  <m_score__min__energy>  (26) 
-7.5999999999999996

>  <m_primary>  (26) 
energy

$$$$
26:0
     RDKit          3D

 55 57  0  0  0  0  0  0  0  0999 V2000
   58.4830   28.1180   46.6710 C   0  0  0  0  0  0  0  0  0  0  0  0
   58.4610   29.1020   45.4900 C   0  0  0  0  0  0  0  0  0  0  0  0
   58.3500   28.3040   44.1760 C   0  0  0  0  0  0  0  0  0  0  0  0
   57.3130   30.1500   45.6230 C   0  0  2  0  0  0  0  0  0  0  0  0
   56.0610   29.6570   44.9220 C   0  0  0  0  0  0  0  0  0  0  0  0
   55.5390   28.5510   45.2330 O   0  0  0  0  0  0  0  0  0  0  0  0
   55.4640   30.4410   43.9420 O   0  0  0  0  0  0  0  0  0  0  0  0
   57.7890   31.4990   45.1620 N   0  0  0  0  0  0  0  0  0  0  0  0
   57.0170   32.6990   45.5750 C   0  0  0  0  0  0  0  0  0  0  0  0
   57.3190   33.1040   47.0350 C   0  0  0  0  0  0  0  0  0  0  0  0
   58.6900   32.7160   47.3960 N   0  0  0  0  0  0  0  0  0  0  0  0
   58.9010   31.8870   48.5580 C   0  0  0  0  0  0  0  0  0  0  0  0
   58.9890   30.6330   48.4300 O   0  0  0  0  0  0  0  0  0  0  0  0
   59.0640   32.4940   49.9200 C   0  0  0  0  0  0  0  0  0  0  0  0
   60.5220   32.5390   50.2960 C   0  0  0  0  0  0  0  0  0  0  0  0
   61.1860   33.7740   50.4120 C   0  0  0  0  0  0  0  0  0  0  0  0
   62.5260   33.8180   50.8120 C   0  0  0  0  0  0  0  0  0  0  0  0
   63.2110   32.6340   51.1050 C   0  0  0  0  0  0  0  0  0  0  0  0
   64.5100   32.6820   51.4970 F   0  0  0  0  0  0  0  0  0  0  0  0
   62.5550   31.4030   50.9990 C   0  0  0  0  0  0  0  0  0  0  0  0
   61.2150   31.3530   50.5980 C   0  0  0  0  0  0  0  0  0  0  0  0
   59.6700   32.7690   46.2990 C   0  0  1  0  0  0  0  0  0  0  0  0
   61.1170   32.7360   46.7920 C   0  0  0  0  0  0  0  0  0  0  0  0
   61.6820   31.4960   47.1480 C   0  0  0  0  0  0  0  0  0  0  0  0
   62.9950   31.4150   47.6170 C   0  0  0  0  0  0  0  0  0  0  0  0
   63.7530   32.5760   47.7800 C   0  0  0  0  0  0  0  0  0  0  0  0
   63.1910   33.8210   47.4870 C   0  0  0  0  0  0  0  0  0  0  0  0
   61.8780   33.9060   47.0110 C   0  0  0  0  0  0  0  0  0  0  0  0
   59.2690   31.6910   45.2580 C   0  0  0  0  0  0  0  0  0  0  0  0
   58.4704   28.6798   47.6166 H   0  0  0  0  0  0  0  0  0  0  0  0
   57.5992   27.4650   46.6207 H   0  0  0  0  0  0  0  0  0  0  0  0
   59.3951   27.5051   46.6207 H   0  0  0  0  0  0  0  0  0  0  0  0
   59.3990   29.6765   45.4889 H   0  0  0  0  0  0  0  0  0  0  0  0
   58.2018   27.2385   44.4055 H   0  0  0  0  0  0  0  0  0  0  0  0
   57.4949   28.6758   43.5924 H   0  0  0  0  0  0  0  0  0  0  0  0
   59.2741   28.4283   43.5924 H   0  0  0  0  0  0  0  0  0  0  0  0
   57.0318   30.2726   46.6793 H   0  0  0  0  0  0  0  0  0  0  0  0
   57.2798   33.5365   44.9120 H   0  0  0  0  0  0  0  0  0  0  0  0
   55.9464   32.4570   45.5029 H   0  0  0  0  0  0  0  0  0  0  0  0
   57.2102   34.1936   47.1398 H   0  0  0  0  0  0  0  0  0  0  0  0
   56.6126   32.5901   47.7035 H   0  0  0  0  0  0  0  0  0  0  0  0
   58.6583   33.5164   49.9135 H   0  0  0  0  0  0  0  0  0  0  0  0
   58.5217   31.8806   50.6546 H   0  0  0  0  0  0  0  0  0  0  0  0
   60.6499   34.7079   50.1875 H   0  0  0  0  0  0  0  0  0  0  0  0
   63.0420   34.7858   50.8963 H   0  0  0  0  0  0  0  0  0  0  0  0
   63.0935   30.4724   51.2313 H   0  0  0  0  0  0  0  0  0  0  0  0
   60.7022   30.3831   50.5188 H   0  0  0  0  0  0  0  0  0  0  0  0
   59.6415   33.7418   45.7862 H   0  0  0  0  0  0  0  0  0  0  0  0
   61.0812   30.5792   47.0554 H   0  0  0  0  0  0  0  0  0  0  0  0
   63.4325   30.4350   47.8583 H   0  0  0  0  0  0  0  0  0  0  0  0
   64.7909   32.5106   48.1385 H   0  0  0  0  0  0  0  0  0  0  0  0
   63.7825   34.7372   47.6309 H   0  0  0  0  0  0  0  0  0  0  0  0
   61.4348   34.8916   46.8057 H   0  0  0  0  0  0  0  0  0  0  0  0
   59.6483   31.9968   44.2718 H   0  0  0  0  0  0  0  0  0  0  0  0
   59.7059   30.7361   45.5856 H   0  0  0  0  0  0  0  0  0  0  0  0
  1  2  1  0
  2  3  1  0
  2  4  1  0
  4  5  1  0
  5  6  2  0
  5  7  1  0
  4  8  1  0
  8  9  1  0
  9 10  1  0
 10 11  1  0
 11 12  1  0
 12 13  2  0
 12 14  1  0
 14 15  1  0
 15 16  2  0
 16 17  1  0
 17 18  2  0
 18 19  1  0
 18 20  1  0
 20 21  2  0
 11 22  1  0
 22 23  1  0
 23 24  2  0
 24 25  1  0
 25 26  2  0
 26 27  1  0
 27 28  2  0
 22 29  1  0
 29  8  1  0
 21 15  1  0
 28 23  1  0
  1 30  1  0
  1 31  1  0
  1 32  1  0
  2 33  1  0
  3 34  1  0
  3 35  1  0
  3 36  1  0
  4 37  1  1
  9 38  1  0
  9 39  1  0
 10 40  1  0
 10 41  1  0
 14 42  1  0
 14 43  1  0
 16 44  1  0
 17 45  1  0
 20 46  1  0
 21 47  1  0
 22 48  1  6
 24 49  1  0
 25 50  1  0
 26 51  1  0
 27 52  1  0
 28 53  1  0
 29 54  1  0
 29 55  1  0
M  CHG  1   7  -1
M  END
>  <UniqueID>  (27) 
24

>  <SMILES>  (27) 
CC(C)[C@H](C(=O)[O-])N1CCN(C(=O)Cc2ccc(F)cc2)[C@@H](c2ccccc2)C1

>  <Energy>  (27) 
79.56798888733879

>  <Genealogy>  (27) 
CC(C)C(C(=O)[O-])N1CCN(C(=O)Cc2ccc(F)cc2)C(c2ccccc2)C1 (protonated)
CC(C)[C@H](C(=O)[O-])N1CCN(C(=O)Cc2ccc(F)cc2)[C@@H](c2ccccc2)C1 (chirality)
CC(C)[C@H](C(=O)[O-])N1CCN(C(=O)Cc2ccc(F)cc2)[C@@H](c2ccccc2)C1 (3D coordinates assigned)
CC(C)[C@H](C(=O)[O-])N1CCN(C(=O)Cc2ccc(F)cc2)[C@@H](c2ccccc2)C1 (nonaromatic ring conformer: 79.56798888733879 kcal/mol)

>  <smiles>  (27) 
CC(C)C(C(=O)O)N1CCN(C(=O)Cc2ccc(F)cc2)C(c2ccccc2)C1

>  <score_type>  (27) 
oracle

>  <origin>  (27) 
adg

>  <m_score__min__energy>  (27) 
-9.4499999999999993

>  <m_primary>  (27) 
energy

$$$$
27:0
     RDKit          3D

 55 58  0  0  0  0  0  0  0  0999 V2000
   55.6320   29.8450   42.4990 H   0  0  0  0  0  0  0  0  0  0  0  0
   56.2360   30.5120   43.0300 N   0  0  0  0  0  0  0  0  0  0  0  0
   56.8660   30.2160   44.1290 C   0  0  0  0  0  0  0  0  0  0  0  0
   57.5660   31.1960   44.8700 C   0  0  0  0  0  0  0  0  0  0  0  0
   57.5620   32.5840   44.4530 C   0  0  0  0  0  0  0  0  0  0  0  0
   57.5600   33.6930   44.1220 N   0  0  0  0  0  0  0  0  0  0  0  0
   58.2320   30.8120   46.0540 C   0  0  0  0  0  0  0  0  0  0  0  0
   59.0050   31.7790   46.8740 C   0  0  0  0  0  0  0  0  0  0  0  0
   58.5390   32.1770   48.1340 C   0  0  0  0  0  0  0  0  0  0  0  0
   57.5985   31.7618   48.5251 H   0  0  0  0  0  0  0  0  0  0  0  0
   59.2600   33.0960   48.8950 C   0  0  0  0  0  0  0  0  0  0  0  0
   58.8881   33.3959   49.8858 H   0  0  0  0  0  0  0  0  0  0  0  0
   60.4610   33.6430   48.4040 C   0  0  0  0  0  0  0  0  0  0  0  0
   61.2150   34.5700   49.1410 O   0  0  0  0  0  0  0  0  0  0  0  0
   62.2880   34.2270   50.0160 C   0  0  0  0  0  0  0  0  0  0  0  0
   63.0947   33.7511   49.4391 H   0  0  0  0  0  0  0  0  0  0  0  0
   62.6734   35.1364   50.5003 H   0  0  0  0  0  0  0  0  0  0  0  0
   61.7810   33.2560   51.0810 C   0  0  0  0  0  0  0  0  0  0  0  0
   61.8677   33.7273   52.0711 H   0  0  0  0  0  0  0  0  0  0  0  0
   60.7299   33.0116   50.8677 H   0  0  0  0  0  0  0  0  0  0  0  0
   62.5760   32.0060   51.0650 N   0  0  0  0  0  0  0  0  0  0  0  0
   63.0740   31.7070   49.7150 C   0  0  0  0  0  0  0  0  0  0  0  0
   63.2237   32.6419   49.1551 H   0  0  0  0  0  0  0  0  0  0  0  0
   64.0371   31.1782   49.7675 H   0  0  0  0  0  0  0  0  0  0  0  0
   62.0330   30.8490   49.0200 C   0  0  0  0  0  0  0  0  0  0  0  0
   61.3618   31.4725   48.4111 H   0  0  0  0  0  0  0  0  0  0  0  0
   62.4893   30.1177   48.3366 H   0  0  0  0  0  0  0  0  0  0  0  0
   61.2650   30.1780   50.1430 C   0  0  0  0  0  0  0  0  0  0  0  0
   60.1840   30.3382   50.0177 H   0  0  0  0  0  0  0  0  0  0  0  0
   61.4304   29.0906   50.1553 H   0  0  0  0  0  0  0  0  0  0  0  0
   61.7550   30.8370   51.4280 C   0  0  0  0  0  0  0  0  0  0  0  0
   60.8942   31.1601   52.0319 H   0  0  0  0  0  0  0  0  0  0  0  0
   62.3508   30.1236   52.0163 H   0  0  0  0  0  0  0  0  0  0  0  0
   60.9300   33.2600   47.1380 C   0  0  0  0  0  0  0  0  0  0  0  0
   62.1270   33.8250   46.6720 O   0  0  0  0  0  0  0  0  0  0  0  0
   63.4120   33.2260   46.8140 C   0  0  0  0  0  0  0  0  0  0  0  0
   63.6490   33.1155   47.8825 H   0  0  0  0  0  0  0  0  0  0  0  0
   63.4101   32.2360   46.3346 H   0  0  0  0  0  0  0  0  0  0  0  0
   64.1690   33.8641   46.3346 H   0  0  0  0  0  0  0  0  0  0  0  0
   60.1950   32.3300   46.3760 C   0  0  0  0  0  0  0  0  0  0  0  0
   60.5580   32.0332   45.3809 H   0  0  0  0  0  0  0  0  0  0  0  0
   58.1660   29.4780   46.4740 C   0  0  0  0  0  0  0  0  0  0  0  0
   58.6712   29.1706   47.4015 H   0  0  0  0  0  0  0  0  0  0  0  0
   57.4600   28.5330   45.7190 C   0  0  0  0  0  0  0  0  0  0  0  0
   57.3980   27.1170   46.1610 C   0  0  0  0  0  0  0  0  0  0  0  0
   58.2130   26.5310   47.1160 C   0  0  0  0  0  0  0  0  0  0  0  0
   59.0181   27.0196   47.6845 H   0  0  0  0  0  0  0  0  0  0  0  0
   57.8150   25.2130   47.2130 C   0  0  0  0  0  0  0  0  0  0  0  0
   58.2405   24.4452   47.8759 H   0  0  0  0  0  0  0  0  0  0  0  0
   56.7800   25.0460   46.3170 C   0  0  0  0  0  0  0  0  0  0  0  0
   56.2394   24.1032   46.1472 H   0  0  0  0  0  0  0  0  0  0  0  0
   56.5280   26.2040   45.6810 N   0  0  0  0  0  0  0  0  0  0  0  0
   55.8070   26.3430   44.9400 H   0  0  0  0  0  0  0  0  0  0  0  0
   56.8380   28.9250   44.5700 N   0  0  0  0  0  0  0  0  0  0  0  0
   56.2980   28.2250   44.0120 H   0  0  0  0  0  0  0  0  0  0  0  0
  1  2  1  0
  2  3  2  0
  3  4  1  0
  4  5  1  0
  5  6  3  0
  4  7  2  0
  7  8  1  0
  8  9  2  0
  9 10  1  0
  9 11  1  0
 11 12  1  0
 11 13  2  0
 13 14  1  0
 14 15  1  0
 15 16  1  0
 15 17  1  0
 15 18  1  0
 18 19  1  0
 18 20  1  0
 18 21  1  0
 21 22  1  0
 22 23  1  0
 22 24  1  0
 22 25  1  0
 25 26  1  0
 25 27  1  0
 25 28  1  0
 28 29  1  0
 28 30  1  0
 28 31  1  0
 31 32  1  0
 31 33  1  0
 13 34  1  0
 34 35  1  0
 35 36  1  0
 36 37  1  0
 36 38  1  0
 36 39  1  0
 34 40  2  0
 40 41  1  0
  7 42  1  0
 42 43  1  0
 42 44  2  0
 44 45  1  0
 45 46  2  0
 46 47  1  0
 46 48  1  0
 48 49  1  0
 48 50  2  0
 50 51  1  0
 50 52  1  0
 52 53  1  0
 44 54  1  0
 54 55  1  0
 54  3  1  0
 40  8  1  0
 52 45  1  0
 31 21  1  0
M  END
>  <UniqueID>  (28) 
25

>  <SMILES>  (28) 
[H]/N=c1/[nH]c(-c2ccc[nH]2)cc(-c2ccc(OCCN3CCCC3)c(OC)c2)c1C#N

>  <Energy>  (28) 
96.14683289862276

>  <Genealogy>  (28) 
[H]/N=c1/[nH]c(-c2ccc[nH]2)cc(-c2ccc(OCCN3CCCC3)c(OC)c2)c1C#N (cis-trans isomerization)
[H]/N=c1/[nH]c(-c2ccc[nH]2)cc(-c2ccc(OCCN3CCCC3)c(OC)c2)c1C#N (3D coordinates assigned)
[H]/N=c1/[nH]c(-c2ccc[nH]2)cc(-c2ccc(OCCN3CCCC3)c(OC)c2)c1C#N (nonaromatic ring conformer: 96.14683289862276 kcal/mol)

>  <smiles>  (28) 
COc1cc(-c2cc(-c3ccc[nH]3)[nH]c(=N)c2C#N)ccc1OCCN1CCCC1

>  <score_type>  (28) 
oracle

>  <origin>  (28) 
adg

>  <m_score__min__energy>  (28) 
-7.7999999999999998

>  <m_primary>  (28) 
energy

$$$$
28:0
     RDKit          3D

 38 40  0  0  0  0  0  0  0  0999 V2000
   56.4660   29.3710   42.6700 C   0  0  0  0  0  0  0  0  0  0  0  0
   56.8240   30.5050   43.5680 C   0  0  0  0  0  0  0  0  0  0  0  0
   58.0020   31.1560   43.5260 N   0  0  0  0  0  0  0  0  0  0  0  0
   57.8450   32.0490   44.5280 C   0  0  0  0  0  0  0  0  0  0  0  0
   58.8570   33.1080   44.8950 C   0  0  1  0  0  0  0  0  0  0  0  0
   58.2550   34.4600   45.2600 C   0  0  0  0  0  0  0  0  0  0  0  0
   59.3250   35.1220   46.1090 C   0  0  0  0  0  0  0  0  0  0  0  0
   60.3490   34.0250   46.4090 C   0  0  0  0  0  0  0  0  0  0  0  0
   59.7740   32.7330   45.9910 N   0  0  0  0  0  0  0  0  0  0  0  0
   59.0970   32.0680   47.1310 C   0  0  0  0  0  0  0  0  0  0  0  0
   59.2980   30.5800   47.0710 C   0  0  0  0  0  0  0  0  0  0  0  0
   60.2500   30.0580   47.7100 O   0  0  0  0  0  0  0  0  0  0  0  0
   58.4310   29.7750   46.2570 N   0  0  0  0  0  0  0  0  0  0  0  0
   58.4910   28.3410   46.1940 C   0  0  0  0  0  0  0  0  0  0  0  0
   58.4310   27.6970   44.9500 C   0  0  0  0  0  0  0  0  0  0  0  0
   58.4770   26.3050   44.8770 C   0  0  0  0  0  0  0  0  0  0  0  0
   58.5660   25.5620   46.0550 C   0  0  0  0  0  0  0  0  0  0  0  0
   58.5930   26.1950   47.2570 N   0  0  0  0  0  0  0  0  0  0  0  0
   58.5540   27.5500   47.3540 C   0  0  0  0  0  0  0  0  0  0  0  0
   56.6430   31.9440   45.1290 N   0  0  0  0  0  0  0  0  0  0  0  0
   56.0440   30.9730   44.5110 O   0  0  0  0  0  0  0  0  0  0  0  0
   56.1898   28.4960   43.2767 H   0  0  0  0  0  0  0  0  0  0  0  0
   55.6155   29.6603   42.0352 H   0  0  0  0  0  0  0  0  0  0  0  0
   57.3285   29.1196   42.0352 H   0  0  0  0  0  0  0  0  0  0  0  0
   59.4225   33.1947   43.9555 H   0  0  0  0  0  0  0  0  0  0  0  0
   58.0501   35.0533   44.3567 H   0  0  0  0  0  0  0  0  0  0  0  0
   57.2941   34.3668   45.7872 H   0  0  0  0  0  0  0  0  0  0  0  0
   59.7974   35.9476   45.5565 H   0  0  0  0  0  0  0  0  0  0  0  0
   58.9056   35.5507   47.0311 H   0  0  0  0  0  0  0  0  0  0  0  0
   61.2766   34.2182   45.8502 H   0  0  0  0  0  0  0  0  0  0  0  0
   60.5838   34.0072   47.4835 H   0  0  0  0  0  0  0  0  0  0  0  0
   59.5152   32.4515   48.0734 H   0  0  0  0  0  0  0  0  0  0  0  0
   58.0195   32.2826   47.0775 H   0  0  0  0  0  0  0  0  0  0  0  0
   57.7990   30.2670   45.5850 H   0  0  0  0  0  0  0  0  0  0  0  0
   58.3474   28.2917   44.0284 H   0  0  0  0  0  0  0  0  0  0  0  0
   58.4435   25.7981   43.9013 H   0  0  0  0  0  0  0  0  0  0  0  0
   58.6143   24.4640   46.0104 H   0  0  0  0  0  0  0  0  0  0  0  0
   58.5718   28.0293   48.3439 H   0  0  0  0  0  0  0  0  0  0  0  0
  1  2  1  0
  2  3  2  0
  3  4  1  0
  4  5  1  0
  5  6  1  0
  6  7  1  0
  7  8  1  0
  8  9  1  0
  9 10  1  0
 10 11  1  0
 11 12  2  0
 11 13  1  0
 13 14  1  0
 14 15  2  0
 15 16  1  0
 16 17  2  0
 17 18  1  0
 18 19  2  0
  4 20  2  0
 20 21  1  0
 21  2  1  0
  9  5  1  0
 19 14  1  0
  1 22  1  0
  1 23  1  0
  1 24  1  0
  5 25  1  6
  6 26  1  0
  6 27  1  0
  7 28  1  0
  7 29  1  0
  8 30  1  0
  8 31  1  0
 10 32  1  0
 10 33  1  0
 13 34  1  0
 15 35  1  0
 16 36  1  0
 17 37  1  0
 19 38  1  0
M  END
>  <UniqueID>  (29) 
26

>  <SMILES>  (29) 
Cc1nc([C@H]2CCCN2CC(=O)Nc2cccnc2)no1

>  <Energy>  (29) 
81.90333263821536

>  <Genealogy>  (29) 
Cc1nc([C@H]2CCCN2CC(=O)Nc2cccnc2)no1 (chirality)
Cc1nc([C@H]2CCCN2CC(=O)Nc2cccnc2)no1 (3D coordinates assigned)
Cc1nc([C@H]2CCCN2CC(=O)Nc2cccnc2)no1 (nonaromatic ring conformer: 81.90333263821536 kcal/mol)

>  <smiles>  (29) 
Cc1nc(C2CCCN2CC(=O)Nc2cccnc2)no1

>  <score_type>  (29) 
oracle

>  <origin>  (29) 
adg

>  <m_score__min__energy>  (29) 
-6.7300000000000004

>  <m_primary>  (29) 
energy

$$$$
29:0
     RDKit          3D

 38 40  0  0  0  0  0  0  0  0999 V2000
   60.2280   30.0840   47.8970 C   0  0  0  0  0  0  0  0  0  0  0  0
   58.7920   30.5770   47.7400 C   0  0  0  0  0  0  0  0  0  0  0  0
   58.6090   31.2300   46.4400 N   0  0  0  0  0  0  0  0  0  0  0  0
   58.9410   32.6180   46.2560 C   0  0  0  0  0  0  0  0  0  0  0  0
   58.5300   33.3040   45.1000 C   0  0  0  0  0  0  0  0  0  0  0  0
   58.8660   34.6490   44.9230 C   0  0  0  0  0  0  0  0  0  0  0  0
   59.6170   35.3180   45.8930 C   0  0  0  0  0  0  0  0  0  0  0  0
   60.0330   34.6420   47.0430 C   0  0  0  0  0  0  0  0  0  0  0  0
   59.6980   33.2970   47.2250 C   0  0  0  0  0  0  0  0  0  0  0  0
   57.9870   30.3030   45.1060 S   0  0  0  0  0  0  0  0  0  0  0  0
   56.5610   30.7070   44.8580 O   0  0  0  0  0  0  0  0  0  0  0  0
   58.7960   30.5630   43.8650 O   0  0  0  0  0  0  0  0  0  0  0  0
   58.0890   28.5870   45.4860 C   0  0  0  0  0  0  0  0  0  0  0  0
   59.3290   27.9330   45.4970 C   0  0  0  0  0  0  0  0  0  0  0  0
   59.4050   26.5680   45.7960 C   0  0  0  0  0  0  0  0  0  0  0  0
   58.2380   25.8480   46.0890 C   0  0  0  0  0  0  0  0  0  0  0  0
   58.2870   24.5170   46.3820 N   0  0  0  0  0  0  0  0  0  0  0  0
   57.1500   23.8210   46.6670 C   0  0  0  0  0  0  0  0  0  0  0  0
   57.2160   22.5910   46.9350 O   0  0  0  0  0  0  0  0  0  0  0  0
   55.9130   24.4810   46.6590 C   0  0  0  0  0  0  0  0  0  0  0  0
   54.8500   23.8580   46.9190 O   0  0  0  0  0  0  0  0  0  0  0  0
   55.8630   25.8070   46.3670 N   0  0  0  0  0  0  0  0  0  0  0  0
   56.9910   26.5080   46.0820 C   0  0  0  0  0  0  0  0  0  0  0  0
   56.9210   27.8720   45.7830 C   0  0  0  0  0  0  0  0  0  0  0  0
   60.4721   30.0002   48.9663 H   0  0  0  0  0  0  0  0  0  0  0  0
   60.3318   29.0988   47.4189 H   0  0  0  0  0  0  0  0  0  0  0  0
   60.9150   30.7977   47.4189 H   0  0  0  0  0  0  0  0  0  0  0  0
   58.1058   29.7205   47.8140 H   0  0  0  0  0  0  0  0  0  0  0  0
   58.5786   31.3059   48.5358 H   0  0  0  0  0  0  0  0  0  0  0  0
   57.9418   32.7804   44.3320 H   0  0  0  0  0  0  0  0  0  0  0  0
   58.5386   35.1821   44.0182 H   0  0  0  0  0  0  0  0  0  0  0  0
   59.8806   36.3765   45.7514 H   0  0  0  0  0  0  0  0  0  0  0  0
   60.6248   35.1688   47.8060 H   0  0  0  0  0  0  0  0  0  0  0  0
   60.0287   32.7681   48.1310 H   0  0  0  0  0  0  0  0  0  0  0  0
   60.2465   28.4955   45.2695 H   0  0  0  0  0  0  0  0  0  0  0  0
   60.3805   26.0597   45.8012 H   0  0  0  0  0  0  0  0  0  0  0  0
   59.2050   24.0170   46.3900 H   0  0  0  0  0  0  0  0  0  0  0  0
   55.9477   28.3846   45.7809 H   0  0  0  0  0  0  0  0  0  0  0  0
  1  2  1  0
  2  3  1  0
  3  4  1  0
  4  5  2  0
  5  6  1  0
  6  7  2  0
  7  8  1  0
  8  9  2  0
  3 10  1  0
 10 11  2  0
 10 12  2  0
 10 13  1  0
 13 14  2  0
 14 15  1  0
 15 16  2  0
 16 17  1  0
 17 18  1  0
 18 19  2  0
 18 20  1  0
 20 21  2  0
 20 22  1  0
 22 23  1  0
 23 24  2  0
  9  4  1  0
 24 13  1  0
 23 16  1  0
  1 25  1  0
  1 26  1  0
  1 27  1  0
  2 28  1  0
  2 29  1  0
  5 30  1  0
  6 31  1  0
  7 32  1  0
  8 33  1  0
  9 34  1  0
 14 35  1  0
 15 36  1  0
 17 37  1  0
 24 38  1  0
M  CHG  1  22  -1
M  END
>  <UniqueID>  (30) 
27

>  <SMILES>  (30) 
CCN(c1ccccc1)S(=O)(=O)c1ccc2[nH]c(=O)c(=O)[n-]c2c1

>  <Energy>  (30) 
47.24637023603091

>  <Genealogy>  (30) 
CCN(c1ccccc1)S(=O)(=O)c1ccc2[nH]c(=O)c(=O)[n-]c2c1 (protonated)
CCN(c1ccccc1)S(=O)(=O)c1ccc2[nH]c(=O)c(=O)[n-]c2c1 (3D coordinates assigned)
CCN(c1ccccc1)S(=O)(=O)c1ccc2[nH]c(=O)c(=O)[n-]c2c1 (optimized conformer: 47.24637023603091 kcal/mol)

>  <smiles>  (30) 
CCN(c1ccccc1)S(=O)(=O)c1ccc2[nH]c(=O)c(=O)[nH]c2c1

>  <score_type>  (30) 
oracle

>  <origin>  (30) 
adg

>  <m_score__min__energy>  (30) 
-9.9900000000000002

>  <m_primary>  (30) 
energy

$$$$
30:0
     RDKit          3D

 47 50  0  0  0  0  0  0  0  0999 V2000
   61.0193   34.5036   50.4534 H   0  0  0  0  0  0  0  0  0  0  0  0
   60.8130   34.2230   49.4100 C   0  0  0  0  0  0  0  0  0  0  0  0
   59.6800   34.6020   48.8880 N   0  0  0  0  0  0  0  0  0  0  0  0
   59.1510   34.2160   47.6100 C   0  0  0  0  0  0  0  0  0  0  0  0
   59.5440   34.9180   46.4660 C   0  0  0  0  0  0  0  0  0  0  0  0
   60.2387   35.7661   46.5562 H   0  0  0  0  0  0  0  0  0  0  0  0
   59.0580   34.5470   45.2070 C   0  0  0  0  0  0  0  0  0  0  0  0
   59.3770   35.1009   44.3118 H   0  0  0  0  0  0  0  0  0  0  0  0
   58.1660   33.4720   45.0820 C   0  0  0  0  0  0  0  0  0  0  0  0
   57.6840   33.0780   43.7400 C   0  0  0  0  0  0  0  0  0  0  0  0
   57.1647   33.8404   43.1407 H   0  0  0  0  0  0  0  0  0  0  0  0
   57.8340   31.8580   43.2000 C   0  0  0  0  0  0  0  0  0  0  0  0
   58.1170   31.8006   42.1386 H   0  0  0  0  0  0  0  0  0  0  0  0
   57.6460   30.5860   43.9300 C   0  0  0  0  0  0  0  0  0  0  0  0
   56.3720   30.0810   44.2240 C   0  0  0  0  0  0  0  0  0  0  0  0
   55.4747   30.6356   43.9120 H   0  0  0  0  0  0  0  0  0  0  0  0
   56.2460   28.9070   44.8940 N   0  0  0  0  0  0  0  0  0  0  0  0
   57.3370   28.2030   45.3000 C   0  0  0  0  0  0  0  0  0  0  0  0
   57.1720   26.9080   46.0050 C   0  0  0  0  0  0  0  0  0  0  0  0
   58.0870   26.5130   47.0000 C   0  0  0  0  0  0  0  0  0  0  0  0
   58.9407   27.1618   47.2455 H   0  0  0  0  0  0  0  0  0  0  0  0
   57.9180   25.3020   47.6780 C   0  0  0  0  0  0  0  0  0  0  0  0
   58.6363   25.0036   48.4559 H   0  0  0  0  0  0  0  0  0  0  0  0
   56.8400   24.4710   47.3700 C   0  0  0  0  0  0  0  0  0  0  0  0
   56.7090   23.5187   47.9048 H   0  0  0  0  0  0  0  0  0  0  0  0
   55.9270   24.8490   46.3820 C   0  0  0  0  0  0  0  0  0  0  0  0
   55.0777   24.1934   46.1396 H   0  0  0  0  0  0  0  0  0  0  0  0
   56.0910   26.0590   45.7010 C   0  0  0  0  0  0  0  0  0  0  0  0
   55.3704   26.3496   44.9223 H   0  0  0  0  0  0  0  0  0  0  0  0
   58.5810   28.6950   45.0460 N   0  0  0  0  0  0  0  0  0  0  0  0
   58.7540   29.8690   44.3870 C   0  0  0  0  0  0  0  0  0  0  0  0
   59.7687   30.2564   44.2126 H   0  0  0  0  0  0  0  0  0  0  0  0
   57.7060   32.8240   46.2420 C   0  0  0  0  0  0  0  0  0  0  0  0
   56.9579   32.0216   46.1607 H   0  0  0  0  0  0  0  0  0  0  0  0
   58.1940   33.1940   47.4960 C   0  0  0  0  0  0  0  0  0  0  0  0
   57.8278   32.6833   48.3988 H   0  0  0  0  0  0  0  0  0  0  0  0
   61.8390   33.4390   48.6870 C   0  0  0  0  0  0  0  0  0  0  0  0
   61.5080   32.1710   48.1850 C   0  0  0  0  0  0  0  0  0  0  0  0
   60.4908   31.7755   48.3227 H   0  0  0  0  0  0  0  0  0  0  0  0
   62.4670   31.4080   47.5100 C   0  0  0  0  0  0  0  0  0  0  0  0
   62.1973   30.4223   47.1030 H   0  0  0  0  0  0  0  0  0  0  0  0
   63.7670   31.8960   47.3520 C   0  0  0  0  0  0  0  0  0  0  0  0
   64.5174   31.2984   46.8137 H   0  0  0  0  0  0  0  0  0  0  0  0
   64.1130   33.1430   47.8780 C   0  0  0  0  0  0  0  0  0  0  0  0
   65.1394   33.5215   47.7633 H   0  0  0  0  0  0  0  0  0  0  0  0
   63.1570   33.9110   48.5500 C   0  0  0  0  0  0  0  0  0  0  0  0
   63.4365   34.8873   48.9728 H   0  0  0  0  0  0  0  0  0  0  0  0
  1  2  1  0
  2  3  2  0
  3  4  1  0
  4  5  2  0
  5  6  1  0
  5  7  1  0
  7  8  1  0
  7  9  2  0
  9 10  1  0
 10 11  1  0
 10 12  2  0
 12 13  1  0
 12 14  1  0
 14 15  2  0
 15 16  1  0
 15 17  1  0
 17 18  2  0
 18 19  1  0
 19 20  2  0
 20 21  1  0
 20 22  1  0
 22 23  1  0
 22 24  2  0
 24 25  1  0
 24 26  1  0
 26 27  1  0
 26 28  2  0
 28 29  1  0
 18 30  1  0
 30 31  2  0
 31 32  1  0
  9 33  1  0
 33 34  1  0
 33 35  2  0
 35 36  1  0
  2 37  1  0
 37 38  2  0
 38 39  1  0
 38 40  1  0
 40 41  1  0
 40 42  2  0
 42 43  1  0
 42 44  1  0
 44 45  1  0
 44 46  2  0
 46 47  1  0
 35  4  1  0
 46 37  1  0
 31 14  1  0
 28 19  1  0
M  END
>  <UniqueID>  (31) 
28

>  <SMILES>  (31) 
C(=C\c1cnc(-c2ccccc2)nc1)\c1ccc(/N=C\c2ccccc2)cc1

>  <Energy>  (31) 
72.40787832892943

>  <Genealogy>  (31) 
C(=C\c1cnc(-c2ccccc2)nc1)\c1ccc(/N=C\c2ccccc2)cc1 (cis-trans isomerization)
C(=C\c1cnc(-c2ccccc2)nc1)\c1ccc(/N=C\c2ccccc2)cc1 (3D coordinates assigned)
C(=C\c1cnc(-c2ccccc2)nc1)\c1ccc(/N=C\c2ccccc2)cc1 (optimized conformer: 72.40787832892943 kcal/mol)

>  <smiles>  (31) 
C(=Cc1cnc(-c2ccccc2)nc1)c1ccc(N=Cc2ccccc2)cc1

>  <score_type>  (31) 
oracle

>  <origin>  (31) 
adg

>  <m_score__min__energy>  (31) 
-9.1799999999999997

>  <m_primary>  (31) 
energy

$$$$
31:0
     RDKit          3D

 52 53  0  0  0  0  0  0  0  0999 V2000
   59.8290   33.8750   48.8220 C   0  0  0  0  0  0  0  0  0  0  0  0
   59.2750   33.1190   47.6800 N   0  0  0  0  0  0  0  0  0  0  0  0
   58.8320   31.7690   48.1040 C   0  0  0  0  0  0  0  0  0  0  0  0
   59.1140   31.5240   49.5960 C   0  0  0  0  0  0  0  0  0  0  0  0
   57.8830   31.8390   50.4520 C   0  0  0  0  0  0  0  0  0  0  0  0
   57.9180   31.0460   51.6880 N   0  0  0  0  0  0  0  0  0  0  0  0
   56.6250   31.0800   52.3860 C   0  0  0  0  0  0  0  0  0  0  0  0
   56.3910   29.7610   53.1300 C   0  0  0  0  0  0  0  0  0  0  0  0
   54.9880   29.2610   52.9090 C   0  0  0  0  0  0  0  0  0  0  0  0
   54.7810   28.0220   53.0140 O   0  0  0  0  0  0  0  0  0  0  0  0
   53.8570   30.1640   52.5510 C   0  0  0  0  0  0  0  0  0  0  0  0
   53.7040   30.6840   51.2490 C   0  0  0  0  0  0  0  0  0  0  0  0
   52.6320   31.5300   50.9450 C   0  0  0  0  0  0  0  0  0  0  0  0
   51.7030   31.8710   51.9280 C   0  0  0  0  0  0  0  0  0  0  0  0
   50.6420   32.7130   51.6200 O   0  0  0  0  0  0  0  0  0  0  0  0
   51.8400   31.3620   53.2200 C   0  0  0  0  0  0  0  0  0  0  0  0
   52.9070   30.5130   53.5310 C   0  0  0  0  0  0  0  0  0  0  0  0
   58.1550   33.8670   47.0630 C   0  0  0  0  0  0  0  0  0  0  0  0
   58.4610   34.1630   45.5890 C   0  0  0  0  0  0  0  0  0  0  0  0
   58.0260   33.0160   44.7170 C   0  0  0  0  0  0  0  0  0  0  0  0
   57.3990   31.8940   45.2830 C   0  0  0  0  0  0  0  0  0  0  0  0
   56.9640   30.8440   44.4670 C   0  0  0  0  0  0  0  0  0  0  0  0
   57.1430   30.9130   43.0820 C   0  0  0  0  0  0  0  0  0  0  0  0
   57.7540   32.0320   42.5110 C   0  0  0  0  0  0  0  0  0  0  0  0
   58.1910   33.0840   43.3230 C   0  0  0  0  0  0  0  0  0  0  0  0
   59.4926   33.4160   49.7634 H   0  0  0  0  0  0  0  0  0  0  0  0
   60.9279   33.8551   48.7765 H   0  0  0  0  0  0  0  0  0  0  0  0
   59.4790   34.9168   48.7765 H   0  0  0  0  0  0  0  0  0  0  0  0
   57.7507   31.6753   47.9249 H   0  0  0  0  0  0  0  0  0  0  0  0
   59.3925   31.0236   47.5207 H   0  0  0  0  0  0  0  0  0  0  0  0
   59.3909   30.4692   49.7403 H   0  0  0  0  0  0  0  0  0  0  0  0
   59.9343   32.1868   49.9087 H   0  0  0  0  0  0  0  0  0  0  0  0
   57.8790   32.9094   50.7053 H   0  0  0  0  0  0  0  0  0  0  0  0
   56.9740   31.5877   49.8858 H   0  0  0  0  0  0  0  0  0  0  0  0
   58.6340   31.4760   52.3200 H   0  0  0  0  0  0  0  0  0  0  0  0
   56.6235   31.9098   53.1081 H   0  0  0  0  0  0  0  0  0  0  0  0
   55.8221   31.2233   51.6479 H   0  0  0  0  0  0  0  0  0  0  0  0
   57.1037   29.0084   52.7617 H   0  0  0  0  0  0  0  0  0  0  0  0
   56.5369   29.9340   54.2065 H   0  0  0  0  0  0  0  0  0  0  0  0
   54.4324   30.4227   50.4673 H   0  0  0  0  0  0  0  0  0  0  0  0
   52.5212   31.9283   49.9256 H   0  0  0  0  0  0  0  0  0  0  0  0
   51.1072   31.6291   53.9956 H   0  0  0  0  0  0  0  0  0  0  0  0
   53.0055   30.1137   54.5512 H   0  0  0  0  0  0  0  0  0  0  0  0
   57.2365   33.2653   47.1293 H   0  0  0  0  0  0  0  0  0  0  0  0
   58.0215   34.8183   47.5990 H   0  0  0  0  0  0  0  0  0  0  0  0
   57.9237   35.0731   45.2839 H   0  0  0  0  0  0  0  0  0  0  0  0
   59.5457   34.3048   45.4735 H   0  0  0  0  0  0  0  0  0  0  0  0
   57.2494   31.8405   46.3715 H   0  0  0  0  0  0  0  0  0  0  0  0
   56.4808   29.9634   44.9154 H   0  0  0  0  0  0  0  0  0  0  0  0
   56.8026   30.0858   42.4418 H   0  0  0  0  0  0  0  0  0  0  0  0
   57.8917   32.0860   41.4210 H   0  0  0  0  0  0  0  0  0  0  0  0
   58.6650   33.9668   42.8692 H   0  0  0  0  0  0  0  0  0  0  0  0
  1  2  1  0
  2  3  1  0
  3  4  1  0
  4  5  1  0
  5  6  1  0
  6  7  1  0
  7  8  1  0
  8  9  1  0
  9 10  2  0
  9 11  1  0
 11 12  2  0
 12 13  1  0
 13 14  2  0
 14 15  1  0
 14 16  1  0
 16 17  2  0
  2 18  1  0
 18 19  1  0
 19 20  1  0
 20 21  2  0
 21 22  1  0
 22 23  2  0
 23 24  1  0
 24 25  2  0
 17 11  1  0
 25 20  1  0
  1 26  1  0
  1 27  1  0
  1 28  1  0
  3 29  1  0
  3 30  1  0
  4 31  1  0
  4 32  1  0
  5 33  1  0
  5 34  1  0
  6 35  1  0
  7 36  1  0
  7 37  1  0
  8 38  1  0
  8 39  1  0
 12 40  1  0
 13 41  1  0
 16 42  1  0
 17 43  1  0
 18 44  1  0
 18 45  1  0
 19 46  1  0
 19 47  1  0
 21 48  1  0
 22 49  1  0
 23 50  1  0
 24 51  1  0
 25 52  1  0
M  CHG  1  15  -1
M  END
>  <UniqueID>  (32) 
29

>  <SMILES>  (32) 
CN(CCCNCCC(=O)c1ccc([O-])cc1)CCc1ccccc1

>  <Energy>  (32) 
47.90676278083087

>  <Genealogy>  (32) 
CN(CCCNCCC(=O)c1ccc([O-])cc1)CCc1ccccc1 (protonated)
CN(CCCNCCC(=O)c1ccc([O-])cc1)CCc1ccccc1 (3D coordinates assigned)
CN(CCCNCCC(=O)c1ccc([O-])cc1)CCc1ccccc1 (optimized conformer: 47.90676278083087 kcal/mol)

>  <smiles>  (32) 
CN(CCCNCCC(=O)c1ccc(O)cc1)CCc1ccccc1

>  <score_type>  (32) 
oracle

>  <origin>  (32) 
adg

>  <m_score__min__energy>  (32) 
-11.51

>  <m_primary>  (32) 
energy

$$$$
32:0
     RDKit          3D

 49 50  0  0  0  0  0  0  0  0999 V2000
   57.0700   30.5510   51.7870 C   0  0  0  0  0  0  0  0  0  0  0  0
   58.2090   30.4900   50.7740 C   0  0  0  0  0  0  0  0  0  0  0  0
   58.8050   31.8420   50.5190 C   0  0  0  0  0  0  0  0  0  0  0  0
   59.0140   32.8130   51.4790 C   0  0  0  0  0  0  0  0  0  0  0  0
   59.6160   33.8670   50.8230 C   0  0  0  0  0  0  0  0  0  0  0  0
   59.7360   33.4670   49.5060 C   0  0  0  0  0  0  0  0  0  0  0  0
   60.3710   34.2600   48.4010 C   0  0  0  0  0  0  0  0  0  0  0  0
   60.8310   33.3910   47.2940 N   0  0  1  0  0  0  0  0  0  0  0  0
   60.2970   33.8330   45.9750 C   0  0  0  0  0  0  0  0  0  0  0  0
   58.7750   33.6280   45.8780 C   0  0  0  0  0  0  0  0  0  0  0  0
   58.4450   32.1680   45.7150 C   0  0  0  0  0  0  0  0  0  0  0  0
   57.6370   31.7460   44.6510 C   0  0  0  0  0  0  0  0  0  0  0  0
   57.3610   30.3830   44.4570 C   0  0  0  0  0  0  0  0  0  0  0  0
   56.5400   29.9420   43.2720 C   0  0  0  0  0  0  0  0  0  0  0  0
   57.0170   28.7490   42.7550 F   0  0  0  0  0  0  0  0  0  0  0  0
   56.6000   30.9120   42.2890 F   0  0  0  0  0  0  0  0  0  0  0  0
   55.2200   29.7550   43.6400 F   0  0  0  0  0  0  0  0  0  0  0  0
   57.9440   29.4390   45.3190 C   0  0  0  0  0  0  0  0  0  0  0  0
   58.7430   29.8480   46.4010 C   0  0  0  0  0  0  0  0  0  0  0  0
   59.3990   28.8250   47.2930 C   0  0  0  0  0  0  0  0  0  0  0  0
   59.8630   27.7520   46.5510 F   0  0  0  0  0  0  0  0  0  0  0  0
   60.4740   29.3810   47.9660 F   0  0  0  0  0  0  0  0  0  0  0  0
   58.4780   28.3680   48.2160 F   0  0  0  0  0  0  0  0  0  0  0  0
   59.0080   31.2160   46.5760 C   0  0  0  0  0  0  0  0  0  0  0  0
   62.5810   33.3850   47.2690 S   0  0  0  0  0  0  0  0  0  0  0  0
   63.1920   31.7220   47.4650 C   0  0  0  0  0  0  0  0  0  0  0  0
   63.0810   33.9510   45.9680 O   0  0  0  0  0  0  0  0  0  0  0  0
   63.1150   34.2150   48.4040 O   0  0  0  0  0  0  0  0  0  0  0  0
   59.2500   32.2570   49.3550 O   0  0  0  0  0  0  0  0  0  0  0  0
   57.4839   30.5288   52.8059 H   0  0  0  0  0  0  0  0  0  0  0  0
   56.5004   31.4809   51.6428 H   0  0  0  0  0  0  0  0  0  0  0  0
   56.4044   29.6872   51.6428 H   0  0  0  0  0  0  0  0  0  0  0  0
   58.9935   29.8230   51.1610 H   0  0  0  0  0  0  0  0  0  0  0  0
   57.8004   30.1136   49.8246 H   0  0  0  0  0  0  0  0  0  0  0  0
   58.7541   32.7574   52.5464 H   0  0  0  0  0  0  0  0  0  0  0  0
   59.9341   34.8260   51.2579 H   0  0  0  0  0  0  0  0  0  0  0  0
   59.6345   34.9766   48.0085 H   0  0  0  0  0  0  0  0  0  0  0  0
   61.2479   34.7801   48.8140 H   0  0  0  0  0  0  0  0  0  0  0  0
   60.5420   32.4060   47.5030 H   0  0  0  0  0  0  0  0  0  0  0  0
   60.5219   34.9012   45.8395 H   0  0  0  0  0  0  0  0  0  0  0  0
   60.7747   33.2264   45.1916 H   0  0  0  0  0  0  0  0  0  0  0  0
   58.3004   34.0054   46.7958 H   0  0  0  0  0  0  0  0  0  0  0  0
   58.3990   34.1760   45.0014 H   0  0  0  0  0  0  0  0  0  0  0  0
   57.2143   32.4904   43.9602 H   0  0  0  0  0  0  0  0  0  0  0  0
   57.7731   28.3664   45.1451 H   0  0  0  0  0  0  0  0  0  0  0  0
   59.6635   31.5434   47.3964 H   0  0  0  0  0  0  0  0  0  0  0  0
   63.2784   31.4870   48.5361 H   0  0  0  0  0  0  0  0  0  0  0  0
   62.4943   31.0167   46.9899 H   0  0  0  0  0  0  0  0  0  0  0  0
   64.1804   31.6361   46.9899 H   0  0  0  0  0  0  0  0  0  0  0  0
  1  2  1  0
  2  3  1  0
  3  4  2  0
  4  5  1  0
  5  6  2  0
  6  7  1  0
  7  8  1  0
  8  9  1  0
  9 10  1  0
 10 11  1  0
 11 12  2  0
 12 13  1  0
 13 14  1  0
 14 15  1  0
 14 16  1  0
 14 17  1  0
 13 18  2  0
 18 19  1  0
 19 20  1  0
 20 21  1  0
 20 22  1  0
 20 23  1  0
 19 24  2  0
  8 25  1  0
 25 26  1  0
 25 27  2  0
 25 28  2  0
  6 29  1  0
 29  3  1  0
 24 11  1  0
  1 30  1  0
  1 31  1  0
  1 32  1  0
  2 33  1  0
  2 34  1  0
  4 35  1  0
  5 36  1  0
  7 37  1  0
  7 38  1  0
  8 39  1  1
  9 40  1  0
  9 41  1  0
 10 42  1  0
 10 43  1  0
 12 44  1  0
 18 45  1  0
 24 46  1  0
 26 47  1  0
 26 48  1  0
 26 49  1  0
M  CHG  1   8   1
M  END
>  <UniqueID>  (33) 
30

>  <SMILES>  (33) 
CCc1ccc(C[N@@H+](CCc2cc(C(F)(F)F)cc(C(F)(F)F)c2)S(C)(=O)=O)o1

>  <Energy>  (33) 
64.62939150403434

>  <Genealogy>  (33) 
CCc1ccc(C[NH+](CCc2cc(C(F)(F)F)cc(C(F)(F)F)c2)S(C)(=O)=O)o1 (protonated)
CCc1ccc(C[N@@H+](CCc2cc(C(F)(F)F)cc(C(F)(F)F)c2)S(C)(=O)=O)o1 (chirality)
CCc1ccc(C[N@@H+](CCc2cc(C(F)(F)F)cc(C(F)(F)F)c2)S(C)(=O)=O)o1 (3D coordinates assigned)
CCc1ccc(C[N@@H+](CCc2cc(C(F)(F)F)cc(C(F)(F)F)c2)S(C)(=O)=O)o1 (optimized conformer: 64.62939150403434 kcal/mol)

>  <smiles>  (33) 
CCc1ccc(CN(CCc2cc(C(F)(F)F)cc(C(F)(F)F)c2)S(C)(=O)=O)o1

>  <score_type>  (33) 
oracle

>  <origin>  (33) 
adg

>  <m_score__min__energy>  (33) 
-5.5199999999999996

>  <m_primary>  (33) 
energy

$$$$
33:0
     RDKit          3D

 41 43  0  0  0  0  0  0  0  0999 V2000
   65.3540   33.0830   49.7800 C   0  0  0  0  0  0  0  0  0  0  0  0
   63.9880   33.2230   49.1750 C   0  0  0  0  0  0  0  0  0  0  0  0
   62.9580   33.8460   49.8930 C   0  0  0  0  0  0  0  0  0  0  0  0
   61.6750   33.9440   49.3450 C   0  0  0  0  0  0  0  0  0  0  0  0
   61.4000   33.4110   48.0730 C   0  0  0  0  0  0  0  0  0  0  0  0
   60.0780   33.5040   47.5050 N   0  0  0  0  0  0  0  0  0  0  0  0
   58.8940   33.3340   48.1360 C   0  0  0  0  0  0  0  0  0  0  0  0
   57.8510   33.4770   47.2870 N   0  0  0  0  0  0  0  0  0  0  0  0
   58.3740   33.7420   46.1000 N   0  0  0  0  0  0  0  0  0  0  0  0
   57.5970   33.9110   44.8740 C   0  0  0  0  0  0  0  0  0  0  0  0
   57.7650   32.7050   43.9420 C   0  0  0  0  0  0  0  0  0  0  0  0
   57.0070   31.4730   44.4510 C   0  0  0  0  0  0  0  0  0  0  0  0
   57.9670   30.3560   44.7610 C   0  0  0  0  0  0  0  0  0  0  0  0
   59.0560   30.5760   45.6230 C   0  0  0  0  0  0  0  0  0  0  0  0
   59.9660   29.5470   45.8840 C   0  0  0  0  0  0  0  0  0  0  0  0
   59.8010   28.2960   45.2830 C   0  0  0  0  0  0  0  0  0  0  0  0
   58.7290   28.0730   44.4150 C   0  0  0  0  0  0  0  0  0  0  0  0
   57.8170   29.0990   44.1490 C   0  0  0  0  0  0  0  0  0  0  0  0
   59.7130   33.7490   46.2310 C   0  0  0  0  0  0  0  0  0  0  0  0
   60.5150   33.9240   45.2740 O   0  0  0  0  0  0  0  0  0  0  0  0
   62.4300   32.7640   47.3700 C   0  0  0  0  0  0  0  0  0  0  0  0
   63.7120   32.6670   47.9170 C   0  0  0  0  0  0  0  0  0  0  0  0
   65.2718   33.0914   50.8769 H   0  0  0  0  0  0  0  0  0  0  0  0
   65.8042   32.1340   49.4533 H   0  0  0  0  0  0  0  0  0  0  0  0
   65.9873   33.9209   49.4533 H   0  0  0  0  0  0  0  0  0  0  0  0
   63.1597   34.2597   50.8921 H   0  0  0  0  0  0  0  0  0  0  0  0
   60.8752   34.4416   49.9131 H   0  0  0  0  0  0  0  0  0  0  0  0
   58.7919   33.1074   49.2075 H   0  0  0  0  0  0  0  0  0  0  0  0
   56.5337   34.0180   45.1347 H   0  0  0  0  0  0  0  0  0  0  0  0
   57.9598   34.8086   44.3519 H   0  0  0  0  0  0  0  0  0  0  0  0
   57.3819   32.9706   42.9456 H   0  0  0  0  0  0  0  0  0  0  0  0
   58.8350   32.4527   43.9038 H   0  0  0  0  0  0  0  0  0  0  0  0
   56.4542   31.7394   45.3639 H   0  0  0  0  0  0  0  0  0  0  0  0
   56.3089   31.1365   43.6704 H   0  0  0  0  0  0  0  0  0  0  0  0
   59.1924   31.5609   46.0935 H   0  0  0  0  0  0  0  0  0  0  0  0
   60.8131   29.7223   46.5634 H   0  0  0  0  0  0  0  0  0  0  0  0
   60.5155   27.4865   45.4934 H   0  0  0  0  0  0  0  0  0  0  0  0
   58.6023   27.0889   43.9402 H   0  0  0  0  0  0  0  0  0  0  0  0
   56.9792   28.9221   43.4585 H   0  0  0  0  0  0  0  0  0  0  0  0
   62.2254   32.3300   46.3802 H   0  0  0  0  0  0  0  0  0  0  0  0
   64.5082   32.1525   47.3589 H   0  0  0  0  0  0  0  0  0  0  0  0
  1  2  1  0
  2  3  2  0
  3  4  1  0
  4  5  2  0
  5  6  1  0
  6  7  1  0
  7  8  2  0
  8  9  1  0
  9 10  1  0
 10 11  1  0
 11 12  1  0
 12 13  1  0
 13 14  2  0
 14 15  1  0
 15 16  2  0
 16 17  1  0
 17 18  2  0
  9 19  1  0
 19 20  2  0
  5 21  1  0
 21 22  2  0
 22  2  1  0
 19  6  1  0
 18 13  1  0
  1 23  1  0
  1 24  1  0
  1 25  1  0
  3 26  1  0
  4 27  1  0
  7 28  1  0
 10 29  1  0
 10 30  1  0
 11 31  1  0
 11 32  1  0
 12 33  1  0
 12 34  1  0
 14 35  1  0
 15 36  1  0
 16 37  1  0
 17 38  1  0
 18 39  1  0
 21 40  1  0
 22 41  1  0
M  END
>  <UniqueID>  (34) 
31

>  <SMILES>  (34) 
Cc1ccc(-n2cnn(CCCc3ccccc3)c2=O)cc1

>  <Energy>  (34) 
78.68646998641125

>  <Genealogy>  (34) 
Cc1ccc(-n2cnn(CCCc3ccccc3)c2=O)cc1 (3D coordinates assigned)
Cc1ccc(-n2cnn(CCCc3ccccc3)c2=O)cc1 (optimized conformer: 78.68646998641125 kcal/mol)

>  <smiles>  (34) 
Cc1ccc(-n2cnn(CCCc3ccccc3)c2=O)cc1

>  <score_type>  (34) 
oracle

>  <origin>  (34) 
adg

>  <m_score__min__energy>  (34) 
-7.5899999999999999

>  <m_primary>  (34) 
energy

$$$$
34:0
     RDKit          3D

 50 53  0  0  0  0  0  0  0  0999 V2000
   56.2780   30.0750   43.4170 C   0  0  0  0  0  0  0  0  0  0  0  0
   56.3970   30.5750   44.7410 O   0  0  0  0  0  0  0  0  0  0  0  0
   57.3950   31.4670   45.1650 C   0  0  0  0  0  0  0  0  0  0  0  0
   57.4470   32.7370   44.5800 C   0  0  0  0  0  0  0  0  0  0  0  0
   58.4270   33.6590   44.9640 C   0  0  0  0  0  0  0  0  0  0  0  0
   59.3670   33.3220   45.9470 C   0  0  0  0  0  0  0  0  0  0  0  0
   60.4450   34.2930   46.3520 C   0  0  0  0  0  0  0  0  0  0  0  0
   61.3620   33.6570   47.3170 N   0  0  0  0  0  0  0  0  0  0  0  0
   62.7710   33.8210   46.9070 C   0  0  0  0  0  0  0  0  0  0  0  0
   63.7180   33.0620   47.8630 C   0  0  0  0  0  0  0  0  0  0  0  0
   63.0110   32.5810   49.0720 N   0  0  0  0  0  0  0  0  0  0  0  0
   63.9250   31.9320   50.0450 C   0  0  0  0  0  0  0  0  0  0  0  0
   65.0480   32.8200   50.5430 C   0  0  0  0  0  0  0  0  0  0  0  0
   64.7950   33.8080   51.5310 C   0  0  0  0  0  0  0  0  0  0  0  0
   65.8310   34.6360   51.9960 C   0  0  0  0  0  0  0  0  0  0  0  0
   67.1000   34.4590   51.4530 C   0  0  0  0  0  0  0  0  0  0  0  0
   67.3480   33.5260   50.5000 C   0  0  0  0  0  0  0  0  0  0  0  0
   66.3500   32.6890   50.0100 C   0  0  0  0  0  0  0  0  0  0  0  0
   68.6830   33.5730   50.1470 O   0  0  0  0  0  0  0  0  0  0  0  0
   69.3130   34.5990   50.9290 C   0  0  0  0  0  0  0  0  0  0  0  0
   68.2650   35.1400   51.7460 O   0  0  0  0  0  0  0  0  0  0  0  0
   62.2090   33.6690   49.6750 C   0  0  0  0  0  0  0  0  0  0  0  0
   61.1590   34.2060   48.6740 C   0  0  0  0  0  0  0  0  0  0  0  0
   59.3190   32.0490   46.5350 C   0  0  0  0  0  0  0  0  0  0  0  0
   58.3410   31.1270   46.1510 C   0  0  0  0  0  0  0  0  0  0  0  0
   56.0234   29.0054   43.4505 H   0  0  0  0  0  0  0  0  0  0  0  0
   55.4855   30.6241   42.8875 H   0  0  0  0  0  0  0  0  0  0  0  0
   57.2329   30.2082   42.8875 H   0  0  0  0  0  0  0  0  0  0  0  0
   56.7105   33.0132   43.8110 H   0  0  0  0  0  0  0  0  0  0  0  0
   58.4596   34.6522   44.4924 H   0  0  0  0  0  0  0  0  0  0  0  0
   61.0111   34.6011   45.4606 H   0  0  0  0  0  0  0  0  0  0  0  0
   59.9803   35.1723   46.8219 H   0  0  0  0  0  0  0  0  0  0  0  0
   62.8972   33.4269   45.8878 H   0  0  0  0  0  0  0  0  0  0  0  0
   63.0233   34.8911   46.9405 H   0  0  0  0  0  0  0  0  0  0  0  0
   64.1423   32.1975   47.3314 H   0  0  0  0  0  0  0  0  0  0  0  0
   64.5083   33.7568   48.1834 H   0  0  0  0  0  0  0  0  0  0  0  0
   62.3470   31.8270   48.7690 H   0  0  0  0  0  0  0  0  0  0  0  0
   63.3305   31.6109   50.9130 H   0  0  0  0  0  0  0  0  0  0  0  0
   64.4011   31.0938   49.5152 H   0  0  0  0  0  0  0  0  0  0  0  0
   63.7791   33.9263   51.9360 H   0  0  0  0  0  0  0  0  0  0  0  0
   65.6446   35.4001   52.7651 H   0  0  0  0  0  0  0  0  0  0  0  0
   66.5688   31.9458   49.2291 H   0  0  0  0  0  0  0  0  0  0  0  0
   70.1105   34.1728   51.5554 H   0  0  0  0  0  0  0  0  0  0  0  0
   69.7841   35.3678   50.2990 H   0  0  0  0  0  0  0  0  0  0  0  0
   61.6919   33.2830   50.5658 H   0  0  0  0  0  0  0  0  0  0  0  0
   62.8855   34.4924   49.9477 H   0  0  0  0  0  0  0  0  0  0  0  0
   60.1555   33.9242   49.0255 H   0  0  0  0  0  0  0  0  0  0  0  0
   61.2668   35.2994   48.6197 H   0  0  0  0  0  0  0  0  0  0  0  0
   60.0563   31.7745   47.3038 H   0  0  0  0  0  0  0  0  0  0  0  0
   58.3103   30.1327   46.6206 H   0  0  0  0  0  0  0  0  0  0  0  0
  1  2  1  0
  2  3  1  0
  3  4  2  0
  4  5  1  0
  5  6  2  0
  6  7  1  0
  7  8  1  0
  8  9  1  0
  9 10  1  0
 10 11  1  0
 11 12  1  0
 12 13  1  0
 13 14  2  0
 14 15  1  0
 15 16  2  0
 16 17  1  0
 17 18  2  0
 17 19  1  0
 19 20  1  0
 20 21  1  0
 11 22  1  0
 22 23  1  0
  6 24  1  0
 24 25  2  0
 25  3  1  0
 23  8  1  0
 18 13  1  0
 21 16  1  0
  1 26  1  0
  1 27  1  0
  1 28  1  0
  4 29  1  0
  5 30  1  0
  7 31  1  0
  7 32  1  0
  9 33  1  0
  9 34  1  0
 10 35  1  0
 10 36  1  0
 11 37  1  0
 12 38  1  0
 12 39  1  0
 14 40  1  0
 15 41  1  0
 18 42  1  0
 20 43  1  0
 20 44  1  0
 22 45  1  0
 22 46  1  0
 23 47  1  0
 23 48  1  0
 24 49  1  0
 25 50  1  0
M  CHG  1  11   1
M  END
>  <UniqueID>  (35) 
32

>  <SMILES>  (35) 
COc1ccc(CN2CC[NH+](Cc3ccc4c(c3)OCO4)CC2)cc1

>  <Energy>  (35) 
91.52698015256769

>  <Genealogy>  (35) 
COc1ccc(CN2CC[NH+](Cc3ccc4c(c3)OCO4)CC2)cc1 (protonated)
COc1ccc(CN2CC[NH+](Cc3ccc4c(c3)OCO4)CC2)cc1 (3D coordinates assigned)
COc1ccc(CN2CC[NH+](Cc3ccc4c(c3)OCO4)CC2)cc1 (nonaromatic ring conformer: 91.52698015256769 kcal/mol)

>  <smiles>  (35) 
COc1ccc(CN2CCN(Cc3ccc4c(c3)OCO4)CC2)cc1

>  <score_type>  (35) 
oracle

>  <origin>  (35) 
adg

>  <m_score__min__energy>  (35) 
-6.2599999999999998

>  <m_primary>  (35) 
energy

$$$$
35:0
     RDKit          3D

 46 50  0  0  0  0  0  0  0  0999 V2000
   53.6517   22.2437   48.4021 H   0  0  0  0  0  0  0  0  0  0  0  0
   53.7450   22.4940   47.3350 C   0  0  0  0  0  0  0  0  0  0  0  0
   54.8390   23.0110   46.6720 C   0  0  0  0  0  0  0  0  0  0  0  0
   56.1360   23.3480   47.2670 C   0  0  0  0  0  0  0  0  0  0  0  0
   57.0060   22.4500   47.4300 O   0  0  0  0  0  0  0  0  0  0  0  0
   56.4190   24.7060   47.6270 N   0  0  0  0  0  0  0  0  0  0  0  0
   57.0360   25.6810   46.7680 C   0  0  0  0  0  0  0  0  0  0  0  0
   58.4250   25.6130   46.7110 C   0  0  0  0  0  0  0  0  0  0  0  0
   58.8821   24.8257   47.3285 H   0  0  0  0  0  0  0  0  0  0  0  0
   59.3160   26.3910   45.9910 C   0  0  0  0  0  0  0  0  0  0  0  0
   60.3711   26.0866   46.0560 H   0  0  0  0  0  0  0  0  0  0  0  0
   59.0620   27.5000   45.2000 C   0  0  0  0  0  0  0  0  0  0  0  0
   59.9457   27.9809   44.7552 H   0  0  0  0  0  0  0  0  0  0  0  0
   57.8280   28.0910   44.8910 C   0  0  0  0  0  0  0  0  0  0  0  0
   57.7770   29.1700   44.1550 N   0  0  0  0  0  0  0  0  0  0  0  0
   57.9390   30.5410   44.5570 C   0  0  0  0  0  0  0  0  0  0  0  0
   57.5810   31.5950   43.7010 C   0  0  0  0  0  0  0  0  0  0  0  0
   57.1263   31.3743   42.7240 H   0  0  0  0  0  0  0  0  0  0  0  0
   57.7980   32.9220   44.0810 C   0  0  0  0  0  0  0  0  0  0  0  0
   57.4945   33.7412   43.4126 H   0  0  0  0  0  0  0  0  0  0  0  0
   58.4020   33.2110   45.3130 C   0  0  0  0  0  0  0  0  0  0  0  0
   58.6270   34.5410   45.7070 C   0  0  0  0  0  0  0  0  0  0  0  0
   58.3199   35.3678   45.0497 H   0  0  0  0  0  0  0  0  0  0  0  0
   59.2400   34.8150   46.9320 C   0  0  0  0  0  0  0  0  0  0  0  0
   59.4141   35.8575   47.2367 H   0  0  0  0  0  0  0  0  0  0  0  0
   59.6330   33.7690   47.7720 C   0  0  0  0  0  0  0  0  0  0  0  0
   60.1157   33.9915   48.7350 H   0  0  0  0  0  0  0  0  0  0  0  0
   59.4150   32.4420   47.3930 C   0  0  0  0  0  0  0  0  0  0  0  0
   59.7271   31.6229   48.0575 H   0  0  0  0  0  0  0  0  0  0  0  0
   58.7980   32.1520   46.1650 C   0  0  0  0  0  0  0  0  0  0  0  0
   58.5750   30.8230   45.7720 C   0  0  0  0  0  0  0  0  0  0  0  0
   58.9018   29.9983   46.4224 H   0  0  0  0  0  0  0  0  0  0  0  0
   56.6320   27.5660   45.2420 N   0  0  0  0  0  0  0  0  0  0  0  0
   56.2140   26.5300   46.0070 C   0  0  0  0  0  0  0  0  0  0  0  0
   54.9710   26.3270   46.0370 O   0  0  0  0  0  0  0  0  0  0  0  0
   54.5440   23.1750   45.3680 N   0  0  0  0  0  0  0  0  0  0  0  0
   53.3150   22.7780   45.2070 O   0  0  0  0  0  0  0  0  0  0  0  0
   52.7920   22.3650   46.3380 C   0  0  0  0  0  0  0  0  0  0  0  0
   51.3810   21.8510   46.4530 C   0  0  0  0  0  0  0  0  0  0  0  0
   51.6813   20.8128   46.6580 H   0  0  0  0  0  0  0  0  0  0  0  0
   50.3520   22.5190   45.5520 C   0  0  0  0  0  0  0  0  0  0  0  0
   50.6670   23.2929   44.8365 H   0  0  0  0  0  0  0  0  0  0  0  0
   49.5980   22.1630   44.8345 H   0  0  0  0  0  0  0  0  0  0  0  0
   50.3630   22.8130   47.0450 C   0  0  0  0  0  0  0  0  0  0  0  0
   50.6856   23.7997   47.4088 H   0  0  0  0  0  0  0  0  0  0  0  0
   49.6196   22.7576   47.8539 H   0  0  0  0  0  0  0  0  0  0  0  0
  1  2  1  0
  2  3  1  0
  3  4  1  0
  4  5  2  0
  4  6  1  0
  6  7  1  0
  7  8  2  0
  8  9  1  0
  8 10  1  0
 10 11  1  0
 10 12  2  0
 12 13  1  0
 12 14  1  0
 14 15  2  0
 15 16  1  0
 16 17  2  0
 17 18  1  0
 17 19  1  0
 19 20  1  0
 19 21  2  0
 21 22  1  0
 22 23  1  0
 22 24  2  0
 24 25  1  0
 24 26  1  0
 26 27  1  0
 26 28  2  0
 28 29  1  0
 28 30  1  0
 30 31  2  0
 31 32  1  0
 14 33  1  0
 33 34  1  0
 34 35  2  0
  3 36  2  0
 36 37  1  0
 37 38  1  0
 38 39  1  0
 39 40  1  0
 39 41  1  0
 41 42  1  0
 41 43  1  0
 41 44  1  0
 44 45  1  0
 44 46  1  0
 38  2  2  0
 44 39  1  0
 34  7  1  0
 31 16  1  0
 30 21  1  0
M  CHG  2   6  -1  33  -1
M  END
>  <UniqueID>  (36) 
33

>  <SMILES>  (36) 
O=C([N-]c1ccc/c(=N\c2ccc3ccccc3c2)[n-]c1=O)c1cc(C2CC2)on1

>  <Energy>  (36) 
387.15866859288667

>  <Genealogy>  (36) 
O=C([N-]c1cccc(=Nc2ccc3ccccc3c2)[n-]c1=O)c1cc(C2CC2)on1 (protonated)
O=C([N-]c1ccc/c(=N\c2ccc3ccccc3c2)[n-]c1=O)c1cc(C2CC2)on1 (cis-trans isomerization)
O=C([N-]c1ccc/c(=N\c2ccc3ccccc3c2)[n-]c1=O)c1cc(C2CC2)on1 (3D coordinates assigned)
O=C([N-]c1ccc/c(=N\c2ccc3ccccc3c2)[n-]c1=O)c1cc(C2CC2)on1 (nonaromatic ring conformer: 387.15866859288667 kcal/mol)

>  <smiles>  (36) 
O=C(Nc1cccc(=Nc2ccc3ccccc3c2)[nH]c1=O)c1cc(C2CC2)on1

>  <score_type>  (36) 
oracle

>  <origin>  (36) 
adg

>  <m_score__min__energy>  (36) 
-12.99

>  <m_primary>  (36) 
energy

$$$$
36:0
     RDKit          3D

 44 46  0  0  0  0  0  0  0  0999 V2000
   59.1410   29.6930   50.0090 C   0  0  0  0  0  0  0  0  0  0  0  0
   59.6480   29.2810   48.7450 O   0  0  0  0  0  0  0  0  0  0  0  0
   58.8770   29.1610   47.5760 C   0  0  0  0  0  0  0  0  0  0  0  0
   58.1570   27.9970   47.2780 C   0  0  0  0  0  0  0  0  0  0  0  0
   57.3940   27.9170   46.1070 C   0  0  0  0  0  0  0  0  0  0  0  0
   56.5950   26.6860   45.8950 C   0  0  0  0  0  0  0  0  0  0  0  0
   57.1480   25.6120   45.5400 O   0  0  0  0  0  0  0  0  0  0  0  0
   55.2110   26.7290   46.0080 O   0  0  0  0  0  0  0  0  0  0  0  0
   57.3960   29.0110   45.2060 C   0  0  0  0  0  0  0  0  0  0  0  0
   56.7430   28.9590   43.9580 C   0  0  0  0  0  0  0  0  0  0  0  0
   56.7480   30.0570   43.1020 C   0  0  0  0  0  0  0  0  0  0  0  0
   57.4060   31.2430   43.4620 C   0  0  0  0  0  0  0  0  0  0  0  0
   57.3830   32.3790   42.6340 O   0  0  0  0  0  0  0  0  0  0  0  0
   57.7050   32.3770   41.2480 C   0  0  0  0  0  0  0  0  0  0  0  0
   58.0920   31.3080   44.6870 C   0  0  0  0  0  0  0  0  0  0  0  0
   58.7350   32.5840   45.0630 C   0  0  0  0  0  0  0  0  0  0  0  0
   58.5610   33.5980   44.3370 O   0  0  0  0  0  0  0  0  0  0  0  0
   59.5180   32.7070   46.2580 N   0  0  0  0  0  0  0  0  0  0  0  0
   60.0160   33.9660   46.8110 C   0  0  0  0  0  0  0  0  0  0  0  0
   61.3380   33.7650   47.5050 C   0  0  0  0  0  0  0  0  0  0  0  0
   62.4830   33.4330   46.7630 C   0  0  0  0  0  0  0  0  0  0  0  0
   63.7200   33.2890   47.4010 C   0  0  0  0  0  0  0  0  0  0  0  0
   63.8200   33.4710   48.7820 C   0  0  0  0  0  0  0  0  0  0  0  0
   62.6830   33.7900   49.5300 C   0  0  0  0  0  0  0  0  0  0  0  0
   61.4450   33.9320   48.8960 C   0  0  0  0  0  0  0  0  0  0  0  0
   58.1140   30.1860   45.5560 C   0  0  0  0  0  0  0  0  0  0  0  0
   58.8300   30.2170   46.7220 N   0  0  0  0  0  0  0  0  0  0  0  0
   59.7253   29.2181   50.8109 H   0  0  0  0  0  0  0  0  0  0  0  0
   59.2193   30.7867   50.0966 H   0  0  0  0  0  0  0  0  0  0  0  0
   58.0864   29.3927   50.0966 H   0  0  0  0  0  0  0  0  0  0  0  0
   58.1913   27.1410   47.9680 H   0  0  0  0  0  0  0  0  0  0  0  0
   56.2223   28.0383   43.6562 H   0  0  0  0  0  0  0  0  0  0  0  0
   56.2307   29.9942   42.1333 H   0  0  0  0  0  0  0  0  0  0  0  0
   58.7981   32.3702   41.1255 H   0  0  0  0  0  0  0  0  0  0  0  0
   57.2773   31.4815   40.7735 H   0  0  0  0  0  0  0  0  0  0  0  0
   57.2885   33.2778   40.7735 H   0  0  0  0  0  0  0  0  0  0  0  0
   60.1450   34.6916   45.9944 H   0  0  0  0  0  0  0  0  0  0  0  0
   59.2873   34.3387   47.5459 H   0  0  0  0  0  0  0  0  0  0  0  0
   62.4072   33.2855   45.6756 H   0  0  0  0  0  0  0  0  0  0  0  0
   64.6144   33.0322   46.8143 H   0  0  0  0  0  0  0  0  0  0  0  0
   64.7941   33.3633   49.2815 H   0  0  0  0  0  0  0  0  0  0  0  0
   62.7624   33.9294   50.6182 H   0  0  0  0  0  0  0  0  0  0  0  0
   60.5509   34.1755   49.4887 H   0  0  0  0  0  0  0  0  0  0  0  0
   59.3830   31.0620   46.9850 H   0  0  0  0  0  0  0  0  0  0  0  0
  1  2  1  0
  2  3  1  0
  3  4  2  0
  4  5  1  0
  5  6  1  0
  6  7  2  0
  6  8  1  0
  5  9  2  0
  9 10  1  0
 10 11  2  0
 11 12  1  0
 12 13  1  0
 13 14  1  0
 12 15  2  0
 15 16  1  0
 16 17  2  0
 16 18  1  0
 18 19  1  0
 19 20  1  0
 20 21  2  0
 21 22  1  0
 22 23  2  0
 23 24  1  0
 24 25  2  0
 15 26  1  0
 26 27  2  0
 27  3  1  0
 26  9  1  0
 25 20  1  0
  1 28  1  0
  1 29  1  0
  1 30  1  0
  4 31  1  0
 10 32  1  0
 11 33  1  0
 14 34  1  0
 14 35  1  0
 14 36  1  0
 19 37  1  0
 19 38  1  0
 21 39  1  0
 22 40  1  0
 23 41  1  0
 24 42  1  0
 25 43  1  0
 27 44  1  0
M  CHG  3   8  -1  18  -1  27   1
M  END
>  <UniqueID>  (37) 
34

>  <SMILES>  (37) 
COc1cc(C(=O)[O-])c2ccc(OC)c(C(=O)[N-]Cc3ccccc3)c2[nH+]1

>  <Energy>  (37) 
59.01148001642063

>  <Genealogy>  (37) 
COc1cc(C(=O)[O-])c2ccc(OC)c(C(=O)[N-]Cc3ccccc3)c2[nH+]1 (protonated)
COc1cc(C(=O)[O-])c2ccc(OC)c(C(=O)[N-]Cc3ccccc3)c2[nH+]1 (3D coordinates assigned)
COc1cc(C(=O)[O-])c2ccc(OC)c(C(=O)[N-]Cc3ccccc3)c2[nH+]1 (optimized conformer: 59.01148001642063 kcal/mol)

>  <smiles>  (37) 
COc1cc(C(=O)O)c2ccc(OC)c(C(=O)NCc3ccccc3)c2n1

>  <score_type>  (37) 
oracle

>  <origin>  (37) 
adg

>  <m_score__min__energy>  (37) 
-9.1199999999999992

>  <m_primary>  (37) 
energy

$$$$
37:0
     RDKit          3D

 54 57  0  0  0  0  0  0  0  0999 V2000
   57.3780   21.0990   42.8560 C   0  0  0  0  0  0  0  0  0  0  0  0
   56.2750   21.5370   43.7270 N   0  0  0  0  0  0  0  0  0  0  0  0
   55.8500   22.9230   43.4060 C   0  0  0  0  0  0  0  0  0  0  0  0
   56.4000   23.9470   44.4080 C   0  0  0  0  0  0  0  0  0  0  0  0
   55.9320   23.6640   45.7880 N   0  0  0  0  0  0  0  0  0  0  0  0
   56.8000   24.3130   46.7950 C   0  0  0  0  0  0  0  0  0  0  0  0
   57.2920   25.6510   46.3010 C   0  0  0  0  0  0  0  0  0  0  0  0
   56.3750   26.6550   45.9490 C   0  0  0  0  0  0  0  0  0  0  0  0
   56.8230   27.9200   45.5500 C   0  0  0  0  0  0  0  0  0  0  0  0
   55.8560   28.9240   45.2060 N   0  0  0  0  0  0  0  0  0  0  0  0
   55.9930   29.8870   44.1520 C   0  0  0  0  0  0  0  0  0  0  0  0
   55.3710   29.6980   43.0740 O   0  0  0  0  0  0  0  0  0  0  0  0
   56.8140   31.1060   44.3060 C   0  0  0  0  0  0  0  0  0  0  0  0
   57.3930   31.7410   43.1950 C   0  0  0  0  0  0  0  0  0  0  0  0
   58.1470   32.9000   43.3830 C   0  0  0  0  0  0  0  0  0  0  0  0
   58.3270   33.4130   44.6700 C   0  0  0  0  0  0  0  0  0  0  0  0
   59.2640   34.9190   44.9230 S   0  0  0  0  0  0  0  0  0  0  0  0
   60.0090   34.3000   46.4290 C   0  0  0  0  0  0  0  0  0  0  0  0
   59.4570   34.6190   47.6740 C   0  0  0  0  0  0  0  0  0  0  0  0
   60.0470   34.1100   48.8330 C   0  0  0  0  0  0  0  0  0  0  0  0
   61.1790   33.2970   48.7360 C   0  0  0  0  0  0  0  0  0  0  0  0
   61.7040   33.0050   47.4750 C   0  0  0  0  0  0  0  0  0  0  0  0
   61.1130   33.5070   46.3580 N   0  0  0  0  0  0  0  0  0  0  0  0
   57.7610   32.7390   45.7570 C   0  0  0  0  0  0  0  0  0  0  0  0
   57.0270   31.6130   45.5520 N   0  0  0  0  0  0  0  0  0  0  0  0
   58.2030   28.1700   45.4660 C   0  0  0  0  0  0  0  0  0  0  0  0
   59.1200   27.1760   45.8150 C   0  0  0  0  0  0  0  0  0  0  0  0
   58.6700   25.9220   46.2390 C   0  0  0  0  0  0  0  0  0  0  0  0
   59.5760   24.9740   46.5890 F   0  0  0  0  0  0  0  0  0  0  0  0
   55.7680   22.2140   46.0670 C   0  0  0  0  0  0  0  0  0  0  0  0
   56.6360   21.3420   45.1500 C   0  0  0  0  0  0  0  0  0  0  0  0
   58.2230   20.7634   43.4751 H   0  0  0  0  0  0  0  0  0  0  0  0
   57.0361   20.2684   42.2210 H   0  0  0  0  0  0  0  0  0  0  0  0
   57.6991   21.9379   42.2210 H   0  0  0  0  0  0  0  0  0  0  0  0
   56.2142   23.1809   42.4006 H   0  0  0  0  0  0  0  0  0  0  0  0
   54.7517   22.9587   43.4565 H   0  0  0  0  0  0  0  0  0  0  0  0
   57.4992   23.9108   44.3890 H   0  0  0  0  0  0  0  0  0  0  0  0
   56.0357   24.9435   44.1178 H   0  0  0  0  0  0  0  0  0  0  0  0
   56.2274   24.4601   47.7226 H   0  0  0  0  0  0  0  0  0  0  0  0
   57.6698   23.6651   46.9785 H   0  0  0  0  0  0  0  0  0  0  0  0
   55.2958   26.4456   45.9871 H   0  0  0  0  0  0  0  0  0  0  0  0
   57.2532   31.3281   42.1851 H   0  0  0  0  0  0  0  0  0  0  0  0
   58.5991   33.4091   42.5190 H   0  0  0  0  0  0  0  0  0  0  0  0
   58.5681   35.2636   47.7395 H   0  0  0  0  0  0  0  0  0  0  0  0
   59.6218   34.3485   49.8191 H   0  0  0  0  0  0  0  0  0  0  0  0
   61.6516   32.8913   49.6427 H   0  0  0  0  0  0  0  0  0  0  0  0
   62.5965   32.3683   47.3854 H   0  0  0  0  0  0  0  0  0  0  0  0
   57.9097   33.1200   46.7781 H   0  0  0  0  0  0  0  0  0  0  0  0
   58.5624   29.1518   45.1242 H   0  0  0  0  0  0  0  0  0  0  0  0
   60.1993   27.3803   45.7561 H   0  0  0  0  0  0  0  0  0  0  0  0
   56.0524   22.0206   47.1119 H   0  0  0  0  0  0  0  0  0  0  0  0
   54.7156   21.9529   45.8818 H   0  0  0  0  0  0  0  0  0  0  0  0
   57.6927   21.6125   45.2925 H   0  0  0  0  0  0  0  0  0  0  0  0
   56.4673   20.2868   45.4108 H   0  0  0  0  0  0  0  0  0  0  0  0
  1  2  1  0
  2  3  1  0
  3  4  1  0
  4  5  1  0
  5  6  1  0
  6  7  1  0
  7  8  2  0
  8  9  1  0
  9 10  1  0
 10 11  1  0
 11 12  2  0
 11 13  1  0
 13 14  2  0
 14 15  1  0
 15 16  2  0
 16 17  1  0
 17 18  1  0
 18 19  2  0
 19 20  1  0
 20 21  2  0
 21 22  1  0
 22 23  2  0
 16 24  1  0
 24 25  2  0
  9 26  2  0
 26 27  1  0
 27 28  2  0
 28 29  1  0
  5 30  1  0
 30 31  1  0
 31  2  1  0
 28  7  1  0
 25 13  1  0
 23 18  1  0
  1 32  1  0
  1 33  1  0
  1 34  1  0
  3 35  1  0
  3 36  1  0
  4 37  1  0
  4 38  1  0
  6 39  1  0
  6 40  1  0
  8 41  1  0
 14 42  1  0
 15 43  1  0
 19 44  1  0
 20 45  1  0
 21 46  1  0
 22 47  1  0
 24 48  1  0
 26 49  1  0
 27 50  1  0
 30 51  1  0
 30 52  1  0
 31 53  1  0
 31 54  1  0
M  CHG  1  10  -1
M  END
>  <UniqueID>  (38) 
35

>  <SMILES>  (38) 
CN1CCN(Cc2cc([N-]C(=O)c3ccc(Sc4ccccn4)cn3)ccc2F)CC1

>  <Energy>  (38) 
72.48520786354766

>  <Genealogy>  (38) 
CN1CCN(Cc2cc([N-]C(=O)c3ccc(Sc4ccccn4)cn3)ccc2F)CC1 (protonated)
CN1CCN(Cc2cc([N-]C(=O)c3ccc(Sc4ccccn4)cn3)ccc2F)CC1 (3D coordinates assigned)
CN1CCN(Cc2cc([N-]C(=O)c3ccc(Sc4ccccn4)cn3)ccc2F)CC1 (nonaromatic ring conformer: 72.48520786354766 kcal/mol)

>  <smiles>  (38) 
CN1CCN(Cc2cc(NC(=O)c3ccc(Sc4ccccn4)cn3)ccc2F)CC1

>  <score_type>  (38) 
oracle

>  <origin>  (38) 
adg

>  <m_score__min__energy>  (38) 
-11.84

>  <m_primary>  (38) 
energy

$$$$
38:0
     RDKit          3D

 75 79  0  0  0  0  0  0  0  0999 V2000
   62.0042   33.0923   47.3090 H   0  0  0  0  0  0  0  0  0  0  0  0
   61.4710   32.1470   47.4880 C   0  0  0  0  0  0  0  0  0  0  0  0
   60.8650   31.5070   46.4560 N   0  0  0  0  0  0  0  0  0  0  0  0
   60.1940   30.3430   46.6480 C   0  0  0  0  0  0  0  0  0  0  0  0
   59.6430   29.7510   45.6290 N   0  0  0  0  0  0  0  0  0  0  0  0
   58.8340   28.5620   45.6650 C   0  0  0  0  0  0  0  0  0  0  0  0
   59.4060   27.2940   45.8630 C   0  0  0  0  0  0  0  0  0  0  0  0
   60.4972   27.1969   45.9619 H   0  0  0  0  0  0  0  0  0  0  0  0
   58.6010   26.1580   45.9350 C   0  0  0  0  0  0  0  0  0  0  0  0
   59.0624   25.1705   46.0830 H   0  0  0  0  0  0  0  0  0  0  0  0
   57.2060   26.2650   45.8200 C   0  0  0  0  0  0  0  0  0  0  0  0
   56.3720   25.0920   45.9170 N   0  0  0  0  0  0  0  0  0  0  0  0
   56.6380   24.0950   46.9670 C   0  0  0  0  0  0  0  0  0  0  0  0
   57.7186   23.8922   47.0014 H   0  0  0  0  0  0  0  0  0  0  0  0
   56.2843   24.5020   47.9258 H   0  0  0  0  0  0  0  0  0  0  0  0
   55.8930   22.7810   46.6990 C   0  0  0  0  0  0  0  0  0  0  0  0
   56.3465   21.9763   47.2963 H   0  0  0  0  0  0  0  0  0  0  0  0
   54.8358   22.9008   46.9782 H   0  0  0  0  0  0  0  0  0  0  0  0
   55.9810   22.4370   45.2690 N   0  0  0  0  0  0  0  0  0  0  0  0
   56.3540   21.1160   44.8150 C   0  0  0  0  0  0  0  0  0  0  0  0
   56.0590   20.7590   43.6400 O   0  0  0  0  0  0  0  0  0  0  0  0
   57.0800   20.1460   45.7120 C   0  0  0  0  0  0  0  0  0  0  0  0
   56.4856   19.9865   46.6237 H   0  0  0  0  0  0  0  0  0  0  0  0
   57.2143   19.2004   45.1663 H   0  0  0  0  0  0  0  0  0  0  0  0
   58.3970   20.6560   46.0850 N   0  0  0  0  0  0  0  0  0  0  0  0
   58.9910   19.8450   46.3740 H   0  0  0  0  0  0  0  0  0  0  0  0
   58.8380   21.0580   45.2250 H   0  0  0  0  0  0  0  0  0  0  0  0
   55.6100   23.4510   44.2650 C   0  0  0  0  0  0  0  0  0  0  0  0
   56.4335   23.5568   43.5434 H   0  0  0  0  0  0  0  0  0  0  0  0
   54.6889   23.1181   43.7643 H   0  0  0  0  0  0  0  0  0  0  0  0
   55.3380   24.8130   44.9120 C   0  0  0  0  0  0  0  0  0  0  0  0
   55.3563   25.5961   44.1398 H   0  0  0  0  0  0  0  0  0  0  0  0
   54.3503   24.7987   45.3959 H   0  0  0  0  0  0  0  0  0  0  0  0
   56.6300   27.5360   45.6570 C   0  0  0  0  0  0  0  0  0  0  0  0
   55.5366   27.6322   45.5848 H   0  0  0  0  0  0  0  0  0  0  0  0
   57.4370   28.6890   45.5850 C   0  0  0  0  0  0  0  0  0  0  0  0
   56.8890   29.9720   45.4260 O   0  0  0  0  0  0  0  0  0  0  0  0
   57.0080   30.7620   44.2470 C   0  0  0  0  0  0  0  0  0  0  0  0
   57.1665   31.8144   44.5252 H   0  0  0  0  0  0  0  0  0  0  0  0
   57.8628   30.4071   43.6526 H   0  0  0  0  0  0  0  0  0  0  0  0
   56.0866   30.6747   43.6526 H   0  0  0  0  0  0  0  0  0  0  0  0
   60.1540   29.7900   47.8890 N   0  0  0  0  0  0  0  0  0  0  0  0
   60.7500   30.3780   48.9610 C   0  0  0  0  0  0  0  0  0  0  0  0
   60.7080   29.6690   50.2640 C   0  0  0  0  0  0  0  0  0  0  0  0
   61.8970   29.2090   50.8520 C   0  0  0  0  0  0  0  0  0  0  0  0
   62.8496   29.3132   50.3120 H   0  0  0  0  0  0  0  0  0  0  0  0
   61.8780   28.6200   52.1180 C   0  0  0  0  0  0  0  0  0  0  0  0
   62.8114   28.2376   52.5567 H   0  0  0  0  0  0  0  0  0  0  0  0
   60.6800   28.5130   52.8320 C   0  0  0  0  0  0  0  0  0  0  0  0
   60.7110   27.8150   54.4460 Cl  0  0  0  0  0  0  0  0  0  0  0  0
   59.4860   29.0010   52.2710 C   0  0  0  0  0  0  0  0  0  0  0  0
   58.2560   28.9520   53.0090 N   0  0  0  0  0  0  0  0  0  0  0  0
   58.1540   28.2510   53.7790 H   0  0  0  0  0  0  0  0  0  0  0  0
   57.1440   30.2870   53.0030 S   0  0  0  0  0  0  0  0  0  0  0  0
   56.5970   30.4680   51.6150 O   0  0  0  0  0  0  0  0  0  0  0  0
   56.0020   29.9830   53.9320 O   0  0  0  0  0  0  0  0  0  0  0  0
   57.9450   31.7760   53.4960 C   0  0  0  0  0  0  0  0  0  0  0  0
   58.4000   31.9220   54.8140 C   0  0  0  0  0  0  0  0  0  0  0  0
   58.3699   31.0647   55.5026 H   0  0  0  0  0  0  0  0  0  0  0  0
   58.8920   33.1540   55.2560 C   0  0  0  0  0  0  0  0  0  0  0  0
   59.2487   33.2641   56.2907 H   0  0  0  0  0  0  0  0  0  0  0  0
   58.9310   34.2470   54.3830 C   0  0  0  0  0  0  0  0  0  0  0  0
   59.5480   35.9440   55.0040 Br  0  0  0  0  0  0  0  0  0  0  0  0
   58.4940   34.1020   53.0620 C   0  0  0  0  0  0  0  0  0  0  0  0
   58.5352   34.9579   52.3723 H   0  0  0  0  0  0  0  0  0  0  0  0
   58.0050   32.8700   52.6180 C   0  0  0  0  0  0  0  0  0  0  0  0
   57.6662   32.7573   51.5776 H   0  0  0  0  0  0  0  0  0  0  0  0
   59.5070   29.5430   50.9790 C   0  0  0  0  0  0  0  0  0  0  0  0
   58.5657   29.8755   50.5171 H   0  0  0  0  0  0  0  0  0  0  0  0
   61.4200   31.6070   48.7840 C   0  0  0  0  0  0  0  0  0  0  0  0
   61.9930   32.2640   49.8850 O   0  0  0  0  0  0  0  0  0  0  0  0
   61.4760   33.4530   50.4740 C   0  0  0  0  0  0  0  0  0  0  0  0
   61.5139   33.3658   51.5699 H   0  0  0  0  0  0  0  0  0  0  0  0
   62.0810   34.3140   50.1535 H   0  0  0  0  0  0  0  0  0  0  0  0
   60.4337   33.5977   50.1535 H   0  0  0  0  0  0  0  0  0  0  0  0
  1  2  1  0
  2  3  1  0
  3  4  1  0
  4  5  2  0
  5  6  1  0
  6  7  2  0
  7  8  1  0
  7  9  1  0
  9 10  1  0
  9 11  2  0
 11 12  1  0
 12 13  1  0
 13 14  1  0
 13 15  1  0
 13 16  1  0
 16 17  1  0
 16 18  1  0
 16 19  1  0
 19 20  1  0
 20 21  2  0
 20 22  1  0
 22 23  1  0
 22 24  1  0
 22 25  1  0
 25 26  1  0
 25 27  1  0
 19 28  1  0
 28 29  1  0
 28 30  1  0
 28 31  1  0
 31 32  1  0
 31 33  1  0
 11 34  1  0
 34 35  1  0
 34 36  2  0
 36 37  1  0
 37 38  1  0
 38 39  1  0
 38 40  1  0
 38 41  1  0
  4 42  1  0
 42 43  2  0
 43 44  1  0
 44 45  2  0
 45 46  1  0
 45 47  1  0
 47 48  1  0
 47 49  2  0
 49 50  1  0
 49 51  1  0
 51 52  1  0
 52 53  1  0
 52 54  1  0
 54 55  2  0
 54 56  2  0
 54 57  1  0
 57 58  2  0
 58 59  1  0
 58 60  1  0
 60 61  1  0
 60 62  2  0
 62 63  1  0
 62 64  1  0
 64 65  1  0
 64 66  2  0
 66 67  1  0
 51 68  2  0
 68 69  1  0
 43 70  1  0
 70 71  1  0
 71 72  1  0
 72 73  1  0
 72 74  1  0
 72 75  1  0
 70  2  2  0
 36  6  1  0
 68 44  1  0
 31 12  1  0
 66 57  1  0
M  CHG  1   3  -1
M  END
>  <UniqueID>  (39) 
36

>  <SMILES>  (39) 
COc1cc(N2CCN(C(=O)CN)CC2)ccc1/N=c1\nc(-c2ccc(Cl)c(NS(=O)(=O)c3ccc(Br)cc3)c2)c(OC)c[n-]1

>  <Energy>  (39) 
100.71877954995014

>  <Genealogy>  (39) 
COc1cc(N2CCN(C(=O)CN)CC2)ccc1N=c1nc(-c2ccc(Cl)c(NS(=O)(=O)c3ccc(Br)cc3)c2)c(OC)c[n-]1 (protonated)
COc1cc(N2CCN(C(=O)CN)CC2)ccc1/N=c1\nc(-c2ccc(Cl)c(NS(=O)(=O)c3ccc(Br)cc3)c2)c(OC)c[n-]1 (cis-trans isomerization)
COc1cc(N2CCN(C(=O)CN)CC2)ccc1/N=c1\nc(-c2ccc(Cl)c(NS(=O)(=O)c3ccc(Br)cc3)c2)c(OC)c[n-]1 (3D coordinates assigned)
COc1cc(N2CCN(C(=O)CN)CC2)ccc1/N=c1\nc(-c2ccc(Cl)c(NS(=O)(=O)c3ccc(Br)cc3)c2)c(OC)c[n-]1 (nonaromatic ring conformer: 100.71877954995014 kcal/mol)

>  <smiles>  (39) 
COc1cc(N2CCN(C(=O)CN)CC2)ccc1N=c1nc(-c2ccc(Cl)c(NS(=O)(=O)c3ccc(Br)cc3)c2)c(OC)c[nH]1

>  <score_type>  (39) 
oracle

>  <origin>  (39) 
adg

>  <m_score__min__energy>  (39) 
-9.8200000000000003

>  <m_primary>  (39) 
energy

$$$$
39:0
     RDKit          3D

 39 41  0  0  0  0  0  0  0  0999 V2000
   58.8153   29.2267   51.9222 H   0  0  0  0  0  0  0  0  0  0  0  0
   59.2570   29.5220   50.9590 C   0  0  0  0  0  0  0  0  0  0  0  0
   58.4680   30.0380   49.9810 N   0  0  0  0  0  0  0  0  0  0  0  0
   58.9750   30.4150   48.7770 C   0  0  0  0  0  0  0  0  0  0  0  0
   58.3076   30.8341   48.0096 H   0  0  0  0  0  0  0  0  0  0  0  0
   60.3490   30.2720   48.5070 C   0  0  0  0  0  0  0  0  0  0  0  0
   60.9140   30.6760   47.1950 C   0  0  0  0  0  0  0  0  0  0  0  0
   61.8030   31.6240   47.1540 N   0  0  0  0  0  0  0  0  0  0  0  0
   61.4420   33.3190   47.2420 S   0  0  0  0  0  0  0  0  0  0  0  0
   62.4230   34.0990   46.4150 O   0  0  0  0  0  0  0  0  0  0  0  0
   61.5110   33.7630   48.6760 O   0  0  0  0  0  0  0  0  0  0  0  0
   59.8210   33.5940   46.6130 C   0  0  0  0  0  0  0  0  0  0  0  0
   59.6490   34.1930   45.3560 C   0  0  0  0  0  0  0  0  0  0  0  0
   60.5275   34.4853   44.7621 H   0  0  0  0  0  0  0  0  0  0  0  0
   58.3620   34.4190   44.8570 C   0  0  0  0  0  0  0  0  0  0  0  0
   58.2297   34.8861   43.8699 H   0  0  0  0  0  0  0  0  0  0  0  0
   57.2440   34.0520   45.6110 C   0  0  0  0  0  0  0  0  0  0  0  0
   56.2327   34.2283   45.2159 H   0  0  0  0  0  0  0  0  0  0  0  0
   57.4100   33.4610   46.8670 C   0  0  0  0  0  0  0  0  0  0  0  0
   56.5294   33.1744   47.4606 H   0  0  0  0  0  0  0  0  0  0  0  0
   58.6960   33.2340   47.3690 C   0  0  0  0  0  0  0  0  0  0  0  0
   58.8250   32.7721   48.3589 H   0  0  0  0  0  0  0  0  0  0  0  0
   60.5100   30.0040   45.9880 N   0  0  0  0  0  0  0  0  0  0  0  0
   61.2590   29.6410   45.3560 H   0  0  0  0  0  0  0  0  0  0  0  0
   59.1370   29.8190   45.6000 C   0  0  0  0  0  0  0  0  0  0  0  0
   58.4770   28.6290   45.9450 C   0  0  0  0  0  0  0  0  0  0  0  0
   59.0124   27.8516   46.5099 H   0  0  0  0  0  0  0  0  0  0  0  0
   57.1450   28.4250   45.5760 C   0  0  0  0  0  0  0  0  0  0  0  0
   56.6333   27.4930   45.8579 H   0  0  0  0  0  0  0  0  0  0  0  0
   56.4620   29.4040   44.8490 C   0  0  0  0  0  0  0  0  0  0  0  0
   55.1690   29.2040   44.4900 F   0  0  0  0  0  0  0  0  0  0  0  0
   57.1130   30.5860   44.4870 C   0  0  0  0  0  0  0  0  0  0  0  0
   56.5765   31.3541   43.9107 H   0  0  0  0  0  0  0  0  0  0  0  0
   58.4450   30.7940   44.8560 C   0  0  0  0  0  0  0  0  0  0  0  0
   58.9551   31.7237   44.5638 H   0  0  0  0  0  0  0  0  0  0  0  0
   61.1720   29.7450   49.5170 C   0  0  0  0  0  0  0  0  0  0  0  0
   62.2516   29.6308   49.3395 H   0  0  0  0  0  0  0  0  0  0  0  0
   60.6260   29.3660   50.7440 C   0  0  0  0  0  0  0  0  0  0  0  0
   61.2686   28.9486   51.5332 H   0  0  0  0  0  0  0  0  0  0  0  0
  1  2  1  0
  2  3  2  0
  3  4  1  0
  4  5  1  0
  4  6  2  0
  6  7  1  0
  7  8  2  0
  8  9  1  0
  9 10  2  0
  9 11  2  0
  9 12  1  0
 12 13  2  0
 13 14  1  0
 13 15  1  0
 15 16  1  0
 15 17  2  0
 17 18  1  0
 17 19  1  0
 19 20  1  0
 19 21  2  0
 21 22  1  0
  7 23  1  0
 23 24  1  0
 23 25  1  0
 25 26  2  0
 26 27  1  0
 26 28  1  0
 28 29  1  0
 28 30  2  0
 30 31  1  0
 30 32  1  0
 32 33  1  0
 32 34  2  0
 34 35  1  0
  6 36  1  0
 36 37  1  0
 36 38  2  0
 38 39  1  0
 38  2  1  0
 21 12  1  0
 34 25  1  0
M  END
>  <UniqueID>  (40) 
37

>  <SMILES>  (40) 
O=S(=O)(/N=C(\Nc1ccc(F)cc1)c1cccnc1)c1ccccc1

>  <Energy>  (40) 
53.03861009305405

>  <Genealogy>  (40) 
O=S(=O)(/N=C(\Nc1ccc(F)cc1)c1cccnc1)c1ccccc1 (cis-trans isomerization)
O=S(=O)(/N=C(\Nc1ccc(F)cc1)c1cccnc1)c1ccccc1 (3D coordinates assigned)
O=S(=O)(/N=C(\Nc1ccc(F)cc1)c1cccnc1)c1ccccc1 (optimized conformer: 53.03861009305405 kcal/mol)

>  <smiles>  (40) 
O=S(=O)(N=C(Nc1ccc(F)cc1)c1cccnc1)c1ccccc1

>  <score_type>  (40) 
oracle

>  <origin>  (40) 
adg

>  <m_score__min__energy>  (40) 
-7.8899999999999997

>  <m_primary>  (40) 
energy

$$$$
40:0
     RDKit          3D

 22 24  0  0  0  0  0  0  0  0999 V2000
   55.7040   30.0160   44.7280 O   0  0  0  0  0  0  0  0  0  0  0  0
   56.6460   29.3410   45.1910 C   0  0  0  0  0  0  0  0  0  0  0  0
   56.5830   27.9840   45.2480 N   0  0  0  0  0  0  0  0  0  0  0  0
   57.6030   27.2540   45.7500 C   0  0  0  0  0  0  0  0  0  0  0  0
   57.5290   25.5030   45.8280 Cl  0  0  0  0  0  0  0  0  0  0  0  0
   58.7320   27.8390   46.2150 N   0  0  0  0  0  0  0  0  0  0  0  0
   58.8570   29.1940   46.1840 C   0  0  0  0  0  0  0  0  0  0  0  0
   59.9560   29.7460   46.6380 O   0  0  0  0  0  0  0  0  0  0  0  0
   60.1340   31.0520   46.6340 C   0  0  0  0  0  0  0  0  0  0  0  0
   61.3030   31.6110   47.1190 C   0  0  0  0  0  0  0  0  0  0  0  0
   61.4000   32.9840   47.0750 C   0  0  0  0  0  0  0  0  0  0  0  0
   63.0130   33.7650   47.7430 Br  0  0  0  0  0  0  0  0  0  0  0  0
   60.4060   33.8030   46.5810 C   0  0  0  0  0  0  0  0  0  0  0  0
   59.2580   33.1930   46.1080 C   0  0  0  0  0  0  0  0  0  0  0  0
   59.1110   31.8280   46.1290 C   0  0  0  0  0  0  0  0  0  0  0  0
   57.9330   31.3040   45.6380 C   0  0  0  0  0  0  0  0  0  0  0  0
   57.0360   32.0400   45.1910 O   0  0  0  0  0  0  0  0  0  0  0  0
   57.8010   29.9160   45.6680 C   0  0  0  0  0  0  0  0  0  0  0  0
   59.5100   27.2810   46.5970 H   0  0  0  0  0  0  0  0  0  0  0  0
   62.1161   30.9884   47.5206 H   0  0  0  0  0  0  0  0  0  0  0  0
   60.5215   34.8968   46.5639 H   0  0  0  0  0  0  0  0  0  0  0  0
   58.4449   33.8153   45.7061 H   0  0  0  0  0  0  0  0  0  0  0  0
  1  2  2  0
  2  3  1  0
  3  4  2  0
  4  5  1  0
  4  6  1  0
  6  7  1  0
  7  8  1  0
  8  9  1  0
  9 10  2  0
 10 11  1  0
 11 12  1  0
 11 13  2  0
 13 14  1  0
 14 15  2  0
 15 16  1  0
 16 17  2  0
 16 18  1  0
 18  2  1  0
 18  7  2  0
 15  9  1  0
  6 19  1  0
 10 20  1  0
 13 21  1  0
 14 22  1  0
M  END
>  <smiles>  (41) 
O=c1nc(Cl)[nH]c2oc3cc(Br)ccc3c(=O)c12

>  <score_type>  (41) 
oracle

>  <origin>  (41) 
adg

>  <m_score__min__energy>  (41) 
-6.71

>  <m_primary>  (41) 
energy

$$$$
41:0
     RDKit          3D

 24 25  0  0  0  0  0  0  0  0999 V2000
   55.5300   30.8560   44.7240 O   0  0  0  0  0  0  0  0  0  0  0  0
   56.3030   29.9250   44.3740 C   0  0  0  0  0  0  0  0  0  0  0  0
   56.0610   28.6030   44.8680 N   0  0  0  0  0  0  0  0  0  0  0  0
   57.0210   27.7780   45.5350 C   0  0  0  0  0  0  0  0  0  0  0  0
   58.3840   28.0230   45.5470 C   0  0  0  0  0  0  0  0  0  0  0  0
   59.1140   27.0130   46.1850 C   0  0  0  0  0  0  0  0  0  0  0  0
   58.3280   25.9670   46.6530 C   0  0  0  0  0  0  0  0  0  0  0  0
   56.7210   26.2920   46.2710 S   0  0  0  0  0  0  0  0  0  0  0  0
   57.3680   30.1870   43.4510 N   0  0  0  0  0  0  0  0  0  0  0  0
   57.7610   31.5530   43.1100 C   0  0  0  0  0  0  0  0  0  0  0  0
   58.0100   32.3530   44.3490 C   0  0  0  0  0  0  0  0  0  0  0  0
   57.7540   33.7100   44.5060 C   0  0  0  0  0  0  0  0  0  0  0  0
   58.1740   34.2070   45.7450 C   0  0  0  0  0  0  0  0  0  0  0  0
   58.7750   33.2520   46.5550 C   0  0  0  0  0  0  0  0  0  0  0  0
   58.7870   31.7880   45.7280 S   0  0  0  0  0  0  0  0  0  0  0  0
   58.8447   28.9173   45.1020 H   0  0  0  0  0  0  0  0  0  0  0  0
   60.2070   27.0445   46.3046 H   0  0  0  0  0  0  0  0  0  0  0  0
   58.6944   25.0761   47.1840 H   0  0  0  0  0  0  0  0  0  0  0  0
   57.8330   29.3820   42.9730 H   0  0  0  0  0  0  0  0  0  0  0  0
   58.6804   31.5249   42.5067 H   0  0  0  0  0  0  0  0  0  0  0  0
   56.9469   32.0249   42.5403 H   0  0  0  0  0  0  0  0  0  0  0  0
   57.2711   34.3294   43.7359 H   0  0  0  0  0  0  0  0  0  0  0  0
   58.0407   35.2557   46.0489 H   0  0  0  0  0  0  0  0  0  0  0  0
   59.1749   33.4241   47.5652 H   0  0  0  0  0  0  0  0  0  0  0  0
  1  2  2  0
  2  3  1  0
  3  4  1  0
  4  5  2  0
  5  6  1  0
  6  7  2  0
  7  8  1  0
  2  9  1  0
  9 10  1  0
 10 11  1  0
 11 12  2  0
 12 13  1  0
 13 14  2  0
 14 15  1  0
  8  4  1  0
 15 11  1  0
  5 16  1  0
  6 17  1  0
  7 18  1  0
  9 19  1  0
 10 20  1  0
 10 21  1  0
 12 22  1  0
 13 23  1  0
 14 24  1  0
M  CHG  1   3  -1
M  END
>  <UniqueID>  (42) 
38

>  <SMILES>  (42) 
O=C([N-]c1cccs1)NCc1cccs1

>  <Energy>  (42) 
76.41411942166012

>  <Genealogy>  (42) 
O=C([N-]c1cccs1)NCc1cccs1 (protonated)
O=C([N-]c1cccs1)NCc1cccs1 (3D coordinates assigned)
O=C([N-]c1cccs1)NCc1cccs1 (optimized conformer: 76.41411942166012 kcal/mol)

>  <smiles>  (42) 
O=C(NCc1cccs1)Nc1cccs1

>  <score_type>  (42) 
oracle

>  <origin>  (42) 
adg

>  <m_score__min__energy>  (42) 
-7.5899999999999999

>  <m_primary>  (42) 
energy

$$$$
42:0
     RDKit          3D

 37 39  0  0  0  0  0  0  0  0999 V2000
   56.8590   29.3720   43.8730 C   0  0  0  0  0  0  0  0  0  0  0  0
   56.9620   29.9770   45.1570 O   0  0  0  0  0  0  0  0  0  0  0  0
   57.5680   31.2200   45.4080 C   0  0  0  0  0  0  0  0  0  0  0  0
   57.0940   32.4070   44.8130 C   0  0  0  0  0  0  0  0  0  0  0  0
   57.7100   33.6300   45.0810 C   0  0  0  0  0  0  0  0  0  0  0  0
   58.8040   33.6890   45.9440 C   0  0  0  0  0  0  0  0  0  0  0  0
   59.6420   35.3660   46.3120 Br  0  0  0  0  0  0  0  0  0  0  0  0
   59.2860   32.5220   46.5420 C   0  0  0  0  0  0  0  0  0  0  0  0
   58.6780   31.2830   46.2790 C   0  0  0  0  0  0  0  0  0  0  0  0
   59.2150   30.0500   46.9630 C   0  0  0  0  0  0  0  0  0  0  0  0
   58.3400   28.9080   46.7070 N   0  0  0  0  0  0  0  0  0  0  0  0
   58.8380   27.5620   46.6150 C   0  0  0  0  0  0  0  0  0  0  0  0
   60.0810   27.3530   46.6750 O   0  0  0  0  0  0  0  0  0  0  0  0
   57.9190   26.4130   46.4310 C   0  0  0  0  0  0  0  0  0  0  0  0
   58.4010   25.0990   46.5780 C   0  0  0  0  0  0  0  0  0  0  0  0
   57.5500   24.0030   46.4110 C   0  0  0  0  0  0  0  0  0  0  0  0
   56.2030   24.2060   46.1050 C   0  0  0  0  0  0  0  0  0  0  0  0
   55.3610   23.1510   45.9420 N   0  0  0  0  0  0  0  0  0  0  0  0
   54.0470   23.3390   45.6490 C   0  0  0  0  0  0  0  0  0  0  0  0
   53.2900   22.3420   45.5030 O   0  0  0  0  0  0  0  0  0  0  0  0
   53.5490   24.6430   45.5160 C   0  0  0  0  0  0  0  0  0  0  0  0
   52.3340   24.8440   45.2460 O   0  0  0  0  0  0  0  0  0  0  0  0
   54.3880   25.7000   45.6780 N   0  0  0  0  0  0  0  0  0  0  0  0
   55.7040   25.5170   45.9680 C   0  0  0  0  0  0  0  0  0  0  0  0
   56.5560   26.6130   46.1340 C   0  0  0  0  0  0  0  0  0  0  0  0
   56.6754   28.2937   43.9894 H   0  0  0  0  0  0  0  0  0  0  0  0
   56.0256   29.8281   43.3186 H   0  0  0  0  0  0  0  0  0  0  0  0
   57.7964   29.5266   43.3186 H   0  0  0  0  0  0  0  0  0  0  0  0
   56.2312   32.3687   44.1317 H   0  0  0  0  0  0  0  0  0  0  0  0
   57.3319   34.5496   44.6106 H   0  0  0  0  0  0  0  0  0  0  0  0
   60.1478   32.5736   47.2237 H   0  0  0  0  0  0  0  0  0  0  0  0
   60.2214   29.8300   46.5773 H   0  0  0  0  0  0  0  0  0  0  0  0
   59.2590   30.2319   48.0470 H   0  0  0  0  0  0  0  0  0  0  0  0
   57.3310   29.1030   46.5220 H   0  0  0  0  0  0  0  0  0  0  0  0
   59.4594   24.9327   46.8271 H   0  0  0  0  0  0  0  0  0  0  0  0
   57.9413   22.9808   46.5206 H   0  0  0  0  0  0  0  0  0  0  0  0
   56.1612   27.6347   46.0325 H   0  0  0  0  0  0  0  0  0  0  0  0
  1  2  1  0
  2  3  1  0
  3  4  2  0
  4  5  1  0
  5  6  2  0
  6  7  1  0
  6  8  1  0
  8  9  2  0
  9 10  1  0
 10 11  1  0
 11 12  1  0
 12 13  2  0
 12 14  1  0
 14 15  2  0
 15 16  1  0
 16 17  2  0
 17 18  1  0
 18 19  1  0
 19 20  2  0
 19 21  1  0
 21 22  2  0
 21 23  1  0
 23 24  1  0
 24 25  2  0
  9  3  1  0
 25 14  1  0
 24 17  1  0
  1 26  1  0
  1 27  1  0
  1 28  1  0
  4 29  1  0
  5 30  1  0
  8 31  1  0
 10 32  1  0
 10 33  1  0
 11 34  1  0
 15 35  1  0
 16 36  1  0
 25 37  1  0
M  CHG  2  18  -1  23  -1
M  END
>  <UniqueID>  (43) 
39

>  <SMILES>  (43) 
COc1ccc(Br)cc1CNC(=O)c1ccc2[n-]c(=O)c(=O)[n-]c2c1

>  <Energy>  (43) 
44.63189992997299

>  <Genealogy>  (43) 
COc1ccc(Br)cc1CNC(=O)c1ccc2[n-]c(=O)c(=O)[n-]c2c1 (protonated)
COc1ccc(Br)cc1CNC(=O)c1ccc2[n-]c(=O)c(=O)[n-]c2c1 (3D coordinates assigned)
COc1ccc(Br)cc1CNC(=O)c1ccc2[n-]c(=O)c(=O)[n-]c2c1 (optimized conformer: 44.63189992997299 kcal/mol)

>  <smiles>  (43) 
COc1ccc(Br)cc1CNC(=O)c1ccc2[nH]c(=O)c(=O)[nH]c2c1

>  <score_type>  (43) 
oracle

>  <origin>  (43) 
adg

>  <m_score__min__energy>  (43) 
-11.27

>  <m_primary>  (43) 
energy

$$$$
43:0
     RDKit          3D

 51 53  0  0  0  0  0  0  0  0999 V2000
   56.8090   29.3300   42.9490 C   0  0  0  0  0  0  0  0  0  0  0  0
   57.2080   30.6790   43.4680 C   0  0  0  0  0  0  0  0  0  0  0  0
   57.7390   31.6340   42.5900 C   0  0  0  0  0  0  0  0  0  0  0  0
   58.1310   32.8900   43.0620 C   0  0  0  0  0  0  0  0  0  0  0  0
   58.0080   33.2080   44.4300 C   0  0  0  0  0  0  0  0  0  0  0  0
   58.3910   34.5320   44.9800 C   0  0  0  0  0  0  0  0  0  0  0  0
   59.5810   34.7900   45.5430 C   0  0  0  0  0  0  0  0  0  0  0  0
   59.9900   34.2260   46.8490 C   0  0  0  0  0  0  0  0  0  0  0  0
   59.3310   34.5570   47.8710 O   0  0  0  0  0  0  0  0  0  0  0  0
   61.1490   33.3140   47.0060 C   0  0  0  0  0  0  0  0  0  0  0  0
   62.4470   33.8450   47.1140 C   0  0  0  0  0  0  0  0  0  0  0  0
   63.5440   33.0010   47.2910 C   0  0  0  0  0  0  0  0  0  0  0  0
   63.3600   31.6220   47.3680 C   0  0  0  0  0  0  0  0  0  0  0  0
   62.0770   31.0800   47.2740 C   0  0  0  0  0  0  0  0  0  0  0  0
   60.9570   31.9180   47.0980 C   0  0  0  0  0  0  0  0  0  0  0  0
   59.6520   31.4030   46.9980 O   0  0  0  0  0  0  0  0  0  0  0  0
   59.1170   30.3400   47.7860 C   0  0  0  0  0  0  0  0  0  0  0  0
   58.9780   30.7650   49.2160 C   0  0  0  0  0  0  0  0  0  0  0  0
   58.6870   29.9080   50.0940 O   0  0  0  0  0  0  0  0  0  0  0  0
   59.1380   32.1460   49.5730 N   0  0  0  0  0  0  0  0  0  0  0  0
   59.0130   32.6060   50.9250 C   0  0  0  0  0  0  0  0  0  0  0  0
   60.0730   33.3230   51.4970 C   0  0  0  0  0  0  0  0  0  0  0  0
   59.9710   33.8230   52.7980 C   0  0  0  0  0  0  0  0  0  0  0  0
   58.8110   33.6000   53.5420 C   0  0  0  0  0  0  0  0  0  0  0  0
   57.7580   32.8630   52.9940 C   0  0  0  0  0  0  0  0  0  0  0  0
   57.8520   32.3490   51.6920 C   0  0  0  0  0  0  0  0  0  0  0  0
   56.7910   31.5300   51.1850 N   0  0  0  0  0  0  0  0  0  0  0  0
   57.4670   32.2500   45.3020 C   0  0  0  0  0  0  0  0  0  0  0  0
   57.0780   30.9930   44.8280 C   0  0  0  0  0  0  0  0  0  0  0  0
   56.6096   28.6559   43.7951 H   0  0  0  0  0  0  0  0  0  0  0  0
   55.9011   29.4270   42.3356 H   0  0  0  0  0  0  0  0  0  0  0  0
   57.6236   28.9175   42.3356 H   0  0  0  0  0  0  0  0  0  0  0  0
   57.8480   31.3934   41.5222 H   0  0  0  0  0  0  0  0  0  0  0  0
   58.5378   33.6346   42.3620 H   0  0  0  0  0  0  0  0  0  0  0  0
   57.6567   35.3491   44.9227 H   0  0  0  0  0  0  0  0  0  0  0  0
   60.2830   35.4490   45.0112 H   0  0  0  0  0  0  0  0  0  0  0  0
   62.5984   34.9331   47.0585 H   0  0  0  0  0  0  0  0  0  0  0  0
   64.5559   33.4251   47.3699 H   0  0  0  0  0  0  0  0  0  0  0  0
   64.2274   30.9592   47.5031 H   0  0  0  0  0  0  0  0  0  0  0  0
   61.9388   29.9906   47.3377 H   0  0  0  0  0  0  0  0  0  0  0  0
   58.1280   30.0609   47.3936 H   0  0  0  0  0  0  0  0  0  0  0  0
   59.8016   29.4805   47.7354 H   0  0  0  0  0  0  0  0  0  0  0  0
   59.1290   32.8580   48.8070 H   0  0  0  0  0  0  0  0  0  0  0  0
   60.9922   33.4934   50.9173 H   0  0  0  0  0  0  0  0  0  0  0  0
   60.8044   34.3921   53.2356 H   0  0  0  0  0  0  0  0  0  0  0  0
   58.7258   34.0051   54.5611 H   0  0  0  0  0  0  0  0  0  0  0  0
   56.8492   32.6846   53.5874 H   0  0  0  0  0  0  0  0  0  0  0  0
   56.8940   30.4920   51.1450 H   0  0  0  0  0  0  0  0  0  0  0  0
   55.9290   31.9470   50.7720 H   0  0  0  0  0  0  0  0  0  0  0  0
   57.3479   32.4904   46.3688 H   0  0  0  0  0  0  0  0  0  0  0  0
   56.6683   30.2475   45.5254 H   0  0  0  0  0  0  0  0  0  0  0  0
  1  2  1  0
  2  3  2  0
  3  4  1  0
  4  5  2  0
  5  6  1  0
  6  7  2  3
  7  8  1  0
  8  9  2  0
  8 10  1  0
 10 11  2  0
 11 12  1  0
 12 13  2  0
 13 14  1  0
 14 15  2  0
 15 16  1  0
 16 17  1  0
 17 18  1  0
 18 19  2  0
 18 20  1  0
 20 21  1  0
 21 22  2  0
 22 23  1  0
 23 24  2  0
 24 25  1  0
 25 26  2  0
 26 27  1  0
  5 28  1  0
 28 29  2  0
 29  2  1  0
 15 10  1  0
 26 21  1  0
  1 30  1  0
  1 31  1  0
  1 32  1  0
  3 33  1  0
  4 34  1  0
  6 35  1  0
  7 36  1  0
 11 37  1  0
 12 38  1  0
 13 39  1  0
 14 40  1  0
 17 41  1  0
 17 42  1  0
 20 43  1  0
 22 44  1  0
 23 45  1  0
 24 46  1  0
 25 47  1  0
 27 48  1  0
 27 49  1  0
 28 50  1  0
 29 51  1  0
M  END
>  <UniqueID>  (44) 
40

>  <SMILES>  (44) 
Cc1ccc(C=CC(=O)c2ccccc2OCC(=O)Nc2ccccc2N)cc1

>  <Energy>  (44) 
64.40157369598842

>  <Genealogy>  (44) 
Cc1ccc(C=CC(=O)c2ccccc2OCC(=O)Nc2ccccc2N)cc1 (3D coordinates assigned)
Cc1ccc(C=CC(=O)c2ccccc2OCC(=O)Nc2ccccc2N)cc1 (optimized conformer: 64.40157369598842 kcal/mol)

>  <smiles>  (44) 
Cc1ccc(C=CC(=O)c2ccccc2OCC(=O)Nc2ccccc2N)cc1

>  <score_type>  (44) 
oracle

>  <origin>  (44) 
adg

>  <m_score__min__energy>  (44) 
-7.6500000000000004

>  <m_primary>  (44) 
energy

$$$$
44:0
     RDKit          3D

 46 48  0  0  0  0  0  0  0  0999 V2000
   59.1650   35.0460   46.8770 O   0  0  0  0  0  0  0  0  0  0  0  0
   58.8650   33.8780   47.2420 C   0  0  0  0  0  0  0  0  0  0  0  0
   58.1470   33.0060   46.3560 N   0  0  0  0  0  0  0  0  0  0  0  0
   57.9800   33.2940   44.9350 C   0  0  0  0  0  0  0  0  0  0  0  0
   57.3930   32.1020   44.2410 C   0  0  0  0  0  0  0  0  0  0  0  0
   57.4950   31.9550   42.8490 C   0  0  0  0  0  0  0  0  0  0  0  0
   56.9850   30.8050   42.2420 C   0  0  0  0  0  0  0  0  0  0  0  0
   56.3880   29.8140   43.0250 C   0  0  0  0  0  0  0  0  0  0  0  0
   56.3190   29.9860   44.4090 C   0  0  0  0  0  0  0  0  0  0  0  0
   56.8230   31.1120   44.9820 N   0  0  0  0  0  0  0  0  0  0  0  0
   59.2010   33.4350   48.6140 C   0  0  0  0  0  0  0  0  0  0  0  0
   60.2820   34.1590   49.3680 C   0  0  0  0  0  0  0  0  0  0  0  0
   61.6410   33.7980   48.8290 C   0  0  0  0  0  0  0  0  0  0  0  0
   61.8890   33.8470   47.4470 C   0  0  0  0  0  0  0  0  0  0  0  0
   63.1350   33.4610   46.9420 C   0  0  0  0  0  0  0  0  0  0  0  0
   64.1380   33.0240   47.8110 C   0  0  0  0  0  0  0  0  0  0  0  0
   63.8950   32.9660   49.1880 C   0  0  0  0  0  0  0  0  0  0  0  0
   62.6500   33.3460   49.6960 C   0  0  0  0  0  0  0  0  0  0  0  0
   58.5380   32.4950   49.2290 N   0  0  0  0  0  0  0  0  0  0  0  0
   58.7580   31.0780   49.1590 C   0  0  0  0  0  0  0  0  0  0  0  0
   58.4250   30.3350   50.1230 O   0  0  0  0  0  0  0  0  0  0  0  0
   59.3130   30.4740   47.9250 C   0  0  0  0  0  0  0  0  0  0  0  0
   60.6330   30.7580   47.5190 C   0  0  0  0  0  0  0  0  0  0  0  0
   61.1600   30.1710   46.3630 C   0  0  0  0  0  0  0  0  0  0  0  0
   60.3780   29.2990   45.6010 C   0  0  0  0  0  0  0  0  0  0  0  0
   59.0660   29.0130   45.9900 C   0  0  0  0  0  0  0  0  0  0  0  0
   58.5340   29.5960   47.1460 C   0  0  0  0  0  0  0  0  0  0  0  0
   57.7730   32.1020   46.7260 H   0  0  0  0  0  0  0  0  0  0  0  0
   57.3068   34.1554   44.8136 H   0  0  0  0  0  0  0  0  0  0  0  0
   58.9607   33.5249   44.4935 H   0  0  0  0  0  0  0  0  0  0  0  0
   57.9722   32.7382   42.2416 H   0  0  0  0  0  0  0  0  0  0  0  0
   57.0532   30.6801   41.1512 H   0  0  0  0  0  0  0  0  0  0  0  0
   55.9767   28.9079   42.5563 H   0  0  0  0  0  0  0  0  0  0  0  0
   55.8565   29.2100   45.0366 H   0  0  0  0  0  0  0  0  0  0  0  0
   60.1294   35.2435   49.2654 H   0  0  0  0  0  0  0  0  0  0  0  0
   60.2322   33.8648   50.4267 H   0  0  0  0  0  0  0  0  0  0  0  0
   61.1011   34.1899   46.7602 H   0  0  0  0  0  0  0  0  0  0  0  0
   63.3254   33.5015   45.8594 H   0  0  0  0  0  0  0  0  0  0  0  0
   65.1189   32.7255   47.4127 H   0  0  0  0  0  0  0  0  0  0  0  0
   64.6850   32.6209   49.8712 H   0  0  0  0  0  0  0  0  0  0  0  0
   62.4593   33.2911   50.7779 H   0  0  0  0  0  0  0  0  0  0  0  0
   61.2523   31.4450   48.1144 H   0  0  0  0  0  0  0  0  0  0  0  0
   62.1913   30.3964   46.0538 H   0  0  0  0  0  0  0  0  0  0  0  0
   60.7952   28.8371   44.6940 H   0  0  0  0  0  0  0  0  0  0  0  0
   58.4510   28.3289   45.3868 H   0  0  0  0  0  0  0  0  0  0  0  0
   57.5013   29.3672   47.4480 H   0  0  0  0  0  0  0  0  0  0  0  0
  1  2  2  0
  2  3  1  0
  3  4  1  0
  4  5  1  0
  5  6  2  0
  6  7  1  0
  7  8  2  0
  8  9  1  0
  9 10  2  0
  2 11  1  0
 11 12  1  0
 12 13  1  0
 13 14  2  0
 14 15  1  0
 15 16  2  0
 16 17  1  0
 17 18  2  0
 11 19  2  3
 19 20  1  0
 20 21  2  0
 20 22  1  0
 22 23  2  0
 23 24  1  0
 24 25  2  0
 25 26  1  0
 26 27  2  0
 10  5  1  0
 18 13  1  0
 27 22  1  0
  3 28  1  0
  4 29  1  0
  4 30  1  0
  6 31  1  0
  7 32  1  0
  8 33  1  0
  9 34  1  0
 12 35  1  0
 12 36  1  0
 14 37  1  0
 15 38  1  0
 16 39  1  0
 17 40  1  0
 18 41  1  0
 23 42  1  0
 24 43  1  0
 25 44  1  0
 26 45  1  0
 27 46  1  0
M  END
>  <UniqueID>  (45) 
41

>  <SMILES>  (45) 
O=C(NCc1ccccn1)C(Cc1ccccc1)=NC(=O)c1ccccc1

>  <Energy>  (45) 
53.384952836270685

>  <Genealogy>  (45) 
O=C(NCc1ccccn1)C(Cc1ccccc1)=NC(=O)c1ccccc1 (3D coordinates assigned)
O=C(NCc1ccccn1)C(Cc1ccccc1)=NC(=O)c1ccccc1 (optimized conformer: 53.384952836270685 kcal/mol)

>  <smiles>  (45) 
O=C(NCc1ccccn1)C(Cc1ccccc1)=NC(=O)c1ccccc1

>  <score_type>  (45) 
oracle

>  <origin>  (45) 
adg

>  <m_score__min__energy>  (45) 
-9.2899999999999991

>  <m_primary>  (45) 
energy

$$$$
45:0
     RDKit          3D

 23 25  0  0  0  0  0  0  0  0999 V2000
   57.7930   23.6150   45.8960 H   0  0  0  0  0  0  0  0  0  0  0  0
   57.5860   24.3570   46.6000 N   0  0  0  0  0  0  0  0  0  0  0  0
   56.9060   25.4150   46.2970 C   0  0  0  0  0  0  0  0  0  0  0  0
   57.4000   26.6200   45.8550 C   0  0  0  0  0  0  0  0  0  0  0  0
   58.6810   27.0940   45.5990 C   0  0  0  0  0  0  0  0  0  0  0  0
   59.5645   26.4556   45.7469 H   0  0  0  0  0  0  0  0  0  0  0  0
   58.8080   28.4190   45.1440 C   0  0  0  0  0  0  0  0  0  0  0  0
   59.8080   28.8249   44.9315 H   0  0  0  0  0  0  0  0  0  0  0  0
   57.6610   29.2440   44.9540 C   0  0  0  0  0  0  0  0  0  0  0  0
   57.7970   30.6440   44.4740 C   0  0  0  0  0  0  0  0  0  0  0  0
   58.2360   31.9680   45.4250 S   0  0  0  0  0  0  0  0  0  0  0  0
   58.1680   33.1280   44.2140 C   0  0  0  0  0  0  0  0  0  0  0  0
   58.3799   34.2008   44.3327 H   0  0  0  0  0  0  0  0  0  0  0  0
   57.7970   32.4940   43.0360 C   0  0  0  0  0  0  0  0  0  0  0  0
   57.6766   33.0256   42.0805 H   0  0  0  0  0  0  0  0  0  0  0  0
   57.5900   31.1160   43.1750 C   0  0  0  0  0  0  0  0  0  0  0  0
   57.2922   30.4656   42.3394 H   0  0  0  0  0  0  0  0  0  0  0  0
   56.3770   28.7110   45.2310 C   0  0  0  0  0  0  0  0  0  0  0  0
   55.4725   29.3222   45.0956 H   0  0  0  0  0  0  0  0  0  0  0  0
   56.2880   27.3970   45.6780 C   0  0  0  0  0  0  0  0  0  0  0  0
   55.1710   26.7100   45.9940 N   0  0  0  0  0  0  0  0  0  0  0  0
   55.5610   25.4960   46.3720 N   0  0  0  0  0  0  0  0  0  0  0  0
   54.9090   24.7380   46.6760 H   0  0  0  0  0  0  0  0  0  0  0  0
  1  2  1  0
  2  3  2  0
  3  4  1  0
  4  5  2  0
  5  6  1  0
  5  7  1  0
  7  8  1  0
  7  9  2  0
  9 10  1  0
 10 11  1  0
 11 12  1  0
 12 13  1  0
 12 14  2  0
 14 15  1  0
 14 16  1  0
 16 17  1  0
  9 18  1  0
 18 19  1  0
 18 20  2  0
 20 21  1  0
 21 22  1  0
 22 23  1  0
 22  3  1  0
 20  4  1  0
 16 10  2  0
M  CHG  1  21  -1
M  END
>  <UniqueID>  (46) 
42

>  <SMILES>  (46) 
[H]/N=c1/[nH][n-]c2cc(-c3cccs3)ccc12

>  <Energy>  (46) 
94.13541273651457

>  <Genealogy>  (46) 
N=c1[nH][n-]c2cc(-c3cccs3)ccc12 (protonated)
[H]/N=c1/[nH][n-]c2cc(-c3cccs3)ccc12 (cis-trans isomerization)
[H]/N=c1/[nH][n-]c2cc(-c3cccs3)ccc12 (3D coordinates assigned)
[H]/N=c1/[nH][n-]c2cc(-c3cccs3)ccc12 (optimized conformer: 94.13541273651457 kcal/mol)

>  <smiles>  (46) 
N=c1[nH][nH]c2cc(-c3cccs3)ccc12

>  <score_type>  (46) 
oracle

>  <origin>  (46) 
adg

>  <m_score__min__energy>  (46) 
-7.9000000000000004

>  <m_primary>  (46) 
energy

$$$$
46:0
     RDKit          3D

 51 54  0  0  0  0  0  0  0  0999 V2000
   56.2360   30.5270   44.7450 O   0  0  0  0  0  0  0  0  0  0  0  0
   57.4120   30.6510   45.1840 C   0  0  0  0  0  0  0  0  0  0  0  0
   58.1720   29.4900   45.5450 N   0  0  0  0  0  0  0  0  0  0  0  0
   57.8980   28.1340   45.1630 C   0  0  0  0  0  0  0  0  0  0  0  0
   57.4260   27.2450   46.1350 C   0  0  0  0  0  0  0  0  0  0  0  0
   57.1680   25.9110   45.8120 C   0  0  0  0  0  0  0  0  0  0  0  0
   57.3960   25.4370   44.5110 C   0  0  0  0  0  0  0  0  0  0  0  0
   57.1250   24.0610   44.1820 N   0  0  0  0  0  0  0  0  0  0  0  0
   57.7410   22.9800   44.9570 C   0  0  0  0  0  0  0  0  0  0  0  0
   57.8850   21.7330   44.0780 C   0  0  0  0  0  0  0  0  0  0  0  0
   56.6490   21.3950   43.4780 O   0  0  0  0  0  0  0  0  0  0  0  0
   56.2520   22.4200   42.5850 C   0  0  0  0  0  0  0  0  0  0  0  0
   55.9730   23.7220   43.3410 C   0  0  0  0  0  0  0  0  0  0  0  0
   57.8900   26.3230   43.5390 C   0  0  0  0  0  0  0  0  0  0  0  0
   58.1470   27.6590   43.8630 C   0  0  0  0  0  0  0  0  0  0  0  0
   57.9890   32.0030   45.3740 C   0  0  0  0  0  0  0  0  0  0  0  0
   57.9440   32.9520   44.3440 C   0  0  0  0  0  0  0  0  0  0  0  0
   58.5010   34.2140   44.5310 C   0  0  0  0  0  0  0  0  0  0  0  0
   59.1050   34.5310   45.7490 C   0  0  0  0  0  0  0  0  0  0  0  0
   59.6120   35.6760   45.8990 O   0  0  0  0  0  0  0  0  0  0  0  0
   59.1440   33.6070   46.7640 N   0  0  0  0  0  0  0  0  0  0  0  0
   59.8110   33.9140   48.0410 C   0  0  0  0  0  0  0  0  0  0  0  0
   61.2630   33.5190   47.9780 C   0  0  0  0  0  0  0  0  0  0  0  0
   62.0280   33.8160   46.8370 C   0  0  0  0  0  0  0  0  0  0  0  0
   63.3850   33.4830   46.7930 C   0  0  0  0  0  0  0  0  0  0  0  0
   63.9890   32.8600   47.8890 C   0  0  0  0  0  0  0  0  0  0  0  0
   63.2370   32.5700   49.0300 C   0  0  0  0  0  0  0  0  0  0  0  0
   61.8800   32.9000   49.0780 C   0  0  0  0  0  0  0  0  0  0  0  0
   58.6040   32.3610   46.5860 C   0  0  0  0  0  0  0  0  0  0  0  0
   57.2567   27.5999   47.1623 H   0  0  0  0  0  0  0  0  0  0  0  0
   56.7834   25.2270   46.5828 H   0  0  0  0  0  0  0  0  0  0  0  0
   58.7346   23.2993   45.3046 H   0  0  0  0  0  0  0  0  0  0  0  0
   57.1054   22.7442   45.8232 H   0  0  0  0  0  0  0  0  0  0  0  0
   58.6261   21.9312   43.2897 H   0  0  0  0  0  0  0  0  0  0  0  0
   58.2117   20.8932   44.7088 H   0  0  0  0  0  0  0  0  0  0  0  0
   57.0556   22.5926   41.8539 H   0  0  0  0  0  0  0  0  0  0  0  0
   55.3304   22.1048   42.0738 H   0  0  0  0  0  0  0  0  0  0  0  0
   55.7956   24.5331   42.6194 H   0  0  0  0  0  0  0  0  0  0  0  0
   55.0841   23.5917   43.9757 H   0  0  0  0  0  0  0  0  0  0  0  0
   58.0759   25.9635   42.5162 H   0  0  0  0  0  0  0  0  0  0  0  0
   58.5456   28.3412   43.0977 H   0  0  0  0  0  0  0  0  0  0  0  0
   57.4674   32.6992   43.3854 H   0  0  0  0  0  0  0  0  0  0  0  0
   58.4653   34.9586   43.7221 H   0  0  0  0  0  0  0  0  0  0  0  0
   59.7364   34.9934   48.2395 H   0  0  0  0  0  0  0  0  0  0  0  0
   59.3201   33.3489   48.8471 H   0  0  0  0  0  0  0  0  0  0  0  0
   61.5573   34.3123   45.9755 H   0  0  0  0  0  0  0  0  0  0  0  0
   63.9780   33.7114   45.8951 H   0  0  0  0  0  0  0  0  0  0  0  0
   65.0567   32.5980   47.8530 H   0  0  0  0  0  0  0  0  0  0  0  0
   63.7139   32.0810   49.8922 H   0  0  0  0  0  0  0  0  0  0  0  0
   61.2927   32.6743   49.9803 H   0  0  0  0  0  0  0  0  0  0  0  0
   58.6524   31.6284   47.4051 H   0  0  0  0  0  0  0  0  0  0  0  0
  1  2  2  0
  2  3  1  0
  3  4  1  0
  4  5  2  0
  5  6  1  0
  6  7  2  0
  7  8  1  0
  8  9  1  0
  9 10  1  0
 10 11  1  0
 11 12  1  0
 12 13  1  0
  7 14  1  0
 14 15  2  0
  2 16  1  0
 16 17  1  0
 17 18  2  0
 18 19  1  0
 19 20  2  0
 19 21  1  0
 21 22  1  0
 22 23  1  0
 23 24  2  0
 24 25  1  0
 25 26  2  0
 26 27  1  0
 27 28  2  0
 21 29  1  0
 15  4  1  0
 29 16  2  0
 13  8  1  0
 28 23  1  0
  5 30  1  0
  6 31  1  0
  9 32  1  0
  9 33  1  0
 10 34  1  0
 10 35  1  0
 12 36  1  0
 12 37  1  0
 13 38  1  0
 13 39  1  0
 14 40  1  0
 15 41  1  0
 17 42  1  0
 18 43  1  0
 22 44  1  0
 22 45  1  0
 24 46  1  0
 25 47  1  0
 26 48  1  0
 27 49  1  0
 28 50  1  0
 29 51  1  0
M  CHG  1   3  -1
M  END
>  <UniqueID>  (47) 
43

>  <SMILES>  (47) 
O=C([N-]c1ccc(N2CCOCC2)cc1)c1ccc(=O)n(Cc2ccccc2)c1

>  <Energy>  (47) 
65.71982892492241

>  <Genealogy>  (47) 
O=C([N-]c1ccc(N2CCOCC2)cc1)c1ccc(=O)n(Cc2ccccc2)c1 (protonated)
O=C([N-]c1ccc(N2CCOCC2)cc1)c1ccc(=O)n(Cc2ccccc2)c1 (3D coordinates assigned)
O=C([N-]c1ccc(N2CCOCC2)cc1)c1ccc(=O)n(Cc2ccccc2)c1 (nonaromatic ring conformer: 65.71982892492241 kcal/mol)

>  <smiles>  (47) 
O=C(Nc1ccc(N2CCOCC2)cc1)c1ccc(=O)n(Cc2ccccc2)c1

>  <score_type>  (47) 
oracle

>  <origin>  (47) 
adg

>  <m_score__min__energy>  (47) 
-10.74

>  <m_primary>  (47) 
energy

$$$$
47:0
     RDKit          3D

 39 41  0  0  0  0  0  0  0  0999 V2000
   64.8200   33.0610   49.3960 C   0  0  0  0  0  0  0  0  0  0  0  0
   63.5200   33.3020   48.6880 C   0  0  0  0  0  0  0  0  0  0  0  0
   63.4430   33.2330   47.2880 C   0  0  0  0  0  0  0  0  0  0  0  0
   62.2350   33.4900   46.6340 C   0  0  0  0  0  0  0  0  0  0  0  0
   61.0910   33.8230   47.3690 C   0  0  0  0  0  0  0  0  0  0  0  0
   59.5830   34.1490   46.5210 S   0  0  0  0  0  0  0  0  0  0  0  0
   58.9060   35.3200   47.1780 O   0  0  0  0  0  0  0  0  0  0  0  0
   59.8300   34.4840   45.0750 O   0  0  0  0  0  0  0  0  0  0  0  0
   58.5440   32.7630   46.6300 N   0  0  0  0  0  0  0  0  0  0  0  0
   58.1400   31.9290   45.5320 C   0  0  0  0  0  0  0  0  0  0  0  0
   57.7900   32.4860   44.2890 C   0  0  0  0  0  0  0  0  0  0  0  0
   57.3940   31.6670   43.2370 C   0  0  0  0  0  0  0  0  0  0  0  0
   57.3100   30.2880   43.4110 C   0  0  0  0  0  0  0  0  0  0  0  0
   57.6310   29.7020   44.6470 C   0  0  0  0  0  0  0  0  0  0  0  0
   57.4660   28.2350   44.7840 C   0  0  0  0  0  0  0  0  0  0  0  0
   58.2170   27.3030   44.0650 C   0  0  0  0  0  0  0  0  0  0  0  0
   57.7410   25.7530   44.5410 S   0  0  0  0  0  0  0  0  0  0  0  0
   56.6230   26.3340   45.6470 C   0  0  0  0  0  0  0  0  0  0  0  0
   55.8890   25.6080   46.3710 O   0  0  0  0  0  0  0  0  0  0  0  0
   56.5930   27.6840   45.6750 N   0  0  0  0  0  0  0  0  0  0  0  0
   58.0960   30.5240   45.7090 C   0  0  0  0  0  0  0  0  0  0  0  0
   58.5480   29.9260   47.0220 C   0  0  0  0  0  0  0  0  0  0  0  0
   61.1660   33.9030   48.7670 C   0  0  0  0  0  0  0  0  0  0  0  0
   62.3770   33.6500   49.4230 C   0  0  0  0  0  0  0  0  0  0  0  0
   64.6564   33.0913   50.4833 H   0  0  0  0  0  0  0  0  0  0  0  0
   65.2148   32.0744   49.1120 H   0  0  0  0  0  0  0  0  0  0  0  0
   65.5422   33.8406   49.1120 H   0  0  0  0  0  0  0  0  0  0  0  0
   64.3381   32.9753   46.7028 H   0  0  0  0  0  0  0  0  0  0  0  0
   62.1828   33.4304   45.5369 H   0  0  0  0  0  0  0  0  0  0  0  0
   57.8297   33.5762   44.1479 H   0  0  0  0  0  0  0  0  0  0  0  0
   57.1457   32.1112   42.2618 H   0  0  0  0  0  0  0  0  0  0  0  0
   56.9894   29.6516   42.5731 H   0  0  0  0  0  0  0  0  0  0  0  0
   58.9876   27.5378   43.3160 H   0  0  0  0  0  0  0  0  0  0  0  0
   55.9590   28.2360   46.2960 H   0  0  0  0  0  0  0  0  0  0  0  0
   58.1145   30.4995   47.8546 H   0  0  0  0  0  0  0  0  0  0  0  0
   58.2127   28.8802   47.0833 H   0  0  0  0  0  0  0  0  0  0  0  0
   59.6457   29.9633   47.0833 H   0  0  0  0  0  0  0  0  0  0  0  0
   60.2709   34.1653   49.3501 H   0  0  0  0  0  0  0  0  0  0  0  0
   62.4322   33.7245   50.5191 H   0  0  0  0  0  0  0  0  0  0  0  0
  1  2  1  0
  2  3  2  0
  3  4  1  0
  4  5  2  0
  5  6  1  0
  6  7  2  0
  6  8  2  0
  6  9  1  0
  9 10  1  0
 10 11  2  0
 11 12  1  0
 12 13  2  0
 13 14  1  0
 14 15  1  0
 15 16  2  0
 16 17  1  0
 17 18  1  0
 18 19  2  0
 18 20  1  0
 14 21  2  0
 21 22  1  0
  5 23  1  0
 23 24  2  0
 24  2  1  0
 21 10  1  0
 20 15  1  0
  1 25  1  0
  1 26  1  0
  1 27  1  0
  3 28  1  0
  4 29  1  0
 11 30  1  0
 12 31  1  0
 13 32  1  0
 16 33  1  0
 20 34  1  0
 22 35  1  0
 22 36  1  0
 22 37  1  0
 23 38  1  0
 24 39  1  0
M  CHG  1   9  -1
M  END
>  <UniqueID>  (48) 
44

>  <SMILES>  (48) 
Cc1ccc(S(=O)(=O)[N-]c2cccc(-c3csc(=O)[nH]3)c2C)cc1

>  <Energy>  (48) 
81.93476602223159

>  <Genealogy>  (48) 
Cc1ccc(S(=O)(=O)[N-]c2cccc(-c3csc(=O)[nH]3)c2C)cc1 (protonated)
Cc1ccc(S(=O)(=O)[N-]c2cccc(-c3csc(=O)[nH]3)c2C)cc1 (3D coordinates assigned)
Cc1ccc(S(=O)(=O)[N-]c2cccc(-c3csc(=O)[nH]3)c2C)cc1 (optimized conformer: 81.93476602223159 kcal/mol)

>  <smiles>  (48) 
Cc1ccc(S(=O)(=O)Nc2cccc(-c3csc(=O)[nH]3)c2C)cc1

>  <score_type>  (48) 
oracle

>  <origin>  (48) 
adg

>  <m_score__min__energy>  (48) 
-10.32

>  <m_primary>  (48) 
energy

$$$$
48:0
     RDKit          3D

 42 44  0  0  0  0  0  0  0  0999 V2000
   59.2750   35.3560   44.8840 C   0  0  0  0  0  0  0  0  0  0  0  0
   59.4200   34.2070   44.0560 O   0  0  0  0  0  0  0  0  0  0  0  0
   58.5480   33.1050   44.0520 C   0  0  0  0  0  0  0  0  0  0  0  0
   58.0920   32.5390   42.8470 C   0  0  0  0  0  0  0  0  0  0  0  0
   57.2510   31.4260   42.8550 C   0  0  0  0  0  0  0  0  0  0  0  0
   56.8530   30.8460   44.0650 C   0  0  0  0  0  0  0  0  0  0  0  0
   55.9730   29.6520   44.0620 C   0  0  0  0  0  0  0  0  0  0  0  0
   55.2110   29.4500   43.0800 O   0  0  0  0  0  0  0  0  0  0  0  0
   55.9230   28.7390   45.1680 N   0  0  0  0  0  0  0  0  0  0  0  0
   57.0460   28.0930   45.7870 C   0  0  0  0  0  0  0  0  0  0  0  0
   57.0050   26.7090   45.9860 C   0  0  0  0  0  0  0  0  0  0  0  0
   58.0760   26.0520   46.5960 C   0  0  0  0  0  0  0  0  0  0  0  0
   59.2050   26.7700   46.9940 C   0  0  0  0  0  0  0  0  0  0  0  0
   59.2840   28.1540   46.7590 C   0  0  0  0  0  0  0  0  0  0  0  0
   60.4260   28.9220   47.1750 N   0  0  0  0  0  0  0  0  0  0  0  0
   60.3390   30.1730   47.8770 C   0  0  0  0  0  0  0  0  0  0  0  0
   59.2690   30.5000   48.4580 O   0  0  0  0  0  0  0  0  0  0  0  0
   61.5020   31.0710   47.9720 C   0  0  0  0  0  0  0  0  0  0  0  0
   61.7090   32.0570   48.9190 C   0  0  0  0  0  0  0  0  0  0  0  0
   62.9270   32.6210   48.6080 C   0  0  0  0  0  0  0  0  0  0  0  0
   63.3890   31.9480   47.4960 C   0  0  0  0  0  0  0  0  0  0  0  0
   62.5190   31.0310   47.1420 O   0  0  0  0  0  0  0  0  0  0  0  0
   58.1970   28.8090   46.1590 C   0  0  0  0  0  0  0  0  0  0  0  0
   57.2790   31.4230   45.2720 C   0  0  0  0  0  0  0  0  0  0  0  0
   58.1280   32.5470   45.2820 C   0  0  0  0  0  0  0  0  0  0  0  0
   58.5550   33.1040   46.5430 N   0  0  0  0  0  0  0  0  0  0  0  0
   57.7130   33.4530   47.3960 O   0  0  0  0  0  0  0  0  0  0  0  0
   59.8870   33.3140   46.8140 O   0  0  0  0  0  0  0  0  0  0  0  0
   59.3132   35.0535   45.9409 H   0  0  0  0  0  0  0  0  0  0  0  0
   60.0910   36.0636   44.6754 H   0  0  0  0  0  0  0  0  0  0  0  0
   58.3088   35.8387   44.6754 H   0  0  0  0  0  0  0  0  0  0  0  0
   58.4022   32.9792   41.8878 H   0  0  0  0  0  0  0  0  0  0  0  0
   56.8982   31.0012   41.9036 H   0  0  0  0  0  0  0  0  0  0  0  0
   56.1248   26.1352   45.6604 H   0  0  0  0  0  0  0  0  0  0  0  0
   58.0297   24.9658   46.7632 H   0  0  0  0  0  0  0  0  0  0  0  0
   60.0363   26.2509   47.4935 H   0  0  0  0  0  0  0  0  0  0  0  0
   61.3720   28.4970   47.0400 H   0  0  0  0  0  0  0  0  0  0  0  0
   61.0407   32.3335   49.7478 H   0  0  0  0  0  0  0  0  0  0  0  0
   63.4298   33.4425   49.1394 H   0  0  0  0  0  0  0  0  0  0  0  0
   64.3415   32.1492   46.9839 H   0  0  0  0  0  0  0  0  0  0  0  0
   58.2464   29.8929   45.9782 H   0  0  0  0  0  0  0  0  0  0  0  0
   56.9441   30.9900   46.2261 H   0  0  0  0  0  0  0  0  0  0  0  0
  1  2  1  0
  2  3  1  0
  3  4  2  0
  4  5  1  0
  5  6  2  0
  6  7  1  0
  7  8  2  0
  7  9  1  0
  9 10  1  0
 10 11  2  0
 11 12  1  0
 12 13  2  0
 13 14  1  0
 14 15  1  0
 15 16  1  0
 16 17  2  0
 16 18  1  0
 18 19  2  0
 19 20  1  0
 20 21  2  0
 21 22  1  0
 14 23  2  0
  6 24  1  0
 24 25  2  0
 25 26  1  0
 26 27  2  0
 26 28  1  0
 25  3  1  0
 23 10  1  0
 22 18  1  0
  1 29  1  0
  1 30  1  0
  1 31  1  0
  4 32  1  0
  5 33  1  0
 11 34  1  0
 12 35  1  0
 13 36  1  0
 15 37  1  0
 19 38  1  0
 20 39  1  0
 21 40  1  0
 23 41  1  0
 24 42  1  0
M  CHG  3   9  -1  26   1  28  -1
M  END
>  <UniqueID>  (49) 
45

>  <SMILES>  (49) 
COc1ccc(C(=O)[N-]c2cccc(NC(=O)c3ccco3)c2)cc1[N+](=O)[O-]

>  <Energy>  (49) 
82.59629328419854

>  <Genealogy>  (49) 
COc1ccc(C(=O)[N-]c2cccc(NC(=O)c3ccco3)c2)cc1[N+](=O)[O-] (protonated)
COc1ccc(C(=O)[N-]c2cccc(NC(=O)c3ccco3)c2)cc1[N+](=O)[O-] (3D coordinates assigned)
COc1ccc(C(=O)[N-]c2cccc(NC(=O)c3ccco3)c2)cc1[N+](=O)[O-] (optimized conformer: 82.59629328419854 kcal/mol)

>  <smiles>  (49) 
COc1ccc(C(=O)Nc2cccc(NC(=O)c3ccco3)c2)cc1[N+](=O)[O-]

>  <score_type>  (49) 
oracle

>  <origin>  (49) 
adg

>  <m_score__min__energy>  (49) 
-9.7400000000000002

>  <m_primary>  (49) 
energy

$$$$
49:0
     RDKit          3D

 36 38  0  0  0  0  0  0  0  0999 V2000
   57.3426   20.9047   42.7554 H   0  0  0  0  0  0  0  0  0  0  0  0
   56.9120   21.7810   43.2620 C   0  0  0  0  0  0  0  0  0  0  0  0
   56.6270   22.9180   42.6520 C   0  0  0  0  0  0  0  0  0  0  0  0
   56.7956   23.0970   41.5798 H   0  0  0  0  0  0  0  0  0  0  0  0
   56.0530   23.9270   43.5790 C   0  0  0  0  0  0  0  0  0  0  0  0
   56.7584   24.7552   43.7418 H   0  0  0  0  0  0  0  0  0  0  0  0
   55.1322   24.3859   43.1898 H   0  0  0  0  0  0  0  0  0  0  0  0
   55.8210   23.1430   44.8790 C   0  0  0  0  0  0  0  0  0  0  0  0
   54.7492   22.9608   45.0463 H   0  0  0  0  0  0  0  0  0  0  0  0
   56.3440   24.0580   46.3310 S   0  0  0  0  0  0  0  0  0  0  0  0
   55.1610   24.3400   47.2150 O   0  0  0  0  0  0  0  0  0  0  0  0
   57.3160   23.2220   47.1170 O   0  0  0  0  0  0  0  0  0  0  0  0
   57.1530   25.5520   45.8050 C   0  0  0  0  0  0  0  0  0  0  0  0
   56.3870   26.7310   45.7030 C   0  0  0  0  0  0  0  0  0  0  0  0
   55.0220   26.7090   45.9760 O   0  0  0  0  0  0  0  0  0  0  0  0
   56.9880   27.9470   45.3540 C   0  0  0  0  0  0  0  0  0  0  0  0
   56.1840   29.1350   45.2920 N   0  0  0  0  0  0  0  0  0  0  0  0
   56.1790   30.0780   44.2120 C   0  0  0  0  0  0  0  0  0  0  0  0
   56.0830   29.6520   43.0320 O   0  0  0  0  0  0  0  0  0  0  0  0
   56.2860   31.4920   44.4350 N   0  0  0  0  0  0  0  0  0  0  0  0
   57.2440   32.0810   45.0880 C   0  0  0  0  0  0  0  0  0  0  0  0
   57.2210   33.3790   45.4670 N   0  0  0  0  0  0  0  0  0  0  0  0
   58.3620   33.7260   46.1220 C   0  0  0  0  0  0  0  0  0  0  0  0
   58.5315   34.7382   46.5178 H   0  0  0  0  0  0  0  0  0  0  0  0
   59.2980   32.7060   46.2540 C   0  0  0  0  0  0  0  0  0  0  0  0
   60.2768   32.7886   46.7491 H   0  0  0  0  0  0  0  0  0  0  0  0
   58.6740   31.3230   45.5250 S   0  0  0  0  0  0  0  0  0  0  0  0
   58.3600   27.9850   45.0730 C   0  0  0  0  0  0  0  0  0  0  0  0
   58.8313   28.9316   44.7699 H   0  0  0  0  0  0  0  0  0  0  0  0
   59.1290   26.8290   45.1760 C   0  0  0  0  0  0  0  0  0  0  0  0
   60.2068   26.8713   44.9600 H   0  0  0  0  0  0  0  0  0  0  0  0
   58.5460   25.6150   45.5510 C   0  0  0  0  0  0  0  0  0  0  0  0
   59.6200   24.2300   45.7000 Cl  0  0  0  0  0  0  0  0  0  0  0  0
   56.5840   21.8220   44.7110 C   0  0  0  0  0  0  0  0  0  0  0  0
   57.5001   21.8189   45.3200 H   0  0  0  0  0  0  0  0  0  0  0  0
   55.9995   20.9497   45.0387 H   0  0  0  0  0  0  0  0  0  0  0  0
  1  2  1  0
  2  3  2  0
  3  4  1  0
  3  5  1  0
  5  6  1  0
  5  7  1  0
  5  8  1  0
  8  9  1  0
  8 10  1  0
 10 11  2  0
 10 12  2  0
 10 13  1  0
 13 14  2  0
 14 15  1  0
 14 16  1  0
 16 17  1  0
 17 18  1  0
 18 19  2  0
 18 20  1  0
 20 21  2  0
 21 22  1  0
 22 23  1  0
 23 24  1  0
 23 25  2  0
 25 26  1  0
 25 27  1  0
 16 28  2  0
 28 29  1  0
 28 30  1  0
 30 31  1  0
 30 32  2  0
 32 33  1  0
  8 34  1  0
 34 35  1  0
 34 36  1  0
 34  2  1  0
 32 13  1  0
 27 21  1  0
M  CHG  3  15  -1  17  -1  22  -1
M  END
>  <UniqueID>  (50) 
46

>  <SMILES>  (50) 
O=C(/N=c1\[n-]ccs1)[N-]c1ccc(Cl)c(S(=O)(=O)C2CC=CC2)c1[O-]

>  <Energy>  (50) 
81.38053319858157

>  <Genealogy>  (50) 
O=C(N=c1[n-]ccs1)[N-]c1ccc(Cl)c(S(=O)(=O)C2CC=CC2)c1[O-] (protonated)
O=C(/N=c1\[n-]ccs1)[N-]c1ccc(Cl)c(S(=O)(=O)C2CC=CC2)c1[O-] (cis-trans isomerization)
O=C(/N=c1\[n-]ccs1)[N-]c1ccc(Cl)c(S(=O)(=O)C2CC=CC2)c1[O-] (3D coordinates assigned)
O=C(/N=c1\[n-]ccs1)[N-]c1ccc(Cl)c(S(=O)(=O)C2CC=CC2)c1[O-] (nonaromatic ring conformer: 81.38053319858157 kcal/mol)

>  <smiles>  (50) 
O=C(N=c1[nH]ccs1)Nc1ccc(Cl)c(S(=O)(=O)C2CC=CC2)c1O

>  <score_type>  (50) 
oracle

>  <origin>  (50) 
adg

>  <m_score__min__energy>  (50) 
-15.82

>  <m_primary>  (50) 
energy

$$$$
50:0
     RDKit          3D

 66 71  0  0  0  0  0  0  0  0999 V2000
   61.4999   27.1871   47.9568 H   0  0  0  0  0  0  0  0  0  0  0  0
   60.5490   27.6400   48.2740 C   0  0  0  0  0  0  0  0  0  0  0  0
   60.5650   28.3410   49.4280 C   0  0  0  0  0  0  0  0  0  0  0  0
   61.3910   27.9510   50.5960 C   0  0  0  0  0  0  0  0  0  0  0  0
   62.0930   28.9190   51.3390 C   0  0  0  0  0  0  0  0  0  0  0  0
   62.0291   29.9800   51.0557 H   0  0  0  0  0  0  0  0  0  0  0  0
   62.8720   28.5360   52.4370 C   0  0  0  0  0  0  0  0  0  0  0  0
   63.4325   29.2941   53.0036 H   0  0  0  0  0  0  0  0  0  0  0  0
   62.9390   27.1910   52.8150 C   0  0  0  0  0  0  0  0  0  0  0  0
   63.5604   26.8906   53.6715 H   0  0  0  0  0  0  0  0  0  0  0  0
   62.2150   26.2270   52.1030 C   0  0  0  0  0  0  0  0  0  0  0  0
   62.2560   25.1715   52.4099 H   0  0  0  0  0  0  0  0  0  0  0  0
   61.4390   26.6050   51.0010 C   0  0  0  0  0  0  0  0  0  0  0  0
   60.8644   25.8462   50.4495 H   0  0  0  0  0  0  0  0  0  0  0  0
   59.7660   29.5890   49.5290 C   0  0  0  0  0  0  0  0  0  0  0  0
   59.0050   29.8440   50.6860 C   0  0  0  0  0  0  0  0  0  0  0  0
   59.0151   29.1236   51.5172 H   0  0  0  0  0  0  0  0  0  0  0  0
   58.2360   31.0090   50.7840 C   0  0  0  0  0  0  0  0  0  0  0  0
   57.6495   31.2049   51.6937 H   0  0  0  0  0  0  0  0  0  0  0  0
   58.2120   31.9230   49.7290 C   0  0  0  0  0  0  0  0  0  0  0  0
   57.6045   32.8367   49.8071 H   0  0  0  0  0  0  0  0  0  0  0  0
   58.9590   31.6780   48.5740 C   0  0  0  0  0  0  0  0  0  0  0  0
   58.9436   32.4032   47.7470 H   0  0  0  0  0  0  0  0  0  0  0  0
   59.7260   30.5140   48.4660 C   0  0  0  0  0  0  0  0  0  0  0  0
   60.4000   30.2770   47.3100 F   0  0  0  0  0  0  0  0  0  0  0  0
   59.3800   27.4200   47.3930 C   0  0  0  0  0  0  0  0  0  0  0  0
   59.1900   28.1140   46.2940 O   0  0  0  0  0  0  0  0  0  0  0  0
   58.0510   27.7530   45.7450 C   0  0  0  0  0  0  0  0  0  0  0  0
   57.4970   28.3570   44.4880 C   0  0  0  0  0  0  0  0  0  0  0  0
   58.2936   28.9165   43.9758 H   0  0  0  0  0  0  0  0  0  0  0  0
   57.1216   27.5474   43.8449 H   0  0  0  0  0  0  0  0  0  0  0  0
   56.1120   29.4950   44.8650 S   0  0  0  0  0  0  0  0  0  0  0  0
   57.0190   30.9890   44.4520 C   0  0  0  0  0  0  0  0  0  0  0  0
   57.4670   31.1880   43.1420 C   0  0  0  0  0  0  0  0  0  0  0  0
   57.2559   30.4345   42.3690 H   0  0  0  0  0  0  0  0  0  0  0  0
   58.1820   32.3420   42.8140 C   0  0  0  0  0  0  0  0  0  0  0  0
   58.5379   32.4939   41.7843 H   0  0  0  0  0  0  0  0  0  0  0  0
   58.4460   33.3050   43.7940 C   0  0  0  0  0  0  0  0  0  0  0  0
   59.0038   34.2159   43.5312 H   0  0  0  0  0  0  0  0  0  0  0  0
   58.0000   33.1120   45.1160 C   0  0  0  0  0  0  0  0  0  0  0  0
   58.1930   34.1120   46.1290 N   0  0  0  0  0  0  0  0  0  0  0  0
   59.4170   34.8030   46.4020 C   0  0  0  0  0  0  0  0  0  0  0  0
   59.8250   35.7070   45.6240 O   0  0  0  0  0  0  0  0  0  0  0  0
   60.2230   34.4170   47.5750 C   0  0  0  0  0  0  0  0  0  0  0  0
   59.8560   34.5880   48.9090 C   0  0  0  0  0  0  0  0  0  0  0  0
   58.8893   34.9896   49.2470 H   0  0  0  0  0  0  0  0  0  0  0  0
   60.8550   34.1910   49.7290 N   0  0  0  0  0  0  0  0  0  0  0  0
   60.8560   34.2240   50.7710 H   0  0  0  0  0  0  0  0  0  0  0  0
   61.8510   33.7740   48.9300 C   0  0  0  0  0  0  0  0  0  0  0  0
   63.1030   33.3020   49.3240 C   0  0  0  0  0  0  0  0  0  0  0  0
   63.3616   33.2010   50.3884 H   0  0  0  0  0  0  0  0  0  0  0  0
   64.0250   32.9590   48.3180 C   0  0  0  0  0  0  0  0  0  0  0  0
   65.0278   32.6014   48.5945 H   0  0  0  0  0  0  0  0  0  0  0  0
   63.6710   33.0710   46.9560 C   0  0  0  0  0  0  0  0  0  0  0  0
   64.3923   32.7788   46.1786 H   0  0  0  0  0  0  0  0  0  0  0  0
   62.4040   33.5530   46.5860 C   0  0  0  0  0  0  0  0  0  0  0  0
   62.1238   33.6561   45.5273 H   0  0  0  0  0  0  0  0  0  0  0  0
   61.5090   33.8980   47.6060 C   0  0  0  0  0  0  0  0  0  0  0  0
   57.2750   31.9540   45.4340 C   0  0  0  0  0  0  0  0  0  0  0  0
   56.9059   31.8033   46.4592 H   0  0  0  0  0  0  0  0  0  0  0  0
   57.4630   26.7630   46.5200 C   0  0  0  0  0  0  0  0  0  0  0  0
   56.1890   26.0620   46.2910 C   0  0  0  0  0  0  0  0  0  0  0  0
   55.1560   26.7180   45.9910 O   0  0  0  0  0  0  0  0  0  0  0  0
   56.1040   24.6830   46.4090 O   0  0  0  0  0  0  0  0  0  0  0  0
   58.3080   26.5640   47.5940 C   0  0  0  0  0  0  0  0  0  0  0  0
   58.1610   25.8701   48.4348 H   0  0  0  0  0  0  0  0  0  0  0  0
  1  2  1  0
  2  3  2  0
  3  4  1  0
  4  5  2  0
  5  6  1  0
  5  7  1  0
  7  8  1  0
  7  9  2  0
  9 10  1  0
  9 11  1  0
 11 12  1  0
 11 13  2  0
 13 14  1  0
  3 15  1  0
 15 16  2  0
 16 17  1  0
 16 18  1  0
 18 19  1  0
 18 20  2  0
 20 21  1  0
 20 22  1  0
 22 23  1  0
 22 24  2  0
 24 25  1  0
  2 26  1  0
 26 27  1  0
 27 28  1  0
 28 29  1  0
 29 30  1  0
 29 31  1  0
 29 32  1  0
 32 33  1  0
 33 34  2  0
 34 35  1  0
 34 36  1  0
 36 37  1  0
 36 38  2  0
 38 39  1  0
 38 40  1  0
 40 41  1  0
 41 42  1  0
 42 43  2  0
 42 44  1  0
 44 45  2  0
 45 46  1  0
 45 47  1  0
 47 48  1  0
 47 49  1  0
 49 50  2  0
 50 51  1  0
 50 52  1  0
 52 53  1  0
 52 54  2  0
 54 55  1  0
 54 56  1  0
 56 57  1  0
 56 58  2  0
 40 59  2  0
 59 60  1  0
 28 61  2  0
 61 62  1  0
 62 63  2  0
 62 64  1  0
 61 65  1  0
 65 66  1  0
 13  4  1  0
 24 15  1  0
 65 26  2  0
 59 33  1  0
 58 44  1  0
 58 49  1  0
M  CHG  2  41  -1  64  -1
M  END
>  <UniqueID>  (51) 
47

>  <SMILES>  (51) 
O=C([O-])c1cc(/C=C(\c2ccccc2)c2ccccc2F)oc1CSc1cccc([N-]C(=O)c2c[nH]c3ccccc23)c1

>  <Energy>  (51) 
151.1614839503686

>  <Genealogy>  (51) 
O=C([O-])c1cc(C=C(c2ccccc2)c2ccccc2F)oc1CSc1cccc([N-]C(=O)c2c[nH]c3ccccc23)c1 (protonated)
O=C([O-])c1cc(/C=C(\c2ccccc2)c2ccccc2F)oc1CSc1cccc([N-]C(=O)c2c[nH]c3ccccc23)c1 (cis-trans isomerization)
O=C([O-])c1cc(/C=C(\c2ccccc2)c2ccccc2F)oc1CSc1cccc([N-]C(=O)c2c[nH]c3ccccc23)c1 (3D coordinates assigned)
O=C([O-])c1cc(/C=C(\c2ccccc2)c2ccccc2F)oc1CSc1cccc([N-]C(=O)c2c[nH]c3ccccc23)c1 (optimized conformer: 151.1614839503686 kcal/mol)

>  <smiles>  (51) 
O=C(O)c1cc(C=C(c2ccccc2)c2ccccc2F)oc1CSc1cccc(NC(=O)c2c[nH]c3ccccc23)c1

>  <score_type>  (51) 
oracle

>  <origin>  (51) 
adg

>  <m_score__min__energy>  (51) 
-14.609999999999999

>  <m_primary>  (51) 
energy

$$$$
51:0
     RDKit          3D

 34 36  0  0  0  0  0  0  0  0999 V2000
   59.7120   29.7370   46.9950 C   0  0  0  0  0  0  0  0  0  0  0  0
   58.4300   29.2170   46.8020 C   0  0  0  0  0  0  0  0  0  0  0  0
   58.1290   28.5460   45.6080 C   0  0  0  0  0  0  0  0  0  0  0  0
   56.7560   27.9590   45.3830 C   0  0  0  0  0  0  0  0  0  0  0  0
   55.7160   28.9930   45.2390 N   0  0  0  0  0  0  0  0  0  0  0  0
   55.6680   29.5860   43.8930 C   0  0  0  0  0  0  0  0  0  0  0  0
   56.5800   30.7710   43.7950 C   0  0  0  0  0  0  0  0  0  0  0  0
   57.1010   31.2320   42.5900 C   0  0  0  0  0  0  0  0  0  0  0  0
   58.1080   32.5310   42.9360 S   0  0  0  0  0  0  0  0  0  0  0  0
   57.8460   32.4520   44.6000 C   0  0  0  0  0  0  0  0  0  0  0  0
   58.4560   33.3370   45.6190 C   0  0  0  0  0  0  0  0  0  0  0  0
   59.0960   34.5330   45.2530 C   0  0  0  0  0  0  0  0  0  0  0  0
   59.6620   35.3440   46.2390 C   0  0  0  0  0  0  0  0  0  0  0  0
   59.5960   34.9780   47.5460 N   0  0  0  0  0  0  0  0  0  0  0  0
   58.9850   33.8270   47.9330 C   0  0  0  0  0  0  0  0  0  0  0  0
   58.4050   32.9870   46.9790 C   0  0  0  0  0  0  0  0  0  0  0  0
   56.9980   31.4440   44.9020 N   0  0  0  0  0  0  0  0  0  0  0  0
   59.1260   28.4130   44.6300 C   0  0  0  0  0  0  0  0  0  0  0  0
   60.3940   28.9500   44.8630 C   0  0  0  0  0  0  0  0  0  0  0  0
   60.6590   29.5940   46.0310 N   0  0  0  0  0  0  0  0  0  0  0  0
   59.9556   30.2635   47.9296 H   0  0  0  0  0  0  0  0  0  0  0  0
   57.6621   29.3330   47.5810 H   0  0  0  0  0  0  0  0  0  0  0  0
   56.7782   27.3512   44.4664 H   0  0  0  0  0  0  0  0  0  0  0  0
   56.5037   27.3522   46.2651 H   0  0  0  0  0  0  0  0  0  0  0  0
   55.9000   29.7600   45.9290 H   0  0  0  0  0  0  0  0  0  0  0  0
   55.9790   28.8309   43.1560 H   0  0  0  0  0  0  0  0  0  0  0  0
   54.6387   29.9187   43.6933 H   0  0  0  0  0  0  0  0  0  0  0  0
   56.8914   30.8203   41.5917 H   0  0  0  0  0  0  0  0  0  0  0  0
   59.1510   34.8291   44.1950 H   0  0  0  0  0  0  0  0  0  0  0  0
   60.1627   36.2819   45.9568 H   0  0  0  0  0  0  0  0  0  0  0  0
   58.9472   33.5566   48.9986 H   0  0  0  0  0  0  0  0  0  0  0  0
   57.9104   32.0554   47.2913 H   0  0  0  0  0  0  0  0  0  0  0  0
   58.9106   27.8897   43.6867 H   0  0  0  0  0  0  0  0  0  0  0  0
   61.1802   28.8518   44.0999 H   0  0  0  0  0  0  0  0  0  0  0  0
  1  2  2  0
  2  3  1  0
  3  4  1  0
  4  5  1  0
  5  6  1  0
  6  7  1  0
  7  8  2  0
  8  9  1  0
  9 10  1  0
 10 11  1  0
 11 12  2  0
 12 13  1  0
 13 14  2  0
 14 15  1  0
 15 16  2  0
 10 17  2  0
  3 18  2  0
 18 19  1  0
 19 20  2  0
 20  1  1  0
 17  7  1  0
 16 11  1  0
  1 21  1  0
  2 22  1  0
  4 23  1  0
  4 24  1  0
  5 25  1  0
  6 26  1  0
  6 27  1  0
  8 28  1  0
 12 29  1  0
 13 30  1  0
 15 31  1  0
 16 32  1  0
 18 33  1  0
 19 34  1  0
M  END
>  <UniqueID>  (52) 
48

>  <SMILES>  (52) 
c1cc(CNCc2csc(-c3ccncc3)n2)ccn1

>  <Energy>  (52) 
67.41051410820467

>  <Genealogy>  (52) 
c1cc(CNCc2csc(-c3ccncc3)n2)ccn1 (3D coordinates assigned)
c1cc(CNCc2csc(-c3ccncc3)n2)ccn1 (optimized conformer: 67.41051410820467 kcal/mol)

>  <smiles>  (52) 
c1cc(CNCc2csc(-c3ccncc3)n2)ccn1

>  <score_type>  (52) 
oracle

>  <origin>  (52) 
adg

>  <m_score__min__energy>  (52) 
-7.5499999999999998

>  <m_primary>  (52) 
energy

$$$$
52:0
     RDKit          3D

 34 36  0  0  0  0  0  0  0  0999 V2000
   58.9069   35.5664   44.1852 H   0  0  0  0  0  0  0  0  0  0  0  0
   58.7350   34.7270   44.8750 C   0  0  0  0  0  0  0  0  0  0  0  0
   57.9850   33.6550   44.4690 N   0  0  0  0  0  0  0  0  0  0  0  0
   57.7240   32.5850   45.2800 C   0  0  0  0  0  0  0  0  0  0  0  0
   57.0080   31.6020   44.8090 N   0  0  0  0  0  0  0  0  0  0  0  0
   57.2890   30.1970   44.8860 C   0  0  0  0  0  0  0  0  0  0  0  0
   58.5520   29.7280   44.5090 C   0  0  0  0  0  0  0  0  0  0  0  0
   59.3256   30.4380   44.1811 H   0  0  0  0  0  0  0  0  0  0  0  0
   58.8330   28.3600   44.5480 C   0  0  0  0  0  0  0  0  0  0  0  0
   59.8358   27.9975   44.2777 H   0  0  0  0  0  0  0  0  0  0  0  0
   57.8420   27.4510   44.9300 C   0  0  0  0  0  0  0  0  0  0  0  0
   58.0749   26.3772   44.9813 H   0  0  0  0  0  0  0  0  0  0  0  0
   56.5530   27.9010   45.2480 C   0  0  0  0  0  0  0  0  0  0  0  0
   55.5650   26.9430   45.6490 N   0  0  0  0  0  0  0  0  0  0  0  0
   55.7800   25.5520   45.9260 C   0  0  0  0  0  0  0  0  0  0  0  0
   55.9020   25.1840   47.1230 O   0  0  0  0  0  0  0  0  0  0  0  0
   55.9100   24.5320   44.8360 C   0  0  0  0  0  0  0  0  0  0  0  0
   56.0372   23.5341   45.2809 H   0  0  0  0  0  0  0  0  0  0  0  0
   55.0032   24.5430   44.2135 H   0  0  0  0  0  0  0  0  0  0  0  0
   56.7851   24.7701   44.2135 H   0  0  0  0  0  0  0  0  0  0  0  0
   56.2830   29.2810   45.2340 C   0  0  0  0  0  0  0  0  0  0  0  0
   55.2788   29.6448   45.4970 H   0  0  0  0  0  0  0  0  0  0  0  0
   58.2850   32.6050   46.5720 C   0  0  0  0  0  0  0  0  0  0  0  0
   58.2730   31.6480   47.5230 N   0  0  0  0  0  0  0  0  0  0  0  0
   59.0160   32.1870   48.5230 C   0  0  0  0  0  0  0  0  0  0  0  0
   59.2171   31.6730   49.4745 H   0  0  0  0  0  0  0  0  0  0  0  0
   59.4840   33.4230   48.2280 N   0  0  0  0  0  0  0  0  0  0  0  0
   60.3850   34.2390   49.0350 C   0  0  0  0  0  0  0  0  0  0  0  0
   60.1863   34.0590   50.1018 H   0  0  0  0  0  0  0  0  0  0  0  0
   61.4269   33.9709   48.8058 H   0  0  0  0  0  0  0  0  0  0  0  0
   60.2211   35.3023   48.8058 H   0  0  0  0  0  0  0  0  0  0  0  0
   59.0330   33.6680   46.9890 C   0  0  0  0  0  0  0  0  0  0  0  0
   59.2860   34.7610   46.1670 C   0  0  0  0  0  0  0  0  0  0  0  0
   59.8898   35.6130   46.5126 H   0  0  0  0  0  0  0  0  0  0  0  0
  1  2  1  0
  2  3  1  0
  3  4  1  0
  4  5  2  0
  5  6  1  0
  6  7  2  0
  7  8  1  0
  7  9  1  0
  9 10  1  0
  9 11  2  0
 11 12  1  0
 11 13  1  0
 13 14  1  0
 14 15  1  0
 15 16  2  0
 15 17  1  0
 17 18  1  0
 17 19  1  0
 17 20  1  0
 13 21  2  0
 21 22  1  0
  4 23  1  0
 23 24  1  0
 24 25  2  0
 25 26  1  0
 25 27  1  0
 27 28  1  0
 28 29  1  0
 28 30  1  0
 28 31  1  0
 27 32  1  0
 32 33  1  0
 33 34  1  0
 33  2  2  0
 21  6  1  0
 32 23  2  0
M  CHG  2   3  -1  14  -1
M  END
>  <UniqueID>  (53) 
49

>  <SMILES>  (53) 
CC(=O)[N-]c1cccc(/N=c2/[n-]ccc3c2ncn3C)c1

>  <Energy>  (53) 
88.5866081343864

>  <Genealogy>  (53) 
CC(=O)[N-]c1cccc(N=c2[n-]ccc3c2ncn3C)c1 (protonated)
CC(=O)[N-]c1cccc(/N=c2/[n-]ccc3c2ncn3C)c1 (cis-trans isomerization)
CC(=O)[N-]c1cccc(/N=c2/[n-]ccc3c2ncn3C)c1 (3D coordinates assigned)
CC(=O)[N-]c1cccc(/N=c2/[n-]ccc3c2ncn3C)c1 (optimized conformer: 88.5866081343864 kcal/mol)

>  <smiles>  (53) 
CC(=O)Nc1cccc(N=c2[nH]ccc3c2ncn3C)c1

>  <score_type>  (53) 
oracle

>  <origin>  (53) 
adg

>  <m_score__min__energy>  (53) 
-10.33

>  <m_primary>  (53) 
energy

$$$$
53:0
     RDKit          3D

 39 41  0  0  0  0  0  0  0  0999 V2000
   54.8420   26.7100   45.9800 O   0  0  0  0  0  0  0  0  0  0  0  0
   56.1180   27.1570   45.6570 C   0  0  0  0  0  0  0  0  0  0  0  0
   57.2120   26.3110   45.8620 C   0  0  0  0  0  0  0  0  0  0  0  0
   58.5000   26.7400   45.5370 C   0  0  0  0  0  0  0  0  0  0  0  0
   58.7010   28.0180   45.0100 C   0  0  0  0  0  0  0  0  0  0  0  0
   57.6130   28.8850   44.8140 C   0  0  0  0  0  0  0  0  0  0  0  0
   57.8480   30.2490   44.2150 C   0  0  0  0  0  0  0  0  0  0  0  0
   57.4510   31.3490   45.2060 C   0  0  0  0  0  0  0  0  0  0  0  0
   58.6400   31.7750   46.0250 C   0  0  0  0  0  0  0  0  0  0  0  0
   59.0350   33.1200   46.0520 C   0  0  0  0  0  0  0  0  0  0  0  0
   60.1180   33.5220   46.8390 C   0  0  0  0  0  0  0  0  0  0  0  0
   60.8200   32.5870   47.6200 C   0  0  0  0  0  0  0  0  0  0  0  0
   61.9710   33.0140   48.4570 C   0  0  0  0  0  0  0  0  0  0  0  0
   61.7670   33.8000   49.6080 C   0  0  0  0  0  0  0  0  0  0  0  0
   62.8530   34.1990   50.3950 C   0  0  0  0  0  0  0  0  0  0  0  0
   64.1500   33.8210   50.0430 C   0  0  0  0  0  0  0  0  0  0  0  0
   64.3650   33.0410   48.9040 C   0  0  0  0  0  0  0  0  0  0  0  0
   63.2840   32.6390   48.1150 C   0  0  0  0  0  0  0  0  0  0  0  0
   60.4110   31.2420   47.6010 C   0  0  0  0  0  0  0  0  0  0  0  0
   59.3270   30.8400   46.8140 C   0  0  0  0  0  0  0  0  0  0  0  0
   56.3110   28.4460   45.1270 C   0  0  0  0  0  0  0  0  0  0  0  0
   55.2210   29.2910   44.9080 O   0  0  0  0  0  0  0  0  0  0  0  0
   57.0575   25.3054   46.2802 H   0  0  0  0  0  0  0  0  0  0  0  0
   59.3582   26.0705   45.6962 H   0  0  0  0  0  0  0  0  0  0  0  0
   59.7170   28.3474   44.7470 H   0  0  0  0  0  0  0  0  0  0  0  0
   58.9139   30.3552   43.9649 H   0  0  0  0  0  0  0  0  0  0  0  0
   57.2327   30.3492   43.3087 H   0  0  0  0  0  0  0  0  0  0  0  0
   57.0656   32.2159   44.6493 H   0  0  0  0  0  0  0  0  0  0  0  0
   56.6761   30.9569   45.8811 H   0  0  0  0  0  0  0  0  0  0  0  0
   58.4899   33.8626   45.4508 H   0  0  0  0  0  0  0  0  0  0  0  0
   60.4236   34.5787   46.8474 H   0  0  0  0  0  0  0  0  0  0  0  0
   60.7475   34.1020   49.8899 H   0  0  0  0  0  0  0  0  0  0  0  0
   62.6844   34.8117   51.2928 H   0  0  0  0  0  0  0  0  0  0  0  0
   65.0024   34.1372   50.6622 H   0  0  0  0  0  0  0  0  0  0  0  0
   65.3871   32.7428   48.6278 H   0  0  0  0  0  0  0  0  0  0  0  0
   63.4604   32.0247   47.2197 H   0  0  0  0  0  0  0  0  0  0  0  0
   60.9479   30.4999   48.2100 H   0  0  0  0  0  0  0  0  0  0  0  0
   59.0116   29.7862   46.8136 H   0  0  0  0  0  0  0  0  0  0  0  0
   54.3510   28.9590   44.5110 H   0  0  0  0  0  0  0  0  0  0  0  0
  1  2  1  0
  2  3  2  0
  3  4  1  0
  4  5  2  0
  5  6  1  0
  6  7  1  0
  7  8  1  0
  8  9  1  0
  9 10  2  0
 10 11  1  0
 11 12  2  0
 12 13  1  0
 13 14  2  0
 14 15  1  0
 15 16  2  0
 16 17  1  0
 17 18  2  0
 12 19  1  0
 19 20  2  0
  6 21  2  0
 21 22  1  0
 21  2  1  0
 20  9  1  0
 18 13  1  0
  3 23  1  0
  4 24  1  0
  5 25  1  0
  7 26  1  0
  7 27  1  0
  8 28  1  0
  8 29  1  0
 10 30  1  0
 11 31  1  0
 14 32  1  0
 15 33  1  0
 16 34  1  0
 17 35  1  0
 18 36  1  0
 19 37  1  0
 20 38  1  0
 22 39  1  0
M  CHG  1   1  -1
M  END
>  <UniqueID>  (54) 
50

>  <SMILES>  (54) 
[O-]c1cccc(CCc2ccc(-c3ccccc3)cc2)c1O

>  <Energy>  (54) 
44.53383072284835

>  <Genealogy>  (54) 
[O-]c1cccc(CCc2ccc(-c3ccccc3)cc2)c1O (protonated)
[O-]c1cccc(CCc2ccc(-c3ccccc3)cc2)c1O (3D coordinates assigned)
[O-]c1cccc(CCc2ccc(-c3ccccc3)cc2)c1O (optimized conformer: 44.53383072284835 kcal/mol)

>  <smiles>  (54) 
Oc1cccc(CCc2ccc(-c3ccccc3)cc2)c1O

>  <score_type>  (54) 
oracle

>  <origin>  (54) 
adg

>  <m_score__min__energy>  (54) 
-12.83

>  <m_primary>  (54) 
energy

$$$$
54:0
     RDKit          3D

 45 49  0  0  0  0  0  0  0  0999 V2000
   57.4140   32.4730   44.1840 C   0  0  0  0  0  0  0  0  0  0  0  0
   57.4630   30.9960   44.3770 C   0  0  0  0  0  0  0  0  0  0  0  0
   56.4400   30.2760   44.8780 N   0  0  0  0  0  0  0  0  0  0  0  0
   56.8450   29.0450   44.8260 O   0  0  0  0  0  0  0  0  0  0  0  0
   58.0520   28.9990   44.3150 C   0  0  0  0  0  0  0  0  0  0  0  0
   58.8220   27.7340   44.0750 C   0  0  2  0  0  0  0  0  0  0  0  0
   58.0910   26.8200   43.0510 C   0  0  0  0  0  0  0  0  0  0  0  0
   57.7390   25.6160   43.8520 C   0  0  0  0  0  0  0  0  0  0  0  0
   57.0000   24.5020   43.4510 C   0  0  0  0  0  0  0  0  0  0  0  0
   56.7510   23.4880   44.3900 C   0  0  0  0  0  0  0  0  0  0  0  0
   57.2310   23.6100   45.7090 C   0  0  0  0  0  0  0  0  0  0  0  0
   57.9680   24.7430   46.0900 C   0  0  0  0  0  0  0  0  0  0  0  0
   58.2250   25.7250   45.1270 C   0  0  0  0  0  0  0  0  0  0  0  0
   58.9190   26.9500   45.3100 N   0  0  0  0  0  0  0  0  0  0  0  0
   59.7230   27.3190   46.4410 C   0  0  0  0  0  0  0  0  0  0  0  0
   60.5930   26.5150   46.8710 O   0  0  0  0  0  0  0  0  0  0  0  0
   59.5260   28.6020   47.1370 C   0  0  0  0  0  0  0  0  0  0  0  0
   59.7560   29.8690   46.6130 C   0  0  0  0  0  0  0  0  0  0  0  0
   59.4570   30.9100   47.5120 C   0  0  0  0  0  0  0  0  0  0  0  0
   59.6220   32.3490   47.1850 C   0  0  0  0  0  0  0  0  0  0  0  0
   58.5220   33.2280   47.2360 C   0  0  0  0  0  0  0  0  0  0  0  0
   58.6830   34.5820   46.9280 C   0  0  0  0  0  0  0  0  0  0  0  0
   59.9390   35.0740   46.5630 C   0  0  0  0  0  0  0  0  0  0  0  0
   61.0370   34.2130   46.5070 C   0  0  0  0  0  0  0  0  0  0  0  0
   60.8830   32.8580   46.8180 C   0  0  0  0  0  0  0  0  0  0  0  0
   58.9780   30.4510   48.7400 C   0  0  0  0  0  0  0  0  0  0  0  0
   58.9270   28.7720   48.6980 S   0  0  0  0  0  0  0  0  0  0  0  0
   58.5030   30.2270   43.9910 N   0  0  0  0  0  0  0  0  0  0  0  0
   57.3975   32.9706   45.1649 H   0  0  0  0  0  0  0  0  0  0  0  0
   58.3018   32.7990   43.6223 H   0  0  0  0  0  0  0  0  0  0  0  0
   56.5065   32.7395   43.6223 H   0  0  0  0  0  0  0  0  0  0  0  0
   59.8125   28.0357   43.7036 H   0  0  0  0  0  0  0  0  0  0  0  0
   57.1873   27.3108   42.6605 H   0  0  0  0  0  0  0  0  0  0  0  0
   58.7064   26.5846   42.1701 H   0  0  0  0  0  0  0  0  0  0  0  0
   56.6208   24.4201   42.4217 H   0  0  0  0  0  0  0  0  0  0  0  0
   56.1794   22.5957   44.0948 H   0  0  0  0  0  0  0  0  0  0  0  0
   57.0279   22.8156   46.4423 H   0  0  0  0  0  0  0  0  0  0  0  0
   58.3345   24.8558   47.1210 H   0  0  0  0  0  0  0  0  0  0  0  0
   60.1348   30.0412   45.5948 H   0  0  0  0  0  0  0  0  0  0  0  0
   57.5302   32.8463   47.5200 H   0  0  0  0  0  0  0  0  0  0  0  0
   57.8192   35.2616   46.9730 H   0  0  0  0  0  0  0  0  0  0  0  0
   60.0628   36.1396   46.3198 H   0  0  0  0  0  0  0  0  0  0  0  0
   62.0248   34.6011   46.2178 H   0  0  0  0  0  0  0  0  0  0  0  0
   61.7524   32.1855   46.7757 H   0  0  0  0  0  0  0  0  0  0  0  0
   58.6836   31.0819   49.5916 H   0  0  0  0  0  0  0  0  0  0  0  0
  1  2  1  0
  2  3  2  0
  3  4  1  0
  4  5  1  0
  5  6  1  0
  6  7  1  0
  7  8  1  0
  8  9  2  0
  9 10  1  0
 10 11  2  0
 11 12  1  0
 12 13  2  0
 13 14  1  0
 14 15  1  0
 15 16  2  0
 15 17  1  0
 17 18  2  0
 18 19  1  0
 19 20  1  0
 20 21  2  0
 21 22  1  0
 22 23  2  0
 23 24  1  0
 24 25  2  0
 19 26  2  0
 26 27  1  0
  5 28  2  0
 28  2  1  0
 14  6  1  0
 27 17  1  0
 13  8  1  0
 25 20  1  0
  1 29  1  0
  1 30  1  0
  1 31  1  0
  6 32  1  6
  7 33  1  0
  7 34  1  0
  9 35  1  0
 10 36  1  0
 11 37  1  0
 12 38  1  0
 18 39  1  0
 21 40  1  0
 22 41  1  0
 23 42  1  0
 24 43  1  0
 25 44  1  0
 26 45  1  0
M  END
>  <UniqueID>  (55) 
51

>  <SMILES>  (55) 
Cc1noc([C@@H]2Cc3ccccc3N2C(=O)c2cc(-c3ccccc3)cs2)n1

>  <Energy>  (55) 
130.05788824778287

>  <Genealogy>  (55) 
Cc1noc([C@@H]2Cc3ccccc3N2C(=O)c2cc(-c3ccccc3)cs2)n1 (chirality)
Cc1noc([C@@H]2Cc3ccccc3N2C(=O)c2cc(-c3ccccc3)cs2)n1 (3D coordinates assigned)
Cc1noc([C@@H]2Cc3ccccc3N2C(=O)c2cc(-c3ccccc3)cs2)n1 (nonaromatic ring conformer: 130.05788824778287 kcal/mol)

>  <smiles>  (55) 
Cc1noc(C2Cc3ccccc3N2C(=O)c2cc(-c3ccccc3)cs2)n1

>  <score_type>  (55) 
oracle

>  <origin>  (55) 
adg

>  <m_score__min__energy>  (55) 
-9.7200000000000006

>  <m_primary>  (55) 
energy

$$$$
55:0
     RDKit          3D

 46 48  0  0  0  0  0  0  0  0999 V2000
   61.7100   34.2020   48.6700 C   0  0  0  0  0  0  0  0  0  0  0  0
   60.5620   34.2050   49.6730 C   0  0  0  0  0  0  0  0  0  0  0  0
   59.3130   34.3860   49.0070 O   0  0  0  0  0  0  0  0  0  0  0  0
   59.1940   34.5670   47.6250 C   0  0  0  0  0  0  0  0  0  0  0  0
   59.2520   35.7240   47.1270 O   0  0  0  0  0  0  0  0  0  0  0  0
   59.0370   33.3860   46.7560 C   0  0  0  0  0  0  0  0  0  0  0  0
   59.7330   32.2040   46.9120 C   0  0  0  0  0  0  0  0  0  0  0  0
   59.3440   31.3710   45.8790 C   0  0  0  0  0  0  0  0  0  0  0  0
   59.8280   29.9820   45.7010 C   0  0  0  0  0  0  0  0  0  0  0  0
   59.9350   29.0270   46.6960 C   0  0  0  0  0  0  0  0  0  0  0  0
   60.4090   27.8900   46.0780 C   0  0  0  0  0  0  0  0  0  0  0  0
   60.5620   28.2150   44.7470 C   0  0  0  0  0  0  0  0  0  0  0  0
   60.2110   29.4650   44.5560 O   0  0  0  0  0  0  0  0  0  0  0  0
   58.4390   32.0030   45.0870 N   0  0  0  0  0  0  0  0  0  0  0  0
   57.8040   31.4650   43.8770 C   0  0  0  0  0  0  0  0  0  0  0  0
   57.1420   30.1540   44.1750 C   0  0  0  0  0  0  0  0  0  0  0  0
   55.9860   30.1410   44.6810 O   0  0  0  0  0  0  0  0  0  0  0  0
   57.7990   28.9240   43.8390 N   0  0  0  0  0  0  0  0  0  0  0  0
   57.5410   27.6730   44.4980 C   0  0  0  0  0  0  0  0  0  0  0  0
   56.9670   27.6740   45.7790 C   0  0  0  0  0  0  0  0  0  0  0  0
   56.6790   26.4680   46.4250 C   0  0  0  0  0  0  0  0  0  0  0  0
   56.9440   25.2510   45.7920 C   0  0  0  0  0  0  0  0  0  0  0  0
   56.5400   23.6060   46.6730 Br  0  0  0  0  0  0  0  0  0  0  0  0
   57.4950   25.2400   44.5070 C   0  0  0  0  0  0  0  0  0  0  0  0
   57.7880   26.4430   43.8580 C   0  0  0  0  0  0  0  0  0  0  0  0
   58.2190   33.2230   45.6420 C   0  0  0  0  0  0  0  0  0  0  0  0
   57.2480   34.2400   45.1070 C   0  0  0  0  0  0  0  0  0  0  0  0
   62.6685   34.1995   49.2097 H   0  0  0  0  0  0  0  0  0  0  0  0
   61.6426   33.3040   48.0383 H   0  0  0  0  0  0  0  0  0  0  0  0
   61.6473   35.1003   48.0383 H   0  0  0  0  0  0  0  0  0  0  0  0
   60.5492   33.2454   50.2105 H   0  0  0  0  0  0  0  0  0  0  0  0
   60.7106   35.0351   50.3793 H   0  0  0  0  0  0  0  0  0  0  0  0
   60.4578   31.9698   47.7056 H   0  0  0  0  0  0  0  0  0  0  0  0
   59.6917   29.1499   47.7617 H   0  0  0  0  0  0  0  0  0  0  0  0
   60.6220   26.9199   46.5508 H   0  0  0  0  0  0  0  0  0  0  0  0
   60.9231   27.5311   43.9647 H   0  0  0  0  0  0  0  0  0  0  0  0
   57.0490   32.1787   43.5157 H   0  0  0  0  0  0  0  0  0  0  0  0
   58.5748   31.3095   43.1078 H   0  0  0  0  0  0  0  0  0  0  0  0
   58.5040   28.9400   43.0670 H   0  0  0  0  0  0  0  0  0  0  0  0
   56.7426   28.6287   46.2772 H   0  0  0  0  0  0  0  0  0  0  0  0
   56.2425   26.4773   47.4346 H   0  0  0  0  0  0  0  0  0  0  0  0
   57.6984   24.2824   44.0055 H   0  0  0  0  0  0  0  0  0  0  0  0
   58.2131   26.4289   42.8436 H   0  0  0  0  0  0  0  0  0  0  0  0
   56.7567   34.7546   45.9459 H   0  0  0  0  0  0  0  0  0  0  0  0
   57.7883   34.9747   44.4920 H   0  0  0  0  0  0  0  0  0  0  0  0
   56.4891   33.7343   44.4920 H   0  0  0  0  0  0  0  0  0  0  0  0
  1  2  1  0
  2  3  1  0
  3  4  1  0
  4  5  2  0
  4  6  1  0
  6  7  1  0
  7  8  2  0
  8  9  1  0
  9 10  2  0
 10 11  1  0
 11 12  2  0
 12 13  1  0
  8 14  1  0
 14 15  1  0
 15 16  1  0
 16 17  2  0
 16 18  1  0
 18 19  1  0
 19 20  2  0
 20 21  1  0
 21 22  2  0
 22 23  1  0
 22 24  1  0
 24 25  2  0
 14 26  1  0
 26 27  1  0
 26  6  2  0
 13  9  1  0
 25 19  1  0
  1 28  1  0
  1 29  1  0
  1 30  1  0
  2 31  1  0
  2 32  1  0
  7 33  1  0
 10 34  1  0
 11 35  1  0
 12 36  1  0
 15 37  1  0
 15 38  1  0
 18 39  1  0
 20 40  1  0
 21 41  1  0
 24 42  1  0
 25 43  1  0
 27 44  1  0
 27 45  1  0
 27 46  1  0
M  END
>  <UniqueID>  (56) 
52

>  <SMILES>  (56) 
CCOC(=O)c1cc(-c2ccco2)n(CC(=O)Nc2ccc(Br)cc2)c1C

>  <Energy>  (56) 
98.80445732930727

>  <Genealogy>  (56) 
CCOC(=O)c1cc(-c2ccco2)n(CC(=O)Nc2ccc(Br)cc2)c1C (3D coordinates assigned)
CCOC(=O)c1cc(-c2ccco2)n(CC(=O)Nc2ccc(Br)cc2)c1C (optimized conformer: 98.80445732930727 kcal/mol)

>  <smiles>  (56) 
CCOC(=O)c1cc(-c2ccco2)n(CC(=O)Nc2ccc(Br)cc2)c1C

>  <score_type>  (56) 
oracle

>  <origin>  (56) 
adg

>  <m_score__min__energy>  (56) 
-7.5

>  <m_primary>  (56) 
energy

$$$$
56:0
     RDKit          3D

 47 50  0  0  0  0  0  0  0  0999 V2000
   67.2350   32.3920   51.1340 C   0  0  0  0  0  0  0  0  0  0  0  0
   66.3540   32.4540   50.0180 O   0  0  0  0  0  0  0  0  0  0  0  0
   65.0180   32.0270   50.0370 C   0  0  0  0  0  0  0  0  0  0  0  0
   64.6790   30.9430   50.8530 C   0  0  0  0  0  0  0  0  0  0  0  0
   63.3630   30.4770   50.9030 C   0  0  0  0  0  0  0  0  0  0  0  0
   62.3720   31.0930   50.1380 C   0  0  0  0  0  0  0  0  0  0  0  0
   62.6870   32.1900   49.3190 C   0  0  0  0  0  0  0  0  0  0  0  0
   61.6280   32.8310   48.4990 C   0  0  0  0  0  0  0  0  0  0  0  0
   60.8680   32.0680   47.6580 N   0  0  0  0  0  0  0  0  0  0  0  0
   59.8880   32.6220   46.8890 C   0  0  0  0  0  0  0  0  0  0  0  0
   59.1190   31.8330   46.0200 C   0  0  0  0  0  0  0  0  0  0  0  0
   58.1130   32.4180   45.2270 C   0  0  0  0  0  0  0  0  0  0  0  0
   57.3000   31.5880   44.3060 C   0  0  0  0  0  0  0  0  0  0  0  0
   57.3820   31.7610   43.0600 O   0  0  0  0  0  0  0  0  0  0  0  0
   56.4170   30.5860   44.8280 N   0  0  0  0  0  0  0  0  0  0  0  0
   56.3450   29.2240   44.3120 C   0  0  0  0  0  0  0  0  0  0  0  0
   57.3290   28.3400   45.0320 C   0  0  0  0  0  0  0  0  0  0  0  0
   58.7080   28.5900   44.9380 C   0  0  0  0  0  0  0  0  0  0  0  0
   59.6190   27.7800   45.6240 C   0  0  0  0  0  0  0  0  0  0  0  0
   59.1620   26.7200   46.4100 C   0  0  0  0  0  0  0  0  0  0  0  0
   57.7910   26.4670   46.5130 C   0  0  0  0  0  0  0  0  0  0  0  0
   56.8740   27.2730   45.8300 C   0  0  0  0  0  0  0  0  0  0  0  0
   55.5470   27.0180   45.9480 F   0  0  0  0  0  0  0  0  0  0  0  0
   57.8900   33.8050   45.3180 C   0  0  0  0  0  0  0  0  0  0  0  0
   58.6540   34.5940   46.1830 C   0  0  0  0  0  0  0  0  0  0  0  0
   59.6520   34.0070   46.9660 C   0  0  0  0  0  0  0  0  0  0  0  0
   60.3980   34.7650   47.8100 N   0  0  0  0  0  0  0  0  0  0  0  0
   61.3730   34.2170   48.5780 C   0  0  0  0  0  0  0  0  0  0  0  0
   62.0230   34.9550   49.3670 O   0  0  0  0  0  0  0  0  0  0  0  0
   64.0150   32.6490   49.2660 C   0  0  0  0  0  0  0  0  0  0  0  0
   66.6507   32.4331   52.0651 H   0  0  0  0  0  0  0  0  0  0  0  0
   67.8045   31.4516   51.0997 H   0  0  0  0  0  0  0  0  0  0  0  0
   67.9306   33.2434   51.0997 H   0  0  0  0  0  0  0  0  0  0  0  0
   65.4547   30.4535   51.4602 H   0  0  0  0  0  0  0  0  0  0  0  0
   63.1075   29.6225   51.5469 H   0  0  0  0  0  0  0  0  0  0  0  0
   61.3387   30.7177   50.1764 H   0  0  0  0  0  0  0  0  0  0  0  0
   61.0540   31.0420   47.5890 H   0  0  0  0  0  0  0  0  0  0  0  0
   59.3032   30.7503   45.9578 H   0  0  0  0  0  0  0  0  0  0  0  0
   55.3281   28.8324   44.4619 H   0  0  0  0  0  0  0  0  0  0  0  0
   56.5906   29.2339   43.2398 H   0  0  0  0  0  0  0  0  0  0  0  0
   59.0728   29.4257   44.3228 H   0  0  0  0  0  0  0  0  0  0  0  0
   60.6980   27.9784   45.5442 H   0  0  0  0  0  0  0  0  0  0  0  0
   59.8807   26.0843   46.9479 H   0  0  0  0  0  0  0  0  0  0  0  0
   57.4323   25.6320   47.1327 H   0  0  0  0  0  0  0  0  0  0  0  0
   57.1072   34.2724   44.7026 H   0  0  0  0  0  0  0  0  0  0  0  0
   58.4698   35.6766   46.2474 H   0  0  0  0  0  0  0  0  0  0  0  0
   64.2732   33.4997   48.6182 H   0  0  0  0  0  0  0  0  0  0  0  0
  1  2  1  0
  2  3  1  0
  3  4  2  0
  4  5  1  0
  5  6  2  0
  6  7  1  0
  7  8  1  0
  8  9  2  0
  9 10  1  0
 10 11  2  0
 11 12  1  0
 12 13  1  0
 13 14  2  0
 13 15  1  0
 15 16  1  0
 16 17  1  0
 17 18  2  0
 18 19  1  0
 19 20  2  0
 20 21  1  0
 21 22  2  0
 22 23  1  0
 12 24  2  0
 24 25  1  0
 25 26  2  0
 26 27  1  0
 27 28  1  0
 28 29  2  0
  7 30  2  0
 30  3  1  0
 28  8  1  0
 26 10  1  0
 22 17  1  0
  1 31  1  0
  1 32  1  0
  1 33  1  0
  4 34  1  0
  5 35  1  0
  6 36  1  0
  9 37  1  0
 11 38  1  0
 16 39  1  0
 16 40  1  0
 18 41  1  0
 19 42  1  0
 20 43  1  0
 21 44  1  0
 24 45  1  0
 25 46  1  0
 30 47  1  0
M  CHG  3   9   1  15  -1  27  -1
M  END
>  <UniqueID>  (57) 
53

>  <SMILES>  (57) 
COc1cccc(-c2[nH+]c3cc(C(=O)[N-]Cc4ccccc4F)ccc3[n-]c2=O)c1

>  <Energy>  (57) 
60.46196248302988

>  <Genealogy>  (57) 
COc1cccc(-c2[nH+]c3cc(C(=O)[N-]Cc4ccccc4F)ccc3[n-]c2=O)c1 (protonated)
COc1cccc(-c2[nH+]c3cc(C(=O)[N-]Cc4ccccc4F)ccc3[n-]c2=O)c1 (3D coordinates assigned)
COc1cccc(-c2[nH+]c3cc(C(=O)[N-]Cc4ccccc4F)ccc3[n-]c2=O)c1 (optimized conformer: 60.46196248302988 kcal/mol)

>  <smiles>  (57) 
COc1cccc(-c2nc3cc(C(=O)NCc4ccccc4F)ccc3[nH]c2=O)c1

>  <score_type>  (57) 
oracle

>  <origin>  (57) 
adg

>  <m_score__min__energy>  (57) 
-9.4299999999999997

>  <m_primary>  (57) 
energy

$$$$
57:0
     RDKit          3D

 43 46  0  0  0  0  0  0  0  0999 V2000
   56.1930   30.0900   45.1330 O   0  0  0  0  0  0  0  0  0  0  0  0
   57.6210   30.3420   44.7320 S   0  0  0  0  0  0  0  0  0  0  0  0
   57.7050   30.3160   43.2320 O   0  0  0  0  0  0  0  0  0  0  0  0
   58.1040   31.9360   45.3130 C   0  0  0  0  0  0  0  0  0  0  0  0
   58.0700   32.2020   46.6900 C   0  0  0  0  0  0  0  0  0  0  0  0
   58.4430   33.4590   47.1760 C   0  0  0  0  0  0  0  0  0  0  0  0
   58.8530   34.4580   46.2890 C   0  0  0  0  0  0  0  0  0  0  0  0
   59.2170   35.6760   46.7610 F   0  0  0  0  0  0  0  0  0  0  0  0
   58.8880   34.2020   44.9160 C   0  0  0  0  0  0  0  0  0  0  0  0
   58.5140   32.9460   44.4280 C   0  0  0  0  0  0  0  0  0  0  0  0
   58.6200   29.0680   45.3870 N   0  0  0  0  0  0  0  0  0  0  0  0
   58.3440   27.6890   45.0330 C   0  0  0  0  0  0  0  0  0  0  0  0
   58.0680   27.3930   43.6810 C   0  0  0  0  0  0  0  0  0  0  0  0
   57.7870   26.0960   43.2610 C   0  0  0  0  0  0  0  0  0  0  0  0
   57.7700   25.0560   44.1800 C   0  0  0  0  0  0  0  0  0  0  0  0
   58.0240   25.3130   45.5240 C   0  0  0  0  0  0  0  0  0  0  0  0
   58.2950   26.6180   45.9840 C   0  0  0  0  0  0  0  0  0  0  0  0
   58.5780   26.7310   47.4680 C   0  0  0  0  0  0  0  0  0  0  0  0
   58.4140   28.0740   48.0000 N   0  0  0  0  0  0  0  0  0  0  0  0
   59.4140   29.0390   47.7010 C   0  0  0  0  0  0  0  0  0  0  0  0
   60.2240   29.5560   48.7220 C   0  0  0  0  0  0  0  0  0  0  0  0
   61.2530   30.4620   48.4200 C   0  0  0  0  0  0  0  0  0  0  0  0
   62.1020   31.0490   49.5200 C   0  0  0  0  0  0  0  0  0  0  0  0
   62.3610   30.1010   50.4940 F   0  0  0  0  0  0  0  0  0  0  0  0
   63.3120   31.4950   49.0180 F   0  0  0  0  0  0  0  0  0  0  0  0
   61.4320   32.1130   50.0930 F   0  0  0  0  0  0  0  0  0  0  0  0
   61.4170   30.8850   47.0900 C   0  0  0  0  0  0  0  0  0  0  0  0
   60.5900   30.3840   46.0810 C   0  0  0  0  0  0  0  0  0  0  0  0
   59.5900   29.4440   46.3790 C   0  0  0  0  0  0  0  0  0  0  0  0
   57.7483   31.4177   47.3910 H   0  0  0  0  0  0  0  0  0  0  0  0
   58.4137   33.6615   48.2568 H   0  0  0  0  0  0  0  0  0  0  0  0
   59.2100   34.9891   44.2183 H   0  0  0  0  0  0  0  0  0  0  0  0
   58.5411   32.7485   43.3462 H   0  0  0  0  0  0  0  0  0  0  0  0
   58.0751   28.2070   42.9412 H   0  0  0  0  0  0  0  0  0  0  0  0
   57.5782   25.8951   42.1998 H   0  0  0  0  0  0  0  0  0  0  0  0
   57.5560   24.0299   43.8464 H   0  0  0  0  0  0  0  0  0  0  0  0
   58.0131   24.4803   46.2427 H   0  0  0  0  0  0  0  0  0  0  0  0
   57.8900   26.0603   48.0035 H   0  0  0  0  0  0  0  0  0  0  0  0
   59.6337   26.4578   47.6127 H   0  0  0  0  0  0  0  0  0  0  0  0
   57.8290   28.2030   48.8560 H   0  0  0  0  0  0  0  0  0  0  0  0
   60.0524   29.2503   49.7646 H   0  0  0  0  0  0  0  0  0  0  0  0
   62.2013   31.6151   46.8415 H   0  0  0  0  0  0  0  0  0  0  0  0
   60.7234   30.7287   45.0450 H   0  0  0  0  0  0  0  0  0  0  0  0
  1  2  2  0
  2  3  2  0
  2  4  1  0
  4  5  2  0
  5  6  1  0
  6  7  2  0
  7  8  1  0
  7  9  1  0
  9 10  2  0
  2 11  1  0
 11 12  1  0
 12 13  2  0
 13 14  1  0
 14 15  2  0
 15 16  1  0
 16 17  2  0
 17 18  1  0
 18 19  1  0
 19 20  1  0
 20 21  2  0
 21 22  1  0
 22 23  1  0
 23 24  1  0
 23 25  1  0
 23 26  1  0
 22 27  2  0
 27 28  1  0
 28 29  2  0
 10  4  1  0
 29 11  1  0
 17 12  1  0
 29 20  1  0
  5 30  1  0
  6 31  1  0
  9 32  1  0
 10 33  1  0
 13 34  1  0
 14 35  1  0
 15 36  1  0
 16 37  1  0
 18 38  1  0
 18 39  1  0
 19 40  1  0
 21 41  1  0
 27 42  1  0
 28 43  1  0
M  END
>  <UniqueID>  (58) 
54

>  <SMILES>  (58) 
O=S(=O)(c1ccc(F)cc1)N1c2ccccc2CNc2cc(C(F)(F)F)ccc21

>  <Energy>  (58) 
73.68594938645369

>  <Genealogy>  (58) 
O=S(=O)(c1ccc(F)cc1)N1c2ccccc2CNc2cc(C(F)(F)F)ccc21 (3D coordinates assigned)
O=S(=O)(c1ccc(F)cc1)N1c2ccccc2CNc2cc(C(F)(F)F)ccc21 (nonaromatic ring conformer: 73.68594938645369 kcal/mol)

>  <smiles>  (58) 
O=S(=O)(c1ccc(F)cc1)N1c2ccccc2CNc2cc(C(F)(F)F)ccc21

>  <score_type>  (58) 
oracle

>  <origin>  (58) 
adg

>  <m_score__min__energy>  (58) 
-8.0199999999999996

>  <m_primary>  (58) 
energy

$$$$
58:0
     RDKit          3D

 53 56  0  0  0  0  0  0  0  0999 V2000
   54.7830   26.7120   46.0070 O   0  0  0  0  0  0  0  0  0  0  0  0
   56.1500   26.4720   46.0850 C   0  0  0  0  0  0  0  0  0  0  0  0
   56.6500   25.1970   45.8090 C   0  0  0  0  0  0  0  0  0  0  0  0
   58.0300   24.9460   45.8950 C   0  0  0  0  0  0  0  0  0  0  0  0
   58.5720   23.6850   45.6080 O   0  0  0  0  0  0  0  0  0  0  0  0
   57.8610   22.5920   45.0880 C   0  0  0  0  0  0  0  0  0  0  0  0
   57.6210   21.4310   45.8460 C   0  0  0  0  0  0  0  0  0  0  0  0
   56.9210   20.3570   45.2860 C   0  0  0  0  0  0  0  0  0  0  0  0
   56.4700   20.4270   43.9650 C   0  0  0  0  0  0  0  0  0  0  0  0
   56.7240   21.5700   43.2010 C   0  0  0  0  0  0  0  0  0  0  0  0
   57.4220   22.6450   43.7590 C   0  0  0  0  0  0  0  0  0  0  0  0
   58.9000   25.9900   46.2280 C   0  0  0  0  0  0  0  0  0  0  0  0
   58.4070   27.2780   46.5080 C   0  0  0  0  0  0  0  0  0  0  0  0
   59.3350   28.3790   46.8720 C   0  0  0  0  0  0  0  0  0  0  0  0
   59.8630   28.4700   48.1720 C   0  0  0  0  0  0  0  0  0  0  0  0
   60.7360   29.5070   48.5140 C   0  0  0  0  0  0  0  0  0  0  0  0
   61.0990   30.4730   47.5580 C   0  0  0  0  0  0  0  0  0  0  0  0
   61.9720   31.5310   47.8500 O   0  0  0  0  0  0  0  0  0  0  0  0
   62.0200   32.7620   47.1320 C   0  0  0  0  0  0  0  0  0  0  0  0
   61.0760   33.7910   47.7800 C   0  0  0  0  0  0  0  0  0  0  0  0
   59.8020   34.0090   47.0590 N   0  0  0  0  0  0  0  0  0  0  0  0
   58.7610   33.0080   47.3430 C   0  0  0  0  0  0  0  0  0  0  0  0
   57.4210   33.4610   46.7240 C   0  0  0  0  0  0  0  0  0  0  0  0
   57.5770   34.5200   45.7930 O   0  0  0  0  0  0  0  0  0  0  0  0
   58.6180   34.2200   44.8850 C   0  0  0  0  0  0  0  0  0  0  0  0
   59.9790   34.2150   45.6080 C   0  0  0  0  0  0  0  0  0  0  0  0
   60.5740   30.3850   46.2650 C   0  0  0  0  0  0  0  0  0  0  0  0
   59.7000   29.3500   45.9210 C   0  0  0  0  0  0  0  0  0  0  0  0
   57.0210   27.5070   46.4360 C   0  0  0  0  0  0  0  0  0  0  0  0
   55.9618   24.3877   45.5237 H   0  0  0  0  0  0  0  0  0  0  0  0
   57.9849   21.3677   46.8821 H   0  0  0  0  0  0  0  0  0  0  0  0
   56.7253   19.4562   45.8862 H   0  0  0  0  0  0  0  0  0  0  0  0
   55.9158   19.5838   43.5269 H   0  0  0  0  0  0  0  0  0  0  0  0
   56.3742   21.6235   42.1595 H   0  0  0  0  0  0  0  0  0  0  0  0
   57.6277   23.5380   43.1506 H   0  0  0  0  0  0  0  0  0  0  0  0
   59.9829   25.8016   46.2715 H   0  0  0  0  0  0  0  0  0  0  0  0
   59.5868   27.7187   48.9265 H   0  0  0  0  0  0  0  0  0  0  0  0
   61.1408   29.5678   49.5350 H   0  0  0  0  0  0  0  0  0  0  0  0
   63.0485   33.1519   47.1472 H   0  0  0  0  0  0  0  0  0  0  0  0
   61.7013   32.5855   46.0941 H   0  0  0  0  0  0  0  0  0  0  0  0
   60.8383   33.4440   48.7964 H   0  0  0  0  0  0  0  0  0  0  0  0
   61.6092   34.7530   47.7617 H   0  0  0  0  0  0  0  0  0  0  0  0
   59.0557   32.0409   46.9095 H   0  0  0  0  0  0  0  0  0  0  0  0
   58.6428   32.9041   48.4317 H   0  0  0  0  0  0  0  0  0  0  0  0
   56.9642   32.6036   46.2081 H   0  0  0  0  0  0  0  0  0  0  0  0
   56.7853   33.8298   47.5425 H   0  0  0  0  0  0  0  0  0  0  0  0
   58.4389   33.2286   44.4434 H   0  0  0  0  0  0  0  0  0  0  0  0
   58.6359   34.9878   44.0975 H   0  0  0  0  0  0  0  0  0  0  0  0
   60.6000   33.4030   45.2018 H   0  0  0  0  0  0  0  0  0  0  0  0
   60.4668   35.1878   45.4473 H   0  0  0  0  0  0  0  0  0  0  0  0
   60.8514   31.1371   45.5118 H   0  0  0  0  0  0  0  0  0  0  0  0
   59.2947   29.2940   44.8999 H   0  0  0  0  0  0  0  0  0  0  0  0
   56.6201   28.5071   46.6574 H   0  0  0  0  0  0  0  0  0  0  0  0
  1  2  1  0
  2  3  2  0
  3  4  1  0
  4  5  1  0
  5  6  1  0
  6  7  2  0
  7  8  1  0
  8  9  2  0
  9 10  1  0
 10 11  2  0
  4 12  2  0
 12 13  1  0
 13 14  1  0
 14 15  2  0
 15 16  1  0
 16 17  2  0
 17 18  1  0
 18 19  1  0
 19 20  1  0
 20 21  1  0
 21 22  1  0
 22 23  1  0
 23 24  1  0
 24 25  1  0
 25 26  1  0
 17 27  1  0
 27 28  2  0
 13 29  2  0
 29  2  1  0
 11  6  1  0
 28 14  1  0
 26 21  1  0
  3 30  1  0
  7 31  1  0
  8 32  1  0
  9 33  1  0
 10 34  1  0
 11 35  1  0
 12 36  1  0
 15 37  1  0
 16 38  1  0
 19 39  1  0
 19 40  1  0
 20 41  1  0
 20 42  1  0
 22 43  1  0
 22 44  1  0
 23 45  1  0
 23 46  1  0
 25 47  1  0
 25 48  1  0
 26 49  1  0
 26 50  1  0
 27 51  1  0
 28 52  1  0
 29 53  1  0
M  CHG  1   1  -1
M  END
>  <UniqueID>  (59) 
55

>  <SMILES>  (59) 
[O-]c1cc(Oc2ccccc2)cc(-c2ccc(OCCN3CCOCC3)cc2)c1

>  <Energy>  (59) 
79.7256196223984

>  <Genealogy>  (59) 
[O-]c1cc(Oc2ccccc2)cc(-c2ccc(OCCN3CCOCC3)cc2)c1 (protonated)
[O-]c1cc(Oc2ccccc2)cc(-c2ccc(OCCN3CCOCC3)cc2)c1 (3D coordinates assigned)
[O-]c1cc(Oc2ccccc2)cc(-c2ccc(OCCN3CCOCC3)cc2)c1 (nonaromatic ring conformer: 79.7256196223984 kcal/mol)

>  <smiles>  (59) 
Oc1cc(Oc2ccccc2)cc(-c2ccc(OCCN3CCOCC3)cc2)c1

>  <score_type>  (59) 
oracle

>  <origin>  (59) 
adg

>  <m_score__min__energy>  (59) 
-11.26

>  <m_primary>  (59) 
energy

$$$$
59:0
     RDKit          3D

 29 31  0  0  0  0  0  0  0  0999 V2000
   57.3980   23.4440   47.8280 O   0  0  0  0  0  0  0  0  0  0  0  0
   57.2330   24.5580   47.2660 C   0  0  0  0  0  0  0  0  0  0  0  0
   58.2630   25.4370   47.1870 N   0  0  0  0  0  0  0  0  0  0  0  0
   58.1080   26.6430   46.5840 C   0  0  0  0  0  0  0  0  0  0  0  0
   56.8740   27.0030   46.0190 C   0  0  0  0  0  0  0  0  0  0  0  0
   56.7320   28.3250   45.3570 C   0  0  0  0  0  0  0  0  0  0  0  0
   57.7440   29.1760   44.9480 C   0  0  0  0  0  0  0  0  0  0  0  0
   57.0750   30.2620   44.4270 C   0  0  0  0  0  0  0  0  0  0  0  0
   57.7070   31.4560   43.7860 C   0  0  0  0  0  0  0  0  0  0  0  0
   58.0860   32.4650   44.8340 C   0  0  0  0  0  0  0  0  0  0  0  0
   58.6130   33.7120   44.4610 C   0  0  0  0  0  0  0  0  0  0  0  0
   58.9990   34.6340   45.4390 C   0  0  0  0  0  0  0  0  0  0  0  0
   58.8700   34.3150   46.7930 C   0  0  0  0  0  0  0  0  0  0  0  0
   59.2470   35.2100   47.7400 F   0  0  0  0  0  0  0  0  0  0  0  0
   58.3600   33.0700   47.1720 C   0  0  0  0  0  0  0  0  0  0  0  0
   57.9720   32.1440   46.1980 C   0  0  0  0  0  0  0  0  0  0  0  0
   55.7470   30.0660   44.5090 N   0  0  0  0  0  0  0  0  0  0  0  0
   55.5380   28.8920   45.0840 N   0  0  0  0  0  0  0  0  0  0  0  0
   55.8160   26.0750   46.1300 C   0  0  0  0  0  0  0  0  0  0  0  0
   54.6680   26.3380   45.6860 O   0  0  0  0  0  0  0  0  0  0  0  0
   56.0240   24.8820   46.7440 N   0  0  0  0  0  0  0  0  0  0  0  0
   58.9550   27.3433   46.5376 H   0  0  0  0  0  0  0  0  0  0  0  0
   58.8306   29.0212   45.0218 H   0  0  0  0  0  0  0  0  0  0  0  0
   58.6091   31.1414   43.2407 H   0  0  0  0  0  0  0  0  0  0  0  0
   56.9888   31.9130   43.0893 H   0  0  0  0  0  0  0  0  0  0  0  0
   58.7226   33.9644   43.3960 H   0  0  0  0  0  0  0  0  0  0  0  0
   59.4049   35.6122   45.1417 H   0  0  0  0  0  0  0  0  0  0  0  0
   58.2636   32.8179   48.2384 H   0  0  0  0  0  0  0  0  0  0  0  0
   57.5769   31.1628   46.4999 H   0  0  0  0  0  0  0  0  0  0  0  0
  1  2  2  0
  2  3  1  0
  3  4  1  0
  4  5  2  0
  5  6  1  0
  6  7  2  0
  7  8  1  0
  8  9  1  0
  9 10  1  0
 10 11  2  0
 11 12  1  0
 12 13  2  0
 13 14  1  0
 13 15  1  0
 15 16  2  0
  8 17  2  0
 17 18  1  0
  5 19  1  0
 19 20  2  0
 19 21  1  0
 21  2  1  0
 18  6  1  0
 16 10  1  0
  4 22  1  0
  7 23  1  0
  9 24  1  0
  9 25  1  0
 11 26  1  0
 12 27  1  0
 15 28  1  0
 16 29  1  0
M  CHG  3   3  -1  18  -1  21  -1
M  END
>  <UniqueID>  (60) 
56

>  <SMILES>  (60) 
O=c1[n-]cc(-c2cc(Cc3ccc(F)cc3)n[n-]2)c(=O)[n-]1

>  <Energy>  (60) 
64.46760749460348

>  <Genealogy>  (60) 
O=c1[n-]cc(-c2cc(Cc3ccc(F)cc3)n[n-]2)c(=O)[n-]1 (protonated)
O=c1[n-]cc(-c2cc(Cc3ccc(F)cc3)n[n-]2)c(=O)[n-]1 (3D coordinates assigned)
O=c1[n-]cc(-c2cc(Cc3ccc(F)cc3)n[n-]2)c(=O)[n-]1 (optimized conformer: 64.46760749460348 kcal/mol)

>  <smiles>  (60) 
O=c1[nH]cc(-c2cc(Cc3ccc(F)cc3)n[nH]2)c(=O)[nH]1

>  <score_type>  (60) 
oracle

>  <origin>  (60) 
adg

>  <m_score__min__energy>  (60) 
-14.49

>  <m_primary>  (60) 
energy

$$$$
60:0
     RDKit          3D

 41 45  0  0  0  0  0  0  0  0999 V2000
   58.2740   26.0950   47.0960 O   0  0  0  0  0  0  0  0  0  0  0  0
   58.4930   27.2980   46.7940 C   0  0  0  0  0  0  0  0  0  0  0  0
   59.3520   28.1480   47.6650 C   0  0  0  0  0  0  0  0  0  0  0  0
   58.9070   29.6310   47.6620 C   0  0  1  0  0  0  0  0  0  0  0  0
   60.0950   30.4520   48.1390 C   0  0  0  0  0  0  0  0  0  0  0  0
   60.5090   30.3710   49.4800 C   0  0  0  0  0  0  0  0  0  0  0  0
   61.6120   31.1000   49.9310 C   0  0  0  0  0  0  0  0  0  0  0  0
   62.3330   31.9110   49.0430 C   0  0  0  0  0  0  0  0  0  0  0  0
   63.4400   32.6500   49.4870 C   0  0  0  0  0  0  0  0  0  0  0  0
   64.1540   33.4500   48.5910 C   0  0  0  0  0  0  0  0  0  0  0  0
   63.7710   33.5180   47.2480 C   0  0  0  0  0  0  0  0  0  0  0  0
   62.6700   32.7860   46.7940 C   0  0  0  0  0  0  0  0  0  0  0  0
   61.9430   31.9800   47.6840 C   0  0  0  0  0  0  0  0  0  0  0  0
   60.8360   31.2420   47.2390 C   0  0  0  0  0  0  0  0  0  0  0  0
   58.3550   30.1210   46.3110 C   0  0  0  0  0  0  0  0  0  0  0  0
   58.0340   29.1710   45.3110 C   0  0  0  0  0  0  0  0  0  0  0  0
   57.6650   29.5830   44.0300 C   0  0  0  0  0  0  0  0  0  0  0  0
   57.5480   30.9340   43.7270 C   0  0  0  0  0  0  0  0  0  0  0  0
   57.7230   31.8970   44.7270 C   0  0  0  0  0  0  0  0  0  0  0  0
   57.5110   33.2530   44.4300 C   0  0  0  0  0  0  0  0  0  0  0  0
   57.6070   34.2150   45.4340 C   0  0  0  0  0  0  0  0  0  0  0  0
   57.8890   33.8330   46.7430 C   0  0  0  0  0  0  0  0  0  0  0  0
   58.1100   32.4890   47.0520 C   0  0  0  0  0  0  0  0  0  0  0  0
   58.0790   31.4970   46.0440 C   0  0  0  0  0  0  0  0  0  0  0  0
   58.0330   27.8020   45.5850 O   0  0  0  0  0  0  0  0  0  0  0  0
   59.2999   27.7652   48.6949 H   0  0  0  0  0  0  0  0  0  0  0  0
   60.3782   28.1039   47.2713 H   0  0  0  0  0  0  0  0  0  0  0  0
   58.0497   29.7514   48.3406 H   0  0  0  0  0  0  0  0  0  0  0  0
   59.9586   29.7268   50.1815 H   0  0  0  0  0  0  0  0  0  0  0  0
   61.9159   31.0376   50.9863 H   0  0  0  0  0  0  0  0  0  0  0  0
   63.7463   32.5995   50.5423 H   0  0  0  0  0  0  0  0  0  0  0  0
   65.0207   34.0284   48.9436 H   0  0  0  0  0  0  0  0  0  0  0  0
   64.3373   34.1489   46.5471 H   0  0  0  0  0  0  0  0  0  0  0  0
   62.3726   32.8418   45.7364 H   0  0  0  0  0  0  0  0  0  0  0  0
   60.5446   31.2807   46.1790 H   0  0  0  0  0  0  0  0  0  0  0  0
   57.4648   28.8311   43.2525 H   0  0  0  0  0  0  0  0  0  0  0  0
   57.3172   31.2474   42.6982 H   0  0  0  0  0  0  0  0  0  0  0  0
   57.2683   33.5571   43.4011 H   0  0  0  0  0  0  0  0  0  0  0  0
   57.4597   35.2779   45.1919 H   0  0  0  0  0  0  0  0  0  0  0  0
   57.9379   34.5928   47.5369 H   0  0  0  0  0  0  0  0  0  0  0  0
   58.3109   32.1978   48.0936 H   0  0  0  0  0  0  0  0  0  0  0  0
  1  2  2  0
  2  3  1  0
  3  4  1  0
  4  5  1  0
  5  6  2  0
  6  7  1  0
  7  8  2  0
  8  9  1  0
  9 10  2  0
 10 11  1  0
 11 12  2  0
 12 13  1  0
 13 14  2  0
  4 15  1  0
 15 16  2  0
 16 17  1  0
 17 18  2  0
 18 19  1  0
 19 20  2  0
 20 21  1  0
 21 22  2  0
 22 23  1  0
 23 24  2  0
 16 25  1  0
 25  2  1  0
 14  5  1  0
 24 15  1  0
 13  8  1  0
 24 19  1  0
  3 26  1  0
  3 27  1  0
  4 28  1  1
  6 29  1  0
  7 30  1  0
  9 31  1  0
 10 32  1  0
 11 33  1  0
 12 34  1  0
 14 35  1  0
 17 36  1  0
 18 37  1  0
 20 38  1  0
 21 39  1  0
 22 40  1  0
 23 41  1  0
M  END
>  <UniqueID>  (61) 
57

>  <SMILES>  (61) 
O=C1C[C@@H](c2ccc3ccccc3c2)c2c(ccc3ccccc23)O1

>  <Energy>  (61) 
63.14595960981752

>  <Genealogy>  (61) 
O=C1C[C@@H](c2ccc3ccccc3c2)c2c(ccc3ccccc23)O1 (chirality)
O=C1C[C@@H](c2ccc3ccccc3c2)c2c(ccc3ccccc23)O1 (3D coordinates assigned)
O=C1C[C@@H](c2ccc3ccccc3c2)c2c(ccc3ccccc23)O1 (nonaromatic ring conformer: 63.14595960981752 kcal/mol)

>  <smiles>  (61) 
O=C1CC(c2ccc3ccccc3c2)c2c(ccc3ccccc23)O1

>  <score_type>  (61) 
oracle

>  <origin>  (61) 
adg

>  <m_score__min__energy>  (61) 
-8.6300000000000008

>  <m_primary>  (61) 
energy

$$$$
61:0
     RDKit          3D

 35 37  0  0  0  0  0  0  0  0999 V2000
   58.5650   33.7180   44.2450 C   0  0  0  0  0  0  0  0  0  0  0  0
   58.8310   33.7020   45.7290 C   0  0  0  0  0  0  0  0  0  0  0  0
   59.2120   34.9030   46.3530 C   0  0  0  0  0  0  0  0  0  0  0  0
   59.4320   34.9530   47.7300 C   0  0  0  0  0  0  0  0  0  0  0  0
   59.2760   33.8060   48.5040 C   0  0  0  0  0  0  0  0  0  0  0  0
   58.9140   32.5990   47.9010 C   0  0  0  0  0  0  0  0  0  0  0  0
   58.7020   32.5220   46.5110 C   0  0  0  0  0  0  0  0  0  0  0  0
   58.3510   31.2030   45.9250 C   0  0  0  0  0  0  0  0  0  0  0  0
   59.0170   30.0880   46.3260 N   0  0  0  0  0  0  0  0  0  0  0  0
   58.7280   28.8820   45.7850 C   0  0  0  0  0  0  0  0  0  0  0  0
   59.3820   27.7170   46.1710 C   0  0  0  0  0  0  0  0  0  0  0  0
   60.2670   27.7730   47.0690 O   0  0  0  0  0  0  0  0  0  0  0  0
   59.0580   26.5200   45.5780 N   0  0  0  0  0  0  0  0  0  0  0  0
   59.7360   25.2850   46.0110 C   0  0  0  0  0  0  0  0  0  0  0  0
   58.0550   26.4530   44.6380 C   0  0  0  0  0  0  0  0  0  0  0  0
   57.7280   25.3420   44.1350 O   0  0  0  0  0  0  0  0  0  0  0  0
   57.3930   27.5750   44.2310 N   0  0  0  0  0  0  0  0  0  0  0  0
   57.6910   28.7940   44.7590 C   0  0  0  0  0  0  0  0  0  0  0  0
   57.0590   29.9480   44.3820 N   0  0  0  0  0  0  0  0  0  0  0  0
   56.0110   29.9660   43.3610 C   0  0  0  0  0  0  0  0  0  0  0  0
   57.3980   31.1060   44.9560 N   0  0  0  0  0  0  0  0  0  0  0  0
   57.4814   33.7832   44.0674 H   0  0  0  0  0  0  0  0  0  0  0  0
   59.0637   34.5878   43.7925 H   0  0  0  0  0  0  0  0  0  0  0  0
   58.9558   32.7947   43.7925 H   0  0  0  0  0  0  0  0  0  0  0  0
   59.3381   35.8135   45.7488 H   0  0  0  0  0  0  0  0  0  0  0  0
   59.7291   35.8998   48.2047 H   0  0  0  0  0  0  0  0  0  0  0  0
   59.4379   33.8504   49.5911 H   0  0  0  0  0  0  0  0  0  0  0  0
   58.7931   31.6975   48.5197 H   0  0  0  0  0  0  0  0  0  0  0  0
   59.7580   25.2448   47.1100 H   0  0  0  0  0  0  0  0  0  0  0  0
   59.1907   24.4120   45.6231 H   0  0  0  0  0  0  0  0  0  0  0  0
   60.7653   25.2764   45.6231 H   0  0  0  0  0  0  0  0  0  0  0  0
   56.6480   27.4720   43.5070 H   0  0  0  0  0  0  0  0  0  0  0  0
   55.0248   29.9829   43.8480 H   0  0  0  0  0  0  0  0  0  0  0  0
   56.1256   30.8623   42.7337 H   0  0  0  0  0  0  0  0  0  0  0  0
   56.0947   29.0663   42.7337 H   0  0  0  0  0  0  0  0  0  0  0  0
  1  2  1  0
  2  3  2  0
  3  4  1  0
  4  5  2  0
  5  6  1  0
  6  7  2  0
  7  8  1  0
  8  9  1  0
  9 10  2  0
 10 11  1  0
 11 12  2  0
 11 13  1  0
 13 14  1  0
 13 15  1  0
 15 16  2  0
 15 17  1  0
 17 18  2  0
 18 19  1  0
 19 20  1  0
 19 21  1  0
  7  2  1  0
 21  8  2  0
 18 10  1  0
  1 22  1  0
  1 23  1  0
  1 24  1  0
  3 25  1  0
  4 26  1  0
  5 27  1  0
  6 28  1  0
 14 29  1  0
 14 30  1  0
 14 31  1  0
 17 32  1  0
 20 33  1  0
 20 34  1  0
 20 35  1  0
M  CHG  1  17   1
M  END
>  <UniqueID>  (62) 
58

>  <SMILES>  (62) 
Cc1ccccc1-c1nc2c(=O)n(C)c(=O)[nH+]c-2n(C)n1

>  <Energy>  (62) 
51.12702812712505

>  <Genealogy>  (62) 
Cc1ccccc1-c1nc2c(=O)n(C)c(=O)[nH+]c-2n(C)n1 (protonated)
Cc1ccccc1-c1nc2c(=O)n(C)c(=O)[nH+]c-2n(C)n1 (3D coordinates assigned)
Cc1ccccc1-c1nc2c(=O)n(C)c(=O)[nH+]c-2n(C)n1 (optimized conformer: 51.12702812712505 kcal/mol)

>  <smiles>  (62) 
Cc1ccccc1-c1nc2c(=O)n(C)c(=O)nc-2n(C)n1

>  <score_type>  (62) 
oracle

>  <origin>  (62) 
adg

>  <m_score__min__energy>  (62) 
-5.9299999999999997

>  <m_primary>  (62) 
energy

$$$$
62:0
     RDKit          3D

 54 56  0  0  0  0  0  0  0  0999 V2000
   56.6400   27.6060   45.6260 C   0  0  0  0  0  0  0  0  0  0  0  0
   57.5480   28.5310   44.7860 C   0  0  0  0  0  0  0  0  0  0  0  0
   56.6370   29.5580   44.0690 C   0  0  0  0  0  0  0  0  0  0  0  0
   58.2630   27.7010   43.6980 C   0  0  0  0  0  0  0  0  0  0  0  0
   58.5990   29.1920   45.7020 C   0  0  0  0  0  0  0  0  0  0  0  0
   58.2810   29.7220   46.9740 C   0  0  0  0  0  0  0  0  0  0  0  0
   59.2640   30.3120   47.7730 C   0  0  0  0  0  0  0  0  0  0  0  0
   60.5910   30.3810   47.3340 C   0  0  0  0  0  0  0  0  0  0  0  0
   61.6340   31.0530   48.1790 C   0  0  0  0  0  0  0  0  0  0  0  0
   62.4930   31.8640   47.3250 N   0  0  0  0  0  0  0  0  0  0  0  0
   62.3940   33.2840   47.1770 C   0  0  0  0  0  0  0  0  0  0  0  0
   62.5960   33.7860   46.0380 O   0  0  0  0  0  0  0  0  0  0  0  0
   62.0190   34.1890   48.3270 C   0  0  2  0  0  0  0  0  0  0  0  0
   62.7200   33.7450   49.6320 C   0  0  0  0  0  0  0  0  0  0  0  0
   61.6430   33.1250   50.5310 C   0  0  0  0  0  0  0  0  0  0  0  0
   60.3860   33.5130   49.8620 C   0  0  0  0  0  0  0  0  0  0  0  0
   59.2460   33.3410   50.3710 O   0  0  0  0  0  0  0  0  0  0  0  0
   60.5850   34.1000   48.5880 N   0  0  0  0  0  0  0  0  0  0  0  0
   59.5790   34.9360   47.9250 C   0  0  0  0  0  0  0  0  0  0  0  0
   58.9840   34.2210   46.7430 C   0  0  0  0  0  0  0  0  0  0  0  0
   57.8930   33.3510   46.9110 C   0  0  0  0  0  0  0  0  0  0  0  0
   57.3140   32.7260   45.8010 C   0  0  0  0  0  0  0  0  0  0  0  0
   57.8120   32.9710   44.5190 C   0  0  0  0  0  0  0  0  0  0  0  0
   58.8920   33.8420   44.3440 C   0  0  0  0  0  0  0  0  0  0  0  0
   59.4770   34.4650   45.4510 C   0  0  0  0  0  0  0  0  0  0  0  0
   60.9200   29.8790   46.0700 C   0  0  0  0  0  0  0  0  0  0  0  0
   59.9410   29.2870   45.2690 C   0  0  0  0  0  0  0  0  0  0  0  0
   56.8196   27.7889   46.6957 H   0  0  0  0  0  0  0  0  0  0  0  0
   55.5859   27.8143   45.3903 H   0  0  0  0  0  0  0  0  0  0  0  0
   56.8678   26.5560   45.3903 H   0  0  0  0  0  0  0  0  0  0  0  0
   56.1027   30.1603   44.8185 H   0  0  0  0  0  0  0  0  0  0  0  0
   57.2525   30.2176   43.4396 H   0  0  0  0  0  0  0  0  0  0  0  0
   55.9087   29.0255   43.4396 H   0  0  0  0  0  0  0  0  0  0  0  0
   58.9098   26.9502   44.1755 H   0  0  0  0  0  0  0  0  0  0  0  0
   57.5138   27.1945   43.0717 H   0  0  0  0  0  0  0  0  0  0  0  0
   58.8748   28.3669   43.0717 H   0  0  0  0  0  0  0  0  0  0  0  0
   57.2449   29.6691   47.3397 H   0  0  0  0  0  0  0  0  0  0  0  0
   58.9924   30.7257   48.7554 H   0  0  0  0  0  0  0  0  0  0  0  0
   61.1446   31.6960   48.9254 H   0  0  0  0  0  0  0  0  0  0  0  0
   62.2381   30.2922   48.6951 H   0  0  0  0  0  0  0  0  0  0  0  0
   62.3210   35.2086   48.0456 H   0  0  0  0  0  0  0  0  0  0  0  0
   63.4992   33.0015   49.4082 H   0  0  0  0  0  0  0  0  0  0  0  0
   63.2019   34.5998   50.1291 H   0  0  0  0  0  0  0  0  0  0  0  0
   61.7462   32.0307   50.5740 H   0  0  0  0  0  0  0  0  0  0  0  0
   61.7011   33.4670   51.5749 H   0  0  0  0  0  0  0  0  0  0  0  0
   58.7795   35.1747   48.6418 H   0  0  0  0  0  0  0  0  0  0  0  0
   60.0645   35.8576   47.5714 H   0  0  0  0  0  0  0  0  0  0  0  0
   57.4932   33.1609   47.9180 H   0  0  0  0  0  0  0  0  0  0  0  0
   56.4649   32.0403   45.9382 H   0  0  0  0  0  0  0  0  0  0  0  0
   57.3549   32.4791   43.6477 H   0  0  0  0  0  0  0  0  0  0  0  0
   59.2819   34.0374   43.3342 H   0  0  0  0  0  0  0  0  0  0  0  0
   60.3268   35.1489   45.3091 H   0  0  0  0  0  0  0  0  0  0  0  0
   61.9553   29.9510   45.7053 H   0  0  0  0  0  0  0  0  0  0  0  0
   60.2196   28.8872   44.2828 H   0  0  0  0  0  0  0  0  0  0  0  0
  1  2  1  0
  2  3  1  0
  2  4  1  0
  2  5  1  0
  5  6  2  0
  6  7  1  0
  7  8  2  0
  8  9  1  0
  9 10  1  0
 10 11  1  0
 11 12  2  0
 11 13  1  0
 13 14  1  0
 14 15  1  0
 15 16  1  0
 16 17  2  0
 16 18  1  0
 18 19  1  0
 19 20  1  0
 20 21  2  0
 21 22  1  0
 22 23  2  0
 23 24  1  0
 24 25  2  0
  8 26  1  0
 26 27  2  0
 27  5  1  0
 18 13  1  0
 25 20  1  0
  1 28  1  0
  1 29  1  0
  1 30  1  0
  3 31  1  0
  3 32  1  0
  3 33  1  0
  4 34  1  0
  4 35  1  0
  4 36  1  0
  6 37  1  0
  7 38  1  0
  9 39  1  0
  9 40  1  0
 13 41  1  6
 14 42  1  0
 14 43  1  0
 15 44  1  0
 15 45  1  0
 19 46  1  0
 19 47  1  0
 21 48  1  0
 22 49  1  0
 23 50  1  0
 24 51  1  0
 25 52  1  0
 26 53  1  0
 27 54  1  0
M  CHG  1  10  -1
M  END
>  <UniqueID>  (63) 
59

>  <SMILES>  (63) 
CC(C)(C)c1ccc(C[N-]C(=O)[C@@H]2CCC(=O)N2Cc2ccccc2)cc1

>  <Energy>  (63) 
56.845968117545766

>  <Genealogy>  (63) 
CC(C)(C)c1ccc(C[N-]C(=O)C2CCC(=O)N2Cc2ccccc2)cc1 (protonated)
CC(C)(C)c1ccc(C[N-]C(=O)[C@@H]2CCC(=O)N2Cc2ccccc2)cc1 (chirality)
CC(C)(C)c1ccc(C[N-]C(=O)[C@@H]2CCC(=O)N2Cc2ccccc2)cc1 (3D coordinates assigned)
CC(C)(C)c1ccc(C[N-]C(=O)[C@@H]2CCC(=O)N2Cc2ccccc2)cc1 (nonaromatic ring conformer: 56.845968117545766 kcal/mol)

>  <smiles>  (63) 
CC(C)(C)c1ccc(CNC(=O)C2CCC(=O)N2Cc2ccccc2)cc1

>  <score_type>  (63) 
oracle

>  <origin>  (63) 
adg

>  <m_score__min__energy>  (63) 
-10.6

>  <m_primary>  (63) 
energy

$$$$
63:0
     RDKit          3D

 31 32  0  0  0  0  0  0  0  0999 V2000
   57.3510   27.1590   45.2600 C   0  0  0  0  0  0  0  0  0  0  0  0
   56.9800   28.5740   44.9710 C   0  0  0  0  0  0  0  0  0  0  0  0
   57.8550   29.6140   44.7440 C   0  0  0  0  0  0  0  0  0  0  0  0
   57.0180   30.6900   44.5050 C   0  0  0  0  0  0  0  0  0  0  0  0
   57.4160   32.0750   44.1950 C   0  0  0  0  0  0  0  0  0  0  0  0
   57.8470   32.3410   43.0410 O   0  0  0  0  0  0  0  0  0  0  0  0
   57.3190   33.1150   45.1790 N   0  0  0  0  0  0  0  0  0  0  0  0
   57.7680   34.4780   44.8900 C   0  0  0  0  0  0  0  0  0  0  0  0
   59.2980   34.5810   44.8760 C   0  0  0  0  0  0  0  0  0  0  0  0
   59.8850   34.3290   46.2430 C   0  0  0  0  0  0  0  0  0  0  0  0
   61.1920   33.8290   46.3690 C   0  0  0  0  0  0  0  0  0  0  0  0
   61.7300   33.5740   47.6340 C   0  0  0  0  0  0  0  0  0  0  0  0
   60.9680   33.8120   48.7810 C   0  0  0  0  0  0  0  0  0  0  0  0
   59.6660   34.3060   48.6650 C   0  0  0  0  0  0  0  0  0  0  0  0
   59.1230   34.5630   47.4020 C   0  0  0  0  0  0  0  0  0  0  0  0
   55.7330   30.2860   44.5840 N   0  0  0  0  0  0  0  0  0  0  0  0
   55.7500   29.0160   44.8620 O   0  0  0  0  0  0  0  0  0  0  0  0
   57.3913   27.0055   46.3485 H   0  0  0  0  0  0  0  0  0  0  0  0
   56.5989   26.4860   44.8224 H   0  0  0  0  0  0  0  0  0  0  0  0
   58.3365   26.9416   44.8224 H   0  0  0  0  0  0  0  0  0  0  0  0
   58.9548   29.5939   44.7511 H   0  0  0  0  0  0  0  0  0  0  0  0
   56.9100   32.8960   46.1140 H   0  0  0  0  0  0  0  0  0  0  0  0
   57.3816   34.7792   43.9051 H   0  0  0  0  0  0  0  0  0  0  0  0
   57.3874   35.1393   45.6823 H   0  0  0  0  0  0  0  0  0  0  0  0
   59.6993   33.8366   44.1726 H   0  0  0  0  0  0  0  0  0  0  0  0
   59.5710   35.6009   44.5674 H   0  0  0  0  0  0  0  0  0  0  0  0
   61.7944   33.6374   45.4688 H   0  0  0  0  0  0  0  0  0  0  0  0
   62.7549   33.1854   47.7266 H   0  0  0  0  0  0  0  0  0  0  0  0
   61.3932   33.6104   49.7753 H   0  0  0  0  0  0  0  0  0  0  0  0
   59.0672   34.4930   49.5686 H   0  0  0  0  0  0  0  0  0  0  0  0
   58.0968   34.9493   47.3147 H   0  0  0  0  0  0  0  0  0  0  0  0
  1  2  1  0
  2  3  2  0
  3  4  1  0
  4  5  1  0
  5  6  2  0
  5  7  1  0
  7  8  1  0
  8  9  1  0
  9 10  1  0
 10 11  2  0
 11 12  1  0
 12 13  2  0
 13 14  1  0
 14 15  2  0
  4 16  2  0
 16 17  1  0
 17  2  1  0
 15 10  1  0
  1 18  1  0
  1 19  1  0
  1 20  1  0
  3 21  1  0
  7 22  1  0
  8 23  1  0
  8 24  1  0
  9 25  1  0
  9 26  1  0
 11 27  1  0
 12 28  1  0
 13 29  1  0
 14 30  1  0
 15 31  1  0
M  END
>  <UniqueID>  (64) 
60

>  <SMILES>  (64) 
Cc1cc(C(=O)NCCc2ccccc2)no1

>  <Energy>  (64) 
54.93764425958022

>  <Genealogy>  (64) 
Cc1cc(C(=O)NCCc2ccccc2)no1 (3D coordinates assigned)
Cc1cc(C(=O)NCCc2ccccc2)no1 (optimized conformer: 54.93764425958022 kcal/mol)

>  <smiles>  (64) 
Cc1cc(C(=O)NCCc2ccccc2)no1

>  <score_type>  (64) 
oracle

>  <origin>  (64) 
adg

>  <m_score__min__energy>  (64) 
-7.1200000000000001

>  <m_primary>  (64) 
energy

$$$$
64:0
     RDKit          3D

 67 72  0  0  0  0  0  0  0  0999 V2000
   57.7380   34.6750   44.9280 C   0  0  0  0  0  0  0  0  0  0  0  0
   58.0700   33.2130   44.9220 C   0  0  0  0  0  0  0  0  0  0  0  0
   57.5390   32.3740   44.0040 N   0  0  0  0  0  0  0  0  0  0  0  0
   57.9170   31.1490   44.4230 C   0  0  0  0  0  0  0  0  0  0  0  0
   57.5220   29.9090   43.8900 C   0  0  0  0  0  0  0  0  0  0  0  0
   56.5110   29.8630   42.7480 C   0  0  0  0  0  0  0  0  0  0  0  0
   56.6600   28.7090   41.9930 F   0  0  0  0  0  0  0  0  0  0  0  0
   56.6500   30.9790   41.9450 F   0  0  0  0  0  0  0  0  0  0  0  0
   55.2150   29.8090   43.2160 F   0  0  0  0  0  0  0  0  0  0  0  0
   58.0630   28.7340   44.5050 C   0  0  0  0  0  0  0  0  0  0  0  0
   58.7830   28.8540   45.7430 C   0  0  0  0  0  0  0  0  0  0  0  0
   59.0590   30.1370   46.2690 C   0  0  0  0  0  0  0  0  0  0  0  0
   58.6520   31.2600   45.5590 C   0  0  0  0  0  0  0  0  0  0  0  0
   58.7370   32.5630   45.9190 N   0  0  0  0  0  0  0  0  0  0  0  0
   59.2670   33.1320   47.1640 C   0  0  0  0  0  0  0  0  0  0  0  0
   60.7710   33.0180   47.2350 C   0  0  0  0  0  0  0  0  0  0  0  0
   61.5860   33.9120   46.5210 C   0  0  0  0  0  0  0  0  0  0  0  0
   62.9760   33.8240   46.6030 C   0  0  0  0  0  0  0  0  0  0  0  0
   63.5650   32.8480   47.4060 C   0  0  0  0  0  0  0  0  0  0  0  0
   62.7680   31.9690   48.1390 C   0  0  0  0  0  0  0  0  0  0  0  0
   61.3720   32.0510   48.0540 C   0  0  0  0  0  0  0  0  0  0  0  0
   59.0860   27.6840   46.6600 C   0  0  0  0  0  0  0  0  0  0  0  0
   59.9020   26.5160   46.0830 C   0  0  0  0  0  0  0  0  0  0  0  0
   59.0610   25.6140   45.2690 N   0  0  0  0  0  0  0  0  0  0  0  0
   58.8350   24.3250   45.9730 C   0  0  0  0  0  0  0  0  0  0  0  0
   57.9000   24.4940   47.1760 C   0  0  0  0  0  0  0  0  0  0  0  0
   56.5450   23.9860   46.8980 N   0  0  0  0  0  0  0  0  0  0  0  0
   55.6380   24.8200   46.3120 C   0  0  0  0  0  0  0  0  0  0  0  0
   54.3710   24.4010   46.0540 N   0  0  0  0  0  0  0  0  0  0  0  0
   53.9780   23.1420   46.3540 C   0  0  0  0  0  0  0  0  0  0  0  0
   52.6640   22.7350   46.0910 C   0  0  0  0  0  0  0  0  0  0  0  0
   52.2560   21.4370   46.4150 C   0  0  0  0  0  0  0  0  0  0  0  0
   53.1580   20.5420   47.0030 C   0  0  0  0  0  0  0  0  0  0  0  0
   54.4700   20.9440   47.2640 C   0  0  0  0  0  0  0  0  0  0  0  0
   54.8880   22.2460   46.9520 C   0  0  0  0  0  0  0  0  0  0  0  0
   56.1880   22.7030   47.2230 C   0  0  0  0  0  0  0  0  0  0  0  0
   57.0150   21.9300   47.7850 O   0  0  0  0  0  0  0  0  0  0  0  0
   57.7510   26.2340   44.9670 C   0  0  0  0  0  0  0  0  0  0  0  0
   57.7900   27.3640   43.9240 C   0  0  0  0  0  0  0  0  0  0  0  0
   57.6577   35.0285   45.9666 H   0  0  0  0  0  0  0  0  0  0  0  0
   58.5322   35.2335   44.4109 H   0  0  0  0  0  0  0  0  0  0  0  0
   56.7805   34.8357   44.4109 H   0  0  0  0  0  0  0  0  0  0  0  0
   59.5886   30.2447   47.2271 H   0  0  0  0  0  0  0  0  0  0  0  0
   58.9872   34.1945   47.2177 H   0  0  0  0  0  0  0  0  0  0  0  0
   58.8405   32.5686   48.0070 H   0  0  0  0  0  0  0  0  0  0  0  0
   61.1246   34.6877   45.8922 H   0  0  0  0  0  0  0  0  0  0  0  0
   63.6065   34.5238   46.0348 H   0  0  0  0  0  0  0  0  0  0  0  0
   64.6609   32.7711   47.4615 H   0  0  0  0  0  0  0  0  0  0  0  0
   63.2358   31.2109   48.7843 H   0  0  0  0  0  0  0  0  0  0  0  0
   60.7455   31.3550   48.6312 H   0  0  0  0  0  0  0  0  0  0  0  0
   59.6423   28.0786   47.5230 H   0  0  0  0  0  0  0  0  0  0  0  0
   58.1021   27.2489   46.8895 H   0  0  0  0  0  0  0  0  0  0  0  0
   60.7066   26.9205   45.4513 H   0  0  0  0  0  0  0  0  0  0  0  0
   60.3146   25.9371   46.9224 H   0  0  0  0  0  0  0  0  0  0  0  0
   58.3856   23.6084   45.2698 H   0  0  0  0  0  0  0  0  0  0  0  0
   59.8052   23.9597   46.3407 H   0  0  0  0  0  0  0  0  0  0  0  0
   58.3178   23.9419   48.0308 H   0  0  0  0  0  0  0  0  0  0  0  0
   57.8212   25.5688   47.3965 H   0  0  0  0  0  0  0  0  0  0  0  0
   55.9360   25.8446   46.0449 H   0  0  0  0  0  0  0  0  0  0  0  0
   51.9529   23.4361   45.6297 H   0  0  0  0  0  0  0  0  0  0  0  0
   51.2238   21.1185   46.2073 H   0  0  0  0  0  0  0  0  0  0  0  0
   52.8336   19.5227   47.2593 H   0  0  0  0  0  0  0  0  0  0  0  0
   55.1793   20.2356   47.7167 H   0  0  0  0  0  0  0  0  0  0  0  0
   57.0797   25.4472   44.5924 H   0  0  0  0  0  0  0  0  0  0  0  0
   57.4057   26.6938   45.9047 H   0  0  0  0  0  0  0  0  0  0  0  0
   58.5815   27.1341   43.1955 H   0  0  0  0  0  0  0  0  0  0  0  0
   56.7903   27.4075   43.4671 H   0  0  0  0  0  0  0  0  0  0  0  0
  1  2  1  0
  2  3  2  0
  3  4  1  0
  4  5  2  0
  5  6  1  0
  6  7  1  0
  6  8  1  0
  6  9  1  0
  5 10  1  0
 10 11  2  0
 11 12  1  0
 12 13  2  0
 13 14  1  0
 14 15  1  0
 15 16  1  0
 16 17  2  0
 17 18  1  0
 18 19  2  0
 19 20  1  0
 20 21  2  0
 11 22  1  0
 22 23  1  0
 23 24  1  0
 24 25  1  0
 25 26  1  0
 26 27  1  0
 27 28  1  0
 28 29  2  0
 29 30  1  0
 30 31  2  0
 31 32  1  0
 32 33  2  0
 33 34  1  0
 34 35  2  0
 35 36  1  0
 36 37  2  0
 24 38  1  0
 38 39  1  0
 14  2  1  0
 21 16  1  0
 36 27  1  0
 13  4  1  0
 35 30  1  0
 39 10  1  0
  1 40  1  0
  1 41  1  0
  1 42  1  0
 12 43  1  0
 15 44  1  0
 15 45  1  0
 17 46  1  0
 18 47  1  0
 19 48  1  0
 20 49  1  0
 21 50  1  0
 22 51  1  0
 22 52  1  0
 23 53  1  0
 23 54  1  0
 25 55  1  0
 25 56  1  0
 26 57  1  0
 26 58  1  0
 28 59  1  0
 31 60  1  0
 32 61  1  0
 33 62  1  0
 34 63  1  0
 38 64  1  0
 38 65  1  0
 39 66  1  0
 39 67  1  0
M  END
>  <UniqueID>  (65) 
61

>  <SMILES>  (65) 
Cc1nc2c(C(F)(F)F)c3c(cc2n1Cc1ccccc1)CCN(CCn1cnc2ccccc2c1=O)CC3

>  <Energy>  (65) 
136.99901274728418

>  <Genealogy>  (65) 
Cc1nc2c(C(F)(F)F)c3c(cc2n1Cc1ccccc1)CCN(CCn1cnc2ccccc2c1=O)CC3 (3D coordinates assigned)
Cc1nc2c(C(F)(F)F)c3c(cc2n1Cc1ccccc1)CCN(CCn1cnc2ccccc2c1=O)CC3 (nonaromatic ring conformer: 136.99901274728418 kcal/mol)

>  <smiles>  (65) 
Cc1nc2c(C(F)(F)F)c3c(cc2n1Cc1ccccc1)CCN(CCn1cnc2ccccc2c1=O)CC3

>  <score_type>  (65) 
oracle

>  <origin>  (65) 
adg

>  <m_score__min__energy>  (65) 
-7.79

>  <m_primary>  (65) 
energy

$$$$
65:0
     RDKit          3D

 56 59  0  0  0  0  0  0  0  0999 V2000
   56.3200   29.4550   42.9910 O   0  0  0  0  0  0  0  0  0  0  0  0
   56.5260   29.6170   44.2230 C   0  0  0  0  0  0  0  0  0  0  0  0
   56.0780   28.6060   45.1360 N   0  0  0  0  0  0  0  0  0  0  0  0
   56.7120   27.3390   45.3630 C   0  0  0  0  0  0  0  0  0  0  0  0
   56.1920   26.4860   46.3450 C   0  0  0  0  0  0  0  0  0  0  0  0
   56.7950   25.2500   46.5980 C   0  0  0  0  0  0  0  0  0  0  0  0
   57.9350   24.8680   45.8850 C   0  0  0  0  0  0  0  0  0  0  0  0
   58.5150   23.6660   46.1260 F   0  0  0  0  0  0  0  0  0  0  0  0
   58.4750   25.7230   44.9210 C   0  0  0  0  0  0  0  0  0  0  0  0
   57.8740   26.9590   44.6660 C   0  0  0  0  0  0  0  0  0  0  0  0
   57.2590   30.8150   44.6850 C   0  0  0  0  0  0  0  0  0  0  0  0
   57.3650   31.9420   43.8530 C   0  0  0  0  0  0  0  0  0  0  0  0
   58.0230   33.0900   44.3010 C   0  0  0  0  0  0  0  0  0  0  0  0
   58.6140   33.1180   45.5740 C   0  0  0  0  0  0  0  0  0  0  0  0
   59.2840   34.3690   46.0750 C   0  0  0  0  0  0  0  0  0  0  0  0
   60.7730   34.1170   46.3400 C   0  0  0  0  0  0  0  0  0  0  0  0
   61.0690   34.2900   47.7800 N   0  0  0  0  0  0  0  0  0  0  0  0
   62.4060   33.7780   48.1450 C   0  0  0  0  0  0  0  0  0  0  0  0
   62.5010   32.2550   47.9510 C   0  0  0  0  0  0  0  0  0  0  0  0
   61.2220   31.6150   48.2740 N   0  0  0  0  0  0  0  0  0  0  0  0
   60.8930   30.3300   47.7120 C   0  0  0  0  0  0  0  0  0  0  0  0
   60.3150   29.3300   48.5140 C   0  0  0  0  0  0  0  0  0  0  0  0
   59.9680   28.0940   47.9590 C   0  0  0  0  0  0  0  0  0  0  0  0
   60.1950   27.8460   46.6030 C   0  0  0  0  0  0  0  0  0  0  0  0
   60.7660   28.8330   45.7940 C   0  0  0  0  0  0  0  0  0  0  0  0
   60.9880   28.5720   44.4440 O   0  0  0  0  0  0  0  0  0  0  0  0
   61.1100   30.0750   46.3470 C   0  0  0  0  0  0  0  0  0  0  0  0
   60.2970   32.3120   49.1740 C   0  0  0  0  0  0  0  0  0  0  0  0
   59.9960   33.7310   48.6460 C   0  0  0  0  0  0  0  0  0  0  0  0
   58.5250   31.9860   46.3990 C   0  0  0  0  0  0  0  0  0  0  0  0
   57.8530   30.8440   45.9580 C   0  0  0  0  0  0  0  0  0  0  0  0
   55.3049   26.7900   46.9200 H   0  0  0  0  0  0  0  0  0  0  0  0
   56.3718   24.5777   47.3588 H   0  0  0  0  0  0  0  0  0  0  0  0
   59.3738   25.4233   44.3622 H   0  0  0  0  0  0  0  0  0  0  0  0
   58.3108   27.6370   43.9180 H   0  0  0  0  0  0  0  0  0  0  0  0
   56.9278   31.9204   42.8439 H   0  0  0  0  0  0  0  0  0  0  0  0
   58.0783   33.9769   43.6527 H   0  0  0  0  0  0  0  0  0  0  0  0
   59.1808   35.1615   45.3191 H   0  0  0  0  0  0  0  0  0  0  0  0
   58.8039   34.6747   47.0163 H   0  0  0  0  0  0  0  0  0  0  0  0
   61.0281   33.0909   46.0367 H   0  0  0  0  0  0  0  0  0  0  0  0
   61.3691   34.8373   45.7605 H   0  0  0  0  0  0  0  0  0  0  0  0
   63.1607   34.2665   47.5111 H   0  0  0  0  0  0  0  0  0  0  0  0
   62.5818   34.0013   49.2077 H   0  0  0  0  0  0  0  0  0  0  0  0
   62.7595   32.0390   46.9039 H   0  0  0  0  0  0  0  0  0  0  0  0
   63.2766   31.8587   48.6228 H   0  0  0  0  0  0  0  0  0  0  0  0
   60.1350   29.5206   49.5823 H   0  0  0  0  0  0  0  0  0  0  0  0
   59.5156   27.3158   48.5913 H   0  0  0  0  0  0  0  0  0  0  0  0
   59.9238   26.8716   46.1707 H   0  0  0  0  0  0  0  0  0  0  0  0
   61.8760   28.2190   44.1120 H   0  0  0  0  0  0  0  0  0  0  0  0
   61.5522   30.8541   45.7087 H   0  0  0  0  0  0  0  0  0  0  0  0
   59.3578   31.7432   49.2393 H   0  0  0  0  0  0  0  0  0  0  0  0
   60.7609   32.3931   50.1681 H   0  0  0  0  0  0  0  0  0  0  0  0
   59.0641   33.6935   48.0628 H   0  0  0  0  0  0  0  0  0  0  0  0
   59.9174   34.3893   49.5238 H   0  0  0  0  0  0  0  0  0  0  0  0
   58.9866   31.9984   47.3974 H   0  0  0  0  0  0  0  0  0  0  0  0
   57.7883   29.9615   46.6114 H   0  0  0  0  0  0  0  0  0  0  0  0
  1  2  2  0
  2  3  1  0
  3  4  1  0
  4  5  2  0
  5  6  1  0
  6  7  2  0
  7  8  1  0
  7  9  1  0
  9 10  2  0
  2 11  1  0
 11 12  2  0
 12 13  1  0
 13 14  2  0
 14 15  1  0
 15 16  1  0
 16 17  1  0
 17 18  1  0
 18 19  1  0
 19 20  1  0
 20 21  1  0
 21 22  2  0
 22 23  1  0
 23 24  2  0
 24 25  1  0
 25 26  1  0
 25 27  2  0
 20 28  1  0
 28 29  1  0
 14 30  1  0
 30 31  2  0
 10  4  1  0
 31 11  1  0
 29 17  1  0
 27 21  1  0
  5 32  1  0
  6 33  1  0
  9 34  1  0
 10 35  1  0
 12 36  1  0
 13 37  1  0
 15 38  1  0
 15 39  1  0
 16 40  1  0
 16 41  1  0
 18 42  1  0
 18 43  1  0
 19 44  1  0
 19 45  1  0
 22 46  1  0
 23 47  1  0
 24 48  1  0
 26 49  1  0
 27 50  1  0
 28 51  1  0
 28 52  1  0
 29 53  1  0
 29 54  1  0
 30 55  1  0
 31 56  1  0
M  CHG  1   3  -1
M  END
>  <UniqueID>  (66) 
62

>  <SMILES>  (66) 
O=C([N-]c1ccc(F)cc1)c1ccc(CCN2CCN(c3cccc(O)c3)CC2)cc1

>  <Energy>  (66) 
75.85403828829752

>  <Genealogy>  (66) 
O=C([N-]c1ccc(F)cc1)c1ccc(CCN2CCN(c3cccc(O)c3)CC2)cc1 (protonated)
O=C([N-]c1ccc(F)cc1)c1ccc(CCN2CCN(c3cccc(O)c3)CC2)cc1 (3D coordinates assigned)
O=C([N-]c1ccc(F)cc1)c1ccc(CCN2CCN(c3cccc(O)c3)CC2)cc1 (nonaromatic ring conformer: 75.85403828829752 kcal/mol)

>  <smiles>  (66) 
O=C(Nc1ccc(F)cc1)c1ccc(CCN2CCN(c3cccc(O)c3)CC2)cc1

>  <score_type>  (66) 
oracle

>  <origin>  (66) 
adg

>  <m_score__min__energy>  (66) 
-10.619999999999999

>  <m_primary>  (66) 
energy

$$$$
66:0
     RDKit          3D

 45 48  0  0  0  0  0  0  0  0999 V2000
   66.8570   32.3600   50.6620 C   0  0  0  0  0  0  0  0  0  0  0  0
   65.8310   33.3760   50.9320 N   0  0  0  0  0  0  0  0  0  0  0  0
   66.0470   34.3290   52.0270 C   0  0  0  0  0  0  0  0  0  0  0  0
   64.6230   33.4360   50.1290 C   0  0  0  0  0  0  0  0  0  0  0  0
   64.5220   32.7250   48.9160 C   0  0  0  0  0  0  0  0  0  0  0  0
   63.3590   32.7840   48.1440 C   0  0  0  0  0  0  0  0  0  0  0  0
   62.2700   33.5670   48.5530 C   0  0  0  0  0  0  0  0  0  0  0  0
   61.0440   33.6100   47.7250 C   0  0  0  0  0  0  0  0  0  0  0  0
   60.8780   34.4710   46.6910 N   0  0  0  0  0  0  0  0  0  0  0  0
   59.6430   34.1840   46.2280 C   0  0  0  0  0  0  0  0  0  0  0  0
   58.9990   34.8360   45.1770 C   0  0  0  0  0  0  0  0  0  0  0  0
   57.6870   34.4430   44.8710 C   0  0  0  0  0  0  0  0  0  0  0  0
   57.0530   33.4330   45.6200 C   0  0  0  0  0  0  0  0  0  0  0  0
   57.7470   32.8150   46.6700 C   0  0  0  0  0  0  0  0  0  0  0  0
   59.0270   33.2040   46.9130 N   0  0  0  0  0  0  0  0  0  0  0  0
   59.9080   32.8190   47.8530 C   0  0  0  0  0  0  0  0  0  0  0  0
   59.6240   31.9020   48.9180 N   0  0  0  0  0  0  0  0  0  0  0  0
   58.9400   32.2740   50.1270 C   0  0  0  0  0  0  0  0  0  0  0  0
   59.3610   33.4090   50.8360 C   0  0  0  0  0  0  0  0  0  0  0  0
   58.7210   33.7820   52.0210 C   0  0  0  0  0  0  0  0  0  0  0  0
   57.6600   33.0190   52.5140 C   0  0  0  0  0  0  0  0  0  0  0  0
   57.2410   31.8750   51.8260 C   0  0  0  0  0  0  0  0  0  0  0  0
   55.8000   30.8250   52.5060 Br  0  0  0  0  0  0  0  0  0  0  0  0
   57.8820   31.4990   50.6400 C   0  0  0  0  0  0  0  0  0  0  0  0
   62.3540   34.2640   49.7680 C   0  0  0  0  0  0  0  0  0  0  0  0
   63.5150   34.2050   50.5420 C   0  0  0  0  0  0  0  0  0  0  0  0
   67.2485   31.9723   51.6140 H   0  0  0  0  0  0  0  0  0  0  0  0
   66.4134   31.5353   50.0849 H   0  0  0  0  0  0  0  0  0  0  0  0
   67.6773   32.8116   50.0849 H   0  0  0  0  0  0  0  0  0  0  0  0
   65.9299   33.8124   52.9911 H   0  0  0  0  0  0  0  0  0  0  0  0
   67.0624   34.7459   51.9553 H   0  0  0  0  0  0  0  0  0  0  0  0
   65.3106   35.1429   51.9553 H   0  0  0  0  0  0  0  0  0  0  0  0
   65.3706   32.1152   48.5725 H   0  0  0  0  0  0  0  0  0  0  0  0
   63.2971   32.2111   47.2070 H   0  0  0  0  0  0  0  0  0  0  0  0
   59.5021   35.6311   44.6073 H   0  0  0  0  0  0  0  0  0  0  0  0
   57.1507   34.9267   44.0413 H   0  0  0  0  0  0  0  0  0  0  0  0
   56.0220   33.1314   45.3833 H   0  0  0  0  0  0  0  0  0  0  0  0
   57.2684   32.0357   47.2813 H   0  0  0  0  0  0  0  0  0  0  0  0
   59.8650   30.8950   48.7690 H   0  0  0  0  0  0  0  0  0  0  0  0
   60.2008   34.0096   50.4565 H   0  0  0  0  0  0  0  0  0  0  0  0
   59.0533   34.6777   52.5662 H   0  0  0  0  0  0  0  0  0  0  0  0
   57.1535   33.3177   53.4437 H   0  0  0  0  0  0  0  0  0  0  0  0
   57.5578   30.5937   50.1059 H   0  0  0  0  0  0  0  0  0  0  0  0
   61.4980   34.8620   50.1138 H   0  0  0  0  0  0  0  0  0  0  0  0
   63.5661   34.7660   51.4868 H   0  0  0  0  0  0  0  0  0  0  0  0
  1  2  1  0
  2  3  1  0
  2  4  1  0
  4  5  2  0
  5  6  1  0
  6  7  2  0
  7  8  1  0
  8  9  1  0
  9 10  2  0
 10 11  1  0
 11 12  2  0
 12 13  1  0
 13 14  2  0
 14 15  1  0
 15 16  1  0
 16 17  1  0
 17 18  1  0
 18 19  2  0
 19 20  1  0
 20 21  2  0
 21 22  1  0
 22 23  1  0
 22 24  2  0
  7 25  1  0
 25 26  2  0
 26  4  1  0
 16  8  2  0
 24 18  1  0
 15 10  1  0
  1 27  1  0
  1 28  1  0
  1 29  1  0
  3 30  1  0
  3 31  1  0
  3 32  1  0
  5 33  1  0
  6 34  1  0
 11 35  1  0
 12 36  1  0
 13 37  1  0
 14 38  1  0
 17 39  1  0
 19 40  1  0
 20 41  1  0
 21 42  1  0
 24 43  1  0
 25 44  1  0
 26 45  1  0
M  END
>  <UniqueID>  (67) 
63

>  <SMILES>  (67) 
CN(C)c1ccc(-c2nc3ccccn3c2Nc2cccc(Br)c2)cc1

>  <Energy>  (67) 
95.0254683808661

>  <Genealogy>  (67) 
CN(C)c1ccc(-c2nc3ccccn3c2Nc2cccc(Br)c2)cc1 (3D coordinates assigned)
CN(C)c1ccc(-c2nc3ccccn3c2Nc2cccc(Br)c2)cc1 (optimized conformer: 95.0254683808661 kcal/mol)

>  <smiles>  (67) 
CN(C)c1ccc(-c2nc3ccccn3c2Nc2cccc(Br)c2)cc1

>  <score_type>  (67) 
oracle

>  <origin>  (67) 
adg

>  <m_score__min__energy>  (67) 
-7.6200000000000001

>  <m_primary>  (67) 
energy

$$$$
67:0
     RDKit          3D

 31 32  0  0  0  0  0  0  0  0999 V2000
   56.3880   25.0840   46.6080 C   0  0  0  0  0  0  0  0  0  0  0  0
   55.5300   26.1660   46.0260 C   0  0  0  0  0  0  0  0  0  0  0  0
   54.2890   25.9700   45.9370 O   0  0  0  0  0  0  0  0  0  0  0  0
   56.0530   27.4380   45.6110 N   0  0  0  0  0  0  0  0  0  0  0  0
   57.4440   27.7990   45.3190 C   0  0  1  0  0  0  0  0  0  0  0  0
   57.9690   27.0190   44.1060 C   0  0  0  0  0  0  0  0  0  0  0  0
   57.6050   29.2930   45.1850 C   0  0  0  0  0  0  0  0  0  0  0  0
   56.8460   30.1140   44.3580 C   0  0  0  0  0  0  0  0  0  0  0  0
   57.1410   31.4770   44.4930 C   0  0  0  0  0  0  0  0  0  0  0  0
   58.1220   31.7490   45.4490 C   0  0  0  0  0  0  0  0  0  0  0  0
   58.6480   33.0850   45.8340 C   0  0  0  0  0  0  0  0  0  0  0  0
   58.8210   34.0870   44.8590 C   0  0  0  0  0  0  0  0  0  0  0  0
   59.3160   35.3470   45.2130 C   0  0  0  0  0  0  0  0  0  0  0  0
   59.6450   35.6220   46.5400 C   0  0  0  0  0  0  0  0  0  0  0  0
   59.4830   34.6390   47.5170 C   0  0  0  0  0  0  0  0  0  0  0  0
   58.9880   33.3780   47.1700 C   0  0  0  0  0  0  0  0  0  0  0  0
   58.6070   30.2770   46.1150 S   0  0  0  0  0  0  0  0  0  0  0  0
   56.3477   25.1349   47.7061 H   0  0  0  0  0  0  0  0  0  0  0  0
   56.0193   24.1034   46.2726 H   0  0  0  0  0  0  0  0  0  0  0  0
   57.4268   25.2195   46.2726 H   0  0  0  0  0  0  0  0  0  0  0  0
   58.0713   27.5029   46.1727 H   0  0  0  0  0  0  0  0  0  0  0  0
   58.5521   26.1527   44.4516 H   0  0  0  0  0  0  0  0  0  0  0  0
   57.1205   26.6711   43.4985 H   0  0  0  0  0  0  0  0  0  0  0  0
   58.6107   27.6741   43.4985 H   0  0  0  0  0  0  0  0  0  0  0  0
   56.0852   29.7293   43.6629 H   0  0  0  0  0  0  0  0  0  0  0  0
   56.6457   32.2605   43.9007 H   0  0  0  0  0  0  0  0  0  0  0  0
   58.5647   33.8770   43.8101 H   0  0  0  0  0  0  0  0  0  0  0  0
   59.4459   36.1220   44.4432 H   0  0  0  0  0  0  0  0  0  0  0  0
   60.0322   36.6138   46.8165 H   0  0  0  0  0  0  0  0  0  0  0  0
   59.7454   34.8566   48.5629 H   0  0  0  0  0  0  0  0  0  0  0  0
   58.8630   32.6085   47.9461 H   0  0  0  0  0  0  0  0  0  0  0  0
  1  2  1  0
  2  3  2  0
  2  4  1  0
  4  5  1  0
  5  6  1  0
  5  7  1  0
  7  8  2  0
  8  9  1  0
  9 10  2  0
 10 11  1  0
 11 12  2  0
 12 13  1  0
 13 14  2  0
 14 15  1  0
 15 16  2  0
 10 17  1  0
 17  7  1  0
 16 11  1  0
  1 18  1  0
  1 19  1  0
  1 20  1  0
  5 21  1  1
  6 22  1  0
  6 23  1  0
  6 24  1  0
  8 25  1  0
  9 26  1  0
 12 27  1  0
 13 28  1  0
 14 29  1  0
 15 30  1  0
 16 31  1  0
M  CHG  1   4  -1
M  END
>  <UniqueID>  (68) 
64

>  <SMILES>  (68) 
CC(=O)[N-][C@@H](C)c1ccc(-c2ccccc2)s1

>  <Energy>  (68) 
57.40053369190931

>  <Genealogy>  (68) 
CC(=O)[N-]C(C)c1ccc(-c2ccccc2)s1 (protonated)
CC(=O)[N-][C@@H](C)c1ccc(-c2ccccc2)s1 (chirality)
CC(=O)[N-][C@@H](C)c1ccc(-c2ccccc2)s1 (3D coordinates assigned)
CC(=O)[N-][C@@H](C)c1ccc(-c2ccccc2)s1 (optimized conformer: 57.40053369190931 kcal/mol)

>  <smiles>  (68) 
CC(=O)NC(C)c1ccc(-c2ccccc2)s1

>  <score_type>  (68) 
oracle

>  <origin>  (68) 
adg

>  <m_score__min__energy>  (68) 
-9.2799999999999994

>  <m_primary>  (68) 
energy

$$$$
68:0
     RDKit          3D

 27 29  0  0  0  0  0  0  0  0999 V2000
   58.1540   33.7050   45.5880 C   0  0  0  0  0  0  0  0  0  0  0  0
   58.8210   33.0080   46.5930 C   0  0  0  0  0  0  0  0  0  0  0  0
   58.7880   31.6140   46.6170 C   0  0  0  0  0  0  0  0  0  0  0  0
   58.0830   30.8930   45.6340 C   0  0  0  0  0  0  0  0  0  0  0  0
   57.3810   31.6070   44.6240 C   0  0  0  0  0  0  0  0  0  0  0  0
   57.4410   33.0110   44.6100 C   0  0  0  0  0  0  0  0  0  0  0  0
   56.5690   30.9290   43.5360 C   0  0  0  0  0  0  0  0  0  0  0  0
   56.2250   29.4450   43.7970 C   0  0  1  0  0  0  0  0  0  0  0  0
   57.3920   28.5220   43.4210 C   0  0  0  0  0  0  0  0  0  0  0  0
   58.5780   28.7540   44.3590 C   0  0  0  0  0  0  0  0  0  0  0  0
   58.1010   29.3720   45.6840 C   0  0  2  0  0  0  0  0  0  0  0  0
   56.8400   28.8300   46.0580 O   0  0  0  0  0  0  0  0  0  0  0  0
   55.8250   29.2290   45.2120 N   0  0  0  0  0  0  0  0  0  0  0  0
   58.1895   34.8042   45.5655 H   0  0  0  0  0  0  0  0  0  0  0  0
   59.3744   33.5578   47.3685 H   0  0  0  0  0  0  0  0  0  0  0  0
   59.3188   31.0713   47.4131 H   0  0  0  0  0  0  0  0  0  0  0  0
   56.9196   33.5694   43.8186 H   0  0  0  0  0  0  0  0  0  0  0  0
   55.6249   31.4818   43.4220 H   0  0  0  0  0  0  0  0  0  0  0  0
   57.1984   30.9415   42.6339 H   0  0  0  0  0  0  0  0  0  0  0  0
   55.3707   29.1896   43.1529 H   0  0  0  0  0  0  0  0  0  0  0  0
   57.0660   27.4744   43.5009 H   0  0  0  0  0  0  0  0  0  0  0  0
   57.7039   28.7428   42.3895 H   0  0  0  0  0  0  0  0  0  0  0  0
   59.0711   27.7924   44.5644 H   0  0  0  0  0  0  0  0  0  0  0  0
   59.2843   29.4457   43.8766 H   0  0  0  0  0  0  0  0  0  0  0  0
   58.8281   29.1043   46.4648 H   0  0  0  0  0  0  0  0  0  0  0  0
   55.1120   28.4650   45.2330 H   0  0  0  0  0  0  0  0  0  0  0  0
   55.3610   30.0750   45.6190 H   0  0  0  0  0  0  0  0  0  0  0  0
  1  2  2  0
  2  3  1  0
  3  4  2  0
  4  5  1  0
  5  6  2  0
  5  7  1  0
  7  8  1  0
  8  9  1  0
  9 10  1  0
 10 11  1  0
 11 12  1  0
 12 13  1  0
  6  1  1  0
 13  8  1  0
 11  4  1  0
  1 14  1  0
  2 15  1  0
  3 16  1  0
  6 17  1  0
  7 18  1  0
  7 19  1  0
  8 20  1  6
  9 21  1  0
  9 22  1  0
 10 23  1  0
 10 24  1  0
 11 25  1  1
 13 26  1  0
 13 27  1  0
M  CHG  1  13   1
M  END
>  <UniqueID>  (69) 
65

>  <SMILES>  (69) 
c1ccc2c(c1)C[C@H]1CC[C@@H]2O[NH2+]1

>  <Energy>  (69) 
50.46883940612953

>  <Genealogy>  (69) 
c1ccc2c(c1)CC1CCC2O[NH2+]1 (protonated)
c1ccc2c(c1)C[C@H]1CC[C@@H]2O[NH2+]1 (chirality)
c1ccc2c(c1)C[C@H]1CC[C@@H]2O[NH2+]1 (3D coordinates assigned)
c1ccc2c(c1)C[C@H]1CC[C@@H]2O[NH2+]1 (nonaromatic ring conformer: 50.46883940612953 kcal/mol)

>  <smiles>  (69) 
c1ccc2c(c1)CC1CCC2ON1

>  <score_type>  (69) 
oracle

>  <origin>  (69) 
adg

>  <m_score__min__energy>  (69) 
-4.4800000000000004

>  <m_primary>  (69) 
energy

$$$$
69:0
     RDKit          3D

 33 35  0  0  0  0  0  0  0  0999 V2000
   54.7510   29.2360   43.0230 H   0  0  0  0  0  0  0  0  0  0  0  0
   58.2900   27.5300   46.4170 N   0  0  0  0  0  0  0  0  0  0  0  0
   57.7110   28.5690   45.8920 C   0  0  0  0  0  0  0  0  0  0  0  0
   56.4660   30.7200   44.7980 N   0  0  0  0  0  0  0  0  0  0  0  0
   57.6460   30.8900   45.4520 C   0  0  0  0  0  0  0  0  0  0  0  0
   58.2490   32.2400   45.5750 C   0  0  0  0  0  0  0  0  0  0  0  0
   57.8110   33.2990   44.7560 C   0  0  0  0  0  0  0  0  0  0  0  0
   57.0180   33.1240   44.0141 H   0  0  0  0  0  0  0  0  0  0  0  0
   58.3780   34.5720   44.8800 C   0  0  0  0  0  0  0  0  0  0  0  0
   58.0291   35.3930   44.2364 H   0  0  0  0  0  0  0  0  0  0  0  0
   59.3860   34.8030   45.8190 C   0  0  0  0  0  0  0  0  0  0  0  0
   59.8298   35.8049   45.9149 H   0  0  0  0  0  0  0  0  0  0  0  0
   59.8300   33.7610   46.6360 C   0  0  0  0  0  0  0  0  0  0  0  0
   60.6244   33.9431   47.3747 H   0  0  0  0  0  0  0  0  0  0  0  0
   59.2670   32.4870   46.5170 C   0  0  0  0  0  0  0  0  0  0  0  0
   59.6216   31.6710   47.1639 H   0  0  0  0  0  0  0  0  0  0  0  0
   58.2640   29.8070   45.9950 N   0  0  0  0  0  0  0  0  0  0  0  0
   55.9100   29.4880   44.6870 C   0  0  0  0  0  0  0  0  0  0  0  0
   54.7880   29.3430   44.0620 N   0  0  0  0  0  0  0  0  0  0  0  0
   58.6120   26.2980   45.6960 C   0  0  0  0  0  0  0  0  0  0  0  0
   59.1035   26.5544   44.7459 H   0  0  0  0  0  0  0  0  0  0  0  0
   59.2808   25.6886   46.3215 H   0  0  0  0  0  0  0  0  0  0  0  0
   57.3650   25.5040   45.4080 C   0  0  0  0  0  0  0  0  0  0  0  0
   56.2600   25.5750   46.2690 C   0  0  0  0  0  0  0  0  0  0  0  0
   56.2990   26.2202   47.1591 H   0  0  0  0  0  0  0  0  0  0  0  0
   55.1410   24.8490   46.0070 N   0  0  0  0  0  0  0  0  0  0  0  0
   55.0500   24.0430   44.9160 C   0  0  0  0  0  0  0  0  0  0  0  0
   54.1316   23.4654   44.7342 H   0  0  0  0  0  0  0  0  0  0  0  0
   56.1220   23.9480   44.0260 C   0  0  0  0  0  0  0  0  0  0  0  0
   56.0533   23.2987   43.1408 H   0  0  0  0  0  0  0  0  0  0  0  0
   57.2810   24.6850   44.2710 C   0  0  0  0  0  0  0  0  0  0  0  0
   58.1291   24.6243   43.5731 H   0  0  0  0  0  0  0  0  0  0  0  0
   56.5340   28.4140   45.2350 N   0  0  0  0  0  0  0  0  0  0  0  0
  1  2  1  0
  2  3  2  0
  3  4  1  0
  4  5  1  0
  5  6  1  0
  6  7  2  0
  7  8  1  0
  7  9  1  0
  9 10  1  0
  9 11  2  0
 11 12  1  0
 11 13  1  0
 13 14  1  0
 13 15  2  0
 15 16  1  0
  5 17  2  0
 17 18  1  0
 18 19  2  0
 19 20  1  0
 20 21  1  0
 20 22  1  0
 20 23  1  0
 23 24  2  0
 24 25  1  0
 24 26  1  0
 26 27  2  0
 27 28  1  0
 27 29  1  0
 29 30  1  0
 29 31  2  0
 31 32  1  0
 18 33  1  0
 33  3  1  0
 15  6  1  0
 31 23  1  0
M  CHG  2   4  -1  33  -1
M  END
>  <UniqueID>  (70) 
66

>  <SMILES>  (70) 
[H]/N=c1/[n-]c(-c2ccccc2)n/c(=N\Cc2cccnc2)[n-]1

>  <Energy>  (70) 
36.81171278628005

>  <Genealogy>  (70) 
N=c1[n-]c(-c2ccccc2)nc(=NCc2cccnc2)[n-]1 (protonated)
[H]/N=c1/[n-]c(-c2ccccc2)n/c(=N\Cc2cccnc2)[n-]1 (cis-trans isomerization)
[H]/N=c1/[n-]c(-c2ccccc2)n/c(=N\Cc2cccnc2)[n-]1 (3D coordinates assigned)
[H]/N=c1/[n-]c(-c2ccccc2)n/c(=N\Cc2cccnc2)[n-]1 (optimized conformer: 36.81171278628005 kcal/mol)

>  <smiles>  (70) 
N=c1[nH]c(-c2ccccc2)nc(=NCc2cccnc2)[nH]1

>  <score_type>  (70) 
oracle

>  <origin>  (70) 
adg

>  <m_score__min__energy>  (70) 
-10.890000000000001

>  <m_primary>  (70) 
energy

$$$$
70:0
     RDKit          3D

 55 59  0  0  0  0  0  0  0  0999 V2000
   55.6760   24.9750   46.4110 N   0  0  0  0  0  0  0  0  0  0  0  0
   56.4550   25.7590   46.0690 C   0  0  0  0  0  0  0  0  0  0  0  0
   57.4250   26.7340   45.6440 C   0  0  0  0  0  0  0  0  0  0  0  0
   58.2460   26.4690   44.5420 C   0  0  0  0  0  0  0  0  0  0  0  0
   59.1900   27.4130   44.1330 C   0  0  0  0  0  0  0  0  0  0  0  0
   59.3180   28.6220   44.8200 C   0  0  0  0  0  0  0  0  0  0  0  0
   58.5000   28.9010   45.9290 C   0  0  0  0  0  0  0  0  0  0  0  0
   58.6430   30.1810   46.6630 C   0  0  0  0  0  0  0  0  0  0  0  0
   59.3120   30.3890   47.8580 C   0  0  0  0  0  0  0  0  0  0  0  0
   59.1490   31.7300   48.1890 C   0  0  0  0  0  0  0  0  0  0  0  0
   58.4200   32.3520   47.2340 N   0  0  0  0  0  0  0  0  0  0  0  0
   58.0670   33.7720   47.1680 C   0  0  0  0  0  0  0  0  0  0  0  0
   59.1480   34.5510   46.4140 C   0  0  0  0  0  0  0  0  0  0  0  0
   60.5080   34.2630   46.9910 C   0  0  0  0  0  0  0  0  0  0  0  0
   61.4650   33.5700   46.2320 C   0  0  0  0  0  0  0  0  0  0  0  0
   62.7170   33.2720   46.7800 C   0  0  0  0  0  0  0  0  0  0  0  0
   63.0180   33.6550   48.0910 C   0  0  0  0  0  0  0  0  0  0  0  0
   64.2310   33.3650   48.6200 F   0  0  0  0  0  0  0  0  0  0  0  0
   62.0640   34.3320   48.8560 C   0  0  0  0  0  0  0  0  0  0  0  0
   60.8110   34.6310   48.3120 C   0  0  0  0  0  0  0  0  0  0  0  0
   58.1310   31.4170   46.3030 C   0  0  0  0  0  0  0  0  0  0  0  0
   57.4270   31.6850   45.1330 O   0  0  0  0  0  0  0  0  0  0  0  0
   59.5820   32.3610   49.4060 N   0  0  0  0  0  0  0  0  0  0  0  0
   60.6460   31.8510   50.2160 C   0  0  0  0  0  0  0  0  0  0  0  0
   60.8390   32.3320   51.3650 O   0  0  0  0  0  0  0  0  0  0  0  0
   61.5480   30.7750   49.7050 C   0  0  0  0  0  0  0  0  0  0  0  0
   60.7940   29.4770   49.5720 C   0  0  0  0  0  0  0  0  0  0  0  0
   61.1740   28.2930   50.3820 C   0  0  0  0  0  0  0  0  0  0  0  0
   61.9770   28.4490   51.5280 C   0  0  0  0  0  0  0  0  0  0  0  0
   62.3480   27.3370   52.2900 C   0  0  0  0  0  0  0  0  0  0  0  0
   61.9320   26.0570   51.9140 C   0  0  0  0  0  0  0  0  0  0  0  0
   62.4010   24.6640   52.8700 Cl  0  0  0  0  0  0  0  0  0  0  0  0
   61.1460   25.8890   50.7700 C   0  0  0  0  0  0  0  0  0  0  0  0
   60.7710   26.9980   50.0050 C   0  0  0  0  0  0  0  0  0  0  0  0
   59.8430   29.3480   48.6920 N   0  0  0  0  0  0  0  0  0  0  0  0
   57.5510   27.9460   46.3360 C   0  0  0  0  0  0  0  0  0  0  0  0
   58.1477   25.5177   43.9985 H   0  0  0  0  0  0  0  0  0  0  0  0
   59.8349   27.2037   43.2668 H   0  0  0  0  0  0  0  0  0  0  0  0
   60.0637   29.3609   44.4914 H   0  0  0  0  0  0  0  0  0  0  0  0
   57.1064   33.8836   46.6439 H   0  0  0  0  0  0  0  0  0  0  0  0
   57.9854   34.1695   48.1904 H   0  0  0  0  0  0  0  0  0  0  0  0
   59.1346   34.2549   45.3547 H   0  0  0  0  0  0  0  0  0  0  0  0
   58.9423   35.6273   46.5108 H   0  0  0  0  0  0  0  0  0  0  0  0
   61.2292   33.2605   45.2031 H   0  0  0  0  0  0  0  0  0  0  0  0
   63.4660   32.7356   46.1789 H   0  0  0  0  0  0  0  0  0  0  0  0
   62.2994   34.6303   49.8883 H   0  0  0  0  0  0  0  0  0  0  0  0
   60.0602   35.1562   48.9207 H   0  0  0  0  0  0  0  0  0  0  0  0
   59.1210   33.2460   49.7130 H   0  0  0  0  0  0  0  0  0  0  0  0
   61.9408   31.0686   48.7204 H   0  0  0  0  0  0  0  0  0  0  0  0
   62.3758   30.6357   50.4159 H   0  0  0  0  0  0  0  0  0  0  0  0
   62.3148   29.4526   51.8258 H   0  0  0  0  0  0  0  0  0  0  0  0
   62.9691   27.4701   53.1881 H   0  0  0  0  0  0  0  0  0  0  0  0
   60.8216   24.8814   50.4707 H   0  0  0  0  0  0  0  0  0  0  0  0
   60.1573   26.8575   49.1030 H   0  0  0  0  0  0  0  0  0  0  0  0
   56.9045   28.1515   47.2019 H   0  0  0  0  0  0  0  0  0  0  0  0
  1  2  3  0
  2  3  1  0
  3  4  2  0
  4  5  1  0
  5  6  2  0
  6  7  1  0
  7  8  1  0
  8  9  1  0
  9 10  2  0
 10 11  1  0
 11 12  1  0
 12 13  1  0
 13 14  1  0
 14 15  2  0
 15 16  1  0
 16 17  2  0
 17 18  1  0
 17 19  1  0
 19 20  2  0
 11 21  1  0
 21 22  1  0
 10 23  1  0
 23 24  1  0
 24 25  2  0
 24 26  1  0
 26 27  1  0
 27 28  1  0
 28 29  2  0
 29 30  1  0
 30 31  2  0
 31 32  1  0
 31 33  1  0
 33 34  2  0
 27 35  2  0
  7 36  2  0
 36  3  1  0
 21  8  2  0
 34 28  1  0
 35  9  1  0
 20 14  1  0
  4 37  1  0
  5 38  1  0
  6 39  1  0
 12 40  1  0
 12 41  1  0
 13 42  1  0
 13 43  1  0
 15 44  1  0
 16 45  1  0
 19 46  1  0
 20 47  1  0
 23 48  1  0
 26 49  1  0
 26 50  1  0
 29 51  1  0
 30 52  1  0
 33 53  1  0
 34 54  1  0
 36 55  1  0
M  CHG  1  22  -1
M  END
>  <UniqueID>  (71) 
67

>  <SMILES>  (71) 
N#Cc1cccc(-c2c3c(n(CCc4ccc(F)cc4)c2[O-])NC(=O)CC(c2ccc(Cl)cc2)=N3)c1

>  <Energy>  (71) 
99.61429647708422

>  <Genealogy>  (71) 
N#Cc1cccc(-c2c3c(n(CCc4ccc(F)cc4)c2[O-])NC(=O)CC(c2ccc(Cl)cc2)=N3)c1 (protonated)
N#Cc1cccc(-c2c3c(n(CCc4ccc(F)cc4)c2[O-])NC(=O)CC(c2ccc(Cl)cc2)=N3)c1 (3D coordinates assigned)
N#Cc1cccc(-c2c3c(n(CCc4ccc(F)cc4)c2[O-])NC(=O)CC(c2ccc(Cl)cc2)=N3)c1 (nonaromatic ring conformer: 99.61429647708422 kcal/mol)

>  <smiles>  (71) 
N#Cc1cccc(-c2c3c(n(CCc4ccc(F)cc4)c2O)NC(=O)CC(c2ccc(Cl)cc2)=N3)c1

>  <score_type>  (71) 
oracle

>  <origin>  (71) 
adg

>  <m_score__min__energy>  (71) 
-9.7200000000000006

>  <m_primary>  (71) 
energy

$$$$
71:0
     RDKit          3D

 42 45  0  0  0  0  0  0  0  0999 V2000
   57.4118   22.5959   42.8528 H   0  0  0  0  0  0  0  0  0  0  0  0
   56.7820   22.8700   43.7120 C   0  0  0  0  0  0  0  0  0  0  0  0
   56.1650   21.9390   44.5360 C   0  0  0  0  0  0  0  0  0  0  0  0
   56.2680   20.2010   44.3690 Cl  0  0  0  0  0  0  0  0  0  0  0  0
   55.2980   22.7460   45.7270 S   0  0  0  0  0  0  0  0  0  0  0  0
   55.7000   24.2970   45.2040 C   0  0  0  0  0  0  0  0  0  0  0  0
   55.2540   25.5460   45.8330 C   0  0  0  0  0  0  0  0  0  0  0  0
   54.0840   25.9650   45.6240 O   0  0  0  0  0  0  0  0  0  0  0  0
   56.1680   26.3050   46.6350 N   0  0  0  0  0  0  0  0  0  0  0  0
   57.3410   26.9950   46.1760 C   0  0  0  0  0  0  0  0  0  0  0  0
   58.5680   26.3360   45.9920 C   0  0  0  0  0  0  0  0  0  0  0  0
   58.6539   25.2624   46.2155 H   0  0  0  0  0  0  0  0  0  0  0  0
   59.6780   27.0420   45.5260 C   0  0  0  0  0  0  0  0  0  0  0  0
   60.6404   26.5252   45.3966 H   0  0  0  0  0  0  0  0  0  0  0  0
   59.5730   28.4020   45.2230 C   0  0  0  0  0  0  0  0  0  0  0  0
   60.4564   28.9519   44.8663 H   0  0  0  0  0  0  0  0  0  0  0  0
   58.3450   29.0730   45.3710 C   0  0  0  0  0  0  0  0  0  0  0  0
   58.2130   30.4750   45.0560 N   0  0  0  0  0  0  0  0  0  0  0  0
   58.4710   31.4450   45.9220 N   0  0  0  0  0  0  0  0  0  0  0  0
   58.2390   32.6130   45.2970 C   0  0  0  0  0  0  0  0  0  0  0  0
   58.3740   33.7650   45.8890 N   0  0  0  0  0  0  0  0  0  0  0  0
   59.6170   34.3770   46.2620 C   0  0  0  0  0  0  0  0  0  0  0  0
   59.6860   35.6350   46.2830 O   0  0  0  0  0  0  0  0  0  0  0  0
   60.7920   33.5800   46.6900 C   0  0  0  0  0  0  0  0  0  0  0  0
   62.0700   34.1650   46.7580 C   0  0  0  0  0  0  0  0  0  0  0  0
   62.2080   35.2254   46.4999 H   0  0  0  0  0  0  0  0  0  0  0  0
   63.1610   33.3910   47.1550 C   0  0  0  0  0  0  0  0  0  0  0  0
   64.1623   33.8419   47.2184 H   0  0  0  0  0  0  0  0  0  0  0  0
   62.9800   32.0460   47.4710 C   0  0  0  0  0  0  0  0  0  0  0  0
   63.8340   31.4293   47.7878 H   0  0  0  0  0  0  0  0  0  0  0  0
   61.7030   31.4900   47.3810 C   0  0  0  0  0  0  0  0  0  0  0  0
   61.5499   30.4283   47.6248 H   0  0  0  0  0  0  0  0  0  0  0  0
   60.6460   32.2550   46.9930 N   0  0  0  0  0  0  0  0  0  0  0  0
   59.7040   31.8060   46.9430 H   0  0  0  0  0  0  0  0  0  0  0  0
   57.8030   32.3890   44.0020 C   0  0  0  0  0  0  0  0  0  0  0  0
   57.5220   33.1339   43.2430 H   0  0  0  0  0  0  0  0  0  0  0  0
   57.8030   31.0140   43.8850 C   0  0  0  0  0  0  0  0  0  0  0  0
   57.5163   30.4485   42.9861 H   0  0  0  0  0  0  0  0  0  0  0  0
   57.2340   28.3520   45.8470 C   0  0  0  0  0  0  0  0  0  0  0  0
   56.2664   28.8624   45.9624 H   0  0  0  0  0  0  0  0  0  0  0  0
   56.5210   24.1930   44.0860 C   0  0  0  0  0  0  0  0  0  0  0  0
   56.9249   25.0641   43.5492 H   0  0  0  0  0  0  0  0  0  0  0  0
  1  2  1  0
  2  3  2  0
  3  4  1  0
  3  5  1  0
  5  6  1  0
  6  7  1  0
  7  8  2  0
  7  9  1  0
  9 10  1  0
 10 11  2  0
 11 12  1  0
 11 13  1  0
 13 14  1  0
 13 15  2  0
 15 16  1  0
 15 17  1  0
 17 18  1  0
 18 19  1  0
 19 20  1  0
 20 21  2  0
 21 22  1  0
 22 23  2  0
 22 24  1  0
 24 25  2  0
 25 26  1  0
 25 27  1  0
 27 28  1  0
 27 29  2  0
 29 30  1  0
 29 31  1  0
 31 32  1  0
 31 33  2  0
 33 34  1  0
 20 35  1  0
 35 36  1  0
 35 37  2  0
 37 38  1  0
 17 39  2  0
 39 40  1  0
  6 41  2  0
 41 42  1  0
 41  2  1  0
 39 10  1  0
 37 18  1  0
 33 24  1  0
M  CHG  3   9  -1  19  -1  33   1
M  END
>  <UniqueID>  (72) 
68

>  <SMILES>  (72) 
O=C(/N=c1\ccn(-c2cccc([N-]C(=O)c3ccc(Cl)s3)c2)[n-]1)c1cccc[nH+]1

>  <Energy>  (72) 
117.60066745698089

>  <Genealogy>  (72) 
O=C(N=c1ccn(-c2cccc([N-]C(=O)c3ccc(Cl)s3)c2)[n-]1)c1cccc[nH+]1 (protonated)
O=C(/N=c1\ccn(-c2cccc([N-]C(=O)c3ccc(Cl)s3)c2)[n-]1)c1cccc[nH+]1 (cis-trans isomerization)
O=C(/N=c1\ccn(-c2cccc([N-]C(=O)c3ccc(Cl)s3)c2)[n-]1)c1cccc[nH+]1 (3D coordinates assigned)
O=C(/N=c1\ccn(-c2cccc([N-]C(=O)c3ccc(Cl)s3)c2)[n-]1)c1cccc[nH+]1 (optimized conformer: 117.60066745698089 kcal/mol)

>  <smiles>  (72) 
O=C(N=c1ccn(-c2cccc(NC(=O)c3ccc(Cl)s3)c2)[nH]1)c1ccccn1

>  <score_type>  (72) 
oracle

>  <origin>  (72) 
adg

>  <m_score__min__energy>  (72) 
-10.41

>  <m_primary>  (72) 
energy

$$$$
72:0
     RDKit          3D

 32 33  0  0  0  0  0  0  0  0999 V2000
   59.8110   30.6680   49.0470 C   0  0  0  0  0  0  0  0  0  0  0  0
   59.1560   30.6820   47.7060 C   0  0  0  0  0  0  0  0  0  0  0  0
   58.8900   31.8050   46.9960 N   0  0  0  0  0  0  0  0  0  0  0  0
   58.3290   31.4320   45.8750 O   0  0  0  0  0  0  0  0  0  0  0  0
   58.2250   30.1260   45.8350 C   0  0  0  0  0  0  0  0  0  0  0  0
   57.7020   29.3120   44.8390 C   0  0  0  0  0  0  0  0  0  0  0  0
   57.1770   29.8660   43.5490 C   0  0  0  0  0  0  0  0  0  0  0  0
   55.6500   29.9410   43.5770 C   0  0  0  0  0  0  0  0  0  0  0  0
   55.1430   29.1190   44.5930 O   0  0  0  0  0  0  0  0  0  0  0  0
   57.7450   27.9610   45.0490 N   0  0  0  0  0  0  0  0  0  0  0  0
   58.2440   27.4180   46.1740 N   0  0  0  0  0  0  0  0  0  0  0  0
   58.2620   25.9540   46.2800 C   0  0  0  0  0  0  0  0  0  0  0  0
   57.1840   25.3270   45.3890 C   0  0  0  0  0  0  0  0  0  0  0  0
   55.8240   25.4480   46.0040 C   0  0  0  0  0  0  0  0  0  0  0  0
   55.1440   26.7000   45.9890 N   0  0  0  0  0  0  0  0  0  0  0  0
   55.2940   24.4520   46.5660 O   0  0  0  0  0  0  0  0  0  0  0  0
   58.7580   28.2190   47.1710 C   0  0  0  0  0  0  0  0  0  0  0  0
   59.2440   27.7290   48.2270 O   0  0  0  0  0  0  0  0  0  0  0  0
   58.7350   29.5940   46.9710 C   0  0  0  0  0  0  0  0  0  0  0  0
   59.0403   30.6845   49.8317 H   0  0  0  0  0  0  0  0  0  0  0  0
   60.4185   29.7567   49.1488 H   0  0  0  0  0  0  0  0  0  0  0  0
   60.4569   31.5525   49.1488 H   0  0  0  0  0  0  0  0  0  0  0  0
   57.5857   30.8758   43.3963 H   0  0  0  0  0  0  0  0  0  0  0  0
   57.4843   29.2026   42.7271 H   0  0  0  0  0  0  0  0  0  0  0  0
   55.3407   30.9802   43.7623 H   0  0  0  0  0  0  0  0  0  0  0  0
   55.2562   29.5986   42.6086 H   0  0  0  0  0  0  0  0  0  0  0  0
   55.6620   28.2740   44.5610 H   0  0  0  0  0  0  0  0  0  0  0  0
   59.2488   25.5825   45.9667 H   0  0  0  0  0  0  0  0  0  0  0  0
   58.0599   25.6751   47.3247 H   0  0  0  0  0  0  0  0  0  0  0  0
   57.1828   25.8391   44.4155 H   0  0  0  0  0  0  0  0  0  0  0  0
   57.4144   24.2581   45.2693 H   0  0  0  0  0  0  0  0  0  0  0  0
   55.5440   27.5210   45.4830 H   0  0  0  0  0  0  0  0  0  0  0  0
  1  2  1  0
  2  3  2  0
  3  4  1  0
  4  5  1  0
  5  6  1  0
  6  7  1  0
  7  8  1  0
  8  9  1  0
  6 10  2  0
 10 11  1  0
 11 12  1  0
 12 13  1  0
 13 14  1  0
 14 15  1  0
 14 16  2  0
 11 17  1  0
 17 18  2  0
 17 19  1  0
 19  2  1  0
 19  5  2  0
  1 20  1  0
  1 21  1  0
  1 22  1  0
  7 23  1  0
  7 24  1  0
  8 25  1  0
  8 26  1  0
  9 27  1  0
 12 28  1  0
 12 29  1  0
 13 30  1  0
 13 31  1  0
 15 32  1  0
M  CHG  1  15  -1
M  END
>  <UniqueID>  (73) 
69

>  <SMILES>  (73) 
Cc1noc2c(CCO)nn(CCC([NH-])=O)c(=O)c12

>  <Energy>  (73) 
65.77910643015346

>  <Genealogy>  (73) 
Cc1noc2c(CCO)nn(CCC([NH-])=O)c(=O)c12 (protonated)
Cc1noc2c(CCO)nn(CCC([NH-])=O)c(=O)c12 (3D coordinates assigned)
Cc1noc2c(CCO)nn(CCC([NH-])=O)c(=O)c12 (optimized conformer: 65.77910643015346 kcal/mol)

>  <smiles>  (73) 
Cc1noc2c(CCO)nn(CCC(N)=O)c(=O)c12

>  <score_type>  (73) 
oracle

>  <origin>  (73) 
adg

>  <m_score__min__energy>  (73) 
-10.15

>  <m_primary>  (73) 
energy

$$$$
73:0
     RDKit          3D

 32 34  0  0  0  0  0  0  0  0999 V2000
   55.1460   28.9780   44.8610 O   0  0  0  0  0  0  0  0  0  0  0  0
   56.5060   28.7180   44.9800 C   0  0  0  0  0  0  0  0  0  0  0  0
   57.0640   27.6370   45.6190 C   0  0  0  0  0  0  0  0  0  0  0  0
   56.4650   26.6030   46.2580 N   0  0  0  0  0  0  0  0  0  0  0  0
   57.2490   25.6440   46.8370 C   0  0  0  0  0  0  0  0  0  0  0  0
   58.6610   25.7350   46.7750 C   0  0  0  0  0  0  0  0  0  0  0  0
   59.2660   26.8180   46.1110 C   0  0  0  0  0  0  0  0  0  0  0  0
   58.4230   27.7620   45.5360 C   0  0  0  0  0  0  0  0  0  0  0  0
   58.6680   28.9290   44.8410 C   0  0  0  0  0  0  0  0  0  0  0  0
   59.9330   29.4350   44.5510 O   0  0  0  0  0  0  0  0  0  0  0  0
   57.4910   29.5140   44.4920 N   0  0  0  0  0  0  0  0  0  0  0  0
   57.3060   30.8000   43.8150 C   0  0  0  0  0  0  0  0  0  0  0  0
   56.7900   31.8680   44.7890 C   0  0  0  0  0  0  0  0  0  0  0  0
   57.9150   32.7130   45.3280 C   0  0  0  0  0  0  0  0  0  0  0  0
   58.1180   34.0170   44.8450 C   0  0  0  0  0  0  0  0  0  0  0  0
   59.1920   34.7820   45.3100 C   0  0  0  0  0  0  0  0  0  0  0  0
   60.0710   34.2500   46.2580 C   0  0  0  0  0  0  0  0  0  0  0  0
   59.8790   32.9520   46.7390 C   0  0  0  0  0  0  0  0  0  0  0  0
   58.8070   32.1830   46.2740 C   0  0  0  0  0  0  0  0  0  0  0  0
   56.7793   24.7950   47.3551 H   0  0  0  0  0  0  0  0  0  0  0  0
   59.2839   24.9600   47.2454 H   0  0  0  0  0  0  0  0  0  0  0  0
   60.3601   26.9137   46.0495 H   0  0  0  0  0  0  0  0  0  0  0  0
   60.6590   28.8570   44.1480 H   0  0  0  0  0  0  0  0  0  0  0  0
   58.2697   31.1288   43.3989 H   0  0  0  0  0  0  0  0  0  0  0  0
   56.5634   30.6695   43.0141 H   0  0  0  0  0  0  0  0  0  0  0  0
   56.0759   32.5176   44.2617 H   0  0  0  0  0  0  0  0  0  0  0  0
   56.3050   31.3586   45.6347 H   0  0  0  0  0  0  0  0  0  0  0  0
   57.4289   34.4377   44.0979 H   0  0  0  0  0  0  0  0  0  0  0  0
   59.3454   35.8027   44.9298 H   0  0  0  0  0  0  0  0  0  0  0  0
   60.9142   34.8534   46.6255 H   0  0  0  0  0  0  0  0  0  0  0  0
   60.5719   32.5344   47.4844 H   0  0  0  0  0  0  0  0  0  0  0  0
   58.6624   31.1597   46.6507 H   0  0  0  0  0  0  0  0  0  0  0  0
  1  2  1  0
  2  3  2  0
  3  4  1  0
  4  5  2  0
  5  6  1  0
  6  7  2  0
  7  8  1  0
  8  9  2  0
  9 10  1  0
  9 11  1  0
 11 12  1  0
 12 13  1  0
 13 14  1  0
 14 15  2  0
 15 16  1  0
 16 17  2  0
 17 18  1  0
 18 19  2  0
 11  2  1  0
 19 14  1  0
  8  3  1  0
  5 20  1  0
  6 21  1  0
  7 22  1  0
 10 23  1  0
 12 24  1  0
 12 25  1  0
 13 26  1  0
 13 27  1  0
 15 28  1  0
 16 29  1  0
 17 30  1  0
 18 31  1  0
 19 32  1  0
M  CHG  1   1  -1
M  END
>  <UniqueID>  (74) 
70

>  <SMILES>  (74) 
[O-]c1c2ncccc2c(O)n1CCc1ccccc1

>  <Energy>  (74) 
69.2402415412698

>  <Genealogy>  (74) 
[O-]c1c2ncccc2c(O)n1CCc1ccccc1 (protonated)
[O-]c1c2ncccc2c(O)n1CCc1ccccc1 (3D coordinates assigned)
[O-]c1c2ncccc2c(O)n1CCc1ccccc1 (optimized conformer: 69.2402415412698 kcal/mol)

>  <smiles>  (74) 
Oc1c2cccnc2c(O)n1CCc1ccccc1

>  <score_type>  (74) 
oracle

>  <origin>  (74) 
adg

>  <m_score__min__energy>  (74) 
-10.130000000000001

>  <m_primary>  (74) 
energy

$$$$
74:0
     RDKit          3D

 19 21  0  0  0  0  0  0  0  0999 V2000
   52.2020   29.2490   49.3870 F   0  0  0  0  0  0  0  0  0  0  0  0
   51.7800   29.8610   50.5200 C   0  0  0  0  0  0  0  0  0  0  0  0
   51.4750   29.0850   51.6650 C   0  0  0  0  0  0  0  0  0  0  0  0
   51.0340   29.6990   52.8530 C   0  0  0  0  0  0  0  0  0  0  0  0
   50.9200   31.0840   52.8390 C   0  0  0  0  0  0  0  0  0  0  0  0
   51.2140   31.8530   51.7330 C   0  0  0  0  0  0  0  0  0  0  0  0
   51.6500   31.2650   50.5490 C   0  0  0  0  0  0  0  0  0  0  0  0
   51.0180   33.1800   51.9810 N   0  0  0  0  0  0  0  0  0  0  0  0
   50.6030   33.1300   53.2700 C   0  0  0  0  0  0  0  0  0  0  0  0
   50.2250   34.0940   54.1750 C   0  0  0  0  0  0  0  0  0  0  0  0
   49.9120   33.3590   55.3320 C   0  0  0  0  0  0  0  0  0  0  0  0
   50.1170   32.0000   55.0600 C   0  0  0  0  0  0  0  0  0  0  0  0
   50.5360   31.9250   53.7930 N   0  0  0  0  0  0  0  0  0  0  0  0
   51.5838   27.9911   51.6258 H   0  0  0  0  0  0  0  0  0  0  0  0
   50.7912   29.1102   53.7498 H   0  0  0  0  0  0  0  0  0  0  0  0
   51.8855   31.8755   49.6648 H   0  0  0  0  0  0  0  0  0  0  0  0
   50.1785   35.1832   54.0283 H   0  0  0  0  0  0  0  0  0  0  0  0
   49.5653   33.7792   56.2876 H   0  0  0  0  0  0  0  0  0  0  0  0
   49.9633   31.1597   55.7531 H   0  0  0  0  0  0  0  0  0  0  0  0
  1  2  1  0
  2  3  2  0
  3  4  1  0
  4  5  2  0
  5  6  1  0
  6  7  2  0
  6  8  1  0
  8  9  1  0
  9 10  2  0
 10 11  1  0
 11 12  2  0
 12 13  1  0
  7  2  1  0
 13  9  1  0
 13  5  1  0
  3 14  1  0
  4 15  1  0
  7 16  1  0
 10 17  1  0
 11 18  1  0
 12 19  1  0
M  CHG  1   8  -1
M  END
>  <UniqueID>  (75) 
71

>  <SMILES>  (75) 
Fc1ccc2c(c1)[n-]c1cccn12

>  <Energy>  (75) 
111.30252522086602

>  <Genealogy>  (75) 
Fc1ccc2c(c1)[n-]c1cccn12 (protonated)
Fc1ccc2c(c1)[n-]c1cccn12 (3D coordinates assigned)
Fc1ccc2c(c1)[n-]c1cccn12 (optimized conformer: 111.30252522086602 kcal/mol)

>  <smiles>  (75) 
Fc1ccc2c(c1)[nH]c1cccn12

>  <score_type>  (75) 
oracle

>  <origin>  (75) 
adg

>  <m_score__min__energy>  (75) 
-7.0199999999999996

>  <m_primary>  (75) 
energy

$$$$
75:0
     RDKit          3D

 57 60  0  0  0  0  0  0  0  0999 V2000
   55.1490   28.9200   45.6140 H   0  0  0  0  0  0  0  0  0  0  0  0
   56.0930   29.1750   45.2520 N   0  0  0  0  0  0  0  0  0  0  0  0
   57.2750   28.7800   45.9460 C   0  0  0  0  0  0  0  0  0  0  0  0
   57.4350   27.5730   46.2660 O   0  0  0  0  0  0  0  0  0  0  0  0
   58.2970   29.7810   46.2860 C   0  0  0  0  0  0  0  0  0  0  0  0
   58.2230   31.1450   46.0880 C   0  0  0  0  0  0  0  0  0  0  0  0
   57.3824   31.6790   45.6209 H   0  0  0  0  0  0  0  0  0  0  0  0
   59.3550   31.7190   46.5630 N   0  0  0  0  0  0  0  0  0  0  0  0
   59.6900   33.1680   46.5580 C   0  0  1  0  0  0  0  0  0  0  0  0
   59.1940   33.8030   45.2290 C   0  0  0  0  0  0  0  0  0  0  0  0
   59.3494   33.0777   44.4167 H   0  0  0  0  0  0  0  0  0  0  0  0
   59.7696   34.7279   45.0764 H   0  0  0  0  0  0  0  0  0  0  0  0
   57.7720   34.1760   45.2550 C   0  0  0  0  0  0  0  0  0  0  0  0
   56.6520   34.4690   45.2740 N   0  0  0  0  0  0  0  0  0  0  0  0
   59.0440   33.8740   47.8040 C   0  0  0  0  0  0  0  0  0  0  0  0
   58.2782   34.5750   47.4405 H   0  0  0  0  0  0  0  0  0  0  0  0
   58.6354   33.0714   48.4356 H   0  0  0  0  0  0  0  0  0  0  0  0
   60.0320   34.6610   48.6900 C   0  0  0  0  0  0  0  0  0  0  0  0
   60.3419   35.5645   48.1444 H   0  0  0  0  0  0  0  0  0  0  0  0
   59.5046   34.8924   49.6272 H   0  0  0  0  0  0  0  0  0  0  0  0
   61.2550   33.8950   49.0610 N   0  0  1  0  0  0  0  0  0  0  0  0
   61.9950   34.6270   49.1880 H   0  0  0  0  0  0  0  0  0  0  0  0
   61.1740   33.2260   50.3900 C   0  0  0  0  0  0  0  0  0  0  0  0
   61.9137   32.4121   50.4085 H   0  0  0  0  0  0  0  0  0  0  0  0
   61.3667   34.0067   51.1406 H   0  0  0  0  0  0  0  0  0  0  0  0
   59.8140   32.6360   50.7280 C   0  0  0  0  0  0  0  0  0  0  0  0
   59.3720   31.4710   50.0740 C   0  0  0  0  0  0  0  0  0  0  0  0
   59.9946   31.0173   49.2888 H   0  0  0  0  0  0  0  0  0  0  0  0
   58.1490   30.8850   50.4130 C   0  0  0  0  0  0  0  0  0  0  0  0
   57.8275   29.9578   49.9160 H   0  0  0  0  0  0  0  0  0  0  0  0
   57.3340   31.4760   51.3830 C   0  0  0  0  0  0  0  0  0  0  0  0
   56.0780   30.8700   51.7380 C   0  0  0  0  0  0  0  0  0  0  0  0
   55.0680   30.3820   52.0230 N   0  0  0  0  0  0  0  0  0  0  0  0
   57.7300   32.6720   51.9900 C   0  0  0  0  0  0  0  0  0  0  0  0
   57.0786   33.1495   52.7368 H   0  0  0  0  0  0  0  0  0  0  0  0
   58.9510   33.2630   51.6510 C   0  0  0  0  0  0  0  0  0  0  0  0
   59.2690   34.4600   52.2030 F   0  0  0  0  0  0  0  0  0  0  0  0
   61.7740   32.9960   47.9940 C   0  0  0  0  0  0  0  0  0  0  0  0
   62.8715   33.0685   47.9755 H   0  0  0  0  0  0  0  0  0  0  0  0
   61.4381   31.9748   48.2270 H   0  0  0  0  0  0  0  0  0  0  0  0
   61.2360   33.3550   46.6070 C   0  0  0  0  0  0  0  0  0  0  0  0
   61.4813   34.4038   46.3835 H   0  0  0  0  0  0  0  0  0  0  0  0
   61.6991   32.6911   45.8622 H   0  0  0  0  0  0  0  0  0  0  0  0
   60.1600   30.7700   47.0250 N   0  0  0  0  0  0  0  0  0  0  0  0
   59.5250   29.5910   46.8870 C   0  0  0  0  0  0  0  0  0  0  0  0
   60.0190   28.4390   47.2340 N   0  0  0  0  0  0  0  0  0  0  0  0
   60.4340   28.0560   48.5550 C   0  0  0  0  0  0  0  0  0  0  0  0
   60.3770   26.7200   49.0010 C   0  0  0  0  0  0  0  0  0  0  0  0
   59.9876   25.9357   48.3353 H   0  0  0  0  0  0  0  0  0  0  0  0
   60.8140   26.3890   50.2870 C   0  0  0  0  0  0  0  0  0  0  0  0
   60.7547   25.3473   50.6354 H   0  0  0  0  0  0  0  0  0  0  0  0
   61.3260   27.3780   51.1310 C   0  0  0  0  0  0  0  0  0  0  0  0
   61.7510   27.0540   52.3760 F   0  0  0  0  0  0  0  0  0  0  0  0
   61.4170   28.6990   50.6840 C   0  0  0  0  0  0  0  0  0  0  0  0
   61.8316   29.4754   51.3437 H   0  0  0  0  0  0  0  0  0  0  0  0
   60.9810   29.0340   49.3980 C   0  0  0  0  0  0  0  0  0  0  0  0
   61.0678   30.0723   49.0453 H   0  0  0  0  0  0  0  0  0  0  0  0
  1  2  1  0
  2  3  1  0
  3  4  2  0
  3  5  1  0
  5  6  2  0
  6  7  1  0
  6  8  1  0
  8  9  1  0
  9 10  1  1
 10 11  1  0
 10 12  1  0
 10 13  1  0
 13 14  3  0
  9 15  1  0
 15 16  1  0
 15 17  1  0
 15 18  1  0
 18 19  1  0
 18 20  1  0
 18 21  1  0
 21 22  1  6
 21 23  1  0
 23 24  1  0
 23 25  1  0
 23 26  1  0
 26 27  2  0
 27 28  1  0
 27 29  1  0
 29 30  1  0
 29 31  2  0
 31 32  1  0
 32 33  3  0
 31 34  1  0
 34 35  1  0
 34 36  2  0
 36 37  1  0
 21 38  1  0
 38 39  1  0
 38 40  1  0
 38 41  1  0
 41 42  1  0
 41 43  1  0
  8 44  1  0
 44 45  1  0
 45 46  2  0
 46 47  1  0
 47 48  2  0
 48 49  1  0
 48 50  1  0
 50 51  1  0
 50 52  2  0
 52 53  1  0
 52 54  1  0
 54 55  1  0
 54 56  2  0
 56 57  1  0
 45  5  1  0
 56 47  1  0
 41  9  1  0
 36 26  1  0
M  CHG  3   2  -1  21   1  44  -1
M  END
>  <UniqueID>  (76) 
72

>  <SMILES>  (76) 
N#CCC1(n2cc(C([NH-])=O)/c(=N/c3ccc(F)cc3)[n-]2)CC[NH+](Cc2ccc(C#N)cc2F)CC1

>  <Energy>  (76) 
110.11692493756854

>  <Genealogy>  (76) 
N#CCC1(n2cc(C([NH-])=O)c(=Nc3ccc(F)cc3)[n-]2)CC[NH+](Cc2ccc(C#N)cc2F)CC1 (protonated)
N#CCC1(n2cc(C([NH-])=O)/c(=N/c3ccc(F)cc3)[n-]2)CC[NH+](Cc2ccc(C#N)cc2F)CC1 (cis-trans isomerization)
N#CCC1(n2cc(C([NH-])=O)/c(=N/c3ccc(F)cc3)[n-]2)CC[NH+](Cc2ccc(C#N)cc2F)CC1 (3D coordinates assigned)
N#CCC1(n2cc(C([NH-])=O)/c(=N/c3ccc(F)cc3)[n-]2)CC[NH+](Cc2ccc(C#N)cc2F)CC1 (nonaromatic ring conformer: 110.11692493756854 kcal/mol)

>  <smiles>  (76) 
N#CCC1(n2cc(C(N)=O)c(=Nc3ccc(F)cc3)[nH]2)CCN(Cc2ccc(C#N)cc2F)CC1

>  <score_type>  (76) 
oracle

>  <origin>  (76) 
adg

>  <m_score__min__energy>  (76) 
-10.699999999999999

>  <m_primary>  (76) 
energy

$$$$
76:0
     RDKit          3D

 40 42  0  0  0  0  0  0  0  0999 V2000
   55.9070   27.3780   45.6160 O   0  0  0  0  0  0  0  0  0  0  0  0
   57.0520   27.8060   45.5930 C   0  0  0  0  0  0  0  0  0  0  0  0
   57.8610   27.8530   46.8610 C   0  0  0  0  0  0  0  0  0  0  0  0
   59.2750   27.2870   46.6350 C   0  0  0  0  0  0  0  0  0  0  0  0
   59.9020   27.6460   45.2640 C   0  0  0  0  0  0  0  0  0  0  0  0
   59.1180   28.7230   44.5000 C   0  0  0  0  0  0  0  0  0  0  0  0
   57.6530   28.2940   44.2970 C   0  0  2  0  0  0  0  0  0  0  0  0
   56.8510   29.4430   43.7610 C   0  0  0  0  0  0  0  0  0  0  0  0
   56.5180   30.4230   44.5460 N   0  0  0  0  0  0  0  0  0  0  0  0
   57.3840   31.4770   45.0030 C   0  0  0  0  0  0  0  0  0  0  0  0
   57.5120   32.7060   44.3240 C   0  0  0  0  0  0  0  0  0  0  0  0
   58.3610   33.7010   44.8210 C   0  0  0  0  0  0  0  0  0  0  0  0
   59.0840   33.4870   46.0000 C   0  0  0  0  0  0  0  0  0  0  0  0
   60.1650   34.7280   46.6270 S   0  0  0  0  0  0  0  0  0  0  0  0
   59.9440   36.0340   45.9160 O   0  0  0  0  0  0  0  0  0  0  0  0
   59.8880   34.9190   48.0920 O   0  0  0  0  0  0  0  0  0  0  0  0
   61.8150   34.2380   46.4170 N   0  0  0  0  0  0  0  0  0  0  0  0
   62.5430   33.7200   47.3570 C   0  0  0  0  0  0  0  0  0  0  0  0
   62.4760   34.0960   48.6500 N   0  0  0  0  0  0  0  0  0  0  0  0
   63.3510   33.3920   49.4330 C   0  0  0  0  0  0  0  0  0  0  0  0
   64.1270   32.4570   48.8150 N   0  0  0  0  0  0  0  0  0  0  0  0
   63.6880   32.5200   47.2100 S   0  0  0  0  0  0  0  0  0  0  0  0
   58.9440   32.2750   46.6870 C   0  0  0  0  0  0  0  0  0  0  0  0
   58.0960   31.2810   46.1930 C   0  0  0  0  0  0  0  0  0  0  0  0
   57.9411   28.8970   47.1980 H   0  0  0  0  0  0  0  0  0  0  0  0
   57.3557   27.2400   47.6219 H   0  0  0  0  0  0  0  0  0  0  0  0
   59.9318   27.6786   47.4257 H   0  0  0  0  0  0  0  0  0  0  0  0
   59.1794   26.1914   46.6568 H   0  0  0  0  0  0  0  0  0  0  0  0
   60.9249   28.0133   45.4335 H   0  0  0  0  0  0  0  0  0  0  0  0
   59.8852   26.7338   44.6495 H   0  0  0  0  0  0  0  0  0  0  0  0
   59.1426   29.6615   45.0733 H   0  0  0  0  0  0  0  0  0  0  0  0
   59.5835   28.8640   43.5134 H   0  0  0  0  0  0  0  0  0  0  0  0
   57.6317   27.4675   43.5715 H   0  0  0  0  0  0  0  0  0  0  0  0
   56.5453   29.4556   42.7044 H   0  0  0  0  0  0  0  0  0  0  0  0
   56.9422   32.8833   43.3999 H   0  0  0  0  0  0  0  0  0  0  0  0
   58.4606   34.6552   44.2829 H   0  0  0  0  0  0  0  0  0  0  0  0
   61.8360   34.8360   49.0130 H   0  0  0  0  0  0  0  0  0  0  0  0
   63.4248   33.5732   50.5155 H   0  0  0  0  0  0  0  0  0  0  0  0
   59.5036   32.1051   47.6187 H   0  0  0  0  0  0  0  0  0  0  0  0
   57.9864   30.3352   46.7439 H   0  0  0  0  0  0  0  0  0  0  0  0
  1  2  2  0
  2  3  1  0
  3  4  1  0
  4  5  1  0
  5  6  1  0
  6  7  1  0
  7  8  1  0
  8  9  2  3
  9 10  1  0
 10 11  2  0
 11 12  1  0
 12 13  2  0
 13 14  1  0
 14 15  2  0
 14 16  2  0
 14 17  1  0
 17 18  2  3
 18 19  1  0
 19 20  1  0
 20 21  2  0
 21 22  1  0
 13 23  1  0
 23 24  2  0
  7  2  1  0
 24 10  1  0
 22 18  1  0
  3 25  1  0
  3 26  1  0
  4 27  1  0
  4 28  1  0
  5 29  1  0
  5 30  1  0
  6 31  1  0
  6 32  1  0
  7 33  1  6
  8 34  1  0
 11 35  1  0
 12 36  1  0
 19 37  1  0
 20 38  1  0
 23 39  1  0
 24 40  1  0
M  END
>  <UniqueID>  (77) 
73

>  <SMILES>  (77) 
O=C1CCCC[C@@H]1C=Nc1ccc(S(=O)(=O)N=c2[nH]cns2)cc1

>  <Energy>  (77) 
84.64050272151673

>  <Genealogy>  (77) 
O=C1CCCC[C@@H]1C=Nc1ccc(S(=O)(=O)N=c2[nH]cns2)cc1 (chirality)
O=C1CCCC[C@@H]1C=Nc1ccc(S(=O)(=O)N=c2[nH]cns2)cc1 (3D coordinates assigned)
O=C1CCCC[C@@H]1C=Nc1ccc(S(=O)(=O)N=c2[nH]cns2)cc1 (nonaromatic ring conformer: 84.64050272151673 kcal/mol)

>  <smiles>  (77) 
O=C1CCCCC1C=Nc1ccc(S(=O)(=O)N=c2[nH]cns2)cc1

>  <score_type>  (77) 
oracle

>  <origin>  (77) 
adg

>  <m_score__min__energy>  (77) 
-9.0999999999999996

>  <m_primary>  (77) 
energy

$$$$
77:0
     RDKit          3D

 33 34  0  0  0  0  0  0  0  0999 V2000
   58.2390   30.8100   44.7890 C   0  0  0  0  0  0  0  0  0  0  0  0
   58.9810   29.8600   45.5450 O   0  0  0  0  0  0  0  0  0  0  0  0
   59.1390   28.5300   45.1400 C   0  0  0  0  0  0  0  0  0  0  0  0
   59.9810   28.2390   44.2460 O   0  0  0  0  0  0  0  0  0  0  0  0
   58.3200   27.4670   45.7630 C   0  0  0  0  0  0  0  0  0  0  0  0
   58.9190   26.4620   46.5410 C   0  0  0  0  0  0  0  0  0  0  0  0
   58.1440   25.4600   47.1290 C   0  0  0  0  0  0  0  0  0  0  0  0
   56.7500   25.4410   46.9470 C   0  0  0  0  0  0  0  0  0  0  0  0
   55.9230   24.4230   47.5300 N   0  0  0  0  0  0  0  0  0  0  0  0
   54.8590   23.3720   46.6520 S   0  0  0  0  0  0  0  0  0  0  0  0
   54.4270   22.2480   47.5520 O   0  0  0  0  0  0  0  0  0  0  0  0
   53.6480   24.1480   46.2200 O   0  0  0  0  0  0  0  0  0  0  0  0
   55.6740   22.7450   45.2230 C   0  0  0  0  0  0  0  0  0  0  0  0
   55.8620   23.5620   44.0980 C   0  0  0  0  0  0  0  0  0  0  0  0
   56.5050   23.0550   42.9630 C   0  0  0  0  0  0  0  0  0  0  0  0
   56.9630   21.7350   42.9480 C   0  0  0  0  0  0  0  0  0  0  0  0
   56.7810   20.9190   44.0690 C   0  0  0  0  0  0  0  0  0  0  0  0
   56.1410   21.4230   45.2050 C   0  0  0  0  0  0  0  0  0  0  0  0
   56.1450   26.4420   46.1740 C   0  0  0  0  0  0  0  0  0  0  0  0
   54.7620   26.4320   45.9900 O   0  0  0  0  0  0  0  0  0  0  0  0
   56.9260   27.4480   45.5860 C   0  0  0  0  0  0  0  0  0  0  0  0
   57.7086   31.4891   45.4728 H   0  0  0  0  0  0  0  0  0  0  0  0
   58.9252   31.3905   44.1549 H   0  0  0  0  0  0  0  0  0  0  0  0
   57.5096   30.2848   44.1549 H   0  0  0  0  0  0  0  0  0  0  0  0
   60.0091   26.4644   46.6884 H   0  0  0  0  0  0  0  0  0  0  0  0
   58.6268   24.6814   47.7378 H   0  0  0  0  0  0  0  0  0  0  0  0
   55.5037   24.6020   44.1081 H   0  0  0  0  0  0  0  0  0  0  0  0
   56.6500   23.6967   42.0814 H   0  0  0  0  0  0  0  0  0  0  0  0
   57.4667   21.3377   42.0544 H   0  0  0  0  0  0  0  0  0  0  0  0
   57.1417   19.8799   44.0568 H   0  0  0  0  0  0  0  0  0  0  0  0
   56.0034   20.7807   46.0873 H   0  0  0  0  0  0  0  0  0  0  0  0
   54.1810   25.6950   46.3700 H   0  0  0  0  0  0  0  0  0  0  0  0
   56.4428   28.2292   44.9808 H   0  0  0  0  0  0  0  0  0  0  0  0
  1  2  1  0
  2  3  1  0
  3  4  2  0
  3  5  1  0
  5  6  2  0
  6  7  1  0
  7  8  2  0
  8  9  1  0
  9 10  1  0
 10 11  2  0
 10 12  2  0
 10 13  1  0
 13 14  2  0
 14 15  1  0
 15 16  2  0
 16 17  1  0
 17 18  2  0
  8 19  1  0
 19 20  1  0
 19 21  2  0
 21  5  1  0
 18 13  1  0
  1 22  1  0
  1 23  1  0
  1 24  1  0
  6 25  1  0
  7 26  1  0
 14 27  1  0
 15 28  1  0
 16 29  1  0
 17 30  1  0
 18 31  1  0
 20 32  1  0
 21 33  1  0
M  CHG  1   9  -1
M  END
>  <UniqueID>  (78) 
74

>  <SMILES>  (78) 
COC(=O)c1ccc([N-]S(=O)(=O)c2ccccc2)c(O)c1

>  <Energy>  (78) 
34.894459834112084

>  <Genealogy>  (78) 
COC(=O)c1ccc([N-]S(=O)(=O)c2ccccc2)c(O)c1 (protonated)
COC(=O)c1ccc([N-]S(=O)(=O)c2ccccc2)c(O)c1 (3D coordinates assigned)
COC(=O)c1ccc([N-]S(=O)(=O)c2ccccc2)c(O)c1 (optimized conformer: 34.894459834112084 kcal/mol)

>  <smiles>  (78) 
COC(=O)c1ccc(NS(=O)(=O)c2ccccc2)c(O)c1

>  <score_type>  (78) 
oracle

>  <origin>  (78) 
adg

>  <m_score__min__energy>  (78) 
-9.8000000000000007

>  <m_primary>  (78) 
energy

$$$$
78:0
     RDKit          3D

 51 54  0  0  0  0  0  0  0  0999 V2000
   58.1820   27.9940   47.5360 O   0  0  0  0  0  0  0  0  0  0  0  0
   58.2560   28.1110   46.2810 C   0  0  0  0  0  0  0  0  0  0  0  0
   58.9160   27.0950   45.5090 N   0  0  0  0  0  0  0  0  0  0  0  0
   59.2840   25.7930   46.0640 C   0  0  0  0  0  0  0  0  0  0  0  0
   58.0370   24.9730   46.4110 C   0  0  0  0  0  0  0  0  0  0  0  0
   57.6400   24.0440   45.2930 C   0  0  0  0  0  0  0  0  0  0  0  0
   58.2160   22.7660   45.1990 C   0  0  0  0  0  0  0  0  0  0  0  0
   57.8470   21.9020   44.1640 C   0  0  0  0  0  0  0  0  0  0  0  0
   56.8970   22.3030   43.2210 C   0  0  0  0  0  0  0  0  0  0  0  0
   56.3060   23.5650   43.3180 C   0  0  0  0  0  0  0  0  0  0  0  0
   56.6740   24.4350   44.3490 C   0  0  0  0  0  0  0  0  0  0  0  0
   57.7040   29.3220   45.6300 C   0  0  0  0  0  0  0  0  0  0  0  0
   58.5040   30.4750   45.5290 C   0  0  0  0  0  0  0  0  0  0  0  0
   58.0240   31.6280   44.8850 C   0  0  0  0  0  0  0  0  0  0  0  0
   58.8230   32.8090   44.7280 N   0  0  0  0  0  0  0  0  0  0  0  0
   59.3090   33.9000   45.9890 S   0  0  0  0  0  0  0  0  0  0  0  0
   59.5210   35.2920   45.4630 O   0  0  0  0  0  0  0  0  0  0  0  0
   58.2040   33.9650   47.0070 O   0  0  0  0  0  0  0  0  0  0  0  0
   60.7790   33.2930   46.7640 C   0  0  0  0  0  0  0  0  0  0  0  0
   62.0160   33.8660   46.4320 C   0  0  0  0  0  0  0  0  0  0  0  0
   63.1930   33.4190   47.0350 C   0  0  0  0  0  0  0  0  0  0  0  0
   63.1530   32.3970   47.9860 C   0  0  0  0  0  0  0  0  0  0  0  0
   61.9280   31.8190   48.3400 C   0  0  0  0  0  0  0  0  0  0  0  0
   61.8640   30.8000   49.3000 C   0  0  0  0  0  0  0  0  0  0  0  0
   60.6300   30.2430   49.6400 C   0  0  0  0  0  0  0  0  0  0  0  0
   59.4710   30.7070   49.0150 C   0  0  0  0  0  0  0  0  0  0  0  0
   59.5470   31.6950   48.0840 N   0  0  0  0  0  0  0  0  0  0  0  0
   60.7310   32.2650   47.7290 C   0  0  0  0  0  0  0  0  0  0  0  0
   56.7430   31.6150   44.3250 C   0  0  0  0  0  0  0  0  0  0  0  0
   55.9280   30.4890   44.4480 C   0  0  0  0  0  0  0  0  0  0  0  0
   56.3960   29.3470   45.1050 C   0  0  0  0  0  0  0  0  0  0  0  0
   55.5430   28.2590   45.2460 O   0  0  0  0  0  0  0  0  0  0  0  0
   59.2330   27.3190   44.5390 H   0  0  0  0  0  0  0  0  0  0  0  0
   59.8824   25.2422   45.3234 H   0  0  0  0  0  0  0  0  0  0  0  0
   59.8646   25.9551   46.9841 H   0  0  0  0  0  0  0  0  0  0  0  0
   58.2443   24.3761   47.3114 H   0  0  0  0  0  0  0  0  0  0  0  0
   57.2066   25.6744   46.5795 H   0  0  0  0  0  0  0  0  0  0  0  0
   58.9600   22.4442   45.9425 H   0  0  0  0  0  0  0  0  0  0  0  0
   58.3053   20.9046   44.0917 H   0  0  0  0  0  0  0  0  0  0  0  0
   56.6145   21.6249   42.4022 H   0  0  0  0  0  0  0  0  0  0  0  0
   55.5496   23.8750   42.5819 H   0  0  0  0  0  0  0  0  0  0  0  0
   56.2065   25.4280   44.4218 H   0  0  0  0  0  0  0  0  0  0  0  0
   59.5165   30.4738   45.9590 H   0  0  0  0  0  0  0  0  0  0  0  0
   62.0588   34.6759   45.6888 H   0  0  0  0  0  0  0  0  0  0  0  0
   64.1561   33.8737   46.7599 H   0  0  0  0  0  0  0  0  0  0  0  0
   64.0834   32.0464   48.4566 H   0  0  0  0  0  0  0  0  0  0  0  0
   62.7837   30.4401   49.7843 H   0  0  0  0  0  0  0  0  0  0  0  0
   60.5712   29.4447   50.3945 H   0  0  0  0  0  0  0  0  0  0  0  0
   58.4948   30.2726   49.2762 H   0  0  0  0  0  0  0  0  0  0  0  0
   56.3749   32.4989   43.7835 H   0  0  0  0  0  0  0  0  0  0  0  0
   54.9122   30.4999   44.0259 H   0  0  0  0  0  0  0  0  0  0  0  0
  1  2  2  0
  2  3  1  0
  3  4  1  0
  4  5  1  0
  5  6  1  0
  6  7  2  0
  7  8  1  0
  8  9  2  0
  9 10  1  0
 10 11  2  0
  2 12  1  0
 12 13  2  0
 13 14  1  0
 14 15  1  0
 15 16  1  0
 16 17  2  0
 16 18  2  0
 16 19  1  0
 19 20  2  0
 20 21  1  0
 21 22  2  0
 22 23  1  0
 23 24  2  0
 24 25  1  0
 25 26  2  0
 26 27  1  0
 27 28  2  0
 14 29  2  0
 29 30  1  0
 30 31  2  0
 31 32  1  0
 11  6  1  0
 31 12  1  0
 28 19  1  0
 28 23  1  0
  3 33  1  0
  4 34  1  0
  4 35  1  0
  5 36  1  0
  5 37  1  0
  7 38  1  0
  8 39  1  0
  9 40  1  0
 10 41  1  0
 11 42  1  0
 13 43  1  0
 20 44  1  0
 21 45  1  0
 22 46  1  0
 24 47  1  0
 25 48  1  0
 26 49  1  0
 29 50  1  0
 30 51  1  0
M  CHG  2  15  -1  32  -1
M  END
>  <UniqueID>  (79) 
75

>  <SMILES>  (79) 
O=C(NCCc1ccccc1)c1cc([N-]S(=O)(=O)c2cccc3cccnc23)ccc1[O-]

>  <Energy>  (79) 
63.17474450753264

>  <Genealogy>  (79) 
O=C(NCCc1ccccc1)c1cc([N-]S(=O)(=O)c2cccc3cccnc23)ccc1[O-] (protonated)
O=C(NCCc1ccccc1)c1cc([N-]S(=O)(=O)c2cccc3cccnc23)ccc1[O-] (3D coordinates assigned)
O=C(NCCc1ccccc1)c1cc([N-]S(=O)(=O)c2cccc3cccnc23)ccc1[O-] (optimized conformer: 63.17474450753264 kcal/mol)

>  <smiles>  (79) 
O=C(NCCc1ccccc1)c1cc(NS(=O)(=O)c2cccc3cccnc23)ccc1O

>  <score_type>  (79) 
oracle

>  <origin>  (79) 
adg

>  <m_score__min__energy>  (79) 
-14.06

>  <m_primary>  (79) 
energy

$$$$
79:0
     RDKit          3D

 58 61  0  0  1  0  0  0  0  0999 V2000
   57.1530   30.6890   55.0380 C   0  0  0  0  0  0  0  0  0  0  0  0
   56.4640   31.2240   53.8990 O   0  0  0  0  0  0  0  0  0  0  0  0
   57.2860   31.7560   52.9130 C   0  0  0  0  0  0  0  0  0  0  0  0
   57.8240   33.0190   53.0020 C   0  0  0  0  0  0  0  0  0  0  0  0
   58.6470   33.5150   51.9840 C   0  0  0  0  0  0  0  0  0  0  0  0
   58.9520   32.7740   50.8630 C   0  0  0  0  0  0  0  0  0  0  0  0
   59.8070   33.2880   49.8060 C   0  0  0  0  0  0  0  0  0  0  0  0
   61.1540   33.4960   49.9910 C   0  0  0  0  0  0  0  0  0  0  0  0
   61.9800   33.9900   48.9740 C   0  0  0  0  0  0  0  0  0  0  0  0
   63.2360   34.1700   49.1860 N   0  0  0  0  0  0  0  0  0  0  0  0
   64.1800   33.1510   48.7870 C   0  0  0  0  0  0  0  0  0  0  0  0
   64.1770   32.0590   49.8260 C   0  0  0  0  0  0  0  0  0  0  0  0
   63.1070   31.2030   49.9750 C   0  0  0  0  0  0  0  0  0  0  0  0
   63.1630   30.2250   50.9440 C   0  0  0  0  0  0  0  0  0  0  0  0
   64.2660   30.0800   51.7710 C   0  0  0  0  0  0  0  0  0  0  0  0
   65.3400   30.9460   51.6140 C   0  0  0  0  0  0  0  0  0  0  0  0
   65.2810   31.9240   50.6440 C   0  0  0  0  0  0  0  0  0  0  0  0
   66.8010   33.0840   50.4840 Br  0  0  0  0  0  0  0  0  0  0  0  0
   61.4220   34.2670   47.7840 N   0  0  0  0  0  0  0  0  0  0  0  0
   60.1050   34.0690   47.5880 C   0  0  0  0  0  0  0  0  0  0  0  0
   59.5990   34.3440   46.4320 N   0  0  0  0  0  0  0  0  0  0  0  0
   58.9710   33.2820   45.7210 C   0  0  0  0  0  0  0  0  0  0  0  0
   58.2780   33.6440   44.5700 C   0  0  0  0  0  0  0  0  0  0  0  0
   57.6300   32.6930   43.8020 C   0  0  0  0  0  0  0  0  0  0  0  0
   57.6910   31.3770   44.2090 C   0  0  0  0  0  0  0  0  0  0  0  0
   56.9930   30.3320   43.3880 C   0  0  0  0  0  0  0  0  0  0  0  0
   56.4660   29.2910   44.3250 C   0  0  0  0  0  0  0  0  0  0  0  0
   57.2040   28.3070   44.5390 O   0  0  0  0  0  0  0  0  0  0  0  0
   55.2140   29.4710   44.8920 O   0  0  0  0  0  0  0  0  0  0  0  0
   58.3880   31.0270   45.3640 C   0  0  0  0  0  0  0  0  0  0  0  0
   59.0400   31.9590   46.1430 C   0  0  0  0  0  0  0  0  0  0  0  0
   59.3130   33.5850   48.5910 N   0  0  0  0  0  0  0  0  0  0  0  0
   58.3980   31.5050   50.7990 C   0  0  0  0  0  0  0  0  0  0  0  0
   57.5800   31.0110   51.8100 C   0  0  0  0  0  0  0  0  0  0  0  0
   57.0340   29.7270   51.7180 O   0  0  0  0  0  0  0  0  0  0  0  0
   56.6788   31.0572   55.9597 H   0  0  0  0  0  0  0  0  0  0  0  0
   57.1034   29.5904   55.0138 H   0  0  0  0  0  0  0  0  0  0  0  0
   58.2051   31.0092   55.0138 H   0  0  0  0  0  0  0  0  0  0  0  0
   57.6057   33.6443   53.8803 H   0  0  0  0  0  0  0  0  0  0  0  0
   59.0634   34.5284   52.0821 H   0  0  0  0  0  0  0  0  0  0  0  0
   61.5974   33.2665   50.9712 H   0  0  0  0  0  0  0  0  0  0  0  0
   63.8864   32.7354   47.8118 H   0  0  0  0  0  0  0  0  0  0  0  0
   65.1871   33.5849   48.7009 H   0  0  0  0  0  0  0  0  0  0  0  0
   62.2213   31.2992   49.3298 H   0  0  0  0  0  0  0  0  0  0  0  0
   62.3098   29.5412   51.0645 H   0  0  0  0  0  0  0  0  0  0  0  0
   64.2900   29.2924   52.5385 H   0  0  0  0  0  0  0  0  0  0  0  0
   66.2280   30.8528   52.2564 H   0  0  0  0  0  0  0  0  0  0  0  0
   62.0450   34.6360   47.0330 H   0  0  0  0  0  0  0  0  0  0  0  0
   58.2449   34.7008   44.2665 H   0  0  0  0  0  0  0  0  0  0  0  0
   57.0816   32.9787   42.8923 H   0  0  0  0  0  0  0  0  0  0  0  0
   56.1621   30.7880   42.8297 H   0  0  0  0  0  0  0  0  0  0  0  0
   57.6900   29.8817   42.6660 H   0  0  0  0  0  0  0  0  0  0  0  0
   55.1620   30.0910   45.7010 H   0  0  0  0  0  0  0  0  0  0  0  0
   58.4190   29.9694   45.6648 H   0  0  0  0  0  0  0  0  0  0  0  0
   59.5872   31.6705   47.0526 H   0  0  0  0  0  0  0  0  0  0  0  0
   58.3120   33.4710   48.3320 H   0  0  0  0  0  0  0  0  0  0  0  0
   58.6109   30.8715   49.9253 H   0  0  0  0  0  0  0  0  0  0  0  0
   56.4550   29.3020   52.4030 H   0  0  0  0  0  0  0  0  0  0  0  0
  1  2  1  0
  2  3  1  0
  3  4  2  0
  4  5  1  0
  5  6  2  0
  6  7  1  0
  7  8  2  0
  8  9  1  0
  9 10  2  0
 10 11  1  0
 11 12  1  0
 12 13  2  0
 13 14  1  0
 14 15  2  0
 15 16  1  0
 16 17  2  0
 17 18  1  0
  9 19  1  0
 19 20  1  0
 20 21  2  0
 21 22  1  0
 22 23  2  0
 23 24  1  0
 24 25  2  0
 25 26  1  0
 26 27  1  0
 27 28  2  0
 27 29  1  0
 25 30  1  0
 30 31  2  0
 20 32  1  0
  6 33  1  0
 33 34  2  0
 34 35  1  0
 34  3  1  0
 32  7  1  0
 17 12  1  0
 31 22  1  0
  1 36  1  0
  1 37  1  0
  1 38  1  0
  4 39  1  0
  5 40  1  0
  8 41  1  0
 11 42  1  0
 11 43  1  0
 13 44  1  0
 14 45  1  0
 15 46  1  0
 16 47  1  0
 19 48  1  0
 23 49  1  0
 24 50  1  0
 26 51  1  0
 26 52  1  0
 29 53  1  0
 30 54  1  0
 31 55  1  0
 32 56  1  0
 33 57  1  0
 35 58  1  0
M  END
>  <smiles>  (80) 
COc1ccc(-c2cc(=NCc3ccccc3Br)[nH]c(=Nc3ccc(CC(=O)O)cc3)[nH]2)cc1O

>  <score_type>  (80) 
oracle

>  <origin>  (80) 
adg

>  <m_score__min__energy>  (80) 
-9.8800000000000008

>  <m_primary>  (80) 
energy

$$$$
80:0
     RDKit          3D

 47 50  0  0  0  0  0  0  0  0999 V2000
   57.4100   33.9410   44.8620 C   0  0  0  0  0  0  0  0  0  0  0  0
   58.2260   32.8220   44.5340 O   0  0  0  0  0  0  0  0  0  0  0  0
   57.8360   31.8450   43.6160 C   0  0  0  0  0  0  0  0  0  0  0  0
   58.1250   31.9690   42.3940 O   0  0  0  0  0  0  0  0  0  0  0  0
   57.0730   30.6680   44.0660 C   0  0  0  0  0  0  0  0  0  0  0  0
   55.7050   30.4660   43.8950 C   0  0  0  0  0  0  0  0  0  0  0  0
   55.3220   29.3020   44.4660 N   0  0  0  0  0  0  0  0  0  0  0  0
   56.4350   28.7680   44.9960 C   0  0  0  0  0  0  0  0  0  0  0  0
   56.5580   27.5820   45.7150 C   0  0  0  0  0  0  0  0  0  0  0  0
   55.5610   26.8440   45.9320 O   0  0  0  0  0  0  0  0  0  0  0  0
   57.7870   27.2380   46.1940 N   0  0  0  0  0  0  0  0  0  0  0  0
   58.9010   28.0100   45.9820 C   0  0  0  0  0  0  0  0  0  0  0  0
   60.1410   27.6160   46.5930 N   0  0  0  0  0  0  0  0  0  0  0  0
   60.5260   27.9840   47.9230 C   0  0  0  0  0  0  0  0  0  0  0  0
   60.5250   27.0210   48.9390 C   0  0  0  0  0  0  0  0  0  0  0  0
   60.7840   27.3960   50.2570 C   0  0  0  0  0  0  0  0  0  0  0  0
   61.0250   28.7380   50.5510 C   0  0  0  0  0  0  0  0  0  0  0  0
   61.0310   29.6640   49.5560 N   0  0  0  0  0  0  0  0  0  0  0  0
   60.8060   29.3290   48.2560 C   0  0  0  0  0  0  0  0  0  0  0  0
   60.8840   30.3530   47.2520 N   0  0  0  0  0  0  0  0  0  0  0  0
   60.3560   31.6730   47.4460 C   0  0  0  0  0  0  0  0  0  0  0  0
   58.9870   31.8220   47.7090 C   0  0  0  0  0  0  0  0  0  0  0  0
   58.4210   33.0940   47.8090 C   0  0  0  0  0  0  0  0  0  0  0  0
   59.2200   34.2290   47.6600 C   0  0  0  0  0  0  0  0  0  0  0  0
   60.5930   34.0960   47.4380 C   0  0  0  0  0  0  0  0  0  0  0  0
   61.1790   32.8220   47.3550 C   0  0  0  0  0  0  0  0  0  0  0  0
   62.6680   32.7070   47.1630 C   0  0  0  0  0  0  0  0  0  0  0  0
   58.7900   29.2080   45.2390 C   0  0  0  0  0  0  0  0  0  0  0  0
   57.5260   29.5630   44.7700 C   0  0  0  0  0  0  0  0  0  0  0  0
   57.3406   34.0362   45.9557 H   0  0  0  0  0  0  0  0  0  0  0  0
   57.8551   34.8550   44.4419 H   0  0  0  0  0  0  0  0  0  0  0  0
   56.4037   33.7967   44.4419 H   0  0  0  0  0  0  0  0  0  0  0  0
   55.0305   31.1574   43.3687 H   0  0  0  0  0  0  0  0  0  0  0  0
   54.3540   28.9110   44.4980 H   0  0  0  0  0  0  0  0  0  0  0  0
   60.7090   26.8830   46.1120 H   0  0  0  0  0  0  0  0  0  0  0  0
   60.3198   25.9676   48.6976 H   0  0  0  0  0  0  0  0  0  0  0  0
   60.7981   26.6409   51.0568 H   0  0  0  0  0  0  0  0  0  0  0  0
   61.2106   29.0476   51.5901 H   0  0  0  0  0  0  0  0  0  0  0  0
   61.2750   30.1080   46.3150 H   0  0  0  0  0  0  0  0  0  0  0  0
   58.3550   30.9309   47.8374 H   0  0  0  0  0  0  0  0  0  0  0  0
   57.3441   33.2022   48.0054 H   0  0  0  0  0  0  0  0  0  0  0  0
   58.7677   35.2301   47.7175 H   0  0  0  0  0  0  0  0  0  0  0  0
   61.2186   34.9940   47.3276 H   0  0  0  0  0  0  0  0  0  0  0  0
   63.1624   32.6688   48.1449 H   0  0  0  0  0  0  0  0  0  0  0  0
   62.8955   31.7886   46.6019 H   0  0  0  0  0  0  0  0  0  0  0  0
   63.0338   33.5796   46.6019 H   0  0  0  0  0  0  0  0  0  0  0  0
   59.6695   29.8374   45.0382 H   0  0  0  0  0  0  0  0  0  0  0  0
  1  2  1  0
  2  3  1  0
  3  4  2  0
  3  5  1  0
  5  6  2  0
  6  7  1  0
  7  8  1  0
  8  9  1  0
  9 10  2  0
  9 11  1  0
 11 12  1  0
 12 13  1  0
 13 14  1  0
 14 15  2  0
 15 16  1  0
 16 17  2  0
 17 18  1  0
 18 19  2  0
 19 20  1  0
 20 21  1  0
 21 22  2  0
 22 23  1  0
 23 24  2  0
 24 25  1  0
 25 26  2  0
 26 27  1  0
 12 28  2  0
 28 29  1  0
 29  5  1  0
 29  8  2  0
 19 14  1  0
 26 21  1  0
  1 30  1  0
  1 31  1  0
  1 32  1  0
  6 33  1  0
  7 34  1  0
 13 35  1  0
 15 36  1  0
 16 37  1  0
 17 38  1  0
 20 39  1  0
 22 40  1  0
 23 41  1  0
 24 42  1  0
 25 43  1  0
 27 44  1  0
 27 45  1  0
 27 46  1  0
 28 47  1  0
M  CHG  1  11  -1
M  END
>  <UniqueID>  (81) 
76

>  <SMILES>  (81) 
COC(=O)c1c[nH]c2c(=O)[n-]c(Nc3cccnc3Nc3ccccc3C)cc12

>  <Energy>  (81) 
96.1850871823363

>  <Genealogy>  (81) 
COC(=O)c1c[nH]c2c(=O)[n-]c(Nc3cccnc3Nc3ccccc3C)cc12 (protonated)
COC(=O)c1c[nH]c2c(=O)[n-]c(Nc3cccnc3Nc3ccccc3C)cc12 (3D coordinates assigned)
COC(=O)c1c[nH]c2c(=O)[n-]c(Nc3cccnc3Nc3ccccc3C)cc12 (optimized conformer: 96.1850871823363 kcal/mol)

>  <smiles>  (81) 
COC(=O)c1c[nH]c2c(=O)[nH]c(Nc3cccnc3Nc3ccccc3C)cc12

>  <score_type>  (81) 
oracle

>  <origin>  (81) 
adg

>  <m_score__min__energy>  (81) 
-9.7599999999999998

>  <m_primary>  (81) 
energy

$$$$
81:0
     RDKit          3D

 34 35  0  0  0  0  0  0  0  0999 V2000
   56.7310   29.0510   44.5490 C   0  0  0  0  0  0  0  0  0  0  0  0
   56.2730   30.3970   44.4960 O   0  0  0  0  0  0  0  0  0  0  0  0
   57.0430   31.4360   43.9620 C   0  0  0  0  0  0  0  0  0  0  0  0
   57.1850   31.5390   42.7130 O   0  0  0  0  0  0  0  0  0  0  0  0
   57.6920   32.4120   44.8660 C   0  0  0  0  0  0  0  0  0  0  0  0
   57.9000   32.0950   46.2190 C   0  0  0  0  0  0  0  0  0  0  0  0
   58.5090   33.0150   47.0770 C   0  0  0  0  0  0  0  0  0  0  0  0
   58.9250   34.2700   46.5980 C   0  0  0  0  0  0  0  0  0  0  0  0
   59.5150   35.2360   47.4930 N   0  0  0  0  0  0  0  0  0  0  0  0
   60.1100   34.5850   48.6710 C   0  0  0  0  0  0  0  0  0  0  0  0
   61.5040   34.0760   48.3860 C   0  0  0  0  0  0  0  0  0  0  0  0
   61.9200   33.8460   47.0640 C   0  0  0  0  0  0  0  0  0  0  0  0
   63.2250   33.4180   46.8000 C   0  0  0  0  0  0  0  0  0  0  0  0
   64.1220   33.2200   47.8530 C   0  0  0  0  0  0  0  0  0  0  0  0
   63.7180   33.4520   49.1700 C   0  0  0  0  0  0  0  0  0  0  0  0
   62.4150   33.8820   49.4380 C   0  0  0  0  0  0  0  0  0  0  0  0
   58.7130   34.5880   45.2470 C   0  0  0  0  0  0  0  0  0  0  0  0
   58.1060   33.6690   44.3880 C   0  0  0  0  0  0  0  0  0  0  0  0
   56.8366   28.7407   45.5990 H   0  0  0  0  0  0  0  0  0  0  0  0
   56.0050   28.3965   44.0445 H   0  0  0  0  0  0  0  0  0  0  0  0
   57.7055   28.9752   44.0445 H   0  0  0  0  0  0  0  0  0  0  0  0
   57.5813   31.1158   46.6057 H   0  0  0  0  0  0  0  0  0  0  0  0
   58.6640   32.7555   48.1346 H   0  0  0  0  0  0  0  0  0  0  0  0
   58.7710   35.9000   47.8180 H   0  0  0  0  0  0  0  0  0  0  0  0
   60.2380   35.8060   46.9950 H   0  0  0  0  0  0  0  0  0  0  0  0
   60.1581   35.3132   49.4941 H   0  0  0  0  0  0  0  0  0  0  0  0
   59.4801   33.7246   48.9410 H   0  0  0  0  0  0  0  0  0  0  0  0
   61.2164   34.0032   46.2332 H   0  0  0  0  0  0  0  0  0  0  0  0
   63.5453   33.2372   45.7633 H   0  0  0  0  0  0  0  0  0  0  0  0
   65.1475   32.8810   47.6446 H   0  0  0  0  0  0  0  0  0  0  0  0
   64.4260   33.2961   49.9973 H   0  0  0  0  0  0  0  0  0  0  0  0
   62.1020   34.0691   50.4758 H   0  0  0  0  0  0  0  0  0  0  0  0
   59.0276   35.5691   44.8618 H   0  0  0  0  0  0  0  0  0  0  0  0
   57.9506   33.9297   43.3307 H   0  0  0  0  0  0  0  0  0  0  0  0
  1  2  1  0
  2  3  1  0
  3  4  2  0
  3  5  1  0
  5  6  2  0
  6  7  1  0
  7  8  2  0
  8  9  1  0
  9 10  1  0
 10 11  1  0
 11 12  2  0
 12 13  1  0
 13 14  2  0
 14 15  1  0
 15 16  2  0
  8 17  1  0
 17 18  2  0
 18  5  1  0
 16 11  1  0
  1 19  1  0
  1 20  1  0
  1 21  1  0
  6 22  1  0
  7 23  1  0
  9 24  1  0
  9 25  1  0
 10 26  1  0
 10 27  1  0
 12 28  1  0
 13 29  1  0
 14 30  1  0
 15 31  1  0
 16 32  1  0
 17 33  1  0
 18 34  1  0
M  CHG  1   9   1
M  END
>  <UniqueID>  (82) 
77

>  <SMILES>  (82) 
COC(=O)c1ccc([NH2+]Cc2ccccc2)cc1

>  <Energy>  (82) 
32.628164139692

>  <Genealogy>  (82) 
COC(=O)c1ccc([NH2+]Cc2ccccc2)cc1 (protonated)
COC(=O)c1ccc([NH2+]Cc2ccccc2)cc1 (3D coordinates assigned)
COC(=O)c1ccc([NH2+]Cc2ccccc2)cc1 (optimized conformer: 32.628164139692 kcal/mol)

>  <smiles>  (82) 
COC(=O)c1ccc(NCc2ccccc2)cc1

>  <score_type>  (82) 
oracle

>  <origin>  (82) 
adg

>  <m_score__min__energy>  (82) 
-5.2999999999999998

>  <m_primary>  (82) 
energy

$$$$
82:0
     RDKit          3D

 28 29  0  0  0  0  0  0  0  0999 V2000
   57.2700   31.4160   42.8550 O   0  0  0  0  0  0  0  0  0  0  0  0
   57.2240   31.0900   44.0730 C   0  0  0  0  0  0  0  0  0  0  0  0
   56.6110   31.9380   45.0040 O   0  0  0  0  0  0  0  0  0  0  0  0
   57.0220   33.2840   45.2300 C   0  0  0  0  0  0  0  0  0  0  0  0
   58.3900   33.3150   45.8550 C   0  0  0  0  0  0  0  0  0  0  0  0
   59.1970   34.4560   45.7180 C   0  0  0  0  0  0  0  0  0  0  0  0
   60.4620   34.5000   46.3120 C   0  0  0  0  0  0  0  0  0  0  0  0
   60.9300   33.4060   47.0490 C   0  0  0  0  0  0  0  0  0  0  0  0
   62.6570   33.4690   47.8600 Br  0  0  0  0  0  0  0  0  0  0  0  0
   60.1300   32.2680   47.1920 C   0  0  0  0  0  0  0  0  0  0  0  0
   58.8640   32.2220   46.5990 C   0  0  0  0  0  0  0  0  0  0  0  0
   57.8140   29.8100   44.5210 C   0  0  0  0  0  0  0  0  0  0  0  0
   59.2070   29.6100   44.4910 C   0  0  0  0  0  0  0  0  0  0  0  0
   59.7560   28.3980   44.9180 C   0  0  0  0  0  0  0  0  0  0  0  0
   58.9260   27.3740   45.3790 C   0  0  0  0  0  0  0  0  0  0  0  0
   57.5410   27.5590   45.4140 C   0  0  0  0  0  0  0  0  0  0  0  0
   56.4990   26.2740   45.9940 Cl  0  0  0  0  0  0  0  0  0  0  0  0
   56.9860   28.7720   44.9870 C   0  0  0  0  0  0  0  0  0  0  0  0
   57.0494   33.8209   44.2703 H   0  0  0  0  0  0  0  0  0  0  0  0
   56.3064   33.7666   45.9119 H   0  0  0  0  0  0  0  0  0  0  0  0
   58.8325   35.3187   45.1410 H   0  0  0  0  0  0  0  0  0  0  0  0
   61.0904   35.3958   46.1999 H   0  0  0  0  0  0  0  0  0  0  0  0
   60.4967   31.4080   47.7715 H   0  0  0  0  0  0  0  0  0  0  0  0
   58.2368   31.3259   46.7158 H   0  0  0  0  0  0  0  0  0  0  0  0
   59.8671   30.4122   44.1294 H   0  0  0  0  0  0  0  0  0  0  0  0
   60.8457   28.2501   44.8909 H   0  0  0  0  0  0  0  0  0  0  0  0
   59.3622   26.4216   45.7147 H   0  0  0  0  0  0  0  0  0  0  0  0
   55.8956   28.9142   45.0161 H   0  0  0  0  0  0  0  0  0  0  0  0
  1  2  2  0
  2  3  1  0
  3  4  1  0
  4  5  1  0
  5  6  2  0
  6  7  1  0
  7  8  2  0
  8  9  1  0
  8 10  1  0
 10 11  2  0
  2 12  1  0
 12 13  2  0
 13 14  1  0
 14 15  2  0
 15 16  1  0
 16 17  1  0
 16 18  2  0
 11  5  1  0
 18 12  1  0
  4 19  1  0
  4 20  1  0
  6 21  1  0
  7 22  1  0
 10 23  1  0
 11 24  1  0
 13 25  1  0
 14 26  1  0
 15 27  1  0
 18 28  1  0
M  END
>  <UniqueID>  (83) 
78

>  <SMILES>  (83) 
O=C(OCc1ccc(Br)cc1)c1cccc(Cl)c1

>  <Energy>  (83) 
27.0715597140681

>  <Genealogy>  (83) 
O=C(OCc1ccc(Br)cc1)c1cccc(Cl)c1 (3D coordinates assigned)
O=C(OCc1ccc(Br)cc1)c1cccc(Cl)c1 (optimized conformer: 27.0715597140681 kcal/mol)

>  <smiles>  (83) 
O=C(OCc1ccc(Br)cc1)c1cccc(Cl)c1

>  <score_type>  (83) 
oracle

>  <origin>  (83) 
adg

>  <m_score__min__energy>  (83) 
-7.0599999999999996

>  <m_primary>  (83) 
energy

$$$$
83:0
     RDKit          3D

 39 42  0  0  0  0  0  0  0  0999 V2000
   56.4410   30.3870   43.5560 C   0  0  0  0  0  0  0  0  0  0  0  0
   56.5660   30.9650   44.8510 O   0  0  0  0  0  0  0  0  0  0  0  0
   57.4890   31.9680   45.1920 C   0  0  0  0  0  0  0  0  0  0  0  0
   57.4050   33.2660   44.6470 C   0  0  0  0  0  0  0  0  0  0  0  0
   58.3550   34.2350   44.9760 C   0  0  0  0  0  0  0  0  0  0  0  0
   59.3960   33.9260   45.8500 C   0  0  0  0  0  0  0  0  0  0  0  0
   60.3170   34.8710   46.1660 F   0  0  0  0  0  0  0  0  0  0  0  0
   59.4900   32.6480   46.4020 C   0  0  0  0  0  0  0  0  0  0  0  0
   58.5380   31.6620   46.0880 C   0  0  0  0  0  0  0  0  0  0  0  0
   58.6560   30.3160   46.7000 C   0  0  0  0  0  0  0  0  0  0  0  0
   59.4340   30.1240   47.8530 C   0  0  0  0  0  0  0  0  0  0  0  0
   59.5500   28.8540   48.4190 C   0  0  0  0  0  0  0  0  0  0  0  0
   58.8970   27.7630   47.8430 C   0  0  0  0  0  0  0  0  0  0  0  0
   58.1140   27.9290   46.6850 C   0  0  0  0  0  0  0  0  0  0  0  0
   57.4120   26.7820   46.0550 C   0  0  0  0  0  0  0  0  0  0  0  0
   57.9650   26.0500   45.0460 N   0  0  0  0  0  0  0  0  0  0  0  0
   57.0140   25.1390   44.7760 C   0  0  0  0  0  0  0  0  0  0  0  0
   57.0500   24.1280   43.8180 C   0  0  0  0  0  0  0  0  0  0  0  0
   55.9240   23.2880   43.7130 C   0  0  0  0  0  0  0  0  0  0  0  0
   55.9120   22.2900   42.7950 F   0  0  0  0  0  0  0  0  0  0  0  0
   54.8070   23.4800   44.5580 C   0  0  0  0  0  0  0  0  0  0  0  0
   54.8060   24.5120   45.5150 C   0  0  0  0  0  0  0  0  0  0  0  0
   55.9380   25.3210   45.5900 C   0  0  0  0  0  0  0  0  0  0  0  0
   56.1690   26.3560   46.4060 N   0  0  0  0  0  0  0  0  0  0  0  0
   58.0050   29.2130   46.1190 C   0  0  0  0  0  0  0  0  0  0  0  0
   56.2094   29.3161   43.6533 H   0  0  0  0  0  0  0  0  0  0  0  0
   55.6307   30.8890   43.0071 H   0  0  0  0  0  0  0  0  0  0  0  0
   57.3864   30.5093   43.0071 H   0  0  0  0  0  0  0  0  0  0  0  0
   56.5852   33.5169   43.9578 H   0  0  0  0  0  0  0  0  0  0  0  0
   58.2818   35.2442   44.5446 H   0  0  0  0  0  0  0  0  0  0  0  0
   60.3158   32.4098   47.0886 H   0  0  0  0  0  0  0  0  0  0  0  0
   59.9539   30.9780   48.3117 H   0  0  0  0  0  0  0  0  0  0  0  0
   60.1592   28.7118   49.3238 H   0  0  0  0  0  0  0  0  0  0  0  0
   58.9950   26.7660   48.2974 H   0  0  0  0  0  0  0  0  0  0  0  0
   57.9261   23.9907   43.1671 H   0  0  0  0  0  0  0  0  0  0  0  0
   53.9329   22.8185   44.4669 H   0  0  0  0  0  0  0  0  0  0  0  0
   53.9439   24.6738   46.1788 H   0  0  0  0  0  0  0  0  0  0  0  0
   55.5210   26.7380   47.1280 H   0  0  0  0  0  0  0  0  0  0  0  0
   57.4025   29.3558   45.2099 H   0  0  0  0  0  0  0  0  0  0  0  0
  1  2  1  0
  2  3  1  0
  3  4  2  0
  4  5  1  0
  5  6  2  0
  6  7  1  0
  6  8  1  0
  8  9  2  0
  9 10  1  0
 10 11  2  0
 11 12  1  0
 12 13  2  0
 13 14  1  0
 14 15  1  0
 15 16  2  0
 16 17  1  0
 17 18  2  0
 18 19  1  0
 19 20  1  0
 19 21  2  0
 21 22  1  0
 22 23  2  0
 23 24  1  0
 14 25  2  0
  9  3  1  0
 25 10  1  0
 24 15  1  0
 23 17  1  0
  1 26  1  0
  1 27  1  0
  1 28  1  0
  4 29  1  0
  5 30  1  0
  8 31  1  0
 11 32  1  0
 12 33  1  0
 13 34  1  0
 18 35  1  0
 21 36  1  0
 22 37  1  0
 24 38  1  0
 25 39  1  0
M  END
>  <UniqueID>  (84) 
79

>  <SMILES>  (84) 
COc1ccc(F)cc1-c1cccc(-c2nc3cc(F)ccc3[nH]2)c1

>  <Energy>  (84) 
87.83344881899782

>  <Genealogy>  (84) 
COc1ccc(F)cc1-c1cccc(-c2nc3cc(F)ccc3[nH]2)c1 (3D coordinates assigned)
COc1ccc(F)cc1-c1cccc(-c2nc3cc(F)ccc3[nH]2)c1 (optimized conformer: 87.83344881899782 kcal/mol)

>  <smiles>  (84) 
COc1ccc(F)cc1-c1cccc(-c2nc3cc(F)ccc3[nH]2)c1

>  <score_type>  (84) 
oracle

>  <origin>  (84) 
adg

>  <m_score__min__energy>  (84) 
-8.0099999999999998

>  <m_primary>  (84) 
energy

$$$$
84:0
     RDKit          3D

 29 30  0  0  0  0  0  0  0  0999 V2000
   58.7183   25.4431   47.6479 H   0  0  0  0  0  0  0  0  0  0  0  0
   58.7640   26.5280   47.4720 C   0  0  0  0  0  0  0  0  0  0  0  0
   60.0030   27.5590   47.9620 S   0  0  0  0  0  0  0  0  0  0  0  0
   59.2720   28.9290   47.3030 C   0  0  0  0  0  0  0  0  0  0  0  0
   59.7270   30.1480   47.3320 N   0  0  0  0  0  0  0  0  0  0  0  0
   59.0150   31.3480   47.6810 C   0  0  0  0  0  0  0  0  0  0  0  0
   58.5240   31.4870   48.8340 O   0  0  0  0  0  0  0  0  0  0  0  0
   58.8780   32.4550   46.6940 C   0  0  0  0  0  0  0  0  0  0  0  0
   59.7210   33.5780   46.8160 C   0  0  0  0  0  0  0  0  0  0  0  0
   60.4521   33.6223   47.6367 H   0  0  0  0  0  0  0  0  0  0  0  0
   59.6390   34.6340   45.9080 C   0  0  0  0  0  0  0  0  0  0  0  0
   60.3046   35.5031   46.0153 H   0  0  0  0  0  0  0  0  0  0  0  0
   58.7170   34.5900   44.8670 C   0  0  0  0  0  0  0  0  0  0  0  0
   58.6589   35.4219   44.1497 H   0  0  0  0  0  0  0  0  0  0  0  0
   57.8660   33.4930   44.7310 C   0  0  0  0  0  0  0  0  0  0  0  0
   57.1386   33.4669   43.9062 H   0  0  0  0  0  0  0  0  0  0  0  0
   57.9290   32.4190   45.6390 C   0  0  0  0  0  0  0  0  0  0  0  0
   57.0260   31.3060   45.5280 N   0  0  0  0  0  0  0  0  0  0  0  0
   57.0440   30.0800   44.3010 S   0  0  0  0  0  0  0  0  0  0  0  0
   58.3910   29.4170   44.2540 O   0  0  0  0  0  0  0  0  0  0  0  0
   56.0080   29.0450   44.6410 O   0  0  0  0  0  0  0  0  0  0  0  0
   56.6420   30.7900   42.7180 C   0  0  0  0  0  0  0  0  0  0  0  0
   56.1050   31.7384   42.8672 H   0  0  0  0  0  0  0  0  0  0  0  0
   57.5679   30.9776   42.1545 H   0  0  0  0  0  0  0  0  0  0  0  0
   56.0048   30.0926   42.1545 H   0  0  0  0  0  0  0  0  0  0  0  0
   58.0970   28.6150   46.7180 N   0  0  0  0  0  0  0  0  0  0  0  0
   57.4730   29.3090   46.2490 H   0  0  0  0  0  0  0  0  0  0  0  0
   57.8090   27.2890   46.8060 C   0  0  0  0  0  0  0  0  0  0  0  0
   56.8922   26.8522   46.3834 H   0  0  0  0  0  0  0  0  0  0  0  0
  1  2  1  0
  2  3  1  0
  3  4  1  0
  4  5  2  0
  5  6  1  0
  6  7  2  0
  6  8  1  0
  8  9  2  0
  9 10  1  0
  9 11  1  0
 11 12  1  0
 11 13  2  0
 13 14  1  0
 13 15  1  0
 15 16  1  0
 15 17  2  0
 17 18  1  0
 18 19  1  0
 19 20  2  0
 19 21  2  0
 19 22  1  0
 22 23  1  0
 22 24  1  0
 22 25  1  0
  4 26  1  0
 26 27  1  0
 26 28  1  0
 28 29  1  0
 28  2  2  0
 17  8  1  0
M  CHG  1  18  -1
M  END
>  <UniqueID>  (85) 
80

>  <SMILES>  (85) 
CS(=O)(=O)[N-]c1ccccc1C(=O)/N=c1/[nH]ccs1

>  <Energy>  (85) 
65.42739393643889

>  <Genealogy>  (85) 
CS(=O)(=O)[N-]c1ccccc1C(=O)N=c1[nH]ccs1 (protonated)
CS(=O)(=O)[N-]c1ccccc1C(=O)/N=c1/[nH]ccs1 (cis-trans isomerization)
CS(=O)(=O)[N-]c1ccccc1C(=O)/N=c1/[nH]ccs1 (3D coordinates assigned)
CS(=O)(=O)[N-]c1ccccc1C(=O)/N=c1/[nH]ccs1 (optimized conformer: 65.42739393643889 kcal/mol)

>  <smiles>  (85) 
CS(=O)(=O)Nc1ccccc1C(=O)N=c1[nH]ccs1

>  <score_type>  (85) 
oracle

>  <origin>  (85) 
adg

>  <m_score__min__energy>  (85) 
-9.7100000000000009

>  <m_primary>  (85) 
energy

$$$$
85:0
     RDKit          3D

 58 61  0  0  0  0  0  0  0  0999 V2000
   63.6440   31.4590   49.9550 C   0  0  0  0  0  0  0  0  0  0  0  0
   63.5940   32.2710   48.7400 N   0  0  0  0  0  0  0  0  0  0  0  0
   64.2500   33.4340   48.5590 C   0  0  0  0  0  0  0  0  0  0  0  0
   63.9180   34.0440   47.4020 N   0  0  0  0  0  0  0  0  0  0  0  0
   63.0050   33.2260   46.8390 C   0  0  0  0  0  0  0  0  0  0  0  0
   62.7930   32.1390   47.6630 C   0  0  0  0  0  0  0  0  0  0  0  0
   61.8630   30.9880   47.3860 C   0  0  0  0  0  0  0  0  0  0  0  0
   60.4570   31.4000   47.5560 N   0  0  0  0  0  0  0  0  0  0  0  0
   59.7600   31.8780   46.3510 C   0  0  0  0  0  0  0  0  0  0  0  0
   58.2320   31.7670   46.5060 C   0  0  2  0  0  0  0  0  0  0  0  0
   57.4280   32.1520   45.3030 N   0  0  0  0  0  0  0  0  0  0  0  0
   57.9700   33.2220   44.4270 C   0  0  0  0  0  0  0  0  0  0  0  0
   57.9770   34.6050   45.1010 C   0  0  0  0  0  0  0  0  0  0  0  0
   59.3630   35.0260   45.6090 C   0  0  0  0  0  0  0  0  0  0  0  0
   60.3360   34.1850   45.0960 F   0  0  0  0  0  0  0  0  0  0  0  0
   59.6480   36.3280   45.2400 F   0  0  0  0  0  0  0  0  0  0  0  0
   59.3880   34.9410   46.9900 F   0  0  0  0  0  0  0  0  0  0  0  0
   57.0540   30.7300   44.3480 S   0  0  0  0  0  0  0  0  0  0  0  0
   55.5960   30.4000   44.5020 O   0  0  0  0  0  0  0  0  0  0  0  0
   57.3230   30.9820   42.8890 O   0  0  0  0  0  0  0  0  0  0  0  0
   58.0090   29.3590   44.8940 C   0  0  0  0  0  0  0  0  0  0  0  0
   57.4020   28.2830   45.5540 C   0  0  0  0  0  0  0  0  0  0  0  0
   58.1770   27.1780   45.9170 C   0  0  0  0  0  0  0  0  0  0  0  0
   59.5390   27.1540   45.6090 C   0  0  0  0  0  0  0  0  0  0  0  0
   60.1090   28.2460   44.9500 C   0  0  0  0  0  0  0  0  0  0  0  0
   59.3400   29.3130   44.6050 N   0  0  0  0  0  0  0  0  0  0  0  0
   57.7800   32.5610   47.7340 C   0  0  0  0  0  0  0  0  0  0  0  0
   58.5270   32.1150   48.9630 C   0  0  0  0  0  0  0  0  0  0  0  0
   57.9320   32.3020   50.2190 C   0  0  0  0  0  0  0  0  0  0  0  0
   58.6030   31.9260   51.3840 C   0  0  0  0  0  0  0  0  0  0  0  0
   57.9860   32.1280   52.6690 C   0  0  0  0  0  0  0  0  0  0  0  0
   57.4900   32.2900   53.7010 N   0  0  0  0  0  0  0  0  0  0  0  0
   59.8750   31.3590   51.3000 C   0  0  0  0  0  0  0  0  0  0  0  0
   60.4840   31.1750   50.0560 C   0  0  0  0  0  0  0  0  0  0  0  0
   59.8360   31.5710   48.8650 C   0  0  0  0  0  0  0  0  0  0  0  0
   63.6036   32.1155   50.8367 H   0  0  0  0  0  0  0  0  0  0  0  0
   62.7866   30.7701   49.9712 H   0  0  0  0  0  0  0  0  0  0  0  0
   64.5795   30.8805   49.9712 H   0  0  0  0  0  0  0  0  0  0  0  0
   64.9772   33.8419   49.2765 H   0  0  0  0  0  0  0  0  0  0  0  0
   62.5069   33.3984   45.8735 H   0  0  0  0  0  0  0  0  0  0  0  0
   62.0152   30.6415   46.3531 H   0  0  0  0  0  0  0  0  0  0  0  0
   62.0821   30.1778   48.0970 H   0  0  0  0  0  0  0  0  0  0  0  0
   60.0267   32.9309   46.1770 H   0  0  0  0  0  0  0  0  0  0  0  0
   60.0686   31.2521   45.5007 H   0  0  0  0  0  0  0  0  0  0  0  0
   58.0294   30.6935   46.6349 H   0  0  0  0  0  0  0  0  0  0  0  0
   59.0026   32.9607   44.1525 H   0  0  0  0  0  0  0  0  0  0  0  0
   57.3151   33.2889   43.5457 H   0  0  0  0  0  0  0  0  0  0  0  0
   57.6315   35.3512   44.3704 H   0  0  0  0  0  0  0  0  0  0  0  0
   57.3139   34.5440   45.9765 H   0  0  0  0  0  0  0  0  0  0  0  0
   56.3266   28.3074   45.7842 H   0  0  0  0  0  0  0  0  0  0  0  0
   57.7155   26.3297   46.4437 H   0  0  0  0  0  0  0  0  0  0  0  0
   60.1559   26.2852   45.8822 H   0  0  0  0  0  0  0  0  0  0  0  0
   61.1824   28.2426   44.7096 H   0  0  0  0  0  0  0  0  0  0  0  0
   57.9726   33.6304   47.5631 H   0  0  0  0  0  0  0  0  0  0  0  0
   56.7054   32.3861   47.8913 H   0  0  0  0  0  0  0  0  0  0  0  0
   56.9289   32.7483   50.2868 H   0  0  0  0  0  0  0  0  0  0  0  0
   60.4008   31.0554   52.2173 H   0  0  0  0  0  0  0  0  0  0  0  0
   61.4820   30.7154   50.0034 H   0  0  0  0  0  0  0  0  0  0  0  0
  1  2  1  0
  2  3  1  0
  3  4  2  0
  4  5  1  0
  5  6  2  0
  6  7  1  0
  7  8  1  0
  8  9  1  0
  9 10  1  0
 10 11  1  0
 11 12  1  0
 12 13  1  0
 13 14  1  0
 14 15  1  0
 14 16  1  0
 14 17  1  0
 11 18  1  0
 18 19  2  0
 18 20  2  0
 18 21  1  0
 21 22  2  0
 22 23  1  0
 23 24  2  0
 24 25  1  0
 25 26  2  0
 10 27  1  0
 27 28  1  0
 28 29  2  0
 29 30  1  0
 30 31  1  0
 31 32  3  0
 30 33  2  0
 33 34  1  0
 34 35  2  0
  6  2  1  0
 35  8  1  0
 26 21  1  0
 35 28  1  0
  1 36  1  0
  1 37  1  0
  1 38  1  0
  3 39  1  0
  5 40  1  0
  7 41  1  0
  7 42  1  0
  9 43  1  0
  9 44  1  0
 10 45  1  1
 12 46  1  0
 12 47  1  0
 13 48  1  0
 13 49  1  0
 22 50  1  0
 23 51  1  0
 24 52  1  0
 25 53  1  0
 27 54  1  0
 27 55  1  0
 29 56  1  0
 33 57  1  0
 34 58  1  0
M  END
>  <UniqueID>  (86) 
81

>  <SMILES>  (86) 
Cn1cncc1CN1C[C@H](N(CCC(F)(F)F)S(=O)(=O)c2ccccn2)Cc2cc(C#N)ccc21

>  <Energy>  (86) 
97.22571798930245

>  <Genealogy>  (86) 
Cn1cncc1CN1C[C@H](N(CCC(F)(F)F)S(=O)(=O)c2ccccn2)Cc2cc(C#N)ccc21 (chirality)
Cn1cncc1CN1C[C@H](N(CCC(F)(F)F)S(=O)(=O)c2ccccn2)Cc2cc(C#N)ccc21 (3D coordinates assigned)
Cn1cncc1CN1C[C@H](N(CCC(F)(F)F)S(=O)(=O)c2ccccn2)Cc2cc(C#N)ccc21 (nonaromatic ring conformer: 97.22571798930245 kcal/mol)

>  <smiles>  (86) 
Cn1cncc1CN1CC(N(CCC(F)(F)F)S(=O)(=O)c2ccccn2)Cc2cc(C#N)ccc21

>  <score_type>  (86) 
oracle

>  <origin>  (86) 
adg

>  <m_score__min__energy>  (86) 
-8.1699999999999999

>  <m_primary>  (86) 
energy

$$$$
86:0
     RDKit          3D

 47 50  0  0  0  0  0  0  0  0999 V2000
   55.6120   23.2110   46.4090 H   0  0  0  0  0  0  0  0  0  0  0  0
   55.2610   24.1950   46.4130 N   0  0  0  0  0  0  0  0  0  0  0  0
   56.0680   25.2000   46.5260 C   0  0  0  0  0  0  0  0  0  0  0  0
   55.8060   26.3700   45.8860 N   0  0  0  0  0  0  0  0  0  0  0  0
   56.6430   27.4360   45.9900 C   0  0  0  0  0  0  0  0  0  0  0  0
   56.4097   28.3755   45.4676 H   0  0  0  0  0  0  0  0  0  0  0  0
   57.8070   27.3310   46.7680 C   0  0  0  0  0  0  0  0  0  0  0  0
   58.7450   28.4660   46.9310 C   0  0  0  0  0  0  0  0  0  0  0  0
   59.1440   28.8490   48.2230 C   0  0  0  0  0  0  0  0  0  0  0  0
   58.7559   28.3042   49.0963 H   0  0  0  0  0  0  0  0  0  0  0  0
   60.0280   29.9140   48.4100 C   0  0  0  0  0  0  0  0  0  0  0  0
   60.3159   30.2142   49.4283 H   0  0  0  0  0  0  0  0  0  0  0  0
   60.5500   30.6020   47.3060 C   0  0  0  0  0  0  0  0  0  0  0  0
   61.4780   31.7340   47.5050 C   0  0  0  0  0  0  0  0  0  0  0  0
   62.8240   31.5580   47.1410 C   0  0  0  0  0  0  0  0  0  0  0  0
   63.1437   30.6138   46.6758 H   0  0  0  0  0  0  0  0  0  0  0  0
   63.7580   32.5690   47.3640 C   0  0  0  0  0  0  0  0  0  0  0  0
   64.8076   32.4221   47.0694 H   0  0  0  0  0  0  0  0  0  0  0  0
   63.3630   33.7660   47.9600 C   0  0  0  0  0  0  0  0  0  0  0  0
   64.1046   34.5556   48.1511 H   0  0  0  0  0  0  0  0  0  0  0  0
   62.0290   33.9630   48.3140 C   0  0  0  0  0  0  0  0  0  0  0  0
   61.7264   34.9075   48.7898 H   0  0  0  0  0  0  0  0  0  0  0  0
   61.0670   32.9690   48.0700 C   0  0  0  0  0  0  0  0  0  0  0  0
   59.3720   33.3610   48.4240 S   0  0  0  0  0  0  0  0  0  0  0  0
   58.5200   32.1310   48.5620 O   0  0  0  0  0  0  0  0  0  0  0  0
   59.3230   34.1360   49.7100 O   0  0  0  0  0  0  0  0  0  0  0  0
   58.7160   34.3420   47.1490 N   0  0  0  0  0  0  0  0  0  0  0  0
   58.9980   34.1590   45.7560 C   0  0  0  0  0  0  0  0  0  0  0  0
   59.8470   34.9080   45.2040 O   0  0  0  0  0  0  0  0  0  0  0  0
   58.3520   33.1000   44.9590 C   0  0  0  0  0  0  0  0  0  0  0  0
   58.5110   33.0780   43.5640 C   0  0  0  0  0  0  0  0  0  0  0  0
   59.0897   33.8696   43.0654 H   0  0  0  0  0  0  0  0  0  0  0  0
   57.9360   32.0530   42.8070 C   0  0  0  0  0  0  0  0  0  0  0  0
   58.0780   32.0288   41.7165 H   0  0  0  0  0  0  0  0  0  0  0  0
   57.1800   31.0580   43.4360 C   0  0  0  0  0  0  0  0  0  0  0  0
   56.7335   30.2479   42.8408 H   0  0  0  0  0  0  0  0  0  0  0  0
   56.9920   31.0930   44.8200 C   0  0  0  0  0  0  0  0  0  0  0  0
   56.3861   30.3178   45.3120 H   0  0  0  0  0  0  0  0  0  0  0  0
   57.5730   32.1120   45.5800 C   0  0  0  0  0  0  0  0  0  0  0  0
   57.4190   32.1395   46.6688 H   0  0  0  0  0  0  0  0  0  0  0  0
   60.1530   30.2290   46.0130 C   0  0  0  0  0  0  0  0  0  0  0  0
   60.5416   30.7785   45.1429 H   0  0  0  0  0  0  0  0  0  0  0  0
   59.2670   29.1640   45.8220 C   0  0  0  0  0  0  0  0  0  0  0  0
   58.9640   28.7890   44.5540 F   0  0  0  0  0  0  0  0  0  0  0  0
   58.0540   26.1590   47.4190 N   0  0  0  0  0  0  0  0  0  0  0  0
   57.2170   25.0940   47.3140 C   0  0  0  0  0  0  0  0  0  0  0  0
   57.4418   24.1569   47.8444 H   0  0  0  0  0  0  0  0  0  0  0  0
  1  2  1  0
  2  3  2  0
  3  4  1  0
  4  5  1  0
  5  6  1  0
  5  7  2  0
  7  8  1  0
  8  9  2  0
  9 10  1  0
  9 11  1  0
 11 12  1  0
 11 13  2  0
 13 14  1  0
 14 15  2  0
 15 16  1  0
 15 17  1  0
 17 18  1  0
 17 19  2  0
 19 20  1  0
 19 21  1  0
 21 22  1  0
 21 23  2  0
 23 24  1  0
 24 25  2  0
 24 26  2  0
 24 27  1  0
 27 28  1  0
 28 29  2  0
 28 30  1  0
 30 31  2  0
 31 32  1  0
 31 33  1  0
 33 34  1  0
 33 35  2  0
 35 36  1  0
 35 37  1  0
 37 38  1  0
 37 39  2  0
 39 40  1  0
 13 41  1  0
 41 42  1  0
 41 43  2  0
 43 44  1  0
  7 45  1  0
 45 46  2  0
 46 47  1  0
 46  3  1  0
 43  8  1  0
 23 14  1  0
 39 30  1  0
M  CHG  2   4  -1  27  -1
M  END
>  <UniqueID>  (87) 
82

>  <SMILES>  (87) 
[H]/N=c1/cnc(-c2ccc(-c3ccccc3S(=O)(=O)[N-]C(=O)c3ccccc3)cc2F)c[n-]1

>  <Energy>  (87) 
72.75730964005675

>  <Genealogy>  (87) 
N=c1cnc(-c2ccc(-c3ccccc3S(=O)(=O)[N-]C(=O)c3ccccc3)cc2F)c[n-]1 (protonated)
[H]/N=c1/cnc(-c2ccc(-c3ccccc3S(=O)(=O)[N-]C(=O)c3ccccc3)cc2F)c[n-]1 (cis-trans isomerization)
[H]/N=c1/cnc(-c2ccc(-c3ccccc3S(=O)(=O)[N-]C(=O)c3ccccc3)cc2F)c[n-]1 (3D coordinates assigned)
[H]/N=c1/cnc(-c2ccc(-c3ccccc3S(=O)(=O)[N-]C(=O)c3ccccc3)cc2F)c[n-]1 (optimized conformer: 72.75730964005675 kcal/mol)

>  <smiles>  (87) 
N=c1cnc(-c2ccc(-c3ccccc3S(=O)(=O)NC(=O)c3ccccc3)cc2F)c[nH]1

>  <score_type>  (87) 
oracle

>  <origin>  (87) 
adg

>  <m_score__min__energy>  (87) 
-12.130000000000001

>  <m_primary>  (87) 
energy

$$$$
87:0
     RDKit          3D

 98102  0  0  0  0  0  0  0  0999 V2000
   57.6390   21.0840   45.0420 N   0  0  0  0  0  0  0  0  0  0  0  0
   56.5030   21.1370   44.1810 C   0  0  0  0  0  0  0  0  0  0  0  0
   56.0820   19.9410   43.5090 N   0  0  0  0  0  0  0  0  0  0  0  0
   55.8740   22.2730   44.0460 N   0  0  0  0  0  0  0  0  0  0  0  0
   56.0700   23.2980   43.0210 C   0  0  0  0  0  0  0  0  0  0  0  0
   57.1350   24.3200   43.4410 C   0  0  0  0  0  0  0  0  0  0  0  0
   57.2510   24.4560   44.9690 C   0  0  0  0  0  0  0  0  0  0  0  0
   56.0230   25.1250   45.6240 C   0  0  2  0  0  0  0  0  0  0  0  0
   56.4420   26.0520   46.6770 N   0  0  0  0  0  0  0  0  0  0  0  0
   57.7740   26.1460   47.1910 C   0  0  0  0  0  0  0  0  0  0  0  0
   58.1660   25.3290   48.0660 O   0  0  0  0  0  0  0  0  0  0  0  0
   58.7540   27.1530   46.6420 C   0  0  1  0  0  0  0  0  0  0  0  0
   58.1690   28.5740   46.4420 C   0  0  0  0  0  0  0  0  0  0  0  0
   57.5870   28.8330   45.0650 C   0  0  0  0  0  0  0  0  0  0  0  0
   57.9070   28.0010   43.9770 C   0  0  0  0  0  0  0  0  0  0  0  0
   57.3880   28.2640   42.7100 C   0  0  0  0  0  0  0  0  0  0  0  0
   56.5070   29.3330   42.5190 C   0  0  0  0  0  0  0  0  0  0  0  0
   56.1430   30.1400   43.5990 C   0  0  0  0  0  0  0  0  0  0  0  0
   56.6820   29.8940   44.8670 C   0  0  0  0  0  0  0  0  0  0  0  0
   59.9290   27.1960   47.5070 N   0  0  0  0  0  0  0  0  0  0  0  0
   60.0170   27.8680   48.7690 C   0  0  0  0  0  0  0  0  0  0  0  0
   60.4660   27.2420   49.7640 O   0  0  0  0  0  0  0  0  0  0  0  0
   59.6790   29.3030   48.9180 C   0  0  0  0  0  0  0  0  0  0  0  0
   60.5080   30.3400   48.2010 C   0  0  0  0  0  0  0  0  0  0  0  0
   59.6490   31.3510   47.4840 C   0  0  0  0  0  0  0  0  0  0  0  0
   58.8020   32.2020   48.2140 C   0  0  0  0  0  0  0  0  0  0  0  0
   57.9670   33.1010   47.5450 C   0  0  0  0  0  0  0  0  0  0  0  0
   57.9720   33.1640   46.1500 C   0  0  0  0  0  0  0  0  0  0  0  0
   58.8130   32.3180   45.4190 C   0  0  0  0  0  0  0  0  0  0  0  0
   59.6450   31.4100   46.0810 C   0  0  0  0  0  0  0  0  0  0  0  0
   58.6620   29.7160   49.6160 N   0  0  0  0  0  0  0  0  0  0  0  0
   58.5170   29.7860   51.0430 C   0  0  0  0  0  0  0  0  0  0  0  0
   57.4370   29.4640   51.6040 O   0  0  0  0  0  0  0  0  0  0  0  0
   59.6720   30.3060   51.8590 C   0  0  2  0  0  0  0  0  0  0  0  0
   59.1460   30.9650   53.1510 C   0  0  0  0  0  0  0  0  0  0  0  0
   58.9430   32.4390   52.9740 C   0  0  0  0  0  0  0  0  0  0  0  0
   59.7480   33.4270   53.4910 C   0  0  0  0  0  0  0  0  0  0  0  0
   59.2480   34.6190   53.1330 N   0  0  0  0  0  0  0  0  0  0  0  0
   58.1600   34.3150   52.3930 C   0  0  0  0  0  0  0  0  0  0  0  0
   57.9360   32.9900   52.2730 N   0  0  0  0  0  0  0  0  0  0  0  0
   60.4310   31.2840   51.0820 N   0  0  0  0  0  0  0  0  0  0  0  0
   61.8500   31.4120   51.1050 C   0  0  0  0  0  0  0  0  0  0  0  0
   62.5550   30.4530   50.6780 O   0  0  0  0  0  0  0  0  0  0  0  0
   62.4500   32.5670   51.6250 O   0  0  0  0  0  0  0  0  0  0  0  0
   63.3750   33.3720   50.8930 C   0  0  0  0  0  0  0  0  0  0  0  0
   62.9540   33.4780   49.4530 C   0  0  0  0  0  0  0  0  0  0  0  0
   61.7310   34.0760   49.1130 C   0  0  0  0  0  0  0  0  0  0  0  0
   61.3400   34.1800   47.7740 C   0  0  0  0  0  0  0  0  0  0  0  0
   62.1700   33.6860   46.7640 C   0  0  0  0  0  0  0  0  0  0  0  0
   63.3950   33.0970   47.0910 C   0  0  0  0  0  0  0  0  0  0  0  0
   63.7920   33.0020   48.4290 C   0  0  0  0  0  0  0  0  0  0  0  0
   55.0610   24.0960   46.1780 C   0  0  0  0  0  0  0  0  0  0  0  0
   53.8690   24.0550   45.7510 O   0  0  0  0  0  0  0  0  0  0  0  0
   55.4790   23.1380   47.2160 C   0  0  0  0  0  0  0  0  0  0  0  0
   56.6980   22.5620   47.2710 N   0  0  0  0  0  0  0  0  0  0  0  0
   56.8190   21.7260   48.3370 C   0  0  0  0  0  0  0  0  0  0  0  0
   55.6910   21.6290   49.1380 C   0  0  0  0  0  0  0  0  0  0  0  0
   54.5050   22.6200   48.4860 S   0  0  0  0  0  0  0  0  0  0  0  0
   57.9320   21.9400   45.5680 H   0  0  0  0  0  0  0  0  0  0  0  0
   58.1860   20.2060   45.1610 H   0  0  0  0  0  0  0  0  0  0  0  0
   56.6040   19.0500   43.6630 H   0  0  0  0  0  0  0  0  0  0  0  0
   55.2010   19.8800   42.9640 H   0  0  0  0  0  0  0  0  0  0  0  0
   56.3897   22.8125   42.0871 H   0  0  0  0  0  0  0  0  0  0  0  0
   55.1180   23.8309   42.8806 H   0  0  0  0  0  0  0  0  0  0  0  0
   58.1082   24.0001   43.0404 H   0  0  0  0  0  0  0  0  0  0  0  0
   56.8348   25.2994   43.0402 H   0  0  0  0  0  0  0  0  0  0  0  0
   57.3707   23.4509   45.3997 H   0  0  0  0  0  0  0  0  0  0  0  0
   58.1174   25.1030   45.1709 H   0  0  0  0  0  0  0  0  0  0  0  0
   55.4960   25.6922   44.8427 H   0  0  0  0  0  0  0  0  0  0  0  0
   59.0252   26.8125   45.6318 H   0  0  0  0  0  0  0  0  0  0  0  0
   57.3714   28.7236   47.1846 H   0  0  0  0  0  0  0  0  0  0  0  0
   59.0086   29.2747   46.5608 H   0  0  0  0  0  0  0  0  0  0  0  0
   58.5712   27.1370   44.1268 H   0  0  0  0  0  0  0  0  0  0  0  0
   57.6724   27.6288   41.8582 H   0  0  0  0  0  0  0  0  0  0  0  0
   56.1005   29.5383   41.5177 H   0  0  0  0  0  0  0  0  0  0  0  0
   55.4336   30.9679   43.4533 H   0  0  0  0  0  0  0  0  0  0  0  0
   56.3968   30.5339   45.7151 H   0  0  0  0  0  0  0  0  0  0  0  0
   61.1351   30.8646   48.9369 H   0  0  0  0  0  0  0  0  0  0  0  0
   61.1242   29.8235   47.4503 H   0  0  0  0  0  0  0  0  0  0  0  0
   58.7962   32.1605   49.3132 H   0  0  0  0  0  0  0  0  0  0  0  0
   57.3024   33.7624   48.1202 H   0  0  0  0  0  0  0  0  0  0  0  0
   57.3168   33.8765   45.6275 H   0  0  0  0  0  0  0  0  0  0  0  0
   58.8197   32.3673   44.3201 H   0  0  0  0  0  0  0  0  0  0  0  0
   60.2978   30.7405   45.5016 H   0  0  0  0  0  0  0  0  0  0  0  0
   60.3304   29.4652   52.1229 H   0  0  0  0  0  0  0  0  0  0  0  0
   58.1857   30.5023   53.4226 H   0  0  0  0  0  0  0  0  0  0  0  0
   59.8930   30.8129   53.9440 H   0  0  0  0  0  0  0  0  0  0  0  0
   60.6517   33.2664   54.0973 H   0  0  0  0  0  0  0  0  0  0  0  0
   57.5158   35.0774   51.9307 H   0  0  0  0  0  0  0  0  0  0  0  0
   63.4087   34.3785   51.3356 H   0  0  0  0  0  0  0  0  0  0  0  0
   64.3695   32.9044   50.9401 H   0  0  0  0  0  0  0  0  0  0  0  0
   61.0749   34.4658   49.9052 H   0  0  0  0  0  0  0  0  0  0  0  0
   60.3797   34.6504   47.5161 H   0  0  0  0  0  0  0  0  0  0  0  0
   61.8594   33.7606   45.7114 H   0  0  0  0  0  0  0  0  0  0  0  0
   64.0473   32.7079   46.2954 H   0  0  0  0  0  0  0  0  0  0  0  0
   64.7640   32.5530   48.6812 H   0  0  0  0  0  0  0  0  0  0  0  0
   57.7432   21.1681   48.5482 H   0  0  0  0  0  0  0  0  0  0  0  0
   55.5915   21.0106   50.0423 H   0  0  0  0  0  0  0  0  0  0  0  0
  1  2  1  0
  2  3  1  0
  2  4  2  3
  4  5  1  0
  5  6  1  0
  6  7  1  0
  7  8  1  0
  8  9  1  0
  9 10  1  0
 10 11  2  0
 10 12  1  0
 12 13  1  0
 13 14  1  0
 14 15  2  0
 15 16  1  0
 16 17  2  0
 17 18  1  0
 18 19  2  0
 12 20  1  0
 20 21  1  0
 21 22  2  0
 21 23  1  0
 23 24  1  0
 24 25  1  0
 25 26  2  0
 26 27  1  0
 27 28  2  0
 28 29  1  0
 29 30  2  0
 23 31  2  3
 31 32  1  0
 32 33  2  0
 32 34  1  0
 34 35  1  0
 35 36  1  0
 36 37  2  0
 37 38  1  0
 38 39  1  0
 39 40  2  0
 34 41  1  0
 41 42  1  0
 42 43  2  0
 42 44  1  0
 44 45  1  0
 45 46  1  0
 46 47  2  0
 47 48  1  0
 48 49  2  0
 49 50  1  0
 50 51  2  0
  8 52  1  0
 52 53  2  0
 52 54  1  0
 54 55  2  0
 55 56  1  0
 56 57  2  0
 57 58  1  0
 19 14  1  0
 30 25  1  0
 40 36  1  0
 51 46  1  0
 58 54  1  0
  1 59  1  0
  1 60  1  0
  3 61  1  0
  3 62  1  0
  5 63  1  0
  5 64  1  0
  6 65  1  0
  6 66  1  0
  7 67  1  0
  7 68  1  0
  8 69  1  6
 12 70  1  6
 13 71  1  0
 13 72  1  0
 15 73  1  0
 16 74  1  0
 17 75  1  0
 18 76  1  0
 19 77  1  0
 24 78  1  0
 24 79  1  0
 26 80  1  0
 27 81  1  0
 28 82  1  0
 29 83  1  0
 30 84  1  0
 34 85  1  1
 35 86  1  0
 35 87  1  0
 37 88  1  0
 39 89  1  0
 45 90  1  0
 45 91  1  0
 47 92  1  0
 48 93  1  0
 49 94  1  0
 50 95  1  0
 51 96  1  0
 56 97  1  0
 57 98  1  0
M  CHG  4   9  -1  20  -1  38  -1  41  -1
M  END
>  <UniqueID>  (88) 
83

>  <SMILES>  (88) 
NC(N)=NCCC[C@H]([N-]C(=O)[C@@H](Cc1ccccc1)[N-]C(=O)C(Cc1ccccc1)=NC(=O)C(Cc1c[n-]cn1)[N-]C(=O)OCc1ccccc1)C(=O)c1nccs1

>  <Energy>  (88) 
151.3270072227835

>  <Genealogy>  (88) 
NC(N)=NCCCC([N-]C(=O)C(Cc1ccccc1)[N-]C(=O)C(Cc1ccccc1)=NC(=O)C(Cc1c[n-]cn1)[N-]C(=O)OCc1ccccc1)C(=O)c1nccs1 (protonated)
NC(N)=NCCC[C@H]([N-]C(=O)[C@@H](Cc1ccccc1)[N-]C(=O)C(Cc1ccccc1)=NC(=O)C(Cc1c[n-]cn1)[N-]C(=O)OCc1ccccc1)C(=O)c1nccs1 (chirality)
NC(N)=NCCC[C@H]([N-]C(=O)[C@@H](Cc1ccccc1)[N-]C(=O)C(Cc1ccccc1)=NC(=O)C(Cc1c[n-]cn1)[N-]C(=O)OCc1ccccc1)C(=O)c1nccs1 (3D coordinates assigned)
NC(N)=NCCC[C@H]([N-]C(=O)[C@@H](Cc1ccccc1)[N-]C(=O)C(Cc1ccccc1)=NC(=O)C(Cc1c[n-]cn1)[N-]C(=O)OCc1ccccc1)C(=O)c1nccs1 (optimized conformer: 151.3270072227835 kcal/mol)

>  <smiles>  (88) 
NC(N)=NCCCC(NC(=O)C(Cc1ccccc1)NC(=O)C(Cc1ccccc1)=NC(=O)C(Cc1c[nH]cn1)NC(=O)OCc1ccccc1)C(=O)c1nccs1

>  <score_type>  (88) 
oracle

>  <origin>  (88) 
adg

>  <m_score__min__energy>  (88) 
-15.380000000000001

>  <m_primary>  (88) 
energy

$$$$
88:0
     RDKit          3D

 31 32  0  0  0  0  0  0  0  0999 V2000
   59.0200   33.0430   48.5660 C   0  0  0  0  0  0  0  0  0  0  0  0
   58.8050   33.1670   47.1030 C   0  0  0  0  0  0  0  0  0  0  0  0
   58.7610   34.4490   46.5730 C   0  0  0  0  0  0  0  0  0  0  0  0
   58.5620   34.6520   45.2050 C   0  0  0  0  0  0  0  0  0  0  0  0
   58.4150   33.5250   44.4310 C   0  0  0  0  0  0  0  0  0  0  0  0
   58.4560   32.2450   44.9480 C   0  0  0  0  0  0  0  0  0  0  0  0
   58.2840   31.1060   44.0080 C   0  0  0  0  0  0  0  0  0  0  0  0
   56.6940   30.2580   44.2430 S   0  0  0  0  0  0  0  0  0  0  0  0
   57.0480   28.7550   45.1720 C   0  0  0  0  0  0  0  0  0  0  0  0
   58.3320   28.6530   45.6880 C   0  0  0  0  0  0  0  0  0  0  0  0
   58.6340   27.5110   46.4060 C   0  0  0  0  0  0  0  0  0  0  0  0
   60.0070   27.3880   46.9650 C   0  0  0  0  0  0  0  0  0  0  0  0
   57.6910   26.5560   46.5770 N   0  0  0  0  0  0  0  0  0  0  0  0
   56.4470   26.7160   46.0450 C   0  0  0  0  0  0  0  0  0  0  0  0
   55.5670   25.8310   46.2030 O   0  0  0  0  0  0  0  0  0  0  0  0
   56.1140   27.8020   45.3460 N   0  0  0  0  0  0  0  0  0  0  0  0
   58.6540   32.0510   46.3040 C   0  0  0  0  0  0  0  0  0  0  0  0
   58.1874   33.5232   49.1010 H   0  0  0  0  0  0  0  0  0  0  0  0
   59.0673   31.9789   48.8408 H   0  0  0  0  0  0  0  0  0  0  0  0
   59.9647   33.5350   48.8408 H   0  0  0  0  0  0  0  0  0  0  0  0
   58.8844   35.3162   47.2384 H   0  0  0  0  0  0  0  0  0  0  0  0
   58.5248   35.6615   44.7696 H   0  0  0  0  0  0  0  0  0  0  0  0
   58.2574   33.6487   43.3494 H   0  0  0  0  0  0  0  0  0  0  0  0
   58.3338   31.4865   42.9771 H   0  0  0  0  0  0  0  0  0  0  0  0
   59.0868   30.3803   44.2054 H   0  0  0  0  0  0  0  0  0  0  0  0
   59.0775   29.4467   45.5324 H   0  0  0  0  0  0  0  0  0  0  0  0
   59.9573   27.3925   48.0639 H   0  0  0  0  0  0  0  0  0  0  0  0
   60.4594   26.4457   46.6223 H   0  0  0  0  0  0  0  0  0  0  0  0
   60.6197   28.2349   46.6223 H   0  0  0  0  0  0  0  0  0  0  0  0
   55.1440   27.9240   44.9320 H   0  0  0  0  0  0  0  0  0  0  0  0
   58.6900   31.0384   46.7322 H   0  0  0  0  0  0  0  0  0  0  0  0
  1  2  1  0
  2  3  2  0
  3  4  1  0
  4  5  2  0
  5  6  1  0
  6  7  1  0
  7  8  1  0
  8  9  1  0
  9 10  2  0
 10 11  1  0
 11 12  1  0
 11 13  2  0
 13 14  1  0
 14 15  2  0
 14 16  1  0
  6 17  2  0
 17  2  1  0
 16  9  1  0
  1 18  1  0
  1 19  1  0
  1 20  1  0
  3 21  1  0
  4 22  1  0
  5 23  1  0
  7 24  1  0
  7 25  1  0
 10 26  1  0
 12 27  1  0
 12 28  1  0
 12 29  1  0
 16 30  1  0
 17 31  1  0
M  END
>  <smiles>  (89) 
Cc1cccc(CSc2cc(C)nc(=O)[nH]2)c1

>  <score_type>  (89) 
oracle

>  <origin>  (89) 
adg

>  <m_score__min__energy>  (89) 
-7.5700000000000003

>  <m_primary>  (89) 
energy

$$$$
89:0
     RDKit          3D

 38 40  0  0  0  0  0  0  0  0999 V2000
   55.3590   29.9370   44.4500 O   0  0  0  0  0  0  0  0  0  0  0  0
   56.4630   29.6390   44.9810 C   0  0  0  0  0  0  0  0  0  0  0  0
   56.6100   28.3850   45.5880 C   0  0  0  0  0  0  0  0  0  0  0  0
   55.5500   27.4840   45.6130 O   0  0  0  0  0  0  0  0  0  0  0  0
   57.8290   28.0360   46.1620 C   0  0  0  0  0  0  0  0  0  0  0  0
   58.8980   28.9400   46.1410 C   0  0  0  0  0  0  0  0  0  0  0  0
   60.1870   28.5680   46.6680 N   0  0  0  0  0  0  0  0  0  0  0  0
   60.7210   29.6630   47.4390 C   0  0  0  0  0  0  0  0  0  0  0  0
   60.5070   29.7290   48.8280 C   0  0  0  0  0  0  0  0  0  0  0  0
   61.0620   30.7680   49.5810 C   0  0  0  0  0  0  0  0  0  0  0  0
   61.8420   31.7460   48.9570 C   0  0  0  0  0  0  0  0  0  0  0  0
   62.0690   31.6860   47.5790 C   0  0  0  0  0  0  0  0  0  0  0  0
   62.8330   32.6310   46.9770 F   0  0  0  0  0  0  0  0  0  0  0  0
   61.5140   30.6500   46.8220 C   0  0  0  0  0  0  0  0  0  0  0  0
   58.7110   30.1880   45.5290 C   0  0  0  0  0  0  0  0  0  0  0  0
   57.5110   30.5250   44.9620 N   0  0  0  0  0  0  0  0  0  0  0  0
   57.3970   31.8190   44.2670 C   0  0  0  0  0  0  0  0  0  0  0  0
   58.0300   32.9060   45.0940 C   0  0  0  0  0  0  0  0  0  0  0  0
   57.8040   32.9640   46.4790 C   0  0  0  0  0  0  0  0  0  0  0  0
   58.4290   33.9450   47.2560 C   0  0  0  0  0  0  0  0  0  0  0  0
   59.2860   34.8700   46.6560 C   0  0  0  0  0  0  0  0  0  0  0  0
   59.5230   34.8150   45.2800 C   0  0  0  0  0  0  0  0  0  0  0  0
   58.9020   33.8350   44.5000 C   0  0  0  0  0  0  0  0  0  0  0  0
   57.9526   27.0494   46.6324 H   0  0  0  0  0  0  0  0  0  0  0  0
   60.8410   28.3240   45.8880 H   0  0  0  0  0  0  0  0  0  0  0  0
   60.0970   27.7150   47.2680 H   0  0  0  0  0  0  0  0  0  0  0  0
   59.8992   28.9583   49.3246 H   0  0  0  0  0  0  0  0  0  0  0  0
   60.8847   30.8160   50.6656 H   0  0  0  0  0  0  0  0  0  0  0  0
   62.2774   32.5633   49.5507 H   0  0  0  0  0  0  0  0  0  0  0  0
   61.6977   30.6054   45.7384 H   0  0  0  0  0  0  0  0  0  0  0  0
   59.5422   30.9081   45.5041 H   0  0  0  0  0  0  0  0  0  0  0  0
   57.9082   31.7565   43.2950 H   0  0  0  0  0  0  0  0  0  0  0  0
   56.3333   32.0544   44.1151 H   0  0  0  0  0  0  0  0  0  0  0  0
   57.1323   32.2345   46.9550 H   0  0  0  0  0  0  0  0  0  0  0  0
   58.2454   33.9878   48.3397 H   0  0  0  0  0  0  0  0  0  0  0  0
   59.7750   35.6428   47.2672 H   0  0  0  0  0  0  0  0  0  0  0  0
   60.1993   35.5440   44.8097 H   0  0  0  0  0  0  0  0  0  0  0  0
   59.0963   33.7907   43.4182 H   0  0  0  0  0  0  0  0  0  0  0  0
  1  2  2  0
  2  3  1  0
  3  4  1  0
  3  5  2  0
  5  6  1  0
  6  7  1  0
  7  8  1  0
  8  9  2  0
  9 10  1  0
 10 11  2  0
 11 12  1  0
 12 13  1  0
 12 14  2  0
  6 15  2  0
 15 16  1  0
 16 17  1  0
 17 18  1  0
 18 19  2  0
 19 20  1  0
 20 21  2  0
 21 22  1  0
 22 23  2  0
 16  2  1  0
 23 18  1  0
 14  8  1  0
  5 24  1  0
  7 25  1  0
  7 26  1  0
  9 27  1  0
 10 28  1  0
 11 29  1  0
 14 30  1  0
 15 31  1  0
 17 32  1  0
 17 33  1  0
 19 34  1  0
 20 35  1  0
 21 36  1  0
 22 37  1  0
 23 38  1  0
M  CHG  2   4  -1   7   1
M  END
>  <UniqueID>  (90) 
84

>  <SMILES>  (90) 
O=c1c([O-])cc([NH2+]c2cccc(F)c2)cn1Cc1ccccc1

>  <Energy>  (90) 
43.736505408840955

>  <Genealogy>  (90) 
O=c1c([O-])cc([NH2+]c2cccc(F)c2)cn1Cc1ccccc1 (protonated)
O=c1c([O-])cc([NH2+]c2cccc(F)c2)cn1Cc1ccccc1 (3D coordinates assigned)
O=c1c([O-])cc([NH2+]c2cccc(F)c2)cn1Cc1ccccc1 (optimized conformer: 43.736505408840955 kcal/mol)

>  <smiles>  (90) 
O=c1c(O)cc(Nc2cccc(F)c2)cn1Cc1ccccc1

>  <score_type>  (90) 
oracle

>  <origin>  (90) 
adg

>  <m_score__min__energy>  (90) 
-9.25

>  <m_primary>  (90) 
energy

$$$$
90:0
     RDKit          3D

 39 41  0  0  0  0  0  0  0  0999 V2000
   55.4970   29.7180   43.4280 C   0  0  0  0  0  0  0  0  0  0  0  0
   55.6300   29.3010   44.7820 O   0  0  0  0  0  0  0  0  0  0  0  0
   56.8470   29.3410   45.4730 C   0  0  0  0  0  0  0  0  0  0  0  0
   57.5140   30.5190   45.6180 N   0  0  0  0  0  0  0  0  0  0  0  0
   58.6980   30.5930   46.2810 C   0  0  0  0  0  0  0  0  0  0  0  0
   59.3640   31.8610   46.4070 N   0  0  0  0  0  0  0  0  0  0  0  0
   60.6510   31.9620   46.7070 N   0  0  0  0  0  0  0  0  0  0  0  0
   60.9590   33.2710   46.7550 C   0  0  0  0  0  0  0  0  0  0  0  0
   62.3350   33.7940   46.9960 C   0  0  0  0  0  0  0  0  0  0  0  0
   59.8460   34.0330   46.4590 C   0  0  0  0  0  0  0  0  0  0  0  0
   58.8470   33.1040   46.2520 C   0  0  0  0  0  0  0  0  0  0  0  0
   57.4310   33.4380   45.8900 C   0  0  0  0  0  0  0  0  0  0  0  0
   59.2380   29.4660   46.8140 N   0  0  0  0  0  0  0  0  0  0  0  0
   58.6230   28.2590   46.7020 C   0  0  0  0  0  0  0  0  0  0  0  0
   59.2060   27.1070   47.2640 C   0  0  0  0  0  0  0  0  0  0  0  0
   60.5200   27.1930   47.9930 C   0  0  0  0  0  0  0  0  0  0  0  0
   58.5580   25.8690   47.1250 C   0  0  0  0  0  0  0  0  0  0  0  0
   57.3410   25.7700   46.4330 C   0  0  0  0  0  0  0  0  0  0  0  0
   56.6430   24.4470   46.3270 C   0  0  0  0  0  0  0  0  0  0  0  0
   56.7530   26.9240   45.8960 C   0  0  0  0  0  0  0  0  0  0  0  0
   57.3920   28.1670   46.0180 C   0  0  0  0  0  0  0  0  0  0  0  0
   55.1629   30.7656   43.3981 H   0  0  0  0  0  0  0  0  0  0  0  0
   56.4683   29.6283   42.9196 H   0  0  0  0  0  0  0  0  0  0  0  0
   54.7570   29.0825   42.9196 H   0  0  0  0  0  0  0  0  0  0  0  0
   62.5166   33.8630   48.0787 H   0  0  0  0  0  0  0  0  0  0  0  0
   63.0707   33.1128   46.5435 H   0  0  0  0  0  0  0  0  0  0  0  0
   62.4325   34.7919   46.5435 H   0  0  0  0  0  0  0  0  0  0  0  0
   59.7727   35.1290   46.4014 H   0  0  0  0  0  0  0  0  0  0  0  0
   56.8410   33.5772   46.8079 H   0  0  0  0  0  0  0  0  0  0  0  0
   57.4127   34.3651   45.2983 H   0  0  0  0  0  0  0  0  0  0  0  0
   57.0004   32.6168   45.2983 H   0  0  0  0  0  0  0  0  0  0  0  0
   60.3389   27.1811   49.0779 H   0  0  0  0  0  0  0  0  0  0  0  0
   61.1494   26.3341   47.7169 H   0  0  0  0  0  0  0  0  0  0  0  0
   61.0321   28.1266   47.7169 H   0  0  0  0  0  0  0  0  0  0  0  0
   59.0093   24.9667   47.5634 H   0  0  0  0  0  0  0  0  0  0  0  0
   56.4381   24.0587   47.3356 H   0  0  0  0  0  0  0  0  0  0  0  0
   55.6951   24.5750   45.7838 H   0  0  0  0  0  0  0  0  0  0  0  0
   57.2838   23.7368   45.7838 H   0  0  0  0  0  0  0  0  0  0  0  0
   55.7859   26.8544   45.3765 H   0  0  0  0  0  0  0  0  0  0  0  0
  1  2  1  0
  2  3  1  0
  3  4  2  0
  4  5  1  0
  5  6  1  0
  6  7  1  0
  7  8  2  0
  8  9  1  0
  8 10  1  0
 10 11  2  0
 11 12  1  0
  5 13  2  0
 13 14  1  0
 14 15  2  0
 15 16  1  0
 15 17  1  0
 17 18  2  0
 18 19  1  0
 18 20  1  0
 20 21  2  0
 21  3  1  0
 11  6  1  0
 21 14  1  0
  1 22  1  0
  1 23  1  0
  1 24  1  0
  9 25  1  0
  9 26  1  0
  9 27  1  0
 10 28  1  0
 12 29  1  0
 12 30  1  0
 12 31  1  0
 16 32  1  0
 16 33  1  0
 16 34  1  0
 17 35  1  0
 19 36  1  0
 19 37  1  0
 19 38  1  0
 20 39  1  0
M  END
>  <UniqueID>  (91) 
85

>  <SMILES>  (91) 
COc1nc(-n2nc(C)cc2C)nc2c(C)cc(C)cc12

>  <Energy>  (91) 
70.3420639817727

>  <Genealogy>  (91) 
COc1nc(-n2nc(C)cc2C)nc2c(C)cc(C)cc12 (3D coordinates assigned)
COc1nc(-n2nc(C)cc2C)nc2c(C)cc(C)cc12 (optimized conformer: 70.3420639817727 kcal/mol)

>  <smiles>  (91) 
COc1nc(-n2nc(C)cc2C)nc2c(C)cc(C)cc12

>  <score_type>  (91) 
oracle

>  <origin>  (91) 
adg

>  <m_score__min__energy>  (91) 
-7.3099999999999996

>  <m_primary>  (91) 
energy

$$$$
91:0
     RDKit          3D

 44 45  0  0  0  0  0  0  0  0999 V2000
   60.5280   31.2770   47.8190 C   0  0  0  0  0  0  0  0  0  0  0  0
   59.4590   31.6980   46.8630 C   0  0  0  0  0  0  0  0  0  0  0  0
   58.7470   30.8390   46.1100 N   0  0  0  0  0  0  0  0  0  0  0  0
   57.9160   31.5230   45.3380 N   0  0  0  0  0  0  0  0  0  0  0  0
   57.0310   30.8960   44.3520 C   0  0  0  0  0  0  0  0  0  0  0  0
   56.4440   29.6080   44.8740 C   0  0  0  0  0  0  0  0  0  0  0  0
   55.2010   29.4300   44.7900 O   0  0  0  0  0  0  0  0  0  0  0  0
   57.2570   28.5580   45.4140 N   0  0  0  0  0  0  0  0  0  0  0  0
   57.1430   27.1640   45.1020 C   0  0  0  0  0  0  0  0  0  0  0  0
   57.7920   26.6120   43.9880 C   0  0  0  0  0  0  0  0  0  0  0  0
   57.6840   25.2450   43.7170 C   0  0  0  0  0  0  0  0  0  0  0  0
   56.9280   24.4120   44.5570 C   0  0  0  0  0  0  0  0  0  0  0  0
   56.8470   22.9570   44.3000 C   0  0  0  0  0  0  0  0  0  0  0  0
   55.9190   22.5150   43.5680 O   0  0  0  0  0  0  0  0  0  0  0  0
   57.7940   22.0360   44.8730 N   0  0  0  0  0  0  0  0  0  0  0  0
   59.2240   22.3520   44.8550 C   0  0  0  0  0  0  0  0  0  0  0  0
   57.3250   20.7180   45.3080 C   0  0  0  0  0  0  0  0  0  0  0  0
   56.3110   24.9630   45.6920 C   0  0  0  0  0  0  0  0  0  0  0  0
   56.4220   26.3300   45.9630 C   0  0  0  0  0  0  0  0  0  0  0  0
   58.0580   32.8460   45.6000 C   0  0  0  0  0  0  0  0  0  0  0  0
   57.3050   33.9510   44.9160 C   0  0  0  0  0  0  0  0  0  0  0  0
   59.0580   32.9910   46.5570 C   0  0  0  0  0  0  0  0  0  0  0  0
   59.6040   34.2160   47.0780 N   0  0  0  0  0  0  0  0  0  0  0  0
   60.3300   34.9420   46.3680 O   0  0  0  0  0  0  0  0  0  0  0  0
   59.3430   34.6040   48.3700 O   0  0  0  0  0  0  0  0  0  0  0  0
   60.1730   31.4168   48.8507 H   0  0  0  0  0  0  0  0  0  0  0  0
   60.7697   30.2165   47.6549 H   0  0  0  0  0  0  0  0  0  0  0  0
   61.4280   31.8879   47.6549 H   0  0  0  0  0  0  0  0  0  0  0  0
   58.8410   29.7980   46.1120 H   0  0  0  0  0  0  0  0  0  0  0  0
   56.2123   31.5910   44.1139 H   0  0  0  0  0  0  0  0  0  0  0  0
   57.6236   30.6657   43.4543 H   0  0  0  0  0  0  0  0  0  0  0  0
   58.3879   27.2569   43.3254 H   0  0  0  0  0  0  0  0  0  0  0  0
   58.1943   24.8194   42.8404 H   0  0  0  0  0  0  0  0  0  0  0  0
   59.5944   22.4339   45.8875 H   0  0  0  0  0  0  0  0  0  0  0  0
   59.7696   21.5527   44.3320 H   0  0  0  0  0  0  0  0  0  0  0  0
   59.3820   23.3067   44.3320 H   0  0  0  0  0  0  0  0  0  0  0  0
   57.3109   20.6782   46.4072 H   0  0  0  0  0  0  0  0  0  0  0  0
   56.3098   20.5442   44.9217 H   0  0  0  0  0  0  0  0  0  0  0  0
   58.0022   19.9420   44.9217 H   0  0  0  0  0  0  0  0  0  0  0  0
   55.7373   24.3155   46.3714 H   0  0  0  0  0  0  0  0  0  0  0  0
   55.9401   26.7517   46.8574 H   0  0  0  0  0  0  0  0  0  0  0  0
   56.8552   34.6110   45.6723 H   0  0  0  0  0  0  0  0  0  0  0  0
   57.9964   34.5314   44.2874 H   0  0  0  0  0  0  0  0  0  0  0  0
   56.5120   33.5198   44.2874 H   0  0  0  0  0  0  0  0  0  0  0  0
  1  2  1  0
  2  3  2  0
  3  4  1  0
  4  5  1  0
  5  6  1  0
  6  7  2  0
  6  8  1  0
  8  9  1  0
  9 10  2  0
 10 11  1  0
 11 12  2  0
 12 13  1  0
 13 14  2  0
 13 15  1  0
 15 16  1  0
 15 17  1  0
 12 18  1  0
 18 19  2  0
  4 20  1  0
 20 21  1  0
 20 22  2  0
 22 23  1  0
 23 24  2  0
 23 25  1  0
 22  2  1  0
 19  9  1  0
  1 26  1  0
  1 27  1  0
  1 28  1  0
  3 29  1  0
  5 30  1  0
  5 31  1  0
 10 32  1  0
 11 33  1  0
 16 34  1  0
 16 35  1  0
 16 36  1  0
 17 37  1  0
 17 38  1  0
 17 39  1  0
 18 40  1  0
 19 41  1  0
 21 42  1  0
 21 43  1  0
 21 44  1  0
M  CHG  4   3   1   8  -1  23   1  25  -1
M  END
>  <UniqueID>  (92) 
86

>  <SMILES>  (92) 
Cc1[nH+]n(CC(=O)[N-]c2ccc(C(=O)N(C)C)cc2)c(C)c1[N+](=O)[O-]

>  <Energy>  (92) 
80.02023593892797

>  <Genealogy>  (92) 
Cc1[nH+]n(CC(=O)[N-]c2ccc(C(=O)N(C)C)cc2)c(C)c1[N+](=O)[O-] (protonated)
Cc1[nH+]n(CC(=O)[N-]c2ccc(C(=O)N(C)C)cc2)c(C)c1[N+](=O)[O-] (3D coordinates assigned)
Cc1[nH+]n(CC(=O)[N-]c2ccc(C(=O)N(C)C)cc2)c(C)c1[N+](=O)[O-] (optimized conformer: 80.02023593892797 kcal/mol)

>  <smiles>  (92) 
Cc1nn(CC(=O)Nc2ccc(C(=O)N(C)C)cc2)c(C)c1[N+](=O)[O-]

>  <score_type>  (92) 
oracle

>  <origin>  (92) 
adg

>  <m_score__min__energy>  (92) 
-8.2100000000000009

>  <m_primary>  (92) 
energy

$$$$
92:0
     RDKit          3D

 41 43  0  0  0  0  0  0  0  0999 V2000
   55.9290   25.2510   45.6490 C   0  0  0  0  0  0  0  0  0  0  0  0
   56.5360   26.5370   45.7250 O   0  0  0  0  0  0  0  0  0  0  0  0
   57.8550   26.7710   46.1460 C   0  0  0  0  0  0  0  0  0  0  0  0
   58.2890   26.4310   47.4440 C   0  0  0  0  0  0  0  0  0  0  0  0
   59.5990   26.7030   47.8460 C   0  0  0  0  0  0  0  0  0  0  0  0
   60.4880   27.3170   46.9660 C   0  0  0  0  0  0  0  0  0  0  0  0
   60.0750   27.6530   45.6760 C   0  0  0  0  0  0  0  0  0  0  0  0
   58.7670   27.3700   45.2490 C   0  0  0  0  0  0  0  0  0  0  0  0
   58.3370   27.8170   43.8740 C   0  0  0  0  0  0  0  0  0  0  0  0
   57.9440   29.1840   43.9270 O   0  0  0  0  0  0  0  0  0  0  0  0
   57.1240   29.6940   44.9360 C   0  0  0  0  0  0  0  0  0  0  0  0
   55.8700   29.6990   44.8060 O   0  0  0  0  0  0  0  0  0  0  0  0
   57.7510   30.2000   46.1950 C   0  0  0  0  0  0  0  0  0  0  0  0
   58.2090   31.5950   45.9960 N   0  0  0  0  0  0  0  0  0  0  0  0
   57.3990   32.4690   45.3020 C   0  0  0  0  0  0  0  0  0  0  0  0
   56.2690   32.1030   44.8740 O   0  0  0  0  0  0  0  0  0  0  0  0
   57.8070   33.7770   45.0470 C   0  0  0  0  0  0  0  0  0  0  0  0
   59.0510   34.2110   45.4760 C   0  0  0  0  0  0  0  0  0  0  0  0
   59.8960   33.3370   46.1580 C   0  0  0  0  0  0  0  0  0  0  0  0
   61.1680   33.7680   46.5640 C   0  0  0  0  0  0  0  0  0  0  0  0
   62.0300   32.8930   47.2220 C   0  0  0  0  0  0  0  0  0  0  0  0
   63.7720   33.4770   47.7430 Br  0  0  0  0  0  0  0  0  0  0  0  0
   61.6270   31.5850   47.4850 C   0  0  0  0  0  0  0  0  0  0  0  0
   60.3630   31.1410   47.0900 C   0  0  0  0  0  0  0  0  0  0  0  0
   59.4650   32.0070   46.4170 C   0  0  0  0  0  0  0  0  0  0  0  0
   55.7491   24.8698   46.6650 H   0  0  0  0  0  0  0  0  0  0  0  0
   54.9723   25.3283   45.1116 H   0  0  0  0  0  0  0  0  0  0  0  0
   56.5967   24.5615   45.1116 H   0  0  0  0  0  0  0  0  0  0  0  0
   57.5915   25.9485   48.1445 H   0  0  0  0  0  0  0  0  0  0  0  0
   59.9295   26.4318   48.8595 H   0  0  0  0  0  0  0  0  0  0  0  0
   61.5164   27.5371   47.2885 H   0  0  0  0  0  0  0  0  0  0  0  0
   60.7794   28.1434   44.9880 H   0  0  0  0  0  0  0  0  0  0  0  0
   59.1753   27.7023   43.1711 H   0  0  0  0  0  0  0  0  0  0  0  0
   57.4905   27.2024   43.5339 H   0  0  0  0  0  0  0  0  0  0  0  0
   57.0125   30.1698   47.0096 H   0  0  0  0  0  0  0  0  0  0  0  0
   58.6118   29.5663   46.4549 H   0  0  0  0  0  0  0  0  0  0  0  0
   57.1414   34.4649   44.5051 H   0  0  0  0  0  0  0  0  0  0  0  0
   59.3715   35.2446   45.2785 H   0  0  0  0  0  0  0  0  0  0  0  0
   61.4862   34.8014   46.3619 H   0  0  0  0  0  0  0  0  0  0  0  0
   62.3089   30.8977   48.0071 H   0  0  0  0  0  0  0  0  0  0  0  0
   60.0603   30.1054   47.3041 H   0  0  0  0  0  0  0  0  0  0  0  0
  1  2  1  0
  2  3  1  0
  3  4  2  0
  4  5  1  0
  5  6  2  0
  6  7  1  0
  7  8  2  0
  8  9  1  0
  9 10  1  0
 10 11  1  0
 11 12  2  0
 11 13  1  0
 13 14  1  0
 14 15  1  0
 15 16  2  0
 15 17  1  0
 17 18  2  0
 18 19  1  0
 19 20  2  0
 20 21  1  0
 21 22  1  0
 21 23  2  0
 23 24  1  0
 24 25  2  0
  8  3  1  0
 25 14  1  0
 25 19  1  0
  1 26  1  0
  1 27  1  0
  1 28  1  0
  4 29  1  0
  5 30  1  0
  6 31  1  0
  7 32  1  0
  9 33  1  0
  9 34  1  0
 13 35  1  0
 13 36  1  0
 17 37  1  0
 18 38  1  0
 20 39  1  0
 23 40  1  0
 24 41  1  0
M  END
>  <UniqueID>  (93) 
87

>  <SMILES>  (93) 
COc1ccccc1COC(=O)Cn1c(=O)ccc2cc(Br)ccc21

>  <Energy>  (93) 
46.028400456371116

>  <Genealogy>  (93) 
COc1ccccc1COC(=O)Cn1c(=O)ccc2cc(Br)ccc21 (3D coordinates assigned)
COc1ccccc1COC(=O)Cn1c(=O)ccc2cc(Br)ccc21 (optimized conformer: 46.028400456371116 kcal/mol)

>  <smiles>  (93) 
COc1ccccc1COC(=O)Cn1c(=O)ccc2cc(Br)ccc21

>  <score_type>  (93) 
oracle

>  <origin>  (93) 
adg

>  <m_score__min__energy>  (93) 
-8.2599999999999998

>  <m_primary>  (93) 
energy

$$$$
93:0
     RDKit          3D

 46 49  0  0  0  0  0  0  0  0999 V2000
   56.3070   22.5950   41.8280 H   0  0  0  0  0  0  0  0  0  0  0  0
   64.5230   33.4470   48.7240 N   0  0  0  0  0  0  0  0  0  0  0  0
   63.2760   33.5700   49.0690 C   0  0  0  0  0  0  0  0  0  0  0  0
   57.0140   23.4980   44.4390 C   0  0  0  0  0  0  0  0  0  0  0  0
   56.6770   23.5550   45.8190 C   0  0  0  0  0  0  0  0  0  0  0  0
   56.4076   22.6309   46.3514 H   0  0  0  0  0  0  0  0  0  0  0  0
   56.6840   24.7800   46.5120 C   0  0  0  0  0  0  0  0  0  0  0  0
   56.4222   24.8312   47.5792 H   0  0  0  0  0  0  0  0  0  0  0  0
   57.0330   25.9230   45.8020 C   0  0  0  0  0  0  0  0  0  0  0  0
   57.1080   27.1810   46.2570 N   0  0  0  0  0  0  0  0  0  0  0  0
   57.4930   27.8770   45.1530 C   0  0  0  0  0  0  0  0  0  0  0  0
   57.7120   29.3410   45.1590 C   0  0  0  0  0  0  0  0  0  0  0  0
   56.8840   30.1880   44.4060 C   0  0  0  0  0  0  0  0  0  0  0  0
   56.0641   29.7615   43.8095 H   0  0  0  0  0  0  0  0  0  0  0  0
   57.0940   31.5680   44.4090 C   0  0  0  0  0  0  0  0  0  0  0  0
   56.4399   32.2233   43.8151 H   0  0  0  0  0  0  0  0  0  0  0  0
   58.1310   32.1190   45.1630 C   0  0  0  0  0  0  0  0  0  0  0  0
   58.2897   33.2075   45.1601 H   0  0  0  0  0  0  0  0  0  0  0  0
   58.9740   31.2930   45.9260 C   0  0  0  0  0  0  0  0  0  0  0  0
   60.0770   31.8790   46.7300 C   0  0  0  0  0  0  0  0  0  0  0  0
   61.1970   31.1040   47.0780 C   0  0  0  0  0  0  0  0  0  0  0  0
   61.2576   30.0552   46.7520 H   0  0  0  0  0  0  0  0  0  0  0  0
   62.2340   31.6560   47.8350 C   0  0  0  0  0  0  0  0  0  0  0  0
   63.1007   31.0356   48.1070 H   0  0  0  0  0  0  0  0  0  0  0  0
   62.1790   32.9950   48.2510 C   0  0  0  0  0  0  0  0  0  0  0  0
   57.0070   22.1970   43.7250 C   0  0  0  0  0  0  0  0  0  0  0  0
   56.2470   22.0090   42.6900 N   0  0  0  0  0  0  0  0  0  0  0  0
   65.3800   32.5610   49.3390 O   0  0  0  0  0  0  0  0  0  0  0  0
   66.3180   32.4330   48.9810 H   0  0  0  0  0  0  0  0  0  0  0  0
   62.9630   34.2250   50.3800 C   0  0  0  0  0  0  0  0  0  0  0  0
   63.2776   33.5666   51.2032 H   0  0  0  0  0  0  0  0  0  0  0  0
   63.5012   35.1818   50.4496 H   0  0  0  0  0  0  0  0  0  0  0  0
   61.8805   34.4073   50.4496 H   0  0  0  0  0  0  0  0  0  0  0  0
   61.0550   33.7670   47.9150 C   0  0  0  0  0  0  0  0  0  0  0  0
   60.9916   34.8131   48.2492 H   0  0  0  0  0  0  0  0  0  0  0  0
   60.0160   33.2160   47.1590 C   0  0  0  0  0  0  0  0  0  0  0  0
   59.1440   33.8337   46.8979 H   0  0  0  0  0  0  0  0  0  0  0  0
   58.7560   29.9020   45.9170 C   0  0  0  0  0  0  0  0  0  0  0  0
   59.4101   29.2458   46.5100 H   0  0  0  0  0  0  0  0  0  0  0  0
   57.6580   27.1100   44.0410 N   0  0  0  0  0  0  0  0  0  0  0  0
   57.3580   25.8810   44.4830 C   0  0  0  0  0  0  0  0  0  0  0  0
   57.3630   24.6910   43.7600 C   0  0  0  0  0  0  0  0  0  0  0  0
   57.6301   24.6778   42.6930 H   0  0  0  0  0  0  0  0  0  0  0  0
   57.8350   21.1220   44.1760 N   0  0  0  0  0  0  0  0  0  0  0  0
   57.7990   20.1930   43.7010 H   0  0  0  0  0  0  0  0  0  0  0  0
   58.5270   21.2590   44.9470 H   0  0  0  0  0  0  0  0  0  0  0  0
  1  2  1  0
  2  3  2  0
  3  4  1  0
  4  5  2  0
  5  6  1  0
  5  7  1  0
  7  8  1  0
  7  9  2  0
  9 10  1  0
 10 11  2  0
 11 12  1  0
 12 13  2  0
 13 14  1  0
 13 15  1  0
 15 16  1  0
 15 17  2  0
 17 18  1  0
 17 19  1  0
 19 20  1  0
 20 21  2  0
 21 22  1  0
 21 23  1  0
 23 24  1  0
 23 25  2  0
 25 26  1  0
 26 27  2  0
 27 28  1  0
 28 29  1  0
 26 30  1  0
 30 31  1  0
 30 32  1  0
 30 33  1  0
 25 34  1  0
 34 35  1  0
 34 36  2  0
 36 37  1  0
 19 38  2  0
 38 39  1  0
 11 40  1  0
 40 41  1  0
 41 42  2  0
 42 43  1  0
  3 44  1  0
 44 45  1  0
 44 46  1  0
 42  4  1  0
 41  9  1  0
 38 12  1  0
 36 20  1  0
M  CHG  1  40  -1
M  END
>  <UniqueID>  (94) 
88

>  <SMILES>  (94) 
[H]/N=C(/N)c1ccc2nc(-c3cccc(-c4ccc(/C(C)=N\O)cc4)c3)[n-]c2c1

>  <Energy>  (94) 
97.01865823069758

>  <Genealogy>  (94) 
CC(=NO)c1ccc(-c2cccc(-c3nc4ccc(C(=N)N)cc4[n-]3)c2)cc1 (protonated)
[H]/N=C(/N)c1ccc2nc(-c3cccc(-c4ccc(/C(C)=N\O)cc4)c3)[n-]c2c1 (cis-trans isomerization)
[H]/N=C(/N)c1ccc2nc(-c3cccc(-c4ccc(/C(C)=N\O)cc4)c3)[n-]c2c1 (3D coordinates assigned)
[H]/N=C(/N)c1ccc2nc(-c3cccc(-c4ccc(/C(C)=N\O)cc4)c3)[n-]c2c1 (optimized conformer: 97.01865823069758 kcal/mol)

>  <smiles>  (94) 
CC(=NO)c1ccc(-c2cccc(-c3nc4ccc(C(=N)N)cc4[nH]3)c2)cc1

>  <score_type>  (94) 
oracle

>  <origin>  (94) 
adg

>  <m_score__min__energy>  (94) 
-10.51

>  <m_primary>  (94) 
energy

$$$$
94:0
     RDKit          3D

 44 47  0  0  0  0  0  0  0  0999 V2000
   59.6650   26.6380   46.2780 O   0  0  0  0  0  0  0  0  0  0  0  0
   58.7360   27.3530   45.8120 C   0  0  0  0  0  0  0  0  0  0  0  0
   57.7510   26.7470   44.8660 C   0  0  0  0  0  0  0  0  0  0  0  0
   57.8280   27.6230   43.2720 S   0  0  0  0  0  0  0  0  0  0  0  0
   57.3840   29.1990   43.9910 C   0  0  0  0  0  0  0  0  0  0  0  0
   56.1380   29.5250   44.3810 N   0  0  0  0  0  0  0  0  0  0  0  0
   56.2150   30.7580   44.8590 N   0  0  0  0  0  0  0  0  0  0  0  0
   57.5040   31.1340   44.7410 C   0  0  0  0  0  0  0  0  0  0  0  0
   58.0330   32.4460   45.1560 C   0  0  0  0  0  0  0  0  0  0  0  0
   58.0690   32.8090   46.5120 C   0  0  0  0  0  0  0  0  0  0  0  0
   58.5770   34.0580   46.8780 C   0  0  0  0  0  0  0  0  0  0  0  0
   59.0320   34.9160   45.9260 N   0  0  0  0  0  0  0  0  0  0  0  0
   59.0100   34.5920   44.6070 C   0  0  0  0  0  0  0  0  0  0  0  0
   58.5100   33.3520   44.1970 C   0  0  0  0  0  0  0  0  0  0  0  0
   58.2280   30.1780   44.2060 O   0  0  0  0  0  0  0  0  0  0  0  0
   58.5670   28.7100   46.2530 N   0  0  0  0  0  0  0  0  0  0  0  0
   59.5430   29.4380   47.0180 C   0  0  0  0  0  0  0  0  0  0  0  0
   59.5870   29.3580   48.4200 C   0  0  0  0  0  0  0  0  0  0  0  0
   60.5600   30.0580   49.1380 C   0  0  0  0  0  0  0  0  0  0  0  0
   61.5170   30.8400   48.4700 C   0  0  0  0  0  0  0  0  0  0  0  0
   62.5520   31.5850   49.2330 C   0  0  0  0  0  0  0  0  0  0  0  0
   62.6320   31.4690   50.6340 C   0  0  0  0  0  0  0  0  0  0  0  0
   63.6060   32.1720   51.3500 C   0  0  0  0  0  0  0  0  0  0  0  0
   64.5100   32.9970   50.6770 C   0  0  0  0  0  0  0  0  0  0  0  0
   64.4410   33.1210   49.2870 C   0  0  0  0  0  0  0  0  0  0  0  0
   63.4680   32.4210   48.5670 C   0  0  0  0  0  0  0  0  0  0  0  0
   61.4850   30.9000   47.0660 C   0  0  0  0  0  0  0  0  0  0  0  0
   60.5110   30.2000   46.3480 C   0  0  0  0  0  0  0  0  0  0  0  0
   57.9938   25.6850   44.7135 H   0  0  0  0  0  0  0  0  0  0  0  0
   56.7375   26.8334   45.2848 H   0  0  0  0  0  0  0  0  0  0  0  0
   57.6997   32.1146   47.2810 H   0  0  0  0  0  0  0  0  0  0  0  0
   58.6090   34.3480   47.9386 H   0  0  0  0  0  0  0  0  0  0  0  0
   59.3862   35.3064   43.8599 H   0  0  0  0  0  0  0  0  0  0  0  0
   58.4908   33.0887   43.1292 H   0  0  0  0  0  0  0  0  0  0  0  0
   57.6420   29.1640   46.0780 H   0  0  0  0  0  0  0  0  0  0  0  0
   58.8510   28.7405   48.9557 H   0  0  0  0  0  0  0  0  0  0  0  0
   60.5768   29.9962   50.2361 H   0  0  0  0  0  0  0  0  0  0  0  0
   61.9229   30.8204   51.1693 H   0  0  0  0  0  0  0  0  0  0  0  0
   63.6602   32.0751   52.4444 H   0  0  0  0  0  0  0  0  0  0  0  0
   65.2761   33.5490   51.2412 H   0  0  0  0  0  0  0  0  0  0  0  0
   65.1537   33.7707   48.7579 H   0  0  0  0  0  0  0  0  0  0  0  0
   63.4180   32.5243   47.4730 H   0  0  0  0  0  0  0  0  0  0  0  0
   62.2320   31.5023   46.5282 H   0  0  0  0  0  0  0  0  0  0  0  0
   60.5038   30.2473   45.2490 H   0  0  0  0  0  0  0  0  0  0  0  0
  1  2  2  0
  2  3  1  0
  3  4  1  0
  4  5  1  0
  5  6  2  0
  6  7  1  0
  7  8  2  0
  8  9  1  0
  9 10  2  0
 10 11  1  0
 11 12  2  0
 12 13  1  0
 13 14  2  0
  8 15  1  0
  2 16  1  0
 16 17  1  0
 17 18  2  0
 18 19  1  0
 19 20  2  0
 20 21  1  0
 21 22  2  0
 22 23  1  0
 23 24  2  0
 24 25  1  0
 25 26  2  0
 20 27  1  0
 27 28  2  0
 15  5  1  0
 28 17  1  0
 14  9  1  0
 26 21  1  0
  3 29  1  0
  3 30  1  0
 10 31  1  0
 11 32  1  0
 13 33  1  0
 14 34  1  0
 16 35  1  0
 18 36  1  0
 19 37  1  0
 22 38  1  0
 23 39  1  0
 24 40  1  0
 25 41  1  0
 26 42  1  0
 27 43  1  0
 28 44  1  0
M  END
>  <UniqueID>  (95) 
89

>  <SMILES>  (95) 
O=C(CSc1nnc(-c2ccncc2)o1)Nc1ccc(-c2ccccc2)cc1

>  <Energy>  (95) 
87.8895095420859

>  <Genealogy>  (95) 
O=C(CSc1nnc(-c2ccncc2)o1)Nc1ccc(-c2ccccc2)cc1 (3D coordinates assigned)
O=C(CSc1nnc(-c2ccncc2)o1)Nc1ccc(-c2ccccc2)cc1 (optimized conformer: 87.8895095420859 kcal/mol)

>  <smiles>  (95) 
O=C(CSc1nnc(-c2ccncc2)o1)Nc1ccc(-c2ccccc2)cc1

>  <score_type>  (95) 
oracle

>  <origin>  (95) 
adg

>  <m_score__min__energy>  (95) 
-8.6400000000000006

>  <m_primary>  (95) 
energy

$$$$
95:0
     RDKit          3D

 33 34  0  0  0  0  0  0  0  0999 V2000
   62.5572   31.2901   50.5739 H   0  0  0  0  0  0  0  0  0  0  0  0
   62.1310   31.1700   49.5670 C   0  0  0  0  0  0  0  0  0  0  0  0
   62.4730   31.8710   48.4300 C   0  0  0  0  0  0  0  0  0  0  0  0
   63.7930   33.2420   48.3270 Br  0  0  0  0  0  0  0  0  0  0  0  0
   61.7560   31.4580   47.4120 O   0  0  0  0  0  0  0  0  0  0  0  0
   60.9510   30.5080   47.8290 C   0  0  0  0  0  0  0  0  0  0  0  0
   59.9860   29.8030   46.9630 C   0  0  0  0  0  0  0  0  0  0  0  0
   59.9530   28.5030   46.9830 N   0  0  0  0  0  0  0  0  0  0  0  0
   58.9460   27.8000   47.6060 O   0  0  0  0  0  0  0  0  0  0  0  0
   58.4350   26.6100   47.0270 C   0  0  0  0  0  0  0  0  0  0  0  0
   58.1177   25.9212   47.8238 H   0  0  0  0  0  0  0  0  0  0  0  0
   59.2176   26.1317   46.4197 H   0  0  0  0  0  0  0  0  0  0  0  0
   57.2400   26.9490   46.1420 C   0  0  0  0  0  0  0  0  0  0  0  0
   57.5257   26.8273   45.0867 H   0  0  0  0  0  0  0  0  0  0  0  0
   56.9379   27.9885   46.3371 H   0  0  0  0  0  0  0  0  0  0  0  0
   56.0870   26.0470   46.4460 C   0  0  0  0  0  0  0  0  0  0  0  0
   56.2650   24.9910   47.1070 O   0  0  0  0  0  0  0  0  0  0  0  0
   54.8220   26.3480   45.9580 O   0  0  0  0  0  0  0  0  0  0  0  0
   59.0790   30.5800   46.0850 C   0  0  0  0  0  0  0  0  0  0  0  0
   59.2500   31.9650   45.9310 C   0  0  0  0  0  0  0  0  0  0  0  0
   60.0591   32.4796   46.4699 H   0  0  0  0  0  0  0  0  0  0  0  0
   58.3990   32.6920   45.0980 C   0  0  0  0  0  0  0  0  0  0  0  0
   58.5367   33.7777   44.9867 H   0  0  0  0  0  0  0  0  0  0  0  0
   57.3730   32.0460   44.4050 C   0  0  0  0  0  0  0  0  0  0  0  0
   56.7060   32.6261   43.7503 H   0  0  0  0  0  0  0  0  0  0  0  0
   57.1870   30.6570   44.5390 C   0  0  0  0  0  0  0  0  0  0  0  0
   56.1320   29.9860   43.8260 N   0  0  0  0  0  0  0  0  0  0  0  0
   56.0970   29.9990   42.5770 O   0  0  0  0  0  0  0  0  0  0  0  0
   55.1420   29.3160   44.5080 O   0  0  0  0  0  0  0  0  0  0  0  0
   58.0480   29.9320   45.3830 C   0  0  0  0  0  0  0  0  0  0  0  0
   57.9129   28.8461   45.4948 H   0  0  0  0  0  0  0  0  0  0  0  0
   61.1440   30.2870   49.1810 C   0  0  0  0  0  0  0  0  0  0  0  0
   60.6193   29.5583   49.8164 H   0  0  0  0  0  0  0  0  0  0  0  0
  1  2  1  0
  2  3  2  0
  3  4  1  0
  3  5  1  0
  5  6  1  0
  6  7  1  0
  7  8  2  0
  8  9  1  0
  9 10  1  0
 10 11  1  0
 10 12  1  0
 10 13  1  0
 13 14  1  0
 13 15  1  0
 13 16  1  0
 16 17  2  0
 16 18  1  0
  7 19  1  0
 19 20  2  0
 20 21  1  0
 20 22  1  0
 22 23  1  0
 22 24  2  0
 24 25  1  0
 24 26  1  0
 26 27  1  0
 27 28  2  0
 27 29  1  0
 26 30  2  0
 30 31  1  0
  6 32  2  0
 32 33  1  0
 32  2  1  0
 30 19  1  0
M  CHG  3  18  -1  27   1  29  -1
M  END
>  <UniqueID>  (96) 
90

>  <SMILES>  (96) 
O=C([O-])CCO/N=C(\c1cccc([N+](=O)[O-])c1)c1ccc(Br)o1

>  <Energy>  (96) 
58.32681875089333

>  <Genealogy>  (96) 
O=C([O-])CCON=C(c1cccc([N+](=O)[O-])c1)c1ccc(Br)o1 (protonated)
O=C([O-])CCO/N=C(\c1cccc([N+](=O)[O-])c1)c1ccc(Br)o1 (cis-trans isomerization)
O=C([O-])CCO/N=C(\c1cccc([N+](=O)[O-])c1)c1ccc(Br)o1 (3D coordinates assigned)
O=C([O-])CCO/N=C(\c1cccc([N+](=O)[O-])c1)c1ccc(Br)o1 (optimized conformer: 58.32681875089333 kcal/mol)

>  <smiles>  (96) 
O=C(O)CCON=C(c1cccc([N+](=O)[O-])c1)c1ccc(Br)o1

>  <score_type>  (96) 
oracle

>  <origin>  (96) 
adg

>  <m_score__min__energy>  (96) 
-10.18

>  <m_primary>  (96) 
energy

$$$$
96:0
     RDKit          3D

 60 63  0  0  1  0  0  0  0  0999 V2000
   60.9930   26.4300   46.3190 O   0  0  0  0  0  0  0  0  0  0  0  0
   60.0330   27.1170   46.7850 C   0  0  0  0  0  0  0  0  0  0  0  0
   58.6760   26.7390   46.6550 N   0  0  0  0  0  0  0  0  0  0  0  0
   58.2300   25.5670   45.9980 C   0  0  0  0  0  0  0  0  0  0  0  0
   56.9750   25.6170   45.3960 C   0  0  0  0  0  0  0  0  0  0  0  0
   56.4790   24.5150   44.7370 C   0  0  0  0  0  0  0  0  0  0  0  0
   57.2450   23.3550   44.6830 C   0  0  0  0  0  0  0  0  0  0  0  0
   56.6730   21.9140   43.8570 Cl  0  0  0  0  0  0  0  0  0  0  0  0
   58.4740   23.3110   45.2740 C   0  0  0  0  0  0  0  0  0  0  0  0
   58.9890   24.4000   45.9380 C   0  0  0  0  0  0  0  0  0  0  0  0
   60.2880   28.3810   47.5100 C   0  0  0  0  0  0  0  0  0  0  0  0
   60.7260   28.3690   48.8180 C   0  0  0  0  0  0  0  0  0  0  0  0
   60.9480   29.5320   49.4500 N   0  0  0  0  0  0  0  0  0  0  0  0
   60.7690   30.7330   48.8800 C   0  0  0  0  0  0  0  0  0  0  0  0
   61.0000   31.7920   49.5330 N   0  0  0  0  0  0  0  0  0  0  0  0
   60.1130   32.8520   49.7320 C   0  0  0  0  0  0  0  0  0  0  0  0
   60.5400   33.9940   48.7910 C   0  0  0  0  0  0  0  0  0  0  0  0
   59.6430   34.0700   47.6030 C   0  0  0  0  0  0  0  0  0  0  0  0
   59.9840   34.6620   46.4240 C   0  0  0  0  0  0  0  0  0  0  0  0
   59.0680   34.6790   45.3690 C   0  0  0  0  0  0  0  0  0  0  0  0
   57.8530   34.1300   45.4720 N   0  0  0  0  0  0  0  0  0  0  0  0
   57.4870   33.5390   46.6200 C   0  0  0  0  0  0  0  0  0  0  0  0
   58.3710   33.5040   47.6880 C   0  0  0  0  0  0  0  0  0  0  0  0
   60.3390   30.7290   47.5950 N   0  0  0  0  0  0  0  0  0  0  0  0
   60.1000   29.6110   46.9120 C   0  0  0  0  0  0  0  0  0  0  0  0
   59.6940   29.6150   45.6980 N   0  0  0  0  0  0  0  0  0  0  0  0
   58.2970   29.7220   45.3720 C   0  0  2  0  0  0  0  0  0  0  0  0
   57.8340   28.5850   44.4800 C   0  0  0  0  0  0  0  0  0  0  0  0
   56.9580   29.0870   43.3540 C   0  0  0  0  0  0  0  0  0  0  0  0
   55.9850   30.1480   43.8400 C   0  0  1  0  0  0  0  0  0  0  0  0
   55.1690   29.5450   44.8190 O   0  0  0  0  0  0  0  0  0  0  0  0
   56.6990   31.3210   44.4510 C   0  0  0  0  0  0  0  0  0  0  0  0
   58.1740   30.9800   44.5000 C   0  0  0  0  0  0  0  0  0  0  0  0
   57.9130   27.3510   47.0650 H   0  0  0  0  0  0  0  0  0  0  0  0
   56.3785   26.5398   45.4473 H   0  0  0  0  0  0  0  0  0  0  0  0
   55.4890   24.5511   44.2589 H   0  0  0  0  0  0  0  0  0  0  0  0
   59.0654   22.3852   45.2183 H   0  0  0  0  0  0  0  0  0  0  0  0
   59.9803   24.3506   46.4122 H   0  0  0  0  0  0  0  0  0  0  0  0
   60.8919   27.4143   49.3386 H   0  0  0  0  0  0  0  0  0  0  0  0
   61.2750   29.4700   50.4370 H   0  0  0  0  0  0  0  0  0  0  0  0
   59.0873   32.5333   49.4948 H   0  0  0  0  0  0  0  0  0  0  0  0
   60.1347   33.1845   50.7803 H   0  0  0  0  0  0  0  0  0  0  0  0
   60.4942   34.9472   49.3381 H   0  0  0  0  0  0  0  0  0  0  0  0
   61.5654   33.7979   48.4443 H   0  0  0  0  0  0  0  0  0  0  0  0
   60.9750   35.1240   46.3034 H   0  0  0  0  0  0  0  0  0  0  0  0
   59.3558   35.1599   44.4225 H   0  0  0  0  0  0  0  0  0  0  0  0
   56.4898   33.0842   46.7135 H   0  0  0  0  0  0  0  0  0  0  0  0
   58.0615   33.0180   48.6250 H   0  0  0  0  0  0  0  0  0  0  0  0
   60.1900   31.6440   47.1190 H   0  0  0  0  0  0  0  0  0  0  0  0
   57.7102   29.7264   46.3024 H   0  0  0  0  0  0  0  0  0  0  0  0
   58.7151   28.0847   44.0518 H   0  0  0  0  0  0  0  0  0  0  0  0
   57.2449   27.8847   45.0904 H   0  0  0  0  0  0  0  0  0  0  0  0
   57.5963   29.5192   42.5693 H   0  0  0  0  0  0  0  0  0  0  0  0
   56.3779   28.2386   42.9618 H   0  0  0  0  0  0  0  0  0  0  0  0
   55.3997   30.5248   42.9883 H   0  0  0  0  0  0  0  0  0  0  0  0
   55.1450   30.0920   45.6390 H   0  0  0  0  0  0  0  0  0  0  0  0
   56.5412   32.2190   43.8356 H   0  0  0  0  0  0  0  0  0  0  0  0
   56.3146   31.5257   45.4611 H   0  0  0  0  0  0  0  0  0  0  0  0
   58.5524   30.7795   43.4868 H   0  0  0  0  0  0  0  0  0  0  0  0
   58.7631   31.8120   44.9133 H   0  0  0  0  0  0  0  0  0  0  0  0
  1  2  2  0
  2  3  1  0
  3  4  1  0
  4  5  2  0
  5  6  1  0
  6  7  2  0
  7  8  1  0
  7  9  1  0
  9 10  2  0
  2 11  1  0
 11 12  2  0
 12 13  1  0
 13 14  1  0
 14 15  2  0
 15 16  1  0
 16 17  1  0
 17 18  1  0
 18 19  2  0
 19 20  1  0
 20 21  2  0
 21 22  1  0
 22 23  2  0
 14 24  1  0
 24 25  1  0
 25 26  2  0
 26 27  1  0
 27 28  1  0
 28 29  1  0
 29 30  1  0
 30 31  1  0
 30 32  1  0
 32 33  1  0
 10  4  1  0
 25 11  1  0
 33 27  1  0
 23 18  1  0
  3 34  1  0
  5 35  1  0
  6 36  1  0
  9 37  1  0
 10 38  1  0
 12 39  1  0
 13 40  1  0
 16 41  1  0
 16 42  1  0
 17 43  1  0
 17 44  1  0
 19 45  1  0
 20 46  1  0
 22 47  1  0
 23 48  1  0
 24 49  1  0
 27 50  1  1
 28 51  1  0
 28 52  1  0
 29 53  1  0
 29 54  1  0
 30 55  1  6
 31 56  1  0
 32 57  1  0
 32 58  1  0
 33 59  1  0
 33 60  1  0
M  END
>  <smiles>  (97) 
O=C(Nc1ccc(Cl)cc1)c1c[nH]c(=NCCc2ccncc2)[nH]c1=NC1CCC(O)CC1

>  <score_type>  (97) 
oracle

>  <origin>  (97) 
adg

>  <m_score__min__energy>  (97) 
-9.6999999999999993

>  <m_primary>  (97) 
energy

$$$$
97:0
     RDKit          3D

 44 46  0  0  1  0  0  0  0  0999 V2000
   66.8280   32.2810   50.5370 C   0  0  0  0  0  0  0  0  0  0  0  0
   65.3410   32.2780   50.1670 C   0  0  0  0  0  0  0  0  0  0  0  0
   65.0090   33.4110   49.4220 O   0  0  0  0  0  0  0  0  0  0  0  0
   63.7780   33.5150   48.7610 C   0  0  0  0  0  0  0  0  0  0  0  0
   63.7730   33.3370   47.3930 C   0  0  0  0  0  0  0  0  0  0  0  0
   62.5630   33.4400   46.7380 C   0  0  0  0  0  0  0  0  0  0  0  0
   61.4000   33.7150   47.4590 C   0  0  0  0  0  0  0  0  0  0  0  0
   60.2040   33.8010   46.6900 N   0  0  0  0  0  0  0  0  0  0  0  0
   59.5660   32.6920   46.4970 C   0  0  0  0  0  0  0  0  0  0  0  0
   58.4330   32.6190   45.7700 N   0  0  0  0  0  0  0  0  0  0  0  0
   57.7880   31.4550   45.5830 C   0  0  0  0  0  0  0  0  0  0  0  0
   56.7010   31.3440   44.8940 N   0  0  0  0  0  0  0  0  0  0  0  0
   56.7610   30.8310   43.5380 C   0  0  0  0  0  0  0  0  0  0  0  0
   55.6970   29.7230   43.4890 C   0  0  0  0  0  0  0  0  0  0  0  0
   55.4900   29.1080   44.7640 N   0  0  0  0  0  0  0  0  0  0  0  0
   58.2920   30.2980   46.1480 C   0  0  0  0  0  0  0  0  0  0  0  0
   57.6590   29.1240   45.9730 N   0  0  0  0  0  0  0  0  0  0  0  0
   58.1940   28.0280   46.5470 C   0  0  0  0  0  0  0  0  0  0  0  0
   59.3570   28.0720   47.2990 C   0  0  0  0  0  0  0  0  0  0  0  0
   60.0080   29.2750   47.4810 C   0  0  0  0  0  0  0  0  0  0  0  0
   59.4520   30.3950   46.8890 C   0  0  0  0  0  0  0  0  0  0  0  0
   60.0760   31.5880   47.0550 N   0  0  0  0  0  0  0  0  0  0  0  0
   61.4300   33.8900   48.8280 C   0  0  0  0  0  0  0  0  0  0  0  0
   62.6400   33.7890   49.4930 C   0  0  0  0  0  0  0  0  0  0  0  0
   66.9334   32.2812   51.6319 H   0  0  0  0  0  0  0  0  0  0  0  0
   67.3108   31.3838   50.1223 H   0  0  0  0  0  0  0  0  0  0  0  0
   67.3072   33.1801   50.1223 H   0  0  0  0  0  0  0  0  0  0  0  0
   65.1199   31.3791   49.5728 H   0  0  0  0  0  0  0  0  0  0  0  0
   64.7490   32.2820   51.0941 H   0  0  0  0  0  0  0  0  0  0  0  0
   64.7011   33.1206   46.8437 H   0  0  0  0  0  0  0  0  0  0  0  0
   62.5149   33.3053   45.6473 H   0  0  0  0  0  0  0  0  0  0  0  0
   58.0390   33.4830   45.3360 H   0  0  0  0  0  0  0  0  0  0  0  0
   56.5275   31.6246   42.8129 H   0  0  0  0  0  0  0  0  0  0  0  0
   57.7625   30.4561   43.2802 H   0  0  0  0  0  0  0  0  0  0  0  0
   54.7466   30.1608   43.1496 H   0  0  0  0  0  0  0  0  0  0  0  0
   56.0536   28.9464   42.7963 H   0  0  0  0  0  0  0  0  0  0  0  0
   55.9640   28.2090   44.8800 H   0  0  0  0  0  0  0  0  0  0  0  0
   55.6560   29.8030   45.4990 H   0  0  0  0  0  0  0  0  0  0  0  0
   57.6875   27.0608   46.4132 H   0  0  0  0  0  0  0  0  0  0  0  0
   59.7594   27.1523   47.7488 H   0  0  0  0  0  0  0  0  0  0  0  0
   60.9325   29.3409   48.0734 H   0  0  0  0  0  0  0  0  0  0  0  0
   60.9340   31.6090   47.6130 H   0  0  0  0  0  0  0  0  0  0  0  0
   60.5052   34.1067   49.3828 H   0  0  0  0  0  0  0  0  0  0  0  0
   62.6937   33.9244   50.5833 H   0  0  0  0  0  0  0  0  0  0  0  0
  1  2  1  0
  2  3  1  0
  3  4  1  0
  4  5  2  0
  5  6  1  0
  6  7  2  0
  7  8  1  0
  8  9  2  0
  9 10  1  0
 10 11  1  0
 11 12  2  0
 12 13  1  0
 13 14  1  0
 14 15  1  0
 11 16  1  0
 16 17  2  0
 17 18  1  0
 18 19  2  0
 19 20  1  0
 20 21  2  0
 21 22  1  0
  7 23  1  0
 23 24  2  0
 24  4  1  0
 22  9  1  0
 21 16  1  0
  1 25  1  0
  1 26  1  0
  1 27  1  0
  2 28  1  0
  2 29  1  0
  5 30  1  0
  6 31  1  0
 10 32  1  0
 13 33  1  0
 13 34  1  0
 14 35  1  0
 14 36  1  0
 15 37  1  0
 15 38  1  0
 18 39  1  0
 19 40  1  0
 20 41  1  0
 22 42  1  0
 23 43  1  0
 24 44  1  0
M  END
>  <smiles>  (98) 
CCOc1ccc(N=c2[nH]c(=NCCN)c3ncccc3[nH]2)cc1

>  <score_type>  (98) 
oracle

>  <origin>  (98) 
adg

>  <m_score__min__energy>  (98) 
-7.0899999999999999

>  <m_primary>  (98) 
energy

$$$$
