0:0
     RDKit          3D

 61 64  0  0  0  0  0  0  0  0999 V2000
   68.3290   33.7380   51.0380 C   0  0  0  0  0  0  0  0  0  0  0  0
   67.1000   33.3830   51.6670 O   0  0  0  0  0  0  0  0  0  0  0  0
   65.8530   33.3920   51.0260 C   0  0  0  0  0  0  0  0  0  0  0  0
   65.6080   32.6730   49.8410 C   0  0  0  0  0  0  0  0  0  0  0  0
   64.3500   32.7210   49.2380 C   0  0  0  0  0  0  0  0  0  0  0  0
   63.3230   33.4990   49.7920 C   0  0  0  0  0  0  0  0  0  0  0  0
   62.0380   33.5190   49.1480 N   0  0  0  0  0  0  0  0  0  0  0  0
   60.8040   33.8430   49.8160 C   0  0  0  0  0  0  0  0  0  0  0  0
   60.7240   33.8060   51.0710 O   0  0  0  0  0  0  0  0  0  0  0  0
   59.6290   34.1800   49.0640 N   0  0  0  0  0  0  0  0  0  0  0  0
   59.4390   33.9050   47.8090 C   0  0  0  0  0  0  0  0  0  0  0  0
   60.3410   34.1480   46.8300 N   0  0  0  0  0  0  0  0  0  0  0  0
   59.8580   33.8000   45.6100 C   0  0  0  0  0  0  0  0  0  0  0  0
   58.5640   33.2880   45.6210 C   0  0  0  0  0  0  0  0  0  0  0  0
   57.7990   32.8080   44.4260 C   0  0  0  0  0  0  0  0  0  0  0  0
   57.4770   31.3380   44.5360 C   0  0  0  0  0  0  0  0  0  0  0  0
   56.2450   30.8490   44.0730 C   0  0  0  0  0  0  0  0  0  0  0  0
   55.9630   29.4840   44.1210 C   0  0  0  0  0  0  0  0  0  0  0  0
   56.9160   28.5880   44.6070 C   0  0  0  0  0  0  0  0  0  0  0  0
   58.1650   29.0570   45.0600 C   0  0  0  0  0  0  0  0  0  0  0  0
   59.1780   28.1930   45.5140 O   0  0  0  0  0  0  0  0  0  0  0  0
   59.1030   27.3900   46.6920 C   0  0  0  0  0  0  0  0  0  0  0  0
   58.3720   26.0740   46.4250 C   0  0  0  0  0  0  0  0  0  0  0  0
   56.9580   26.1930   46.7680 N   0  0  0  0  0  0  0  0  0  0  0  0
   55.8680   25.7320   45.9610 C   0  0  0  0  0  0  0  0  0  0  0  0
   54.7700   26.3420   46.0210 O   0  0  0  0  0  0  0  0  0  0  0  0
   56.0030   24.6320   45.0520 N   0  0  0  0  0  0  0  0  0  0  0  0
   56.7400   23.4210   45.2780 C   0  0  0  0  0  0  0  0  0  0  0  0
   57.9840   23.1900   44.6590 C   0  0  0  0  0  0  0  0  0  0  0  0
   58.6740   21.9980   44.8920 C   0  0  0  0  0  0  0  0  0  0  0  0
   58.1490   21.0420   45.7630 C   0  0  0  0  0  0  0  0  0  0  0  0
   56.9380   21.2830   46.4170 C   0  0  0  0  0  0  0  0  0  0  0  0
   56.2370   22.4710   46.1840 C   0  0  0  0  0  0  0  0  0  0  0  0
   54.7420   22.7660   47.0560 Cl  0  0  0  0  0  0  0  0  0  0  0  0
   58.4260   30.4340   45.0420 C   0  0  0  0  0  0  0  0  0  0  0  0
   58.0040   33.2720   47.2100 S   0  0  0  0  0  0  0  0  0  0  0  0
   63.5590   34.1940   50.9910 C   0  0  0  0  0  0  0  0  0  0  0  0
   64.8190   34.1450   51.5950 C   0  0  0  0  0  0  0  0  0  0  0  0
   69.0848   33.9563   51.8069 H   0  0  0  0  0  0  0  0  0  0  0  0
   68.6745   32.9029   50.4109 H   0  0  0  0  0  0  0  0  0  0  0  0
   68.1761   34.6287   50.4109 H   0  0  0  0  0  0  0  0  0  0  0  0
   66.4103   32.0715   49.3888 H   0  0  0  0  0  0  0  0  0  0  0  0
   64.1626   32.1438   48.3206 H   0  0  0  0  0  0  0  0  0  0  0  0
   62.0280   33.4250   48.1080 H   0  0  0  0  0  0  0  0  0  0  0  0
   60.4433   33.9137   44.6856 H   0  0  0  0  0  0  0  0  0  0  0  0
   56.8600   33.3759   44.3498 H   0  0  0  0  0  0  0  0  0  0  0  0
   58.4201   32.9616   43.5312 H   0  0  0  0  0  0  0  0  0  0  0  0
   55.4970   31.5474   43.6696 H   0  0  0  0  0  0  0  0  0  0  0  0
   54.9871   29.1128   43.7749 H   0  0  0  0  0  0  0  0  0  0  0  0
   56.6913   27.5116   44.6365 H   0  0  0  0  0  0  0  0  0  0  0  0
   60.1229   27.1686   47.0397 H   0  0  0  0  0  0  0  0  0  0  0  0
   58.5424   27.9483   47.4562 H   0  0  0  0  0  0  0  0  0  0  0  0
   58.4652   25.8185   45.3592 H   0  0  0  0  0  0  0  0  0  0  0  0
   58.8225   25.2857   47.0460 H   0  0  0  0  0  0  0  0  0  0  0  0
   58.4134   23.9505   43.9902 H   0  0  0  0  0  0  0  0  0  0  0  0
   59.6338   21.8122   44.3877 H   0  0  0  0  0  0  0  0  0  0  0  0
   58.6886   20.0989   45.9346 H   0  0  0  0  0  0  0  0  0  0  0  0
   56.5347   20.5365   47.1171 H   0  0  0  0  0  0  0  0  0  0  0  0
   59.3844   30.8110   45.4283 H   0  0  0  0  0  0  0  0  0  0  0  0
   62.7504   34.7778   51.4551 H   0  0  0  0  0  0  0  0  0  0  0  0
   64.9995   34.7031   52.5256 H   0  0  0  0  0  0  0  0  0  0  0  0
  1  2  1  0
  2  3  1  0
  3  4  2  0
  4  5  1  0
  5  6  2  0
  6  7  1  0
  7  8  1  0
  8  9  2  0
  8 10  1  0
 10 11  2  3
 11 12  1  0
 12 13  1  0
 13 14  2  0
 14 15  1  0
 15 16  1  0
 16 17  2  0
 17 18  1  0
 18 19  2  0
 19 20  1  0
 20 21  1  0
 21 22  1  0
 22 23  1  0
 23 24  1  0
 24 25  1  0
 25 26  2  0
 25 27  1  0
 27 28  1  0
 28 29  2  0
 29 30  1  0
 30 31  2  0
 31 32  1  0
 32 33  2  0
 33 34  1  0
 20 35  2  0
 14 36  1  0
  6 37  1  0
 37 38  2  0
 38  3  1  0
 36 11  1  0
 35 16  1  0
 33 28  1  0
  1 39  1  0
  1 40  1  0
  1 41  1  0
  4 42  1  0
  5 43  1  0
  7 44  1  0
 13 45  1  0
 15 46  1  0
 15 47  1  0
 17 48  1  0
 18 49  1  0
 19 50  1  0
 22 51  1  0
 22 52  1  0
 23 53  1  0
 23 54  1  0
 29 55  1  0
 30 56  1  0
 31 57  1  0
 32 58  1  0
 35 59  1  0
 37 60  1  0
 38 61  1  0
M  CHG  3  12  -1  24  -1  27  -1
M  END
>  <UniqueID>  (1) 
1

>  <SMILES>  (1) 
COc1ccc(NC(=O)N=c2[n-]cc(Cc3cccc(OCC[N-]C(=O)[N-]c4ccccc4Cl)c3)s2)cc1

>  <Energy>  (1) 
104.30228540305737

>  <Genealogy>  (1) 
COc1ccc(NC(=O)N=c2[n-]cc(Cc3cccc(OCC[N-]C(=O)[N-]c4ccccc4Cl)c3)s2)cc1 (protonated)
COc1ccc(NC(=O)N=c2[n-]cc(Cc3cccc(OCC[N-]C(=O)[N-]c4ccccc4Cl)c3)s2)cc1 (3D coordinates assigned)
COc1ccc(NC(=O)N=c2[n-]cc(Cc3cccc(OCC[N-]C(=O)[N-]c4ccccc4Cl)c3)s2)cc1 (optimized conformer: 104.30228540305737 kcal/mol)

>  <smiles>  (1) 
COc1ccc(NC(=O)N=c2[nH]cc(Cc3cccc(OCCNC(=O)Nc4ccccc4Cl)c3)s2)cc1

>  <score_type>  (1) 
oracle

>  <origin>  (1) 
adg

>  <m_score__min__energy>  (1) 
-12.85

>  <m_primary>  (1) 
energy

$$$$
1:0
     RDKit          3D

 35 37  0  0  0  0  0  0  0  0999 V2000
   62.3550   30.8122   46.2085 H   0  0  0  0  0  0  0  0  0  0  0  0
   61.5670   30.7160   46.9700 C   0  0  0  0  0  0  0  0  0  0  0  0
   61.6770   31.2580   48.2110 N   0  0  0  0  0  0  0  0  0  0  0  0
   60.5850   30.9970   48.9650 C   0  0  0  0  0  0  0  0  0  0  0  0
   60.4260   31.3970   50.1930 N   0  0  0  0  0  0  0  0  0  0  0  0
   59.5220   32.4130   50.6500 C   0  0  0  0  0  0  0  0  0  0  0  0
   58.9710   32.2710   51.7720 O   0  0  0  0  0  0  0  0  0  0  0  0
   59.2900   33.5990   49.8760 N   0  0  0  0  0  0  0  0  0  0  0  0
   59.4290   33.7390   48.4550 C   0  0  0  0  0  0  0  0  0  0  0  0
   60.5300   34.3970   47.8730 C   0  0  0  0  0  0  0  0  0  0  0  0
   61.3259   34.8062   48.5126 H   0  0  0  0  0  0  0  0  0  0  0  0
   60.6130   34.5310   46.4830 C   0  0  0  0  0  0  0  0  0  0  0  0
   61.4796   35.0360   46.0313 H   0  0  0  0  0  0  0  0  0  0  0  0
   59.5980   34.0250   45.6670 C   0  0  0  0  0  0  0  0  0  0  0  0
   59.6699   34.1251   44.5739 H   0  0  0  0  0  0  0  0  0  0  0  0
   58.4920   33.3920   46.2390 C   0  0  0  0  0  0  0  0  0  0  0  0
   57.0960   32.7150   45.1240 Br  0  0  0  0  0  0  0  0  0  0  0  0
   58.4050   33.2570   47.6300 C   0  0  0  0  0  0  0  0  0  0  0  0
   57.5266   32.7692   48.0777 H   0  0  0  0  0  0  0  0  0  0  0  0
   59.4420   30.0880   48.1360 S   0  0  0  0  0  0  0  0  0  0  0  0
   60.3780   30.0290   46.7380 C   0  0  0  0  0  0  0  0  0  0  0  0
   60.0200   29.2980   45.4810 C   0  0  0  0  0  0  0  0  0  0  0  0
   59.9144   30.0211   44.6588 H   0  0  0  0  0  0  0  0  0  0  0  0
   60.8165   28.5757   45.2491 H   0  0  0  0  0  0  0  0  0  0  0  0
   58.7200   28.5530   45.6580 C   0  0  0  0  0  0  0  0  0  0  0  0
   57.5290   29.1460   45.2010 C   0  0  0  0  0  0  0  0  0  0  0  0
   57.5586   30.1485   44.7492 H   0  0  0  0  0  0  0  0  0  0  0  0
   56.3090   28.4750   45.3150 C   0  0  0  0  0  0  0  0  0  0  0  0
   55.1430   29.0790   44.8620 O   0  0  0  0  0  0  0  0  0  0  0  0
   56.2660   27.1970   45.8810 C   0  0  0  0  0  0  0  0  0  0  0  0
   55.0550   26.5250   45.9970 O   0  0  0  0  0  0  0  0  0  0  0  0
   57.4420   26.5930   46.3290 C   0  0  0  0  0  0  0  0  0  0  0  0
   57.4037   25.5867   46.7715 H   0  0  0  0  0  0  0  0  0  0  0  0
   58.6700   27.2570   46.2200 C   0  0  0  0  0  0  0  0  0  0  0  0
   60.2350   26.3450   46.8540 Br  0  0  0  0  0  0  0  0  0  0  0  0
  1  2  1  0
  2  3  1  0
  3  4  1  0
  4  5  2  0
  5  6  1  0
  6  7  2  0
  6  8  1  0
  8  9  1  0
  9 10  2  0
 10 11  1  0
 10 12  1  0
 12 13  1  0
 12 14  2  0
 14 15  1  0
 14 16  1  0
 16 17  1  0
 16 18  2  0
 18 19  1  0
  4 20  1  0
 20 21  1  0
 21 22  1  0
 22 23  1  0
 22 24  1  0
 22 25  1  0
 25 26  2  0
 26 27  1  0
 26 28  1  0
 28 29  1  0
 28 30  2  0
 30 31  1  0
 30 32  1  0
 32 33  1  0
 32 34  2  0
 34 35  1  0
 21  2  2  0
 34 25  1  0
 18  9  1  0
M  CHG  4   3  -1   8  -1  29  -1  31  -1
M  END
>  <UniqueID>  (2) 
2

>  <SMILES>  (2) 
O=C(/N=c1\[n-]cc(Cc2cc([O-])c([O-])cc2Br)s1)[N-]c1cccc(Br)c1

>  <Energy>  (2) 
73.11440693713568

>  <Genealogy>  (2) 
O=C(N=c1[n-]cc(Cc2cc([O-])c([O-])cc2Br)s1)[N-]c1cccc(Br)c1 (protonated)
O=C(/N=c1\[n-]cc(Cc2cc([O-])c([O-])cc2Br)s1)[N-]c1cccc(Br)c1 (cis-trans isomerization)
O=C(/N=c1\[n-]cc(Cc2cc([O-])c([O-])cc2Br)s1)[N-]c1cccc(Br)c1 (3D coordinates assigned)
O=C(/N=c1\[n-]cc(Cc2cc([O-])c([O-])cc2Br)s1)[N-]c1cccc(Br)c1 (optimized conformer: 73.11440693713568 kcal/mol)

>  <smiles>  (2) 
O=C(N=c1[nH]cc(Cc2cc(O)c(O)cc2Br)s1)Nc1cccc(Br)c1

>  <score_type>  (2) 
oracle

>  <origin>  (2) 
adg

>  <m_score__min__energy>  (2) 
-18.07

>  <m_primary>  (2) 
energy

$$$$
2:0
     RDKit          3D

 89 95  0  0  0  0  0  0  0  0999 V2000
   59.6930   30.0060   46.2460 O   0  0  0  0  0  0  0  0  0  0  0  0
   59.3820   31.0390   46.8970 C   0  0  0  0  0  0  0  0  0  0  0  0
   59.2720   30.9790   48.3270 N   0  0  0  0  0  0  0  0  0  0  0  0
   60.1000   30.1590   49.1710 C   0  0  0  0  0  0  0  0  0  0  0  0
   59.7540   28.8130   49.3630 C   0  0  0  0  0  0  0  0  0  0  0  0
   60.5050   27.9990   50.2140 C   0  0  0  0  0  0  0  0  0  0  0  0
   61.6110   28.5230   50.8980 C   0  0  0  0  0  0  0  0  0  0  0  0
   62.3700   27.7110   51.7560 C   0  0  0  0  0  0  0  0  0  0  0  0
   63.4770   28.2430   52.4450 C   0  0  0  0  0  0  0  0  0  0  0  0
   64.2730   27.4750   53.3100 O   0  0  0  0  0  0  0  0  0  0  0  0
   64.0230   26.1210   53.6880 C   0  0  0  0  0  0  0  0  0  0  0  0
   63.2240   26.0460   54.9970 C   0  0  0  0  0  0  0  0  0  0  0  0
   61.7260   26.3100   54.7980 C   0  0  0  0  0  0  0  0  0  0  0  0
   61.4230   27.7410   54.8960 N   0  0  0  0  0  0  0  0  0  0  0  0
   62.2090   28.6710   55.4900 C   0  0  0  0  0  0  0  0  0  0  0  0
   61.6590   29.9390   55.3510 C   0  0  0  0  0  0  0  0  0  0  0  0
   60.4960   29.7540   54.6340 C   0  0  0  0  0  0  0  0  0  0  0  0
   59.5580   30.6830   54.1920 C   0  0  0  0  0  0  0  0  0  0  0  0
   58.4560   30.2100   53.4380 C   0  0  0  0  0  0  0  0  0  0  0  0
   57.4610   31.0650   52.9370 O   0  0  0  0  0  0  0  0  0  0  0  0
   56.6930   30.8390   51.7550 C   0  0  0  0  0  0  0  0  0  0  0  0
   55.3350   30.2160   52.0990 C   0  0  0  0  0  0  0  0  0  0  0  0
   54.2040   31.2400   51.9560 C   0  0  0  0  0  0  0  0  0  0  0  0
   52.8880   30.5580   51.9690 N   0  0  0  0  0  0  0  0  0  0  0  0
   52.2000   30.6280   50.6640 C   0  0  0  0  0  0  0  0  0  0  0  0
   51.5690   32.0080   50.4380 C   0  0  0  0  0  0  0  0  0  0  0  0
   50.6470   32.3020   51.4680 O   0  0  0  0  0  0  0  0  0  0  0  0
   51.3290   32.3780   52.7050 C   0  0  0  0  0  0  0  0  0  0  0  0
   52.0010   31.0350   53.0520 C   0  0  0  0  0  0  0  0  0  0  0  0
   58.3370   28.8260   53.1730 C   0  0  0  0  0  0  0  0  0  0  0  0
   59.2990   27.9130   53.6390 C   0  0  0  0  0  0  0  0  0  0  0  0
   60.3780   28.4140   54.3710 C   0  0  0  0  0  0  0  0  0  0  0  0
   63.8150   29.5890   52.2630 C   0  0  0  0  0  0  0  0  0  0  0  0
   63.0630   30.4050   51.4140 C   0  0  0  0  0  0  0  0  0  0  0  0
   61.9610   29.8810   50.7240 C   0  0  0  0  0  0  0  0  0  0  0  0
   61.2000   30.6930   49.8680 C   0  0  0  0  0  0  0  0  0  0  0  0
   59.0500   32.2910   46.1740 C   0  0  0  0  0  0  0  0  0  0  0  0
   57.9660   32.2870   45.2770 C   0  0  0  0  0  0  0  0  0  0  0  0
   57.5740   33.4620   44.6320 C   0  0  0  0  0  0  0  0  0  0  0  0
   58.2570   34.6540   44.8690 C   0  0  0  0  0  0  0  0  0  0  0  0
   59.3480   34.6740   45.7390 C   0  0  0  0  0  0  0  0  0  0  0  0
   59.7680   33.4980   46.3860 C   0  0  0  0  0  0  0  0  0  0  0  0
   60.9830   33.5530   47.2330 C   0  0  0  0  0  0  0  0  0  0  0  0
   60.9030   34.0230   48.5530 C   0  0  0  0  0  0  0  0  0  0  0  0
   62.0410   34.0350   49.3660 C   0  0  0  0  0  0  0  0  0  0  0  0
   63.2670   33.5870   48.8630 C   0  0  0  0  0  0  0  0  0  0  0  0
   63.3570   33.1350   47.5430 C   0  0  0  0  0  0  0  0  0  0  0  0
   62.2220   33.1230   46.7280 C   0  0  0  0  0  0  0  0  0  0  0  0
   58.5550   31.5870   48.7830 H   0  0  0  0  0  0  0  0  0  0  0  0
   58.8826   28.3946   48.8381 H   0  0  0  0  0  0  0  0  0  0  0  0
   60.2277   26.9430   50.3481 H   0  0  0  0  0  0  0  0  0  0  0  0
   62.0984   26.6536   51.8907 H   0  0  0  0  0  0  0  0  0  0  0  0
   63.4505   25.6260   52.8898 H   0  0  0  0  0  0  0  0  0  0  0  0
   64.9897   25.6192   53.8419 H   0  0  0  0  0  0  0  0  0  0  0  0
   63.3492   25.0415   55.4276 H   0  0  0  0  0  0  0  0  0  0  0  0
   63.6112   26.8291   55.6654 H   0  0  0  0  0  0  0  0  0  0  0  0
   61.4265   25.9470   53.8038 H   0  0  0  0  0  0  0  0  0  0  0  0
   61.1710   25.7813   55.5869 H   0  0  0  0  0  0  0  0  0  0  0  0
   63.1529   28.4521   56.0107 H   0  0  0  0  0  0  0  0  0  0  0  0
   62.0647   30.8880   55.7317 H   0  0  0  0  0  0  0  0  0  0  0  0
   59.6693   31.7530   54.4216 H   0  0  0  0  0  0  0  0  0  0  0  0
   56.5301   31.7982   51.2419 H   0  0  0  0  0  0  0  0  0  0  0  0
   57.2444   30.1451   51.1035 H   0  0  0  0  0  0  0  0  0  0  0  0
   55.1441   29.3731   51.4185 H   0  0  0  0  0  0  0  0  0  0  0  0
   55.3638   29.8721   53.1435 H   0  0  0  0  0  0  0  0  0  0  0  0
   54.2517   31.9526   52.7926 H   0  0  0  0  0  0  0  0  0  0  0  0
   54.3218   31.7722   51.0006 H   0  0  0  0  0  0  0  0  0  0  0  0
   52.9291   30.4323   49.8639 H   0  0  0  0  0  0  0  0  0  0  0  0
   51.3985   29.8747   50.6540 H   0  0  0  0  0  0  0  0  0  0  0  0
   52.3605   32.7719   50.4310 H   0  0  0  0  0  0  0  0  0  0  0  0
   51.0388   32.0048   49.4742 H   0  0  0  0  0  0  0  0  0  0  0  0
   52.1001   33.1599   52.6426 H   0  0  0  0  0  0  0  0  0  0  0  0
   50.5988   32.6168   53.4923 H   0  0  0  0  0  0  0  0  0  0  0  0
   52.5971   31.1633   53.9675 H   0  0  0  0  0  0  0  0  0  0  0  0
   51.2072   30.2866   53.1927 H   0  0  0  0  0  0  0  0  0  0  0  0
   57.4779   28.4580   52.5929 H   0  0  0  0  0  0  0  0  0  0  0  0
   59.2049   26.8365   53.4334 H   0  0  0  0  0  0  0  0  0  0  0  0
   64.6820   30.0089   52.7941 H   0  0  0  0  0  0  0  0  0  0  0  0
   63.3368   31.4627   51.2865 H   0  0  0  0  0  0  0  0  0  0  0  0
   61.4651   31.7530   49.7413 H   0  0  0  0  0  0  0  0  0  0  0  0
   57.4228   31.3506   45.0821 H   0  0  0  0  0  0  0  0  0  0  0  0
   56.7235   33.4469   43.9346 H   0  0  0  0  0  0  0  0  0  0  0  0
   57.9356   35.5799   44.3696 H   0  0  0  0  0  0  0  0  0  0  0  0
   59.8839   35.6174   45.9202 H   0  0  0  0  0  0  0  0  0  0  0  0
   59.9422   34.3831   48.9494 H   0  0  0  0  0  0  0  0  0  0  0  0
   61.9719   34.3972   50.4024 H   0  0  0  0  0  0  0  0  0  0  0  0
   64.1598   33.5903   49.5056 H   0  0  0  0  0  0  0  0  0  0  0  0
   64.3224   32.7884   47.1456 H   0  0  0  0  0  0  0  0  0  0  0  0
   62.2986   32.7756   45.6871 H   0  0  0  0  0  0  0  0  0  0  0  0
  1  2  2  0
  2  3  1  0
  3  4  1  0
  4  5  2  0
  5  6  1  0
  6  7  2  0
  7  8  1  0
  8  9  2  0
  9 10  1  0
 10 11  1  0
 11 12  1  0
 12 13  1  0
 13 14  1  0
 14 15  1  0
 15 16  2  0
 16 17  1  0
 17 18  2  0
 18 19  1  0
 19 20  1  0
 20 21  1  0
 21 22  1  0
 22 23  1  0
 23 24  1  0
 24 25  1  0
 25 26  1  0
 26 27  1  0
 27 28  1  0
 28 29  1  0
 19 30  2  0
 30 31  1  0
 31 32  2  0
  9 33  1  0
 33 34  2  0
 34 35  1  0
 35 36  2  0
  2 37  1  0
 37 38  2  0
 38 39  1  0
 39 40  2  0
 40 41  1  0
 41 42  2  0
 42 43  1  0
 43 44  2  0
 44 45  1  0
 45 46  2  0
 46 47  1  0
 47 48  2  0
 36  4  1  0
 42 37  1  0
 48 43  1  0
 35  7  1  0
 32 14  1  0
 32 17  1  0
 29 24  1  0
  3 49  1  0
  5 50  1  0
  6 51  1  0
  8 52  1  0
 11 53  1  0
 11 54  1  0
 12 55  1  0
 12 56  1  0
 13 57  1  0
 13 58  1  0
 15 59  1  0
 16 60  1  0
 18 61  1  0
 21 62  1  0
 21 63  1  0
 22 64  1  0
 22 65  1  0
 23 66  1  0
 23 67  1  0
 25 68  1  0
 25 69  1  0
 26 70  1  0
 26 71  1  0
 28 72  1  0
 28 73  1  0
 29 74  1  0
 29 75  1  0
 30 76  1  0
 31 77  1  0
 33 78  1  0
 34 79  1  0
 36 80  1  0
 38 81  1  0
 39 82  1  0
 40 83  1  0
 41 84  1  0
 44 85  1  0
 45 86  1  0
 46 87  1  0
 47 88  1  0
 48 89  1  0
M  END
>  <UniqueID>  (3) 
3

>  <SMILES>  (3) 
O=C(Nc1ccc2cc(OCCCn3ccc4cc(OCCCN5CCOCC5)ccc43)ccc2c1)c1ccccc1-c1ccccc1

>  <Energy>  (3) 
145.86616341442502

>  <Genealogy>  (3) 
O=C(Nc1ccc2cc(OCCCn3ccc4cc(OCCCN5CCOCC5)ccc43)ccc2c1)c1ccccc1-c1ccccc1 (3D coordinates assigned)
O=C(Nc1ccc2cc(OCCCn3ccc4cc(OCCCN5CCOCC5)ccc43)ccc2c1)c1ccccc1-c1ccccc1 (nonaromatic ring conformer: 145.86616341442502 kcal/mol)

>  <smiles>  (3) 
O=C(Nc1ccc2cc(OCCCn3ccc4cc(OCCCN5CCOCC5)ccc43)ccc2c1)c1ccccc1-c1ccccc1

>  <score_type>  (3) 
oracle

>  <origin>  (3) 
adg

>  <m_score__min__energy>  (3) 
-11.85

>  <m_primary>  (3) 
energy

$$$$
3:0
     RDKit          3D

 57 60  0  0  0  0  0  0  0  0999 V2000
   59.0090   34.4870   47.8750 C   0  0  0  0  0  0  0  0  0  0  0  0
   58.6810   33.9670   46.5060 C   0  0  0  0  0  0  0  0  0  0  0  0
   59.4610   34.3370   45.4000 C   0  0  0  0  0  0  0  0  0  0  0  0
   59.1600   33.8390   44.1280 C   0  0  0  0  0  0  0  0  0  0  0  0
   58.0940   32.9460   43.9570 C   0  0  0  0  0  0  0  0  0  0  0  0
   57.8200   32.4540   42.7200 F   0  0  0  0  0  0  0  0  0  0  0  0
   57.3430   32.5230   45.0620 C   0  0  0  0  0  0  0  0  0  0  0  0
   56.3020   31.5530   44.8720 N   0  0  0  0  0  0  0  0  0  0  0  0
   56.5880   29.9040   44.4050 S   0  0  0  0  0  0  0  0  0  0  0  0
   55.3820   29.0640   44.7400 O   0  0  0  0  0  0  0  0  0  0  0  0
   56.8250   29.8540   42.9180 O   0  0  0  0  0  0  0  0  0  0  0  0
   58.0300   29.2830   45.2120 C   0  0  0  0  0  0  0  0  0  0  0  0
   59.1910   29.0380   44.4640 C   0  0  0  0  0  0  0  0  0  0  0  0
   60.3610   28.6220   45.1030 C   0  0  0  0  0  0  0  0  0  0  0  0
   60.3810   28.4510   46.4910 C   0  0  0  0  0  0  0  0  0  0  0  0
   59.2140   28.6690   47.2490 C   0  0  0  0  0  0  0  0  0  0  0  0
   59.2200   28.5770   48.6810 N   0  0  0  0  0  0  0  0  0  0  0  0
   58.9380   29.6450   49.5880 C   0  0  0  0  0  0  0  0  0  0  0  0
   58.3580   29.3850   50.6730 O   0  0  0  0  0  0  0  0  0  0  0  0
   59.3420   30.9900   49.2950 N   0  0  0  0  0  0  0  0  0  0  0  0
   59.3550   32.0180   50.2930 C   0  0  0  0  0  0  0  0  0  0  0  0
   58.1950   32.2570   51.0410 C   0  0  0  0  0  0  0  0  0  0  0  0
   58.1830   33.2470   52.0260 C   0  0  0  0  0  0  0  0  0  0  0  0
   59.3260   34.0150   52.2610 C   0  0  0  0  0  0  0  0  0  0  0  0
   60.4830   33.8000   51.5070 C   0  0  0  0  0  0  0  0  0  0  0  0
   60.5070   32.8110   50.5120 C   0  0  0  0  0  0  0  0  0  0  0  0
   61.6760   32.6670   49.6860 N   0  0  0  0  0  0  0  0  0  0  0  0
   61.5110   32.7110   48.2250 C   0  0  0  0  0  0  0  0  0  0  0  0
   62.8410   32.5370   47.4940 C   0  0  0  0  0  0  0  0  0  0  0  0
   63.8820   33.1580   48.2130 O   0  0  0  0  0  0  0  0  0  0  0  0
   64.1560   32.4000   49.3700 C   0  0  0  0  0  0  0  0  0  0  0  0
   62.9650   32.3920   50.3420 C   0  0  0  0  0  0  0  0  0  0  0  0
   58.0460   29.0950   46.6040 C   0  0  0  0  0  0  0  0  0  0  0  0
   57.6250   33.0550   46.3340 C   0  0  0  0  0  0  0  0  0  0  0  0
   58.5844   33.8139   48.6344 H   0  0  0  0  0  0  0  0  0  0  0  0
   60.1012   34.5350   47.9971 H   0  0  0  0  0  0  0  0  0  0  0  0
   58.5819   35.4933   47.9971 H   0  0  0  0  0  0  0  0  0  0  0  0
   60.3121   35.0210   45.5336 H   0  0  0  0  0  0  0  0  0  0  0  0
   59.7612   34.1490   43.2605 H   0  0  0  0  0  0  0  0  0  0  0  0
   59.1799   29.1737   43.3725 H   0  0  0  0  0  0  0  0  0  0  0  0
   61.2691   28.4283   44.5132 H   0  0  0  0  0  0  0  0  0  0  0  0
   61.3112   28.1453   46.9923 H   0  0  0  0  0  0  0  0  0  0  0  0
   59.6750   31.2440   48.3360 H   0  0  0  0  0  0  0  0  0  0  0  0
   57.2893   31.6621   50.8517 H   0  0  0  0  0  0  0  0  0  0  0  0
   57.2723   33.4222   52.6176 H   0  0  0  0  0  0  0  0  0  0  0  0
   59.3154   34.7905   53.0410 H   0  0  0  0  0  0  0  0  0  0  0  0
   61.3794   34.4093   51.6946 H   0  0  0  0  0  0  0  0  0  0  0  0
   60.8296   31.9031   47.9200 H   0  0  0  0  0  0  0  0  0  0  0  0
   61.1030   33.6971   47.9584 H   0  0  0  0  0  0  0  0  0  0  0  0
   63.0608   31.4640   47.3921 H   0  0  0  0  0  0  0  0  0  0  0  0
   62.7658   33.0036   46.5007 H   0  0  0  0  0  0  0  0  0  0  0  0
   64.3801   31.3649   49.0728 H   0  0  0  0  0  0  0  0  0  0  0  0
   65.0139   32.8581   49.8839 H   0  0  0  0  0  0  0  0  0  0  0  0
   62.9100   31.4022   50.8186 H   0  0  0  0  0  0  0  0  0  0  0  0
   63.1362   33.1954   51.0736 H   0  0  0  0  0  0  0  0  0  0  0  0
   57.1352   29.2836   47.1913 H   0  0  0  0  0  0  0  0  0  0  0  0
   57.0153   32.7553   47.1991 H   0  0  0  0  0  0  0  0  0  0  0  0
  1  2  1  0
  2  3  2  0
  3  4  1  0
  4  5  2  0
  5  6  1  0
  5  7  1  0
  7  8  1  0
  8  9  1  0
  9 10  2  0
  9 11  2  0
  9 12  1  0
 12 13  2  0
 13 14  1  0
 14 15  2  0
 15 16  1  0
 16 17  1  0
 17 18  1  0
 18 19  2  0
 18 20  1  0
 20 21  1  0
 21 22  2  0
 22 23  1  0
 23 24  2  0
 24 25  1  0
 25 26  2  0
 26 27  1  0
 27 28  1  0
 28 29  1  0
 29 30  1  0
 30 31  1  0
 31 32  1  0
 16 33  2  0
  7 34  2  0
 34  2  1  0
 33 12  1  0
 26 21  1  0
 32 27  1  0
  1 35  1  0
  1 36  1  0
  1 37  1  0
  3 38  1  0
  4 39  1  0
 13 40  1  0
 14 41  1  0
 15 42  1  0
 20 43  1  0
 22 44  1  0
 23 45  1  0
 24 46  1  0
 25 47  1  0
 28 48  1  0
 28 49  1  0
 29 50  1  0
 29 51  1  0
 31 52  1  0
 31 53  1  0
 32 54  1  0
 32 55  1  0
 33 56  1  0
 34 57  1  0
M  CHG  2   8  -1  17  -1
M  END
>  <UniqueID>  (4) 
4

>  <SMILES>  (4) 
Cc1ccc(F)c([N-]S(=O)(=O)c2cccc([N-]C(=O)Nc3ccccc3N3CCOCC3)c2)c1

>  <Energy>  (4) 
84.56746476832792

>  <Genealogy>  (4) 
Cc1ccc(F)c([N-]S(=O)(=O)c2cccc([N-]C(=O)Nc3ccccc3N3CCOCC3)c2)c1 (protonated)
Cc1ccc(F)c([N-]S(=O)(=O)c2cccc([N-]C(=O)Nc3ccccc3N3CCOCC3)c2)c1 (3D coordinates assigned)
Cc1ccc(F)c([N-]S(=O)(=O)c2cccc([N-]C(=O)Nc3ccccc3N3CCOCC3)c2)c1 (nonaromatic ring conformer: 84.56746476832792 kcal/mol)

>  <smiles>  (4) 
Cc1ccc(F)c(NS(=O)(=O)c2cccc(NC(=O)Nc3ccccc3N3CCOCC3)c2)c1

>  <score_type>  (4) 
oracle

>  <origin>  (4) 
adg

>  <m_score__min__energy>  (4) 
-12.869999999999999

>  <m_primary>  (4) 
energy

$$$$
4:0
     RDKit          3D

 65 68  0  0  0  0  0  0  0  0999 V2000
   61.2900   30.3950   47.5680 N   0  0  0  0  0  0  0  0  0  0  0  0
   60.3460   29.3870   48.6100 S   0  0  0  0  0  0  0  0  0  0  0  0
   61.2220   28.8240   49.6940 O   0  0  0  0  0  0  0  0  0  0  0  0
   59.2550   30.2020   49.2430 O   0  0  0  0  0  0  0  0  0  0  0  0
   59.6510   28.0670   47.6720 C   0  0  0  0  0  0  0  0  0  0  0  0
   60.4230   26.9320   47.3930 C   0  0  0  0  0  0  0  0  0  0  0  0
   59.8780   25.8790   46.6530 C   0  0  0  0  0  0  0  0  0  0  0  0
   58.5660   25.9610   46.1770 C   0  0  0  0  0  0  0  0  0  0  0  0
   57.7930   27.1050   46.4270 C   0  0  0  0  0  0  0  0  0  0  0  0
   56.3990   27.1890   45.9480 C   0  0  0  0  0  0  0  0  0  0  0  0
   55.6160   26.2290   46.1720 O   0  0  0  0  0  0  0  0  0  0  0  0
   55.9020   28.3350   45.2470 N   0  0  0  0  0  0  0  0  0  0  0  0
   56.6090   29.0100   44.1630 C   0  0  0  0  0  0  0  0  0  0  0  0
   57.3080   30.2280   44.6910 C   0  0  0  0  0  0  0  0  0  0  0  0
   58.6540   30.1660   45.0840 C   0  0  0  0  0  0  0  0  0  0  0  0
   59.2680   31.3050   45.6070 C   0  0  0  0  0  0  0  0  0  0  0  0
   58.5400   32.4930   45.7470 C   0  0  0  0  0  0  0  0  0  0  0  0
   59.2970   33.9380   46.4180 S   0  0  0  0  0  0  0  0  0  0  0  0
   58.2680   34.7200   47.1870 O   0  0  0  0  0  0  0  0  0  0  0  0
   59.7960   34.8060   45.2960 O   0  0  0  0  0  0  0  0  0  0  0  0
   60.6310   33.5390   47.4730 N   0  0  0  0  0  0  0  0  0  0  0  0
   61.8850   33.4470   46.7120 C   0  0  0  0  0  0  0  0  0  0  0  0
   63.0180   32.9100   47.6170 C   0  0  0  0  0  0  0  0  0  0  0  0
   62.7690   33.1340   49.0680 N   0  0  0  0  0  0  0  0  0  0  0  0
   62.1100   31.9540   49.7160 C   0  0  0  0  0  0  0  0  0  0  0  0
   61.0280   32.3240   50.7710 C   0  0  0  0  0  0  0  0  0  0  0  0
   61.6650   32.8250   52.0720 C   0  0  0  0  0  0  0  0  0  0  0  0
   62.6050   31.7760   52.7070 C   0  0  0  0  0  0  0  0  0  0  0  0
   62.9020   30.5810   51.7860 C   0  0  0  0  0  0  0  0  0  0  0  0
   63.2110   31.0460   50.3560 C   0  0  0  0  0  0  0  0  0  0  0  0
   62.1180   34.4510   49.2600 C   0  0  0  0  0  0  0  0  0  0  0  0
   60.7440   34.5290   48.5610 C   0  0  0  0  0  0  0  0  0  0  0  0
   57.1950   32.5110   45.3550 C   0  0  0  0  0  0  0  0  0  0  0  0
   56.6150   31.3900   44.8490 N   0  0  0  0  0  0  0  0  0  0  0  0
   58.3370   28.1510   47.1900 C   0  0  0  0  0  0  0  0  0  0  0  0
   62.2740   30.3610   47.9200 H   0  0  0  0  0  0  0  0  0  0  0  0
   60.9550   31.3760   47.7070 H   0  0  0  0  0  0  0  0  0  0  0  0
   61.4593   26.8694   47.7567 H   0  0  0  0  0  0  0  0  0  0  0  0
   60.4825   24.9839   46.4447 H   0  0  0  0  0  0  0  0  0  0  0  0
   58.1380   25.1252   45.6041 H   0  0  0  0  0  0  0  0  0  0  0  0
   57.3504   28.3237   43.7278 H   0  0  0  0  0  0  0  0  0  0  0  0
   55.8856   29.3129   43.3917 H   0  0  0  0  0  0  0  0  0  0  0  0
   59.2197   29.2283   44.9807 H   0  0  0  0  0  0  0  0  0  0  0  0
   60.3250   31.2695   45.9096 H   0  0  0  0  0  0  0  0  0  0  0  0
   61.7448   32.7643   45.8609 H   0  0  0  0  0  0  0  0  0  0  0  0
   62.1592   34.4481   46.3478 H   0  0  0  0  0  0  0  0  0  0  0  0
   63.1208   31.8287   47.4432 H   0  0  0  0  0  0  0  0  0  0  0  0
   63.9333   33.4608   47.3546 H   0  0  0  0  0  0  0  0  0  0  0  0
   61.5680   31.4164   48.9240 H   0  0  0  0  0  0  0  0  0  0  0  0
   60.3832   33.1149   50.3603 H   0  0  0  0  0  0  0  0  0  0  0  0
   60.4417   31.4212   50.9974 H   0  0  0  0  0  0  0  0  0  0  0  0
   62.2450   33.7341   51.8546 H   0  0  0  0  0  0  0  0  0  0  0  0
   60.8542   33.0270   52.7875 H   0  0  0  0  0  0  0  0  0  0  0  0
   63.5567   32.2676   52.9574 H   0  0  0  0  0  0  0  0  0  0  0  0
   62.0935   31.3796   53.5965 H   0  0  0  0  0  0  0  0  0  0  0  0
   63.7695   30.0312   52.1799 H   0  0  0  0  0  0  0  0  0  0  0  0
   62.0131   29.9337   51.7575 H   0  0  0  0  0  0  0  0  0  0  0  0
   64.1542   31.6117   50.3751 H   0  0  0  0  0  0  0  0  0  0  0  0
   63.2658   30.1382   49.7373 H   0  0  0  0  0  0  0  0  0  0  0  0
   61.9778   34.6233   50.3373 H   0  0  0  0  0  0  0  0  0  0  0  0
   62.7683   35.2177   48.8136 H   0  0  0  0  0  0  0  0  0  0  0  0
   59.9548   34.3360   49.3026 H   0  0  0  0  0  0  0  0  0  0  0  0
   60.6364   35.5331   48.1249 H   0  0  0  0  0  0  0  0  0  0  0  0
   56.6065   33.4347   45.4569 H   0  0  0  0  0  0  0  0  0  0  0  0
   57.7291   29.0408   47.4106 H   0  0  0  0  0  0  0  0  0  0  0  0
  1  2  1  0
  2  3  2  0
  2  4  2  0
  2  5  1  0
  5  6  2  0
  6  7  1  0
  7  8  2  0
  8  9  1  0
  9 10  1  0
 10 11  2  0
 10 12  1  0
 12 13  1  0
 13 14  1  0
 14 15  2  0
 15 16  1  0
 16 17  2  0
 17 18  1  0
 18 19  2  0
 18 20  2  0
 18 21  1  0
 21 22  1  0
 22 23  1  0
 23 24  1  0
 24 25  1  0
 25 26  1  0
 26 27  1  0
 27 28  1  0
 28 29  1  0
 29 30  1  0
 24 31  1  0
 31 32  1  0
 17 33  1  0
 33 34  2  0
  9 35  2  0
 35  5  1  0
 34 14  1  0
 32 21  1  0
 30 25  1  0
  1 36  1  0
  1 37  1  0
  6 38  1  0
  7 39  1  0
  8 40  1  0
 13 41  1  0
 13 42  1  0
 15 43  1  0
 16 44  1  0
 22 45  1  0
 22 46  1  0
 23 47  1  0
 23 48  1  0
 25 49  1  0
 26 50  1  0
 26 51  1  0
 27 52  1  0
 27 53  1  0
 28 54  1  0
 28 55  1  0
 29 56  1  0
 29 57  1  0
 30 58  1  0
 30 59  1  0
 31 60  1  0
 31 61  1  0
 32 62  1  0
 32 63  1  0
 33 64  1  0
 35 65  1  0
M  CHG  1  12  -1
M  END
>  <UniqueID>  (5) 
5

>  <SMILES>  (5) 
NS(=O)(=O)c1cccc(C(=O)[N-]Cc2ccc(S(=O)(=O)N3CCN(C4CCCCC4)CC3)cn2)c1

>  <Energy>  (5) 
90.2559906938683

>  <Genealogy>  (5) 
NS(=O)(=O)c1cccc(C(=O)[N-]Cc2ccc(S(=O)(=O)N3CCN(C4CCCCC4)CC3)cn2)c1 (protonated)
NS(=O)(=O)c1cccc(C(=O)[N-]Cc2ccc(S(=O)(=O)N3CCN(C4CCCCC4)CC3)cn2)c1 (3D coordinates assigned)
NS(=O)(=O)c1cccc(C(=O)[N-]Cc2ccc(S(=O)(=O)N3CCN(C4CCCCC4)CC3)cn2)c1 (nonaromatic ring conformer: 90.2559906938683 kcal/mol)

>  <smiles>  (5) 
NS(=O)(=O)c1cccc(C(=O)NCc2ccc(S(=O)(=O)N3CCN(C4CCCCC4)CC3)cn2)c1

>  <score_type>  (5) 
oracle

>  <origin>  (5) 
adg

>  <m_score__min__energy>  (5) 
-12.58

>  <m_primary>  (5) 
energy

$$$$
5:0
     RDKit          3D

 48 52  0  0  0  0  0  0  0  0999 V2000
   59.9680   31.5150   49.8510 O   0  0  0  0  0  0  0  0  0  0  0  0
   59.9020   31.0720   48.6720 C   0  0  0  0  0  0  0  0  0  0  0  0
   58.6600   30.3620   48.2250 C   0  0  0  0  0  0  0  0  0  0  0  0
   58.3870   30.6630   46.8150 N   0  0  0  0  0  0  0  0  0  0  0  0
   58.4580   29.8140   45.7480 C   0  0  0  0  0  0  0  0  0  0  0  0
   58.6970   28.3630   45.8460 C   0  0  0  0  0  0  0  0  0  0  0  0
   60.0110   27.8800   45.9090 C   0  0  0  0  0  0  0  0  0  0  0  0
   60.2500   26.5080   45.9960 C   0  0  0  0  0  0  0  0  0  0  0  0
   59.1820   25.6070   46.0140 C   0  0  0  0  0  0  0  0  0  0  0  0
   57.8570   26.0730   45.9400 C   0  0  0  0  0  0  0  0  0  0  0  0
   56.7070   25.1370   45.9360 C   0  0  0  0  0  0  0  0  0  0  0  0
   56.8380   23.7980   45.8480 N   0  0  0  0  0  0  0  0  0  0  0  0
   55.5670   23.3480   45.8640 C   0  0  0  0  0  0  0  0  0  0  0  0
   55.2800   22.1250   45.8030 O   0  0  0  0  0  0  0  0  0  0  0  0
   54.6270   24.3140   45.9480 N   0  0  0  0  0  0  0  0  0  0  0  0
   55.3590   25.4380   45.9880 C   0  0  0  0  0  0  0  0  0  0  0  0
   54.7990   26.7080   46.0370 O   0  0  0  0  0  0  0  0  0  0  0  0
   57.6270   27.4560   45.8360 C   0  0  0  0  0  0  0  0  0  0  0  0
   58.3560   30.4440   44.5490 N   0  0  0  0  0  0  0  0  0  0  0  0
   58.2100   31.7360   44.8940 C   0  0  0  0  0  0  0  0  0  0  0  0
   58.0870   32.8290   44.0400 C   0  0  0  0  0  0  0  0  0  0  0  0
   57.9910   34.1060   44.6200 C   0  0  0  0  0  0  0  0  0  0  0  0
   58.0290   34.2590   46.0230 C   0  0  0  0  0  0  0  0  0  0  0  0
   58.1570   33.1340   46.8590 C   0  0  0  0  0  0  0  0  0  0  0  0
   58.2380   31.8770   46.2510 C   0  0  0  0  0  0  0  0  0  0  0  0
   61.0300   31.1640   47.7890 N   0  0  0  0  0  0  0  0  0  0  0  0
   62.2200   31.9190   48.0780 C   0  0  0  0  0  0  0  0  0  0  0  0
   62.5770   32.9870   47.2390 C   0  0  0  0  0  0  0  0  0  0  0  0
   63.7180   33.7490   47.5120 C   0  0  0  0  0  0  0  0  0  0  0  0
   64.5020   33.4600   48.6310 C   0  0  0  0  0  0  0  0  0  0  0  0
   64.1410   32.4150   49.4860 C   0  0  0  0  0  0  0  0  0  0  0  0
   63.0020   31.6500   49.2170 C   0  0  0  0  0  0  0  0  0  0  0  0
   58.7976   29.2773   48.3454 H   0  0  0  0  0  0  0  0  0  0  0  0
   57.8112   30.7017   48.8366 H   0  0  0  0  0  0  0  0  0  0  0  0
   60.8559   28.5841   45.8898 H   0  0  0  0  0  0  0  0  0  0  0  0
   61.2831   26.1342   46.0506 H   0  0  0  0  0  0  0  0  0  0  0  0
   59.3787   24.5272   46.0865 H   0  0  0  0  0  0  0  0  0  0  0  0
   56.5968   27.8309   45.7458 H   0  0  0  0  0  0  0  0  0  0  0  0
   58.0657   32.6976   42.9481 H   0  0  0  0  0  0  0  0  0  0  0  0
   57.8856   34.9918   43.9764 H   0  0  0  0  0  0  0  0  0  0  0  0
   57.9581   35.2636   46.4654 H   0  0  0  0  0  0  0  0  0  0  0  0
   58.1921   33.2397   47.9533 H   0  0  0  0  0  0  0  0  0  0  0  0
   61.0270   30.5670   46.9320 H   0  0  0  0  0  0  0  0  0  0  0  0
   61.9564   33.2256   46.3627 H   0  0  0  0  0  0  0  0  0  0  0  0
   63.9981   34.5771   46.8443 H   0  0  0  0  0  0  0  0  0  0  0  0
   65.4036   34.0548   48.8394 H   0  0  0  0  0  0  0  0  0  0  0  0
   64.7541   32.1940   50.3722 H   0  0  0  0  0  0  0  0  0  0  0  0
   62.7160   30.8349   49.8980 H   0  0  0  0  0  0  0  0  0  0  0  0
  1  2  2  0
  2  3  1  0
  3  4  1  0
  4  5  1  0
  5  6  1  0
  6  7  2  0
  7  8  1  0
  8  9  2  0
  9 10  1  0
 10 11  1  0
 11 12  1  0
 12 13  1  0
 13 14  2  0
 13 15  1  0
 15 16  1  0
 16 17  1  0
 10 18  2  0
  5 19  2  0
 19 20  1  0
 20 21  2  0
 21 22  1  0
 22 23  2  0
 23 24  1  0
 24 25  2  0
  2 26  1  0
 26 27  1  0
 27 28  2  0
 28 29  1  0
 29 30  2  0
 30 31  1  0
 31 32  2  0
 25  4  1  0
 32 27  1  0
 18  6  1  0
 25 20  1  0
 16 11  2  0
  3 33  1  0
  3 34  1  0
  7 35  1  0
  8 36  1  0
  9 37  1  0
 18 38  1  0
 21 39  1  0
 22 40  1  0
 23 41  1  0
 24 42  1  0
 26 43  1  0
 28 44  1  0
 29 45  1  0
 30 46  1  0
 31 47  1  0
 32 48  1  0
M  CHG  3  12  -1  15  -1  17  -1
M  END
>  <UniqueID>  (6) 
6

>  <SMILES>  (6) 
O=C(Cn1c(-c2cccc(-c3[n-]c(=O)[n-]c3[O-])c2)nc2ccccc21)Nc1ccccc1

>  <Energy>  (6) 
131.64862816158313

>  <Genealogy>  (6) 
O=C(Cn1c(-c2cccc(-c3[n-]c(=O)[n-]c3[O-])c2)nc2ccccc21)Nc1ccccc1 (protonated)
O=C(Cn1c(-c2cccc(-c3[n-]c(=O)[n-]c3[O-])c2)nc2ccccc21)Nc1ccccc1 (3D coordinates assigned)
O=C(Cn1c(-c2cccc(-c3[n-]c(=O)[n-]c3[O-])c2)nc2ccccc21)Nc1ccccc1 (optimized conformer: 131.64862816158313 kcal/mol)

>  <smiles>  (6) 
O=C(Cn1c(-c2cccc(-c3[nH]c(=O)[nH]c3O)c2)nc2ccccc21)Nc1ccccc1

>  <score_type>  (6) 
oracle

>  <origin>  (6) 
adg

>  <m_score__min__energy>  (6) 
-17.579999999999998

>  <m_primary>  (6) 
energy

$$$$
6:0
     RDKit          3D

 60 62  0  0  0  0  0  0  0  0999 V2000
   59.6310   33.8490   50.8850 C   0  0  0  0  0  0  0  0  0  0  0  0
   60.6740   33.7950   49.8170 C   0  0  0  0  0  0  0  0  0  0  0  0
   61.9420   33.3860   50.0330 N   0  0  0  0  0  0  0  0  0  0  0  0
   62.5800   33.4200   48.8710 N   0  0  0  0  0  0  0  0  0  0  0  0
   63.9770   33.0320   48.7080 C   0  0  0  0  0  0  0  0  0  0  0  0
   61.7420   33.8330   47.8960 C   0  0  0  0  0  0  0  0  0  0  0  0
   62.1240   34.0320   46.4590 C   0  0  0  0  0  0  0  0  0  0  0  0
   60.5210   34.1080   48.4780 C   0  0  0  0  0  0  0  0  0  0  0  0
   59.3240   34.5100   47.8050 N   0  0  0  0  0  0  0  0  0  0  0  0
   58.4220   33.4190   46.8050 S   0  0  0  0  0  0  0  0  0  0  0  0
   56.9800   33.8370   46.7640 O   0  0  0  0  0  0  0  0  0  0  0  0
   58.5230   32.0260   47.3570 O   0  0  0  0  0  0  0  0  0  0  0  0
   59.0580   33.4650   45.1370 C   0  0  0  0  0  0  0  0  0  0  0  0
   58.3130   32.5020   44.2560 C   0  0  0  0  0  0  0  0  0  0  0  0
   58.1620   32.7690   42.8870 C   0  0  0  0  0  0  0  0  0  0  0  0
   57.4560   31.8810   42.0710 C   0  0  0  0  0  0  0  0  0  0  0  0
   56.8770   30.7330   42.6190 C   0  0  0  0  0  0  0  0  0  0  0  0
   56.9820   30.4740   43.9950 C   0  0  0  0  0  0  0  0  0  0  0  0
   56.3730   29.2680   44.5940 C   0  0  0  0  0  0  0  0  0  0  0  0
   55.1570   29.3190   44.9220 O   0  0  0  0  0  0  0  0  0  0  0  0
   57.1140   28.0380   44.7820 N   0  0  0  0  0  0  0  0  0  0  0  0
   58.2120   27.6630   43.8840 C   0  0  0  0  0  0  0  0  0  0  0  0
   56.7690   27.1470   45.8990 C   0  0  0  0  0  0  0  0  0  0  0  0
   57.9870   26.8290   46.7780 C   0  0  0  0  0  0  0  0  0  0  0  0
   58.2070   27.8560   47.7460 O   0  0  0  0  0  0  0  0  0  0  0  0
   59.2310   28.8170   47.7240 C   0  0  0  0  0  0  0  0  0  0  0  0
   59.7280   29.4400   48.8870 C   0  0  0  0  0  0  0  0  0  0  0  0
   60.7610   30.3790   48.7920 C   0  0  0  0  0  0  0  0  0  0  0  0
   61.2950   30.7150   47.5470 C   0  0  0  0  0  0  0  0  0  0  0  0
   60.7980   30.1130   46.3900 C   0  0  0  0  0  0  0  0  0  0  0  0
   59.7700   29.1690   46.4790 C   0  0  0  0  0  0  0  0  0  0  0  0
   57.7250   31.3500   44.8020 C   0  0  0  0  0  0  0  0  0  0  0  0
   60.1155   33.8239   51.8722 H   0  0  0  0  0  0  0  0  0  0  0  0
   59.0512   34.7784   50.7846 H   0  0  0  0  0  0  0  0  0  0  0  0
   58.9583   32.9845   50.7846 H   0  0  0  0  0  0  0  0  0  0  0  0
   64.4397   32.9035   49.6976 H   0  0  0  0  0  0  0  0  0  0  0  0
   64.0319   32.0846   48.1517 H   0  0  0  0  0  0  0  0  0  0  0  0
   64.5126   33.8154   48.1517 H   0  0  0  0  0  0  0  0  0  0  0  0
   63.0984   34.5396   46.4055 H   0  0  0  0  0  0  0  0  0  0  0  0
   62.1918   33.0546   45.9589 H   0  0  0  0  0  0  0  0  0  0  0  0
   61.3619   34.6477   45.9589 H   0  0  0  0  0  0  0  0  0  0  0  0
   58.8730   35.4080   48.0810 H   0  0  0  0  0  0  0  0  0  0  0  0
   58.9447   34.4829   44.7356 H   0  0  0  0  0  0  0  0  0  0  0  0
   60.1195   33.1773   45.1559 H   0  0  0  0  0  0  0  0  0  0  0  0
   58.6008   33.6803   42.4545 H   0  0  0  0  0  0  0  0  0  0  0  0
   57.3557   32.0860   40.9949 H   0  0  0  0  0  0  0  0  0  0  0  0
   56.3365   30.0290   41.9692 H   0  0  0  0  0  0  0  0  0  0  0  0
   59.0871   27.3641   44.4797 H   0  0  0  0  0  0  0  0  0  0  0  0
   57.8958   26.8219   43.2495 H   0  0  0  0  0  0  0  0  0  0  0  0
   58.4763   28.5218   43.2495 H   0  0  0  0  0  0  0  0  0  0  0  0
   56.0016   27.6345   46.5183 H   0  0  0  0  0  0  0  0  0  0  0  0
   56.3980   26.2012   45.4773 H   0  0  0  0  0  0  0  0  0  0  0  0
   57.8145   25.8757   47.2990 H   0  0  0  0  0  0  0  0  0  0  0  0
   58.8750   26.7626   46.1323 H   0  0  0  0  0  0  0  0  0  0  0  0
   59.3033   29.1877   49.8699 H   0  0  0  0  0  0  0  0  0  0  0  0
   61.1540   30.8546   49.7027 H   0  0  0  0  0  0  0  0  0  0  0  0
   62.1070   31.4538   47.4777 H   0  0  0  0  0  0  0  0  0  0  0  0
   61.2149   30.3811   45.4080 H   0  0  0  0  0  0  0  0  0  0  0  0
   59.3810   28.6986   45.5639 H   0  0  0  0  0  0  0  0  0  0  0  0
   57.8477   31.1316   45.8731 H   0  0  0  0  0  0  0  0  0  0  0  0
  1  2  1  0
  2  3  2  0
  3  4  1  0
  4  5  1  0
  4  6  1  0
  6  7  1  0
  6  8  2  0
  8  9  1  0
  9 10  1  0
 10 11  2  0
 10 12  2  0
 10 13  1  0
 13 14  1  0
 14 15  2  0
 15 16  1  0
 16 17  2  0
 17 18  1  0
 18 19  1  0
 19 20  2  0
 19 21  1  0
 21 22  1  0
 21 23  1  0
 23 24  1  0
 24 25  1  0
 25 26  1  0
 26 27  2  0
 27 28  1  0
 28 29  2  0
 29 30  1  0
 30 31  2  0
 18 32  2  0
  8  2  1  0
 32 14  1  0
 31 26  1  0
  1 33  1  0
  1 34  1  0
  1 35  1  0
  5 36  1  0
  5 37  1  0
  5 38  1  0
  7 39  1  0
  7 40  1  0
  7 41  1  0
  9 42  1  0
 13 43  1  0
 13 44  1  0
 15 45  1  0
 16 46  1  0
 17 47  1  0
 22 48  1  0
 22 49  1  0
 22 50  1  0
 23 51  1  0
 23 52  1  0
 24 53  1  0
 24 54  1  0
 27 55  1  0
 28 56  1  0
 29 57  1  0
 30 58  1  0
 31 59  1  0
 32 60  1  0
M  END
>  <UniqueID>  (7) 
7

>  <SMILES>  (7) 
Cc1nn(C)c(C)c1NS(=O)(=O)Cc1cccc(C(=O)N(C)CCOc2ccccc2)c1

>  <Energy>  (7) 
90.42635189878118

>  <Genealogy>  (7) 
Cc1nn(C)c(C)c1NS(=O)(=O)Cc1cccc(C(=O)N(C)CCOc2ccccc2)c1 (3D coordinates assigned)
Cc1nn(C)c(C)c1NS(=O)(=O)Cc1cccc(C(=O)N(C)CCOc2ccccc2)c1 (optimized conformer: 90.42635189878118 kcal/mol)

>  <smiles>  (7) 
Cc1nn(C)c(C)c1NS(=O)(=O)Cc1cccc(C(=O)N(C)CCOc2ccccc2)c1

>  <score_type>  (7) 
oracle

>  <origin>  (7) 
adg

>  <m_score__min__energy>  (7) 
-8.8499999999999996

>  <m_primary>  (7) 
energy

$$$$
7:0
     RDKit          3D

 43 45  0  0  0  0  0  0  0  0999 V2000
   52.9220   25.2140   45.2850 O   0  0  0  0  0  0  0  0  0  0  0  0
   53.5990   24.1780   45.0540 C   0  0  0  0  0  0  0  0  0  0  0  0
   52.9290   22.9770   44.8450 O   0  0  0  0  0  0  0  0  0  0  0  0
   55.0840   24.2240   45.0070 C   0  0  0  0  0  0  0  0  0  0  0  0
   55.7740   23.2040   44.3270 C   0  0  0  0  0  0  0  0  0  0  0  0
   57.1650   23.2110   44.2550 C   0  0  0  0  0  0  0  0  0  0  0  0
   57.8940   24.2270   44.8680 C   0  0  0  0  0  0  0  0  0  0  0  0
   57.2380   25.2580   45.5550 C   0  0  0  0  0  0  0  0  0  0  0  0
   58.0550   26.2870   46.2380 C   0  0  0  0  0  0  0  0  0  0  0  0
   58.9210   25.9130   47.0740 O   0  0  0  0  0  0  0  0  0  0  0  0
   57.9030   27.7340   45.9370 C   0  0  0  0  0  0  0  0  0  0  0  0
   58.5860   28.7030   46.6860 C   0  0  0  0  0  0  0  0  0  0  0  0
   58.4470   30.0580   46.3900 C   0  0  0  0  0  0  0  0  0  0  0  0
   57.6280   30.4820   45.3260 C   0  0  0  0  0  0  0  0  0  0  0  0
   57.4990   31.8420   44.9960 O   0  0  0  0  0  0  0  0  0  0  0  0
   57.0580   32.8800   45.8740 C   0  0  0  0  0  0  0  0  0  0  0  0
   58.1510   33.2670   46.8400 C   0  0  0  0  0  0  0  0  0  0  0  0
   58.1690   32.7100   48.1310 C   0  0  0  0  0  0  0  0  0  0  0  0
   59.1760   33.0510   49.0380 C   0  0  0  0  0  0  0  0  0  0  0  0
   60.1710   33.9580   48.6700 C   0  0  0  0  0  0  0  0  0  0  0  0
   60.1580   34.5300   47.3960 C   0  0  0  0  0  0  0  0  0  0  0  0
   59.1540   34.1950   46.4800 C   0  0  0  0  0  0  0  0  0  0  0  0
   59.1780   34.9640   44.8960 Cl  0  0  0  0  0  0  0  0  0  0  0  0
   56.9250   29.5170   44.5670 C   0  0  0  0  0  0  0  0  0  0  0  0
   56.0630   29.9070   43.4760 N   0  0  0  0  0  0  0  0  0  0  0  0
   54.8300   29.7250   43.5500 O   0  0  0  0  0  0  0  0  0  0  0  0
   56.5660   30.5370   42.3610 O   0  0  0  0  0  0  0  0  0  0  0  0
   57.0820   28.1520   44.8760 C   0  0  0  0  0  0  0  0  0  0  0  0
   55.8230   25.2680   45.6180 C   0  0  0  0  0  0  0  0  0  0  0  0
   55.1420   26.3110   46.2540 O   0  0  0  0  0  0  0  0  0  0  0  0
   55.2087   22.3917   43.8467 H   0  0  0  0  0  0  0  0  0  0  0  0
   57.6896   22.4111   43.7120 H   0  0  0  0  0  0  0  0  0  0  0  0
   58.9926   24.2205   44.8127 H   0  0  0  0  0  0  0  0  0  0  0  0
   59.2378   28.3908   47.5152 H   0  0  0  0  0  0  0  0  0  0  0  0
   58.9832   30.8045   46.9944 H   0  0  0  0  0  0  0  0  0  0  0  0
   56.7754   33.7603   45.2780 H   0  0  0  0  0  0  0  0  0  0  0  0
   56.1947   32.5123   46.4481 H   0  0  0  0  0  0  0  0  0  0  0  0
   57.3838   31.9998   48.4295 H   0  0  0  0  0  0  0  0  0  0  0  0
   59.1845   32.6041   50.0431 H   0  0  0  0  0  0  0  0  0  0  0  0
   60.9654   34.2223   49.3835 H   0  0  0  0  0  0  0  0  0  0  0  0
   60.9412   35.2478   47.1108 H   0  0  0  0  0  0  0  0  0  0  0  0
   56.5517   27.3985   44.2752 H   0  0  0  0  0  0  0  0  0  0  0  0
   54.1380   26.3290   46.3740 H   0  0  0  0  0  0  0  0  0  0  0  0
  1  2  2  0
  2  3  1  0
  2  4  1  0
  4  5  2  0
  5  6  1  0
  6  7  2  0
  7  8  1  0
  8  9  1  0
  9 10  2  0
  9 11  1  0
 11 12  2  0
 12 13  1  0
 13 14  2  0
 14 15  1  0
 15 16  1  0
 16 17  1  0
 17 18  2  0
 18 19  1  0
 19 20  2  0
 20 21  1  0
 21 22  2  0
 22 23  1  0
 14 24  1  0
 24 25  1  0
 25 26  2  0
 25 27  1  0
 24 28  2  0
  8 29  2  0
 29 30  1  0
 29  4  1  0
 28 11  1  0
 22 17  1  0
  5 31  1  0
  6 32  1  0
  7 33  1  0
 12 34  1  0
 13 35  1  0
 16 36  1  0
 16 37  1  0
 18 38  1  0
 19 39  1  0
 20 40  1  0
 21 41  1  0
 28 42  1  0
 30 43  1  0
M  CHG  3   3  -1  25   1  27  -1
M  END
>  <UniqueID>  (8) 
8

>  <SMILES>  (8) 
O=C([O-])c1cccc(C(=O)c2ccc(OCc3ccccc3Cl)c([N+](=O)[O-])c2)c1O

>  <Energy>  (8) 
61.49989727415626

>  <Genealogy>  (8) 
O=C([O-])c1cccc(C(=O)c2ccc(OCc3ccccc3Cl)c([N+](=O)[O-])c2)c1O (protonated)
O=C([O-])c1cccc(C(=O)c2ccc(OCc3ccccc3Cl)c([N+](=O)[O-])c2)c1O (3D coordinates assigned)
O=C([O-])c1cccc(C(=O)c2ccc(OCc3ccccc3Cl)c([N+](=O)[O-])c2)c1O (optimized conformer: 61.49989727415626 kcal/mol)

>  <smiles>  (8) 
O=C(O)c1cccc(C(=O)c2ccc(OCc3ccccc3Cl)c([N+](=O)[O-])c2)c1O

>  <score_type>  (8) 
oracle

>  <origin>  (8) 
adg

>  <m_score__min__energy>  (8) 
-12.56

>  <m_primary>  (8) 
energy

$$$$
8:0
     RDKit          3D

 42 44  0  0  0  0  0  0  0  0999 V2000
   67.0650   33.6830   51.4400 C   0  0  0  0  0  0  0  0  0  0  0  0
   66.8640   35.1800   51.6730 C   0  0  0  0  0  0  0  0  0  0  0  0
   65.8470   35.4770   52.7820 C   0  0  0  0  0  0  0  0  0  0  0  0
   64.5030   35.6350   52.2350 N   0  0  0  0  0  0  0  0  0  0  0  0
   63.7250   34.5610   51.6950 C   0  0  0  0  0  0  0  0  0  0  0  0
   62.8980   33.9490   52.4240 O   0  0  0  0  0  0  0  0  0  0  0  0
   63.9320   34.1610   50.3330 N   0  0  0  0  0  0  0  0  0  0  0  0
   63.0620   33.2720   49.6140 C   0  0  0  0  0  0  0  0  0  0  0  0
   63.2480   31.8890   49.7280 C   0  0  0  0  0  0  0  0  0  0  0  0
   62.4310   31.0030   49.0260 C   0  0  0  0  0  0  0  0  0  0  0  0
   61.4180   31.4850   48.1790 C   0  0  0  0  0  0  0  0  0  0  0  0
   61.2370   32.8760   48.0360 C   0  0  0  0  0  0  0  0  0  0  0  0
   62.0670   33.7600   48.7500 C   0  0  0  0  0  0  0  0  0  0  0  0
   60.1820   33.3950   47.1330 C   0  0  0  0  0  0  0  0  0  0  0  0
   60.0210   34.6390   47.0020 O   0  0  0  0  0  0  0  0  0  0  0  0
   59.3140   32.4550   46.3850 C   0  0  0  0  0  0  0  0  0  0  0  0
   58.3140   32.9360   45.5240 C   0  0  0  0  0  0  0  0  0  0  0  0
   57.4970   32.0490   44.8200 C   0  0  0  0  0  0  0  0  0  0  0  0
   57.6630   30.6680   44.9680 C   0  0  0  0  0  0  0  0  0  0  0  0
   56.6440   29.5490   44.0700 S   0  0  0  0  0  0  0  0  0  0  0  0
   55.1340   29.3610   44.8880 N   0  0  0  0  0  0  0  0  0  0  0  0
   56.4020   30.0810   42.6850 O   0  0  0  0  0  0  0  0  0  0  0  0
   57.3220   28.2130   43.9610 O   0  0  0  0  0  0  0  0  0  0  0  0
   58.6640   30.1780   45.8180 C   0  0  0  0  0  0  0  0  0  0  0  0
   59.4930   31.0630   46.5320 C   0  0  0  0  0  0  0  0  0  0  0  0
   60.5490   30.5440   47.4320 C   0  0  0  0  0  0  0  0  0  0  0  0
   60.7100   29.2990   47.5640 O   0  0  0  0  0  0  0  0  0  0  0  0
   67.1343   33.1671   52.4091 H   0  0  0  0  0  0  0  0  0  0  0  0
   66.2125   33.2827   50.8716 H   0  0  0  0  0  0  0  0  0  0  0  0
   67.9929   33.5217   50.8716 H   0  0  0  0  0  0  0  0  0  0  0  0
   67.8301   35.6250   51.9536 H   0  0  0  0  0  0  0  0  0  0  0  0
   66.4722   35.6110   50.7399 H   0  0  0  0  0  0  0  0  0  0  0  0
   65.8465   34.6446   53.5011 H   0  0  0  0  0  0  0  0  0  0  0  0
   66.1349   36.4161   53.2772 H   0  0  0  0  0  0  0  0  0  0  0  0
   64.8090   34.4850   49.8650 H   0  0  0  0  0  0  0  0  0  0  0  0
   64.0454   31.4978   50.3769 H   0  0  0  0  0  0  0  0  0  0  0  0
   62.5805   29.9188   49.1360 H   0  0  0  0  0  0  0  0  0  0  0  0
   61.9354   34.8455   48.6304 H   0  0  0  0  0  0  0  0  0  0  0  0
   58.1733   34.0203   45.4033 H   0  0  0  0  0  0  0  0  0  0  0  0
   56.7195   32.4380   44.1461 H   0  0  0  0  0  0  0  0  0  0  0  0
   55.2730   28.6350   45.6240 H   0  0  0  0  0  0  0  0  0  0  0  0
   58.8028   29.0923   45.9279 H   0  0  0  0  0  0  0  0  0  0  0  0
  1  2  1  0
  2  3  1  0
  3  4  1  0
  4  5  1  0
  5  6  2  0
  5  7  1  0
  7  8  1  0
  8  9  2  0
  9 10  1  0
 10 11  2  0
 11 12  1  0
 12 13  2  0
 12 14  1  0
 14 15  2  0
 14 16  1  0
 16 17  2  0
 17 18  1  0
 18 19  2  0
 19 20  1  0
 20 21  1  0
 20 22  2  0
 20 23  2  0
 19 24  1  0
 24 25  2  0
 25 26  1  0
 26 27  2  0
 13  8  1  0
 25 16  1  0
 26 11  1  0
  1 28  1  0
  1 29  1  0
  1 30  1  0
  2 31  1  0
  2 32  1  0
  3 33  1  0
  3 34  1  0
  7 35  1  0
  9 36  1  0
 10 37  1  0
 13 38  1  0
 17 39  1  0
 18 40  1  0
 21 41  1  0
 24 42  1  0
M  CHG  2   4  -1  21  -1
M  END
>  <UniqueID>  (9) 
9

>  <SMILES>  (9) 
CCC[N-]C(=O)Nc1ccc2c(c1)C(=O)c1ccc(S([NH-])(=O)=O)cc1C2=O

>  <Energy>  (9) 
46.402792814240485

>  <Genealogy>  (9) 
CCC[N-]C(=O)Nc1ccc2c(c1)C(=O)c1ccc(S([NH-])(=O)=O)cc1C2=O (protonated)
CCC[N-]C(=O)Nc1ccc2c(c1)C(=O)c1ccc(S([NH-])(=O)=O)cc1C2=O (3D coordinates assigned)
CCC[N-]C(=O)Nc1ccc2c(c1)C(=O)c1ccc(S([NH-])(=O)=O)cc1C2=O (nonaromatic ring conformer: 46.402792814240485 kcal/mol)

>  <smiles>  (9) 
CCCNC(=O)Nc1ccc2c(c1)C(=O)c1ccc(S(N)(=O)=O)cc1C2=O

>  <score_type>  (9) 
oracle

>  <origin>  (9) 
adg

>  <m_score__min__energy>  (9) 
-11.69

>  <m_primary>  (9) 
energy

$$$$
9:0
     RDKit          3D

 81 86  0  0  0  0  0  0  0  0999 V2000
   56.3670   30.8610   44.8310 O   0  0  0  0  0  0  0  0  0  0  0  0
   57.4920   31.3870   44.6350 C   0  0  0  0  0  0  0  0  0  0  0  0
   57.5890   32.7980   44.1180 C   0  0  0  0  0  0  0  0  0  0  0  0
   57.4630   33.8720   45.2150 C   0  0  0  0  0  0  0  0  0  0  0  0
   58.6940   33.9510   46.0870 C   0  0  0  0  0  0  0  0  0  0  0  0
   58.5700   34.0320   47.4830 C   0  0  0  0  0  0  0  0  0  0  0  0
   59.7060   33.9720   48.2970 C   0  0  0  0  0  0  0  0  0  0  0  0
   60.9850   33.8280   47.7260 C   0  0  0  0  0  0  0  0  0  0  0  0
   62.1790   33.6550   48.5910 C   0  0  0  0  0  0  0  0  0  0  0  0
   62.2090   34.2130   49.8820 C   0  0  0  0  0  0  0  0  0  0  0  0
   63.3500   34.0970   50.6810 C   0  0  0  0  0  0  0  0  0  0  0  0
   64.4740   33.4130   50.2040 C   0  0  0  0  0  0  0  0  0  0  0  0
   65.6200   33.2970   50.9870 O   0  0  0  0  0  0  0  0  0  0  0  0
   64.4500   32.8430   48.9290 C   0  0  0  0  0  0  0  0  0  0  0  0
   63.3130   32.9640   48.1240 C   0  0  0  0  0  0  0  0  0  0  0  0
   61.1070   33.7970   46.3260 C   0  0  0  0  0  0  0  0  0  0  0  0
   59.9720   33.8670   45.5150 C   0  0  0  0  0  0  0  0  0  0  0  0
   58.6930   30.6250   44.8120 N   0  0  0  0  0  0  0  0  0  0  0  0
   58.8890   29.1800   44.6360 C   0  0  2  0  0  0  0  0  0  0  0  0
   57.5450   28.4170   44.5780 C   0  0  0  0  0  0  0  0  0  0  0  0
   57.6560   26.9200   44.4860 C   0  0  0  0  0  0  0  0  0  0  0  0
   57.7690   26.1700   43.3180 C   0  0  0  0  0  0  0  0  0  0  0  0
   57.7680   24.8470   43.6010 N   0  0  0  0  0  0  0  0  0  0  0  0
   57.6460   24.7550   44.9370 C   0  0  0  0  0  0  0  0  0  0  0  0
   57.5770   23.5890   45.6980 C   0  0  0  0  0  0  0  0  0  0  0  0
   57.4420   23.7180   47.0920 C   0  0  0  0  0  0  0  0  0  0  0  0
   57.3660   22.5810   47.8860 O   0  0  0  0  0  0  0  0  0  0  0  0
   57.3810   24.9980   47.6880 C   0  0  0  0  0  0  0  0  0  0  0  0
   57.4410   26.1580   46.8940 C   0  0  0  0  0  0  0  0  0  0  0  0
   57.5720   25.9970   45.5130 C   0  0  0  0  0  0  0  0  0  0  0  0
   59.8980   28.6040   45.6200 C   0  0  0  0  0  0  0  0  0  0  0  0
   60.6440   27.6570   45.2510 O   0  0  0  0  0  0  0  0  0  0  0  0
   60.0240   29.1060   46.9710 N   0  0  0  0  0  0  0  0  0  0  0  0
   59.4900   30.4220   47.3560 C   0  0  0  0  0  0  0  0  0  0  0  0
   60.0240   30.8680   48.7270 C   0  0  0  0  0  0  0  0  0  0  0  0
   59.8600   29.8280   49.7690 N   0  0  0  0  0  0  0  0  0  0  0  0
   58.7080   30.0310   50.6790 C   0  0  0  0  0  0  0  0  0  0  0  0
   58.6810   31.3980   51.3380 C   0  0  0  0  0  0  0  0  0  0  0  0
   59.8720   32.1200   51.5450 C   0  0  0  0  0  0  0  0  0  0  0  0
   59.8460   33.3590   52.1890 C   0  0  0  0  0  0  0  0  0  0  0  0
   58.6310   33.9040   52.6110 C   0  0  0  0  0  0  0  0  0  0  0  0
   57.4380   33.2160   52.3730 C   0  0  0  0  0  0  0  0  0  0  0  0
   57.4580   31.9740   51.7310 C   0  0  0  0  0  0  0  0  0  0  0  0
   60.0360   28.4260   49.3230 C   0  0  0  0  0  0  0  0  0  0  0  0
   60.7570   28.3230   47.9760 C   0  0  0  0  0  0  0  0  0  0  0  0
   58.5640   32.9200   43.6236 H   0  0  0  0  0  0  0  0  0  0  0  0
   56.7455   32.9449   43.4274 H   0  0  0  0  0  0  0  0  0  0  0  0
   57.3060   34.8497   44.7359 H   0  0  0  0  0  0  0  0  0  0  0  0
   56.6136   33.5973   45.8576 H   0  0  0  0  0  0  0  0  0  0  0  0
   57.5751   34.1432   47.9388 H   0  0  0  0  0  0  0  0  0  0  0  0
   59.5995   34.0377   49.3899 H   0  0  0  0  0  0  0  0  0  0  0  0
   61.3265   34.7455   50.2662 H   0  0  0  0  0  0  0  0  0  0  0  0
   63.3645   34.5439   51.6860 H   0  0  0  0  0  0  0  0  0  0  0  0
   65.5820   33.3880   51.9970 H   0  0  0  0  0  0  0  0  0  0  0  0
   65.3291   32.2967   48.5566 H   0  0  0  0  0  0  0  0  0  0  0  0
   63.3047   32.5163   47.1193 H   0  0  0  0  0  0  0  0  0  0  0  0
   62.1030   33.7171   45.8660 H   0  0  0  0  0  0  0  0  0  0  0  0
   60.0811   33.8562   44.4205 H   0  0  0  0  0  0  0  0  0  0  0  0
   59.3494   29.0281   43.6486 H   0  0  0  0  0  0  0  0  0  0  0  0
   56.9775   28.6598   45.4885 H   0  0  0  0  0  0  0  0  0  0  0  0
   57.0522   28.7418   43.6498 H   0  0  0  0  0  0  0  0  0  0  0  0
   57.8481   26.5942   42.3062 H   0  0  0  0  0  0  0  0  0  0  0  0
   57.8330   24.0600   42.9190 H   0  0  0  0  0  0  0  0  0  0  0  0
   57.6266   22.5982   45.2227 H   0  0  0  0  0  0  0  0  0  0  0  0
   57.2860   25.0880   48.7802 H   0  0  0  0  0  0  0  0  0  0  0  0
   57.3865   27.1592   47.3463 H   0  0  0  0  0  0  0  0  0  0  0  0
   59.7859   31.1631   46.5989 H   0  0  0  0  0  0  0  0  0  0  0  0
   58.3947   30.3443   47.4211 H   0  0  0  0  0  0  0  0  0  0  0  0
   61.0942   31.1024   48.6288 H   0  0  0  0  0  0  0  0  0  0  0  0
   59.4426   31.7477   49.0404 H   0  0  0  0  0  0  0  0  0  0  0  0
   57.7817   29.9075   50.0987 H   0  0  0  0  0  0  0  0  0  0  0  0
   58.8021   29.2886   51.4852 H   0  0  0  0  0  0  0  0  0  0  0  0
   60.8296   31.7053   51.1971 H   0  0  0  0  0  0  0  0  0  0  0  0
   60.7838   33.9066   52.3642 H   0  0  0  0  0  0  0  0  0  0  0  0
   58.6132   34.8737   53.1301 H   0  0  0  0  0  0  0  0  0  0  0  0
   56.4802   33.6530   52.6918 H   0  0  0  0  0  0  0  0  0  0  0  0
   56.5143   31.4449   51.5322 H   0  0  0  0  0  0  0  0  0  0  0  0
   60.6245   27.8867   50.0798 H   0  0  0  0  0  0  0  0  0  0  0  0
   59.0348   27.9873   49.1996 H   0  0  0  0  0  0  0  0  0  0  0  0
   61.7790   28.7175   48.0753 H   0  0  0  0  0  0  0  0  0  0  0  0
   60.8014   27.2698   47.6617 H   0  0  0  0  0  0  0  0  0  0  0  0
  1  2  2  0
  2  3  1  0
  3  4  1  0
  4  5  1  0
  5  6  2  0
  6  7  1  0
  7  8  2  0
  8  9  1  0
  9 10  2  0
 10 11  1  0
 11 12  2  0
 12 13  1  0
 12 14  1  0
 14 15  2  0
  8 16  1  0
 16 17  2  0
  2 18  1  0
 18 19  1  0
 19 20  1  0
 20 21  1  0
 21 22  2  0
 22 23  1  0
 23 24  1  0
 24 25  2  0
 25 26  1  0
 26 27  1  0
 26 28  2  0
 28 29  1  0
 29 30  2  0
 19 31  1  0
 31 32  2  0
 31 33  1  0
 33 34  1  0
 34 35  1  0
 35 36  1  0
 36 37  1  0
 37 38  1  0
 38 39  2  0
 39 40  1  0
 40 41  2  0
 41 42  1  0
 42 43  2  0
 36 44  1  0
 44 45  1  0
 17  5  1  0
 30 21  1  0
 45 33  1  0
 15  9  1  0
 30 24  1  0
 43 38  1  0
  3 46  1  0
  3 47  1  0
  4 48  1  0
  4 49  1  0
  6 50  1  0
  7 51  1  0
 10 52  1  0
 11 53  1  0
 13 54  1  0
 14 55  1  0
 15 56  1  0
 16 57  1  0
 17 58  1  0
 19 59  1  6
 20 60  1  0
 20 61  1  0
 22 62  1  0
 23 63  1  0
 25 64  1  0
 28 65  1  0
 29 66  1  0
 34 67  1  0
 34 68  1  0
 35 69  1  0
 35 70  1  0
 37 71  1  0
 37 72  1  0
 39 73  1  0
 40 74  1  0
 41 75  1  0
 42 76  1  0
 43 77  1  0
 44 78  1  0
 44 79  1  0
 45 80  1  0
 45 81  1  0
M  CHG  2  18  -1  27  -1
M  END
>  <UniqueID>  (10) 
10

>  <SMILES>  (10) 
O=C(CCc1ccc(-c2ccc(O)cc2)cc1)[N-][C@H](Cc1c[nH]c2cc([O-])ccc12)C(=O)N1CCN(Cc2ccccc2)CC1

>  <Energy>  (10) 
132.11160193578579

>  <Genealogy>  (10) 
O=C(CCc1ccc(-c2ccc(O)cc2)cc1)[N-]C(Cc1c[nH]c2cc([O-])ccc12)C(=O)N1CCN(Cc2ccccc2)CC1 (protonated)
O=C(CCc1ccc(-c2ccc(O)cc2)cc1)[N-][C@H](Cc1c[nH]c2cc([O-])ccc12)C(=O)N1CCN(Cc2ccccc2)CC1 (chirality)
O=C(CCc1ccc(-c2ccc(O)cc2)cc1)[N-][C@H](Cc1c[nH]c2cc([O-])ccc12)C(=O)N1CCN(Cc2ccccc2)CC1 (3D coordinates assigned)
O=C(CCc1ccc(-c2ccc(O)cc2)cc1)[N-][C@H](Cc1c[nH]c2cc([O-])ccc12)C(=O)N1CCN(Cc2ccccc2)CC1 (nonaromatic ring conformer: 132.11160193578579 kcal/mol)

>  <smiles>  (10) 
O=C(CCc1ccc(-c2ccc(O)cc2)cc1)NC(Cc1c[nH]c2cc(O)ccc12)C(=O)N1CCN(Cc2ccccc2)CC1

>  <score_type>  (10) 
oracle

>  <origin>  (10) 
adg

>  <m_score__min__energy>  (10) 
-14.49

>  <m_primary>  (10) 
energy

$$$$
10:0
     RDKit          3D

 30 31  0  0  0  0  0  0  0  0999 V2000
   58.1460   29.9830   46.3410 H   0  0  0  0  0  0  0  0  0  0  0  0
   58.3780   30.7990   46.8960 O   0  0  0  0  0  0  0  0  0  0  0  0
   58.3480   32.0840   46.3590 C   0  0  0  0  0  0  0  0  0  0  0  0
   59.2850   33.0280   46.8020 C   0  0  0  0  0  0  0  0  0  0  0  0
   59.9809   32.7685   47.6134 H   0  0  0  0  0  0  0  0  0  0  0  0
   59.3400   34.2940   46.2200 C   0  0  0  0  0  0  0  0  0  0  0  0
   60.0722   35.0366   46.5700 H   0  0  0  0  0  0  0  0  0  0  0  0
   58.4570   34.6060   45.1910 C   0  0  0  0  0  0  0  0  0  0  0  0
   58.5021   35.5937   44.7089 H   0  0  0  0  0  0  0  0  0  0  0  0
   57.5390   33.6920   44.7810 N   0  0  0  0  0  0  0  0  0  0  0  0
   57.4310   32.4550   45.3390 C   0  0  0  0  0  0  0  0  0  0  0  0
   56.5050   31.6620   44.8710 N   0  0  0  0  0  0  0  0  0  0  0  0
   56.6010   30.2790   44.5030 C   0  0  0  0  0  0  0  0  0  0  0  0
   55.6630   29.4790   44.7620 O   0  0  0  0  0  0  0  0  0  0  0  0
   57.7920   29.8050   43.7400 C   0  0  0  0  0  0  0  0  0  0  0  0
   57.7859   30.2493   42.7338 H   0  0  0  0  0  0  0  0  0  0  0  0
   58.7117   30.1064   44.2627 H   0  0  0  0  0  0  0  0  0  0  0  0
   57.7280   27.9900   43.6060 S   0  0  0  0  0  0  0  0  0  0  0  0
   58.3170   27.7280   45.2850 C   0  0  0  0  0  0  0  0  0  0  0  0
   59.4440   28.3930   45.6590 N   0  0  0  0  0  0  0  0  0  0  0  0
   59.9660   28.2950   46.9070 C   0  0  0  0  0  0  0  0  0  0  0  0
   60.8823   28.8462   47.1649 H   0  0  0  0  0  0  0  0  0  0  0  0
   59.3420   27.4970   47.8610 C   0  0  0  0  0  0  0  0  0  0  0  0
   59.7571   27.4179   48.8766 H   0  0  0  0  0  0  0  0  0  0  0  0
   58.1860   26.7990   47.5170 C   0  0  0  0  0  0  0  0  0  0  0  0
   57.6867   26.1689   48.2678 H   0  0  0  0  0  0  0  0  0  0  0  0
   57.6510   26.8920   46.2190 C   0  0  0  0  0  0  0  0  0  0  0  0
   56.4200   26.1180   45.9000 C   0  0  0  0  0  0  0  0  0  0  0  0
   56.4780   24.9130   45.5420 O   0  0  0  0  0  0  0  0  0  0  0  0
   55.1710   26.7170   46.0200 O   0  0  0  0  0  0  0  0  0  0  0  0
  1  2  1  0
  2  3  1  0
  3  4  2  0
  4  5  1  0
  4  6  1  0
  6  7  1  0
  6  8  2  0
  8  9  1  0
  8 10  1  0
 10 11  1  0
 11 12  2  0
 12 13  1  0
 13 14  2  0
 13 15  1  0
 15 16  1  0
 15 17  1  0
 15 18  1  0
 18 19  1  0
 19 20  2  0
 20 21  1  0
 21 22  1  0
 21 23  2  0
 23 24  1  0
 23 25  1  0
 25 26  1  0
 25 27  2  0
 27 28  1  0
 28 29  2  0
 28 30  1  0
 11  3  1  0
 27 19  1  0
M  CHG  2  10  -1  30  -1
M  END
>  <UniqueID>  (11) 
11

>  <SMILES>  (11) 
O=C(CSc1ncccc1C(=O)[O-])/N=c1/[n-]cccc1O

>  <Energy>  (11) 
42.60648408775636

>  <Genealogy>  (11) 
O=C(CSc1ncccc1C(=O)[O-])N=c1[n-]cccc1O (protonated)
O=C(CSc1ncccc1C(=O)[O-])/N=c1/[n-]cccc1O (cis-trans isomerization)
O=C(CSc1ncccc1C(=O)[O-])/N=c1/[n-]cccc1O (3D coordinates assigned)
O=C(CSc1ncccc1C(=O)[O-])/N=c1/[n-]cccc1O (optimized conformer: 42.60648408775636 kcal/mol)

>  <smiles>  (11) 
O=C(CSc1ncccc1C(=O)O)N=c1[nH]cccc1O

>  <score_type>  (11) 
oracle

>  <origin>  (11) 
adg

>  <m_score__min__energy>  (11) 
-11.06

>  <m_primary>  (11) 
energy

$$$$
11:0
     RDKit          3D

 63 67  0  0  0  0  0  0  0  0999 V2000
   55.1097   22.0298   46.7944 H   0  0  0  0  0  0  0  0  0  0  0  0
   55.3510   22.9240   46.2010 C   0  0  0  0  0  0  0  0  0  0  0  0
   55.1530   24.1850   46.6700 N   0  0  0  0  0  0  0  0  0  0  0  0
   55.5340   25.1170   45.7730 C   0  0  0  0  0  0  0  0  0  0  0  0
   55.4040   26.3910   46.0030 N   0  0  0  0  0  0  0  0  0  0  0  0
   56.3380   27.4180   45.6390 C   0  0  0  0  0  0  0  0  0  0  0  0
   55.8950   28.4830   45.1320 O   0  0  0  0  0  0  0  0  0  0  0  0
   57.7920   27.2900   45.8950 C   0  0  0  0  0  0  0  0  0  0  0  0
   58.4370   26.0470   45.7750 C   0  0  0  0  0  0  0  0  0  0  0  0
   57.8586   25.1547   45.4935 H   0  0  0  0  0  0  0  0  0  0  0  0
   59.8110   25.9400   46.0120 C   0  0  0  0  0  0  0  0  0  0  0  0
   60.3108   24.9653   45.9113 H   0  0  0  0  0  0  0  0  0  0  0  0
   60.5500   27.0670   46.3760 C   0  0  0  0  0  0  0  0  0  0  0  0
   61.6328   26.9816   46.5496 H   0  0  0  0  0  0  0  0  0  0  0  0
   59.9150   28.3040   46.5200 C   0  0  0  0  0  0  0  0  0  0  0  0
   60.8630   29.7500   46.9930 S   0  0  0  0  0  0  0  0  0  0  0  0
   60.1490   29.7900   48.6320 C   0  0  0  0  0  0  0  0  0  0  0  0
   58.5320   30.0990   48.9770 S   0  0  0  0  0  0  0  0  0  0  0  0
   58.7730   29.9600   50.6350 C   0  0  0  0  0  0  0  0  0  0  0  0
   57.8200   30.0920   51.5090 N   0  0  0  0  0  0  0  0  0  0  0  0
   57.8970   30.8460   52.7240 C   0  0  0  0  0  0  0  0  0  0  0  0
   57.6420   30.2670   53.8140 O   0  0  0  0  0  0  0  0  0  0  0  0
   58.0290   32.3480   52.6840 C   0  0  0  0  0  0  0  0  0  0  0  0
   57.0928   32.7761   52.2964 H   0  0  0  0  0  0  0  0  0  0  0  0
   58.2344   32.6972   53.7067 H   0  0  0  0  0  0  0  0  0  0  0  0
   59.1680   32.7940   51.8040 C   0  0  0  0  0  0  0  0  0  0  0  0
   60.4990   32.6160   52.2110 C   0  0  0  0  0  0  0  0  0  0  0  0
   60.7174   32.1650   53.1902 H   0  0  0  0  0  0  0  0  0  0  0  0
   61.5480   33.0100   51.3760 C   0  0  0  0  0  0  0  0  0  0  0  0
   62.5892   32.8587   51.6968 H   0  0  0  0  0  0  0  0  0  0  0  0
   61.2810   33.5950   50.1360 C   0  0  0  0  0  0  0  0  0  0  0  0
   62.1117   33.8817   49.4744 H   0  0  0  0  0  0  0  0  0  0  0  0
   59.9550   33.8180   49.7320 C   0  0  0  0  0  0  0  0  0  0  0  0
   59.6590   34.4420   48.3900 C   0  0  0  0  0  0  0  0  0  0  0  0
   58.6156   34.7900   48.3772 H   0  0  0  0  0  0  0  0  0  0  0  0
   60.3479   35.2855   48.2356 H   0  0  0  0  0  0  0  0  0  0  0  0
   59.8570   33.4640   47.2960 N   0  0  0  0  0  0  0  0  0  0  0  0
   60.3380   34.0900   46.0330 C   0  0  0  0  0  0  0  0  0  0  0  0
   60.6580   35.1181   46.2578 H   0  0  0  0  0  0  0  0  0  0  0  0
   61.1589   33.4595   45.6607 H   0  0  0  0  0  0  0  0  0  0  0  0
   59.2810   34.1470   44.9130 C   0  0  0  0  0  0  0  0  0  0  0  0
   59.5497   34.9454   44.2057 H   0  0  0  0  0  0  0  0  0  0  0  0
   59.2577   33.1719   44.4045 H   0  0  0  0  0  0  0  0  0  0  0  0
   57.8920   34.4310   45.4820 C   0  0  0  0  0  0  0  0  0  0  0  0
   57.9004   35.4179   45.9677 H   0  0  0  0  0  0  0  0  0  0  0  0
   57.1695   34.4066   44.6529 H   0  0  0  0  0  0  0  0  0  0  0  0
   57.4740   33.3700   46.5150 C   0  0  0  0  0  0  0  0  0  0  0  0
   56.9405   33.8711   47.3361 H   0  0  0  0  0  0  0  0  0  0  0  0
   56.8358   32.6392   45.9967 H   0  0  0  0  0  0  0  0  0  0  0  0
   58.6720   32.6000   47.1050 C   0  0  0  0  0  0  0  0  0  0  0  0
   58.3785   32.1821   48.0793 H   0  0  0  0  0  0  0  0  0  0  0  0
   58.9454   31.8073   46.3931 H   0  0  0  0  0  0  0  0  0  0  0  0
   58.9030   33.4100   50.5680 C   0  0  0  0  0  0  0  0  0  0  0  0
   57.8619   33.5738   50.2530 H   0  0  0  0  0  0  0  0  0  0  0  0
   60.0600   29.6620   50.9320 N   0  0  0  0  0  0  0  0  0  0  0  0
   60.4260   29.4750   51.8910 H   0  0  0  0  0  0  0  0  0  0  0  0
   60.8340   29.5700   49.8190 C   0  0  0  0  0  0  0  0  0  0  0  0
   61.9093   29.3412   49.8555 H   0  0  0  0  0  0  0  0  0  0  0  0
   58.5390   28.4150   46.2850 C   0  0  0  0  0  0  0  0  0  0  0  0
   58.0400   29.3878   46.4063 H   0  0  0  0  0  0  0  0  0  0  0  0
   56.1030   24.4120   44.3470 S   0  0  0  0  0  0  0  0  0  0  0  0
   55.8810   22.8460   44.9160 C   0  0  0  0  0  0  0  0  0  0  0  0
   56.1139   21.9208   44.3685 H   0  0  0  0  0  0  0  0  0  0  0  0
  1  2  1  0
  2  3  1  0
  3  4  1  0
  4  5  2  0
  5  6  1  0
  6  7  2  0
  6  8  1  0
  8  9  2  0
  9 10  1  0
  9 11  1  0
 11 12  1  0
 11 13  2  0
 13 14  1  0
 13 15  1  0
 15 16  1  0
 16 17  1  0
 17 18  1  0
 18 19  1  0
 19 20  2  3
 20 21  1  0
 21 22  2  0
 21 23  1  0
 23 24  1  0
 23 25  1  0
 23 26  1  0
 26 27  2  0
 27 28  1  0
 27 29  1  0
 29 30  1  0
 29 31  2  0
 31 32  1  0
 31 33  1  0
 33 34  1  0
 34 35  1  0
 34 36  1  0
 34 37  1  0
 37 38  1  0
 38 39  1  0
 38 40  1  0
 38 41  1  0
 41 42  1  0
 41 43  1  0
 41 44  1  0
 44 45  1  0
 44 46  1  0
 44 47  1  0
 47 48  1  0
 47 49  1  0
 47 50  1  0
 50 51  1  0
 50 52  1  0
 33 53  2  0
 53 54  1  0
 19 55  1  0
 55 56  1  0
 55 57  1  0
 57 58  1  0
 15 59  2  0
 59 60  1  0
  4 61  1  0
 61 62  1  0
 62 63  1  0
 62  2  2  0
 59  8  1  0
 57 17  2  0
 53 26  1  0
 50 37  1  0
M  CHG  1   3  -1
M  END
>  <UniqueID>  (12) 
12

>  <SMILES>  (12) 
O=C(Cc1cccc(CN2CCCCC2)c1)N=c1[nH]cc(Sc2cccc(C(=O)/N=c3/[n-]ccs3)c2)s1

>  <Energy>  (12) 
147.99939845203252

>  <Genealogy>  (12) 
O=C(Cc1cccc(CN2CCCCC2)c1)N=c1[nH]cc(Sc2cccc(C(=O)N=c3[n-]ccs3)c2)s1 (protonated)
O=C(Cc1cccc(CN2CCCCC2)c1)N=c1[nH]cc(Sc2cccc(C(=O)/N=c3/[n-]ccs3)c2)s1 (cis-trans isomerization)
O=C(Cc1cccc(CN2CCCCC2)c1)N=c1[nH]cc(Sc2cccc(C(=O)/N=c3/[n-]ccs3)c2)s1 (3D coordinates assigned)
O=C(Cc1cccc(CN2CCCCC2)c1)N=c1[nH]cc(Sc2cccc(C(=O)/N=c3/[n-]ccs3)c2)s1 (nonaromatic ring conformer: 147.99939845203252 kcal/mol)

>  <smiles>  (12) 
O=C(Cc1cccc(CN2CCCCC2)c1)N=c1[nH]cc(Sc2cccc(C(=O)N=c3[nH]ccs3)c2)s1

>  <score_type>  (12) 
oracle

>  <origin>  (12) 
adg

>  <m_score__min__energy>  (12) 
-11.470000000000001

>  <m_primary>  (12) 
energy

$$$$
12:0
     RDKit          3D

 45 48  0  0  0  0  0  0  0  0999 V2000
   59.6280   35.6710   45.6680 C   0  0  0  0  0  0  0  0  0  0  0  0
   59.7400   34.1990   45.2810 C   0  0  0  0  0  0  0  0  0  0  0  0
   60.4910   33.4110   46.3290 C   0  0  0  0  0  0  0  0  0  0  0  0
   61.6680   33.8480   46.6850 N   0  0  0  0  0  0  0  0  0  0  0  0
   62.4740   33.1170   47.6010 C   0  0  0  0  0  0  0  0  0  0  0  0
   63.7250   33.4470   47.9640 N   0  0  0  0  0  0  0  0  0  0  0  0
   64.0020   32.4710   48.8660 C   0  0  0  0  0  0  0  0  0  0  0  0
   62.9730   31.6120   49.0450 N   0  0  0  0  0  0  0  0  0  0  0  0
   62.0280   32.0350   48.2310 N   0  0  0  0  0  0  0  0  0  0  0  0
   60.6740   31.5010   48.1090 C   0  0  1  0  0  0  0  0  0  0  0  0
   59.8910   31.7690   49.3920 C   0  0  0  0  0  0  0  0  0  0  0  0
   60.2360   32.8870   50.1780 C   0  0  0  0  0  0  0  0  0  0  0  0
   59.5690   33.1510   51.3760 C   0  0  0  0  0  0  0  0  0  0  0  0
   58.5500   32.3050   51.8100 C   0  0  0  0  0  0  0  0  0  0  0  0
   58.1910   31.1960   51.0450 C   0  0  0  0  0  0  0  0  0  0  0  0
   58.8530   30.9190   49.8390 C   0  0  0  0  0  0  0  0  0  0  0  0
   58.4860   29.7960   49.1020 O   0  0  0  0  0  0  0  0  0  0  0  0
   59.9880   32.0330   46.7960 C   0  0  1  0  0  0  0  0  0  0  0  0
   58.4810   31.9580   46.8860 C   0  0  0  0  0  0  0  0  0  0  0  0
   57.8500   32.8440   47.5230 O   0  0  0  0  0  0  0  0  0  0  0  0
   57.7810   30.8700   46.2690 N   0  0  0  0  0  0  0  0  0  0  0  0
   57.3990   30.7680   44.8910 C   0  0  0  0  0  0  0  0  0  0  0  0
   57.8810   31.7320   43.9960 C   0  0  0  0  0  0  0  0  0  0  0  0
   57.5130   31.6960   42.6480 C   0  0  0  0  0  0  0  0  0  0  0  0
   56.6430   30.7050   42.1870 C   0  0  0  0  0  0  0  0  0  0  0  0
   56.1320   29.7570   43.0760 C   0  0  0  0  0  0  0  0  0  0  0  0
   56.4970   29.7870   44.4260 C   0  0  0  0  0  0  0  0  0  0  0  0
   55.9250   28.8980   45.2740 F   0  0  0  0  0  0  0  0  0  0  0  0
   59.6210   35.7624   46.7642 H   0  0  0  0  0  0  0  0  0  0  0  0
   60.4867   36.2239   45.2594 H   0  0  0  0  0  0  0  0  0  0  0  0
   58.6956   36.0876   45.2594 H   0  0  0  0  0  0  0  0  0  0  0  0
   58.7291   33.7790   45.1731 H   0  0  0  0  0  0  0  0  0  0  0  0
   60.2933   34.1306   44.3327 H   0  0  0  0  0  0  0  0  0  0  0  0
   64.9625   32.3876   49.3956 H   0  0  0  0  0  0  0  0  0  0  0  0
   60.7010   30.4070   47.9974 H   0  0  0  0  0  0  0  0  0  0  0  0
   61.0400   33.5593   49.8438 H   0  0  0  0  0  0  0  0  0  0  0  0
   59.8483   34.0281   51.9782 H   0  0  0  0  0  0  0  0  0  0  0  0
   58.0289   32.5123   52.7563 H   0  0  0  0  0  0  0  0  0  0  0  0
   57.3832   30.5335   51.3892 H   0  0  0  0  0  0  0  0  0  0  0  0
   58.2180   29.8630   48.1270 H   0  0  0  0  0  0  0  0  0  0  0  0
   60.3052   31.3464   45.9973 H   0  0  0  0  0  0  0  0  0  0  0  0
   58.5543   32.5234   44.3569 H   0  0  0  0  0  0  0  0  0  0  0  0
   57.9086   32.4484   41.9499 H   0  0  0  0  0  0  0  0  0  0  0  0
   56.3606   30.6714   41.1244 H   0  0  0  0  0  0  0  0  0  0  0  0
   55.4394   28.9833   42.7131 H   0  0  0  0  0  0  0  0  0  0  0  0
  1  2  1  0
  2  3  1  0
  3  4  2  0
  4  5  1  0
  5  6  2  0
  6  7  1  0
  7  8  2  0
  8  9  1  0
  9 10  1  0
 10 11  1  0
 11 12  2  0
 12 13  1  0
 13 14  2  0
 14 15  1  0
 15 16  2  0
 16 17  1  0
 10 18  1  0
 18 19  1  0
 19 20  2  0
 19 21  1  0
 21 22  1  0
 22 23  2  0
 23 24  1  0
 24 25  2  0
 25 26  1  0
 26 27  2  0
 27 28  1  0
 18  3  1  0
 27 22  1  0
  9  5  1  0
 16 11  1  0
  1 29  1  0
  1 30  1  0
  1 31  1  0
  2 32  1  0
  2 33  1  0
  7 34  1  0
 10 35  1  6
 12 36  1  0
 13 37  1  0
 14 38  1  0
 15 39  1  0
 17 40  1  0
 18 41  1  6
 23 42  1  0
 24 43  1  0
 25 44  1  0
 26 45  1  0
M  CHG  1  21  -1
M  END
>  <UniqueID>  (13) 
13

>  <SMILES>  (13) 
CCC1=Nc2ncnn2[C@@H](c2ccccc2O)[C@H]1C(=O)[N-]c1ccccc1F

>  <Energy>  (13) 
91.2595608235225

>  <Genealogy>  (13) 
CCC1=Nc2ncnn2C(c2ccccc2O)C1C(=O)[N-]c1ccccc1F (protonated)
CCC1=Nc2ncnn2[C@@H](c2ccccc2O)[C@H]1C(=O)[N-]c1ccccc1F (chirality)
CCC1=Nc2ncnn2[C@@H](c2ccccc2O)[C@H]1C(=O)[N-]c1ccccc1F (3D coordinates assigned)
CCC1=Nc2ncnn2[C@@H](c2ccccc2O)[C@H]1C(=O)[N-]c1ccccc1F (nonaromatic ring conformer: 91.2595608235225 kcal/mol)

>  <smiles>  (13) 
CCC1=Nc2ncnn2C(c2ccccc2O)C1C(=O)Nc1ccccc1F

>  <score_type>  (13) 
oracle

>  <origin>  (13) 
adg

>  <m_score__min__energy>  (13) 
-9.5199999999999996

>  <m_primary>  (13) 
energy

$$$$
13:0
     RDKit          3D

 41 44  0  0  0  0  0  0  0  0999 V2000
   58.8673   26.7138   47.3468 H   0  0  0  0  0  0  0  0  0  0  0  0
   58.1240   26.9530   46.5720 C   0  0  0  0  0  0  0  0  0  0  0  0
   58.2370   28.1170   45.9170 C   0  0  0  0  0  0  0  0  0  0  0  0
   58.0290   28.3060   44.1350 S   0  0  0  0  0  0  0  0  0  0  0  0
   58.2990   30.0680   44.3550 C   0  0  0  0  0  0  0  0  0  0  0  0
   58.3790   30.8510   43.3730 O   0  0  0  0  0  0  0  0  0  0  0  0
   58.4810   30.5120   45.7000 N   0  0  0  0  0  0  0  0  0  0  0  0
   58.6900   31.8780   46.0960 C   0  0  0  0  0  0  0  0  0  0  0  0
   57.7730   32.8750   45.7200 C   0  0  0  0  0  0  0  0  0  0  0  0
   56.8911   32.6085   45.1190 H   0  0  0  0  0  0  0  0  0  0  0  0
   57.9760   34.2040   46.1060 C   0  0  0  0  0  0  0  0  0  0  0  0
   57.2534   34.9786   45.8096 H   0  0  0  0  0  0  0  0  0  0  0  0
   59.0960   34.5490   46.8680 C   0  0  0  0  0  0  0  0  0  0  0  0
   59.2544   35.5946   47.1707 H   0  0  0  0  0  0  0  0  0  0  0  0
   60.0140   33.5660   47.2450 C   0  0  0  0  0  0  0  0  0  0  0  0
   60.8955   33.8385   47.8440 H   0  0  0  0  0  0  0  0  0  0  0  0
   59.8140   32.2360   46.8620 C   0  0  0  0  0  0  0  0  0  0  0  0
   60.5397   31.4655   47.1615 H   0  0  0  0  0  0  0  0  0  0  0  0
   58.4430   29.4000   46.5870 C   0  0  0  0  0  0  0  0  0  0  0  0
   58.5420   29.5240   47.8390 O   0  0  0  0  0  0  0  0  0  0  0  0
   57.0480   25.9750   46.3030 C   0  0  0  0  0  0  0  0  0  0  0  0
   55.7900   26.3840   45.8440 C   0  0  0  0  0  0  0  0  0  0  0  0
   55.5210   27.7310   45.6170 O   0  0  0  0  0  0  0  0  0  0  0  0
   54.8270   25.4610   45.5950 N   0  0  0  0  0  0  0  0  0  0  0  0
   53.8910   25.7810   45.2580 H   0  0  0  0  0  0  0  0  0  0  0  0
   55.0630   24.1320   45.7570 C   0  0  0  0  0  0  0  0  0  0  0  0
   54.1430   23.3070   45.4980 O   0  0  0  0  0  0  0  0  0  0  0  0
   56.2930   23.6940   46.1790 N   0  0  0  0  0  0  0  0  0  0  0  0
   56.5390   22.2820   46.3400 C   0  0  0  0  0  0  0  0  0  0  0  0
   57.0230   21.5180   45.2640 C   0  0  0  0  0  0  0  0  0  0  0  0
   57.2161   21.9990   44.2938 H   0  0  0  0  0  0  0  0  0  0  0  0
   57.2600   20.1490   45.4220 C   0  0  0  0  0  0  0  0  0  0  0  0
   57.6393   19.5556   44.5770 H   0  0  0  0  0  0  0  0  0  0  0  0
   57.0150   19.5340   46.6540 C   0  0  0  0  0  0  0  0  0  0  0  0
   57.2011   18.4569   46.7774 H   0  0  0  0  0  0  0  0  0  0  0  0
   56.5340   20.2870   47.7280 C   0  0  0  0  0  0  0  0  0  0  0  0
   56.3422   19.8019   48.6964 H   0  0  0  0  0  0  0  0  0  0  0  0
   56.2960   21.6560   47.5740 C   0  0  0  0  0  0  0  0  0  0  0  0
   55.9171   22.2452   48.4221 H   0  0  0  0  0  0  0  0  0  0  0  0
   57.2870   24.6000   46.4490 C   0  0  0  0  0  0  0  0  0  0  0  0
   58.4170   24.2030   46.8490 O   0  0  0  0  0  0  0  0  0  0  0  0
  1  2  1  0
  2  3  2  0
  3  4  1  0
  4  5  1  0
  5  6  2  0
  5  7  1  0
  7  8  1  0
  8  9  2  0
  9 10  1  0
  9 11  1  0
 11 12  1  0
 11 13  2  0
 13 14  1  0
 13 15  1  0
 15 16  1  0
 15 17  2  0
 17 18  1  0
  7 19  1  0
 19 20  2  0
  2 21  1  0
 21 22  2  0
 22 23  1  0
 22 24  1  0
 24 25  1  0
 24 26  1  0
 26 27  2  0
 26 28  1  0
 28 29  1  0
 29 30  2  0
 30 31  1  0
 30 32  1  0
 32 33  1  0
 32 34  2  0
 34 35  1  0
 34 36  1  0
 36 37  1  0
 36 38  2  0
 38 39  1  0
 28 40  1  0
 40 41  2  0
 19  3  1  0
 40 21  1  0
 17  8  1  0
 38 29  1  0
M  CHG  1  23  -1
M  END
>  <UniqueID>  (14) 
14

>  <SMILES>  (14) 
O=C1S/C(=C\c2c([O-])[nH]c(=O)n(-c3ccccc3)c2=O)C(=O)N1c1ccccc1

>  <Energy>  (14) 
89.42018087162113

>  <Genealogy>  (14) 
O=C1SC(=Cc2c([O-])[nH]c(=O)n(-c3ccccc3)c2=O)C(=O)N1c1ccccc1 (protonated)
O=C1S/C(=C\c2c([O-])[nH]c(=O)n(-c3ccccc3)c2=O)C(=O)N1c1ccccc1 (cis-trans isomerization)
O=C1S/C(=C\c2c([O-])[nH]c(=O)n(-c3ccccc3)c2=O)C(=O)N1c1ccccc1 (3D coordinates assigned)
O=C1S/C(=C\c2c([O-])[nH]c(=O)n(-c3ccccc3)c2=O)C(=O)N1c1ccccc1 (nonaromatic ring conformer: 89.42018087162113 kcal/mol)

>  <smiles>  (14) 
O=C1SC(=Cc2c(O)[nH]c(=O)n(-c3ccccc3)c2=O)C(=O)N1c1ccccc1

>  <score_type>  (14) 
oracle

>  <origin>  (14) 
adg

>  <m_score__min__energy>  (14) 
-10.98

>  <m_primary>  (14) 
energy

$$$$
14:0
     RDKit          3D

 53 56  0  0  0  0  0  0  0  0999 V2000
   56.5710   29.4530   43.3060 C   0  0  0  0  0  0  0  0  0  0  0  0
   57.3610   30.2620   44.2830 C   0  0  0  0  0  0  0  0  0  0  0  0
   56.9040   31.3920   44.8590 N   0  0  0  0  0  0  0  0  0  0  0  0
   57.8390   31.8230   45.6940 N   0  0  0  0  0  0  0  0  0  0  0  0
   57.6890   33.0140   46.5240 C   0  0  0  0  0  0  0  0  0  0  0  0
   58.9040   30.9950   45.6570 C   0  0  0  0  0  0  0  0  0  0  0  0
   60.1050   31.0990   46.5480 C   0  0  0  0  0  0  0  0  0  0  0  0
   58.6240   29.9630   44.7760 C   0  0  0  0  0  0  0  0  0  0  0  0
   59.4710   28.7620   44.4810 C   0  0  0  0  0  0  0  0  0  0  0  0
   58.9980   27.6350   45.2710 N   0  0  0  0  0  0  0  0  0  0  0  0
   58.2810   27.7830   46.5000 C   0  0  0  0  0  0  0  0  0  0  0  0
   57.0250   27.6600   46.5100 O   0  0  0  0  0  0  0  0  0  0  0  0
   59.0130   28.0740   47.7540 C   0  0  0  0  0  0  0  0  0  0  0  0
   60.1970   27.3800   48.0670 C   0  0  0  0  0  0  0  0  0  0  0  0
   60.8890   27.6560   49.2470 C   0  0  0  0  0  0  0  0  0  0  0  0
   60.4150   28.6340   50.1260 C   0  0  0  0  0  0  0  0  0  0  0  0
   59.2550   29.3540   49.8240 C   0  0  0  0  0  0  0  0  0  0  0  0
   58.8050   30.3180   50.7400 O   0  0  0  0  0  0  0  0  0  0  0  0
   57.8650   30.0970   51.7580 C   0  0  0  0  0  0  0  0  0  0  0  0
   58.2960   29.5240   52.9560 C   0  0  0  0  0  0  0  0  0  0  0  0
   57.3770   29.2950   53.9800 C   0  0  0  0  0  0  0  0  0  0  0  0
   56.0750   29.6450   53.8170 N   0  0  0  0  0  0  0  0  0  0  0  0
   55.6190   30.2320   52.6750 C   0  0  0  0  0  0  0  0  0  0  0  0
   54.1880   30.5840   52.5770 C   0  0  0  0  0  0  0  0  0  0  0  0
   53.6300   31.5680   51.7770 C   0  0  0  0  0  0  0  0  0  0  0  0
   52.2730   31.5040   51.9960 C   0  0  0  0  0  0  0  0  0  0  0  0
   51.2480   32.3370   51.3540 C   0  0  0  0  0  0  0  0  0  0  0  0
   50.2370   32.7140   52.0010 O   0  0  0  0  0  0  0  0  0  0  0  0
   51.3880   32.7130   50.0240 O   0  0  0  0  0  0  0  0  0  0  0  0
   52.0620   30.4990   52.9160 C   0  0  0  0  0  0  0  0  0  0  0  0
   53.2320   29.9350   53.2750 N   0  0  0  0  0  0  0  0  0  0  0  0
   56.5190   30.4740   51.6230 C   0  0  0  0  0  0  0  0  0  0  0  0
   58.5470   29.0590   48.6450 C   0  0  0  0  0  0  0  0  0  0  0  0
   55.9034   28.7694   43.8510 H   0  0  0  0  0  0  0  0  0  0  0  0
   55.9714   30.1245   42.6739 H   0  0  0  0  0  0  0  0  0  0  0  0
   57.2566   28.8696   42.6739 H   0  0  0  0  0  0  0  0  0  0  0  0
   57.7250   32.7280   47.5856 H   0  0  0  0  0  0  0  0  0  0  0  0
   58.5056   33.7181   46.3060 H   0  0  0  0  0  0  0  0  0  0  0  0
   56.7234   33.4936   46.3060 H   0  0  0  0  0  0  0  0  0  0  0  0
   59.7846   31.0713   47.5999 H   0  0  0  0  0  0  0  0  0  0  0  0
   60.7833   30.2562   46.3489 H   0  0  0  0  0  0  0  0  0  0  0  0
   60.6283   32.0458   46.3489 H   0  0  0  0  0  0  0  0  0  0  0  0
   59.4005   28.5163   43.4111 H   0  0  0  0  0  0  0  0  0  0  0  0
   60.5188   28.9778   44.7369 H   0  0  0  0  0  0  0  0  0  0  0  0
   60.5797   26.6143   47.3762 H   0  0  0  0  0  0  0  0  0  0  0  0
   61.8093   27.1028   49.4859 H   0  0  0  0  0  0  0  0  0  0  0  0
   60.9577   28.8384   51.0607 H   0  0  0  0  0  0  0  0  0  0  0  0
   59.3539   29.2548   53.0915 H   0  0  0  0  0  0  0  0  0  0  0  0
   57.7073   28.8303   54.9207 H   0  0  0  0  0  0  0  0  0  0  0  0
   54.1619   32.2580   51.1054 H   0  0  0  0  0  0  0  0  0  0  0  0
   51.0767   30.1996   53.3027 H   0  0  0  0  0  0  0  0  0  0  0  0
   56.1706   30.9566   50.6979 H   0  0  0  0  0  0  0  0  0  0  0  0
   57.6191   29.6039   48.4168 H   0  0  0  0  0  0  0  0  0  0  0  0
  1  2  1  0
  2  3  2  0
  3  4  1  0
  4  5  1  0
  4  6  1  0
  6  7  1  0
  6  8  2  0
  8  9  1  0
  9 10  1  0
 10 11  1  0
 11 12  2  0
 11 13  1  0
 13 14  2  0
 14 15  1  0
 15 16  2  0
 16 17  1  0
 17 18  1  0
 18 19  1  0
 19 20  2  0
 20 21  1  0
 21 22  2  0
 22 23  1  0
 23 24  1  0
 24 25  2  0
 25 26  1  0
 26 27  1  0
 27 28  2  0
 27 29  1  0
 26 30  2  0
 30 31  1  0
 23 32  2  0
 17 33  2  0
  8  2  1  0
 33 13  1  0
 32 19  1  0
 31 24  1  0
  1 34  1  0
  1 35  1  0
  1 36  1  0
  5 37  1  0
  5 38  1  0
  5 39  1  0
  7 40  1  0
  7 41  1  0
  7 42  1  0
  9 43  1  0
  9 44  1  0
 14 45  1  0
 15 46  1  0
 16 47  1  0
 20 48  1  0
 21 49  1  0
 25 50  1  0
 30 51  1  0
 32 52  1  0
 33 53  1  0
M  CHG  3  10  -1  29  -1  31  -1
M  END
>  <UniqueID>  (15) 
15

>  <SMILES>  (15) 
Cc1nn(C)c(C)c1C[N-]C(=O)c1cccc(Oc2ccnc(-c3cc(C(=O)[O-])c[n-]3)c2)c1

>  <Energy>  (15) 
110.74891372284543

>  <Genealogy>  (15) 
Cc1nn(C)c(C)c1C[N-]C(=O)c1cccc(Oc2ccnc(-c3cc(C(=O)[O-])c[n-]3)c2)c1 (protonated)
Cc1nn(C)c(C)c1C[N-]C(=O)c1cccc(Oc2ccnc(-c3cc(C(=O)[O-])c[n-]3)c2)c1 (3D coordinates assigned)
Cc1nn(C)c(C)c1C[N-]C(=O)c1cccc(Oc2ccnc(-c3cc(C(=O)[O-])c[n-]3)c2)c1 (optimized conformer: 110.74891372284543 kcal/mol)

>  <smiles>  (15) 
Cc1nn(C)c(C)c1CNC(=O)c1cccc(Oc2ccnc(-c3cc(C(=O)O)c[nH]3)c2)c1

>  <score_type>  (15) 
oracle

>  <origin>  (15) 
adg

>  <m_score__min__energy>  (15) 
-14.619999999999999

>  <m_primary>  (15) 
energy

$$$$
15:0
     RDKit          3D

 28 30  0  0  0  0  0  0  0  0999 V2000
   55.3960   28.2120   53.5320 O   0  0  0  0  0  0  0  0  0  0  0  0
   55.4510   29.1730   52.7210 C   0  0  0  0  0  0  0  0  0  0  0  0
   54.2730   30.0970   52.6110 C   0  0  0  0  0  0  0  0  0  0  0  0
   52.7320   29.1290   52.4940 S   0  0  0  0  0  0  0  0  0  0  0  0
   51.9810   30.2480   51.3090 C   0  0  0  0  0  0  0  0  0  0  0  0
   51.8070   29.8490   50.0220 N   0  0  0  0  0  0  0  0  0  0  0  0
   51.2520   30.6570   49.1190 N   0  0  0  0  0  0  0  0  0  0  0  0
   50.8460   31.9070   49.4620 C   0  0  0  0  0  0  0  0  0  0  0  0
   50.3240   32.6610   48.6000 O   0  0  0  0  0  0  0  0  0  0  0  0
   51.0060   32.3400   50.7370 N   0  0  0  0  0  0  0  0  0  0  0  0
   51.5690   31.5340   51.6730 C   0  0  0  0  0  0  0  0  0  0  0  0
   51.7130   31.9500   52.8520 O   0  0  0  0  0  0  0  0  0  0  0  0
   56.6710   29.4010   52.0030 N   0  0  0  0  0  0  0  0  0  0  0  0
   57.3100   30.6670   51.7870 C   0  0  0  0  0  0  0  0  0  0  0  0
   57.1910   31.6700   52.7790 C   0  0  0  0  0  0  0  0  0  0  0  0
   57.8200   32.9190   52.6180 C   0  0  0  0  0  0  0  0  0  0  0  0
   58.5730   33.1200   51.4650 C   0  0  0  0  0  0  0  0  0  0  0  0
   59.2590   34.2170   51.1130 N   0  0  0  0  0  0  0  0  0  0  0  0
   59.8020   33.8430   49.9270 C   0  0  0  0  0  0  0  0  0  0  0  0
   60.5370   34.6100   49.2510 O   0  0  0  0  0  0  0  0  0  0  0  0
   59.5000   32.5840   49.5210 N   0  0  0  0  0  0  0  0  0  0  0  0
   58.7150   32.1500   50.5190 C   0  0  0  0  0  0  0  0  0  0  0  0
   58.1090   30.9030   50.6450 C   0  0  0  0  0  0  0  0  0  0  0  0
   54.2315   30.7422   53.5009 H   0  0  0  0  0  0  0  0  0  0  0  0
   54.3813   30.7151   51.7076 H   0  0  0  0  0  0  0  0  0  0  0  0
   56.6005   31.4711   53.6855 H   0  0  0  0  0  0  0  0  0  0  0  0
   57.7198   33.7087   53.3772 H   0  0  0  0  0  0  0  0  0  0  0  0
   58.2477   30.1253   49.8795 H   0  0  0  0  0  0  0  0  0  0  0  0
  1  2  2  0
  2  3  1  0
  3  4  1  0
  4  5  1  0
  5  6  2  0
  6  7  1  0
  7  8  1  0
  8  9  2  0
  8 10  1  0
 10 11  1  0
 11 12  2  0
  2 13  1  0
 13 14  1  0
 14 15  2  0
 15 16  1  0
 16 17  2  0
 17 18  1  0
 18 19  1  0
 19 20  2  0
 19 21  1  0
 21 22  1  0
 22 23  2  0
 11  5  1  0
 23 14  1  0
 22 17  1  0
  3 24  1  0
  3 25  1  0
 15 26  1  0
 16 27  1  0
 23 28  1  0
M  CHG  5   7  -1  10  -1  13  -1  18  -1  21  -1
M  END
>  <UniqueID>  (16) 
16

>  <SMILES>  (16) 
O=C(CSc1n[n-]c(=O)[n-]c1=O)[N-]c1ccc2[n-]c(=O)[n-]c2c1

>  <Energy>  (16) 
68.40453906042929

>  <Genealogy>  (16) 
O=C(CSc1n[n-]c(=O)[n-]c1=O)[N-]c1ccc2[n-]c(=O)[n-]c2c1 (protonated)
O=C(CSc1n[n-]c(=O)[n-]c1=O)[N-]c1ccc2[n-]c(=O)[n-]c2c1 (3D coordinates assigned)
O=C(CSc1n[n-]c(=O)[n-]c1=O)[N-]c1ccc2[n-]c(=O)[n-]c2c1 (optimized conformer: 68.40453906042929 kcal/mol)

>  <smiles>  (16) 
O=C(CSc1n[nH]c(=O)[nH]c1=O)Nc1ccc2[nH]c(=O)[nH]c2c1

>  <score_type>  (16) 
oracle

>  <origin>  (16) 
adg

>  <m_score__min__energy>  (16) 
-14.699999999999999

>  <m_primary>  (16) 
energy

$$$$
16:0
     RDKit          3D

 54 57  0  0  0  0  0  0  0  0999 V2000
   60.5850   26.5550   50.5910 H   0  0  0  0  0  0  0  0  0  0  0  0
   60.3860   26.3390   49.6230 O   0  0  0  0  0  0  0  0  0  0  0  0
   60.0790   27.3350   48.6990 C   0  0  0  0  0  0  0  0  0  0  0  0
   60.2150   28.7060   48.8560 C   0  0  0  0  0  0  0  0  0  0  0  0
   60.6710   29.4170   50.0720 C   0  0  0  0  0  0  0  0  0  0  0  0
   60.5740   28.8450   51.1910 O   0  0  0  0  0  0  0  0  0  0  0  0
   61.2050   30.7950   50.0100 C   0  0  0  0  0  0  0  0  0  0  0  0
   60.4940   31.8540   50.5990 C   0  0  0  0  0  0  0  0  0  0  0  0
   59.5619   31.6493   51.1460 H   0  0  0  0  0  0  0  0  0  0  0  0
   60.9640   33.1660   50.4940 C   0  0  0  0  0  0  0  0  0  0  0  0
   60.3986   33.9885   50.9564 H   0  0  0  0  0  0  0  0  0  0  0  0
   62.1530   33.4390   49.8020 C   0  0  0  0  0  0  0  0  0  0  0  0
   62.6650   34.8460   49.7110 C   0  0  0  0  0  0  0  0  0  0  0  0
   62.8117   35.2490   50.7239 H   0  0  0  0  0  0  0  0  0  0  0  0
   63.6234   34.8532   49.1712 H   0  0  0  0  0  0  0  0  0  0  0  0
   61.9354   35.4675   49.1712 H   0  0  0  0  0  0  0  0  0  0  0  0
   62.8890   32.3790   49.2520 C   0  0  0  0  0  0  0  0  0  0  0  0
   63.8394   32.5811   48.7363 H   0  0  0  0  0  0  0  0  0  0  0  0
   62.4190   31.0670   49.3570 C   0  0  0  0  0  0  0  0  0  0  0  0
   63.0037   30.2413   48.9253 H   0  0  0  0  0  0  0  0  0  0  0  0
   59.7830   29.2710   47.6540 C   0  0  0  0  0  0  0  0  0  0  0  0
   59.6340   30.7180   47.3950 C   0  0  0  0  0  0  0  0  0  0  0  0
   60.5950   31.4050   46.6380 C   0  0  0  0  0  0  0  0  0  0  0  0
   61.4353   30.8549   46.1894 H   0  0  0  0  0  0  0  0  0  0  0  0
   60.4880   32.7870   46.4520 C   0  0  0  0  0  0  0  0  0  0  0  0
   61.2399   33.3179   45.8497 H   0  0  0  0  0  0  0  0  0  0  0  0
   59.4260   33.5000   47.0300 C   0  0  0  0  0  0  0  0  0  0  0  0
   59.2960   34.9760   46.8030 C   0  0  0  0  0  0  0  0  0  0  0  0
   59.2504   35.4935   47.7726 H   0  0  0  0  0  0  0  0  0  0  0  0
   60.1658   35.3376   46.2349 H   0  0  0  0  0  0  0  0  0  0  0  0
   58.3764   35.1800   46.2349 H   0  0  0  0  0  0  0  0  0  0  0  0
   58.4560   32.8090   47.7700 C   0  0  0  0  0  0  0  0  0  0  0  0
   57.6058   33.3561   48.2033 H   0  0  0  0  0  0  0  0  0  0  0  0
   58.5640   31.4280   47.9600 C   0  0  0  0  0  0  0  0  0  0  0  0
   57.8069   30.8961   48.5549 H   0  0  0  0  0  0  0  0  0  0  0  0
   59.4110   28.2930   46.7870 N   0  0  0  0  0  0  0  0  0  0  0  0
   58.7670   28.4490   45.4780 C   0  0  0  0  0  0  0  0  0  0  0  0
   59.0778   29.4066   45.0348 H   0  0  0  0  0  0  0  0  0  0  0  0
   59.0719   27.6121   44.8325 H   0  0  0  0  0  0  0  0  0  0  0  0
   57.2750   28.4320   45.6150 C   0  0  0  0  0  0  0  0  0  0  0  0
   56.7070   27.3830   46.0200 O   0  0  0  0  0  0  0  0  0  0  0  0
   56.5130   29.5910   45.2320 N   0  0  0  0  0  0  0  0  0  0  0  0
   56.9220   30.5940   44.5100 C   0  0  0  0  0  0  0  0  0  0  0  0
   57.3090   31.7720   45.0830 N   0  0  0  0  0  0  0  0  0  0  0  0
   57.7330   32.8300   44.3410 C   0  0  0  0  0  0  0  0  0  0  0  0
   58.0349   33.7642   44.8371 H   0  0  0  0  0  0  0  0  0  0  0  0
   57.7850   32.7300   42.9490 C   0  0  0  0  0  0  0  0  0  0  0  0
   58.1279   33.5812   42.3425 H   0  0  0  0  0  0  0  0  0  0  0  0
   57.3960   31.5350   42.3350 C   0  0  0  0  0  0  0  0  0  0  0  0
   57.4320   31.4410   41.2396 H   0  0  0  0  0  0  0  0  0  0  0  0
   56.9620   30.4620   43.1150 C   0  0  0  0  0  0  0  0  0  0  0  0
   56.6536   29.5197   42.6386 H   0  0  0  0  0  0  0  0  0  0  0  0
   59.5840   27.1220   47.4340 C   0  0  0  0  0  0  0  0  0  0  0  0
   59.2790   25.8770   46.8960 O   0  0  0  0  0  0  0  0  0  0  0  0
  1  2  1  0
  2  3  1  0
  3  4  1  0
  4  5  1  0
  5  6  2  0
  5  7  1  0
  7  8  2  0
  8  9  1  0
  8 10  1  0
 10 11  1  0
 10 12  2  0
 12 13  1  0
 13 14  1  0
 13 15  1  0
 13 16  1  0
 12 17  1  0
 17 18  1  0
 17 19  2  0
 19 20  1  0
  4 21  2  0
 21 22  1  0
 22 23  2  0
 23 24  1  0
 23 25  1  0
 25 26  1  0
 25 27  2  0
 27 28  1  0
 28 29  1  0
 28 30  1  0
 28 31  1  0
 27 32  1  0
 32 33  1  0
 32 34  2  0
 34 35  1  0
 21 36  1  0
 36 37  1  0
 37 38  1  0
 37 39  1  0
 37 40  1  0
 40 41  2  0
 40 42  1  0
 42 43  2  0
 43 44  1  0
 44 45  1  0
 45 46  1  0
 45 47  2  0
 47 48  1  0
 47 49  1  0
 49 50  1  0
 49 51  2  0
 51 52  1  0
 36 53  1  0
 53 54  1  0
 53  3  2  0
 19  7  1  0
 34 22  1  0
 51 43  1  0
M  CHG  2  44  -1  54  -1
M  END
>  <UniqueID>  (17) 
17

>  <SMILES>  (17) 
Cc1ccc(C(=O)c2c(O)c([O-])n(CC(=O)/N=c3/cccc[n-]3)c2-c2ccc(C)cc2)cc1

>  <Energy>  (17) 
95.88101516927964

>  <Genealogy>  (17) 
Cc1ccc(C(=O)c2c(O)c([O-])n(CC(=O)N=c3cccc[n-]3)c2-c2ccc(C)cc2)cc1 (protonated)
Cc1ccc(C(=O)c2c(O)c([O-])n(CC(=O)/N=c3/cccc[n-]3)c2-c2ccc(C)cc2)cc1 (cis-trans isomerization)
Cc1ccc(C(=O)c2c(O)c([O-])n(CC(=O)/N=c3/cccc[n-]3)c2-c2ccc(C)cc2)cc1 (3D coordinates assigned)
Cc1ccc(C(=O)c2c(O)c([O-])n(CC(=O)/N=c3/cccc[n-]3)c2-c2ccc(C)cc2)cc1 (optimized conformer: 95.88101516927964 kcal/mol)

>  <smiles>  (17) 
Cc1ccc(C(=O)c2c(O)c(O)n(CC(=O)N=c3cccc[nH]3)c2-c2ccc(C)cc2)cc1

>  <score_type>  (17) 
oracle

>  <origin>  (17) 
adg

>  <m_score__min__energy>  (17) 
-12.140000000000001

>  <m_primary>  (17) 
energy

$$$$
17:0
     RDKit          3D

 48 51  0  0  0  0  0  0  0  0999 V2000
   54.4250   29.3430   45.3020 H   0  0  0  0  0  0  0  0  0  0  0  0
   55.3000   29.0140   44.8390 N   0  0  0  0  0  0  0  0  0  0  0  0
   56.1130   29.9120   44.0860 C   0  0  0  0  0  0  0  0  0  0  0  0
   55.9380   30.0160   42.8430 O   0  0  0  0  0  0  0  0  0  0  0  0
   57.0820   30.7910   44.7630 C   0  0  0  0  0  0  0  0  0  0  0  0
   56.6660   32.0580   45.0340 N   0  0  0  0  0  0  0  0  0  0  0  0
   57.3740   32.9000   45.8240 C   0  0  0  0  0  0  0  0  0  0  0  0
   57.0205   33.9270   45.9983 H   0  0  0  0  0  0  0  0  0  0  0  0
   58.5590   32.4510   46.4160 C   0  0  0  0  0  0  0  0  0  0  0  0
   59.2990   33.2450   47.3050 O   0  0  0  0  0  0  0  0  0  0  0  0
   59.4150   33.0290   48.6860 C   0  0  0  0  0  0  0  0  0  0  0  0
   60.6060   33.3890   49.3240 C   0  0  0  0  0  0  0  0  0  0  0  0
   61.4286   33.8264   48.7391 H   0  0  0  0  0  0  0  0  0  0  0  0
   60.7580   33.1970   50.6980 C   0  0  0  0  0  0  0  0  0  0  0  0
   61.7040   33.4694   51.1888 H   0  0  0  0  0  0  0  0  0  0  0  0
   59.7120   32.6600   51.4510 C   0  0  0  0  0  0  0  0  0  0  0  0
   59.8429   32.4975   52.5310 H   0  0  0  0  0  0  0  0  0  0  0  0
   58.4930   32.3260   50.8370 C   0  0  0  0  0  0  0  0  0  0  0  0
   57.3770   31.7550   51.6280 C   0  0  0  0  0  0  0  0  0  0  0  0
   56.6750   32.5200   52.3420 O   0  0  0  0  0  0  0  0  0  0  0  0
   57.0260   30.3640   51.5640 N   0  0  0  0  0  0  0  0  0  0  0  0
   56.2080   29.7410   52.3640 C   0  0  0  0  0  0  0  0  0  0  0  0
   56.6480   28.7180   53.1530 N   0  0  0  0  0  0  0  0  0  0  0  0
   55.8240   28.0600   54.0090 C   0  0  0  0  0  0  0  0  0  0  0  0
   56.2149   27.2354   54.6232 H   0  0  0  0  0  0  0  0  0  0  0  0
   54.4820   28.4290   54.1100 C   0  0  0  0  0  0  0  0  0  0  0  0
   53.8093   27.8990   54.8004 H   0  0  0  0  0  0  0  0  0  0  0  0
   54.0040   29.4780   53.3250 C   0  0  0  0  0  0  0  0  0  0  0  0
   52.9487   29.7799   53.3969 H   0  0  0  0  0  0  0  0  0  0  0  0
   54.8620   30.1470   52.4470 C   0  0  0  0  0  0  0  0  0  0  0  0
   54.3610   31.1960   51.6760 O   0  0  0  0  0  0  0  0  0  0  0  0
   54.9640   31.8590   51.2030 H   0  0  0  0  0  0  0  0  0  0  0  0
   58.3540   32.5090   49.4510 C   0  0  0  0  0  0  0  0  0  0  0  0
   57.4068   32.2433   48.9588 H   0  0  0  0  0  0  0  0  0  0  0  0
   58.9880   31.1930   46.1450 N   0  0  0  0  0  0  0  0  0  0  0  0
   58.3280   30.3550   45.3010 C   0  0  0  0  0  0  0  0  0  0  0  0
   58.9090   29.2200   45.0150 N   0  0  0  0  0  0  0  0  0  0  0  0
   58.4070   27.8810   45.1300 C   0  0  0  0  0  0  0  0  0  0  0  0
   58.3110   27.0840   43.9820 C   0  0  0  0  0  0  0  0  0  0  0  0
   58.6641   27.4717   43.0150 H   0  0  0  0  0  0  0  0  0  0  0  0
   57.7680   25.7970   44.0600 C   0  0  0  0  0  0  0  0  0  0  0  0
   57.7149   25.1669   43.1599 H   0  0  0  0  0  0  0  0  0  0  0  0
   57.2930   25.3120   45.2820 C   0  0  0  0  0  0  0  0  0  0  0  0
   56.8764   24.2959   45.3455 H   0  0  0  0  0  0  0  0  0  0  0  0
   57.3470   26.1170   46.4230 C   0  0  0  0  0  0  0  0  0  0  0  0
   56.9629   25.7381   47.3816 H   0  0  0  0  0  0  0  0  0  0  0  0
   57.8890   27.4040   46.3470 C   0  0  0  0  0  0  0  0  0  0  0  0
   57.9101   28.0444   47.2411 H   0  0  0  0  0  0  0  0  0  0  0  0
  1  2  1  0
  2  3  1  0
  3  4  2  0
  3  5  1  0
  5  6  2  0
  6  7  1  0
  7  8  1  0
  7  9  2  0
  9 10  1  0
 10 11  1  0
 11 12  2  0
 12 13  1  0
 12 14  1  0
 14 15  1  0
 14 16  2  0
 16 17  1  0
 16 18  1  0
 18 19  1  0
 19 20  2  0
 19 21  1  0
 21 22  2  3
 22 23  1  0
 23 24  1  0
 24 25  1  0
 24 26  2  0
 26 27  1  0
 26 28  1  0
 28 29  1  0
 28 30  2  0
 30 31  1  0
 31 32  1  0
 18 33  2  0
 33 34  1  0
  9 35  1  0
 35 36  1  0
 36 37  2  0
 37 38  1  0
 38 39  2  0
 39 40  1  0
 39 41  1  0
 41 42  1  0
 41 43  2  0
 43 44  1  0
 43 45  1  0
 45 46  1  0
 45 47  2  0
 47 48  1  0
 36  5  1  0
 47 38  1  0
 33 11  1  0
 30 22  1  0
M  CHG  3   2  -1  23  -1  35  -1
M  END
>  <UniqueID>  (18) 
18

>  <SMILES>  (18) 
[NH-]C(=O)c1ncc(Oc2cccc(C(=O)N=c3[n-]cccc3O)c2)[n-]/c1=N/c1ccccc1

>  <Energy>  (18) 
90.68638566493998

>  <Genealogy>  (18) 
[NH-]C(=O)c1ncc(Oc2cccc(C(=O)N=c3[n-]cccc3O)c2)[n-]c1=Nc1ccccc1 (protonated)
[NH-]C(=O)c1ncc(Oc2cccc(C(=O)N=c3[n-]cccc3O)c2)[n-]/c1=N/c1ccccc1 (cis-trans isomerization)
[NH-]C(=O)c1ncc(Oc2cccc(C(=O)N=c3[n-]cccc3O)c2)[n-]/c1=N/c1ccccc1 (3D coordinates assigned)
[NH-]C(=O)c1ncc(Oc2cccc(C(=O)N=c3[n-]cccc3O)c2)[n-]/c1=N/c1ccccc1 (optimized conformer: 90.68638566493998 kcal/mol)

>  <smiles>  (18) 
NC(=O)c1ncc(Oc2cccc(C(=O)N=c3[nH]cccc3O)c2)[nH]c1=Nc1ccccc1

>  <score_type>  (18) 
oracle

>  <origin>  (18) 
adg

>  <m_score__min__energy>  (18) 
-13.449999999999999

>  <m_primary>  (18) 
energy

$$$$
18:0
     RDKit          3D

 38 40  0  0  0  0  0  0  0  0999 V2000
   54.6580   26.2310   45.9790 N   0  0  0  0  0  0  0  0  0  0  0  0
   56.0620   25.2560   46.2330 S   0  0  0  0  0  0  0  0  0  0  0  0
   55.8150   24.3110   47.3750 O   0  0  0  0  0  0  0  0  0  0  0  0
   56.3470   24.4520   44.9950 O   0  0  0  0  0  0  0  0  0  0  0  0
   57.4380   26.2910   46.6010 C   0  0  0  0  0  0  0  0  0  0  0  0
   58.5880   25.7490   47.1910 C   0  0  0  0  0  0  0  0  0  0  0  0
   59.6870   26.5650   47.4720 C   0  0  0  0  0  0  0  0  0  0  0  0
   59.6420   27.9410   47.1790 C   0  0  0  0  0  0  0  0  0  0  0  0
   60.7640   28.8090   47.4180 N   0  0  0  0  0  0  0  0  0  0  0  0
   60.7220   30.0550   47.7900 C   0  0  0  0  0  0  0  0  0  0  0  0
   60.0290   30.9470   47.0360 N   0  0  0  0  0  0  0  0  0  0  0  0
   59.9250   32.2590   47.3870 C   0  0  0  0  0  0  0  0  0  0  0  0
   59.1800   33.1660   46.5440 N   0  0  0  0  0  0  0  0  0  0  0  0
   57.7750   32.9030   46.2040 C   0  0  0  0  0  0  0  0  0  0  0  0
   57.4110   33.5790   44.8780 C   0  0  0  0  0  0  0  0  0  0  0  0
   57.7800   34.9440   44.8900 O   0  0  0  0  0  0  0  0  0  0  0  0
   59.1870   35.0520   44.9590 C   0  0  0  0  0  0  0  0  0  0  0  0
   59.7080   34.5140   46.2950 C   0  0  0  0  0  0  0  0  0  0  0  0
   60.5570   32.6980   48.5620 C   0  0  0  0  0  0  0  0  0  0  0  0
   61.2570   31.7700   49.3320 C   0  0  0  0  0  0  0  0  0  0  0  0
   61.8310   32.1300   50.3930 O   0  0  0  0  0  0  0  0  0  0  0  0
   61.3220   30.4730   48.9380 N   0  0  0  0  0  0  0  0  0  0  0  0
   58.5060   28.4690   46.5530 C   0  0  0  0  0  0  0  0  0  0  0  0
   57.4060   27.6520   46.2720 C   0  0  0  0  0  0  0  0  0  0  0  0
   54.7690   27.0850   46.5690 H   0  0  0  0  0  0  0  0  0  0  0  0
   58.6256   24.6768   47.4339 H   0  0  0  0  0  0  0  0  0  0  0  0
   60.5908   26.1303   47.9239 H   0  0  0  0  0  0  0  0  0  0  0  0
   57.6214   31.8177   46.1117 H   0  0  0  0  0  0  0  0  0  0  0  0
   57.1332   33.3092   46.9997 H   0  0  0  0  0  0  0  0  0  0  0  0
   57.9386   33.0704   44.0576 H   0  0  0  0  0  0  0  0  0  0  0  0
   56.3224   33.5102   44.7354 H   0  0  0  0  0  0  0  0  0  0  0  0
   59.6340   34.4726   44.1377 H   0  0  0  0  0  0  0  0  0  0  0  0
   59.4642   36.1131   44.8736 H   0  0  0  0  0  0  0  0  0  0  0  0
   60.8069   34.4734   46.2658 H   0  0  0  0  0  0  0  0  0  0  0  0
   59.3763   35.1825   47.1031 H   0  0  0  0  0  0  0  0  0  0  0  0
   60.5008   33.7529   48.8686 H   0  0  0  0  0  0  0  0  0  0  0  0
   58.4786   29.5343   46.2802 H   0  0  0  0  0  0  0  0  0  0  0  0
   56.5136   28.0795   45.7914 H   0  0  0  0  0  0  0  0  0  0  0  0
  1  2  1  0
  2  3  2  0
  2  4  2  0
  2  5  1  0
  5  6  2  0
  6  7  1  0
  7  8  2  0
  8  9  1  0
  9 10  2  3
 10 11  1  0
 11 12  1  0
 12 13  1  0
 13 14  1  0
 14 15  1  0
 15 16  1  0
 16 17  1  0
 17 18  1  0
 12 19  2  0
 19 20  1  0
 20 21  2  0
 20 22  1  0
  8 23  1  0
 23 24  2  0
 24  5  1  0
 22 10  1  0
 18 13  1  0
  1 25  1  0
  6 26  1  0
  7 27  1  0
 14 28  1  0
 14 29  1  0
 15 30  1  0
 15 31  1  0
 17 32  1  0
 17 33  1  0
 18 34  1  0
 18 35  1  0
 19 36  1  0
 23 37  1  0
 24 38  1  0
M  CHG  3   1  -1  11  -1  22  -1
M  END
>  <UniqueID>  (19) 
19

>  <SMILES>  (19) 
[NH-]S(=O)(=O)c1ccc(N=c2[n-]c(N3CCOCC3)cc(=O)[n-]2)cc1

>  <Energy>  (19) 
50.73605166538809

>  <Genealogy>  (19) 
[NH-]S(=O)(=O)c1ccc(N=c2[n-]c(N3CCOCC3)cc(=O)[n-]2)cc1 (protonated)
[NH-]S(=O)(=O)c1ccc(N=c2[n-]c(N3CCOCC3)cc(=O)[n-]2)cc1 (3D coordinates assigned)
[NH-]S(=O)(=O)c1ccc(N=c2[n-]c(N3CCOCC3)cc(=O)[n-]2)cc1 (nonaromatic ring conformer: 50.73605166538809 kcal/mol)

>  <smiles>  (19) 
NS(=O)(=O)c1ccc(N=c2[nH]c(N3CCOCC3)cc(=O)[nH]2)cc1

>  <score_type>  (19) 
oracle

>  <origin>  (19) 
adg

>  <m_score__min__energy>  (19) 
-11.890000000000001

>  <m_primary>  (19) 
energy

$$$$
19:0
     RDKit          3D

 45 47  0  0  0  0  0  0  0  0999 V2000
   55.1640   29.3780   44.7610 O   0  0  0  0  0  0  0  0  0  0  0  0
   56.1380   30.0580   44.3410 C   0  0  0  0  0  0  0  0  0  0  0  0
   56.9910   29.5080   43.2230 C   0  0  0  0  0  0  0  0  0  0  0  0
   57.5690   28.1200   43.5400 C   0  0  0  0  0  0  0  0  0  0  0  0
   58.3390   28.1320   44.7950 N   0  0  0  0  0  0  0  0  0  0  0  0
   59.6380   28.5660   44.7740 C   0  0  0  0  0  0  0  0  0  0  0  0
   60.4090   28.5620   45.9380 C   0  0  0  0  0  0  0  0  0  0  0  0
   59.8490   28.1120   47.1300 C   0  0  0  0  0  0  0  0  0  0  0  0
   58.5280   27.6700   47.1480 C   0  0  0  0  0  0  0  0  0  0  0  0
   57.7790   27.6830   45.9670 C   0  0  0  0  0  0  0  0  0  0  0  0
   56.5880   27.2680   45.9960 O   0  0  0  0  0  0  0  0  0  0  0  0
   56.2900   31.4020   44.8130 N   0  0  0  0  0  0  0  0  0  0  0  0
   57.4250   31.9270   45.5120 C   0  0  0  0  0  0  0  0  0  0  0  0
   57.8720   33.2370   45.2920 C   0  0  0  0  0  0  0  0  0  0  0  0
   58.9970   33.7210   45.9650 C   0  0  0  0  0  0  0  0  0  0  0  0
   59.7120   32.8910   46.8420 C   0  0  0  0  0  0  0  0  0  0  0  0
   60.8530   33.4200   47.5410 N   0  0  0  0  0  0  0  0  0  0  0  0
   62.0390   32.6580   47.8230 C   0  0  0  0  0  0  0  0  0  0  0  0
   62.3110   31.6430   47.1260 O   0  0  0  0  0  0  0  0  0  0  0  0
   62.9770   33.0810   48.8930 C   0  0  0  0  0  0  0  0  0  0  0  0
   62.5860   34.0150   49.8710 C   0  0  0  0  0  0  0  0  0  0  0  0
   63.4780   34.4000   50.8780 C   0  0  0  0  0  0  0  0  0  0  0  0
   64.7630   33.8570   50.9230 C   0  0  0  0  0  0  0  0  0  0  0  0
   65.1600   32.9220   49.9640 C   0  0  0  0  0  0  0  0  0  0  0  0
   64.2730   32.5320   48.9550 C   0  0  0  0  0  0  0  0  0  0  0  0
   59.2690   31.5730   47.0500 C   0  0  0  0  0  0  0  0  0  0  0  0
   58.1420   31.0920   46.3750 C   0  0  0  0  0  0  0  0  0  0  0  0
   56.3742   29.4325   42.3153 H   0  0  0  0  0  0  0  0  0  0  0  0
   57.8387   30.1953   43.0855 H   0  0  0  0  0  0  0  0  0  0  0  0
   56.7419   27.4010   43.6346 H   0  0  0  0  0  0  0  0  0  0  0  0
   58.2454   27.8318   42.7218 H   0  0  0  0  0  0  0  0  0  0  0  0
   60.0782   28.9213   43.8306 H   0  0  0  0  0  0  0  0  0  0  0  0
   61.4515   28.9120   45.9131 H   0  0  0  0  0  0  0  0  0  0  0  0
   60.4466   28.1054   48.0535 H   0  0  0  0  0  0  0  0  0  0  0  0
   58.0768   27.3129   48.0855 H   0  0  0  0  0  0  0  0  0  0  0  0
   57.3346   33.8874   44.5861 H   0  0  0  0  0  0  0  0  0  0  0  0
   59.3242   34.7592   45.8063 H   0  0  0  0  0  0  0  0  0  0  0  0
   60.8640   34.4430   47.7540 H   0  0  0  0  0  0  0  0  0  0  0  0
   61.5737   34.4445   49.8434 H   0  0  0  0  0  0  0  0  0  0  0  0
   63.1655   35.1329   51.6365 H   0  0  0  0  0  0  0  0  0  0  0  0
   65.4630   34.1653   51.7135 H   0  0  0  0  0  0  0  0  0  0  0  0
   66.1717   32.4918   50.0023 H   0  0  0  0  0  0  0  0  0  0  0  0
   64.5894   31.7920   48.2052 H   0  0  0  0  0  0  0  0  0  0  0  0
   59.8111   30.9169   47.7468 H   0  0  0  0  0  0  0  0  0  0  0  0
   57.8180   30.0514   46.5238 H   0  0  0  0  0  0  0  0  0  0  0  0
  1  2  2  0
  2  3  1  0
  3  4  1  0
  4  5  1  0
  5  6  1  0
  6  7  2  0
  7  8  1  0
  8  9  2  0
  9 10  1  0
 10 11  2  0
  2 12  1  0
 12 13  1  0
 13 14  2  0
 14 15  1  0
 15 16  2  0
 16 17  1  0
 17 18  1  0
 18 19  2  0
 18 20  1  0
 20 21  2  0
 21 22  1  0
 22 23  2  0
 23 24  1  0
 24 25  2  0
 16 26  1  0
 26 27  2  0
 10  5  1  0
 27 13  1  0
 25 20  1  0
  3 28  1  0
  3 29  1  0
  4 30  1  0
  4 31  1  0
  6 32  1  0
  7 33  1  0
  8 34  1  0
  9 35  1  0
 14 36  1  0
 15 37  1  0
 17 38  1  0
 21 39  1  0
 22 40  1  0
 23 41  1  0
 24 42  1  0
 25 43  1  0
 26 44  1  0
 27 45  1  0
M  CHG  1  12  -1
M  END
>  <UniqueID>  (20) 
20

>  <SMILES>  (20) 
O=C(CCn1ccccc1=O)[N-]c1ccc(NC(=O)c2ccccc2)cc1

>  <Energy>  (20) 
57.58016214541169

>  <Genealogy>  (20) 
O=C(CCn1ccccc1=O)[N-]c1ccc(NC(=O)c2ccccc2)cc1 (protonated)
O=C(CCn1ccccc1=O)[N-]c1ccc(NC(=O)c2ccccc2)cc1 (3D coordinates assigned)
O=C(CCn1ccccc1=O)[N-]c1ccc(NC(=O)c2ccccc2)cc1 (optimized conformer: 57.58016214541169 kcal/mol)

>  <smiles>  (20) 
O=C(CCn1ccccc1=O)Nc1ccc(NC(=O)c2ccccc2)cc1

>  <score_type>  (20) 
oracle

>  <origin>  (20) 
adg

>  <m_score__min__energy>  (20) 
-10.07

>  <m_primary>  (20) 
energy

$$$$
20:0
     RDKit          3D

 61 64  0  0  0  0  0  0  0  0999 V2000
   58.3870   34.6130   45.3140 C   0  0  0  0  0  0  0  0  0  0  0  0
   59.5900   33.9160   45.8650 C   0  0  0  0  0  0  0  0  0  0  0  0
   60.8040   34.4940   45.9510 N   0  0  0  0  0  0  0  0  0  0  0  0
   61.6360   33.6040   46.4720 N   0  0  0  0  0  0  0  0  0  0  0  0
   63.0560   33.8650   46.6940 C   0  0  0  0  0  0  0  0  0  0  0  0
   63.3880   33.7300   48.1570 C   0  0  0  0  0  0  0  0  0  0  0  0
   62.5830   34.3590   49.1220 C   0  0  0  0  0  0  0  0  0  0  0  0
   62.9030   34.2570   50.4800 C   0  0  0  0  0  0  0  0  0  0  0  0
   64.0250   33.5280   50.8830 C   0  0  0  0  0  0  0  0  0  0  0  0
   64.8300   32.8980   49.9290 C   0  0  0  0  0  0  0  0  0  0  0  0
   64.5150   32.9980   48.5700 C   0  0  0  0  0  0  0  0  0  0  0  0
   60.9770   32.4520   46.7230 C   0  0  0  0  0  0  0  0  0  0  0  0
   61.6990   31.0200   47.4450 Cl  0  0  0  0  0  0  0  0  0  0  0  0
   59.6550   32.6120   46.3440 C   0  0  0  0  0  0  0  0  0  0  0  0
   58.5710   31.6170   46.4260 C   0  0  0  0  0  0  0  0  0  0  0  0
   58.0180   31.1960   45.3740 O   0  0  0  0  0  0  0  0  0  0  0  0
   58.1670   31.1360   47.6760 O   0  0  0  0  0  0  0  0  0  0  0  0
   58.9150   30.1790   48.4230 C   0  0  0  0  0  0  0  0  0  0  0  0
   58.5920   28.7990   47.9400 C   0  0  0  0  0  0  0  0  0  0  0  0
   58.9680   27.7990   48.6100 O   0  0  0  0  0  0  0  0  0  0  0  0
   57.8360   28.6300   46.7320 N   0  0  0  0  0  0  0  0  0  0  0  0
   57.7840   27.4070   45.9800 C   0  0  0  0  0  0  0  0  0  0  0  0
   58.2100   27.3520   44.6410 C   0  0  0  0  0  0  0  0  0  0  0  0
   58.1110   26.1600   43.9200 C   0  0  0  0  0  0  0  0  0  0  0  0
   57.5710   25.0190   44.5180 C   0  0  0  0  0  0  0  0  0  0  0  0
   57.1160   25.0660   45.8420 C   0  0  0  0  0  0  0  0  0  0  0  0
   56.3980   23.6380   46.5910 S   0  0  0  0  0  0  0  0  0  0  0  0
   57.3850   23.0330   47.5530 O   0  0  0  0  0  0  0  0  0  0  0  0
   55.1790   24.0480   47.3720 O   0  0  0  0  0  0  0  0  0  0  0  0
   55.9450   22.4420   45.3980 N   0  0  0  0  0  0  0  0  0  0  0  0
   54.9480   22.9700   44.4420 C   0  0  0  0  0  0  0  0  0  0  0  0
   55.5750   23.3030   43.0760 C   0  0  0  0  0  0  0  0  0  0  0  0
   56.2110   22.1920   42.4590 O   0  0  0  0  0  0  0  0  0  0  0  0
   56.7800   21.2690   43.3800 C   0  0  0  0  0  0  0  0  0  0  0  0
   57.1450   21.8900   44.7380 C   0  0  0  0  0  0  0  0  0  0  0  0
   57.2280   26.2620   46.5690 C   0  0  0  0  0  0  0  0  0  0  0  0
   57.7614   34.9754   46.1430 H   0  0  0  0  0  0  0  0  0  0  0  0
   58.7076   35.4652   44.6968 H   0  0  0  0  0  0  0  0  0  0  0  0
   57.8071   33.9110   44.6968 H   0  0  0  0  0  0  0  0  0  0  0  0
   63.6525   33.1423   46.1180 H   0  0  0  0  0  0  0  0  0  0  0  0
   63.2878   34.8893   46.3667 H   0  0  0  0  0  0  0  0  0  0  0  0
   61.6987   34.9332   48.8086 H   0  0  0  0  0  0  0  0  0  0  0  0
   62.2704   34.7515   51.2318 H   0  0  0  0  0  0  0  0  0  0  0  0
   64.2750   33.4497   51.9513 H   0  0  0  0  0  0  0  0  0  0  0  0
   65.7120   32.3231   50.2477 H   0  0  0  0  0  0  0  0  0  0  0  0
   65.1511   32.5023   47.8219 H   0  0  0  0  0  0  0  0  0  0  0  0
   59.9900   30.3707   48.2905 H   0  0  0  0  0  0  0  0  0  0  0  0
   58.6539   30.2630   49.4883 H   0  0  0  0  0  0  0  0  0  0  0  0
   57.2620   29.4370   46.4000 H   0  0  0  0  0  0  0  0  0  0  0  0
   58.6227   28.2510   44.1598 H   0  0  0  0  0  0  0  0  0  0  0  0
   58.4595   26.1196   42.8775 H   0  0  0  0  0  0  0  0  0  0  0  0
   57.5029   24.0809   43.9476 H   0  0  0  0  0  0  0  0  0  0  0  0
   54.1615   22.2149   44.2966 H   0  0  0  0  0  0  0  0  0  0  0  0
   54.5361   23.8998   44.8613 H   0  0  0  0  0  0  0  0  0  0  0  0
   54.7804   23.6652   42.4070 H   0  0  0  0  0  0  0  0  0  0  0  0
   56.3503   24.0632   43.2522 H   0  0  0  0  0  0  0  0  0  0  0  0
   56.0548   20.4601   43.5526 H   0  0  0  0  0  0  0  0  0  0  0  0
   57.7171   20.9070   42.9319 H   0  0  0  0  0  0  0  0  0  0  0  0
   57.5876   21.1158   45.3820 H   0  0  0  0  0  0  0  0  0  0  0  0
   57.8646   22.7053   44.5725 H   0  0  0  0  0  0  0  0  0  0  0  0
   56.8763   26.3013   47.6105 H   0  0  0  0  0  0  0  0  0  0  0  0
  1  2  1  0
  2  3  2  0
  3  4  1  0
  4  5  1  0
  5  6  1  0
  6  7  2  0
  7  8  1  0
  8  9  2  0
  9 10  1  0
 10 11  2  0
  4 12  1  0
 12 13  1  0
 12 14  2  0
 14 15  1  0
 15 16  2  0
 15 17  1  0
 17 18  1  0
 18 19  1  0
 19 20  2  0
 19 21  1  0
 21 22  1  0
 22 23  2  0
 23 24  1  0
 24 25  2  0
 25 26  1  0
 26 27  1  0
 27 28  2  0
 27 29  2  0
 27 30  1  0
 30 31  1  0
 31 32  1  0
 32 33  1  0
 33 34  1  0
 34 35  1  0
 26 36  2  0
 14  2  1  0
 36 22  1  0
 11  6  1  0
 35 30  1  0
  1 37  1  0
  1 38  1  0
  1 39  1  0
  5 40  1  0
  5 41  1  0
  7 42  1  0
  8 43  1  0
  9 44  1  0
 10 45  1  0
 11 46  1  0
 18 47  1  0
 18 48  1  0
 21 49  1  0
 23 50  1  0
 24 51  1  0
 25 52  1  0
 31 53  1  0
 31 54  1  0
 32 55  1  0
 32 56  1  0
 34 57  1  0
 34 58  1  0
 35 59  1  0
 35 60  1  0
 36 61  1  0
M  END
>  <UniqueID>  (21) 
21

>  <SMILES>  (21) 
Cc1nn(Cc2ccccc2)c(Cl)c1C(=O)OCC(=O)Nc1cccc(S(=O)(=O)N2CCOCC2)c1

>  <Energy>  (21) 
104.79522833160362

>  <Genealogy>  (21) 
Cc1nn(Cc2ccccc2)c(Cl)c1C(=O)OCC(=O)Nc1cccc(S(=O)(=O)N2CCOCC2)c1 (3D coordinates assigned)
Cc1nn(Cc2ccccc2)c(Cl)c1C(=O)OCC(=O)Nc1cccc(S(=O)(=O)N2CCOCC2)c1 (nonaromatic ring conformer: 104.79522833160362 kcal/mol)

>  <smiles>  (21) 
Cc1nn(Cc2ccccc2)c(Cl)c1C(=O)OCC(=O)Nc1cccc(S(=O)(=O)N2CCOCC2)c1

>  <score_type>  (21) 
oracle

>  <origin>  (21) 
adg

>  <m_score__min__energy>  (21) 
-11.220000000000001

>  <m_primary>  (21) 
energy

$$$$
21:0
     RDKit          3D

 53 53  0  0  0  0  0  0  0  0999 V2000
   60.6806   30.2821   45.3643 H   0  0  0  0  0  0  0  0  0  0  0  0
   59.7820   29.6570   45.4730 C   0  0  0  0  0  0  0  0  0  0  0  0
   58.9700   31.6520   49.0150 C   0  0  0  0  0  0  0  0  0  0  0  0
   58.1228   32.0494   49.5933 H   0  0  0  0  0  0  0  0  0  0  0  0
   59.7830   32.6150   48.2350 C   0  0  0  0  0  0  0  0  0  0  0  0
   59.1910   33.3030   47.2190 C   0  0  0  0  0  0  0  0  0  0  0  0
   57.7310   33.0930   46.8750 C   0  0  0  0  0  0  0  0  0  0  0  0
   57.1444   33.0086   47.8017 H   0  0  0  0  0  0  0  0  0  0  0  0
   57.3663   33.9479   46.2867 H   0  0  0  0  0  0  0  0  0  0  0  0
   57.6220   32.1699   46.2867 H   0  0  0  0  0  0  0  0  0  0  0  0
   59.9250   34.3930   46.4730 C   0  0  0  0  0  0  0  0  0  0  0  0
   59.5112   34.4616   45.4561 H   0  0  0  0  0  0  0  0  0  0  0  0
   59.7870   35.3276   47.0364 H   0  0  0  0  0  0  0  0  0  0  0  0
   61.4260   34.1390   46.3710 C   0  0  0  0  0  0  0  0  0  0  0  0
   61.6076   33.2983   45.6853 H   0  0  0  0  0  0  0  0  0  0  0  0
   61.9208   35.0444   45.9897 H   0  0  0  0  0  0  0  0  0  0  0  0
   61.9920   33.8000   47.7480 C   0  0  0  0  0  0  0  0  0  0  0  0
   63.0710   33.6094   47.6512 H   0  0  0  0  0  0  0  0  0  0  0  0
   61.7965   34.6528   48.4148 H   0  0  0  0  0  0  0  0  0  0  0  0
   61.3150   32.5460   48.3630 C   0  0  0  0  0  0  0  0  0  0  0  0
   61.8060   31.2690   47.6410 C   0  0  0  0  0  0  0  0  0  0  0  0
   62.0961   30.5145   48.3871 H   0  0  0  0  0  0  0  0  0  0  0  0
   60.9972   30.8699   47.0113 H   0  0  0  0  0  0  0  0  0  0  0  0
   62.6738   31.5145   47.0113 H   0  0  0  0  0  0  0  0  0  0  0  0
   61.7570   32.4570   49.8440 C   0  0  0  0  0  0  0  0  0  0  0  0
   60.8891   32.6318   50.4968 H   0  0  0  0  0  0  0  0  0  0  0  0
   62.1707   31.4575   50.0438 H   0  0  0  0  0  0  0  0  0  0  0  0
   62.5253   33.2185   50.0438 H   0  0  0  0  0  0  0  0  0  0  0  0
   58.9180   29.8150   46.6640 C   0  0  0  0  0  0  0  0  0  0  0  0
   57.1870   28.9570   43.7410 C   0  0  0  0  0  0  0  0  0  0  0  0
   60.2851   28.4319   43.8527 H   0  0  0  0  0  0  0  0  0  0  0  0
   58.1230   28.1730   44.3230 C   0  0  0  0  0  0  0  0  0  0  0  0
   57.9410   30.3028   46.5315 H   0  0  0  0  0  0  0  0  0  0  0  0
   59.2540   29.3980   47.9020 C   0  0  0  0  0  0  0  0  0  0  0  0
   57.1294   28.9396   42.6426 H   0  0  0  0  0  0  0  0  0  0  0  0
   59.4790   28.7590   44.5260 C   0  0  0  0  0  0  0  0  0  0  0  0
   59.1940   30.3290   49.0660 C   0  0  0  0  0  0  0  0  0  0  0  0
   59.3482   29.8892   50.0624 H   0  0  0  0  0  0  0  0  0  0  0  0
   56.2350   29.8350   44.4530 C   0  0  0  0  0  0  0  0  0  0  0  0
   55.1500   29.3410   44.8700 O   0  0  0  0  0  0  0  0  0  0  0  0
   56.4930   31.1990   44.6160 O   0  0  0  0  0  0  0  0  0  0  0  0
   57.4900   31.8880   43.8720 C   0  0  0  0  0  0  0  0  0  0  0  0
   58.1934   32.3741   44.5640 H   0  0  0  0  0  0  0  0  0  0  0  0
   58.0345   31.1725   43.2383 H   0  0  0  0  0  0  0  0  0  0  0  0
   57.0133   32.6503   43.2383 H   0  0  0  0  0  0  0  0  0  0  0  0
   59.6210   27.9460   48.0920 C   0  0  0  0  0  0  0  0  0  0  0  0
   59.6781   27.7199   49.1670 H   0  0  0  0  0  0  0  0  0  0  0  0
   58.8554   27.3100   47.6237 H   0  0  0  0  0  0  0  0  0  0  0  0
   60.5969   27.7502   47.6237 H   0  0  0  0  0  0  0  0  0  0  0  0
   57.8100   26.7570   44.7560 C   0  0  0  0  0  0  0  0  0  0  0  0
   57.7982   26.7037   45.8546 H   0  0  0  0  0  0  0  0  0  0  0  0
   56.8252   26.4629   44.3640 H   0  0  0  0  0  0  0  0  0  0  0  0
   58.5791   26.0752   44.3640 H   0  0  0  0  0  0  0  0  0  0  0  0
  1  2  1  0
  2  3  2  3
  3  4  1  0
  3  5  1  0
  5  6  2  0
  6  7  1  0
  7  8  1  0
  7  9  1  0
  7 10  1  0
  6 11  1  0
 11 12  1  0
 11 13  1  0
 11 14  1  0
 14 15  1  0
 14 16  1  0
 14 17  1  0
 17 18  1  0
 17 19  1  0
 17 20  1  0
 20 21  1  0
 21 22  1  0
 21 23  1  0
 21 24  1  0
 20 25  1  0
 25 26  1  0
 25 27  1  0
 25 28  1  0
  2 29  1  0
 29 30  2  0
 30 31  1  0
 30 32  1  0
 32 33  1  0
 32 34  2  0
 34 35  1  0
 34 36  1  0
 36 37  2  3
 37 38  1  0
 37 39  1  0
 39 40  2  0
 39 41  1  0
 41 42  1  0
 42 43  1  0
 42 44  1  0
 42 45  1  0
 36 46  1  0
 46 47  1  0
 46 48  1  0
 46 49  1  0
 29 50  1  0
 50 51  1  0
 50 52  1  0
 50 53  1  0
 20  5  1  0
M  END
>  <UniqueID>  (22) 
22

>  <SMILES>  (22) 
COC(=O)C=C(C)/C=C/C=C(C)C=CC1=C(C)CCCC1(C)C

>  <Energy>  (22) 
61.46157900996764

>  <Genealogy>  (22) 
COC(=O)C=C(C)/C=C/C=C(C)C=CC1=C(C)CCCC1(C)C (cis-trans isomerization)
COC(=O)C=C(C)/C=C/C=C(C)C=CC1=C(C)CCCC1(C)C (3D coordinates assigned)
COC(=O)C=C(C)/C=C/C=C(C)C=CC1=C(C)CCCC1(C)C (nonaromatic ring conformer: 61.46157900996764 kcal/mol)

>  <smiles>  (22) 
COC(=O)C=C(C)C=CC=C(C)C=CC1=C(C)CCCC1(C)C

>  <score_type>  (22) 
oracle

>  <origin>  (22) 
adg

>  <m_score__min__energy>  (22) 
-8.2699999999999996

>  <m_primary>  (22) 
energy

$$$$
22:0
     RDKit          3D

 27 28  0  0  0  0  0  0  0  0999 V2000
   61.2940   30.3340   47.4850 N   0  0  0  0  0  0  0  0  0  0  0  0
   60.4460   30.9840   47.0380 C   0  0  0  0  0  0  0  0  0  0  0  0
   59.3830   31.7780   46.4810 C   0  0  0  0  0  0  0  0  0  0  0  0
   59.3180   33.1530   46.7880 C   0  0  0  0  0  0  0  0  0  0  0  0
   58.2750   33.9580   46.2800 C   0  0  0  0  0  0  0  0  0  0  0  0
   57.2810   33.4020   45.4600 C   0  0  0  0  0  0  0  0  0  0  0  0
   57.3660   32.0450   45.1680 C   0  0  0  0  0  0  0  0  0  0  0  0
   56.5560   31.3290   44.4290 O   0  0  0  0  0  0  0  0  0  0  0  0
   57.0490   30.1060   44.4440 C   0  0  0  0  0  0  0  0  0  0  0  0
   56.5220   29.1460   43.8200 O   0  0  0  0  0  0  0  0  0  0  0  0
   58.1780   29.9920   45.1900 N   0  0  0  0  0  0  0  0  0  0  0  0
   58.9980   28.7870   45.3530 C   0  0  0  0  0  0  0  0  0  0  0  0
   58.2470   27.7300   46.1090 C   0  0  0  0  0  0  0  0  0  0  0  0
   58.8010   27.1670   47.0910 O   0  0  0  0  0  0  0  0  0  0  0  0
   56.8950   27.4060   45.7470 N   0  0  0  0  0  0  0  0  0  0  0  0
   56.1370   26.3450   46.3470 C   0  0  0  0  0  0  0  0  0  0  0  0
   54.7880   26.1170   45.9400 N   0  0  0  0  0  0  0  0  0  0  0  0
   56.6490   25.6030   47.2290 O   0  0  0  0  0  0  0  0  0  0  0  0
   58.3760   31.2490   45.6520 C   0  0  0  0  0  0  0  0  0  0  0  0
   60.0887   33.6036   47.4306 H   0  0  0  0  0  0  0  0  0  0  0  0
   58.2414   35.0290   46.5289 H   0  0  0  0  0  0  0  0  0  0  0  0
   56.4621   34.0189   45.0616 H   0  0  0  0  0  0  0  0  0  0  0  0
   59.2680   28.3974   44.3604 H   0  0  0  0  0  0  0  0  0  0  0  0
   59.9031   29.0503   45.9199 H   0  0  0  0  0  0  0  0  0  0  0  0
   56.4330   27.9700   45.0010 H   0  0  0  0  0  0  0  0  0  0  0  0
   54.3460   26.7170   45.2090 H   0  0  0  0  0  0  0  0  0  0  0  0
   54.2300   25.3450   46.3680 H   0  0  0  0  0  0  0  0  0  0  0  0
  1  2  3  0
  2  3  1  0
  3  4  2  0
  4  5  1  0
  5  6  2  0
  6  7  1  0
  7  8  1  0
  8  9  1  0
  9 10  2  0
  9 11  1  0
 11 12  1  0
 12 13  1  0
 13 14  2  0
 13 15  1  0
 15 16  1  0
 16 17  1  0
 16 18  2  0
 11 19  1  0
 19  3  1  0
 19  7  2  0
  4 20  1  0
  5 21  1  0
  6 22  1  0
 12 23  1  0
 12 24  1  0
 15 25  1  0
 17 26  1  0
 17 27  1  0
M  END
>  <UniqueID>  (23) 
23

>  <SMILES>  (23) 
N#Cc1cccc2oc(=O)n(CC(=O)NC(N)=O)c12

>  <Energy>  (23) 
66.70410210792613

>  <Genealogy>  (23) 
N#Cc1cccc2oc(=O)n(CC(=O)NC(N)=O)c12 (3D coordinates assigned)
N#Cc1cccc2oc(=O)n(CC(=O)NC(N)=O)c12 (optimized conformer: 66.70410210792613 kcal/mol)

>  <smiles>  (23) 
N#Cc1cccc2oc(=O)n(CC(=O)NC(N)=O)c12

>  <score_type>  (23) 
oracle

>  <origin>  (23) 
adg

>  <m_score__min__energy>  (23) 
-6.8399999999999999

>  <m_primary>  (23) 
energy

$$$$
23:0
     RDKit          3D

 36 37  0  0  0  0  0  0  0  0999 V2000
   55.1130   24.8360   47.6800 H   0  0  0  0  0  0  0  0  0  0  0  0
   56.1230   24.7970   47.6120 O   0  0  0  0  0  0  0  0  0  0  0  0
   56.8450   25.6920   46.8230 C   0  0  0  0  0  0  0  0  0  0  0  0
   58.2420   25.6420   46.8400 C   0  0  0  0  0  0  0  0  0  0  0  0
   58.7543   24.9023   47.4727 H   0  0  0  0  0  0  0  0  0  0  0  0
   58.9920   26.5250   46.0590 C   0  0  0  0  0  0  0  0  0  0  0  0
   60.0908   26.4810   46.0864 H   0  0  0  0  0  0  0  0  0  0  0  0
   58.3490   27.4720   45.2360 C   0  0  0  0  0  0  0  0  0  0  0  0
   59.0970   28.4400   44.3980 C   0  0  0  0  0  0  0  0  0  0  0  0
   59.7586   28.0441   43.6134 H   0  0  0  0  0  0  0  0  0  0  0  0
   59.0130   29.7690   44.5420 C   0  0  0  0  0  0  0  0  0  0  0  0
   59.9251   30.3404   44.7693 H   0  0  0  0  0  0  0  0  0  0  0  0
   57.7370   30.4860   44.4050 C   0  0  0  0  0  0  0  0  0  0  0  0
   56.8100   30.2470   45.2260 O   0  0  0  0  0  0  0  0  0  0  0  0
   57.5540   31.4210   43.3770 O   0  0  0  0  0  0  0  0  0  0  0  0
   58.0860   32.7460   43.4050 C   0  0  0  0  0  0  0  0  0  0  0  0
   59.1565   32.6989   43.6537 H   0  0  0  0  0  0  0  0  0  0  0  0
   57.9408   33.2036   42.4153 H   0  0  0  0  0  0  0  0  0  0  0  0
   57.3660   33.6030   44.4500 C   0  0  0  0  0  0  0  0  0  0  0  0
   57.1300   34.5814   44.0060 H   0  0  0  0  0  0  0  0  0  0  0  0
   56.4507   33.0734   44.7528 H   0  0  0  0  0  0  0  0  0  0  0  0
   58.2090   33.8170   45.6790 C   0  0  0  0  0  0  0  0  0  0  0  0
   59.2440   34.7670   45.6690 C   0  0  0  0  0  0  0  0  0  0  0  0
   59.4183   35.3779   44.7710 H   0  0  0  0  0  0  0  0  0  0  0  0
   60.0540   34.9390   46.7970 C   0  0  0  0  0  0  0  0  0  0  0  0
   60.8611   35.6863   46.7850 H   0  0  0  0  0  0  0  0  0  0  0  0
   59.8390   34.1630   47.9380 C   0  0  0  0  0  0  0  0  0  0  0  0
   60.4761   34.3004   48.8241 H   0  0  0  0  0  0  0  0  0  0  0  0
   58.8150   33.2120   47.9550 C   0  0  0  0  0  0  0  0  0  0  0  0
   58.6481   32.6004   48.8539 H   0  0  0  0  0  0  0  0  0  0  0  0
   58.0020   33.0370   46.8300 C   0  0  0  0  0  0  0  0  0  0  0  0
   57.1980   32.2864   46.8462 H   0  0  0  0  0  0  0  0  0  0  0  0
   56.9440   27.5270   45.2370 C   0  0  0  0  0  0  0  0  0  0  0  0
   56.4284   28.2743   44.6159 H   0  0  0  0  0  0  0  0  0  0  0  0
   56.1950   26.6420   46.0190 C   0  0  0  0  0  0  0  0  0  0  0  0
   54.8070   26.7110   45.9930 O   0  0  0  0  0  0  0  0  0  0  0  0
  1  2  1  0
  2  3  1  0
  3  4  2  0
  4  5  1  0
  4  6  1  0
  6  7  1  0
  6  8  2  0
  8  9  1  0
  9 10  1  0
  9 11  2  0
 11 12  1  0
 11 13  1  0
 13 14  2  0
 13 15  1  0
 15 16  1  0
 16 17  1  0
 16 18  1  0
 16 19  1  0
 19 20  1  0
 19 21  1  0
 19 22  1  0
 22 23  2  0
 23 24  1  0
 23 25  1  0
 25 26  1  0
 25 27  2  0
 27 28  1  0
 27 29  1  0
 29 30  1  0
 29 31  2  0
 31 32  1  0
  8 33  1  0
 33 34  1  0
 33 35  2  0
 35 36  1  0
 35  3  1  0
 31 22  1  0
M  CHG  1  36  -1
M  END
>  <UniqueID>  (24) 
24

>  <SMILES>  (24) 
O=C(/C=C/c1ccc(O)c([O-])c1)OCCc1ccccc1

>  <Energy>  (24) 
33.93219563443395

>  <Genealogy>  (24) 
O=C(C=Cc1ccc(O)c([O-])c1)OCCc1ccccc1 (protonated)
O=C(/C=C/c1ccc(O)c([O-])c1)OCCc1ccccc1 (cis-trans isomerization)
O=C(/C=C/c1ccc(O)c([O-])c1)OCCc1ccccc1 (3D coordinates assigned)
O=C(/C=C/c1ccc(O)c([O-])c1)OCCc1ccccc1 (optimized conformer: 33.93219563443395 kcal/mol)

>  <smiles>  (24) 
O=C(C=Cc1ccc(O)c(O)c1)OCCc1ccccc1

>  <score_type>  (24) 
oracle

>  <origin>  (24) 
adg

>  <m_score__min__energy>  (24) 
-11.529999999999999

>  <m_primary>  (24) 
energy

$$$$
24:0
     RDKit          3D

 40 42  0  0  0  0  0  0  0  0999 V2000
   55.0562   29.0916   44.8877 H   0  0  0  0  0  0  0  0  0  0  0  0
   56.0820   29.4740   44.7800 C   0  0  0  0  0  0  0  0  0  0  0  0
   56.2910   30.7890   44.5020 N   0  0  0  0  0  0  0  0  0  0  0  0
   57.5460   31.2980   44.3610 C   0  0  0  0  0  0  0  0  0  0  0  0
   57.7620   33.0360   43.9890 S   0  0  0  0  0  0  0  0  0  0  0  0
   58.3620   33.4060   45.6380 C   0  0  0  0  0  0  0  0  0  0  0  0
   57.7740   32.8070   46.7550 C   0  0  0  0  0  0  0  0  0  0  0  0
   56.9364   32.1055   46.6267 H   0  0  0  0  0  0  0  0  0  0  0  0
   58.2380   33.0920   48.0000 N   0  0  0  0  0  0  0  0  0  0  0  0
   59.2680   33.9620   48.2080 C   0  0  0  0  0  0  0  0  0  0  0  0
   59.7050   34.2180   49.4080 N   0  0  0  0  0  0  0  0  0  0  0  0
   59.8670   33.2780   50.4830 C   0  0  0  0  0  0  0  0  0  0  0  0
   60.9970   33.1740   51.0290 O   0  0  0  0  0  0  0  0  0  0  0  0
   58.7510   32.4460   50.9900 C   0  0  0  0  0  0  0  0  0  0  0  0
   58.4710   31.1550   50.4930 C   0  0  0  0  0  0  0  0  0  0  0  0
   59.2660   30.5290   49.3840 C   0  0  0  0  0  0  0  0  0  0  0  0
   60.0621   29.9021   49.8122 H   0  0  0  0  0  0  0  0  0  0  0  0
   58.6036   29.9074   48.7636 H   0  0  0  0  0  0  0  0  0  0  0  0
   59.7149   31.3187   48.7636 H   0  0  0  0  0  0  0  0  0  0  0  0
   57.4470   30.4430   51.0340 N   0  0  0  0  0  0  0  0  0  0  0  0
   56.6690   30.9540   52.0200 C   0  0  0  0  0  0  0  0  0  0  0  0
   55.3330   29.9700   52.6950 S   0  0  0  0  0  0  0  0  0  0  0  0
   54.0650   30.7910   51.6810 C   0  0  0  0  0  0  0  0  0  0  0  0
   53.3243   31.2706   52.3377 H   0  0  0  0  0  0  0  0  0  0  0  0
   54.5402   31.5533   51.0461 H   0  0  0  0  0  0  0  0  0  0  0  0
   53.5639   30.0455   51.0461 H   0  0  0  0  0  0  0  0  0  0  0  0
   56.9020   32.2080   52.4900 N   0  0  0  0  0  0  0  0  0  0  0  0
   56.2970   32.6020   53.2460 H   0  0  0  0  0  0  0  0  0  0  0  0
   57.9180   32.9590   51.9920 C   0  0  0  0  0  0  0  0  0  0  0  0
   58.0874   33.9752   52.3776 H   0  0  0  0  0  0  0  0  0  0  0  0
   59.8830   34.5730   47.1100 C   0  0  0  0  0  0  0  0  0  0  0  0
   60.7227   35.2673   47.2608 H   0  0  0  0  0  0  0  0  0  0  0  0
   59.4230   34.2950   45.8210 C   0  0  0  0  0  0  0  0  0  0  0  0
   59.8956   34.7754   44.9516 H   0  0  0  0  0  0  0  0  0  0  0  0
   58.6600   30.4630   44.5080 C   0  0  0  0  0  0  0  0  0  0  0  0
   59.6771   30.8681   44.4010 H   0  0  0  0  0  0  0  0  0  0  0  0
   58.4650   29.1100   44.7920 C   0  0  0  0  0  0  0  0  0  0  0  0
   59.3303   28.4408   44.9076 H   0  0  0  0  0  0  0  0  0  0  0  0
   57.1690   28.6080   44.9290 C   0  0  0  0  0  0  0  0  0  0  0  0
   57.0055   27.5432   45.1516 H   0  0  0  0  0  0  0  0  0  0  0  0
  1  2  1  0
  2  3  2  0
  3  4  1  0
  4  5  1  0
  5  6  1  0
  6  7  2  0
  7  8  1  0
  7  9  1  0
  9 10  1  0
 10 11  2  0
 11 12  1  0
 12 13  2  0
 12 14  1  0
 14 15  2  0
 15 16  1  0
 16 17  1  0
 16 18  1  0
 16 19  1  0
 15 20  1  0
 20 21  2  0
 21 22  1  0
 22 23  1  0
 23 24  1  0
 23 25  1  0
 23 26  1  0
 21 27  1  0
 27 28  1  0
 27 29  2  0
 29 30  1  0
 10 31  1  0
 31 32  1  0
 31 33  2  0
 33 34  1  0
  4 35  2  0
 35 36  1  0
 35 37  1  0
 37 38  1  0
 37 39  2  0
 39 40  1  0
 39  2  1  0
 33  6  1  0
 29 14  1  0
M  CHG  2   9  -1  27   1
M  END
>  <UniqueID>  (25) 
25

>  <SMILES>  (25) 
CSc1nc(C)c(C(=O)/N=c2/ccc(Sc3ccccn3)c[n-]2)c[nH+]1

>  <Energy>  (25) 
44.758884857573165

>  <Genealogy>  (25) 
CSc1nc(C)c(C(=O)N=c2ccc(Sc3ccccn3)c[n-]2)c[nH+]1 (protonated)
CSc1nc(C)c(C(=O)/N=c2/ccc(Sc3ccccn3)c[n-]2)c[nH+]1 (cis-trans isomerization)
CSc1nc(C)c(C(=O)/N=c2/ccc(Sc3ccccn3)c[n-]2)c[nH+]1 (3D coordinates assigned)
CSc1nc(C)c(C(=O)/N=c2/ccc(Sc3ccccn3)c[n-]2)c[nH+]1 (optimized conformer: 44.758884857573165 kcal/mol)

>  <smiles>  (25) 
CSc1ncc(C(=O)N=c2ccc(Sc3ccccn3)c[nH]2)c(C)n1

>  <score_type>  (25) 
oracle

>  <origin>  (25) 
adg

>  <m_score__min__energy>  (25) 
-8.9499999999999993

>  <m_primary>  (25) 
energy

$$$$
25:0
     RDKit          3D

 59 63  0  0  0  0  0  0  0  0999 V2000
   65.0985   33.4178   48.1130 H   0  0  0  0  0  0  0  0  0  0  0  0
   64.0440   33.1500   47.9510 C   0  0  0  0  0  0  0  0  0  0  0  0
   63.2970   33.8450   47.0550 N   0  0  0  0  0  0  0  0  0  0  0  0
   61.9910   33.5330   46.8440 C   0  0  0  0  0  0  0  0  0  0  0  0
   61.2710   34.2010   45.9930 N   0  0  0  0  0  0  0  0  0  0  0  0
   59.8530   34.5230   46.1670 C   0  0  0  0  0  0  0  0  0  0  0  0
   59.6002   35.3877   45.5358 H   0  0  0  0  0  0  0  0  0  0  0  0
   59.6734   34.7547   47.2272 H   0  0  0  0  0  0  0  0  0  0  0  0
   58.9830   33.3560   45.7760 C   0  0  0  0  0  0  0  0  0  0  0  0
   58.6470   32.3790   46.7250 C   0  0  0  0  0  0  0  0  0  0  0  0
   59.0182   32.4675   47.7567 H   0  0  0  0  0  0  0  0  0  0  0  0
   57.8430   31.2940   46.3660 C   0  0  0  0  0  0  0  0  0  0  0  0
   57.5782   30.5383   47.1202 H   0  0  0  0  0  0  0  0  0  0  0  0
   57.3690   31.1600   45.0470 C   0  0  0  0  0  0  0  0  0  0  0  0
   56.5330   29.9990   44.6610 C   0  0  0  0  0  0  0  0  0  0  0  0
   55.2990   30.1560   44.4490 O   0  0  0  0  0  0  0  0  0  0  0  0
   57.1400   28.7150   44.4620 N   0  0  0  0  0  0  0  0  0  0  0  0
   58.2210   28.1480   45.2180 C   0  0  0  0  0  0  0  0  0  0  0  0
   59.5340   28.6130   45.0230 C   0  0  0  0  0  0  0  0  0  0  0  0
   59.7222   29.4315   44.3126 H   0  0  0  0  0  0  0  0  0  0  0  0
   60.6000   28.0460   45.7220 C   0  0  0  0  0  0  0  0  0  0  0  0
   61.6210   28.4259   45.5698 H   0  0  0  0  0  0  0  0  0  0  0  0
   60.3730   27.0010   46.6110 C   0  0  0  0  0  0  0  0  0  0  0  0
   61.2143   26.5598   47.1656 H   0  0  0  0  0  0  0  0  0  0  0  0
   59.0810   26.5110   46.8010 C   0  0  0  0  0  0  0  0  0  0  0  0
   58.9147   25.6784   47.5004 H   0  0  0  0  0  0  0  0  0  0  0  0
   57.9850   27.0670   46.1100 C   0  0  0  0  0  0  0  0  0  0  0  0
   56.6250   26.4940   46.3410 C   0  0  0  0  0  0  0  0  0  0  0  0
   55.6240   27.0400   45.7930 O   0  0  0  0  0  0  0  0  0  0  0  0
   56.4490   25.2870   47.1000 N   0  0  0  0  0  0  0  0  0  0  0  0
   56.3570   24.0590   46.6710 C   0  0  0  0  0  0  0  0  0  0  0  0
   56.9910   23.0830   47.3780 N   0  0  0  0  0  0  0  0  0  0  0  0
   56.9410   21.7720   47.0200 C   0  0  0  0  0  0  0  0  0  0  0  0
   57.4717   21.0180   47.6198 H   0  0  0  0  0  0  0  0  0  0  0  0
   56.2180   21.3830   45.8940 C   0  0  0  0  0  0  0  0  0  0  0  0
   56.1440   19.5450   45.3790 Br  0  0  0  0  0  0  0  0  0  0  0  0
   55.5400   22.3520   45.1530 C   0  0  0  0  0  0  0  0  0  0  0  0
   54.9612   22.0594   44.2645 H   0  0  0  0  0  0  0  0  0  0  0  0
   55.5960   23.6930   45.5390 C   0  0  0  0  0  0  0  0  0  0  0  0
   55.0517   24.4581   44.9659 H   0  0  0  0  0  0  0  0  0  0  0  0
   57.7080   32.1430   44.1010 C   0  0  0  0  0  0  0  0  0  0  0  0
   57.3407   32.0558   43.0678 H   0  0  0  0  0  0  0  0  0  0  0  0
   58.5080   33.2300   44.4630 C   0  0  0  0  0  0  0  0  0  0  0  0
   58.7668   33.9918   43.7129 H   0  0  0  0  0  0  0  0  0  0  0  0
   61.4240   32.5050   47.5300 N   0  0  0  0  0  0  0  0  0  0  0  0
   62.1290   31.7690   48.4310 C   0  0  0  0  0  0  0  0  0  0  0  0
   61.4500   30.6520   49.1440 C   0  0  0  0  0  0  0  0  0  0  0  0
   61.9470   30.1360   50.3580 C   0  0  0  0  0  0  0  0  0  0  0  0
   62.8461   30.5785   50.8117 H   0  0  0  0  0  0  0  0  0  0  0  0
   61.3060   29.0660   50.9900 C   0  0  0  0  0  0  0  0  0  0  0  0
   61.7025   28.6723   51.9375 H   0  0  0  0  0  0  0  0  0  0  0  0
   60.1640   28.4950   50.4230 C   0  0  0  0  0  0  0  0  0  0  0  0
   59.6599   27.6555   50.9242 H   0  0  0  0  0  0  0  0  0  0  0  0
   59.6650   28.9930   49.2190 C   0  0  0  0  0  0  0  0  0  0  0  0
   58.7669   28.5437   48.7701 H   0  0  0  0  0  0  0  0  0  0  0  0
   60.3020   30.0600   48.5820 C   0  0  0  0  0  0  0  0  0  0  0  0
   59.9029   30.4424   47.6309 H   0  0  0  0  0  0  0  0  0  0  0  0
   63.4750   32.0980   48.6650 C   0  0  0  0  0  0  0  0  0  0  0  0
   64.0691   31.5344   49.3994 H   0  0  0  0  0  0  0  0  0  0  0  0
  1  2  1  0
  2  3  1  0
  3  4  1  0
  4  5  2  3
  5  6  1  0
  6  7  1  0
  6  8  1  0
  6  9  1  0
  9 10  2  0
 10 11  1  0
 10 12  1  0
 12 13  1  0
 12 14  2  0
 14 15  1  0
 15 16  2  0
 15 17  1  0
 17 18  1  0
 18 19  2  0
 19 20  1  0
 19 21  1  0
 21 22  1  0
 21 23  2  0
 23 24  1  0
 23 25  1  0
 25 26  1  0
 25 27  2  0
 27 28  1  0
 28 29  2  0
 28 30  1  0
 30 31  2  0
 31 32  1  0
 32 33  1  0
 33 34  1  0
 33 35  2  0
 35 36  1  0
 35 37  1  0
 37 38  1  0
 37 39  2  0
 39 40  1  0
 14 41  1  0
 41 42  1  0
 41 43  2  0
 43 44  1  0
  4 45  1  0
 45 46  2  0
 46 47  1  0
 47 48  2  0
 48 49  1  0
 48 50  1  0
 50 51  1  0
 50 52  2  0
 52 53  1  0
 52 54  1  0
 54 55  1  0
 54 56  2  0
 56 57  1  0
 46 58  1  0
 58 59  1  0
 58  2  2  0
 43  9  1  0
 56 47  1  0
 27 18  1  0
 39 31  1  0
M  CHG  3   3  -1  17  -1  32  -1
M  END
>  <UniqueID>  (26) 
26

>  <SMILES>  (26) 
O=C([N-]c1ccccc1C(=O)/N=c1\ccc(Br)c[n-]1)c1ccc(CN=c2nc(-c3ccccc3)cc[n-]2)cc1

>  <Energy>  (26) 
85.66309051343976

>  <Genealogy>  (26) 
O=C([N-]c1ccccc1C(=O)N=c1ccc(Br)c[n-]1)c1ccc(CN=c2nc(-c3ccccc3)cc[n-]2)cc1 (protonated)
O=C([N-]c1ccccc1C(=O)/N=c1\ccc(Br)c[n-]1)c1ccc(CN=c2nc(-c3ccccc3)cc[n-]2)cc1 (cis-trans isomerization)
O=C([N-]c1ccccc1C(=O)/N=c1\ccc(Br)c[n-]1)c1ccc(CN=c2nc(-c3ccccc3)cc[n-]2)cc1 (3D coordinates assigned)
O=C([N-]c1ccccc1C(=O)/N=c1\ccc(Br)c[n-]1)c1ccc(CN=c2nc(-c3ccccc3)cc[n-]2)cc1 (optimized conformer: 85.66309051343976 kcal/mol)

>  <smiles>  (26) 
O=C(Nc1ccccc1C(=O)N=c1ccc(Br)c[nH]1)c1ccc(CN=c2nc(-c3ccccc3)cc[nH]2)cc1

>  <score_type>  (26) 
oracle

>  <origin>  (26) 
adg

>  <m_score__min__energy>  (26) 
-13.890000000000001

>  <m_primary>  (26) 
energy

$$$$
26:0
     RDKit          3D

 36 39  0  0  0  0  0  0  0  0999 V2000
   56.7731   25.2899   46.0500 H   0  0  0  0  0  0  0  0  0  0  0  0
   56.2610   26.2630   46.0220 C   0  0  0  0  0  0  0  0  0  0  0  0
   55.0020   26.2900   45.9960 O   0  0  0  0  0  0  0  0  0  0  0  0
   57.0690   27.4960   46.0160 C   0  0  0  0  0  0  0  0  0  0  0  0
   57.2084   28.0091   46.9790 H   0  0  0  0  0  0  0  0  0  0  0  0
   57.6500   28.0480   44.9380 C   0  0  0  0  0  0  0  0  0  0  0  0
   58.0860   27.3645   44.1945 H   0  0  0  0  0  0  0  0  0  0  0  0
   57.7520   29.4970   44.6680 C   0  0  0  0  0  0  0  0  0  0  0  0
   57.3490   30.0370   43.4340 C   0  0  0  0  0  0  0  0  0  0  0  0
   56.9874   29.3701   42.6375 H   0  0  0  0  0  0  0  0  0  0  0  0
   57.4050   31.4160   43.2130 C   0  0  0  0  0  0  0  0  0  0  0  0
   57.0993   31.8284   42.2401 H   0  0  0  0  0  0  0  0  0  0  0  0
   57.8480   32.2720   44.2240 C   0  0  0  0  0  0  0  0  0  0  0  0
   58.2210   31.7420   45.4740 C   0  0  0  0  0  0  0  0  0  0  0  0
   58.1610   30.3590   45.6970 C   0  0  0  0  0  0  0  0  0  0  0  0
   58.4350   29.9490   46.6803 H   0  0  0  0  0  0  0  0  0  0  0  0
   58.6330   32.6860   46.5190 C   0  0  0  0  0  0  0  0  0  0  0  0
   58.9300   32.3390   47.8000 N   0  0  0  0  0  0  0  0  0  0  0  0
   59.2870   33.4190   48.5320 C   0  0  0  0  0  0  0  0  0  0  0  0
   59.5790   33.3190   49.7960 N   0  0  0  0  0  0  0  0  0  0  0  0
   58.8510   32.6220   50.8210 C   0  0  0  0  0  0  0  0  0  0  0  0
   58.1650   31.5720   50.5280 N   0  0  0  0  0  0  0  0  0  0  0  0
   58.0930   31.2070   49.5520 H   0  0  0  0  0  0  0  0  0  0  0  0
   57.5350   30.8940   51.6460 C   0  0  0  0  0  0  0  0  0  0  0  0
   56.4855   30.6685   51.4058 H   0  0  0  0  0  0  0  0  0  0  0  0
   58.0479   29.9456   51.8637 H   0  0  0  0  0  0  0  0  0  0  0  0
   57.6050   31.8330   52.8490 C   0  0  0  0  0  0  0  0  0  0  0  0
   56.6596   32.3866   52.9477 H   0  0  0  0  0  0  0  0  0  0  0  0
   57.7693   31.2617   53.7746 H   0  0  0  0  0  0  0  0  0  0  0  0
   58.9770   32.9950   52.5650 S   0  0  0  0  0  0  0  0  0  0  0  0
   59.2310   34.8470   47.6190 S   0  0  0  0  0  0  0  0  0  0  0  0
   58.7280   34.0360   46.2380 C   0  0  0  0  0  0  0  0  0  0  0  0
   58.5390   34.6030   44.8640 C   0  0  0  0  0  0  0  0  0  0  0  0
   57.9212   35.5105   44.9329 H   0  0  0  0  0  0  0  0  0  0  0  0
   59.5293   34.8366   44.4461 H   0  0  0  0  0  0  0  0  0  0  0  0
   57.8910   33.6610   43.9940 O   0  0  0  0  0  0  0  0  0  0  0  0
  1  2  1  0
  2  3  2  0
  2  4  1  0
  4  5  1  0
  4  6  2  0
  6  7  1  0
  6  8  1  0
  8  9  2  0
  9 10  1  0
  9 11  1  0
 11 12  1  0
 11 13  2  0
 13 14  1  0
 14 15  2  0
 15 16  1  0
 14 17  1  0
 17 18  1  0
 18 19  1  0
 19 20  2  3
 20 21  1  0
 21 22  2  0
 22 23  1  0
 22 24  1  0
 24 25  1  0
 24 26  1  0
 24 27  1  0
 27 28  1  0
 27 29  1  0
 27 30  1  0
 19 31  1  0
 31 32  1  0
 32 33  1  0
 33 34  1  0
 33 35  1  0
 33 36  1  0
 15  8  1  0
 32 17  2  0
 36 13  1  0
 30 21  1  0
M  CHG  2  18  -1  22   1
M  END
>  <UniqueID>  (27) 
27

>  <SMILES>  (27) 
O=C/C=C\c1ccc2c(c1)-c1[n-]c(=NC3=[NH+]CCS3)sc1CO2

>  <Energy>  (27) 
93.07868651232954

>  <Genealogy>  (27) 
O=CC=Cc1ccc2c(c1)-c1[n-]c(=NC3=[NH+]CCS3)sc1CO2 (protonated)
O=C/C=C\c1ccc2c(c1)-c1[n-]c(=NC3=[NH+]CCS3)sc1CO2 (cis-trans isomerization)
O=C/C=C\c1ccc2c(c1)-c1[n-]c(=NC3=[NH+]CCS3)sc1CO2 (3D coordinates assigned)
O=C/C=C\c1ccc2c(c1)-c1[n-]c(=NC3=[NH+]CCS3)sc1CO2 (nonaromatic ring conformer: 93.07868651232954 kcal/mol)

>  <smiles>  (27) 
O=CC=Cc1ccc2c(c1)-c1[nH]c(=NC3=NCCS3)sc1CO2

>  <score_type>  (27) 
oracle

>  <origin>  (27) 
adg

>  <m_score__min__energy>  (27) 
-7.46

>  <m_primary>  (27) 
energy

$$$$
27:0
     RDKit          3D

 41 44  0  0  0  0  0  0  0  0999 V2000
   56.5720   25.0980   47.5630 O   0  0  0  0  0  0  0  0  0  0  0  0
   56.3970   26.0460   46.7480 C   0  0  0  0  0  0  0  0  0  0  0  0
   55.1840   26.1160   45.9910 N   0  0  0  0  0  0  0  0  0  0  0  0
   54.4570   24.9350   45.5410 C   0  0  0  0  0  0  0  0  0  0  0  0
   55.3240   24.1250   44.6300 C   0  0  0  0  0  0  0  0  0  0  0  0
   56.5910   24.4670   44.2010 C   0  0  0  0  0  0  0  0  0  0  0  0
   56.9790   23.4540   43.3520 C   0  0  0  0  0  0  0  0  0  0  0  0
   55.9290   22.5600   43.3140 C   0  0  0  0  0  0  0  0  0  0  0  0
   54.9560   22.9880   44.0860 O   0  0  0  0  0  0  0  0  0  0  0  0
   57.4650   27.0460   46.5350 C   0  0  0  0  0  0  0  0  0  0  0  0
   58.4450   27.2700   47.5160 C   0  0  0  0  0  0  0  0  0  0  0  0
   59.4120   28.2630   47.3320 C   0  0  0  0  0  0  0  0  0  0  0  0
   59.3870   29.0640   46.1880 C   0  0  0  0  0  0  0  0  0  0  0  0
   58.4020   28.8730   45.2110 C   0  0  0  0  0  0  0  0  0  0  0  0
   58.3320   29.7690   44.0910 N   0  0  0  0  0  0  0  0  0  0  0  0
   57.3290   31.1880   44.0850 S   0  0  0  0  0  0  0  0  0  0  0  0
   56.0310   30.8720   44.7720 O   0  0  0  0  0  0  0  0  0  0  0  0
   57.0450   31.5940   42.6660 O   0  0  0  0  0  0  0  0  0  0  0  0
   58.1540   32.5180   44.8990 C   0  0  0  0  0  0  0  0  0  0  0  0
   58.5080   33.7010   44.2120 C   0  0  0  0  0  0  0  0  0  0  0  0
   59.0860   34.7900   44.9070 C   0  0  0  0  0  0  0  0  0  0  0  0
   59.3200   34.7080   46.2940 C   0  0  0  0  0  0  0  0  0  0  0  0
   58.9620   33.5260   46.9320 C   0  0  0  0  0  0  0  0  0  0  0  0
   59.0580   33.2070   48.2300 N   0  0  0  0  0  0  0  0  0  0  0  0
   58.5640   31.9950   48.3030 O   0  0  0  0  0  0  0  0  0  0  0  0
   58.1540   31.5080   47.1570 N   0  0  0  0  0  0  0  0  0  0  0  0
   58.4070   32.4820   46.2700 C   0  0  0  0  0  0  0  0  0  0  0  0
   57.4730   27.8300   45.3700 C   0  0  0  0  0  0  0  0  0  0  0  0
   54.1733   24.3264   46.4123 H   0  0  0  0  0  0  0  0  0  0  0  0
   53.5527   25.2489   44.9990 H   0  0  0  0  0  0  0  0  0  0  0  0
   57.1691   25.3606   44.4788 H   0  0  0  0  0  0  0  0  0  0  0  0
   57.9343   23.3740   42.8126 H   0  0  0  0  0  0  0  0  0  0  0  0
   55.9094   21.6302   42.7266 H   0  0  0  0  0  0  0  0  0  0  0  0
   58.4517   26.6618   48.4326 H   0  0  0  0  0  0  0  0  0  0  0  0
   60.1945   28.4138   48.0902 H   0  0  0  0  0  0  0  0  0  0  0  0
   60.1454   29.8494   46.0537 H   0  0  0  0  0  0  0  0  0  0  0  0
   59.0430   29.6860   43.3290 H   0  0  0  0  0  0  0  0  0  0  0  0
   58.3330   33.7761   43.1286 H   0  0  0  0  0  0  0  0  0  0  0  0
   59.3543   35.7063   44.3608 H   0  0  0  0  0  0  0  0  0  0  0  0
   59.7678   35.5453   46.8494 H   0  0  0  0  0  0  0  0  0  0  0  0
   56.7437   27.6256   44.5723 H   0  0  0  0  0  0  0  0  0  0  0  0
  1  2  2  0
  2  3  1  0
  3  4  1  0
  4  5  1  0
  5  6  2  0
  6  7  1  0
  7  8  2  0
  8  9  1  0
  2 10  1  0
 10 11  2  0
 11 12  1  0
 12 13  2  0
 13 14  1  0
 14 15  1  0
 15 16  1  0
 16 17  2  0
 16 18  2  0
 16 19  1  0
 19 20  2  0
 20 21  1  0
 21 22  2  0
 22 23  1  0
 23 24  2  0
 24 25  1  0
 25 26  1  0
 26 27  2  0
 14 28  2  0
  9  5  1  0
 28 10  1  0
 27 19  1  0
 27 23  1  0
  4 29  1  0
  4 30  1  0
  6 31  1  0
  7 32  1  0
  8 33  1  0
 11 34  1  0
 12 35  1  0
 13 36  1  0
 15 37  1  0
 20 38  1  0
 21 39  1  0
 22 40  1  0
 28 41  1  0
M  CHG  1   3  -1
M  END
>  <UniqueID>  (28) 
28

>  <SMILES>  (28) 
O=C([N-]Cc1ccco1)c1cccc(NS(=O)(=O)c2cccc3nonc23)c1

>  <Energy>  (28) 
113.84302570144894

>  <Genealogy>  (28) 
O=C([N-]Cc1ccco1)c1cccc(NS(=O)(=O)c2cccc3nonc23)c1 (protonated)
O=C([N-]Cc1ccco1)c1cccc(NS(=O)(=O)c2cccc3nonc23)c1 (3D coordinates assigned)
O=C([N-]Cc1ccco1)c1cccc(NS(=O)(=O)c2cccc3nonc23)c1 (optimized conformer: 113.84302570144894 kcal/mol)

>  <smiles>  (28) 
O=C(NCc1ccco1)c1cccc(NS(=O)(=O)c2cccc3nonc23)c1

>  <score_type>  (28) 
oracle

>  <origin>  (28) 
adg

>  <m_score__min__energy>  (28) 
-12.220000000000001

>  <m_primary>  (28) 
energy

$$$$
28:0
     RDKit          3D

 69 73  0  0  1  0  0  0  0  0999 V2000
   58.4490   31.8300   50.7040 C   0  0  0  0  0  0  0  0  0  0  0  0
   58.4760   31.3260   49.3730 O   0  0  0  0  0  0  0  0  0  0  0  0
   58.9490   30.0740   49.0270 C   0  0  0  0  0  0  0  0  0  0  0  0
   58.5250   29.3100   47.9980 N   0  0  0  0  0  0  0  0  0  0  0  0
   59.2090   28.1710   47.9750 N   0  0  0  0  0  0  0  0  0  0  0  0
   58.9720   27.1300   46.9680 C   0  0  0  0  0  0  0  0  0  0  0  0
   60.1060   28.1470   48.9880 C   0  0  0  0  0  0  0  0  0  0  0  0
   59.9450   29.3560   49.6610 C   0  0  0  0  0  0  0  0  0  0  0  0
   60.6830   29.7950   50.8210 N   0  0  0  0  0  0  0  0  0  0  0  0
   61.9420   30.1060   50.7430 C   0  0  0  0  0  0  0  0  0  0  0  0
   62.7590   29.6150   51.6810 N   0  0  0  0  0  0  0  0  0  0  0  0
   64.0830   29.9450   51.5800 C   0  0  0  0  0  0  0  0  0  0  0  0
   64.9630   29.3610   52.6080 C   0  0  0  0  0  0  0  0  0  0  0  0
   66.0940   28.5790   52.1330 C   0  0  0  0  0  0  0  0  0  0  0  0
   67.3420   29.0380   51.8120 C   0  0  0  0  0  0  0  0  0  0  0  0
   67.6770   30.7400   51.9560 Cl  0  0  0  0  0  0  0  0  0  0  0  0
   68.3650   28.2010   51.3590 C   0  0  0  0  0  0  0  0  0  0  0  0
   68.1340   26.8310   51.2180 C   0  0  0  0  0  0  0  0  0  0  0  0
   66.8740   26.3530   51.5390 C   0  0  0  0  0  0  0  0  0  0  0  0
   65.8870   27.1980   51.9800 C   0  0  0  0  0  0  0  0  0  0  0  0
   64.3080   26.5060   52.3680 Cl  0  0  0  0  0  0  0  0  0  0  0  0
   64.4970   30.7270   50.5750 N   0  0  0  0  0  0  0  0  0  0  0  0
   63.6930   31.2310   49.6240 C   0  0  0  0  0  0  0  0  0  0  0  0
   64.1200   32.0550   48.5720 N   0  0  0  0  0  0  0  0  0  0  0  0
   63.7490   33.4680   48.4400 C   0  0  0  0  0  0  0  0  0  0  0  0
   62.8320   33.8900   49.5310 C   0  0  0  0  0  0  0  0  0  0  0  0
   61.6300   34.5940   48.9970 C   0  0  0  0  0  0  0  0  0  0  0  0
   61.0640   34.0000   47.8170 N   0  0  0  0  0  0  0  0  0  0  0  0
   59.6380   34.0520   47.5830 C   0  0  0  0  0  0  0  0  0  0  0  0
   58.9120   34.6230   48.4490 O   0  0  0  0  0  0  0  0  0  0  0  0
   59.0640   33.4570   46.3730 C   0  0  0  0  0  0  0  0  0  0  0  0
   58.8500   34.1540   45.2090 C   0  0  0  0  0  0  0  0  0  0  0  0
   58.2980   33.4470   44.1480 C   0  0  0  0  0  0  0  0  0  0  0  0
   57.9660   32.1270   44.2070 C   0  0  0  0  0  0  0  0  0  0  0  0
   57.4000   31.3710   43.1360 C   0  0  0  0  0  0  0  0  0  0  0  0
   56.9490   30.7620   42.2560 N   0  0  0  0  0  0  0  0  0  0  0  0
   58.1920   31.4460   45.3960 C   0  0  0  0  0  0  0  0  0  0  0  0
   58.7390   32.1000   46.4820 C   0  0  0  0  0  0  0  0  0  0  0  0
   61.8720   33.3160   46.8000 C   0  0  0  0  0  0  0  0  0  0  0  0
   63.2940   33.7880   47.0470 C   0  0  0  0  0  0  0  0  0  0  0  0
   62.3510   30.9100   49.7040 C   0  0  0  0  0  0  0  0  0  0  0  0
   61.4920   31.3870   48.7760 F   0  0  0  0  0  0  0  0  0  0  0  0
   58.4939   30.9915   51.4146 H   0  0  0  0  0  0  0  0  0  0  0  0
   59.3130   32.4920   50.8630 H   0  0  0  0  0  0  0  0  0  0  0  0
   57.5192   32.3959   50.8630 H   0  0  0  0  0  0  0  0  0  0  0  0
   58.7548   26.1761   47.4709 H   0  0  0  0  0  0  0  0  0  0  0  0
   58.1160   27.4162   46.3392 H   0  0  0  0  0  0  0  0  0  0  0  0
   59.8675   27.0175   46.3392 H   0  0  0  0  0  0  0  0  0  0  0  0
   60.8145   27.3410   49.2296 H   0  0  0  0  0  0  0  0  0  0  0  0
   65.3609   30.1877   53.2148 H   0  0  0  0  0  0  0  0  0  0  0  0
   64.3307   28.6492   53.1590 H   0  0  0  0  0  0  0  0  0  0  0  0
   69.3516   28.6209   51.1136 H   0  0  0  0  0  0  0  0  0  0  0  0
   68.9257   26.1543   50.8640 H   0  0  0  0  0  0  0  0  0  0  0  0
   66.6613   25.2784   51.4387 H   0  0  0  0  0  0  0  0  0  0  0  0
   65.5080   30.9660   50.5010 H   0  0  0  0  0  0  0  0  0  0  0  0
   64.7370   31.6890   47.8190 H   0  0  0  0  0  0  0  0  0  0  0  0
   64.6435   34.0926   48.5803 H   0  0  0  0  0  0  0  0  0  0  0  0
   62.5059   32.9991   50.0877 H   0  0  0  0  0  0  0  0  0  0  0  0
   63.3753   34.5862   50.1868 H   0  0  0  0  0  0  0  0  0  0  0  0
   60.8591   34.6001   49.7816 H   0  0  0  0  0  0  0  0  0  0  0  0
   61.9614   35.6029   48.7100 H   0  0  0  0  0  0  0  0  0  0  0  0
   59.1035   35.2208   45.1210 H   0  0  0  0  0  0  0  0  0  0  0  0
   58.1185   33.9845   43.2052 H   0  0  0  0  0  0  0  0  0  0  0  0
   57.9338   30.3795   45.4730 H   0  0  0  0  0  0  0  0  0  0  0  0
   58.9176   31.5599   47.4235 H   0  0  0  0  0  0  0  0  0  0  0  0
   61.8005   32.2248   46.9187 H   0  0  0  0  0  0  0  0  0  0  0  0
   61.5318   33.5441   45.7791 H   0  0  0  0  0  0  0  0  0  0  0  0
   63.9643   33.2916   46.3299 H   0  0  0  0  0  0  0  0  0  0  0  0
   63.3206   34.8802   46.9193 H   0  0  0  0  0  0  0  0  0  0  0  0
  1  2  1  0
  2  3  1  0
  3  4  2  0
  4  5  1  0
  5  6  1  0
  5  7  1  0
  7  8  2  0
  8  9  1  0
  9 10  2  0
 10 11  1  0
 11 12  2  0
 12 13  1  0
 13 14  1  0
 14 15  2  0
 15 16  1  0
 15 17  1  0
 17 18  2  0
 18 19  1  0
 19 20  2  0
 20 21  1  0
 12 22  1  0
 22 23  1  0
 23 24  1  0
 24 25  1  0
 25 26  1  0
 26 27  1  0
 27 28  1  0
 28 29  1  0
 29 30  2  0
 29 31  1  0
 31 32  2  0
 32 33  1  0
 33 34  2  0
 34 35  1  0
 35 36  3  0
 34 37  1  0
 37 38  2  0
 28 39  1  0
 39 40  1  0
 23 41  2  0
 41 42  1  0
  8  3  1  0
 41 10  1  0
 20 14  1  0
 40 25  1  0
 38 31  1  0
  1 43  1  0
  1 44  1  0
  1 45  1  0
  6 46  1  0
  6 47  1  0
  6 48  1  0
  7 49  1  0
 13 50  1  0
 13 51  1  0
 17 52  1  0
 18 53  1  0
 19 54  1  0
 22 55  1  0
 24 56  1  0
 25 57  1  0
 26 58  1  0
 26 59  1  0
 27 60  1  0
 27 61  1  0
 32 62  1  0
 33 63  1  0
 37 64  1  0
 38 65  1  0
 39 66  1  0
 39 67  1  0
 40 68  1  0
 40 69  1  0
M  END
>  <smiles>  (29) 
COc1nn(C)cc1N=c1nc(Cc2c(Cl)cccc2Cl)[nH]c(NC2CCN(C(=O)c3ccc(C#N)cc3)CC2)c1F

>  <score_type>  (29) 
oracle

>  <origin>  (29) 
adg

>  <m_score__min__energy>  (29) 
-9.8300000000000001

>  <m_primary>  (29) 
energy

$$$$
29:0
     RDKit          3D

 48 49  0  0  0  0  0  0  0  0999 V2000
   59.0390   34.8910   45.3570 O   0  0  0  0  0  0  0  0  0  0  0  0
   57.8620   33.9590   45.2800 S   0  0  0  0  0  0  0  0  0  0  0  0
   56.6590   34.7230   44.8030 O   0  0  0  0  0  0  0  0  0  0  0  0
   58.2160   32.6250   44.1390 C   0  0  0  0  0  0  0  0  0  0  0  0
   57.0650   31.6210   44.0610 C   0  0  0  0  0  0  0  0  0  0  0  0
   56.9950   30.8580   45.2360 O   0  0  0  0  0  0  0  0  0  0  0  0
   57.5070   33.3040   46.9060 C   0  0  0  0  0  0  0  0  0  0  0  0
   58.7190   33.4230   47.8340 C   0  0  0  0  0  0  0  0  0  0  0  0
   59.0250   32.0820   48.5140 C   0  0  0  0  0  0  0  0  0  0  0  0
   59.0510   30.9930   47.5130 N   0  0  0  0  0  0  0  0  0  0  0  0
   58.7770   29.6620   48.1160 C   0  0  0  0  0  0  0  0  0  0  0  0
   60.0510   28.8150   48.2810 C   0  0  0  0  0  0  0  0  0  0  0  0
   60.7540   28.5960   46.9920 N   0  0  0  0  0  0  0  0  0  0  0  0
   60.4110   27.2830   46.4040 C   0  0  0  0  0  0  0  0  0  0  0  0
   58.9170   27.1090   46.3090 C   0  0  0  0  0  0  0  0  0  0  0  0
   58.2850   26.0640   47.0020 C   0  0  0  0  0  0  0  0  0  0  0  0
   56.9020   25.8830   46.8970 C   0  0  0  0  0  0  0  0  0  0  0  0
   56.1420   26.7400   46.0970 C   0  0  0  0  0  0  0  0  0  0  0  0
   54.7690   26.5590   45.9930 O   0  0  0  0  0  0  0  0  0  0  0  0
   56.7650   27.7790   45.3980 C   0  0  0  0  0  0  0  0  0  0  0  0
   58.1470   27.9630   45.5000 C   0  0  0  0  0  0  0  0  0  0  0  0
   60.5500   29.6970   46.0180 C   0  0  0  0  0  0  0  0  0  0  0  0
   60.3030   31.0340   46.7250 C   0  0  0  0  0  0  0  0  0  0  0  0
   58.3867   33.0487   43.1384 H   0  0  0  0  0  0  0  0  0  0  0  0
   59.1081   32.0935   44.5020 H   0  0  0  0  0  0  0  0  0  0  0  0
   56.1187   32.1656   43.9267 H   0  0  0  0  0  0  0  0  0  0  0  0
   57.2399   30.9464   43.2099 H   0  0  0  0  0  0  0  0  0  0  0  0
   57.8570   30.9760   45.7130 H   0  0  0  0  0  0  0  0  0  0  0  0
   56.6665   33.8642   47.3416 H   0  0  0  0  0  0  0  0  0  0  0  0
   57.2544   32.2385   46.8020 H   0  0  0  0  0  0  0  0  0  0  0  0
   59.5938   33.7354   47.2448 H   0  0  0  0  0  0  0  0  0  0  0  0
   58.4927   34.1668   48.6122 H   0  0  0  0  0  0  0  0  0  0  0  0
   60.0048   32.1421   49.0104 H   0  0  0  0  0  0  0  0  0  0  0  0
   58.2399   31.8688   49.2544 H   0  0  0  0  0  0  0  0  0  0  0  0
   58.3217   29.8106   49.1063 H   0  0  0  0  0  0  0  0  0  0  0  0
   58.1019   29.1206   47.4369 H   0  0  0  0  0  0  0  0  0  0  0  0
   60.7326   29.3326   48.9720 H   0  0  0  0  0  0  0  0  0  0  0  0
   59.7522   27.8313   48.6722 H   0  0  0  0  0  0  0  0  0  0  0  0
   60.8461   27.2153   45.3960 H   0  0  0  0  0  0  0  0  0  0  0  0
   60.8161   26.4916   47.0518 H   0  0  0  0  0  0  0  0  0  0  0  0
   58.8801   25.3848   47.6301 H   0  0  0  0  0  0  0  0  0  0  0  0
   56.4120   25.0647   47.4451 H   0  0  0  0  0  0  0  0  0  0  0  0
   56.1665   28.4525   44.7669 H   0  0  0  0  0  0  0  0  0  0  0  0
   58.6337   28.7788   44.9454 H   0  0  0  0  0  0  0  0  0  0  0  0
   61.4465   29.7867   45.3870 H   0  0  0  0  0  0  0  0  0  0  0  0
   59.6649   29.4598   45.4095 H   0  0  0  0  0  0  0  0  0  0  0  0
   61.1459   31.2456   47.3994 H   0  0  0  0  0  0  0  0  0  0  0  0
   60.2123   31.8222   45.9631 H   0  0  0  0  0  0  0  0  0  0  0  0
  1  2  2  0
  2  3  2  0
  2  4  1  0
  4  5  1  0
  5  6  1  0
  2  7  1  0
  7  8  1  0
  8  9  1  0
  9 10  1  0
 10 11  1  0
 11 12  1  0
 12 13  1  0
 13 14  1  0
 14 15  1  0
 15 16  2  0
 16 17  1  0
 17 18  2  0
 18 19  1  0
 18 20  1  0
 20 21  2  0
 13 22  1  0
 22 23  1  0
 23 10  1  0
 21 15  1  0
  4 24  1  0
  4 25  1  0
  5 26  1  0
  5 27  1  0
  6 28  1  0
  7 29  1  0
  7 30  1  0
  8 31  1  0
  8 32  1  0
  9 33  1  0
  9 34  1  0
 11 35  1  0
 11 36  1  0
 12 37  1  0
 12 38  1  0
 14 39  1  0
 14 40  1  0
 16 41  1  0
 17 42  1  0
 20 43  1  0
 21 44  1  0
 22 45  1  0
 22 46  1  0
 23 47  1  0
 23 48  1  0
M  CHG  1  19  -1
M  END
>  <UniqueID>  (30) 
29

>  <SMILES>  (30) 
O=S(=O)(CCO)CCCN1CCN(Cc2ccc([O-])cc2)CC1

>  <Energy>  (30) 
47.73002357926922

>  <Genealogy>  (30) 
O=S(=O)(CCO)CCCN1CCN(Cc2ccc([O-])cc2)CC1 (protonated)
O=S(=O)(CCO)CCCN1CCN(Cc2ccc([O-])cc2)CC1 (3D coordinates assigned)
O=S(=O)(CCO)CCCN1CCN(Cc2ccc([O-])cc2)CC1 (nonaromatic ring conformer: 47.73002357926922 kcal/mol)

>  <smiles>  (30) 
O=S(=O)(CCO)CCCN1CCN(Cc2ccc(O)cc2)CC1

>  <score_type>  (30) 
oracle

>  <origin>  (30) 
adg

>  <m_score__min__energy>  (30) 
-10.300000000000001

>  <m_primary>  (30) 
energy

$$$$
30:0
     RDKit          3D

 50 53  0  0  0  0  0  0  0  0999 V2000
   59.9038   27.4263   49.4155 H   0  0  0  0  0  0  0  0  0  0  0  0
   60.1630   28.2030   48.6810 C   0  0  0  0  0  0  0  0  0  0  0  0
   60.2890   29.5140   49.0120 N   0  0  0  0  0  0  0  0  0  0  0  0
   60.6260   30.2680   47.9390 C   0  0  0  0  0  0  0  0  0  0  0  0
   60.7940   31.5570   47.9750 N   0  0  0  0  0  0  0  0  0  0  0  0
   61.7190   32.2780   48.8120 C   0  0  0  0  0  0  0  0  0  0  0  0
   63.0040   31.7730   49.0860 C   0  0  0  0  0  0  0  0  0  0  0  0
   63.3084   30.8024   48.6673 H   0  0  0  0  0  0  0  0  0  0  0  0
   63.8960   32.4920   49.8840 C   0  0  0  0  0  0  0  0  0  0  0  0
   64.8877   32.0732   50.1100 H   0  0  0  0  0  0  0  0  0  0  0  0
   63.5350   33.7430   50.3980 C   0  0  0  0  0  0  0  0  0  0  0  0
   64.4780   34.4940   51.2910 C   0  0  0  0  0  0  0  0  0  0  0  0
   64.2256   34.2930   52.3426 H   0  0  0  0  0  0  0  0  0  0  0  0
   65.5094   34.1673   51.0926 H   0  0  0  0  0  0  0  0  0  0  0  0
   64.3904   35.5724   51.0926 H   0  0  0  0  0  0  0  0  0  0  0  0
   62.2650   34.2630   50.1150 C   0  0  0  0  0  0  0  0  0  0  0  0
   61.9706   35.2376   50.5316 H   0  0  0  0  0  0  0  0  0  0  0  0
   61.3630   33.5520   49.3040 C   0  0  0  0  0  0  0  0  0  0  0  0
   60.0100   34.1380   49.0080 C   0  0  0  0  0  0  0  0  0  0  0  0
   59.4928   34.3620   49.9526 H   0  0  0  0  0  0  0  0  0  0  0  0
   60.1307   35.0645   48.4274 H   0  0  0  0  0  0  0  0  0  0  0  0
   59.4168   33.4161   48.4274 H   0  0  0  0  0  0  0  0  0  0  0  0
   60.7590   29.3520   46.5340 S   0  0  0  0  0  0  0  0  0  0  0  0
   60.3880   27.9230   47.3400 C   0  0  0  0  0  0  0  0  0  0  0  0
   60.3440   26.2960   46.5970 S   0  0  0  0  0  0  0  0  0  0  0  0
   58.5610   26.3160   46.4170 C   0  0  0  0  0  0  0  0  0  0  0  0
   57.8100   25.1870   46.7670 C   0  0  0  0  0  0  0  0  0  0  0  0
   58.3145   24.2907   47.1572 H   0  0  0  0  0  0  0  0  0  0  0  0
   56.4200   25.1980   46.6210 C   0  0  0  0  0  0  0  0  0  0  0  0
   55.8317   24.3127   46.9039 H   0  0  0  0  0  0  0  0  0  0  0  0
   55.7750   26.3320   46.1160 C   0  0  0  0  0  0  0  0  0  0  0  0
   54.3940   26.3240   45.9580 O   0  0  0  0  0  0  0  0  0  0  0  0
   56.5270   27.4640   45.7590 C   0  0  0  0  0  0  0  0  0  0  0  0
   55.8850   28.6300   45.2440 N   0  0  0  0  0  0  0  0  0  0  0  0
   56.5640   29.4950   43.9110 S   0  0  0  0  0  0  0  0  0  0  0  0
   55.4840   29.8820   42.9410 O   0  0  0  0  0  0  0  0  0  0  0  0
   57.5530   28.6120   43.2030 O   0  0  0  0  0  0  0  0  0  0  0  0
   57.3820   30.9300   44.5160 C   0  0  0  0  0  0  0  0  0  0  0  0
   57.7850   31.0040   45.8580 C   0  0  0  0  0  0  0  0  0  0  0  0
   57.6193   30.1485   46.5293 H   0  0  0  0  0  0  0  0  0  0  0  0
   58.3970   32.1640   46.3430 C   0  0  0  0  0  0  0  0  0  0  0  0
   58.7159   32.2183   47.3944 H   0  0  0  0  0  0  0  0  0  0  0  0
   58.6040   33.2540   45.4940 C   0  0  0  0  0  0  0  0  0  0  0  0
   59.0891   34.1642   45.8765 H   0  0  0  0  0  0  0  0  0  0  0  0
   58.1950   33.1890   44.1580 C   0  0  0  0  0  0  0  0  0  0  0  0
   58.3557   34.0487   43.4909 H   0  0  0  0  0  0  0  0  0  0  0  0
   57.5820   32.0310   43.6710 C   0  0  0  0  0  0  0  0  0  0  0  0
   57.2555   31.9833   42.6217 H   0  0  0  0  0  0  0  0  0  0  0  0
   57.9180   27.4510   45.9090 C   0  0  0  0  0  0  0  0  0  0  0  0
   58.5082   28.3354   45.6269 H   0  0  0  0  0  0  0  0  0  0  0  0
  1  2  1  0
  2  3  1  0
  3  4  1  0
  4  5  2  0
  5  6  1  0
  6  7  2  0
  7  8  1  0
  7  9  1  0
  9 10  1  0
  9 11  2  0
 11 12  1  0
 12 13  1  0
 12 14  1  0
 12 15  1  0
 11 16  1  0
 16 17  1  0
 16 18  2  0
 18 19  1  0
 19 20  1  0
 19 21  1  0
 19 22  1  0
  4 23  1  0
 23 24  1  0
 24 25  1  0
 25 26  1  0
 26 27  2  0
 27 28  1  0
 27 29  1  0
 29 30  1  0
 29 31  2  0
 31 32  1  0
 31 33  1  0
 33 34  1  0
 34 35  1  0
 35 36  2  0
 35 37  2  0
 35 38  1  0
 38 39  2  0
 39 40  1  0
 39 41  1  0
 41 42  1  0
 41 43  2  0
 43 44  1  0
 43 45  1  0
 45 46  1  0
 45 47  2  0
 47 48  1  0
 33 49  2  0
 49 50  1  0
 24  2  2  0
 49 26  1  0
 18  6  1  0
 47 38  1  0
M  CHG  3   3  -1  32  -1  34  -1
M  END
>  <UniqueID>  (31) 
30

>  <SMILES>  (31) 
Cc1ccc(/N=c2\[n-]cc(Sc3ccc([O-])c([N-]S(=O)(=O)c4ccccc4)c3)s2)c(C)c1

>  <Energy>  (31) 
91.5957739572081

>  <Genealogy>  (31) 
Cc1ccc(N=c2[n-]cc(Sc3ccc([O-])c([N-]S(=O)(=O)c4ccccc4)c3)s2)c(C)c1 (protonated)
Cc1ccc(/N=c2\[n-]cc(Sc3ccc([O-])c([N-]S(=O)(=O)c4ccccc4)c3)s2)c(C)c1 (cis-trans isomerization)
Cc1ccc(/N=c2\[n-]cc(Sc3ccc([O-])c([N-]S(=O)(=O)c4ccccc4)c3)s2)c(C)c1 (3D coordinates assigned)
Cc1ccc(/N=c2\[n-]cc(Sc3ccc([O-])c([N-]S(=O)(=O)c4ccccc4)c3)s2)c(C)c1 (optimized conformer: 91.5957739572081 kcal/mol)

>  <smiles>  (31) 
Cc1ccc(N=c2[nH]cc(Sc3ccc(O)c(NS(=O)(=O)c4ccccc4)c3)s2)c(C)c1

>  <score_type>  (31) 
oracle

>  <origin>  (31) 
adg

>  <m_score__min__energy>  (31) 
-16.699999999999999

>  <m_primary>  (31) 
energy

$$$$
31:0
     RDKit          3D

 59 62  0  0  0  0  0  0  0  0999 V2000
   59.2370   35.3490   44.8820 C   0  0  0  0  0  0  0  0  0  0  0  0
   58.7330   33.9630   45.1720 C   0  0  0  0  0  0  0  0  0  0  0  0
   58.3370   33.1270   44.1130 C   0  0  0  0  0  0  0  0  0  0  0  0
   57.8230   31.8550   44.3680 C   0  0  0  0  0  0  0  0  0  0  0  0
   57.7090   31.3990   45.6800 C   0  0  0  0  0  0  0  0  0  0  0  0
   57.1160   30.1240   45.9440 N   0  0  0  0  0  0  0  0  0  0  0  0
   56.6780   29.2060   44.9380 C   0  0  0  0  0  0  0  0  0  0  0  0
   55.5800   29.4340   44.3650 O   0  0  0  0  0  0  0  0  0  0  0  0
   57.5630   28.0660   44.4580 C   0  0  0  0  0  0  0  0  0  0  0  0
   57.5440   26.8980   45.4830 C   0  0  0  0  0  0  0  0  0  0  0  0
   58.8360   26.7760   46.3080 C   0  0  0  0  0  0  0  0  0  0  0  0
   59.4330   28.0950   46.5370 N   0  0  0  0  0  0  0  0  0  0  0  0
   59.4670   28.6370   47.8690 C   0  0  0  0  0  0  0  0  0  0  0  0
   58.3890   28.7380   48.5150 O   0  0  0  0  0  0  0  0  0  0  0  0
   60.7530   29.0660   48.5450 C   0  0  0  0  0  0  0  0  0  0  0  0
   61.1910   30.5120   48.3010 C   0  0  0  0  0  0  0  0  0  0  0  0
   61.0510   30.7970   49.7930 C   0  0  0  0  0  0  0  0  0  0  0  0
   60.6160   29.3550   50.0350 C   0  0  0  0  0  0  0  0  0  0  0  0
   59.8060   28.9230   45.3800 C   0  0  0  0  0  0  0  0  0  0  0  0
   59.0010   28.5310   44.1270 C   0  0  0  0  0  0  0  0  0  0  0  0
   58.1100   32.2120   46.7440 C   0  0  0  0  0  0  0  0  0  0  0  0
   58.6210   33.5020   46.5010 C   0  0  0  0  0  0  0  0  0  0  0  0
   58.9230   34.3900   47.5900 N   0  0  0  0  0  0  0  0  0  0  0  0
   59.9200   34.1750   48.5940 C   0  0  0  0  0  0  0  0  0  0  0  0
   59.5720   34.1870   49.8070 O   0  0  0  0  0  0  0  0  0  0  0  0
   61.3340   33.9020   48.2490 C   0  0  0  0  0  0  0  0  0  0  0  0
   61.6890   33.7970   46.8920 C   0  0  0  0  0  0  0  0  0  0  0  0
   63.0190   33.5760   46.5230 C   0  0  0  0  0  0  0  0  0  0  0  0
   64.0090   33.4600   47.4990 C   0  0  0  0  0  0  0  0  0  0  0  0
   63.6700   33.5510   48.8510 C   0  0  0  0  0  0  0  0  0  0  0  0
   62.3380   33.7520   49.2370 C   0  0  0  0  0  0  0  0  0  0  0  0
   62.0480   33.7520   50.6050 O   0  0  0  0  0  0  0  0  0  0  0  0
   59.4283   35.8752   45.8289 H   0  0  0  0  0  0  0  0  0  0  0  0
   60.1698   35.2862   44.3025 H   0  0  0  0  0  0  0  0  0  0  0  0
   58.4817   35.9000   44.3025 H   0  0  0  0  0  0  0  0  0  0  0  0
   58.4332   33.4786   43.0751 H   0  0  0  0  0  0  0  0  0  0  0  0
   57.5077   31.2119   43.5331 H   0  0  0  0  0  0  0  0  0  0  0  0
   57.1456   27.6944   43.5105 H   0  0  0  0  0  0  0  0  0  0  0  0
   56.7041   27.0575   46.1752 H   0  0  0  0  0  0  0  0  0  0  0  0
   57.4427   25.9668   44.9062 H   0  0  0  0  0  0  0  0  0  0  0  0
   58.6024   26.3124   47.2778 H   0  0  0  0  0  0  0  0  0  0  0  0
   59.5534   26.1559   45.7506 H   0  0  0  0  0  0  0  0  0  0  0  0
   61.3853   28.2412   48.1845 H   0  0  0  0  0  0  0  0  0  0  0  0
   62.2170   30.6132   47.9175 H   0  0  0  0  0  0  0  0  0  0  0  0
   60.6703   31.1371   47.5606 H   0  0  0  0  0  0  0  0  0  0  0  0
   61.9951   31.0692   50.2876 H   0  0  0  0  0  0  0  0  0  0  0  0
   60.4242   31.6310   50.1416 H   0  0  0  0  0  0  0  0  0  0  0  0
   61.3048   28.7783   50.6698 H   0  0  0  0  0  0  0  0  0  0  0  0
   59.6746   29.1375   50.5608 H   0  0  0  0  0  0  0  0  0  0  0  0
   59.6084   29.9789   45.6167 H   0  0  0  0  0  0  0  0  0  0  0  0
   60.8739   28.7639   45.1697 H   0  0  0  0  0  0  0  0  0  0  0  0
   58.9431   29.4034   43.4595 H   0  0  0  0  0  0  0  0  0  0  0  0
   59.5204   27.6862   43.6512 H   0  0  0  0  0  0  0  0  0  0  0  0
   58.0261   31.8424   47.7767 H   0  0  0  0  0  0  0  0  0  0  0  0
   60.9149   33.8894   46.1160 H   0  0  0  0  0  0  0  0  0  0  0  0
   63.2860   33.4932   45.4591 H   0  0  0  0  0  0  0  0  0  0  0  0
   65.0561   33.2969   47.2040 H   0  0  0  0  0  0  0  0  0  0  0  0
   64.4539   33.4643   49.6178 H   0  0  0  0  0  0  0  0  0  0  0  0
   61.1060   33.8080   50.9700 H   0  0  0  0  0  0  0  0  0  0  0  0
  1  2  1  0
  2  3  2  0
  3  4  1  0
  4  5  2  0
  5  6  1  0
  6  7  1  0
  7  8  2  0
  7  9  1  0
  9 10  1  0
 10 11  1  0
 11 12  1  0
 12 13  1  0
 13 14  2  0
 13 15  1  0
 15 16  1  0
 16 17  1  0
 17 18  1  0
 12 19  1  0
 19 20  1  0
  5 21  1  0
 21 22  2  0
 22 23  1  0
 23 24  1  0
 24 25  2  0
 24 26  1  0
 26 27  2  0
 27 28  1  0
 28 29  2  0
 29 30  1  0
 30 31  2  0
 31 32  1  0
 22  2  1  0
 31 26  1  0
 20  9  1  0
 18 15  1  0
  1 33  1  0
  1 34  1  0
  1 35  1  0
  3 36  1  0
  4 37  1  0
  9 38  1  0
 10 39  1  0
 10 40  1  0
 11 41  1  0
 11 42  1  0
 15 43  1  0
 16 44  1  0
 16 45  1  0
 17 46  1  0
 17 47  1  0
 18 48  1  0
 18 49  1  0
 19 50  1  0
 19 51  1  0
 20 52  1  0
 20 53  1  0
 21 54  1  0
 27 55  1  0
 28 56  1  0
 29 57  1  0
 30 58  1  0
 32 59  1  0
M  CHG  2   6  -1  23  -1
M  END
>  <UniqueID>  (32) 
31

>  <SMILES>  (32) 
Cc1ccc([N-]C(=O)C2CCN(C(=O)C3CCC3)CC2)cc1[N-]C(=O)c1ccccc1O

>  <Energy>  (32) 
146.62686028484904

>  <Genealogy>  (32) 
Cc1ccc([N-]C(=O)C2CCN(C(=O)C3CCC3)CC2)cc1[N-]C(=O)c1ccccc1O (protonated)
Cc1ccc([N-]C(=O)C2CCN(C(=O)C3CCC3)CC2)cc1[N-]C(=O)c1ccccc1O (3D coordinates assigned)
Cc1ccc([N-]C(=O)C2CCN(C(=O)C3CCC3)CC2)cc1[N-]C(=O)c1ccccc1O (nonaromatic ring conformer: 146.62686028484904 kcal/mol)

>  <smiles>  (32) 
Cc1ccc(NC(=O)C2CCN(C(=O)C3CCC3)CC2)cc1NC(=O)c1ccccc1O

>  <score_type>  (32) 
oracle

>  <origin>  (32) 
adg

>  <m_score__min__energy>  (32) 
-12.98

>  <m_primary>  (32) 
energy

$$$$
32:0
     RDKit          3D

 68 72  0  0  0  0  0  0  0  0999 V2000
   55.1100   26.4580   46.0260 O   0  0  0  0  0  0  0  0  0  0  0  0
   56.3220   26.7980   45.9600 C   0  0  0  0  0  0  0  0  0  0  0  0
   57.3360   25.9280   46.4870 N   0  0  0  0  0  0  0  0  0  0  0  0
   57.0420   24.5630   46.9190 C   0  0  0  0  0  0  0  0  0  0  0  0
   56.8760   23.6660   45.7230 C   0  0  0  0  0  0  0  0  0  0  0  0
   57.1370   24.1440   44.4280 C   0  0  0  0  0  0  0  0  0  0  0  0
   57.0210   23.2910   43.3260 C   0  0  0  0  0  0  0  0  0  0  0  0
   56.6460   21.9560   43.5080 C   0  0  0  0  0  0  0  0  0  0  0  0
   56.3870   21.4720   44.7950 C   0  0  0  0  0  0  0  0  0  0  0  0
   55.9290   19.7950   45.0240 Cl  0  0  0  0  0  0  0  0  0  0  0  0
   56.5000   22.3230   45.8990 C   0  0  0  0  0  0  0  0  0  0  0  0
   56.6910   28.0840   45.3280 C   0  0  0  0  0  0  0  0  0  0  0  0
   58.0350   28.4500   45.1650 C   0  0  0  0  0  0  0  0  0  0  0  0
   58.3490   29.6840   44.5860 C   0  0  0  0  0  0  0  0  0  0  0  0
   59.5560   30.0170   44.4450 O   0  0  0  0  0  0  0  0  0  0  0  0
   57.3280   30.5470   44.1700 C   0  0  0  0  0  0  0  0  0  0  0  0
   57.6770   31.7860   43.6040 O   0  0  0  0  0  0  0  0  0  0  0  0
   57.4310   33.0610   44.1950 C   0  0  0  0  0  0  0  0  0  0  0  0
   58.1440   33.1930   45.5160 C   0  0  0  0  0  0  0  0  0  0  0  0
   57.7790   32.3810   46.6000 C   0  0  0  0  0  0  0  0  0  0  0  0
   58.4030   32.5370   47.8410 C   0  0  0  0  0  0  0  0  0  0  0  0
   59.3840   33.5250   48.0230 C   0  0  0  0  0  0  0  0  0  0  0  0
   60.0210   33.7030   49.3450 C   0  0  0  0  0  0  0  0  0  0  0  0
   59.5250   34.5350   50.1540 O   0  0  0  0  0  0  0  0  0  0  0  0
   61.2150   32.9780   49.7070 N   0  0  0  0  0  0  0  0  0  0  0  0
   61.5240   32.7150   51.1180 C   0  0  0  0  0  0  0  0  0  0  0  0
   62.8360   33.4130   51.4880 C   0  0  0  0  0  0  0  0  0  0  0  0
   63.8840   33.1380   50.4900 N   0  0  0  0  0  0  0  0  0  0  0  0
   65.2520   33.4790   50.7870 C   0  0  0  0  0  0  0  0  0  0  0  0
   66.3040   32.7510   50.2020 C   0  0  0  0  0  0  0  0  0  0  0  0
   67.6340   33.0940   50.4660 C   0  0  0  0  0  0  0  0  0  0  0  0
   67.9280   34.1630   51.3140 C   0  0  0  0  0  0  0  0  0  0  0  0
   66.8920   34.8920   51.9030 C   0  0  0  0  0  0  0  0  0  0  0  0
   65.5590   34.5550   51.6430 C   0  0  0  0  0  0  0  0  0  0  0  0
   64.5750   35.3110   52.1890 F   0  0  0  0  0  0  0  0  0  0  0  0
   63.5830   32.3050   49.3150 C   0  0  0  0  0  0  0  0  0  0  0  0
   62.2470   32.7210   48.6870 C   0  0  0  0  0  0  0  0  0  0  0  0
   59.7600   34.3250   46.9330 C   0  0  0  0  0  0  0  0  0  0  0  0
   59.1390   34.1680   45.6920 C   0  0  0  0  0  0  0  0  0  0  0  0
   55.9940   30.1400   44.3460 C   0  0  0  0  0  0  0  0  0  0  0  0
   55.7150   28.9390   44.9140 N   0  0  0  0  0  0  0  0  0  0  0  0
   58.3300   26.2520   46.5270 H   0  0  0  0  0  0  0  0  0  0  0  0
   57.8706   24.1916   47.5399 H   0  0  0  0  0  0  0  0  0  0  0  0
   56.1085   24.5630   47.5009 H   0  0  0  0  0  0  0  0  0  0  0  0
   57.4336   25.1929   44.2804 H   0  0  0  0  0  0  0  0  0  0  0  0
   57.2251   23.6708   42.3140 H   0  0  0  0  0  0  0  0  0  0  0  0
   56.5547   21.2868   42.6397 H   0  0  0  0  0  0  0  0  0  0  0  0
   56.2938   21.9398   46.9093 H   0  0  0  0  0  0  0  0  0  0  0  0
   58.8370   27.7711   45.4904 H   0  0  0  0  0  0  0  0  0  0  0  0
   57.7879   33.8476   43.5139 H   0  0  0  0  0  0  0  0  0  0  0  0
   56.3497   33.1624   44.3698 H   0  0  0  0  0  0  0  0  0  0  0  0
   56.9975   31.6174   46.4728 H   0  0  0  0  0  0  0  0  0  0  0  0
   58.1240   31.8822   48.6797 H   0  0  0  0  0  0  0  0  0  0  0  0
   60.7112   33.1016   51.7503 H   0  0  0  0  0  0  0  0  0  0  0  0
   61.6259   31.6313   51.2769 H   0  0  0  0  0  0  0  0  0  0  0  0
   62.6637   34.4983   51.5380 H   0  0  0  0  0  0  0  0  0  0  0  0
   63.1727   33.0292   52.4623 H   0  0  0  0  0  0  0  0  0  0  0  0
   66.0793   31.9071   49.5331 H   0  0  0  0  0  0  0  0  0  0  0  0
   68.4506   32.5197   50.0041 H   0  0  0  0  0  0  0  0  0  0  0  0
   68.9750   34.4313   51.5184 H   0  0  0  0  0  0  0  0  0  0  0  0
   67.1247   35.7330   52.5728 H   0  0  0  0  0  0  0  0  0  0  0  0
   64.3849   32.4250   48.5717 H   0  0  0  0  0  0  0  0  0  0  0  0
   63.5136   31.2543   49.6332 H   0  0  0  0  0  0  0  0  0  0  0  0
   62.4011   33.6375   48.0986 H   0  0  0  0  0  0  0  0  0  0  0  0
   61.8981   31.8943   48.0508 H   0  0  0  0  0  0  0  0  0  0  0  0
   60.5494   35.0810   47.0570 H   0  0  0  0  0  0  0  0  0  0  0  0
   59.4307   34.8111   44.8486 H   0  0  0  0  0  0  0  0  0  0  0  0
   55.1733   30.7970   44.0223 H   0  0  0  0  0  0  0  0  0  0  0  0
  1  2  2  0
  2  3  1  0
  3  4  1  0
  4  5  1  0
  5  6  2  0
  6  7  1  0
  7  8  2  0
  8  9  1  0
  9 10  1  0
  9 11  2  0
  2 12  1  0
 12 13  2  0
 13 14  1  0
 14 15  2  0
 14 16  1  0
 16 17  1  0
 17 18  1  0
 18 19  1  0
 19 20  2  0
 20 21  1  0
 21 22  2  0
 22 23  1  0
 23 24  2  0
 23 25  1  0
 25 26  1  0
 26 27  1  0
 27 28  1  0
 28 29  1  0
 29 30  2  0
 30 31  1  0
 31 32  2  0
 32 33  1  0
 33 34  2  0
 34 35  1  0
 28 36  1  0
 36 37  1  0
 22 38  1  0
 38 39  2  0
 16 40  2  0
 40 41  1  0
 11  5  1  0
 41 12  1  0
 39 19  1  0
 37 25  1  0
 34 29  1  0
  3 42  1  0
  4 43  1  0
  4 44  1  0
  6 45  1  0
  7 46  1  0
  8 47  1  0
 11 48  1  0
 13 49  1  0
 18 50  1  0
 18 51  1  0
 20 52  1  0
 21 53  1  0
 26 54  1  0
 26 55  1  0
 27 56  1  0
 27 57  1  0
 30 58  1  0
 31 59  1  0
 32 60  1  0
 33 61  1  0
 36 62  1  0
 36 63  1  0
 37 64  1  0
 37 65  1  0
 38 66  1  0
 39 67  1  0
 40 68  1  0
M  CHG  1  41  -1
M  END
>  <UniqueID>  (33) 
32

>  <SMILES>  (33) 
O=C(NCc1cccc(Cl)c1)c1cc(=O)c(OCc2ccc(C(=O)N3CCN(c4ccccc4F)CC3)cc2)c[n-]1

>  <Energy>  (33) 
83.58167173806409

>  <Genealogy>  (33) 
O=C(NCc1cccc(Cl)c1)c1cc(=O)c(OCc2ccc(C(=O)N3CCN(c4ccccc4F)CC3)cc2)c[n-]1 (protonated)
O=C(NCc1cccc(Cl)c1)c1cc(=O)c(OCc2ccc(C(=O)N3CCN(c4ccccc4F)CC3)cc2)c[n-]1 (3D coordinates assigned)
O=C(NCc1cccc(Cl)c1)c1cc(=O)c(OCc2ccc(C(=O)N3CCN(c4ccccc4F)CC3)cc2)c[n-]1 (nonaromatic ring conformer: 83.58167173806409 kcal/mol)

>  <smiles>  (33) 
O=C(NCc1cccc(Cl)c1)c1cc(=O)c(OCc2ccc(C(=O)N3CCN(c4ccccc4F)CC3)cc2)c[nH]1

>  <score_type>  (33) 
oracle

>  <origin>  (33) 
adg

>  <m_score__min__energy>  (33) 
-12.640000000000001

>  <m_primary>  (33) 
energy

$$$$
33:0
     RDKit          3D

 60 63  0  0  0  0  0  0  0  0999 V2000
   60.6091   35.5830   47.5643 H   0  0  0  0  0  0  0  0  0  0  0  0
   60.0140   34.6680   47.7010 C   0  0  0  0  0  0  0  0  0  0  0  0
   59.6170   33.9500   46.6180 N   0  0  0  0  0  0  0  0  0  0  0  0
   58.8780   32.8110   46.7400 C   0  0  0  0  0  0  0  0  0  0  0  0
   58.5050   32.1310   45.6940 N   0  0  0  0  0  0  0  0  0  0  0  0
   58.4240   30.7020   45.5780 C   0  0  0  0  0  0  0  0  0  0  0  0
   57.2290   30.0620   45.5040 N   0  0  0  0  0  0  0  0  0  0  0  0
   57.5950   28.7760   45.4090 C   0  0  0  0  0  0  0  0  0  0  0  0
   56.7690   27.6600   45.3070 C   0  0  0  0  0  0  0  0  0  0  0  0
   55.6740   27.7639   45.2937 H   0  0  0  0  0  0  0  0  0  0  0  0
   57.3820   26.3890   45.2210 C   0  0  0  0  0  0  0  0  0  0  0  0
   56.5420   25.1430   45.1300 C   0  0  0  0  0  0  0  0  0  0  0  0
   57.2008   24.2621   45.1282 H   0  0  0  0  0  0  0  0  0  0  0  0
   55.9529   25.1793   44.2017 H   0  0  0  0  0  0  0  0  0  0  0  0
   55.6170   25.0550   46.2780 N   0  0  0  0  0  0  0  0  0  0  0  0
   56.3130   24.4830   47.4420 C   0  0  0  0  0  0  0  0  0  0  0  0
   55.8528   24.8612   48.3667 H   0  0  0  0  0  0  0  0  0  0  0  0
   56.2329   23.3863   47.4146 H   0  0  0  0  0  0  0  0  0  0  0  0
   57.3735   24.7740   47.4146 H   0  0  0  0  0  0  0  0  0  0  0  0
   54.4480   24.2210   45.9470 C   0  0  0  0  0  0  0  0  0  0  0  0
   53.9675   23.8782   46.8752 H   0  0  0  0  0  0  0  0  0  0  0  0
   53.7303   24.8123   45.3593 H   0  0  0  0  0  0  0  0  0  0  0  0
   54.7736   23.3500   45.3593 H   0  0  0  0  0  0  0  0  0  0  0  0
   58.7980   26.2870   45.2470 C   0  0  0  0  0  0  0  0  0  0  0  0
   59.2741   25.2972   45.1861 H   0  0  0  0  0  0  0  0  0  0  0  0
   59.5980   27.4400   45.3500 C   0  0  0  0  0  0  0  0  0  0  0  0
   60.6957   27.3715   45.3667 H   0  0  0  0  0  0  0  0  0  0  0  0
   58.9520   28.6700   45.4300 C   0  0  0  0  0  0  0  0  0  0  0  0
   59.5110   29.8840   45.5370 N   0  0  0  0  0  0  0  0  0  0  0  0
   58.5110   32.3600   48.0140 C   0  0  0  0  0  0  0  0  0  0  0  0
   57.9124   31.4435   48.1221 H   0  0  0  0  0  0  0  0  0  0  0  0
   58.9080   33.0790   49.1540 C   0  0  0  0  0  0  0  0  0  0  0  0
   58.5290   32.6140   50.5130 C   0  0  0  0  0  0  0  0  0  0  0  0
   58.9330   33.3360   51.6500 C   0  0  0  0  0  0  0  0  0  0  0  0
   59.5297   34.2526   51.5323 H   0  0  0  0  0  0  0  0  0  0  0  0
   58.5810   32.8960   52.9280 C   0  0  0  0  0  0  0  0  0  0  0  0
   58.9032   33.4654   53.8123 H   0  0  0  0  0  0  0  0  0  0  0  0
   57.8210   31.7350   53.0860 C   0  0  0  0  0  0  0  0  0  0  0  0
   57.5515   31.3922   54.0959 H   0  0  0  0  0  0  0  0  0  0  0  0
   57.4000   31.0050   51.9700 C   0  0  0  0  0  0  0  0  0  0  0  0
   56.6320   29.8490   52.1920 O   0  0  0  0  0  0  0  0  0  0  0  0
   55.2480   29.8230   52.5450 C   0  0  0  0  0  0  0  0  0  0  0  0
   54.7836   28.9291   52.1030 H   0  0  0  0  0  0  0  0  0  0  0  0
   55.1731   29.8028   53.6423 H   0  0  0  0  0  0  0  0  0  0  0  0
   54.5110   31.0710   52.0360 C   0  0  0  0  0  0  0  0  0  0  0  0
   54.8110   31.9284   52.6563 H   0  0  0  0  0  0  0  0  0  0  0  0
   54.7887   31.1994   50.9794 H   0  0  0  0  0  0  0  0  0  0  0  0
   52.9750   30.9480   52.0860 C   0  0  0  0  0  0  0  0  0  0  0  0
   52.7207   30.0153   52.6109 H   0  0  0  0  0  0  0  0  0  0  0  0
   52.6033   31.8443   52.6042 H   0  0  0  0  0  0  0  0  0  0  0  0
   52.2990   30.9240   50.7070 C   0  0  0  0  0  0  0  0  0  0  0  0
   53.0721   31.0209   49.9305 H   0  0  0  0  0  0  0  0  0  0  0  0
   51.7562   29.9721   50.6107 H   0  0  0  0  0  0  0  0  0  0  0  0
   51.3110   32.0390   50.5480 C   0  0  0  0  0  0  0  0  0  0  0  0
   50.7560   32.2400   49.4370 O   0  0  0  0  0  0  0  0  0  0  0  0
   51.0250   32.8720   51.6230 O   0  0  0  0  0  0  0  0  0  0  0  0
   57.7630   31.4450   50.6820 C   0  0  0  0  0  0  0  0  0  0  0  0
   57.4449   30.8698   49.8000 H   0  0  0  0  0  0  0  0  0  0  0  0
   59.6690   34.2480   48.9860 C   0  0  0  0  0  0  0  0  0  0  0  0
   59.9911   34.8290   49.8628 H   0  0  0  0  0  0  0  0  0  0  0  0
  1  2  1  0
  2  3  1  0
  3  4  1  0
  4  5  2  0
  5  6  1  0
  6  7  2  0
  7  8  1  0
  8  9  2  0
  9 10  1  0
  9 11  1  0
 11 12  1  0
 12 13  1  0
 12 14  1  0
 12 15  1  0
 15 16  1  0
 16 17  1  0
 16 18  1  0
 16 19  1  0
 15 20  1  0
 20 21  1  0
 20 22  1  0
 20 23  1  0
 11 24  2  0
 24 25  1  0
 24 26  1  0
 26 27  1  0
 26 28  2  0
 28 29  1  0
  4 30  1  0
 30 31  1  0
 30 32  2  0
 32 33  1  0
 33 34  2  0
 34 35  1  0
 34 36  1  0
 36 37  1  0
 36 38  2  0
 38 39  1  0
 38 40  1  0
 40 41  1  0
 41 42  1  0
 42 43  1  0
 42 44  1  0
 42 45  1  0
 45 46  1  0
 45 47  1  0
 45 48  1  0
 48 49  1  0
 48 50  1  0
 48 51  1  0
 51 52  1  0
 51 53  1  0
 51 54  1  0
 54 55  2  0
 54 56  1  0
 40 57  2  0
 57 58  1  0
 32 59  1  0
 59 60  1  0
 59  2  2  0
 29  6  1  0
 57 33  1  0
 28  8  1  0
M  CHG  3   3  -1  29  -1  56  -1
M  END
>  <UniqueID>  (34) 
33

>  <SMILES>  (34) 
CN(C)Cc1ccc2[n-]c(/N=c3/cc(-c4cccc(OCCCCC(=O)[O-])c4)cc[n-]3)nc2c1

>  <Energy>  (34) 
101.88692156854589

>  <Genealogy>  (34) 
CN(C)Cc1ccc2[n-]c(N=c3cc(-c4cccc(OCCCCC(=O)[O-])c4)cc[n-]3)nc2c1 (protonated)
CN(C)Cc1ccc2[n-]c(/N=c3/cc(-c4cccc(OCCCCC(=O)[O-])c4)cc[n-]3)nc2c1 (cis-trans isomerization)
CN(C)Cc1ccc2[n-]c(/N=c3/cc(-c4cccc(OCCCCC(=O)[O-])c4)cc[n-]3)nc2c1 (3D coordinates assigned)
CN(C)Cc1ccc2[n-]c(/N=c3/cc(-c4cccc(OCCCCC(=O)[O-])c4)cc[n-]3)nc2c1 (optimized conformer: 101.88692156854589 kcal/mol)

>  <smiles>  (34) 
CN(C)Cc1ccc2[nH]c(N=c3cc(-c4cccc(OCCCCC(=O)O)c4)cc[nH]3)nc2c1

>  <score_type>  (34) 
oracle

>  <origin>  (34) 
adg

>  <m_score__min__energy>  (34) 
-15.380000000000001

>  <m_primary>  (34) 
energy

$$$$
34:0
     RDKit          3D

 39 42  0  0  0  0  0  0  0  0999 V2000
   58.2570   25.5480   47.5040 O   0  0  0  0  0  0  0  0  0  0  0  0
   57.7720   25.6860   46.3480 C   0  0  0  0  0  0  0  0  0  0  0  0
   57.5030   24.4750   45.5340 C   0  0  0  0  0  0  0  0  0  0  0  0
   57.1940   24.6160   44.1700 C   0  0  0  0  0  0  0  0  0  0  0  0
   56.9440   23.4920   43.3780 C   0  0  0  0  0  0  0  0  0  0  0  0
   56.9880   22.2160   43.9400 C   0  0  0  0  0  0  0  0  0  0  0  0
   57.2760   22.0600   45.2980 C   0  0  0  0  0  0  0  0  0  0  0  0
   57.5240   23.1800   46.0990 C   0  0  0  0  0  0  0  0  0  0  0  0
   57.7680   22.9950   47.4560 O   0  0  0  0  0  0  0  0  0  0  0  0
   57.4690   27.0560   45.8560 C   0  0  0  0  0  0  0  0  0  0  0  0
   56.1430   27.4680   45.6790 C   0  0  0  0  0  0  0  0  0  0  0  0
   55.0840   26.6190   45.9830 O   0  0  0  0  0  0  0  0  0  0  0  0
   55.8780   28.7140   45.2230 N   0  0  0  0  0  0  0  0  0  0  0  0
   56.8710   29.5900   44.9230 C   0  0  0  0  0  0  0  0  0  0  0  0
   56.5580   30.7370   44.5050 O   0  0  0  0  0  0  0  0  0  0  0  0
   58.1860   29.2270   45.0750 N   0  0  0  0  0  0  0  0  0  0  0  0
   59.2670   30.1660   44.7140 C   0  0  0  0  0  0  0  0  0  0  0  0
   59.2520   31.3640   45.6270 C   0  0  0  0  0  0  0  0  0  0  0  0
   58.6140   32.5650   45.2250 C   0  0  0  0  0  0  0  0  0  0  0  0
   58.5710   33.6760   46.0870 C   0  0  0  0  0  0  0  0  0  0  0  0
   59.1680   33.5520   47.3370 C   0  0  0  0  0  0  0  0  0  0  0  0
   59.7790   32.4060   47.7300 C   0  0  0  0  0  0  0  0  0  0  0  0
   59.8440   31.2850   46.9090 C   0  0  0  0  0  0  0  0  0  0  0  0
   60.2800   32.5660   49.0080 O   0  0  0  0  0  0  0  0  0  0  0  0
   59.9630   33.8960   49.4440 C   0  0  0  0  0  0  0  0  0  0  0  0
   59.2550   34.4910   48.3470 O   0  0  0  0  0  0  0  0  0  0  0  0
   58.4930   27.9650   45.5250 C   0  0  0  0  0  0  0  0  0  0  0  0
   59.6990   27.6070   45.6310 O   0  0  0  0  0  0  0  0  0  0  0  0
   57.1486   25.6197   43.7221 H   0  0  0  0  0  0  0  0  0  0  0  0
   56.7121   23.6137   42.3096 H   0  0  0  0  0  0  0  0  0  0  0  0
   56.7959   21.3324   43.3136 H   0  0  0  0  0  0  0  0  0  0  0  0
   57.3079   21.0529   45.7392 H   0  0  0  0  0  0  0  0  0  0  0  0
   60.2364   29.6541   44.8045 H   0  0  0  0  0  0  0  0  0  0  0  0
   59.1125   30.5054   43.6792 H   0  0  0  0  0  0  0  0  0  0  0  0
   58.1486   32.6285   44.2303 H   0  0  0  0  0  0  0  0  0  0  0  0
   58.0810   34.6125   45.7822 H   0  0  0  0  0  0  0  0  0  0  0  0
   60.3414   30.3639   47.2470 H   0  0  0  0  0  0  0  0  0  0  0  0
   59.3289   33.8669   50.3424 H   0  0  0  0  0  0  0  0  0  0  0  0
   60.8641   34.4676   49.7111 H   0  0  0  0  0  0  0  0  0  0  0  0
  1  2  2  0
  2  3  1  0
  3  4  2  0
  4  5  1  0
  5  6  2  0
  6  7  1  0
  7  8  2  0
  8  9  1  0
  2 10  1  0
 10 11  2  0
 11 12  1  0
 11 13  1  0
 13 14  1  0
 14 15  2  0
 14 16  1  0
 16 17  1  0
 17 18  1  0
 18 19  2  0
 19 20  1  0
 20 21  2  0
 21 22  1  0
 22 23  2  0
 22 24  1  0
 24 25  1  0
 25 26  1  0
 16 27  1  0
 27 28  2  0
  8  3  1  0
 27 10  1  0
 23 18  1  0
 26 21  1  0
  4 29  1  0
  5 30  1  0
  6 31  1  0
  7 32  1  0
 17 33  1  0
 17 34  1  0
 19 35  1  0
 20 36  1  0
 23 37  1  0
 25 38  1  0
 25 39  1  0
M  CHG  3   9  -1  12  -1  13  -1
M  END
>  <UniqueID>  (35) 
34

>  <SMILES>  (35) 
O=C(c1ccccc1[O-])c1c([O-])[n-]c(=O)n(Cc2ccc3c(c2)OCO3)c1=O

>  <Energy>  (35) 
85.7406104969797

>  <Genealogy>  (35) 
O=C(c1ccccc1[O-])c1c([O-])[n-]c(=O)n(Cc2ccc3c(c2)OCO3)c1=O (protonated)
O=C(c1ccccc1[O-])c1c([O-])[n-]c(=O)n(Cc2ccc3c(c2)OCO3)c1=O (3D coordinates assigned)
O=C(c1ccccc1[O-])c1c([O-])[n-]c(=O)n(Cc2ccc3c(c2)OCO3)c1=O (nonaromatic ring conformer: 85.7406104969797 kcal/mol)

>  <smiles>  (35) 
O=C(c1ccccc1O)c1c(O)[nH]c(=O)n(Cc2ccc3c(c2)OCO3)c1=O

>  <score_type>  (35) 
oracle

>  <origin>  (35) 
adg

>  <m_score__min__energy>  (35) 
-14.949999999999999

>  <m_primary>  (35) 
energy

$$$$
35:0
     RDKit          3D

 55 58  0  0  0  0  0  0  0  0999 V2000
   63.7050   34.0840   50.1610 C   0  0  0  0  0  0  0  0  0  0  0  0
   62.7310   33.5300   49.2070 N   0  0  0  0  0  0  0  0  0  0  0  0
   63.0990   33.5230   47.9030 C   0  0  0  0  0  0  0  0  0  0  0  0
   62.2170   33.0200   47.0230 N   0  0  0  0  0  0  0  0  0  0  0  0
   61.0160   32.5360   47.3840 C   0  0  0  0  0  0  0  0  0  0  0  0
   60.1860   32.0480   46.4460 N   0  0  0  0  0  0  0  0  0  0  0  0
   58.9950   31.5750   46.8520 C   0  0  0  0  0  0  0  0  0  0  0  0
   58.0390   31.0290   45.8970 C   0  0  0  0  0  0  0  0  0  0  0  0
   57.5610   31.7230   44.8090 C   0  0  0  0  0  0  0  0  0  0  0  0
   56.6560   31.1960   43.9110 C   0  0  0  0  0  0  0  0  0  0  0  0
   56.1950   29.9160   44.0940 C   0  0  0  0  0  0  0  0  0  0  0  0
   56.6690   29.2100   45.1850 C   0  0  0  0  0  0  0  0  0  0  0  0
   56.1510   27.8730   45.3240 N   0  0  0  0  0  0  0  0  0  0  0  0
   57.0670   26.8100   45.2380 C   0  0  0  0  0  0  0  0  0  0  0  0
   58.2810   27.1040   45.0450 O   0  0  0  0  0  0  0  0  0  0  0  0
   56.6980   25.4010   45.3580 C   0  0  0  0  0  0  0  0  0  0  0  0
   57.6400   24.4100   45.1890 C   0  0  0  0  0  0  0  0  0  0  0  0
   57.2800   23.0740   45.3040 C   0  0  0  0  0  0  0  0  0  0  0  0
   55.9700   22.7530   45.5890 C   0  0  0  0  0  0  0  0  0  0  0  0
   54.9970   23.7170   45.7640 C   0  0  0  0  0  0  0  0  0  0  0  0
   53.6650   23.3410   46.0550 N   0  0  0  0  0  0  0  0  0  0  0  0
   52.3460   23.7400   45.0120 S   0  0  0  0  0  0  0  0  0  0  0  0
   50.9170   22.8490   45.5050 C   0  0  0  0  0  0  0  0  0  0  0  0
   52.7150   23.4320   43.5790 O   0  0  0  0  0  0  0  0  0  0  0  0
   52.0530   25.2080   45.1410 O   0  0  0  0  0  0  0  0  0  0  0  0
   55.4020   25.0320   45.6400 C   0  0  0  0  0  0  0  0  0  0  0  0
   54.4660   26.0560   45.8060 O   0  0  0  0  0  0  0  0  0  0  0  0
   57.5750   29.7330   46.0850 C   0  0  0  0  0  0  0  0  0  0  0  0
   58.0140   28.9450   47.1790 N   0  0  0  0  0  0  0  0  0  0  0  0
   58.6290   31.5820   48.1440 N   0  0  0  0  0  0  0  0  0  0  0  0
   61.5410   33.0610   49.6300 C   0  0  0  0  0  0  0  0  0  0  0  0
   58.9880   32.0220   50.3040 N   0  0  0  0  0  0  0  0  0  0  0  0
   60.6530   32.5490   48.7170 C   0  0  0  0  0  0  0  0  0  0  0  0
   59.4380   32.0690   49.1440 C   0  0  0  0  0  0  0  0  0  0  0  0
   61.3240   33.1260   50.8620 O   0  0  0  0  0  0  0  0  0  0  0  0
   63.3633   33.8896   51.1884 H   0  0  0  0  0  0  0  0  0  0  0  0
   64.6839   33.6075   50.0039 H   0  0  0  0  0  0  0  0  0  0  0  0
   63.7958   35.1689   50.0039 H   0  0  0  0  0  0  0  0  0  0  0  0
   64.0759   33.9116   47.5794 H   0  0  0  0  0  0  0  0  0  0  0  0
   60.4980   32.0590   45.4750 H   0  0  0  0  0  0  0  0  0  0  0  0
   57.9188   32.7505   44.6471 H   0  0  0  0  0  0  0  0  0  0  0  0
   56.3074   31.7954   43.0571 H   0  0  0  0  0  0  0  0  0  0  0  0
   55.4728   29.4668   43.3964 H   0  0  0  0  0  0  0  0  0  0  0  0
   55.1520   27.6870   45.4810 H   0  0  0  0  0  0  0  0  0  0  0  0
   58.6823   24.6785   44.9619 H   0  0  0  0  0  0  0  0  0  0  0  0
   58.0308   22.2815   45.1694 H   0  0  0  0  0  0  0  0  0  0  0  0
   55.6904   21.6930   45.6801 H   0  0  0  0  0  0  0  0  0  0  0  0
   53.5110   22.7970   46.9530 H   0  0  0  0  0  0  0  0  0  0  0  0
   50.8657   22.8170   46.6033 H   0  0  0  0  0  0  0  0  0  0  0  0
   50.0196   23.3479   45.1104 H   0  0  0  0  0  0  0  0  0  0  0  0
   50.9700   21.8236   45.1104 H   0  0  0  0  0  0  0  0  0  0  0  0
   53.6540   25.9570   46.3820 H   0  0  0  0  0  0  0  0  0  0  0  0
   58.1980   27.9120   47.0990 H   0  0  0  0  0  0  0  0  0  0  0  0
   58.1500   29.4590   48.1000 H   0  0  0  0  0  0  0  0  0  0  0  0
   59.4420   32.1550   51.1800 H   0  0  0  0  0  0  0  0  0  0  0  0
  1  2  1  0
  2  3  1  0
  3  4  2  0
  4  5  1  0
  5  6  1  0
  6  7  1  0
  7  8  1  0
  8  9  2  0
  9 10  1  0
 10 11  2  0
 11 12  1  0
 12 13  1  0
 13 14  1  0
 14 15  2  0
 14 16  1  0
 16 17  2  0
 17 18  1  0
 18 19  2  0
 19 20  1  0
 20 21  1  0
 21 22  1  0
 22 23  1  0
 22 24  2  0
 22 25  2  0
 20 26  2  0
 26 27  1  0
 12 28  2  0
 28 29  1  0
  7 30  2  0
 30 31  1  0
 31 32  2  3
 31 33  1  0
 33 34  1  0
 34 35  2  0
 34  2  1  0
 33  5  2  0
 28  8  1  0
 26 16  1  0
  1 36  1  0
  1 37  1  0
  1 38  1  0
  3 39  1  0
  6 40  1  0
  9 41  1  0
 10 42  1  0
 11 43  1  0
 13 44  1  0
 17 45  1  0
 18 46  1  0
 19 47  1  0
 21 48  1  0
 23 49  1  0
 23 50  1  0
 23 51  1  0
 27 52  1  0
 29 53  1  0
 29 54  1  0
 32 55  1  0
M  END
>  <smiles>  (36) 
Cn1cnc2[nH]c(-c3cccc(NC(=O)c4cccc(NS(C)(=O)=O)c4O)c3N)nc(=N)c2c1=O

>  <score_type>  (36) 
oracle

>  <origin>  (36) 
adg

>  <m_score__min__energy>  (36) 
-9.5800000000000001

>  <m_primary>  (36) 
energy

$$$$
36:0
     RDKit          3D

 38 40  0  0  0  0  0  0  0  0999 V2000
   57.1970   34.1210   45.1680 C   0  0  0  0  0  0  0  0  0  0  0  0
   57.9360   33.0600   45.9120 C   0  0  0  0  0  0  0  0  0  0  0  0
   58.8830   32.2110   45.3750 C   0  0  0  0  0  0  0  0  0  0  0  0
   59.3110   31.4550   46.4480 C   0  0  0  0  0  0  0  0  0  0  0  0
   60.3760   30.3840   46.4030 C   0  0  0  0  0  0  0  0  0  0  0  0
   60.2320   29.4350   45.2750 N   0  0  0  0  0  0  0  0  0  0  0  0
   61.0630   28.2190   45.3350 C   0  0  0  0  0  0  0  0  0  0  0  0
   60.4610   27.1230   46.2260 C   0  0  0  0  0  0  0  0  0  0  0  0
   58.9640   27.0140   46.1070 C   0  0  0  0  0  0  0  0  0  0  0  0
   58.3130   25.9310   46.7200 C   0  0  0  0  0  0  0  0  0  0  0  0
   56.9180   25.8260   46.6860 C   0  0  0  0  0  0  0  0  0  0  0  0
   56.2740   24.7500   47.2940 O   0  0  0  0  0  0  0  0  0  0  0  0
   56.1640   26.8100   46.0370 C   0  0  0  0  0  0  0  0  0  0  0  0
   54.7780   26.7100   45.9920 O   0  0  0  0  0  0  0  0  0  0  0  0
   56.8020   27.8950   45.4320 C   0  0  0  0  0  0  0  0  0  0  0  0
   58.1990   28.0180   45.4790 C   0  0  0  0  0  0  0  0  0  0  0  0
   58.8570   29.1930   44.8010 C   0  0  0  0  0  0  0  0  0  0  0  0
   58.6660   31.8810   47.5580 N   0  0  0  0  0  0  0  0  0  0  0  0
   58.8910   31.4420   48.9310 C   0  0  0  0  0  0  0  0  0  0  0  0
   57.8370   32.8620   47.2410 N   0  0  0  0  0  0  0  0  0  0  0  0
   56.7197   34.8062   45.8840 H   0  0  0  0  0  0  0  0  0  0  0  0
   57.9002   34.6829   44.5357 H   0  0  0  0  0  0  0  0  0  0  0  0
   56.4262   33.6562   44.5357 H   0  0  0  0  0  0  0  0  0  0  0  0
   59.2200   32.1506   44.3296 H   0  0  0  0  0  0  0  0  0  0  0  0
   61.3565   30.8752   46.3181 H   0  0  0  0  0  0  0  0  0  0  0  0
   60.2739   29.7961   47.3271 H   0  0  0  0  0  0  0  0  0  0  0  0
   61.1744   27.8201   44.3159 H   0  0  0  0  0  0  0  0  0  0  0  0
   62.0309   28.5038   45.7731 H   0  0  0  0  0  0  0  0  0  0  0  0
   60.9051   26.1580   45.9406 H   0  0  0  0  0  0  0  0  0  0  0  0
   60.6862   27.3907   47.2689 H   0  0  0  0  0  0  0  0  0  0  0  0
   58.9052   25.1580   47.2317 H   0  0  0  0  0  0  0  0  0  0  0  0
   55.2640   24.6870   47.3270 H   0  0  0  0  0  0  0  0  0  0  0  0
   56.2043   28.6597   44.9142 H   0  0  0  0  0  0  0  0  0  0  0  0
   58.8880   29.0008   43.7184 H   0  0  0  0  0  0  0  0  0  0  0  0
   58.2634   30.0871   45.0422 H   0  0  0  0  0  0  0  0  0  0  0  0
   58.5024   32.2002   49.6267 H   0  0  0  0  0  0  0  0  0  0  0  0
   58.3708   30.4877   49.1007 H   0  0  0  0  0  0  0  0  0  0  0  0
   59.9694   31.3070   49.1007 H   0  0  0  0  0  0  0  0  0  0  0  0
  1  2  1  0
  2  3  1  0
  3  4  2  0
  4  5  1  0
  5  6  1  0
  6  7  1  0
  7  8  1  0
  8  9  1  0
  9 10  2  0
 10 11  1  0
 11 12  1  0
 11 13  2  0
 13 14  1  0
 13 15  1  0
 15 16  2  0
 16 17  1  0
  4 18  1  0
 18 19  1  0
 18 20  1  0
 20  2  2  0
 17  6  1  0
 16  9  1  0
  1 21  1  0
  1 22  1  0
  1 23  1  0
  3 24  1  0
  5 25  1  0
  5 26  1  0
  7 27  1  0
  7 28  1  0
  8 29  1  0
  8 30  1  0
 10 31  1  0
 12 32  1  0
 15 33  1  0
 17 34  1  0
 17 35  1  0
 19 36  1  0
 19 37  1  0
 19 38  1  0
M  CHG  1  14  -1
M  END
>  <UniqueID>  (37) 
35

>  <SMILES>  (37) 
Cc1cc(CN2CCc3cc(O)c([O-])cc3C2)n(C)n1

>  <Energy>  (37) 
75.10712526558657

>  <Genealogy>  (37) 
Cc1cc(CN2CCc3cc(O)c([O-])cc3C2)n(C)n1 (protonated)
Cc1cc(CN2CCc3cc(O)c([O-])cc3C2)n(C)n1 (3D coordinates assigned)
Cc1cc(CN2CCc3cc(O)c([O-])cc3C2)n(C)n1 (nonaromatic ring conformer: 75.10712526558657 kcal/mol)

>  <smiles>  (37) 
Cc1cc(CN2CCc3cc(O)c(O)cc3C2)n(C)n1

>  <score_type>  (37) 
oracle

>  <origin>  (37) 
adg

>  <m_score__min__energy>  (37) 
-10.43

>  <m_primary>  (37) 
energy

$$$$
37:0
     RDKit          3D

 61 64  0  0  0  0  0  0  0  0999 V2000
   50.5610   24.1280   43.6170 C   0  0  0  0  0  0  0  0  0  0  0  0
   50.7200   23.1310   44.7540 C   0  0  0  0  0  0  0  0  0  0  0  0
   52.1120   22.7130   44.8790 N   0  0  0  0  0  0  0  0  0  0  0  0
   53.1830   23.6060   45.2060 C   0  0  0  0  0  0  0  0  0  0  0  0
   52.9680   24.8470   45.2800 O   0  0  0  0  0  0  0  0  0  0  0  0
   54.4700   23.0550   45.5280 N   0  0  0  0  0  0  0  0  0  0  0  0
   55.5360   23.6580   45.9800 C   0  0  0  0  0  0  0  0  0  0  0  0
   56.2860   24.5750   45.2140 C   0  0  0  0  0  0  0  0  0  0  0  0
   57.4290   25.1790   45.7710 C   0  0  0  0  0  0  0  0  0  0  0  0
   58.2010   26.1080   45.0560 O   0  0  0  0  0  0  0  0  0  0  0  0
   57.9060   27.4750   44.9620 C   0  0  0  0  0  0  0  0  0  0  0  0
   58.8990   28.3580   44.5300 C   0  0  0  0  0  0  0  0  0  0  0  0
   58.6470   29.7330   44.4590 C   0  0  0  0  0  0  0  0  0  0  0  0
   57.3770   30.2380   44.7900 C   0  0  0  0  0  0  0  0  0  0  0  0
   57.0640   31.6390   44.7690 N   0  0  0  0  0  0  0  0  0  0  0  0
   57.9260   32.7470   44.4690 C   0  0  0  0  0  0  0  0  0  0  0  0
   58.3440   32.9470   43.3000 O   0  0  0  0  0  0  0  0  0  0  0  0
   58.2430   33.7060   45.4820 N   0  0  0  0  0  0  0  0  0  0  0  0
   59.1190   33.4980   46.5960 C   0  0  0  0  0  0  0  0  0  0  0  0
   58.6270   33.2280   47.8850 C   0  0  0  0  0  0  0  0  0  0  0  0
   59.5100   33.0630   48.9610 C   0  0  0  0  0  0  0  0  0  0  0  0
   59.0080   32.8180   50.2840 N   0  0  0  0  0  0  0  0  0  0  0  0
   59.2770   33.7950   51.3420 C   0  0  0  0  0  0  0  0  0  0  0  0
   58.3530   33.5640   52.5430 C   0  0  0  0  0  0  0  0  0  0  0  0
   58.4220   32.2130   52.9550 O   0  0  0  0  0  0  0  0  0  0  0  0
   57.7850   31.3890   51.9950 C   0  0  0  0  0  0  0  0  0  0  0  0
   58.3950   31.5590   50.6310 C   0  0  0  0  0  0  0  0  0  0  0  0
   58.2870   30.6350   49.7810 O   0  0  0  0  0  0  0  0  0  0  0  0
   60.8920   33.1240   48.7360 C   0  0  0  0  0  0  0  0  0  0  0  0
   61.3990   33.3280   47.4420 C   0  0  0  0  0  0  0  0  0  0  0  0
   62.8840   33.4420   47.2070 C   0  0  0  0  0  0  0  0  0  0  0  0
   63.4550   32.1830   47.1200 F   0  0  0  0  0  0  0  0  0  0  0  0
   63.1080   34.1240   46.0250 F   0  0  0  0  0  0  0  0  0  0  0  0
   63.5010   34.1230   48.2430 F   0  0  0  0  0  0  0  0  0  0  0  0
   60.5010   33.5300   46.3800 C   0  0  0  0  0  0  0  0  0  0  0  0
   56.3770   29.3470   45.2000 C   0  0  0  0  0  0  0  0  0  0  0  0
   56.6320   27.9750   45.2780 C   0  0  0  0  0  0  0  0  0  0  0  0
   55.6280   27.1350   45.6350 F   0  0  0  0  0  0  0  0  0  0  0  0
   57.7940   24.8690   47.0810 C   0  0  0  0  0  0  0  0  0  0  0  0
   57.0490   23.9380   47.8020 C   0  0  0  0  0  0  0  0  0  0  0  0
   55.9550   23.3600   47.2400 N   0  0  0  0  0  0  0  0  0  0  0  0
   50.4005   25.1342   44.0314 H   0  0  0  0  0  0  0  0  0  0  0  0
   51.4707   24.1270   42.9985 H   0  0  0  0  0  0  0  0  0  0  0  0
   49.6968   23.8441   42.9985 H   0  0  0  0  0  0  0  0  0  0  0  0
   50.3978   23.6011   45.6948 H   0  0  0  0  0  0  0  0  0  0  0  0
   50.1019   22.2467   44.5395 H   0  0  0  0  0  0  0  0  0  0  0  0
   55.9789   24.8170   44.1858 H   0  0  0  0  0  0  0  0  0  0  0  0
   59.8872   27.9692   44.2432 H   0  0  0  0  0  0  0  0  0  0  0  0
   59.4451   30.4209   44.1432 H   0  0  0  0  0  0  0  0  0  0  0  0
   57.5426   33.1457   48.0501 H   0  0  0  0  0  0  0  0  0  0  0  0
   60.3231   33.6957   51.6673 H   0  0  0  0  0  0  0  0  0  0  0  0
   59.0940   34.8044   50.9450 H   0  0  0  0  0  0  0  0  0  0  0  0
   58.6657   34.2142   53.3733 H   0  0  0  0  0  0  0  0  0  0  0  0
   57.3186   33.8000   52.2527 H   0  0  0  0  0  0  0  0  0  0  0  0
   57.8857   30.3378   52.3031 H   0  0  0  0  0  0  0  0  0  0  0  0
   56.7259   31.6807   51.9382 H   0  0  0  0  0  0  0  0  0  0  0  0
   61.5867   33.0110   49.5813 H   0  0  0  0  0  0  0  0  0  0  0  0
   60.8890   33.7154   45.3675 H   0  0  0  0  0  0  0  0  0  0  0  0
   55.3805   29.7311   45.4634 H   0  0  0  0  0  0  0  0  0  0  0  0
   58.6653   25.3568   47.5425 H   0  0  0  0  0  0  0  0  0  0  0  0
   57.3466   23.6707   48.8267 H   0  0  0  0  0  0  0  0  0  0  0  0
  1  2  1  0
  2  3  1  0
  3  4  1  0
  4  5  2  0
  4  6  1  0
  6  7  2  3
  7  8  1  0
  8  9  2  0
  9 10  1  0
 10 11  1  0
 11 12  2  0
 12 13  1  0
 13 14  2  0
 14 15  1  0
 15 16  1  0
 16 17  2  0
 16 18  1  0
 18 19  1  0
 19 20  2  0
 20 21  1  0
 21 22  1  0
 22 23  1  0
 23 24  1  0
 24 25  1  0
 25 26  1  0
 26 27  1  0
 27 28  2  0
 21 29  2  0
 29 30  1  0
 30 31  1  0
 31 32  1  0
 31 33  1  0
 31 34  1  0
 30 35  2  0
 14 36  1  0
 36 37  2  0
 37 38  1  0
  9 39  1  0
 39 40  2  0
 40 41  1  0
 41  7  1  0
 37 11  1  0
 35 19  1  0
 27 22  1  0
  1 42  1  0
  1 43  1  0
  1 44  1  0
  2 45  1  0
  2 46  1  0
  8 47  1  0
 12 48  1  0
 13 49  1  0
 20 50  1  0
 23 51  1  0
 23 52  1  0
 24 53  1  0
 24 54  1  0
 26 55  1  0
 26 56  1  0
 29 57  1  0
 35 58  1  0
 36 59  1  0
 39 60  1  0
 40 61  1  0
M  CHG  4   3  -1  15  -1  18  -1  41  -1
M  END
>  <UniqueID>  (38) 
36

>  <SMILES>  (38) 
CC[N-]C(=O)N=c1cc(Oc2ccc([N-]C(=O)[N-]c3cc(N4CCOCC4=O)cc(C(F)(F)F)c3)cc2F)cc[n-]1

>  <Energy>  (38) 
90.65707971450631

>  <Genealogy>  (38) 
CC[N-]C(=O)N=c1cc(Oc2ccc([N-]C(=O)[N-]c3cc(N4CCOCC4=O)cc(C(F)(F)F)c3)cc2F)cc[n-]1 (protonated)
CC[N-]C(=O)N=c1cc(Oc2ccc([N-]C(=O)[N-]c3cc(N4CCOCC4=O)cc(C(F)(F)F)c3)cc2F)cc[n-]1 (3D coordinates assigned)
CC[N-]C(=O)N=c1cc(Oc2ccc([N-]C(=O)[N-]c3cc(N4CCOCC4=O)cc(C(F)(F)F)c3)cc2F)cc[n-]1 (nonaromatic ring conformer: 90.65707971450631 kcal/mol)

>  <smiles>  (38) 
CCNC(=O)N=c1cc(Oc2ccc(NC(=O)Nc3cc(N4CCOCC4=O)cc(C(F)(F)F)c3)cc2F)cc[nH]1

>  <score_type>  (38) 
oracle

>  <origin>  (38) 
adg

>  <m_score__min__energy>  (38) 
-12.91

>  <m_primary>  (38) 
energy

$$$$
38:0
     RDKit          3D

 40 41  0  0  0  0  0  0  0  0999 V2000
   59.5500   34.9790   46.0370 C   0  0  0  0  0  0  0  0  0  0  0  0
   59.1970   34.2460   44.8680 O   0  0  0  0  0  0  0  0  0  0  0  0
   58.5780   32.9870   44.8790 C   0  0  0  0  0  0  0  0  0  0  0  0
   58.7500   32.0710   45.9350 C   0  0  0  0  0  0  0  0  0  0  0  0
   58.1120   30.8270   45.9000 C   0  0  0  0  0  0  0  0  0  0  0  0
   57.3050   30.4750   44.8070 C   0  0  0  0  0  0  0  0  0  0  0  0
   56.5870   29.1560   44.7840 C   0  0  0  0  0  0  0  0  0  0  0  0
   57.5190   28.1000   44.3860 N   0  0  0  0  0  0  0  0  0  0  0  0
   57.8230   27.0410   45.7300 S   0  0  0  0  0  0  0  0  0  0  0  0
   59.3030   26.7860   45.8250 O   0  0  0  0  0  0  0  0  0  0  0  0
   57.3620   27.7050   46.9970 O   0  0  0  0  0  0  0  0  0  0  0  0
   56.9240   25.5240   45.5220 C   0  0  0  0  0  0  0  0  0  0  0  0
   55.5320   25.5160   45.6430 C   0  0  0  0  0  0  0  0  0  0  0  0
   54.8670   26.6930   45.9840 O   0  0  0  0  0  0  0  0  0  0  0  0
   54.8240   24.3660   45.4320 N   0  0  0  0  0  0  0  0  0  0  0  0
   53.3570   24.3860   45.5550 C   0  0  0  0  0  0  0  0  0  0  0  0
   55.4830   23.1890   45.1800 C   0  0  0  0  0  0  0  0  0  0  0  0
   54.8220   22.1240   45.0140 O   0  0  0  0  0  0  0  0  0  0  0  0
   56.8520   23.1570   45.1080 N   0  0  0  0  0  0  0  0  0  0  0  0
   57.5440   21.8910   44.8040 C   0  0  0  0  0  0  0  0  0  0  0  0
   57.5750   24.3120   45.2470 C   0  0  0  0  0  0  0  0  0  0  0  0
   58.8310   24.2910   45.1350 O   0  0  0  0  0  0  0  0  0  0  0  0
   57.1220   31.3940   43.7630 C   0  0  0  0  0  0  0  0  0  0  0  0
   57.7600   32.6370   43.7990 C   0  0  0  0  0  0  0  0  0  0  0  0
   59.2715   34.4008   46.9304 H   0  0  0  0  0  0  0  0  0  0  0  0
   60.6347   35.1615   46.0417 H   0  0  0  0  0  0  0  0  0  0  0  0
   59.0164   35.9409   46.0417 H   0  0  0  0  0  0  0  0  0  0  0  0
   59.3887   32.3352   46.7907 H   0  0  0  0  0  0  0  0  0  0  0  0
   58.2433   30.1209   46.7332 H   0  0  0  0  0  0  0  0  0  0  0  0
   56.1908   28.9367   45.7865 H   0  0  0  0  0  0  0  0  0  0  0  0
   55.7569   29.2029   44.0638 H   0  0  0  0  0  0  0  0  0  0  0  0
   57.0610   27.5250   43.6420 H   0  0  0  0  0  0  0  0  0  0  0  0
   53.0783   24.3898   46.6191 H   0  0  0  0  0  0  0  0  0  0  0  0
   52.9606   25.2896   45.0689 H   0  0  0  0  0  0  0  0  0  0  0  0
   52.9361   23.4935   45.0689 H   0  0  0  0  0  0  0  0  0  0  0  0
   57.8186   21.3886   45.7432 H   0  0  0  0  0  0  0  0  0  0  0  0
   56.8767   21.2392   44.2210 H   0  0  0  0  0  0  0  0  0  0  0  0
   58.4529   22.1008   44.2210 H   0  0  0  0  0  0  0  0  0  0  0  0
   56.4738   31.1353   42.9127 H   0  0  0  0  0  0  0  0  0  0  0  0
   57.6178   33.3467   42.9707 H   0  0  0  0  0  0  0  0  0  0  0  0
  1  2  1  0
  2  3  1  0
  3  4  2  0
  4  5  1  0
  5  6  2  0
  6  7  1  0
  7  8  1  0
  8  9  1  0
  9 10  2  0
  9 11  2  0
  9 12  1  0
 12 13  2  0
 13 14  1  0
 13 15  1  0
 15 16  1  0
 15 17  1  0
 17 18  2  0
 17 19  1  0
 19 20  1  0
 19 21  1  0
 21 22  2  0
  6 23  1  0
 23 24  2  0
 24  3  1  0
 21 12  1  0
  1 25  1  0
  1 26  1  0
  1 27  1  0
  4 28  1  0
  5 29  1  0
  7 30  1  0
  7 31  1  0
  8 32  1  0
 16 33  1  0
 16 34  1  0
 16 35  1  0
 20 36  1  0
 20 37  1  0
 20 38  1  0
 23 39  1  0
 24 40  1  0
M  CHG  1  14  -1
M  END
>  <UniqueID>  (39) 
37

>  <SMILES>  (39) 
COc1ccc(CNS(=O)(=O)c2c([O-])n(C)c(=O)n(C)c2=O)cc1

>  <Energy>  (39) 
45.83615784966068

>  <Genealogy>  (39) 
COc1ccc(CNS(=O)(=O)c2c([O-])n(C)c(=O)n(C)c2=O)cc1 (protonated)
COc1ccc(CNS(=O)(=O)c2c([O-])n(C)c(=O)n(C)c2=O)cc1 (3D coordinates assigned)
COc1ccc(CNS(=O)(=O)c2c([O-])n(C)c(=O)n(C)c2=O)cc1 (optimized conformer: 45.83615784966068 kcal/mol)

>  <smiles>  (39) 
COc1ccc(CNS(=O)(=O)c2c(O)n(C)c(=O)n(C)c2=O)cc1

>  <score_type>  (39) 
oracle

>  <origin>  (39) 
adg

>  <m_score__min__energy>  (39) 
-11.01

>  <m_primary>  (39) 
energy

$$$$
39:0
     RDKit          3D

 51 54  0  0  0  0  0  0  0  0999 V2000
   61.0517   27.6845   49.8487 H   0  0  0  0  0  0  0  0  0  0  0  0
   60.3800   27.9650   49.0240 C   0  0  0  0  0  0  0  0  0  0  0  0
   59.6540   29.2500   49.1450 C   0  0  0  0  0  0  0  0  0  0  0  0
   58.5100   29.2860   49.6800 O   0  0  0  0  0  0  0  0  0  0  0  0
   60.2830   30.4760   48.7240 N   0  0  0  0  0  0  0  0  0  0  0  0
   59.9640   31.7410   49.3890 C   0  0  0  0  0  0  0  0  0  0  0  0
   59.2514   32.3092   48.7730 H   0  0  0  0  0  0  0  0  0  0  0  0
   59.5167   31.5347   50.3725 H   0  0  0  0  0  0  0  0  0  0  0  0
   61.2480   32.5620   49.5740 C   0  0  0  0  0  0  0  0  0  0  0  0
   60.9743   33.5779   49.8950 H   0  0  0  0  0  0  0  0  0  0  0  0
   61.8653   32.0528   50.3288 H   0  0  0  0  0  0  0  0  0  0  0  0
   62.0420   32.6550   48.3320 N   0  0  0  0  0  0  0  0  0  0  0  0
   61.8480   33.8610   47.5030 C   0  0  0  0  0  0  0  0  0  0  0  0
   61.9555   34.7457   48.1477 H   0  0  0  0  0  0  0  0  0  0  0  0
   62.6048   33.8261   46.7055 H   0  0  0  0  0  0  0  0  0  0  0  0
   60.5070   33.9260   46.8300 C   0  0  0  0  0  0  0  0  0  0  0  0
   59.3110   35.0640   47.1410 S   0  0  0  0  0  0  0  0  0  0  0  0
   58.1620   34.4110   46.0970 C   0  0  0  0  0  0  0  0  0  0  0  0
   57.1526   34.8124   45.9237 H   0  0  0  0  0  0  0  0  0  0  0  0
   58.7010   33.2770   45.4880 C   0  0  0  0  0  0  0  0  0  0  0  0
   57.9530   32.4240   44.5270 C   0  0  0  0  0  0  0  0  0  0  0  0
   58.1510   32.5520   43.1390 C   0  0  0  0  0  0  0  0  0  0  0  0
   58.8750   33.2834   42.7506 H   0  0  0  0  0  0  0  0  0  0  0  0
   57.4250   31.7470   42.2550 C   0  0  0  0  0  0  0  0  0  0  0  0
   57.5709   31.8557   41.1701 H   0  0  0  0  0  0  0  0  0  0  0  0
   56.5420   30.8330   42.7290 N   0  0  0  0  0  0  0  0  0  0  0  0
   56.3270   30.6770   44.0620 C   0  0  0  0  0  0  0  0  0  0  0  0
   55.5160   29.8040   44.4600 O   0  0  0  0  0  0  0  0  0  0  0  0
   57.0240   31.4680   44.9820 C   0  0  0  0  0  0  0  0  0  0  0  0
   56.8465   31.3433   46.0604 H   0  0  0  0  0  0  0  0  0  0  0  0
   60.0190   33.0100   45.9110 C   0  0  0  0  0  0  0  0  0  0  0  0
   60.6057   32.1542   45.5457 H   0  0  0  0  0  0  0  0  0  0  0  0
   62.2770   31.3830   47.6210 C   0  0  0  0  0  0  0  0  0  0  0  0
   62.6824   31.6083   46.6235 H   0  0  0  0  0  0  0  0  0  0  0  0
   62.9811   30.7924   48.2255 H   0  0  0  0  0  0  0  0  0  0  0  0
   61.0050   30.5500   47.4540 C   0  0  0  0  0  0  0  0  0  0  0  0
   60.3603   31.0182   46.6956 H   0  0  0  0  0  0  0  0  0  0  0  0
   61.2793   29.5334   47.1357 H   0  0  0  0  0  0  0  0  0  0  0  0
   60.2850   27.1150   47.9900 C   0  0  0  0  0  0  0  0  0  0  0  0
   60.8441   26.1704   48.0615 H   0  0  0  0  0  0  0  0  0  0  0  0
   59.4930   27.3410   46.7640 C   0  0  0  0  0  0  0  0  0  0  0  0
   60.1200   27.8880   45.6350 C   0  0  0  0  0  0  0  0  0  0  0  0
   61.2110   28.0279   45.6293 H   0  0  0  0  0  0  0  0  0  0  0  0
   59.3650   28.2570   44.5150 C   0  0  0  0  0  0  0  0  0  0  0  0
   59.8620   28.6978   43.6382 H   0  0  0  0  0  0  0  0  0  0  0  0
   57.9820   28.0660   44.5100 C   0  0  0  0  0  0  0  0  0  0  0  0
   57.3939   28.3313   43.6191 H   0  0  0  0  0  0  0  0  0  0  0  0
   57.3440   27.5380   45.6360 C   0  0  0  0  0  0  0  0  0  0  0  0
   55.9980   27.3710   45.6350 F   0  0  0  0  0  0  0  0  0  0  0  0
   58.0950   27.1680   46.7580 C   0  0  0  0  0  0  0  0  0  0  0  0
   57.5918   26.7407   47.6379 H   0  0  0  0  0  0  0  0  0  0  0  0
  1  2  1  0
  2  3  1  0
  3  4  2  0
  3  5  1  0
  5  6  1  0
  6  7  1  0
  6  8  1  0
  6  9  1  0
  9 10  1  0
  9 11  1  0
  9 12  1  0
 12 13  1  0
 13 14  1  0
 13 15  1  0
 13 16  1  0
 16 17  1  0
 17 18  1  0
 18 19  1  0
 18 20  2  0
 20 21  1  0
 21 22  1  0
 22 23  1  0
 22 24  2  0
 24 25  1  0
 24 26  1  0
 26 27  1  0
 27 28  2  0
 27 29  1  0
 29 30  1  0
 20 31  1  0
 31 32  1  0
 12 33  1  0
 33 34  1  0
 33 35  1  0
 33 36  1  0
 36 37  1  0
 36 38  1  0
  2 39  2  0
 39 40  1  0
 39 41  1  0
 41 42  2  0
 42 43  1  0
 42 44  1  0
 44 45  1  0
 44 46  2  0
 46 47  1  0
 46 48  1  0
 48 49  1  0
 48 50  2  0
 50 51  1  0
 36  5  1  0
 50 41  1  0
 31 16  2  0
 29 21  2  0
M  CHG  1  26  -1
M  END
>  <UniqueID>  (40) 
38

>  <SMILES>  (40) 
O=C(/C=C\c1cccc(F)c1)N1CCN(Cc2cc(-c3cc[n-]c(=O)c3)cs2)CC1

>  <Energy>  (40) 
103.21327828013744

>  <Genealogy>  (40) 
O=C(C=Cc1cccc(F)c1)N1CCN(Cc2cc(-c3cc[n-]c(=O)c3)cs2)CC1 (protonated)
O=C(/C=C\c1cccc(F)c1)N1CCN(Cc2cc(-c3cc[n-]c(=O)c3)cs2)CC1 (cis-trans isomerization)
O=C(/C=C\c1cccc(F)c1)N1CCN(Cc2cc(-c3cc[n-]c(=O)c3)cs2)CC1 (3D coordinates assigned)
O=C(/C=C\c1cccc(F)c1)N1CCN(Cc2cc(-c3cc[n-]c(=O)c3)cs2)CC1 (nonaromatic ring conformer: 103.21327828013744 kcal/mol)

>  <smiles>  (40) 
O=C(C=Cc1cccc(F)c1)N1CCN(Cc2cc(-c3cc[nH]c(=O)c3)cs2)CC1

>  <score_type>  (40) 
oracle

>  <origin>  (40) 
adg

>  <m_score__min__energy>  (40) 
-11.869999999999999

>  <m_primary>  (40) 
energy

$$$$
40:0
     RDKit          3D

 53 55  0  0  0  0  0  0  0  0999 V2000
   57.9710   22.7540   44.4960 C   0  0  0  0  0  0  0  0  0  0  0  0
   56.3820   22.7660   43.6020 S   0  0  0  0  0  0  0  0  0  0  0  0
   55.6270   24.1490   44.5340 C   0  0  0  0  0  0  0  0  0  0  0  0
   56.6630   25.1990   44.9490 C   0  0  0  0  0  0  0  0  0  0  0  0
   56.0670   26.2900   45.8060 C   0  0  0  0  0  0  0  0  0  0  0  0
   54.8210   26.3080   45.9940 O   0  0  0  0  0  0  0  0  0  0  0  0
   56.8510   27.3640   46.3390 N   0  0  0  0  0  0  0  0  0  0  0  0
   57.1610   28.5860   45.6650 C   0  0  0  0  0  0  0  0  0  0  0  0
   58.3870   29.2410   45.8720 C   0  0  0  0  0  0  0  0  0  0  0  0
   58.6570   30.4530   45.2300 C   0  0  0  0  0  0  0  0  0  0  0  0
   57.7010   31.0230   44.3780 C   0  0  0  0  0  0  0  0  0  0  0  0
   57.9670   32.2970   43.6950 C   0  0  0  0  0  0  0  0  0  0  0  0
   57.7650   32.3560   42.4510 O   0  0  0  0  0  0  0  0  0  0  0  0
   58.2850   33.4880   44.4650 N   0  0  1  0  0  0  0  0  0  0  0  0
   57.1370   33.9670   45.2950 C   0  0  0  0  0  0  0  0  0  0  0  0
   57.2190   33.4750   46.7500 C   0  0  0  0  0  0  0  0  0  0  0  0
   58.4930   34.0170   47.4380 C   0  0  0  0  0  0  0  0  0  0  0  0
   59.6570   34.2110   46.4420 C   0  0  1  0  0  0  0  0  0  0  0  0
   61.0010   34.0940   47.1350 C   0  0  0  0  0  0  0  0  0  0  0  0
   61.0720   34.2230   48.5330 C   0  0  0  0  0  0  0  0  0  0  0  0
   62.3030   34.1210   49.1920 C   0  0  0  0  0  0  0  0  0  0  0  0
   63.4710   33.8900   48.4600 C   0  0  0  0  0  0  0  0  0  0  0  0
   63.4090   33.7290   47.0750 C   0  0  0  0  0  0  0  0  0  0  0  0
   62.1820   33.8150   46.4120 C   0  0  0  0  0  0  0  0  0  0  0  0
   59.5190   33.2310   45.2580 C   0  0  0  0  0  0  0  0  0  0  0  0
   56.4670   30.3840   44.1910 C   0  0  0  0  0  0  0  0  0  0  0  0
   56.1900   29.1860   44.8550 C   0  0  0  0  0  0  0  0  0  0  0  0
   57.7821   22.7554   45.5796 H   0  0  0  0  0  0  0  0  0  0  0  0
   58.5380   21.8515   44.2239 H   0  0  0  0  0  0  0  0  0  0  0  0
   58.5516   23.6478   44.2239 H   0  0  0  0  0  0  0  0  0  0  0  0
   54.8680   24.6310   43.9003 H   0  0  0  0  0  0  0  0  0  0  0  0
   55.1790   23.7354   45.4495 H   0  0  0  0  0  0  0  0  0  0  0  0
   57.4625   24.7009   45.5171 H   0  0  0  0  0  0  0  0  0  0  0  0
   57.0508   25.6674   44.0324 H   0  0  0  0  0  0  0  0  0  0  0  0
   59.1379   28.7977   46.5426 H   0  0  0  0  0  0  0  0  0  0  0  0
   59.6197   30.9594   45.3934 H   0  0  0  0  0  0  0  0  0  0  0  0
   58.5110   34.2530   43.7780 H   0  0  0  0  0  0  0  0  0  0  0  0
   57.1351   35.0670   45.2938 H   0  0  0  0  0  0  0  0  0  0  0  0
   56.2137   33.5615   44.8557 H   0  0  0  0  0  0  0  0  0  0  0  0
   56.3338   33.8262   47.3006 H   0  0  0  0  0  0  0  0  0  0  0  0
   57.2567   32.3756   46.7505 H   0  0  0  0  0  0  0  0  0  0  0  0
   58.2594   34.9862   47.9028 H   0  0  0  0  0  0  0  0  0  0  0  0
   58.8110   33.2788   48.1889 H   0  0  0  0  0  0  0  0  0  0  0  0
   59.6047   35.2314   46.0344 H   0  0  0  0  0  0  0  0  0  0  0  0
   60.1550   34.4052   49.1126 H   0  0  0  0  0  0  0  0  0  0  0  0
   62.3510   34.2227   50.2862 H   0  0  0  0  0  0  0  0  0  0  0  0
   64.4407   33.8350   48.9763 H   0  0  0  0  0  0  0  0  0  0  0  0
   64.3286   33.5339   46.5038 H   0  0  0  0  0  0  0  0  0  0  0  0
   62.1356   33.6649   45.3233 H   0  0  0  0  0  0  0  0  0  0  0  0
   60.3938   33.3423   44.6005 H   0  0  0  0  0  0  0  0  0  0  0  0
   59.4561   32.2111   45.6653 H   0  0  0  0  0  0  0  0  0  0  0  0
   55.7156   30.8265   43.5204 H   0  0  0  0  0  0  0  0  0  0  0  0
   55.2039   28.7122   44.7405 H   0  0  0  0  0  0  0  0  0  0  0  0
  1  2  1  0
  2  3  1  0
  3  4  1  0
  4  5  1  0
  5  6  2  0
  5  7  1  0
  7  8  1  0
  8  9  2  0
  9 10  1  0
 10 11  2  0
 11 12  1  0
 12 13  2  0
 12 14  1  0
 14 15  1  0
 15 16  1  0
 16 17  1  0
 17 18  1  0
 18 19  1  0
 19 20  2  0
 20 21  1  0
 21 22  2  0
 22 23  1  0
 23 24  2  0
 18 25  1  0
 11 26  1  0
 26 27  2  0
 27  8  1  0
 25 14  1  0
 24 19  1  0
  1 28  1  0
  1 29  1  0
  1 30  1  0
  3 31  1  0
  3 32  1  0
  4 33  1  0
  4 34  1  0
  9 35  1  0
 10 36  1  0
 14 37  1  6
 15 38  1  0
 15 39  1  0
 16 40  1  0
 16 41  1  0
 17 42  1  0
 17 43  1  0
 18 44  1  6
 20 45  1  0
 21 46  1  0
 22 47  1  0
 23 48  1  0
 24 49  1  0
 25 50  1  0
 25 51  1  0
 26 52  1  0
 27 53  1  0
M  CHG  2   7  -1  14   1
M  END
>  <UniqueID>  (41) 
39

>  <SMILES>  (41) 
CSCCC(=O)[N-]c1ccc(C(=O)[N@H+]2CCC[C@@H](c3ccccc3)C2)cc1

>  <Energy>  (41) 
75.13546651076953

>  <Genealogy>  (41) 
CSCCC(=O)[N-]c1ccc(C(=O)[NH+]2CCCC(c3ccccc3)C2)cc1 (protonated)
CSCCC(=O)[N-]c1ccc(C(=O)[N@H+]2CCC[C@@H](c3ccccc3)C2)cc1 (chirality)
CSCCC(=O)[N-]c1ccc(C(=O)[N@H+]2CCC[C@@H](c3ccccc3)C2)cc1 (3D coordinates assigned)
CSCCC(=O)[N-]c1ccc(C(=O)[N@H+]2CCC[C@@H](c3ccccc3)C2)cc1 (nonaromatic ring conformer: 75.13546651076953 kcal/mol)

>  <smiles>  (41) 
CSCCC(=O)Nc1ccc(C(=O)N2CCCC(c3ccccc3)C2)cc1

>  <score_type>  (41) 
oracle

>  <origin>  (41) 
adg

>  <m_score__min__energy>  (41) 
-10.119999999999999

>  <m_primary>  (41) 
energy

$$$$
41:0
     RDKit          3D

 28 29  0  0  0  0  0  0  0  0999 V2000
   59.7740   28.4040   45.0470 C   0  0  0  0  0  0  0  0  0  0  0  0
   58.8040   27.3550   45.5080 C   0  0  0  0  0  0  0  0  0  0  0  0
   59.3030   26.1690   45.9510 N   0  0  0  0  0  0  0  0  0  0  0  0
   58.5010   25.1560   46.3670 C   0  0  0  0  0  0  0  0  0  0  0  0
   57.1180   25.3130   46.3600 C   0  0  0  0  0  0  0  0  0  0  0  0
   56.5590   26.5190   45.9330 C   0  0  0  0  0  0  0  0  0  0  0  0
   55.1690   26.6550   45.9920 O   0  0  0  0  0  0  0  0  0  0  0  0
   57.4020   27.5630   45.4850 C   0  0  0  0  0  0  0  0  0  0  0  0
   56.8300   28.8280   44.9780 C   0  0  0  0  0  0  0  0  0  0  0  0
   55.6100   29.0850   45.1630 O   0  0  0  0  0  0  0  0  0  0  0  0
   57.6890   29.7860   44.3460 N   0  0  0  0  0  0  0  0  0  0  0  0
   57.9350   31.1310   44.7860 C   0  0  0  0  0  0  0  0  0  0  0  0
   58.2470   31.4220   46.1280 C   0  0  0  0  0  0  0  0  0  0  0  0
   58.4600   32.7440   46.5340 C   0  0  0  0  0  0  0  0  0  0  0  0
   58.8500   33.0960   48.2070 Cl  0  0  0  0  0  0  0  0  0  0  0  0
   58.3480   33.7850   45.6090 C   0  0  0  0  0  0  0  0  0  0  0  0
   58.0140   33.5080   44.2810 C   0  0  0  0  0  0  0  0  0  0  0  0
   57.8000   32.1880   43.8690 C   0  0  0  0  0  0  0  0  0  0  0  0
   57.3780   31.8750   42.1910 Cl  0  0  0  0  0  0  0  0  0  0  0  0
   60.2271   28.8940   45.9214 H   0  0  0  0  0  0  0  0  0  0  0  0
   60.5622   27.9335   44.4409 H   0  0  0  0  0  0  0  0  0  0  0  0
   59.2434   29.1531   44.4409 H   0  0  0  0  0  0  0  0  0  0  0  0
   58.9446   24.2097   46.7101 H   0  0  0  0  0  0  0  0  0  0  0  0
   56.4675   24.4895   46.6898 H   0  0  0  0  0  0  0  0  0  0  0  0
   54.7090   27.4810   46.3510 H   0  0  0  0  0  0  0  0  0  0  0  0
   58.3237   30.6055   46.8612 H   0  0  0  0  0  0  0  0  0  0  0  0
   58.5229   34.8235   45.9265 H   0  0  0  0  0  0  0  0  0  0  0  0
   57.9189   34.3305   43.5568 H   0  0  0  0  0  0  0  0  0  0  0  0
  1  2  1  0
  2  3  2  0
  3  4  1  0
  4  5  2  0
  5  6  1  0
  6  7  1  0
  6  8  2  0
  8  9  1  0
  9 10  2  0
  9 11  1  0
 11 12  1  0
 12 13  2  0
 13 14  1  0
 14 15  1  0
 14 16  2  0
 16 17  1  0
 17 18  2  0
 18 19  1  0
  8  2  1  0
 18 12  1  0
  1 20  1  0
  1 21  1  0
  1 22  1  0
  4 23  1  0
  5 24  1  0
  7 25  1  0
 13 26  1  0
 16 27  1  0
 17 28  1  0
M  CHG  1  11  -1
M  END
>  <UniqueID>  (42) 
40

>  <SMILES>  (42) 
Cc1nccc(O)c1C(=O)[N-]c1cc(Cl)ccc1Cl

>  <Energy>  (42) 
40.0785708824492

>  <Genealogy>  (42) 
Cc1nccc(O)c1C(=O)[N-]c1cc(Cl)ccc1Cl (protonated)
Cc1nccc(O)c1C(=O)[N-]c1cc(Cl)ccc1Cl (3D coordinates assigned)
Cc1nccc(O)c1C(=O)[N-]c1cc(Cl)ccc1Cl (optimized conformer: 40.0785708824492 kcal/mol)

>  <smiles>  (42) 
Cc1nccc(O)c1C(=O)Nc1cc(Cl)ccc1Cl

>  <score_type>  (42) 
oracle

>  <origin>  (42) 
adg

>  <m_score__min__energy>  (42) 
-10.18

>  <m_primary>  (42) 
energy

$$$$
42:0
     RDKit          3D

 48 50  0  0  0  0  0  0  0  0999 V2000
   55.8420   30.0790   43.3470 C   0  0  0  0  0  0  0  0  0  0  0  0
   56.6540   30.6820   44.0030 C   0  0  0  0  0  0  0  0  0  0  0  0
   57.6260   31.4020   44.7850 C   0  0  0  0  0  0  0  0  0  0  0  0
   58.7580   30.7420   45.2790 C   0  0  0  0  0  0  0  0  0  0  0  0
   59.7010   31.4400   46.0390 C   0  0  0  0  0  0  0  0  0  0  0  0
   59.5180   32.8040   46.3080 C   0  0  0  0  0  0  0  0  0  0  0  0
   60.6870   33.6990   47.2750 S   0  0  0  0  0  0  0  0  0  0  0  0
   61.7960   34.2290   46.4090 O   0  0  0  0  0  0  0  0  0  0  0  0
   59.9740   34.8540   47.9210 O   0  0  0  0  0  0  0  0  0  0  0  0
   61.3630   32.6540   48.4900 N   0  0  0  0  0  0  0  0  0  0  0  0
   62.7090   32.9290   48.9950 C   0  0  0  0  0  0  0  0  0  0  0  0
   60.5760   31.5970   49.0730 C   0  0  0  0  0  0  0  0  0  0  0  0
   59.3250   31.8730   49.6490 C   0  0  0  0  0  0  0  0  0  0  0  0
   58.5440   30.8420   50.1720 C   0  0  0  0  0  0  0  0  0  0  0  0
   58.9890   29.5200   50.1040 C   0  0  0  0  0  0  0  0  0  0  0  0
   60.2240   29.2160   49.5100 C   0  0  0  0  0  0  0  0  0  0  0  0
   60.6560   27.8020   49.3830 C   0  0  0  0  0  0  0  0  0  0  0  0
   61.0090   27.1780   50.4190 O   0  0  0  0  0  0  0  0  0  0  0  0
   60.7420   27.0920   48.0840 C   0  0  0  0  0  0  0  0  0  0  0  0
   60.0820   27.4240   46.9620 C   0  0  0  0  0  0  0  0  0  0  0  0
   58.6660   27.1100   46.6810 C   0  0  0  0  0  0  0  0  0  0  0  0
   57.9210   27.9750   45.8650 C   0  0  0  0  0  0  0  0  0  0  0  0
   56.5690   27.7200   45.6160 C   0  0  0  0  0  0  0  0  0  0  0  0
   55.9580   26.5880   46.1630 C   0  0  0  0  0  0  0  0  0  0  0  0
   54.6120   26.3410   45.9210 O   0  0  0  0  0  0  0  0  0  0  0  0
   56.7010   25.7040   46.9500 C   0  0  0  0  0  0  0  0  0  0  0  0
   58.0530   25.9570   47.2020 C   0  0  0  0  0  0  0  0  0  0  0  0
   61.0270   30.2660   49.0270 C   0  0  0  0  0  0  0  0  0  0  0  0
   58.3830   33.4620   45.8150 C   0  0  0  0  0  0  0  0  0  0  0  0
   57.4390   32.7630   45.0550 C   0  0  0  0  0  0  0  0  0  0  0  0
   55.1011   29.5288   42.7484 H   0  0  0  0  0  0  0  0  0  0  0  0
   58.9054   29.6724   45.0686 H   0  0  0  0  0  0  0  0  0  0  0  0
   60.5884   30.9183   46.4268 H   0  0  0  0  0  0  0  0  0  0  0  0
   62.6956   32.9263   50.0949 H   0  0  0  0  0  0  0  0  0  0  0  0
   63.4013   32.1537   48.6348 H   0  0  0  0  0  0  0  0  0  0  0  0
   63.0417   33.9137   48.6348 H   0  0  0  0  0  0  0  0  0  0  0  0
   58.9585   32.9094   49.6880 H   0  0  0  0  0  0  0  0  0  0  0  0
   57.5749   31.0711   50.6393 H   0  0  0  0  0  0  0  0  0  0  0  0
   58.3680   28.7121   50.5184 H   0  0  0  0  0  0  0  0  0  0  0  0
   61.4051   26.2157   48.0347 H   0  0  0  0  0  0  0  0  0  0  0  0
   60.6408   27.9739   46.1904 H   0  0  0  0  0  0  0  0  0  0  0  0
   58.4028   28.8577   45.4192 H   0  0  0  0  0  0  0  0  0  0  0  0
   55.9858   28.4106   44.9892 H   0  0  0  0  0  0  0  0  0  0  0  0
   56.2218   24.8082   47.3717 H   0  0  0  0  0  0  0  0  0  0  0  0
   58.6388   25.2517   47.8098 H   0  0  0  0  0  0  0  0  0  0  0  0
   62.0195   30.0427   48.6084 H   0  0  0  0  0  0  0  0  0  0  0  0
   58.2340   34.5312   46.0262 H   0  0  0  0  0  0  0  0  0  0  0  0
   56.5496   33.2829   44.6695 H   0  0  0  0  0  0  0  0  0  0  0  0
  1  2  3  0
  2  3  1  0
  3  4  2  0
  4  5  1  0
  5  6  2  0
  6  7  1  0
  7  8  2  0
  7  9  2  0
  7 10  1  0
 10 11  1  0
 10 12  1  0
 12 13  2  0
 13 14  1  0
 14 15  2  0
 15 16  1  0
 16 17  1  0
 17 18  2  0
 17 19  1  0
 19 20  2  3
 20 21  1  0
 21 22  2  0
 22 23  1  0
 23 24  2  0
 24 25  1  0
 24 26  1  0
 26 27  2  0
 16 28  2  0
  6 29  1  0
 29 30  2  0
 30  3  1  0
 28 12  1  0
 27 21  1  0
  1 31  1  0
  4 32  1  0
  5 33  1  0
 11 34  1  0
 11 35  1  0
 11 36  1  0
 13 37  1  0
 14 38  1  0
 15 39  1  0
 19 40  1  0
 20 41  1  0
 22 42  1  0
 23 43  1  0
 26 44  1  0
 27 45  1  0
 28 46  1  0
 29 47  1  0
 30 48  1  0
M  CHG  1  25  -1
M  END
>  <UniqueID>  (43) 
41

>  <SMILES>  (43) 
C#Cc1ccc(S(=O)(=O)N(C)c2cccc(C(=O)C=Cc3ccc([O-])cc3)c2)cc1

>  <Energy>  (43) 
61.94481320473989

>  <Genealogy>  (43) 
C#Cc1ccc(S(=O)(=O)N(C)c2cccc(C(=O)C=Cc3ccc([O-])cc3)c2)cc1 (protonated)
C#Cc1ccc(S(=O)(=O)N(C)c2cccc(C(=O)C=Cc3ccc([O-])cc3)c2)cc1 (3D coordinates assigned)
C#Cc1ccc(S(=O)(=O)N(C)c2cccc(C(=O)C=Cc3ccc([O-])cc3)c2)cc1 (optimized conformer: 61.94481320473989 kcal/mol)

>  <smiles>  (43) 
C#Cc1ccc(S(=O)(=O)N(C)c2cccc(C(=O)C=Cc3ccc(O)cc3)c2)cc1

>  <score_type>  (43) 
oracle

>  <origin>  (43) 
adg

>  <m_score__min__energy>  (43) 
-13.52

>  <m_primary>  (43) 
energy

$$$$
43:0
     RDKit          3D

 53 56  0  0  0  0  0  0  0  0999 V2000
   60.0730   28.0190   49.5420 C   0  0  0  0  0  0  0  0  0  0  0  0
   60.7550   29.2440   48.9950 C   0  0  0  0  0  0  0  0  0  0  0  0
   61.2980   30.1860   49.8870 C   0  0  0  0  0  0  0  0  0  0  0  0
   61.9520   31.3210   49.4040 C   0  0  0  0  0  0  0  0  0  0  0  0
   62.0700   31.5270   48.0300 C   0  0  0  0  0  0  0  0  0  0  0  0
   61.5510   30.5920   47.1320 C   0  0  0  0  0  0  0  0  0  0  0  0
   60.9150   29.4270   47.6040 C   0  0  0  0  0  0  0  0  0  0  0  0
   60.3650   28.4570   46.6970 N   0  0  0  0  0  0  0  0  0  0  0  0
   60.4480   28.4700   45.2670 C   0  0  0  0  0  0  0  0  0  0  0  0
   61.2160   29.2740   44.6720 O   0  0  0  0  0  0  0  0  0  0  0  0
   59.5950   27.5260   44.4770 C   0  0  0  0  0  0  0  0  0  0  0  0
   58.1340   27.6620   44.8300 C   0  0  0  0  0  0  0  0  0  0  0  0
   57.3610   26.6760   45.4470 C   0  0  0  0  0  0  0  0  0  0  0  0
   57.7980   25.3450   45.9180 C   0  0  0  0  0  0  0  0  0  0  0  0
   58.3670   25.2540   47.0380 O   0  0  0  0  0  0  0  0  0  0  0  0
   57.5610   24.1170   45.1210 C   0  0  0  0  0  0  0  0  0  0  0  0
   58.5170   23.0880   45.1000 C   0  0  0  0  0  0  0  0  0  0  0  0
   58.2970   21.9400   44.3360 C   0  0  0  0  0  0  0  0  0  0  0  0
   57.1250   21.8310   43.5890 C   0  0  0  0  0  0  0  0  0  0  0  0
   56.2120   22.8380   43.6030 N   0  0  0  0  0  0  0  0  0  0  0  0
   56.4010   23.9650   44.3400 C   0  0  0  0  0  0  0  0  0  0  0  0
   56.1130   27.2360   45.6350 C   0  0  0  0  0  0  0  0  0  0  0  0
   55.0220   26.6420   46.2590 O   0  0  0  0  0  0  0  0  0  0  0  0
   56.1610   28.5130   45.1380 C   0  0  0  0  0  0  0  0  0  0  0  0
   55.1090   29.4200   45.1740 O   0  0  0  0  0  0  0  0  0  0  0  0
   57.3840   28.7800   44.6310 N   0  0  0  0  0  0  0  0  0  0  0  0
   57.8190   30.0870   44.1150 C   0  0  0  0  0  0  0  0  0  0  0  0
   58.1920   31.0430   45.2260 C   0  0  0  0  0  0  0  0  0  0  0  0
   58.1950   30.5790   46.5540 C   0  0  0  0  0  0  0  0  0  0  0  0
   58.5370   31.4300   47.6050 C   0  0  0  0  0  0  0  0  0  0  0  0
   58.8650   32.7620   47.3490 C   0  0  0  0  0  0  0  0  0  0  0  0
   59.3030   33.8280   48.6720 Cl  0  0  0  0  0  0  0  0  0  0  0  0
   58.8400   33.2470   46.0390 C   0  0  0  0  0  0  0  0  0  0  0  0
   58.4980   32.4010   44.9760 C   0  0  0  0  0  0  0  0  0  0  0  0
   58.4390   33.0900   43.3590 Cl  0  0  0  0  0  0  0  0  0  0  0  0
   60.0902   28.0499   50.6414 H   0  0  0  0  0  0  0  0  0  0  0  0
   59.0304   27.9928   49.1922 H   0  0  0  0  0  0  0  0  0  0  0  0
   60.5999   27.1190   49.1922 H   0  0  0  0  0  0  0  0  0  0  0  0
   61.2069   30.0276   50.9717 H   0  0  0  0  0  0  0  0  0  0  0  0
   62.3745   32.0532   50.1078 H   0  0  0  0  0  0  0  0  0  0  0  0
   62.5736   32.4290   47.6522 H   0  0  0  0  0  0  0  0  0  0  0  0
   61.6393   30.7662   46.0495 H   0  0  0  0  0  0  0  0  0  0  0  0
   59.7241   27.7408   43.4059 H   0  0  0  0  0  0  0  0  0  0  0  0
   59.9102   26.4994   44.7150 H   0  0  0  0  0  0  0  0  0  0  0  0
   59.4419   23.1868   45.6872 H   0  0  0  0  0  0  0  0  0  0  0  0
   59.0410   21.1299   44.3237 H   0  0  0  0  0  0  0  0  0  0  0  0
   56.9388   20.9290   42.9875 H   0  0  0  0  0  0  0  0  0  0  0  0
   55.6429   24.7619   44.3254 H   0  0  0  0  0  0  0  0  0  0  0  0
   58.6948   29.9384   43.4663 H   0  0  0  0  0  0  0  0  0  0  0  0
   56.9790   30.5273   43.5577 H   0  0  0  0  0  0  0  0  0  0  0  0
   57.9248   29.5340   46.7659 H   0  0  0  0  0  0  0  0  0  0  0  0
   58.5482   31.0505   48.6374 H   0  0  0  0  0  0  0  0  0  0  0  0
   59.0904   34.2997   45.8410 H   0  0  0  0  0  0  0  0  0  0  0  0
  1  2  1  0
  2  3  2  0
  3  4  1  0
  4  5  2  0
  5  6  1  0
  6  7  2  0
  7  8  1  0
  8  9  1  0
  9 10  2  0
  9 11  1  0
 11 12  1  0
 12 13  2  0
 13 14  1  0
 14 15  2  0
 14 16  1  0
 16 17  2  0
 17 18  1  0
 18 19  2  0
 19 20  1  0
 20 21  2  0
 13 22  1  0
 22 23  1  0
 22 24  2  0
 24 25  1  0
 24 26  1  0
 26 27  1  0
 27 28  1  0
 28 29  2  0
 29 30  1  0
 30 31  2  0
 31 32  1  0
 31 33  1  0
 33 34  2  0
 34 35  1  0
  7  2  1  0
 26 12  1  0
 34 28  1  0
 21 16  1  0
  1 36  1  0
  1 37  1  0
  1 38  1  0
  3 39  1  0
  4 40  1  0
  5 41  1  0
  6 42  1  0
 11 43  1  0
 11 44  1  0
 17 45  1  0
 18 46  1  0
 19 47  1  0
 21 48  1  0
 27 49  1  0
 27 50  1  0
 29 51  1  0
 30 52  1  0
 33 53  1  0
M  CHG  3   8  -1  23  -1  25  -1
M  END
>  <UniqueID>  (44) 
42

>  <SMILES>  (44) 
Cc1ccccc1[N-]C(=O)Cc1c(C(=O)c2cccnc2)c([O-])c([O-])n1Cc1ccc(Cl)cc1Cl

>  <Energy>  (44) 
96.309009952171

>  <Genealogy>  (44) 
Cc1ccccc1[N-]C(=O)Cc1c(C(=O)c2cccnc2)c([O-])c([O-])n1Cc1ccc(Cl)cc1Cl (protonated)
Cc1ccccc1[N-]C(=O)Cc1c(C(=O)c2cccnc2)c([O-])c([O-])n1Cc1ccc(Cl)cc1Cl (3D coordinates assigned)
Cc1ccccc1[N-]C(=O)Cc1c(C(=O)c2cccnc2)c([O-])c([O-])n1Cc1ccc(Cl)cc1Cl (optimized conformer: 96.309009952171 kcal/mol)

>  <smiles>  (44) 
Cc1ccccc1NC(=O)Cc1c(C(=O)c2cccnc2)c(O)c(O)n1Cc1ccc(Cl)cc1Cl

>  <score_type>  (44) 
oracle

>  <origin>  (44) 
adg

>  <m_score__min__energy>  (44) 
-16.789999999999999

>  <m_primary>  (44) 
energy

$$$$
44:0
     RDKit          3D

 46 48  0  0  0  0  0  0  0  0999 V2000
   60.4030   34.5540   49.0010 N   0  0  0  0  0  0  0  0  0  0  0  0
   60.8710   34.1130   48.0390 C   0  0  0  0  0  0  0  0  0  0  0  0
   61.4700   33.5500   46.8080 C   0  0  0  0  0  0  0  0  0  0  0  0
   60.7680   34.0890   45.6390 N   0  0  0  0  0  0  0  0  0  0  0  0
   59.6130   34.9370   45.6660 C   0  0  0  0  0  0  0  0  0  0  0  0
   59.7240   36.1640   45.9340 O   0  0  0  0  0  0  0  0  0  0  0  0
   58.2580   34.3290   45.4520 C   0  0  0  0  0  0  0  0  0  0  0  0
   58.2850   32.8290   45.5970 C   0  0  0  0  0  0  0  0  0  0  0  0
   58.4250   32.0140   44.4640 C   0  0  0  0  0  0  0  0  0  0  0  0
   58.4480   30.6240   44.5900 C   0  0  0  0  0  0  0  0  0  0  0  0
   58.3380   30.0190   45.8540 C   0  0  0  0  0  0  0  0  0  0  0  0
   58.3570   28.5400   45.9870 C   0  0  0  0  0  0  0  0  0  0  0  0
   59.5810   27.8520   46.0700 C   0  0  0  0  0  0  0  0  0  0  0  0
   59.6010   26.4640   46.2000 C   0  0  0  0  0  0  0  0  0  0  0  0
   58.4070   25.7420   46.2470 C   0  0  0  0  0  0  0  0  0  0  0  0
   57.1710   26.4050   46.1670 C   0  0  0  0  0  0  0  0  0  0  0  0
   55.9060   25.6350   46.2160 C   0  0  0  0  0  0  0  0  0  0  0  0
   54.6900   26.2060   45.7400 N   0  0  0  0  0  0  0  0  0  0  0  0
   55.8890   24.4650   46.6810 O   0  0  0  0  0  0  0  0  0  0  0  0
   57.1580   27.8070   46.0380 C   0  0  0  0  0  0  0  0  0  0  0  0
   58.2100   30.8370   46.9900 C   0  0  0  0  0  0  0  0  0  0  0  0
   58.1840   32.2300   46.8650 C   0  0  0  0  0  0  0  0  0  0  0  0
   58.0590   32.9960   47.9800 F   0  0  0  0  0  0  0  0  0  0  0  0
   62.9720   33.9030   46.7360 C   0  0  0  0  0  0  0  0  0  0  0  0
   63.8120   33.1210   47.7740 C   0  0  0  0  0  0  0  0  0  0  0  0
   63.0450   32.1830   48.5090 O   0  0  0  0  0  0  0  0  0  0  0  0
   62.3970   31.2960   47.6210 C   0  0  0  0  0  0  0  0  0  0  0  0
   61.2990   32.0130   46.8110 C   0  0  0  0  0  0  0  0  0  0  0  0
   57.5604   34.7453   46.1936 H   0  0  0  0  0  0  0  0  0  0  0  0
   57.9362   34.5664   44.4273 H   0  0  0  0  0  0  0  0  0  0  0  0
   58.5173   32.4736   43.4689 H   0  0  0  0  0  0  0  0  0  0  0  0
   58.5531   29.9968   43.6925 H   0  0  0  0  0  0  0  0  0  0  0  0
   60.5271   28.4118   46.0322 H   0  0  0  0  0  0  0  0  0  0  0  0
   60.5631   25.9347   46.2659 H   0  0  0  0  0  0  0  0  0  0  0  0
   58.4342   24.6469   46.3473 H   0  0  0  0  0  0  0  0  0  0  0  0
   54.0450   26.7160   46.3850 H   0  0  0  0  0  0  0  0  0  0  0  0
   56.1959   28.3367   45.9762 H   0  0  0  0  0  0  0  0  0  0  0  0
   58.1296   30.3776   47.9862 H   0  0  0  0  0  0  0  0  0  0  0  0
   63.3433   33.6637   45.7286 H   0  0  0  0  0  0  0  0  0  0  0  0
   63.0757   34.9750   46.9596 H   0  0  0  0  0  0  0  0  0  0  0  0
   64.6119   32.5826   47.2446 H   0  0  0  0  0  0  0  0  0  0  0  0
   64.2156   33.8516   48.4904 H   0  0  0  0  0  0  0  0  0  0  0  0
   63.1404   30.8794   46.9254 H   0  0  0  0  0  0  0  0  0  0  0  0
   61.9251   30.4975   48.2124 H   0  0  0  0  0  0  0  0  0  0  0  0
   61.3352   31.6525   45.7724 H   0  0  0  0  0  0  0  0  0  0  0  0
   60.3330   31.7862   47.2858 H   0  0  0  0  0  0  0  0  0  0  0  0
  1  2  3  0
  2  3  1  0
  3  4  1  0
  4  5  1  0
  5  6  2  0
  5  7  1  0
  7  8  1  0
  8  9  2  0
  9 10  1  0
 10 11  2  0
 11 12  1  0
 12 13  2  0
 13 14  1  0
 14 15  2  0
 15 16  1  0
 16 17  1  0
 17 18  1  0
 17 19  2  0
 16 20  2  0
 11 21  1  0
 21 22  2  0
 22 23  1  0
  3 24  1  0
 24 25  1  0
 25 26  1  0
 26 27  1  0
 27 28  1  0
 28  3  1  0
 22  8  1  0
 20 12  1  0
  7 29  1  0
  7 30  1  0
  9 31  1  0
 10 32  1  0
 13 33  1  0
 14 34  1  0
 15 35  1  0
 18 36  1  0
 20 37  1  0
 21 38  1  0
 24 39  1  0
 24 40  1  0
 25 41  1  0
 25 42  1  0
 27 43  1  0
 27 44  1  0
 28 45  1  0
 28 46  1  0
M  CHG  2   4  -1  18  -1
M  END
>  <UniqueID>  (45) 
43

>  <SMILES>  (45) 
N#CC1([N-]C(=O)Cc2ccc(-c3cccc(C([NH-])=O)c3)cc2F)CCOCC1

>  <Energy>  (45) 
59.55836151781284

>  <Genealogy>  (45) 
N#CC1([N-]C(=O)Cc2ccc(-c3cccc(C([NH-])=O)c3)cc2F)CCOCC1 (protonated)
N#CC1([N-]C(=O)Cc2ccc(-c3cccc(C([NH-])=O)c3)cc2F)CCOCC1 (3D coordinates assigned)
N#CC1([N-]C(=O)Cc2ccc(-c3cccc(C([NH-])=O)c3)cc2F)CCOCC1 (nonaromatic ring conformer: 59.55836151781284 kcal/mol)

>  <smiles>  (45) 
N#CC1(NC(=O)Cc2ccc(-c3cccc(C(N)=O)c3)cc2F)CCOCC1

>  <score_type>  (45) 
oracle

>  <origin>  (45) 
adg

>  <m_score__min__energy>  (45) 
-12.609999999999999

>  <m_primary>  (45) 
energy

$$$$
45:0
     RDKit          3D

 41 44  0  0  0  0  0  0  0  0999 V2000
   60.7440   28.6600   44.8670 C   0  0  0  0  0  0  0  0  0  0  0  0
   59.3810   28.1300   45.2550 C   0  0  0  0  0  0  0  0  0  0  0  0
   58.3210   29.0480   44.8830 N   0  0  0  0  0  0  0  0  0  0  0  0
   57.2540   28.6620   44.2020 N   0  0  0  0  0  0  0  0  0  0  0  0
   56.4250   29.7100   43.9880 C   0  0  0  0  0  0  0  0  0  0  0  0
   55.2190   29.7140   43.3190 O   0  0  0  0  0  0  0  0  0  0  0  0
   57.0550   30.7820   44.5870 C   0  0  0  0  0  0  0  0  0  0  0  0
   56.9700   32.1010   44.8460 N   0  0  0  0  0  0  0  0  0  0  0  0
   58.0460   32.5100   45.5370 C   0  0  0  0  0  0  0  0  0  0  0  0
   58.3890   33.7590   46.0130 C   0  0  0  0  0  0  0  0  0  0  0  0
   59.5820   33.8890   46.7000 C   0  0  0  0  0  0  0  0  0  0  0  0
   60.4300   32.8030   46.9170 C   0  0  0  0  0  0  0  0  0  0  0  0
   61.6710   33.0400   47.6440 C   0  0  0  0  0  0  0  0  0  0  0  0
   62.9210   32.8430   47.0920 C   0  0  0  0  0  0  0  0  0  0  0  0
   64.0520   33.1020   47.8520 C   0  0  0  0  0  0  0  0  0  0  0  0
   63.9900   33.5540   49.1550 C   0  0  0  0  0  0  0  0  0  0  0  0
   62.7350   33.7510   49.7090 C   0  0  0  0  0  0  0  0  0  0  0  0
   62.5370   34.2000   51.0020 O   0  0  0  0  0  0  0  0  0  0  0  0
   63.4640   34.1730   52.0410 C   0  0  0  0  0  0  0  0  0  0  0  0
   61.6240   33.4920   48.9490 C   0  0  0  0  0  0  0  0  0  0  0  0
   60.0830   31.5470   46.4380 C   0  0  0  0  0  0  0  0  0  0  0  0
   58.8930   31.4230   45.7530 C   0  0  0  0  0  0  0  0  0  0  0  0
   58.2440   30.3630   45.1480 C   0  0  0  0  0  0  0  0  0  0  0  0
   61.3222   28.8848   45.7754 H   0  0  0  0  0  0  0  0  0  0  0  0
   61.2759   27.9032   44.2718 H   0  0  0  0  0  0  0  0  0  0  0  0
   60.6249   29.5773   44.2718 H   0  0  0  0  0  0  0  0  0  0  0  0
   59.2146   27.1689   44.7466 H   0  0  0  0  0  0  0  0  0  0  0  0
   59.3598   28.0075   46.3480 H   0  0  0  0  0  0  0  0  0  0  0  0
   57.0070   27.7010   43.8390 H   0  0  0  0  0  0  0  0  0  0  0  0
   55.0720   29.2110   42.4510 H   0  0  0  0  0  0  0  0  0  0  0  0
   56.1880   32.7460   44.5630 H   0  0  0  0  0  0  0  0  0  0  0  0
   57.7322   34.6263   45.8506 H   0  0  0  0  0  0  0  0  0  0  0  0
   59.8707   34.8775   47.0866 H   0  0  0  0  0  0  0  0  0  0  0  0
   63.0193   32.4833   46.0571 H   0  0  0  0  0  0  0  0  0  0  0  0
   65.0404   32.9404   47.3972 H   0  0  0  0  0  0  0  0  0  0  0  0
   64.9048   33.7509   49.7333 H   0  0  0  0  0  0  0  0  0  0  0  0
   62.9347   34.1884   53.0051 H   0  0  0  0  0  0  0  0  0  0  0  0
   64.0686   33.2569   51.9692 H   0  0  0  0  0  0  0  0  0  0  0  0
   64.1209   35.0524   51.9692 H   0  0  0  0  0  0  0  0  0  0  0  0
   60.6362   33.6536   49.4051 H   0  0  0  0  0  0  0  0  0  0  0  0
   60.7373   30.6777   46.6000 H   0  0  0  0  0  0  0  0  0  0  0  0
  1  2  1  0
  2  3  1  0
  3  4  1  0
  4  5  1  0
  5  6  1  0
  5  7  2  0
  7  8  1  0
  8  9  1  0
  9 10  2  0
 10 11  1  0
 11 12  2  0
 12 13  1  0
 13 14  2  0
 14 15  1  0
 15 16  2  0
 16 17  1  0
 17 18  1  0
 18 19  1  0
 17 20  2  0
 12 21  1  0
 21 22  2  0
 22 23  1  0
 23  3  2  0
 23  7  1  0
 22  9  1  0
 20 13  1  0
  1 24  1  0
  1 25  1  0
  1 26  1  0
  2 27  1  0
  2 28  1  0
  4 29  1  0
  6 30  1  0
  8 31  1  0
 10 32  1  0
 11 33  1  0
 14 34  1  0
 15 35  1  0
 16 36  1  0
 19 37  1  0
 19 38  1  0
 19 39  1  0
 20 40  1  0
 21 41  1  0
M  CHG  1   3   1
M  END
>  <smiles>  (46) 
CC[n+]1[nH]c(O)c2[nH]c3ccc(-c4cccc(OC)c4)cc3c21

>  <score_type>  (46) 
oracle

>  <origin>  (46) 
adg

>  <m_score__min__energy>  (46) 
-6.3899999999999997

>  <m_primary>  (46) 
energy

$$$$
46:0
     RDKit          3D

 48 50  0  0  0  0  0  0  0  0999 V2000
   61.6190   33.8580   49.0780 C   0  0  0  0  0  0  0  0  0  0  0  0
   60.4760   33.1930   49.8660 C   0  0  0  0  0  0  0  0  0  0  0  0
   60.4330   33.7970   51.2810 C   0  0  0  0  0  0  0  0  0  0  0  0
   59.2060   33.4900   49.2120 N   0  0  0  0  0  0  0  0  0  0  0  0
   58.7580   32.9760   47.9530 C   0  0  0  0  0  0  0  0  0  0  0  0
   58.3680   33.8000   47.0830 O   0  0  0  0  0  0  0  0  0  0  0  0
   58.5780   31.5220   47.7010 C   0  0  0  0  0  0  0  0  0  0  0  0
   58.0560   31.1370   46.4490 C   0  0  0  0  0  0  0  0  0  0  0  0
   57.8560   29.7890   46.1330 C   0  0  0  0  0  0  0  0  0  0  0  0
   57.1860   29.3480   44.5650 S   0  0  0  0  0  0  0  0  0  0  0  0
   55.4730   29.1720   44.6960 N   0  0  0  0  0  0  0  0  0  0  0  0
   57.5100   30.4190   43.5600 O   0  0  0  0  0  0  0  0  0  0  0  0
   57.7830   28.0500   44.0950 O   0  0  0  0  0  0  0  0  0  0  0  0
   58.1660   28.8060   47.0730 C   0  0  0  0  0  0  0  0  0  0  0  0
   58.6950   29.1660   48.3100 C   0  0  0  0  0  0  0  0  0  0  0  0
   58.9230   30.5140   48.6380 C   0  0  0  0  0  0  0  0  0  0  0  0
   59.5490   30.8290   49.8950 N   0  0  0  0  0  0  0  0  0  0  0  0
   59.0190   30.2930   51.1570 C   0  0  0  0  0  0  0  0  0  0  0  0
   57.5990   30.7430   51.3890 C   0  0  0  0  0  0  0  0  0  0  0  0
   57.3200   31.9650   51.2830 O   0  0  0  0  0  0  0  0  0  0  0  0
   56.5390   29.8150   51.6590 N   0  0  0  0  0  0  0  0  0  0  0  0
   55.2540   30.1390   52.2020 C   0  0  0  0  0  0  0  0  0  0  0  0
   55.0030   30.0510   53.5800 C   0  0  0  0  0  0  0  0  0  0  0  0
   53.7480   30.3920   54.0880 C   0  0  0  0  0  0  0  0  0  0  0  0
   52.7390   30.8380   53.2290 C   0  0  0  0  0  0  0  0  0  0  0  0
   52.9830   30.9560   51.8490 C   0  0  0  0  0  0  0  0  0  0  0  0
   51.9150   31.4320   50.9410 C   0  0  0  0  0  0  0  0  0  0  0  0
   51.5960   30.7630   49.9230 O   0  0  0  0  0  0  0  0  0  0  0  0
   51.2500   32.6240   51.2020 O   0  0  0  0  0  0  0  0  0  0  0  0
   54.2520   30.6150   51.3470 C   0  0  0  0  0  0  0  0  0  0  0  0
   60.6820   31.6990   49.9160 C   0  0  0  0  0  0  0  0  0  0  0  0
   61.8390   31.2010   49.9950 O   0  0  0  0  0  0  0  0  0  0  0  0
   62.3501   34.2834   49.7812 H   0  0  0  0  0  0  0  0  0  0  0  0
   62.1135   33.1066   48.4448 H   0  0  0  0  0  0  0  0  0  0  0  0
   61.2102   34.6592   48.4448 H   0  0  0  0  0  0  0  0  0  0  0  0
   60.4905   32.9898   52.0261 H   0  0  0  0  0  0  0  0  0  0  0  0
   61.2848   34.4802   51.4141 H   0  0  0  0  0  0  0  0  0  0  0  0
   59.4930   34.3526   51.4141 H   0  0  0  0  0  0  0  0  0  0  0  0
   57.8018   31.9096   45.7084 H   0  0  0  0  0  0  0  0  0  0  0  0
   55.2810   28.7330   45.6240 H   0  0  0  0  0  0  0  0  0  0  0  0
   57.9925   27.7457   46.8370 H   0  0  0  0  0  0  0  0  0  0  0  0
   58.9385   28.3825   49.0427 H   0  0  0  0  0  0  0  0  0  0  0  0
   59.0450   29.1940   51.1187 H   0  0  0  0  0  0  0  0  0  0  0  0
   59.6417   30.6681   51.9826 H   0  0  0  0  0  0  0  0  0  0  0  0
   55.7972   29.7125   54.2617 H   0  0  0  0  0  0  0  0  0  0  0  0
   53.5525   30.3095   55.1673 H   0  0  0  0  0  0  0  0  0  0  0  0
   51.7499   31.0977   53.6344 H   0  0  0  0  0  0  0  0  0  0  0  0
   54.4595   30.7233   50.2722 H   0  0  0  0  0  0  0  0  0  0  0  0
  1  2  1  0
  2  3  1  0
  2  4  1  0
  4  5  1  0
  5  6  2  0
  5  7  1  0
  7  8  2  0
  8  9  1  0
  9 10  1  0
 10 11  1  0
 10 12  2  0
 10 13  2  0
  9 14  2  0
 14 15  1  0
 15 16  2  0
 16 17  1  0
 17 18  1  0
 18 19  1  0
 19 20  2  0
 19 21  1  0
 21 22  1  0
 22 23  2  0
 23 24  1  0
 24 25  2  0
 25 26  1  0
 26 27  1  0
 27 28  2  0
 27 29  1  0
 26 30  2  0
 17 31  1  0
 31 32  2  0
 31  2  1  0
 16  7  1  0
 30 22  1  0
  1 33  1  0
  1 34  1  0
  1 35  1  0
  3 36  1  0
  3 37  1  0
  3 38  1  0
  8 39  1  0
 11 40  1  0
 14 41  1  0
 15 42  1  0
 18 43  1  0
 18 44  1  0
 23 45  1  0
 24 46  1  0
 25 47  1  0
 30 48  1  0
M  CHG  4   4  -1  11  -1  21  -1  29  -1
M  END
>  <UniqueID>  (47) 
44

>  <SMILES>  (47) 
CC1(C)[N-]C(=O)c2cc(S([NH-])(=O)=O)ccc2N(CC(=O)[N-]c2cccc(C(=O)[O-])c2)C1=O

>  <Energy>  (47) 
77.03740156802702

>  <Genealogy>  (47) 
CC1(C)[N-]C(=O)c2cc(S([NH-])(=O)=O)ccc2N(CC(=O)[N-]c2cccc(C(=O)[O-])c2)C1=O (protonated)
CC1(C)[N-]C(=O)c2cc(S([NH-])(=O)=O)ccc2N(CC(=O)[N-]c2cccc(C(=O)[O-])c2)C1=O (3D coordinates assigned)
CC1(C)[N-]C(=O)c2cc(S([NH-])(=O)=O)ccc2N(CC(=O)[N-]c2cccc(C(=O)[O-])c2)C1=O (nonaromatic ring conformer: 77.03740156802702 kcal/mol)

>  <smiles>  (47) 
CC1(C)NC(=O)c2cc(S(N)(=O)=O)ccc2N(CC(=O)Nc2cccc(C(=O)O)c2)C1=O

>  <score_type>  (47) 
oracle

>  <origin>  (47) 
adg

>  <m_score__min__energy>  (47) 
-14.279999999999999

>  <m_primary>  (47) 
energy

$$$$
47:0
     RDKit          3D

 40 42  0  0  0  0  0  0  0  0999 V2000
   54.5240   29.4320   53.1890 O   0  0  0  0  0  0  0  0  0  0  0  0
   54.0810   30.4950   52.6760 C   0  0  0  0  0  0  0  0  0  0  0  0
   52.6230   30.8130   52.7880 C   0  0  0  0  0  0  0  0  0  0  0  0
   52.0130   30.8910   51.4250 C   0  0  0  0  0  0  0  0  0  0  0  0
   52.1780   29.7250   50.2190 S   0  0  0  0  0  0  0  0  0  0  0  0
   51.3190   30.6430   49.1010 C   0  0  0  0  0  0  0  0  0  0  0  0
   51.0790   30.2790   47.9210 O   0  0  0  0  0  0  0  0  0  0  0  0
   50.9130   31.8280   49.6030 N   0  0  0  0  0  0  0  0  0  0  0  0
   51.3070   31.9690   50.8960 C   0  0  0  0  0  0  0  0  0  0  0  0
   51.0230   33.1170   51.6250 O   0  0  0  0  0  0  0  0  0  0  0  0
   54.9610   31.3960   51.9850 N   0  0  0  0  0  0  0  0  0  0  0  0
   56.3950   31.3350   52.0550 C   0  0  0  0  0  0  0  0  0  0  0  0
   57.0610   31.1000   53.2710 C   0  0  0  0  0  0  0  0  0  0  0  0
   58.4580   31.0650   53.3140 C   0  0  0  0  0  0  0  0  0  0  0  0
   59.2010   31.2790   52.1510 C   0  0  0  0  0  0  0  0  0  0  0  0
   58.5510   31.5460   50.9390 C   0  0  0  0  0  0  0  0  0  0  0  0
   59.4810   31.8050   49.4670 S   0  0  0  0  0  0  0  0  0  0  0  0
   59.3730   30.5970   48.5780 O   0  0  0  0  0  0  0  0  0  0  0  0
   60.9270   32.0060   49.8280 O   0  0  0  0  0  0  0  0  0  0  0  0
   58.8820   33.2260   48.6500 N   0  0  0  0  0  0  0  0  0  0  0  0
   58.1800   32.8720   47.4160 C   0  0  0  0  0  0  0  0  0  0  0  0
   58.3050   34.0700   46.4880 C   0  0  0  0  0  0  0  0  0  0  0  0
   59.4810   34.8740   47.0240 C   0  0  0  0  0  0  0  0  0  0  0  0
   59.9760   34.1040   48.2380 C   0  0  0  0  0  0  0  0  0  0  0  0
   57.1500   31.5740   50.8960 C   0  0  0  0  0  0  0  0  0  0  0  0
   52.1211   30.0242   53.3676 H   0  0  0  0  0  0  0  0  0  0  0  0
   52.5015   31.7815   53.2951 H   0  0  0  0  0  0  0  0  0  0  0  0
   54.5290   32.0980   51.3420 H   0  0  0  0  0  0  0  0  0  0  0  0
   56.4805   30.9431   54.1921 H   0  0  0  0  0  0  0  0  0  0  0  0
   58.9730   30.8685   54.2659 H   0  0  0  0  0  0  0  0  0  0  0  0
   60.2996   31.2378   52.1867 H   0  0  0  0  0  0  0  0  0  0  0  0
   58.6425   31.9859   46.9567 H   0  0  0  0  0  0  0  0  0  0  0  0
   57.1251   32.6312   47.6141 H   0  0  0  0  0  0  0  0  0  0  0  0
   58.5021   33.7398   45.4574 H   0  0  0  0  0  0  0  0  0  0  0  0
   57.3804   34.6652   46.4608 H   0  0  0  0  0  0  0  0  0  0  0  0
   60.2742   34.9482   46.2655 H   0  0  0  0  0  0  0  0  0  0  0  0
   59.1896   35.9027   47.2827 H   0  0  0  0  0  0  0  0  0  0  0  0
   60.8621   33.5081   47.9741 H   0  0  0  0  0  0  0  0  0  0  0  0
   60.2642   34.7870   49.0507 H   0  0  0  0  0  0  0  0  0  0  0  0
   56.6379   31.7851   49.9457 H   0  0  0  0  0  0  0  0  0  0  0  0
  1  2  2  0
  2  3  1  0
  3  4  1  0
  4  5  1  0
  5  6  1  0
  6  7  2  0
  6  8  1  0
  8  9  1  0
  9 10  1  0
  2 11  1  0
 11 12  1  0
 12 13  2  0
 13 14  1  0
 14 15  2  0
 15 16  1  0
 16 17  1  0
 17 18  2  0
 17 19  2  0
 17 20  1  0
 20 21  1  0
 21 22  1  0
 22 23  1  0
 23 24  1  0
 16 25  2  0
  9  4  2  0
 25 12  1  0
 24 20  1  0
  3 26  1  0
  3 27  1  0
 11 28  1  0
 13 29  1  0
 14 30  1  0
 15 31  1  0
 21 32  1  0
 21 33  1  0
 22 34  1  0
 22 35  1  0
 23 36  1  0
 23 37  1  0
 24 38  1  0
 24 39  1  0
 25 40  1  0
M  CHG  2   8  -1  10  -1
M  END
>  <UniqueID>  (48) 
45

>  <SMILES>  (48) 
O=C(Cc1sc(=O)[n-]c1[O-])Nc1cccc(S(=O)(=O)N2CCCC2)c1

>  <Energy>  (48) 
73.22602071451006

>  <Genealogy>  (48) 
O=C(Cc1sc(=O)[n-]c1[O-])Nc1cccc(S(=O)(=O)N2CCCC2)c1 (protonated)
O=C(Cc1sc(=O)[n-]c1[O-])Nc1cccc(S(=O)(=O)N2CCCC2)c1 (3D coordinates assigned)
O=C(Cc1sc(=O)[n-]c1[O-])Nc1cccc(S(=O)(=O)N2CCCC2)c1 (nonaromatic ring conformer: 73.22602071451006 kcal/mol)

>  <smiles>  (48) 
O=C(Cc1sc(=O)[nH]c1O)Nc1cccc(S(=O)(=O)N2CCCC2)c1

>  <score_type>  (48) 
oracle

>  <origin>  (48) 
adg

>  <m_score__min__energy>  (48) 
-15.69

>  <m_primary>  (48) 
energy

$$$$
48:0
     RDKit          3D

 60 62  0  0  0  0  0  0  0  0999 V2000
   55.1800   30.8540   52.3510 C   0  0  0  0  0  0  0  0  0  0  0  0
   56.5960   30.8160   52.4920 O   0  0  0  0  0  0  0  0  0  0  0  0
   57.4630   30.8590   51.3980 C   0  0  0  0  0  0  0  0  0  0  0  0
   57.7150   32.0310   50.7520 N   0  0  0  0  0  0  0  0  0  0  0  0
   58.5620   32.0560   49.6890 C   0  0  0  0  0  0  0  0  0  0  0  0
   58.8450   33.1650   49.0750 N   0  0  0  0  0  0  0  0  0  0  0  0
   60.1550   33.5230   48.5340 C   0  0  0  0  0  0  0  0  0  0  0  0
   60.0340   33.9640   47.0700 C   0  0  0  0  0  0  0  0  0  0  0  0
   59.2470   32.9610   46.2640 C   0  0  0  0  0  0  0  0  0  0  0  0
   59.5850   31.5990   46.3030 C   0  0  0  0  0  0  0  0  0  0  0  0
   58.8160   30.6620   45.6070 C   0  0  0  0  0  0  0  0  0  0  0  0
   57.7010   31.0740   44.8650 C   0  0  0  0  0  0  0  0  0  0  0  0
   56.7340   29.8880   43.9930 S   0  0  0  0  0  0  0  0  0  0  0  0
   57.6970   28.4980   43.6350 N   0  0  0  0  0  0  0  0  0  0  0  0
   56.2250   30.4920   42.7140 O   0  0  0  0  0  0  0  0  0  0  0  0
   55.5550   29.4740   44.8310 O   0  0  0  0  0  0  0  0  0  0  0  0
   57.3510   32.4310   44.8380 C   0  0  0  0  0  0  0  0  0  0  0  0
   58.1170   33.3690   45.5350 C   0  0  0  0  0  0  0  0  0  0  0  0
   59.1360   30.9060   49.2660 N   0  0  0  0  0  0  0  0  0  0  0  0
   58.9000   29.7330   49.9050 C   0  0  0  0  0  0  0  0  0  0  0  0
   59.4790   28.5310   49.4630 O   0  0  0  0  0  0  0  0  0  0  0  0
   59.3570   27.9880   48.1710 C   0  0  0  0  0  0  0  0  0  0  0  0
   60.4970   27.4550   47.5630 C   0  0  0  0  0  0  0  0  0  0  0  0
   60.3890   26.8300   46.3190 C   0  0  0  0  0  0  0  0  0  0  0  0
   59.1820   26.7370   45.7030 N   0  0  0  0  0  0  0  0  0  0  0  0
   58.0540   27.2760   46.2390 C   0  0  0  0  0  0  0  0  0  0  0  0
   56.9170   27.0840   45.6290 N   0  0  0  0  0  0  0  0  0  0  0  0
   55.9910   26.0220   45.9050 C   0  0  0  0  0  0  0  0  0  0  0  0
   54.7600   26.2860   46.0120 O   0  0  0  0  0  0  0  0  0  0  0  0
   56.4970   24.5940   46.0320 C   0  0  0  0  0  0  0  0  0  0  0  0
   57.1940   24.4230   47.3960 C   0  0  0  0  0  0  0  0  0  0  0  0
   57.4990   24.2600   44.9030 C   0  0  0  0  0  0  0  0  0  0  0  0
   55.3020   23.6200   45.9340 C   0  0  0  0  0  0  0  0  0  0  0  0
   58.1390   27.9590   47.4690 C   0  0  0  0  0  0  0  0  0  0  0  0
   58.0620   29.7150   50.9740 N   0  0  0  0  0  0  0  0  0  0  0  0
   54.7126   30.8665   53.3467 H   0  0  0  0  0  0  0  0  0  0  0  0
   54.8907   31.7602   51.7987 H   0  0  0  0  0  0  0  0  0  0  0  0
   54.8425   29.9646   51.7987 H   0  0  0  0  0  0  0  0  0  0  0  0
   60.5771   34.3483   49.1262 H   0  0  0  0  0  0  0  0  0  0  0  0
   60.8119   32.6421   48.5852 H   0  0  0  0  0  0  0  0  0  0  0  0
   59.5236   34.9376   47.0291 H   0  0  0  0  0  0  0  0  0  0  0  0
   61.0450   34.0392   46.6431 H   0  0  0  0  0  0  0  0  0  0  0  0
   60.4586   31.2678   46.8837 H   0  0  0  0  0  0  0  0  0  0  0  0
   59.0873   29.5965   45.6419 H   0  0  0  0  0  0  0  0  0  0  0  0
   58.3090   28.3280   44.4640 H   0  0  0  0  0  0  0  0  0  0  0  0
   57.0460   27.6850   43.5670 H   0  0  0  0  0  0  0  0  0  0  0  0
   56.4703   32.7586   44.2662 H   0  0  0  0  0  0  0  0  0  0  0  0
   57.8342   34.4318   45.5130 H   0  0  0  0  0  0  0  0  0  0  0  0
   61.4746   27.5275   48.0620 H   0  0  0  0  0  0  0  0  0  0  0  0
   61.2845   26.4115   45.8362 H   0  0  0  0  0  0  0  0  0  0  0  0
   56.4684   24.6010   48.2034 H   0  0  0  0  0  0  0  0  0  0  0  0
   57.5915   23.4007   47.4790 H   0  0  0  0  0  0  0  0  0  0  0  0
   58.0195   25.1453   47.4790 H   0  0  0  0  0  0  0  0  0  0  0  0
   58.4551   23.9413   45.3438 H   0  0  0  0  0  0  0  0  0  0  0  0
   57.0934   23.4485   44.2810 H   0  0  0  0  0  0  0  0  0  0  0  0
   57.6614   25.1526   44.2810 H   0  0  0  0  0  0  0  0  0  0  0  0
   54.9674   23.3472   46.9457 H   0  0  0  0  0  0  0  0  0  0  0  0
   54.4764   24.1058   45.3932 H   0  0  0  0  0  0  0  0  0  0  0  0
   55.6113   22.7134   45.3932 H   0  0  0  0  0  0  0  0  0  0  0  0
   57.2543   28.4683   47.8789 H   0  0  0  0  0  0  0  0  0  0  0  0
  1  2  1  0
  2  3  1  0
  3  4  2  0
  4  5  1  0
  5  6  2  3
  6  7  1  0
  7  8  1  0
  8  9  1  0
  9 10  2  0
 10 11  1  0
 11 12  2  0
 12 13  1  0
 13 14  1  0
 13 15  2  0
 13 16  2  0
 12 17  1  0
 17 18  2  0
  5 19  1  0
 19 20  2  0
 20 21  1  0
 21 22  1  0
 22 23  1  0
 23 24  2  0
 24 25  1  0
 25 26  1  0
 26 27  2  3
 27 28  1  0
 28 29  2  0
 28 30  1  0
 30 31  1  0
 30 32  1  0
 30 33  1  0
 26 34  1  0
 20 35  1  0
 35  3  1  0
 18  9  1  0
 34 22  2  0
  1 36  1  0
  1 37  1  0
  1 38  1  0
  7 39  1  0
  7 40  1  0
  8 41  1  0
  8 42  1  0
 10 43  1  0
 11 44  1  0
 14 45  1  0
 14 46  1  0
 17 47  1  0
 18 48  1  0
 23 49  1  0
 24 50  1  0
 31 51  1  0
 31 52  1  0
 31 53  1  0
 32 54  1  0
 32 55  1  0
 32 56  1  0
 33 57  1  0
 33 58  1  0
 33 59  1  0
 34 60  1  0
M  CHG  2  25  -1  35  -1
M  END
>  <UniqueID>  (49) 
46

>  <SMILES>  (49) 
COc1nc(=NCCc2ccc(S(N)(=O)=O)cc2)nc(Oc2cc[n-]c(=NC(=O)C(C)(C)C)c2)[n-]1

>  <Energy>  (49) 
63.79856112294934

>  <Genealogy>  (49) 
COc1nc(=NCCc2ccc(S(N)(=O)=O)cc2)nc(Oc2cc[n-]c(=NC(=O)C(C)(C)C)c2)[n-]1 (protonated)
COc1nc(=NCCc2ccc(S(N)(=O)=O)cc2)nc(Oc2cc[n-]c(=NC(=O)C(C)(C)C)c2)[n-]1 (3D coordinates assigned)
COc1nc(=NCCc2ccc(S(N)(=O)=O)cc2)nc(Oc2cc[n-]c(=NC(=O)C(C)(C)C)c2)[n-]1 (optimized conformer: 63.79856112294934 kcal/mol)

>  <smiles>  (49) 
COc1nc(=NCCc2ccc(S(N)(=O)=O)cc2)nc(Oc2cc[nH]c(=NC(=O)C(C)(C)C)c2)[nH]1

>  <score_type>  (49) 
oracle

>  <origin>  (49) 
adg

>  <m_score__min__energy>  (49) 
-11.859999999999999

>  <m_primary>  (49) 
energy

$$$$
49:0
     RDKit          3D

 39 41  0  0  0  0  0  0  0  0999 V2000
   54.1960   29.2510   54.6620 O   0  0  0  0  0  0  0  0  0  0  0  0
   54.5930   29.7730   53.5860 C   0  0  0  0  0  0  0  0  0  0  0  0
   56.0090   30.2460   53.4810 C   0  0  0  0  0  0  0  0  0  0  0  0
   56.1180   31.6870   52.3670 S   0  0  0  0  0  0  0  0  0  0  0  0
   57.3970   30.9690   51.3400 C   0  0  0  0  0  0  0  0  0  0  0  0
   57.7170   29.6630   51.3350 N   0  0  0  0  0  0  0  0  0  0  0  0
   58.6800   29.5230   50.4380 N   0  0  0  0  0  0  0  0  0  0  0  0
   58.9070   30.7530   49.9350 C   0  0  0  0  0  0  0  0  0  0  0  0
   59.8930   31.0510   48.8530 C   0  0  0  0  0  0  0  0  0  0  0  0
   60.4190   32.4040   49.0040 N   0  0  0  0  0  0  0  0  0  0  0  0
   59.7190   33.6170   48.6850 C   0  0  0  0  0  0  0  0  0  0  0  0
   59.6410   34.5190   49.5590 O   0  0  0  0  0  0  0  0  0  0  0  0
   59.0550   33.8210   47.3830 C   0  0  0  0  0  0  0  0  0  0  0  0
   57.7960   33.2540   47.1230 C   0  0  0  0  0  0  0  0  0  0  0  0
   57.1730   33.4630   45.8880 C   0  0  0  0  0  0  0  0  0  0  0  0
   57.8050   34.2270   44.9040 C   0  0  0  0  0  0  0  0  0  0  0  0
   59.0680   34.7750   45.1480 C   0  0  0  0  0  0  0  0  0  0  0  0
   59.6960   34.5660   46.3800 C   0  0  0  0  0  0  0  0  0  0  0  0
   58.1260   31.6480   50.4890 O   0  0  0  0  0  0  0  0  0  0  0  0
   53.7580   29.8040   52.4170 N   0  0  0  0  0  0  0  0  0  0  0  0
   52.7790   30.6160   52.1200 C   0  0  0  0  0  0  0  0  0  0  0  0
   51.9800   31.0960   53.1670 C   0  0  0  0  0  0  0  0  0  0  0  0
   50.9240   31.9680   52.8980 C   0  0  0  0  0  0  0  0  0  0  0  0
   50.6590   32.3430   51.6200 N   0  0  0  0  0  0  0  0  0  0  0  0
   51.3990   31.8850   50.5770 C   0  0  0  0  0  0  0  0  0  0  0  0
   52.4660   31.0100   50.8010 C   0  0  0  0  0  0  0  0  0  0  0  0
   56.3705   30.5320   54.4798 H   0  0  0  0  0  0  0  0  0  0  0  0
   56.6274   29.4326   53.0735 H   0  0  0  0  0  0  0  0  0  0  0  0
   60.7226   30.3309   48.9100 H   0  0  0  0  0  0  0  0  0  0  0  0
   59.3893   30.9702   47.8784 H   0  0  0  0  0  0  0  0  0  0  0  0
   57.2992   32.6445   47.8922 H   0  0  0  0  0  0  0  0  0  0  0  0
   56.1834   33.0248   45.6913 H   0  0  0  0  0  0  0  0  0  0  0  0
   57.3090   34.3975   43.9371 H   0  0  0  0  0  0  0  0  0  0  0  0
   59.5681   35.3710   44.3703 H   0  0  0  0  0  0  0  0  0  0  0  0
   60.6956   34.9867   46.5640 H   0  0  0  0  0  0  0  0  0  0  0  0
   52.1856   30.7850   54.2019 H   0  0  0  0  0  0  0  0  0  0  0  0
   50.3054   32.3521   53.7225 H   0  0  0  0  0  0  0  0  0  0  0  0
   51.1577   32.2038   49.5522 H   0  0  0  0  0  0  0  0  0  0  0  0
   53.0579   30.6309   49.9549 H   0  0  0  0  0  0  0  0  0  0  0  0
  1  2  2  0
  2  3  1  0
  3  4  1  0
  4  5  1  0
  5  6  2  0
  6  7  1  0
  7  8  2  0
  8  9  1  0
  9 10  1  0
 10 11  1  0
 11 12  2  0
 11 13  1  0
 13 14  2  0
 14 15  1  0
 15 16  2  0
 16 17  1  0
 17 18  2  0
  8 19  1  0
  2 20  1  0
 20 21  2  3
 21 22  1  0
 22 23  2  0
 23 24  1  0
 24 25  1  0
 25 26  2  0
 19  5  1  0
 26 21  1  0
 18 13  1  0
  3 27  1  0
  3 28  1  0
  9 29  1  0
  9 30  1  0
 14 31  1  0
 15 32  1  0
 16 33  1  0
 17 34  1  0
 18 35  1  0
 22 36  1  0
 23 37  1  0
 25 38  1  0
 26 39  1  0
M  CHG  2  10  -1  24  -1
M  END
>  <UniqueID>  (50) 
47

>  <SMILES>  (50) 
O=C(CSc1nnc(C[N-]C(=O)c2ccccc2)o1)N=c1cc[n-]cc1

>  <Energy>  (50) 
80.64723583500258

>  <Genealogy>  (50) 
O=C(CSc1nnc(C[N-]C(=O)c2ccccc2)o1)N=c1cc[n-]cc1 (protonated)
O=C(CSc1nnc(C[N-]C(=O)c2ccccc2)o1)N=c1cc[n-]cc1 (3D coordinates assigned)
O=C(CSc1nnc(C[N-]C(=O)c2ccccc2)o1)N=c1cc[n-]cc1 (optimized conformer: 80.64723583500258 kcal/mol)

>  <smiles>  (50) 
O=C(CSc1nnc(CNC(=O)c2ccccc2)o1)N=c1cc[nH]cc1

>  <score_type>  (50) 
oracle

>  <origin>  (50) 
adg

>  <m_score__min__energy>  (50) 
-11.460000000000001

>  <m_primary>  (50) 
energy

$$$$
50:0
     RDKit          3D

 47 49  0  0  0  0  0  0  0  0999 V2000
   57.7800   26.9860   44.4290 C   0  0  0  0  0  0  0  0  0  0  0  0
   56.6470   27.7570   45.5690 S   0  0  0  0  0  0  0  0  0  0  0  0
   55.6050   26.7620   45.9910 O   0  0  0  0  0  0  0  0  0  0  0  0
   57.4220   28.1860   46.7830 O   0  0  0  0  0  0  0  0  0  0  0  0
   55.8840   29.1640   44.8800 N   0  0  0  0  0  0  0  0  0  0  0  0
   56.5190   29.5910   43.6310 C   0  0  0  0  0  0  0  0  0  0  0  0
   57.0290   31.0350   43.7120 C   0  0  0  0  0  0  0  0  0  0  0  0
   56.7980   31.5970   45.0060 O   0  0  0  0  0  0  0  0  0  0  0  0
   57.7880   32.0780   45.8780 C   0  0  0  0  0  0  0  0  0  0  0  0
   58.1980   33.4240   45.8940 C   0  0  0  0  0  0  0  0  0  0  0  0
   59.2310   33.8310   46.7390 C   0  0  0  0  0  0  0  0  0  0  0  0
   59.8400   32.9120   47.5980 C   0  0  0  0  0  0  0  0  0  0  0  0
   59.3650   31.5920   47.6830 C   0  0  0  0  0  0  0  0  0  0  0  0
   58.3840   31.1710   46.7620 C   0  0  0  0  0  0  0  0  0  0  0  0
   60.0140   30.6860   48.6850 C   0  0  0  0  0  0  0  0  0  0  0  0
   59.4000   29.6070   49.2470 C   0  0  0  0  0  0  0  0  0  0  0  0
   59.7370   28.2570   48.8600 C   0  0  0  0  0  0  0  0  0  0  0  0
   60.0060   27.1750   48.5490 N   0  0  0  0  0  0  0  0  0  0  0  0
   58.4930   29.7130   50.3620 C   0  0  0  0  0  0  0  0  0  0  0  0
   57.7710   29.7970   51.2640 N   0  0  0  0  0  0  0  0  0  0  0  0
   61.3510   31.1160   49.1810 C   0  0  0  0  0  0  0  0  0  0  0  0
   61.7550   32.3920   49.0460 C   0  0  0  0  0  0  0  0  0  0  0  0
   63.0390   32.8730   49.6160 C   0  0  0  0  0  0  0  0  0  0  0  0
   63.0190   33.8250   50.6500 C   0  0  0  0  0  0  0  0  0  0  0  0
   64.2110   34.2880   51.2140 C   0  0  0  0  0  0  0  0  0  0  0  0
   65.4440   33.7990   50.7620 C   0  0  0  0  0  0  0  0  0  0  0  0
   66.6620   34.2720   51.3410 N   0  0  0  0  0  0  0  0  0  0  0  0
   65.4720   32.8390   49.7420 C   0  0  0  0  0  0  0  0  0  0  0  0
   64.2820   32.3760   49.1750 C   0  0  0  0  0  0  0  0  0  0  0  0
   60.9600   33.3050   48.3360 O   0  0  0  0  0  0  0  0  0  0  0  0
   58.5614   26.4543   44.9918 H   0  0  0  0  0  0  0  0  0  0  0  0
   57.2336   26.2714   43.7959 H   0  0  0  0  0  0  0  0  0  0  0  0
   58.2442   27.7565   43.7959 H   0  0  0  0  0  0  0  0  0  0  0  0
   57.3686   28.9254   43.4186 H   0  0  0  0  0  0  0  0  0  0  0  0
   55.7653   29.5405   42.8313 H   0  0  0  0  0  0  0  0  0  0  0  0
   58.1093   31.0454   43.5048 H   0  0  0  0  0  0  0  0  0  0  0  0
   56.4839   31.6372   42.9702 H   0  0  0  0  0  0  0  0  0  0  0  0
   57.7033   34.1565   45.2393 H   0  0  0  0  0  0  0  0  0  0  0  0
   59.5671   34.8784   46.7291 H   0  0  0  0  0  0  0  0  0  0  0  0
   58.0823   30.1134   46.7378 H   0  0  0  0  0  0  0  0  0  0  0  0
   62.0147   30.3828   49.6625 H   0  0  0  0  0  0  0  0  0  0  0  0
   62.0564   34.2091   51.0186 H   0  0  0  0  0  0  0  0  0  0  0  0
   64.1812   35.0398   52.0165 H   0  0  0  0  0  0  0  0  0  0  0  0
   66.9830   35.2540   51.1840 H   0  0  0  0  0  0  0  0  0  0  0  0
   67.2540   33.6430   51.9280 H   0  0  0  0  0  0  0  0  0  0  0  0
   66.4363   32.4476   49.3856 H   0  0  0  0  0  0  0  0  0  0  0  0
   64.3154   31.6180   48.3785 H   0  0  0  0  0  0  0  0  0  0  0  0
  1  2  1  0
  2  3  2  0
  2  4  2  0
  2  5  1  0
  5  6  1  0
  6  7  1  0
  7  8  1  0
  8  9  1  0
  9 10  2  0
 10 11  1  0
 11 12  2  0
 12 13  1  0
 13 14  2  0
 13 15  1  0
 15 16  2  3
 16 17  1  0
 17 18  3  0
 16 19  1  0
 19 20  3  0
 15 21  1  0
 21 22  2  0
 22 23  1  0
 23 24  2  0
 24 25  1  0
 25 26  2  0
 26 27  1  0
 26 28  1  0
 28 29  2  0
 22 30  1  0
 14  9  1  0
 29 23  1  0
 30 12  1  0
  1 31  1  0
  1 32  1  0
  1 33  1  0
  6 34  1  0
  6 35  1  0
  7 36  1  0
  7 37  1  0
 10 38  1  0
 11 39  1  0
 14 40  1  0
 21 41  1  0
 24 42  1  0
 25 43  1  0
 27 44  1  0
 27 45  1  0
 28 46  1  0
 29 47  1  0
M  CHG  1   5  -1
M  END
>  <UniqueID>  (51) 
48

>  <SMILES>  (51) 
CS(=O)(=O)[N-]CCOc1ccc2c(c1)C(=C(C#N)C#N)C=C(c1ccc(N)cc1)O2

>  <Energy>  (51) 
58.926959829603355

>  <Genealogy>  (51) 
CS(=O)(=O)[N-]CCOc1ccc2c(c1)C(=C(C#N)C#N)C=C(c1ccc(N)cc1)O2 (protonated)
CS(=O)(=O)[N-]CCOc1ccc2c(c1)C(=C(C#N)C#N)C=C(c1ccc(N)cc1)O2 (3D coordinates assigned)
CS(=O)(=O)[N-]CCOc1ccc2c(c1)C(=C(C#N)C#N)C=C(c1ccc(N)cc1)O2 (nonaromatic ring conformer: 58.926959829603355 kcal/mol)

>  <smiles>  (51) 
CS(=O)(=O)NCCOc1ccc2c(c1)C(=C(C#N)C#N)C=C(c1ccc(N)cc1)O2

>  <score_type>  (51) 
oracle

>  <origin>  (51) 
adg

>  <m_score__min__energy>  (51) 
-9.9499999999999993

>  <m_primary>  (51) 
energy

$$$$
51:0
     RDKit          3D

 32 34  0  0  0  0  0  0  0  0999 V2000
   55.1430   26.3520   47.1230 H   0  0  0  0  0  0  0  0  0  0  0  0
   55.2810   26.4290   46.1230 O   0  0  0  0  0  0  0  0  0  0  0  0
   56.1500   27.3780   45.5970 C   0  0  0  0  0  0  0  0  0  0  0  0
   55.7420   28.5570   45.0890 N   0  0  0  0  0  0  0  0  0  0  0  0
   56.8760   29.1720   44.6940 C   0  0  0  0  0  0  0  0  0  0  0  0
   56.8980   30.5030   44.0750 C   0  0  0  0  0  0  0  0  0  0  0  0
   57.1210   30.6050   42.8370 O   0  0  0  0  0  0  0  0  0  0  0  0
   56.6670   31.6680   44.8840 N   0  0  0  0  0  0  0  0  0  0  0  0
   57.5390   32.5890   45.1680 C   0  0  0  0  0  0  0  0  0  0  0  0
   58.1970   33.3270   44.2450 N   0  0  0  0  0  0  0  0  0  0  0  0
   59.0420   34.2180   44.8300 C   0  0  0  0  0  0  0  0  0  0  0  0
   59.6653   34.9139   44.2492 H   0  0  0  0  0  0  0  0  0  0  0  0
   59.0560   34.1800   46.2200 C   0  0  0  0  0  0  0  0  0  0  0  0
   59.8520   35.0750   47.1190 C   0  0  0  0  0  0  0  0  0  0  0  0
   60.6733   35.5281   46.5444 H   0  0  0  0  0  0  0  0  0  0  0  0
   59.1916   35.8594   47.5173 H   0  0  0  0  0  0  0  0  0  0  0  0
   60.4260   34.2880   48.2700 C   0  0  0  0  0  0  0  0  0  0  0  0
   59.7010   34.2050   49.4720 C   0  0  0  0  0  0  0  0  0  0  0  0
   58.7168   34.6900   49.5500 H   0  0  0  0  0  0  0  0  0  0  0  0
   60.2210   33.5110   50.5690 C   0  0  0  0  0  0  0  0  0  0  0  0
   59.3010   33.4130   52.0600 Cl  0  0  0  0  0  0  0  0  0  0  0  0
   61.4720   32.8990   50.4790 C   0  0  0  0  0  0  0  0  0  0  0  0
   61.8780   32.3497   51.3412 H   0  0  0  0  0  0  0  0  0  0  0  0
   62.2090   32.9830   49.2960 C   0  0  0  0  0  0  0  0  0  0  0  0
   63.1956   32.5009   49.2312 H   0  0  0  0  0  0  0  0  0  0  0  0
   61.7000   33.6770   48.1920 C   0  0  0  0  0  0  0  0  0  0  0  0
   62.6850   33.7570   46.7350 Cl  0  0  0  0  0  0  0  0  0  0  0  0
   57.9660   33.0040   46.7390 S   0  0  0  0  0  0  0  0  0  0  0  0
   57.9880   28.3880   44.9520 C   0  0  0  0  0  0  0  0  0  0  0  0
   59.0370   28.6381   44.7349 H   0  0  0  0  0  0  0  0  0  0  0  0
   57.5180   27.2340   45.5340 C   0  0  0  0  0  0  0  0  0  0  0  0
   58.1118   26.3742   45.8779 H   0  0  0  0  0  0  0  0  0  0  0  0
  1  2  1  0
  2  3  1  0
  3  4  1  0
  4  5  1  0
  5  6  1  0
  6  7  2  0
  6  8  1  0
  8  9  2  0
  9 10  1  0
 10 11  1  0
 11 12  1  0
 11 13  2  0
 13 14  1  0
 14 15  1  0
 14 16  1  0
 14 17  1  0
 17 18  2  0
 18 19  1  0
 18 20  1  0
 20 21  1  0
 20 22  2  0
 22 23  1  0
 22 24  1  0
 24 25  1  0
 24 26  2  0
 26 27  1  0
 13 28  1  0
  5 29  2  0
 29 30  1  0
 29 31  1  0
 31 32  1  0
 31  3  2  0
 28  9  1  0
 26 17  1  0
M  CHG  2   4  -1  10  -1
M  END
>  <UniqueID>  (52) 
49

>  <SMILES>  (52) 
O=C(/N=c1\[n-]cc(Cc2cc(Cl)ccc2Cl)s1)c1ccc(O)[n-]1

>  <Energy>  (52) 
89.21445071076147

>  <Genealogy>  (52) 
O=C(N=c1[n-]cc(Cc2cc(Cl)ccc2Cl)s1)c1ccc(O)[n-]1 (protonated)
O=C(/N=c1\[n-]cc(Cc2cc(Cl)ccc2Cl)s1)c1ccc(O)[n-]1 (cis-trans isomerization)
O=C(/N=c1\[n-]cc(Cc2cc(Cl)ccc2Cl)s1)c1ccc(O)[n-]1 (3D coordinates assigned)
O=C(/N=c1\[n-]cc(Cc2cc(Cl)ccc2Cl)s1)c1ccc(O)[n-]1 (optimized conformer: 89.21445071076147 kcal/mol)

>  <smiles>  (52) 
O=C(N=c1[nH]cc(Cc2cc(Cl)ccc2Cl)s1)c1ccc(O)[nH]1

>  <score_type>  (52) 
oracle

>  <origin>  (52) 
adg

>  <m_score__min__energy>  (52) 
-12.56

>  <m_primary>  (52) 
energy

$$$$
52:0
     RDKit          3D

 32 34  0  0  0  0  0  0  0  0999 V2000
   55.1380   26.7110   45.9880 O   0  0  0  0  0  0  0  0  0  0  0  0
   55.9900   25.7900   46.0860 C   0  0  0  0  0  0  0  0  0  0  0  0
   55.8810   24.8560   47.1080 O   0  0  0  0  0  0  0  0  0  0  0  0
   57.1450   25.7310   45.1390 C   0  0  0  0  0  0  0  0  0  0  0  0
   58.1140   26.8410   45.4380 C   0  0  0  0  0  0  0  0  0  0  0  0
   59.3140   26.5710   46.1150 C   0  0  0  0  0  0  0  0  0  0  0  0
   60.2010   27.6070   46.4150 C   0  0  0  0  0  0  0  0  0  0  0  0
   59.8950   28.9200   46.0550 C   0  0  0  0  0  0  0  0  0  0  0  0
   58.6860   29.2100   45.4010 C   0  0  0  0  0  0  0  0  0  0  0  0
   58.3630   30.6000   45.0050 C   0  0  0  0  0  0  0  0  0  0  0  0
   57.8720   30.8310   43.7120 C   0  0  0  0  0  0  0  0  0  0  0  0
   57.6000   32.0920   43.2890 N   0  0  0  0  0  0  0  0  0  0  0  0
   57.7840   33.1730   44.0880 C   0  0  0  0  0  0  0  0  0  0  0  0
   58.2560   33.0090   45.3960 C   0  0  0  0  0  0  0  0  0  0  0  0
   58.4300   34.1220   46.2330 C   0  0  0  0  0  0  0  0  0  0  0  0
   58.8770   33.9500   47.5450 C   0  0  0  0  0  0  0  0  0  0  0  0
   59.1450   32.6700   48.0310 C   0  0  0  0  0  0  0  0  0  0  0  0
   58.9770   31.5530   47.2080 C   0  0  0  0  0  0  0  0  0  0  0  0
   58.5450   31.7050   45.8740 C   0  0  0  0  0  0  0  0  0  0  0  0
   57.8030   28.1660   45.0880 C   0  0  0  0  0  0  0  0  0  0  0  0
   57.6557   24.7628   45.2476 H   0  0  0  0  0  0  0  0  0  0  0  0
   56.7735   25.8442   44.1098 H   0  0  0  0  0  0  0  0  0  0  0  0
   59.5564   25.5395   46.4102 H   0  0  0  0  0  0  0  0  0  0  0  0
   61.1441   27.3873   46.9369 H   0  0  0  0  0  0  0  0  0  0  0  0
   60.6026   29.7304   46.2840 H   0  0  0  0  0  0  0  0  0  0  0  0
   57.7055   29.9815   43.0333 H   0  0  0  0  0  0  0  0  0  0  0  0
   57.5618   34.1808   43.7073 H   0  0  0  0  0  0  0  0  0  0  0  0
   58.2138   35.1321   45.8549 H   0  0  0  0  0  0  0  0  0  0  0  0
   59.0180   34.8252   48.1962 H   0  0  0  0  0  0  0  0  0  0  0  0
   59.4903   32.5393   49.0672 H   0  0  0  0  0  0  0  0  0  0  0  0
   59.1833   30.5476   47.6037 H   0  0  0  0  0  0  0  0  0  0  0  0
   56.8606   28.3860   44.5650 H   0  0  0  0  0  0  0  0  0  0  0  0
  1  2  2  0
  2  3  1  0
  2  4  1  0
  4  5  1  0
  5  6  2  0
  6  7  1  0
  7  8  2  0
  8  9  1  0
  9 10  1  0
 10 11  2  0
 11 12  1  0
 12 13  2  0
 13 14  1  0
 14 15  2  0
 15 16  1  0
 16 17  2  0
 17 18  1  0
 18 19  2  0
  9 20  2  0
 20  5  1  0
 19 10  1  0
 19 14  1  0
  4 21  1  0
  4 22  1  0
  6 23  1  0
  7 24  1  0
  8 25  1  0
 11 26  1  0
 13 27  1  0
 15 28  1  0
 16 29  1  0
 17 30  1  0
 18 31  1  0
 20 32  1  0
M  CHG  1   3  -1
M  END
>  <UniqueID>  (53) 
50

>  <SMILES>  (53) 
O=C([O-])Cc1cccc(-c2cncc3ccccc23)c1

>  <Energy>  (53) 
45.56583517550843

>  <Genealogy>  (53) 
O=C([O-])Cc1cccc(-c2cncc3ccccc23)c1 (protonated)
O=C([O-])Cc1cccc(-c2cncc3ccccc23)c1 (3D coordinates assigned)
O=C([O-])Cc1cccc(-c2cncc3ccccc23)c1 (optimized conformer: 45.56583517550843 kcal/mol)

>  <smiles>  (53) 
O=C(O)Cc1cccc(-c2cncc3ccccc23)c1

>  <score_type>  (53) 
oracle

>  <origin>  (53) 
adg

>  <m_score__min__energy>  (53) 
-10.550000000000001

>  <m_primary>  (53) 
energy

$$$$
53:0
     RDKit          3D

 30 31  0  0  0  0  0  0  0  0999 V2000
   60.2210   30.2590   48.3460 O   0  0  0  0  0  0  0  0  0  0  0  0
   60.3270   30.2950   47.0900 C   0  0  0  0  0  0  0  0  0  0  0  0
   60.3120   31.6140   46.3850 C   0  0  0  0  0  0  0  0  0  0  0  0
   58.7250   32.4730   46.6560 S   0  0  0  0  0  0  0  0  0  0  0  0
   57.8910   31.6780   45.2850 C   0  0  0  0  0  0  0  0  0  0  0  0
   58.1280   32.0940   44.0130 N   0  0  0  0  0  0  0  0  0  0  0  0
   57.5040   31.5070   42.9590 C   0  0  0  0  0  0  0  0  0  0  0  0
   57.7350   31.9100   41.7900 O   0  0  0  0  0  0  0  0  0  0  0  0
   56.6060   30.4610   43.1770 C   0  0  0  0  0  0  0  0  0  0  0  0
   56.3760   30.0420   44.4920 C   0  0  0  0  0  0  0  0  0  0  0  0
   55.4930   29.0020   44.7640 O   0  0  0  0  0  0  0  0  0  0  0  0
   57.0230   30.6580   45.5160 N   0  0  0  0  0  0  0  0  0  0  0  0
   60.5450   29.0970   46.3350 N   0  0  0  0  0  0  0  0  0  0  0  0
   59.5580   28.3610   45.5960 C   0  0  0  0  0  0  0  0  0  0  0  0
   59.6600   28.2060   44.2040 C   0  0  0  0  0  0  0  0  0  0  0  0
   58.7120   27.4600   43.5070 C   0  0  0  0  0  0  0  0  0  0  0  0
   57.6560   26.8560   44.1870 C   0  0  0  0  0  0  0  0  0  0  0  0
   57.5320   26.9810   45.5830 C   0  0  0  0  0  0  0  0  0  0  0  0
   56.3820   26.3250   46.2550 C   0  0  0  0  0  0  0  0  0  0  0  0
   55.2040   26.6810   45.9840 O   0  0  0  0  0  0  0  0  0  0  0  0
   56.5740   25.3420   47.2180 O   0  0  0  0  0  0  0  0  0  0  0  0
   58.5080   27.7300   46.2920 C   0  0  0  0  0  0  0  0  0  0  0  0
   58.4800   27.8630   48.0540 Cl  0  0  0  0  0  0  0  0  0  0  0  0
   61.1311   32.2388   46.7707 H   0  0  0  0  0  0  0  0  0  0  0  0
   60.4398   31.4397   45.3064 H   0  0  0  0  0  0  0  0  0  0  0  0
   56.0908   29.9770   42.3342 H   0  0  0  0  0  0  0  0  0  0  0  0
   55.7300   28.0390   44.5560 H   0  0  0  0  0  0  0  0  0  0  0  0
   60.4930   28.6762   43.6609 H   0  0  0  0  0  0  0  0  0  0  0  0
   58.7973   27.3473   42.4161 H   0  0  0  0  0  0  0  0  0  0  0  0
   56.9102   26.2743   43.6254 H   0  0  0  0  0  0  0  0  0  0  0  0
  1  2  2  0
  2  3  1  0
  3  4  1  0
  4  5  1  0
  5  6  2  0
  6  7  1  0
  7  8  2  0
  7  9  1  0
  9 10  2  0
 10 11  1  0
 10 12  1  0
  2 13  1  0
 13 14  1  0
 14 15  2  0
 15 16  1  0
 16 17  2  0
 17 18  1  0
 18 19  1  0
 19 20  2  0
 19 21  1  0
 18 22  2  0
 22 23  1  0
 12  5  1  0
 22 14  1  0
  3 24  1  0
  3 25  1  0
  9 26  1  0
 11 27  1  0
 15 28  1  0
 16 29  1  0
 17 30  1  0
M  CHG  3  12  -1  13  -1  21  -1
M  END
>  <UniqueID>  (54) 
51

>  <SMILES>  (54) 
O=C(CSc1nc(=O)cc(O)[n-]1)[N-]c1cccc(C(=O)[O-])c1Cl

>  <Energy>  (54) 
35.58505394062604

>  <Genealogy>  (54) 
O=C(CSc1nc(=O)cc(O)[n-]1)[N-]c1cccc(C(=O)[O-])c1Cl (protonated)
O=C(CSc1nc(=O)cc(O)[n-]1)[N-]c1cccc(C(=O)[O-])c1Cl (3D coordinates assigned)
O=C(CSc1nc(=O)cc(O)[n-]1)[N-]c1cccc(C(=O)[O-])c1Cl (optimized conformer: 35.58505394062604 kcal/mol)

>  <smiles>  (54) 
O=C(CSc1nc(=O)cc(O)[nH]1)Nc1cccc(C(=O)O)c1Cl

>  <score_type>  (54) 
oracle

>  <origin>  (54) 
adg

>  <m_score__min__energy>  (54) 
-11.85

>  <m_primary>  (54) 
energy

$$$$
54:0
     RDKit          3D

 56 58  0  0  0  0  0  0  0  0999 V2000
   57.2340   25.8390   46.8410 O   0  0  0  0  0  0  0  0  0  0  0  0
   56.7750   26.5030   45.8760 C   0  0  0  0  0  0  0  0  0  0  0  0
   55.5180   27.0860   45.9770 O   0  0  0  0  0  0  0  0  0  0  0  0
   57.5560   26.6200   44.6020 C   0  0  0  0  0  0  0  0  0  0  0  0
   58.9060   27.3270   44.8440 C   0  0  1  0  0  0  0  0  0  0  0  0
   58.9040   28.6770   44.2640 N   0  0  0  0  0  0  0  0  0  0  0  0
   57.9090   29.6750   44.5420 C   0  0  0  0  0  0  0  0  0  0  0  0
   56.9220   29.4000   45.2760 O   0  0  0  0  0  0  0  0  0  0  0  0
   58.0520   30.9900   43.9820 N   0  0  0  0  0  0  0  0  0  0  0  0
   57.2520   32.1170   44.3640 C   0  0  0  0  0  0  0  0  0  0  0  0
   56.3310   31.9940   45.2180 O   0  0  0  0  0  0  0  0  0  0  0  0
   57.5160   33.3640   43.7860 O   0  0  0  0  0  0  0  0  0  0  0  0
   57.6230   34.5690   44.5400 C   0  0  0  0  0  0  0  0  0  0  0  0
   58.5040   34.3570   45.7410 C   0  0  0  0  0  0  0  0  0  0  0  0
   59.8640   34.7050   45.6810 C   0  0  0  0  0  0  0  0  0  0  0  0
   60.6980   34.4820   46.7810 C   0  0  0  0  0  0  0  0  0  0  0  0
   60.1810   33.9100   47.9460 C   0  0  0  0  0  0  0  0  0  0  0  0
   58.8300   33.5560   48.0120 C   0  0  0  0  0  0  0  0  0  0  0  0
   57.9930   33.7760   46.9130 C   0  0  0  0  0  0  0  0  0  0  0  0
   59.3530   27.3780   46.2990 C   0  0  0  0  0  0  0  0  0  0  0  0
   59.9630   26.2880   46.9520 C   0  0  0  0  0  0  0  0  0  0  0  0
   60.3100   26.3770   48.3010 C   0  0  0  0  0  0  0  0  0  0  0  0
   60.0490   27.5430   49.0200 C   0  0  0  0  0  0  0  0  0  0  0  0
   59.4360   28.6350   48.4010 C   0  0  0  0  0  0  0  0  0  0  0  0
   59.1880   29.7820   49.1730 O   0  0  0  0  0  0  0  0  0  0  0  0
   60.1290   30.4110   50.0440 C   0  0  0  0  0  0  0  0  0  0  0  0
   61.2740   30.9970   49.2590 C   0  0  0  0  0  0  0  0  0  0  0  0
   61.2740   30.9270   47.8570 C   0  0  0  0  0  0  0  0  0  0  0  0
   62.3350   31.4650   47.1230 C   0  0  0  0  0  0  0  0  0  0  0  0
   63.4070   32.0710   47.7840 C   0  0  0  0  0  0  0  0  0  0  0  0
   63.4190   32.1400   49.1810 C   0  0  0  0  0  0  0  0  0  0  0  0
   64.8830   32.9700   50.0830 Br  0  0  0  0  0  0  0  0  0  0  0  0
   62.3600   31.5990   49.9180 C   0  0  0  0  0  0  0  0  0  0  0  0
   59.0840   28.5440   47.0390 C   0  0  0  0  0  0  0  0  0  0  0  0
   57.7441   25.6129   44.2016 H   0  0  0  0  0  0  0  0  0  0  0  0
   56.9714   27.2164   43.8861 H   0  0  0  0  0  0  0  0  0  0  0  0
   59.6478   26.6981   44.3300 H   0  0  0  0  0  0  0  0  0  0  0  0
   59.7080   28.9430   43.6520 H   0  0  0  0  0  0  0  0  0  0  0  0
   58.8210   31.1550   43.2960 H   0  0  0  0  0  0  0  0  0  0  0  0
   58.0569   35.3564   43.9061 H   0  0  0  0  0  0  0  0  0  0  0  0
   56.6207   34.8686   44.8799 H   0  0  0  0  0  0  0  0  0  0  0  0
   60.2743   35.1548   44.7648 H   0  0  0  0  0  0  0  0  0  0  0  0
   61.7618   34.7571   46.7290 H   0  0  0  0  0  0  0  0  0  0  0  0
   60.8372   33.7380   48.8119 H   0  0  0  0  0  0  0  0  0  0  0  0
   58.4248   33.1039   48.9293 H   0  0  0  0  0  0  0  0  0  0  0  0
   56.9314   33.4931   46.9669 H   0  0  0  0  0  0  0  0  0  0  0  0
   60.1668   25.3616   46.3951 H   0  0  0  0  0  0  0  0  0  0  0  0
   60.7918   25.5230   48.7995 H   0  0  0  0  0  0  0  0  0  0  0  0
   60.3279   27.6033   50.0824 H   0  0  0  0  0  0  0  0  0  0  0  0
   59.6244   31.2145   50.6006 H   0  0  0  0  0  0  0  0  0  0  0  0
   60.5266   29.6563   50.7385 H   0  0  0  0  0  0  0  0  0  0  0  0
   60.4346   30.4462   47.3332 H   0  0  0  0  0  0  0  0  0  0  0  0
   62.3262   31.4114   46.0243 H   0  0  0  0  0  0  0  0  0  0  0  0
   64.2416   32.4938   47.2054 H   0  0  0  0  0  0  0  0  0  0  0  0
   62.3772   31.6449   51.0169 H   0  0  0  0  0  0  0  0  0  0  0  0
   58.5921   29.3966   46.5479 H   0  0  0  0  0  0  0  0  0  0  0  0
  1  2  2  0
  2  3  1  0
  2  4  1  0
  4  5  1  0
  5  6  1  0
  6  7  1  0
  7  8  2  0
  7  9  1  0
  9 10  1  0
 10 11  2  0
 10 12  1  0
 12 13  1  0
 13 14  1  0
 14 15  2  0
 15 16  1  0
 16 17  2  0
 17 18  1  0
 18 19  2  0
  5 20  1  0
 20 21  2  0
 21 22  1  0
 22 23  2  0
 23 24  1  0
 24 25  1  0
 25 26  1  0
 26 27  1  0
 27 28  2  0
 28 29  1  0
 29 30  2  0
 30 31  1  0
 31 32  1  0
 31 33  2  0
 24 34  2  0
 19 14  1  0
 34 20  1  0
 33 27  1  0
  4 35  1  0
  4 36  1  0
  5 37  1  6
  6 38  1  0
  9 39  1  0
 13 40  1  0
 13 41  1  0
 15 42  1  0
 16 43  1  0
 17 44  1  0
 18 45  1  0
 19 46  1  0
 21 47  1  0
 22 48  1  0
 23 49  1  0
 26 50  1  0
 26 51  1  0
 28 52  1  0
 29 53  1  0
 30 54  1  0
 33 55  1  0
 34 56  1  0
M  CHG  1   3  -1
M  END
>  <UniqueID>  (55) 
52

>  <SMILES>  (55) 
O=C([O-])C[C@@H](NC(=O)NC(=O)OCc1ccccc1)c1cccc(OCc2cccc(Br)c2)c1

>  <Energy>  (55) 
54.58281166902459

>  <Genealogy>  (55) 
O=C([O-])CC(NC(=O)NC(=O)OCc1ccccc1)c1cccc(OCc2cccc(Br)c2)c1 (protonated)
O=C([O-])C[C@@H](NC(=O)NC(=O)OCc1ccccc1)c1cccc(OCc2cccc(Br)c2)c1 (chirality)
O=C([O-])C[C@@H](NC(=O)NC(=O)OCc1ccccc1)c1cccc(OCc2cccc(Br)c2)c1 (3D coordinates assigned)
O=C([O-])C[C@@H](NC(=O)NC(=O)OCc1ccccc1)c1cccc(OCc2cccc(Br)c2)c1 (optimized conformer: 54.58281166902459 kcal/mol)

>  <smiles>  (55) 
O=C(O)CC(NC(=O)NC(=O)OCc1ccccc1)c1cccc(OCc2cccc(Br)c2)c1

>  <score_type>  (55) 
oracle

>  <origin>  (55) 
adg

>  <m_score__min__energy>  (55) 
-12.42

>  <m_primary>  (55) 
energy

$$$$
55:0
     RDKit          3D

 59 62  0  0  1  0  0  0  0  0999 V2000
   64.0470   32.0070   46.7560 N   0  0  0  0  0  0  0  0  0  0  0  0
   62.8870   32.9010   47.6630 S   0  0  0  0  0  0  0  0  0  0  0  0
   61.5320   32.8820   47.0330 O   0  0  0  0  0  0  0  0  0  0  0  0
   63.3860   34.3340   47.7570 O   0  0  0  0  0  0  0  0  0  0  0  0
   62.7170   32.2790   49.2850 C   0  0  0  0  0  0  0  0  0  0  0  0
   63.8150   32.0850   50.0990 C   0  0  0  0  0  0  0  0  0  0  0  0
   63.6760   31.5890   51.3930 C   0  0  0  0  0  0  0  0  0  0  0  0
   62.4030   31.2970   51.8440 C   0  0  0  0  0  0  0  0  0  0  0  0
   61.3020   31.4870   51.0400 C   0  0  0  0  0  0  0  0  0  0  0  0
   59.9120   31.1740   51.5170 C   0  0  0  0  0  0  0  0  0  0  0  0
   59.9880   29.7480   51.8790 N   0  0  0  0  0  0  0  0  0  0  0  0
   60.2170   28.9230   50.9160 C   0  0  0  0  0  0  0  0  0  0  0  0
   60.8020   27.7090   51.2670 C   0  0  0  0  0  0  0  0  0  0  0  0
   61.0780   26.7650   50.2730 C   0  0  0  0  0  0  0  0  0  0  0  0
   60.7580   27.0800   48.9850 N   0  0  0  0  0  0  0  0  0  0  0  0
   60.1940   28.2700   48.6990 C   0  0  0  0  0  0  0  0  0  0  0  0
   59.8650   28.5820   47.3530 N   0  0  0  0  0  0  0  0  0  0  0  0
   59.0150   27.7080   46.5340 C   0  0  0  0  0  0  0  0  0  0  0  0
   57.7780   28.5280   46.2340 C   0  0  0  0  0  0  0  0  0  0  0  0
   58.2340   29.6710   45.4630 N   0  0  0  0  0  0  0  0  0  0  0  0
   57.2390   30.4110   44.7700 C   0  0  0  0  0  0  0  0  0  0  0  0
   56.0500   30.0160   44.8790 O   0  0  0  0  0  0  0  0  0  0  0  0
   57.6190   31.6040   43.9510 C   0  0  0  0  0  0  0  0  0  0  0  0
   58.1140   32.7040   44.8230 C   0  0  0  0  0  0  0  0  0  0  0  0
   57.7600   32.6140   46.1710 C   0  0  0  0  0  0  0  0  0  0  0  0
   58.1510   33.5640   47.0920 C   0  0  0  0  0  0  0  0  0  0  0  0
   58.9120   34.6130   46.6190 C   0  0  0  0  0  0  0  0  0  0  0  0
   59.2720   34.7180   45.2870 C   0  0  0  0  0  0  0  0  0  0  0  0
   58.8740   33.7540   44.3580 C   0  0  0  0  0  0  0  0  0  0  0  0
   59.6490   30.0510   45.3980 C   0  0  0  0  0  0  0  0  0  0  0  0
   60.3480   29.7810   46.7090 C   0  0  0  0  0  0  0  0  0  0  0  0
   59.9150   29.1980   49.6330 N   0  0  0  0  0  0  0  0  0  0  0  0
   61.4320   31.9800   49.7490 C   0  0  0  0  0  0  0  0  0  0  0  0
   64.4770   31.2850   47.3760 H   0  0  0  0  0  0  0  0  0  0  0  0
   64.7750   32.7090   46.4340 H   0  0  0  0  0  0  0  0  0  0  0  0
   64.8184   32.3267   49.7185 H   0  0  0  0  0  0  0  0  0  0  0  0
   64.5541   31.4342   52.0372 H   0  0  0  0  0  0  0  0  0  0  0  0
   62.2671   30.9060   52.8631 H   0  0  0  0  0  0  0  0  0  0  0  0
   59.6480   31.7883   52.3905 H   0  0  0  0  0  0  0  0  0  0  0  0
   59.1411   31.3846   50.7611 H   0  0  0  0  0  0  0  0  0  0  0  0
   61.0451   27.4943   52.3181 H   0  0  0  0  0  0  0  0  0  0  0  0
   61.5391   25.7979   50.5222 H   0  0  0  0  0  0  0  0  0  0  0  0
   60.9680   26.3640   48.2300 H   0  0  0  0  0  0  0  0  0  0  0  0
   59.5301   27.4314   45.6023 H   0  0  0  0  0  0  0  0  0  0  0  0
   58.7708   26.7685   47.0514 H   0  0  0  0  0  0  0  0  0  0  0  0
   57.0586   27.9352   45.6500 H   0  0  0  0  0  0  0  0  0  0  0  0
   57.2683   28.8415   47.1570 H   0  0  0  0  0  0  0  0  0  0  0  0
   58.4119   31.3190   43.2439 H   0  0  0  0  0  0  0  0  0  0  0  0
   56.7309   31.9567   43.4062 H   0  0  0  0  0  0  0  0  0  0  0  0
   57.1521   31.7614   46.5080 H   0  0  0  0  0  0  0  0  0  0  0  0
   57.8694   33.4886   48.1527 H   0  0  0  0  0  0  0  0  0  0  0  0
   59.2431   35.3906   47.3230 H   0  0  0  0  0  0  0  0  0  0  0  0
   59.8800   35.5725   44.9552 H   0  0  0  0  0  0  0  0  0  0  0  0
   59.1563   33.8304   43.2976 H   0  0  0  0  0  0  0  0  0  0  0  0
   60.1402   29.4704   44.6033 H   0  0  0  0  0  0  0  0  0  0  0  0
   59.7108   31.1286   45.1859 H   0  0  0  0  0  0  0  0  0  0  0  0
   61.4257   29.6702   46.5186 H   0  0  0  0  0  0  0  0  0  0  0  0
   60.1425   30.6283   47.3797 H   0  0  0  0  0  0  0  0  0  0  0  0
   60.5499   32.1311   49.1094 H   0  0  0  0  0  0  0  0  0  0  0  0
  1  2  1  0
  2  3  2  0
  2  4  2  0
  2  5  1  0
  5  6  2  0
  6  7  1  0
  7  8  2  0
  8  9  1  0
  9 10  1  0
 10 11  1  0
 11 12  2  0
 12 13  1  0
 13 14  2  0
 14 15  1  0
 15 16  1  0
 16 17  1  0
 17 18  1  0
 18 19  1  0
 19 20  1  0
 20 21  1  0
 21 22  2  0
 21 23  1  0
 23 24  1  0
 24 25  2  0
 25 26  1  0
 26 27  2  0
 27 28  1  0
 28 29  2  0
 20 30  1  0
 30 31  1  0
 16 32  2  0
  9 33  2  0
 33  5  1  0
 32 12  1  0
 31 17  1  0
 29 24  1  0
  1 34  1  0
  1 35  1  0
  6 36  1  0
  7 37  1  0
  8 38  1  0
 10 39  1  0
 10 40  1  0
 13 41  1  0
 14 42  1  0
 15 43  1  0
 18 44  1  0
 18 45  1  0
 19 46  1  0
 19 47  1  0
 23 48  1  0
 23 49  1  0
 25 50  1  0
 26 51  1  0
 27 52  1  0
 28 53  1  0
 29 54  1  0
 30 55  1  0
 30 56  1  0
 31 57  1  0
 31 58  1  0
 33 59  1  0
M  END
>  <smiles>  (56) 
NS(=O)(=O)c1cccc(CN=c2cc[nH]c(N3CCN(C(=O)Cc4ccccc4)CC3)n2)c1

>  <score_type>  (56) 
oracle

>  <origin>  (56) 
adg

>  <m_score__min__energy>  (56) 
-10.49

>  <m_primary>  (56) 
energy

$$$$
56:0
     RDKit          3D

 55 57  0  0  0  0  0  0  0  0999 V2000
   56.6790   28.2550   43.5720 H   0  0  0  0  0  0  0  0  0  0  0  0
   57.0010   28.5210   42.6720 O   0  0  0  0  0  0  0  0  0  0  0  0
   56.5610   29.8350   42.4540 C   0  0  0  0  0  0  0  0  0  0  0  0
   55.4973   29.8195   42.1740 H   0  0  0  0  0  0  0  0  0  0  0  0
   57.1577   30.2821   41.6452 H   0  0  0  0  0  0  0  0  0  0  0  0
   56.7370   30.6740   43.7250 C   0  0  1  0  0  0  0  0  0  0  0  0
   56.2600   31.6544   43.5790 H   0  0  0  0  0  0  0  0  0  0  0  0
   56.1020   29.9880   44.8540 N   0  0  0  0  0  0  0  0  0  0  0  0
   56.6350   29.0170   45.5340 C   0  0  0  0  0  0  0  0  0  0  0  0
   56.0410   27.7950   45.5980 N   0  0  0  0  0  0  0  0  0  0  0  0
   56.6110   26.7890   46.3060 C   0  0  0  0  0  0  0  0  0  0  0  0
   55.9680   25.5470   46.3740 O   0  0  0  0  0  0  0  0  0  0  0  0
   56.0790   24.5280   45.4170 C   0  0  0  0  0  0  0  0  0  0  0  0
   55.0060   24.2960   44.5560 C   0  0  0  0  0  0  0  0  0  0  0  0
   54.0949   24.9071   44.6366 H   0  0  0  0  0  0  0  0  0  0  0  0
   55.0870   23.2920   43.5950 C   0  0  0  0  0  0  0  0  0  0  0  0
   54.2363   23.0974   42.9253 H   0  0  0  0  0  0  0  0  0  0  0  0
   56.2550   22.5330   43.4860 C   0  0  0  0  0  0  0  0  0  0  0  0
   56.3150   21.6210   42.6160 O   0  0  0  0  0  0  0  0  0  0  0  0
   57.3220   22.7810   44.3110 N   0  0  0  0  0  0  0  0  0  0  0  0
   58.5410   21.9700   44.2070 C   0  0  0  0  0  0  0  0  0  0  0  0
   58.9067   21.7267   45.2155 H   0  0  0  0  0  0  0  0  0  0  0  0
   58.3174   21.0400   43.6638 H   0  0  0  0  0  0  0  0  0  0  0  0
   59.3124   22.5355   43.6638 H   0  0  0  0  0  0  0  0  0  0  0  0
   57.2450   23.7590   45.2670 C   0  0  0  0  0  0  0  0  0  0  0  0
   58.1066   23.9445   45.9252 H   0  0  0  0  0  0  0  0  0  0  0  0
   57.7790   27.0120   46.9670 N   0  0  0  0  0  0  0  0  0  0  0  0
   58.3820   28.2250   46.9050 C   0  0  0  0  0  0  0  0  0  0  0  0
   59.5060   28.4090   47.5310 N   0  0  0  0  0  0  0  0  0  0  0  0
   59.6330   28.6380   48.9710 C   0  0  0  0  0  0  0  0  0  0  0  0
   58.9635   27.9462   49.5032 H   0  0  0  0  0  0  0  0  0  0  0  0
   60.6814   28.4662   49.2563 H   0  0  0  0  0  0  0  0  0  0  0  0
   59.2700   30.0480   49.3390 C   0  0  0  0  0  0  0  0  0  0  0  0
   59.2380   30.3950   50.5520 O   0  0  0  0  0  0  0  0  0  0  0  0
   58.8990   30.9770   48.3100 N   0  0  0  0  0  0  0  0  0  0  0  0
   58.8910   30.6570   47.3160 H   0  0  0  0  0  0  0  0  0  0  0  0
   58.5720   32.3740   48.5910 C   0  0  0  0  0  0  0  0  0  0  0  0
   57.5829   32.4248   49.0696 H   0  0  0  0  0  0  0  0  0  0  0  0
   59.3394   32.7909   49.2598 H   0  0  0  0  0  0  0  0  0  0  0  0
   58.5480   33.1780   47.3170 C   0  0  0  0  0  0  0  0  0  0  0  0
   57.4210   33.1360   46.4760 C   0  0  0  0  0  0  0  0  0  0  0  0
   56.5484   32.5289   46.7589 H   0  0  0  0  0  0  0  0  0  0  0  0
   57.4060   33.8630   45.2820 C   0  0  0  0  0  0  0  0  0  0  0  0
   56.5225   33.8257   44.6277 H   0  0  0  0  0  0  0  0  0  0  0  0
   58.5110   34.6370   44.9180 C   0  0  0  0  0  0  0  0  0  0  0  0
   58.4958   35.2090   43.9785 H   0  0  0  0  0  0  0  0  0  0  0  0
   59.6360   34.6850   45.7470 C   0  0  0  0  0  0  0  0  0  0  0  0
   60.5054   35.2941   45.4587 H   0  0  0  0  0  0  0  0  0  0  0  0
   59.6570   33.9590   46.9430 C   0  0  0  0  0  0  0  0  0  0  0  0
   60.7590   34.0130   47.7340 F   0  0  0  0  0  0  0  0  0  0  0  0
   57.8060   29.2260   46.1860 N   0  0  0  0  0  0  0  0  0  0  0  0
   58.2270   30.8970   44.0140 C   0  0  0  0  0  0  0  0  0  0  0  0
   58.3899   30.9214   45.1016 H   0  0  0  0  0  0  0  0  0  0  0  0
   58.8127   30.0765   43.5738 H   0  0  0  0  0  0  0  0  0  0  0  0
   58.5468   31.8530   43.5738 H   0  0  0  0  0  0  0  0  0  0  0  0
  1  2  1  0
  2  3  1  0
  3  4  1  0
  3  5  1  0
  3  6  1  0
  6  7  1  6
  6  8  1  0
  8  9  2  3
  9 10  1  0
 10 11  1  0
 11 12  1  0
 12 13  1  0
 13 14  1  0
 14 15  1  0
 14 16  2  0
 16 17  1  0
 16 18  1  0
 18 19  2  0
 18 20  1  0
 20 21  1  0
 21 22  1  0
 21 23  1  0
 21 24  1  0
 20 25  1  0
 25 26  1  0
 11 27  2  0
 27 28  1  0
 28 29  2  0
 29 30  1  0
 30 31  1  0
 30 32  1  0
 30 33  1  0
 33 34  2  0
 33 35  1  0
 35 36  1  0
 35 37  1  0
 37 38  1  0
 37 39  1  0
 37 40  1  0
 40 41  2  0
 41 42  1  0
 41 43  1  0
 43 44  1  0
 43 45  2  0
 45 46  1  0
 45 47  1  0
 47 48  1  0
 47 49  2  0
 49 50  1  0
 28 51  1  0
  6 52  1  0
 52 53  1  0
 52 54  1  0
 52 55  1  0
 51  9  1  0
 25 13  2  0
 49 40  1  0
M  CHG  2  10  -1  51  -1
M  END
>  <UniqueID>  (57) 
53

>  <SMILES>  (57) 
C[C@@H](CO)N=c1[n-]c(Oc2ccc(=O)n(C)c2)n/c(=N/CC(=O)NCc2ccccc2F)[n-]1

>  <Energy>  (57) 
57.20780629659231

>  <Genealogy>  (57) 
CC(CO)N=c1[n-]c(Oc2ccc(=O)n(C)c2)nc(=NCC(=O)NCc2ccccc2F)[n-]1 (protonated)
C[C@@H](CO)N=c1[n-]c(Oc2ccc(=O)n(C)c2)nc(=NCC(=O)NCc2ccccc2F)[n-]1 (chirality)
C[C@@H](CO)N=c1[n-]c(Oc2ccc(=O)n(C)c2)n/c(=N/CC(=O)NCc2ccccc2F)[n-]1 (cis-trans isomerization)
C[C@@H](CO)N=c1[n-]c(Oc2ccc(=O)n(C)c2)n/c(=N/CC(=O)NCc2ccccc2F)[n-]1 (3D coordinates assigned)
C[C@@H](CO)N=c1[n-]c(Oc2ccc(=O)n(C)c2)n/c(=N/CC(=O)NCc2ccccc2F)[n-]1 (optimized conformer: 57.20780629659231 kcal/mol)

>  <smiles>  (57) 
CC(CO)N=c1[nH]c(Oc2ccc(=O)n(C)c2)nc(=NCC(=O)NCc2ccccc2F)[nH]1

>  <score_type>  (57) 
oracle

>  <origin>  (57) 
adg

>  <m_score__min__energy>  (57) 
-11.4

>  <m_primary>  (57) 
energy

$$$$
57:0
     RDKit          3D

 43 45  0  0  0  0  0  0  0  0999 V2000
   55.4200   22.9500   43.4630 O   0  0  0  0  0  0  0  0  0  0  0  0
   55.7090   23.6420   44.4760 C   0  0  0  0  0  0  0  0  0  0  0  0
   57.1140   24.1140   44.6680 C   0  0  0  0  0  0  0  0  0  0  0  0
   57.2670   24.8960   46.3050 S   0  0  0  0  0  0  0  0  0  0  0  0
   57.3440   26.5510   45.6310 C   0  0  0  0  0  0  0  0  0  0  0  0
   58.5120   27.0220   45.1240 N   0  0  0  0  0  0  0  0  0  0  0  0
   58.5990   28.2750   44.6080 C   0  0  0  0  0  0  0  0  0  0  0  0
   59.7030   28.6760   44.1500 O   0  0  0  0  0  0  0  0  0  0  0  0
   57.4650   29.1090   44.5890 C   0  0  0  0  0  0  0  0  0  0  0  0
   57.5350   30.5230   44.0580 C   0  0  0  0  0  0  0  0  0  0  0  0
   57.8210   31.4940   45.1730 C   0  0  0  0  0  0  0  0  0  0  0  0
   57.4320   32.8400   45.0620 C   0  0  0  0  0  0  0  0  0  0  0  0
   57.6740   33.7330   46.1110 C   0  0  0  0  0  0  0  0  0  0  0  0
   58.3000   33.2890   47.2780 C   0  0  0  0  0  0  0  0  0  0  0  0
   58.6850   31.9510   47.4000 C   0  0  0  0  0  0  0  0  0  0  0  0
   58.4450   31.0540   46.3530 C   0  0  0  0  0  0  0  0  0  0  0  0
   56.2700   28.5950   45.1230 C   0  0  0  0  0  0  0  0  0  0  0  0
   55.1100   29.3610   45.1410 O   0  0  0  0  0  0  0  0  0  0  0  0
   56.2370   27.3340   45.6260 N   0  0  0  0  0  0  0  0  0  0  0  0
   54.7190   23.9130   45.4800 N   0  0  0  0  0  0  0  0  0  0  0  0
   53.3310   23.5720   45.3250 C   0  0  0  0  0  0  0  0  0  0  0  0
   52.6540   23.9530   44.1530 C   0  0  0  0  0  0  0  0  0  0  0  0
   51.2870   23.7150   44.0120 C   0  0  0  0  0  0  0  0  0  0  0  0
   50.5760   23.1040   45.0430 C   0  0  0  0  0  0  0  0  0  0  0  0
   51.2290   22.7230   46.2160 C   0  0  0  0  0  0  0  0  0  0  0  0
   52.6100   22.9420   46.3740 C   0  0  0  0  0  0  0  0  0  0  0  0
   53.2670   22.4670   47.6160 C   0  0  0  0  0  0  0  0  0  0  0  0
   52.7380   21.5760   48.3310 O   0  0  0  0  0  0  0  0  0  0  0  0
   54.4670   23.0350   48.0320 O   0  0  0  0  0  0  0  0  0  0  0  0
   57.8014   23.2576   44.6041 H   0  0  0  0  0  0  0  0  0  0  0  0
   57.3679   24.8442   43.8854 H   0  0  0  0  0  0  0  0  0  0  0  0
   58.3365   30.5881   43.3074 H   0  0  0  0  0  0  0  0  0  0  0  0
   56.5666   30.7797   43.6037 H   0  0  0  0  0  0  0  0  0  0  0  0
   56.9351   33.1927   44.1462 H   0  0  0  0  0  0  0  0  0  0  0  0
   57.3709   34.7862   46.0168 H   0  0  0  0  0  0  0  0  0  0  0  0
   58.4901   33.9929   48.1016 H   0  0  0  0  0  0  0  0  0  0  0  0
   59.1772   31.6026   48.3200 H   0  0  0  0  0  0  0  0  0  0  0  0
   58.7458   30.0008   46.4539 H   0  0  0  0  0  0  0  0  0  0  0  0
   55.0280   24.3580   46.3720 H   0  0  0  0  0  0  0  0  0  0  0  0
   53.2081   24.4437   43.3392 H   0  0  0  0  0  0  0  0  0  0  0  0
   50.7700   24.0096   43.0868 H   0  0  0  0  0  0  0  0  0  0  0  0
   49.4969   22.9215   44.9319 H   0  0  0  0  0  0  0  0  0  0  0  0
   50.6578   22.2462   47.0261 H   0  0  0  0  0  0  0  0  0  0  0  0
  1  2  2  0
  2  3  1  0
  3  4  1  0
  4  5  1  0
  5  6  2  0
  6  7  1  0
  7  8  2  0
  7  9  1  0
  9 10  1  0
 10 11  1  0
 11 12  2  0
 12 13  1  0
 13 14  2  0
 14 15  1  0
 15 16  2  0
  9 17  2  0
 17 18  1  0
 17 19  1  0
  2 20  1  0
 20 21  1  0
 21 22  2  0
 22 23  1  0
 23 24  2  0
 24 25  1  0
 25 26  2  0
 26 27  1  0
 27 28  2  0
 27 29  1  0
 19  5  1  0
 26 21  1  0
 16 11  1  0
  3 30  1  0
  3 31  1  0
 10 32  1  0
 10 33  1  0
 12 34  1  0
 13 35  1  0
 14 36  1  0
 15 37  1  0
 16 38  1  0
 20 39  1  0
 22 40  1  0
 23 41  1  0
 24 42  1  0
 25 43  1  0
M  CHG  3  18  -1  19  -1  29  -1
M  END
>  <UniqueID>  (58) 
54

>  <SMILES>  (58) 
O=C(CSc1nc(=O)c(Cc2ccccc2)c([O-])[n-]1)Nc1ccccc1C(=O)[O-]

>  <Energy>  (58) 
49.63402721095347

>  <Genealogy>  (58) 
O=C(CSc1nc(=O)c(Cc2ccccc2)c([O-])[n-]1)Nc1ccccc1C(=O)[O-] (protonated)
O=C(CSc1nc(=O)c(Cc2ccccc2)c([O-])[n-]1)Nc1ccccc1C(=O)[O-] (3D coordinates assigned)
O=C(CSc1nc(=O)c(Cc2ccccc2)c([O-])[n-]1)Nc1ccccc1C(=O)[O-] (optimized conformer: 49.63402721095347 kcal/mol)

>  <smiles>  (58) 
O=C(CSc1nc(=O)c(Cc2ccccc2)c(O)[nH]1)Nc1ccccc1C(=O)O

>  <score_type>  (58) 
oracle

>  <origin>  (58) 
adg

>  <m_score__min__energy>  (58) 
-15.279999999999999

>  <m_primary>  (58) 
energy

$$$$
58:0
     RDKit          3D

 46 48  0  0  0  0  0  0  0  0999 V2000
   54.9540   26.7130   46.2180 O   0  0  0  0  0  0  0  0  0  0  0  0
   56.0240   26.0960   45.9770 C   0  0  0  0  0  0  0  0  0  0  0  0
   56.1530   24.7310   46.3830 N   0  0  0  0  0  0  0  0  0  0  0  0
   55.1540   23.7250   46.0470 C   0  0  0  0  0  0  0  0  0  0  0  0
   55.7190   22.7200   45.0770 C   0  0  0  0  0  0  0  0  0  0  0  0
   55.6940   21.3520   45.3970 C   0  0  0  0  0  0  0  0  0  0  0  0
   56.1680   20.4050   44.4860 C   0  0  0  0  0  0  0  0  0  0  0  0
   56.6650   20.8130   43.2460 C   0  0  0  0  0  0  0  0  0  0  0  0
   56.6880   22.1690   42.9140 C   0  0  0  0  0  0  0  0  0  0  0  0
   56.2110   23.1270   43.8210 C   0  0  0  0  0  0  0  0  0  0  0  0
   56.2150   24.4780   43.4740 O   0  0  0  0  0  0  0  0  0  0  0  0
   57.0690   26.7600   45.2570 N   0  0  0  0  0  0  0  0  0  0  0  0
   57.2850   28.1760   45.2120 C   0  0  0  0  0  0  0  0  0  0  0  0
   58.2120   28.7470   46.0920 C   0  0  0  0  0  0  0  0  0  0  0  0
   58.4160   30.1300   46.1030 C   0  0  0  0  0  0  0  0  0  0  0  0
   57.7060   30.9540   45.2200 C   0  0  0  0  0  0  0  0  0  0  0  0
   57.9390   32.6980   45.2330 S   0  0  0  0  0  0  0  0  0  0  0  0
   56.6440   33.3870   45.5630 O   0  0  0  0  0  0  0  0  0  0  0  0
   58.3800   33.1350   43.8640 O   0  0  0  0  0  0  0  0  0  0  0  0
   59.1610   33.1170   46.4070 N   0  0  0  0  0  0  0  0  0  0  0  0
   58.5750   33.9580   47.4660 C   0  0  0  0  0  0  0  0  0  0  0  0
   59.6770   34.5790   48.3480 C   0  0  0  0  0  0  0  0  0  0  0  0
   60.9250   33.9580   48.1140 O   0  0  0  0  0  0  0  0  0  0  0  0
   61.3440   34.2090   46.7850 C   0  0  0  0  0  0  0  0  0  0  0  0
   60.2670   33.8260   45.7480 C   0  0  0  0  0  0  0  0  0  0  0  0
   56.8170   30.3790   44.3020 C   0  0  0  0  0  0  0  0  0  0  0  0
   56.6110   28.9970   44.2930 C   0  0  0  0  0  0  0  0  0  0  0  0
   54.8413   23.2054   46.9647 H   0  0  0  0  0  0  0  0  0  0  0  0
   54.2920   24.2234   45.5794 H   0  0  0  0  0  0  0  0  0  0  0  0
   55.2990   21.0250   46.3702 H   0  0  0  0  0  0  0  0  0  0  0  0
   56.1498   19.3362   44.7456 H   0  0  0  0  0  0  0  0  0  0  0  0
   57.0385   20.0655   42.5306 H   0  0  0  0  0  0  0  0  0  0  0  0
   57.0817   22.4873   41.9374 H   0  0  0  0  0  0  0  0  0  0  0  0
   56.2410   25.2060   44.1780 H   0  0  0  0  0  0  0  0  0  0  0  0
   58.7828   28.1042   46.7783 H   0  0  0  0  0  0  0  0  0  0  0  0
   59.1361   30.5725   46.8070 H   0  0  0  0  0  0  0  0  0  0  0  0
   57.9879   34.7643   47.0021 H   0  0  0  0  0  0  0  0  0  0  0  0
   57.9312   33.3291   48.0985 H   0  0  0  0  0  0  0  0  0  0  0  0
   59.7603   35.6513   48.1174 H   0  0  0  0  0  0  0  0  0  0  0  0
   59.4051   34.4310   49.4035 H   0  0  0  0  0  0  0  0  0  0  0  0
   61.5690   35.2808   46.6817 H   0  0  0  0  0  0  0  0  0  0  0  0
   62.2328   33.5908   46.5904 H   0  0  0  0  0  0  0  0  0  0  0  0
   59.8809   34.7386   45.2704 H   0  0  0  0  0  0  0  0  0  0  0  0
   60.7155   33.1677   44.9894 H   0  0  0  0  0  0  0  0  0  0  0  0
   56.2794   31.0179   43.5859 H   0  0  0  0  0  0  0  0  0  0  0  0
   55.9188   28.5506   43.5639 H   0  0  0  0  0  0  0  0  0  0  0  0
  1  2  2  0
  2  3  1  0
  3  4  1  0
  4  5  1  0
  5  6  2  0
  6  7  1  0
  7  8  2  0
  8  9  1  0
  9 10  2  0
 10 11  1  0
  2 12  1  0
 12 13  1  0
 13 14  2  0
 14 15  1  0
 15 16  2  0
 16 17  1  0
 17 18  2  0
 17 19  2  0
 17 20  1  0
 20 21  1  0
 21 22  1  0
 22 23  1  0
 23 24  1  0
 24 25  1  0
 16 26  1  0
 26 27  2  0
 10  5  1  0
 27 13  1  0
 25 20  1  0
  4 28  1  0
  4 29  1  0
  6 30  1  0
  7 31  1  0
  8 32  1  0
  9 33  1  0
 11 34  1  0
 14 35  1  0
 15 36  1  0
 21 37  1  0
 21 38  1  0
 22 39  1  0
 22 40  1  0
 24 41  1  0
 24 42  1  0
 25 43  1  0
 25 44  1  0
 26 45  1  0
 27 46  1  0
M  CHG  2   3  -1  12  -1
M  END
>  <UniqueID>  (59) 
55

>  <SMILES>  (59) 
O=C([N-]Cc1ccccc1O)[N-]c1ccc(S(=O)(=O)N2CCOCC2)cc1

>  <Energy>  (59) 
59.09515302840627

>  <Genealogy>  (59) 
O=C([N-]Cc1ccccc1O)[N-]c1ccc(S(=O)(=O)N2CCOCC2)cc1 (protonated)
O=C([N-]Cc1ccccc1O)[N-]c1ccc(S(=O)(=O)N2CCOCC2)cc1 (3D coordinates assigned)
O=C([N-]Cc1ccccc1O)[N-]c1ccc(S(=O)(=O)N2CCOCC2)cc1 (nonaromatic ring conformer: 59.09515302840627 kcal/mol)

>  <smiles>  (59) 
O=C(NCc1ccccc1O)Nc1ccc(S(=O)(=O)N2CCOCC2)cc1

>  <score_type>  (59) 
oracle

>  <origin>  (59) 
adg

>  <m_score__min__energy>  (59) 
-12.34

>  <m_primary>  (59) 
energy

$$$$
59:0
     RDKit          3D

 30 31  0  0  0  0  0  0  0  0999 V2000
   60.5770   35.1992   47.4586 H   0  0  0  0  0  0  0  0  0  0  0  0
   59.8100   34.5900   46.9580 C   0  0  0  0  0  0  0  0  0  0  0  0
   59.4710   34.8490   45.6280 C   0  0  0  0  0  0  0  0  0  0  0  0
   59.9636   35.6689   45.0849 H   0  0  0  0  0  0  0  0  0  0  0  0
   58.5050   34.0660   44.9860 C   0  0  0  0  0  0  0  0  0  0  0  0
   58.2289   34.2837   43.9437 H   0  0  0  0  0  0  0  0  0  0  0  0
   57.8880   33.0070   45.6630 C   0  0  0  0  0  0  0  0  0  0  0  0
   56.8820   32.2400   44.9800 N   0  0  0  0  0  0  0  0  0  0  0  0
   57.0410   31.1050   44.3570 C   0  0  0  0  0  0  0  0  0  0  0  0
   57.4060   29.8540   45.0680 C   0  0  0  0  0  0  0  0  0  0  0  0
   56.4500   28.8500   45.2910 C   0  0  0  0  0  0  0  0  0  0  0  0
   55.1360   29.0200   44.8710 O   0  0  0  0  0  0  0  0  0  0  0  0
   56.8030   27.7060   45.9390 N   0  0  0  0  0  0  0  0  0  0  0  0
   56.0830   26.9670   46.1030 H   0  0  0  0  0  0  0  0  0  0  0  0
   58.0760   27.5170   46.3780 C   0  0  0  0  0  0  0  0  0  0  0  0
   58.3870   26.4550   46.9790 O   0  0  0  0  0  0  0  0  0  0  0  0
   59.0180   28.4720   46.1670 N   0  0  0  0  0  0  0  0  0  0  0  0
   58.7150   29.6280   45.5240 C   0  0  0  0  0  0  0  0  0  0  0  0
   59.6210   30.4840   45.3340 O   0  0  0  0  0  0  0  0  0  0  0  0
   57.0540   31.1140   42.8540 C   0  0  0  0  0  0  0  0  0  0  0  0
   56.0266   31.2488   42.4849 H   0  0  0  0  0  0  0  0  0  0  0  0
   57.4652   30.1577   42.4984 H   0  0  0  0  0  0  0  0  0  0  0  0
   57.9270   32.2480   42.3290 C   0  0  0  0  0  0  0  0  0  0  0  0
   58.3549   32.8038   43.1764 H   0  0  0  0  0  0  0  0  0  0  0  0
   58.7397   31.8314   41.7159 H   0  0  0  0  0  0  0  0  0  0  0  0
   57.3164   32.9271   41.7159 H   0  0  0  0  0  0  0  0  0  0  0  0
   58.2090   32.7730   47.0130 C   0  0  0  0  0  0  0  0  0  0  0  0
   57.6988   31.9711   47.5668 H   0  0  0  0  0  0  0  0  0  0  0  0
   59.1750   33.5570   47.6530 C   0  0  0  0  0  0  0  0  0  0  0  0
   59.4348   33.3603   48.7036 H   0  0  0  0  0  0  0  0  0  0  0  0
  1  2  1  0
  2  3  2  0
  3  4  1  0
  3  5  1  0
  5  6  1  0
  5  7  2  0
  7  8  1  0
  8  9  2  0
  9 10  1  0
 10 11  2  0
 11 12  1  0
 11 13  1  0
 13 14  1  0
 13 15  1  0
 15 16  2  0
 15 17  1  0
 17 18  1  0
 18 19  2  0
  9 20  1  0
 20 21  1  0
 20 22  1  0
 20 23  1  0
 23 24  1  0
 23 25  1  0
 23 26  1  0
  7 27  1  0
 27 28  1  0
 27 29  2  0
 29 30  1  0
 29  2  1  0
 18 10  1  0
M  CHG  2  12  -1  17  -1
M  END
>  <UniqueID>  (60) 
56

>  <SMILES>  (60) 
CC/C(=N/c1ccccc1)c1c([O-])[nH]c(=O)[n-]c1=O

>  <Energy>  (60) 
41.065643593700436

>  <Genealogy>  (60) 
CCC(=Nc1ccccc1)c1c([O-])[nH]c(=O)[n-]c1=O (protonated)
CC/C(=N/c1ccccc1)c1c([O-])[nH]c(=O)[n-]c1=O (cis-trans isomerization)
CC/C(=N/c1ccccc1)c1c([O-])[nH]c(=O)[n-]c1=O (3D coordinates assigned)
CC/C(=N/c1ccccc1)c1c([O-])[nH]c(=O)[n-]c1=O (optimized conformer: 41.065643593700436 kcal/mol)

>  <smiles>  (60) 
CCC(=Nc1ccccc1)c1c(O)[nH]c(=O)[nH]c1=O

>  <score_type>  (60) 
oracle

>  <origin>  (60) 
adg

>  <m_score__min__energy>  (60) 
-12.289999999999999

>  <m_primary>  (60) 
energy

$$$$
60:0
     RDKit          3D

 41 43  0  0  0  0  0  0  0  0999 V2000
   59.5199   25.1293   46.3174 H   0  0  0  0  0  0  0  0  0  0  0  0
   58.4500   25.3740   46.2440 C   0  0  0  0  0  0  0  0  0  0  0  0
   58.0610   26.6390   45.9270 N   0  0  0  0  0  0  0  0  0  0  0  0
   56.7460   26.9870   45.8200 C   0  0  0  0  0  0  0  0  0  0  0  0
   56.3930   28.2020   45.5120 N   0  0  0  0  0  0  0  0  0  0  0  0
   57.1780   29.3940   45.6760 C   0  0  0  0  0  0  0  0  0  0  0  0
   57.7570   29.6480   46.7660 O   0  0  0  0  0  0  0  0  0  0  0  0
   57.3200   30.3210   44.5420 C   0  0  0  0  0  0  0  0  0  0  0  0
   56.7020   29.9970   43.3240 C   0  0  0  0  0  0  0  0  0  0  0  0
   56.1560   29.0474   43.2239 H   0  0  0  0  0  0  0  0  0  0  0  0
   56.7760   30.8730   42.2380 C   0  0  0  0  0  0  0  0  0  0  0  0
   56.3043   30.6027   41.2817 H   0  0  0  0  0  0  0  0  0  0  0  0
   57.4470   32.0900   42.3640 C   0  0  0  0  0  0  0  0  0  0  0  0
   57.5029   32.7785   41.5080 H   0  0  0  0  0  0  0  0  0  0  0  0
   58.0480   32.4340   43.5780 C   0  0  0  0  0  0  0  0  0  0  0  0
   58.5584   33.4031   43.6794 H   0  0  0  0  0  0  0  0  0  0  0  0
   58.0050   31.5530   44.6670 C   0  0  0  0  0  0  0  0  0  0  0  0
   58.5440   31.9800   45.9230 N   0  0  0  0  0  0  0  0  0  0  0  0
   59.0930   31.2920   46.4860 H   0  0  0  0  0  0  0  0  0  0  0  0
   58.2550   33.2640   46.4900 C   0  0  0  0  0  0  0  0  0  0  0  0
   57.3330   33.9790   46.0110 O   0  0  0  0  0  0  0  0  0  0  0  0
   59.0840   33.7820   47.6240 C   0  0  0  0  0  0  0  0  0  0  0  0
   58.9976   34.8777   47.6683 H   0  0  0  0  0  0  0  0  0  0  0  0
   58.7243   33.3424   48.5660 H   0  0  0  0  0  0  0  0  0  0  0  0
   60.5260   33.4030   47.4190 C   0  0  0  0  0  0  0  0  0  0  0  0
   61.3530   34.1810   46.5880 C   0  0  0  0  0  0  0  0  0  0  0  0
   60.9364   35.0523   46.0614 H   0  0  0  0  0  0  0  0  0  0  0  0
   62.7020   33.8510   46.4290 C   0  0  0  0  0  0  0  0  0  0  0  0
   63.3443   34.4637   45.7793 H   0  0  0  0  0  0  0  0  0  0  0  0
   63.2360   32.7440   47.0940 C   0  0  0  0  0  0  0  0  0  0  0  0
   64.2941   32.4770   46.9555 H   0  0  0  0  0  0  0  0  0  0  0  0
   62.4260   31.9760   47.9350 C   0  0  0  0  0  0  0  0  0  0  0  0
   62.8499   31.1107   48.4656 H   0  0  0  0  0  0  0  0  0  0  0  0
   61.0770   32.3060   48.1030 C   0  0  0  0  0  0  0  0  0  0  0  0
   60.4451   31.7045   48.7731 H   0  0  0  0  0  0  0  0  0  0  0  0
   55.7580   26.0150   46.0370 C   0  0  0  0  0  0  0  0  0  0  0  0
   54.4090   26.3370   45.9300 O   0  0  0  0  0  0  0  0  0  0  0  0
   56.1370   24.7110   46.3710 C   0  0  0  0  0  0  0  0  0  0  0  0
   55.3704   23.9428   46.5505 H   0  0  0  0  0  0  0  0  0  0  0  0
   57.4900   24.3870   46.4760 C   0  0  0  0  0  0  0  0  0  0  0  0
   57.7974   23.3641   46.7390 H   0  0  0  0  0  0  0  0  0  0  0  0
  1  2  1  0
  2  3  1  0
  3  4  1  0
  4  5  2  0
  5  6  1  0
  6  7  2  0
  6  8  1  0
  8  9  2  0
  9 10  1  0
  9 11  1  0
 11 12  1  0
 11 13  2  0
 13 14  1  0
 13 15  1  0
 15 16  1  0
 15 17  2  0
 17 18  1  0
 18 19  1  0
 18 20  1  0
 20 21  2  0
 20 22  1  0
 22 23  1  0
 22 24  1  0
 22 25  1  0
 25 26  2  0
 26 27  1  0
 26 28  1  0
 28 29  1  0
 28 30  2  0
 30 31  1  0
 30 32  1  0
 32 33  1  0
 32 34  2  0
 34 35  1  0
  4 36  1  0
 36 37  1  0
 36 38  2  0
 38 39  1  0
 38 40  1  0
 40 41  1  0
 40  2  2  0
 17  8  1  0
 34 25  1  0
M  CHG  2   3  -1  37  -1
M  END
>  <UniqueID>  (61) 
57

>  <SMILES>  (61) 
O=C(Cc1ccccc1)Nc1ccccc1C(=O)/N=c1\[n-]cccc1[O-]

>  <Energy>  (61) 
55.243858535959845

>  <Genealogy>  (61) 
O=C(Cc1ccccc1)Nc1ccccc1C(=O)N=c1[n-]cccc1[O-] (protonated)
O=C(Cc1ccccc1)Nc1ccccc1C(=O)/N=c1\[n-]cccc1[O-] (cis-trans isomerization)
O=C(Cc1ccccc1)Nc1ccccc1C(=O)/N=c1\[n-]cccc1[O-] (3D coordinates assigned)
O=C(Cc1ccccc1)Nc1ccccc1C(=O)/N=c1\[n-]cccc1[O-] (optimized conformer: 55.243858535959845 kcal/mol)

>  <smiles>  (61) 
O=C(Cc1ccccc1)Nc1ccccc1C(=O)N=c1[nH]cccc1O

>  <score_type>  (61) 
oracle

>  <origin>  (61) 
adg

>  <m_score__min__energy>  (61) 
-13.91

>  <m_primary>  (61) 
energy

$$$$
61:0
     RDKit          3D

 41 43  0  0  0  0  0  0  0  0999 V2000
   55.6580   28.5380   44.9940 O   0  0  0  0  0  0  0  0  0  0  0  0
   56.7250   28.2760   45.6120 C   0  0  0  0  0  0  0  0  0  0  0  0
   57.7830   29.2410   45.6740 N   0  0  0  0  0  0  0  0  0  0  0  0
   57.7940   30.5370   45.0590 C   0  0  0  0  0  0  0  0  0  0  0  0
   57.8140   30.6170   43.6620 C   0  0  0  0  0  0  0  0  0  0  0  0
   57.8380   31.8590   43.0240 C   0  0  0  0  0  0  0  0  0  0  0  0
   57.8590   33.0340   43.7790 C   0  0  0  0  0  0  0  0  0  0  0  0
   57.8680   32.9730   45.1810 C   0  0  0  0  0  0  0  0  0  0  0  0
   57.9100   34.2350   46.0010 C   0  0  0  0  0  0  0  0  0  0  0  0
   58.3020   33.9510   47.3300 O   0  0  0  0  0  0  0  0  0  0  0  0
   59.5890   34.4740   47.6080 C   0  0  0  0  0  0  0  0  0  0  0  0
   60.4960   34.3380   46.3840 C   0  0  0  0  0  0  0  0  0  0  0  0
   61.6940   33.5800   46.7280 N   0  0  0  0  0  0  0  0  0  0  0  0
   61.7250   32.3860   47.3470 C   0  0  0  0  0  0  0  0  0  0  0  0
   63.0420   32.0380   47.5510 C   0  0  0  0  0  0  0  0  0  0  0  0
   63.7680   33.0910   47.0310 C   0  0  0  0  0  0  0  0  0  0  0  0
   62.9270   34.0240   46.5400 N   0  0  0  0  0  0  0  0  0  0  0  0
   57.8420   31.7220   45.8180 C   0  0  0  0  0  0  0  0  0  0  0  0
   56.8780   26.9630   46.2810 C   0  0  0  0  0  0  0  0  0  0  0  0
   55.8390   26.0030   46.3040 C   0  0  0  0  0  0  0  0  0  0  0  0
   54.5630   26.2690   45.8060 O   0  0  0  0  0  0  0  0  0  0  0  0
   56.0650   24.7840   46.8580 N   0  0  0  0  0  0  0  0  0  0  0  0
   57.2610   24.4680   47.4140 C   0  0  0  0  0  0  0  0  0  0  0  0
   57.4400   23.3290   47.9160 O   0  0  0  0  0  0  0  0  0  0  0  0
   58.2630   25.3820   47.4340 N   0  0  0  0  0  0  0  0  0  0  0  0
   58.1020   26.6140   46.8870 C   0  0  0  0  0  0  0  0  0  0  0  0
   59.0650   27.4250   46.9080 O   0  0  0  0  0  0  0  0  0  0  0  0
   57.8108   29.6950   43.0621 H   0  0  0  0  0  0  0  0  0  0  0  0
   57.8404   31.9121   41.9253 H   0  0  0  0  0  0  0  0  0  0  0  0
   57.8685   34.0106   43.2728 H   0  0  0  0  0  0  0  0  0  0  0  0
   58.6314   34.9339   45.5526 H   0  0  0  0  0  0  0  0  0  0  0  0
   56.9055   34.6830   46.0151 H   0  0  0  0  0  0  0  0  0  0  0  0
   59.4981   35.5371   47.8754 H   0  0  0  0  0  0  0  0  0  0  0  0
   60.0302   33.9104   48.4433 H   0  0  0  0  0  0  0  0  0  0  0  0
   59.9515   33.8144   45.5844 H   0  0  0  0  0  0  0  0  0  0  0  0
   60.7911   35.3410   46.0420 H   0  0  0  0  0  0  0  0  0  0  0  0
   60.8484   31.7896   47.6401 H   0  0  0  0  0  0  0  0  0  0  0  0
   63.4296   31.1235   48.0236 H   0  0  0  0  0  0  0  0  0  0  0  0
   64.8659   33.1587   47.0190 H   0  0  0  0  0  0  0  0  0  0  0  0
   57.8592   31.6674   46.9165 H   0  0  0  0  0  0  0  0  0  0  0  0
   54.3960   26.7190   44.9150 H   0  0  0  0  0  0  0  0  0  0  0  0
  1  2  2  0
  2  3  1  0
  3  4  1  0
  4  5  2  0
  5  6  1  0
  6  7  2  0
  7  8  1  0
  8  9  1  0
  9 10  1  0
 10 11  1  0
 11 12  1  0
 12 13  1  0
 13 14  1  0
 14 15  2  0
 15 16  1  0
 16 17  2  0
  8 18  2  0
  2 19  1  0
 19 20  2  0
 20 21  1  0
 20 22  1  0
 22 23  1  0
 23 24  2  0
 23 25  1  0
 25 26  1  0
 26 27  2  0
 18  4  1  0
 26 19  1  0
 17 13  1  0
  5 28  1  0
  6 29  1  0
  7 30  1  0
  9 31  1  0
  9 32  1  0
 11 33  1  0
 11 34  1  0
 12 35  1  0
 12 36  1  0
 14 37  1  0
 15 38  1  0
 16 39  1  0
 18 40  1  0
 21 41  1  0
M  CHG  3   3  -1  22  -1  25  -1
M  END
>  <UniqueID>  (62) 
58

>  <SMILES>  (62) 
O=C([N-]c1cccc(COCCn2cccn2)c1)c1c(O)[n-]c(=O)[n-]c1=O

>  <Energy>  (62) 
84.42842214806355

>  <Genealogy>  (62) 
O=C([N-]c1cccc(COCCn2cccn2)c1)c1c(O)[n-]c(=O)[n-]c1=O (protonated)
O=C([N-]c1cccc(COCCn2cccn2)c1)c1c(O)[n-]c(=O)[n-]c1=O (3D coordinates assigned)
O=C([N-]c1cccc(COCCn2cccn2)c1)c1c(O)[n-]c(=O)[n-]c1=O (optimized conformer: 84.42842214806355 kcal/mol)

>  <smiles>  (62) 
O=C(Nc1cccc(COCCn2cccn2)c1)c1c(O)[nH]c(=O)[nH]c1=O

>  <score_type>  (62) 
oracle

>  <origin>  (62) 
adg

>  <m_score__min__energy>  (62) 
-13.93

>  <m_primary>  (62) 
energy

$$$$
62:0
     RDKit          3D

 67 69  0  0  0  0  0  0  0  0999 V2000
   66.7530   32.3200   50.5140 C   0  0  0  0  0  0  0  0  0  0  0  0
   65.8530   33.1010   49.7340 O   0  0  0  0  0  0  0  0  0  0  0  0
   64.4800   32.8390   49.6080 C   0  0  0  0  0  0  0  0  0  0  0  0
   63.5850   33.7570   49.0230 C   0  0  0  0  0  0  0  0  0  0  0  0
   62.2260   33.4480   48.9210 C   0  0  0  0  0  0  0  0  0  0  0  0
   61.7430   32.2170   49.3890 C   0  0  0  0  0  0  0  0  0  0  0  0
   60.3430   31.9020   49.2970 N   0  0  0  0  0  0  0  0  0  0  0  0
   59.5910   32.2180   48.0800 C   0  0  0  0  0  0  0  0  0  0  0  0
   59.2120   30.9660   47.3460 C   0  0  0  0  0  0  0  0  0  0  0  0
   58.5250   31.0340   46.2900 O   0  0  0  0  0  0  0  0  0  0  0  0
   59.5950   29.6940   47.8770 N   0  0  0  0  0  0  0  0  0  0  0  0
   60.7160   28.9200   47.3570 C   0  0  0  0  0  0  0  0  0  0  0  0
   60.3570   28.3170   45.9950 C   0  0  0  0  0  0  0  0  0  0  0  0
   58.9540   27.7690   46.0040 C   0  0  0  0  0  0  0  0  0  0  0  0
   58.6970   26.4910   46.5190 C   0  0  0  0  0  0  0  0  0  0  0  0
   57.4010   25.9720   46.5070 C   0  0  0  0  0  0  0  0  0  0  0  0
   56.3400   26.7200   45.9610 C   0  0  0  0  0  0  0  0  0  0  0  0
   55.0260   26.2250   45.9180 O   0  0  0  0  0  0  0  0  0  0  0  0
   54.6830   24.8750   45.6200 C   0  0  0  0  0  0  0  0  0  0  0  0
   56.5920   27.9970   45.4310 C   0  0  0  0  0  0  0  0  0  0  0  0
   55.5160   28.7130   44.8820 O   0  0  0  0  0  0  0  0  0  0  0  0
   55.6450   29.7330   43.8950 C   0  0  0  0  0  0  0  0  0  0  0  0
   57.8990   28.5180   45.4610 C   0  0  0  0  0  0  0  0  0  0  0  0
   59.5660   31.0810   50.6210 S   0  0  0  0  0  0  0  0  0  0  0  0
   58.3700   30.3200   50.1200 O   0  0  0  0  0  0  0  0  0  0  0  0
   60.5220   30.0830   51.2130 O   0  0  0  0  0  0  0  0  0  0  0  0
   59.0560   32.2430   51.8500 C   0  0  0  0  0  0  0  0  0  0  0  0
   57.7850   32.4040   52.3830 C   0  0  0  0  0  0  0  0  0  0  0  0
   56.5440   31.6580   52.0100 C   0  0  0  0  0  0  0  0  0  0  0  0
   57.7960   33.4040   53.2870 N   0  0  0  0  0  0  0  0  0  0  0  0
   59.0330   33.8670   53.3600 N   0  0  0  0  0  0  0  0  0  0  0  0
   59.4270   34.9520   54.2530 C   0  0  0  0  0  0  0  0  0  0  0  0
   59.8290   33.1970   52.4950 C   0  0  0  0  0  0  0  0  0  0  0  0
   61.3090   33.4010   52.3540 C   0  0  0  0  0  0  0  0  0  0  0  0
   62.6310   31.3090   49.9800 C   0  0  0  0  0  0  0  0  0  0  0  0
   63.9900   31.6180   50.0850 C   0  0  0  0  0  0  0  0  0  0  0  0
   66.5557   32.4912   51.5825 H   0  0  0  0  0  0  0  0  0  0  0  0
   66.6105   31.2545   50.2810 H   0  0  0  0  0  0  0  0  0  0  0  0
   67.7879   32.6111   50.2810 H   0  0  0  0  0  0  0  0  0  0  0  0
   63.9576   34.7205   48.6452 H   0  0  0  0  0  0  0  0  0  0  0  0
   61.5318   34.1734   48.4717 H   0  0  0  0  0  0  0  0  0  0  0  0
   58.6773   32.7662   48.3531 H   0  0  0  0  0  0  0  0  0  0  0  0
   60.2253   32.8322   47.4239 H   0  0  0  0  0  0  0  0  0  0  0  0
   61.5903   29.5779   47.2439 H   0  0  0  0  0  0  0  0  0  0  0  0
   60.9466   28.1060   48.0600 H   0  0  0  0  0  0  0  0  0  0  0  0
   60.4340   29.0975   45.2238 H   0  0  0  0  0  0  0  0  0  0  0  0
   61.0547   27.4944   45.7794 H   0  0  0  0  0  0  0  0  0  0  0  0
   59.5214   25.8933   46.9351 H   0  0  0  0  0  0  0  0  0  0  0  0
   57.2076   24.9736   46.9262 H   0  0  0  0  0  0  0  0  0  0  0  0
   54.5413   24.3172   46.5574 H   0  0  0  0  0  0  0  0  0  0  0  0
   53.7509   24.8538   45.0362 H   0  0  0  0  0  0  0  0  0  0  0  0
   55.4919   24.4115   45.0362 H   0  0  0  0  0  0  0  0  0  0  0  0
   55.7683   30.7080   44.3892 H   0  0  0  0  0  0  0  0  0  0  0  0
   56.5242   29.5265   43.2670 H   0  0  0  0  0  0  0  0  0  0  0  0
   54.7421   29.7518   43.2670 H   0  0  0  0  0  0  0  0  0  0  0  0
   58.0953   29.5214   45.0551 H   0  0  0  0  0  0  0  0  0  0  0  0
   56.0179   31.3418   52.9228 H   0  0  0  0  0  0  0  0  0  0  0  0
   55.8878   32.3115   51.4164 H   0  0  0  0  0  0  0  0  0  0  0  0
   56.8133   30.7719   51.4164 H   0  0  0  0  0  0  0  0  0  0  0  0
   59.3094   34.6281   55.2976 H   0  0  0  0  0  0  0  0  0  0  0  0
   60.4785   35.2163   54.0672 H   0  0  0  0  0  0  0  0  0  0  0  0
   58.7901   35.8294   54.0672 H   0  0  0  0  0  0  0  0  0  0  0  0
   61.7672   33.4642   53.3521 H   0  0  0  0  0  0  0  0  0  0  0  0
   61.7450   32.5545   51.8033 H   0  0  0  0  0  0  0  0  0  0  0  0
   61.4997   34.3339   51.8033 H   0  0  0  0  0  0  0  0  0  0  0  0
   62.2569   30.3482   50.3633 H   0  0  0  0  0  0  0  0  0  0  0  0
   64.6798   30.8958   50.5462 H   0  0  0  0  0  0  0  0  0  0  0  0
  1  2  1  0
  2  3  1  0
  3  4  2  0
  4  5  1  0
  5  6  2  0
  6  7  1  0
  7  8  1  0
  8  9  1  0
  9 10  2  0
  9 11  1  0
 11 12  1  0
 12 13  1  0
 13 14  1  0
 14 15  2  0
 15 16  1  0
 16 17  2  0
 17 18  1  0
 18 19  1  0
 17 20  1  0
 20 21  1  0
 21 22  1  0
 20 23  2  0
  7 24  1  0
 24 25  2  0
 24 26  2  0
 24 27  1  0
 27 28  1  0
 28 29  1  0
 28 30  2  0
 30 31  1  0
 31 32  1  0
 31 33  1  0
 33 34  1  0
  6 35  1  0
 35 36  2  0
 36  3  1  0
 23 14  1  0
 33 27  2  0
  1 37  1  0
  1 38  1  0
  1 39  1  0
  4 40  1  0
  5 41  1  0
  8 42  1  0
  8 43  1  0
 12 44  1  0
 12 45  1  0
 13 46  1  0
 13 47  1  0
 15 48  1  0
 16 49  1  0
 19 50  1  0
 19 51  1  0
 19 52  1  0
 22 53  1  0
 22 54  1  0
 22 55  1  0
 23 56  1  0
 29 57  1  0
 29 58  1  0
 29 59  1  0
 32 60  1  0
 32 61  1  0
 32 62  1  0
 34 63  1  0
 34 64  1  0
 34 65  1  0
 35 66  1  0
 36 67  1  0
M  CHG  1  11  -1
M  END
>  <UniqueID>  (63) 
59

>  <SMILES>  (63) 
COc1ccc(N(CC(=O)[N-]CCc2ccc(OC)c(OC)c2)S(=O)(=O)c2c(C)nn(C)c2C)cc1

>  <Energy>  (63) 
94.35987556980086

>  <Genealogy>  (63) 
COc1ccc(N(CC(=O)[N-]CCc2ccc(OC)c(OC)c2)S(=O)(=O)c2c(C)nn(C)c2C)cc1 (protonated)
COc1ccc(N(CC(=O)[N-]CCc2ccc(OC)c(OC)c2)S(=O)(=O)c2c(C)nn(C)c2C)cc1 (3D coordinates assigned)
COc1ccc(N(CC(=O)[N-]CCc2ccc(OC)c(OC)c2)S(=O)(=O)c2c(C)nn(C)c2C)cc1 (optimized conformer: 94.35987556980086 kcal/mol)

>  <smiles>  (63) 
COc1ccc(N(CC(=O)NCCc2ccc(OC)c(OC)c2)S(=O)(=O)c2c(C)nn(C)c2C)cc1

>  <score_type>  (63) 
oracle

>  <origin>  (63) 
adg

>  <m_score__min__energy>  (63) 
-8.9000000000000004

>  <m_primary>  (63) 
energy

$$$$
63:0
     RDKit          3D

 49 51  0  0  0  0  0  0  0  0999 V2000
   62.4110   30.5520   46.3840 H   0  0  0  0  0  0  0  0  0  0  0  0
   62.7480   31.0750   47.1820 O   0  0  0  0  0  0  0  0  0  0  0  0
   62.0170   31.1990   48.3470 N   0  0  0  0  0  0  0  0  0  0  0  0
   62.2280   32.2310   49.2280 C   0  0  0  0  0  0  0  0  0  0  0  0
   63.0980   33.4570   48.8980 C   0  0  0  0  0  0  0  0  0  0  0  0
   64.5850   33.1220   49.1350 C   0  0  0  0  0  0  0  0  0  0  0  0
   64.7830   33.0774   50.2161 H   0  0  0  0  0  0  0  0  0  0  0  0
   64.8188   32.1487   48.6789 H   0  0  0  0  0  0  0  0  0  0  0  0
   65.2136   33.9010   48.6789 H   0  0  0  0  0  0  0  0  0  0  0  0
   62.7370   34.6740   49.7840 C   0  0  0  0  0  0  0  0  0  0  0  0
   62.8203   34.3932   50.8443 H   0  0  0  0  0  0  0  0  0  0  0  0
   63.4282   35.5022   49.5686 H   0  0  0  0  0  0  0  0  0  0  0  0
   61.7060   34.9914   49.5686 H   0  0  0  0  0  0  0  0  0  0  0  0
   62.8830   33.8760   47.4270 C   0  0  0  0  0  0  0  0  0  0  0  0
   62.3810   34.8542   47.3940 H   0  0  0  0  0  0  0  0  0  0  0  0
   63.8565   33.9461   46.9197 H   0  0  0  0  0  0  0  0  0  0  0  0
   62.2583   33.1260   46.9197 H   0  0  0  0  0  0  0  0  0  0  0  0
   61.6390   32.0160   50.4850 C   0  0  0  0  0  0  0  0  0  0  0  0
   61.6971   32.7007   51.3440 H   0  0  0  0  0  0  0  0  0  0  0  0
   60.8320   30.5440   50.4630 S   0  0  0  0  0  0  0  0  0  0  0  0
   61.2220   30.2230   48.8690 C   0  0  0  0  0  0  0  0  0  0  0  0
   60.7460   29.1880   48.2370 N   0  0  0  0  0  0  0  0  0  0  0  0
   60.1530   29.1410   46.9320 C   0  0  0  0  0  0  0  0  0  0  0  0
   60.3160   30.1110   46.1430 O   0  0  0  0  0  0  0  0  0  0  0  0
   59.2930   28.0420   46.5620 N   0  0  0  0  0  0  0  0  0  0  0  0
   58.8190   27.9180   45.1740 C   0  0  0  0  0  0  0  0  0  0  0  0
   58.8060   28.9133   44.7057 H   0  0  0  0  0  0  0  0  0  0  0  0
   59.4979   27.2491   44.6248 H   0  0  0  0  0  0  0  0  0  0  0  0
   57.4100   27.3280   45.1400 C   0  0  0  0  0  0  0  0  0  0  0  0
   56.6931   28.0747   45.5121 H   0  0  0  0  0  0  0  0  0  0  0  0
   57.1580   27.0530   44.1052 H   0  0  0  0  0  0  0  0  0  0  0  0
   57.3480   26.1320   45.9850 N   0  0  0  0  0  0  0  0  0  0  0  0
   56.5310   25.0180   45.5850 C   0  0  0  0  0  0  0  0  0  0  0  0
   57.1260   23.8120   45.1780 C   0  0  0  0  0  0  0  0  0  0  0  0
   58.2221   23.7209   45.1617 H   0  0  0  0  0  0  0  0  0  0  0  0
   56.3330   22.7280   44.7940 C   0  0  0  0  0  0  0  0  0  0  0  0
   56.8060   21.7861   44.4792 H   0  0  0  0  0  0  0  0  0  0  0  0
   54.9400   22.8380   44.8090 C   0  0  0  0  0  0  0  0  0  0  0  0
   54.3171   21.9827   44.5082 H   0  0  0  0  0  0  0  0  0  0  0  0
   54.3380   24.0370   45.2070 C   0  0  0  0  0  0  0  0  0  0  0  0
   53.2414   24.1225   45.2195 H   0  0  0  0  0  0  0  0  0  0  0  0
   55.1270   25.1270   45.5890 C   0  0  0  0  0  0  0  0  0  0  0  0
   54.5130   26.3190   45.9570 O   0  0  0  0  0  0  0  0  0  0  0  0
   57.7920   26.2580   47.3740 C   0  0  0  0  0  0  0  0  0  0  0  0
   57.0999   26.9167   47.9190 H   0  0  0  0  0  0  0  0  0  0  0  0
   57.8049   25.2616   47.8400 H   0  0  0  0  0  0  0  0  0  0  0  0
   59.2020   26.8530   47.4230 C   0  0  0  0  0  0  0  0  0  0  0  0
   59.4382   27.1380   48.4589 H   0  0  0  0  0  0  0  0  0  0  0  0
   59.9175   26.0991   47.0628 H   0  0  0  0  0  0  0  0  0  0  0  0
  1  2  1  0
  2  3  1  0
  3  4  1  0
  4  5  1  0
  5  6  1  0
  6  7  1  0
  6  8  1  0
  6  9  1  0
  5 10  1  0
 10 11  1  0
 10 12  1  0
 10 13  1  0
  5 14  1  0
 14 15  1  0
 14 16  1  0
 14 17  1  0
  4 18  2  0
 18 19  1  0
 18 20  1  0
 20 21  1  0
 21 22  2  0
 22 23  1  0
 23 24  2  0
 23 25  1  0
 25 26  1  0
 26 27  1  0
 26 28  1  0
 26 29  1  0
 29 30  1  0
 29 31  1  0
 29 32  1  0
 32 33  1  0
 33 34  2  0
 34 35  1  0
 34 36  1  0
 36 37  1  0
 36 38  2  0
 38 39  1  0
 38 40  1  0
 40 41  1  0
 40 42  2  0
 42 43  1  0
 32 44  1  0
 44 45  1  0
 44 46  1  0
 44 47  1  0
 47 48  1  0
 47 49  1  0
 21  3  1  0
 47 25  1  0
 42 33  1  0
M  CHG  1  43  -1
M  END
>  <UniqueID>  (64) 
60

>  <SMILES>  (64) 
CC(C)(C)c1cs/c(=N/C(=O)N2CCN(c3ccccc3[O-])CC2)n1O

>  <Energy>  (64) 
97.91554704860276

>  <Genealogy>  (64) 
CC(C)(C)c1csc(=NC(=O)N2CCN(c3ccccc3[O-])CC2)n1O (protonated)
CC(C)(C)c1cs/c(=N/C(=O)N2CCN(c3ccccc3[O-])CC2)n1O (cis-trans isomerization)
CC(C)(C)c1cs/c(=N/C(=O)N2CCN(c3ccccc3[O-])CC2)n1O (3D coordinates assigned)
CC(C)(C)c1cs/c(=N/C(=O)N2CCN(c3ccccc3[O-])CC2)n1O (nonaromatic ring conformer: 97.91554704860276 kcal/mol)

>  <smiles>  (64) 
CC(C)(C)c1csc(=NC(=O)N2CCN(c3ccccc3O)CC2)n1O

>  <score_type>  (64) 
oracle

>  <origin>  (64) 
adg

>  <m_score__min__energy>  (64) 
-10.83

>  <m_primary>  (64) 
energy

$$$$
64:0
     RDKit          3D

 45 47  0  0  1  0  0  0  0  0999 V2000
   57.7180   32.3140   40.9790 C   0  0  0  0  0  0  0  0  0  0  0  0
   57.7680   32.1920   42.4570 C   0  0  0  0  0  0  0  0  0  0  0  0
   57.1770   31.1430   43.1310 C   0  0  0  0  0  0  0  0  0  0  0  0
   57.2700   31.1060   44.5040 C   0  0  0  0  0  0  0  0  0  0  0  0
   56.7330   30.1490   45.1400 N   0  0  0  0  0  0  0  0  0  0  0  0
   57.4280   29.1040   45.8130 C   0  0  0  0  0  0  0  0  0  0  0  0
   58.3920   29.3360   46.7740 C   0  0  0  0  0  0  0  0  0  0  0  0
   59.0080   28.2300   47.3690 C   0  0  0  0  0  0  0  0  0  0  0  0
   58.6540   26.9310   46.9960 C   0  0  0  0  0  0  0  0  0  0  0  0
   57.6900   26.7040   46.0350 C   0  0  0  0  0  0  0  0  0  0  0  0
   57.2940   25.4020   45.6200 N   0  0  0  0  0  0  0  0  0  0  0  0
   55.6920   24.8130   45.7730 S   0  0  0  0  0  0  0  0  0  0  0  0
   55.2850   23.5790   44.5610 C   0  0  0  0  0  0  0  0  0  0  0  0
   55.5510   24.1740   47.1240 O   0  0  0  0  0  0  0  0  0  0  0  0
   54.6870   25.9440   45.7390 O   0  0  0  0  0  0  0  0  0  0  0  0
   57.0900   27.7940   45.4560 C   0  0  0  0  0  0  0  0  0  0  0  0
   57.9150   32.0530   45.2130 N   0  0  0  0  0  0  0  0  0  0  0  0
   58.4820   33.0640   44.5390 C   0  0  0  0  0  0  0  0  0  0  0  0
   59.1140   34.0030   45.1470 N   0  0  0  0  0  0  0  0  0  0  0  0
   59.7020   33.7510   46.4200 C   0  0  0  0  0  0  0  0  0  0  0  0
   61.0970   33.6590   46.4370 C   0  0  0  0  0  0  0  0  0  0  0  0
   61.7750   33.4190   47.6100 C   0  0  0  0  0  0  0  0  0  0  0  0
   61.0390   33.2670   48.7890 C   0  0  0  0  0  0  0  0  0  0  0  0
   59.6550   33.3650   48.7380 C   0  0  0  0  0  0  0  0  0  0  0  0
   58.9720   33.6040   47.5770 C   0  0  0  0  0  0  0  0  0  0  0  0
   57.6350   33.7050   47.4890 F   0  0  0  0  0  0  0  0  0  0  0  0
   58.4050   33.1220   43.1980 N   0  0  0  0  0  0  0  0  0  0  0  0
   57.3139   33.3000   40.7059 H   0  0  0  0  0  0  0  0  0  0  0  0
   58.7326   32.2069   40.5677 H   0  0  0  0  0  0  0  0  0  0  0  0
   57.0705   31.5256   40.5677 H   0  0  0  0  0  0  0  0  0  0  0  0
   56.6428   30.3530   42.5828 H   0  0  0  0  0  0  0  0  0  0  0  0
   58.6676   30.3609   47.0633 H   0  0  0  0  0  0  0  0  0  0  0  0
   59.7789   28.3846   48.1383 H   0  0  0  0  0  0  0  0  0  0  0  0
   59.1517   26.0755   47.4760 H   0  0  0  0  0  0  0  0  0  0  0  0
   58.0720   24.8110   45.2000 H   0  0  0  0  0  0  0  0  0  0  0  0
   54.9794   22.6526   45.0693 H   0  0  0  0  0  0  0  0  0  0  0  0
   54.4589   23.9416   43.9317 H   0  0  0  0  0  0  0  0  0  0  0  0
   56.1647   23.3789   43.9317 H   0  0  0  0  0  0  0  0  0  0  0  0
   56.3196   27.6329   44.6876 H   0  0  0  0  0  0  0  0  0  0  0  0
   57.9720   32.0030   46.2480 H   0  0  0  0  0  0  0  0  0  0  0  0
   61.6602   33.7801   45.4999 H   0  0  0  0  0  0  0  0  0  0  0  0
   62.8727   33.3482   47.6200 H   0  0  0  0  0  0  0  0  0  0  0  0
   61.5494   33.0725   49.7438 H   0  0  0  0  0  0  0  0  0  0  0  0
   59.0836   33.2454   49.6703 H   0  0  0  0  0  0  0  0  0  0  0  0
   58.8540   33.9230   42.6640 H   0  0  0  0  0  0  0  0  0  0  0  0
  1  2  1  0
  2  3  2  0
  3  4  1  0
  4  5  2  0
  5  6  1  0
  6  7  2  0
  7  8  1  0
  8  9  2  0
  9 10  1  0
 10 11  1  0
 11 12  1  0
 12 13  1  0
 12 14  2  0
 12 15  2  0
 10 16  2  0
  4 17  1  0
 17 18  1  0
 18 19  2  0
 19 20  1  0
 20 21  2  0
 21 22  1  0
 22 23  2  0
 23 24  1  0
 24 25  2  0
 25 26  1  0
 18 27  1  0
 27  2  1  0
 16  6  1  0
 25 20  1  0
  1 28  1  0
  1 29  1  0
  1 30  1  0
  3 31  1  0
  7 32  1  0
  8 33  1  0
  9 34  1  0
 11 35  1  0
 13 36  1  0
 13 37  1  0
 13 38  1  0
 16 39  1  0
 17 40  1  0
 21 41  1  0
 22 42  1  0
 23 43  1  0
 24 44  1  0
 27 45  1  0
M  END
>  <smiles>  (65) 
Cc1cc(=Nc2cccc(NS(C)(=O)=O)c2)[nH]c(=Nc2ccccc2F)[nH]1

>  <score_type>  (65) 
oracle

>  <origin>  (65) 
adg

>  <m_score__min__energy>  (65) 
-9.1799999999999997

>  <m_primary>  (65) 
energy

$$$$
65:0
     RDKit          3D

 31 32  0  0  0  0  0  0  0  0999 V2000
   56.3500   28.0870   42.6470 H   0  0  0  0  0  0  0  0  0  0  0  0
   56.5310   29.0080   42.2640 O   0  0  0  0  0  0  0  0  0  0  0  0
   56.8900   30.0830   43.0760 C   0  0  0  0  0  0  0  0  0  0  0  0
   57.2840   31.2870   42.4770 C   0  0  0  0  0  0  0  0  0  0  0  0
   57.3735   31.3500   41.3825 H   0  0  0  0  0  0  0  0  0  0  0  0
   57.5630   32.4050   43.2610 C   0  0  0  0  0  0  0  0  0  0  0  0
   57.8773   33.3493   42.7924 H   0  0  0  0  0  0  0  0  0  0  0  0
   57.4390   32.3120   44.6450 C   0  0  0  0  0  0  0  0  0  0  0  0
   57.6359   33.1921   45.2748 H   0  0  0  0  0  0  0  0  0  0  0  0
   57.0750   31.1350   45.2180 N   0  0  0  0  0  0  0  0  0  0  0  0
   56.8210   30.0110   44.4920 C   0  0  0  0  0  0  0  0  0  0  0  0
   56.4990   28.9300   45.1490 N   0  0  0  0  0  0  0  0  0  0  0  0
   57.3070   28.1370   46.0350 C   0  0  0  0  0  0  0  0  0  0  0  0
   58.0950   28.7330   46.8170 O   0  0  0  0  0  0  0  0  0  0  0  0
   57.3440   26.6450   45.9370 C   0  0  0  0  0  0  0  0  0  0  0  0
   56.1160   25.9590   45.9350 C   0  0  0  0  0  0  0  0  0  0  0  0
   54.9460   26.7150   45.9780 O   0  0  0  0  0  0  0  0  0  0  0  0
   55.9170   24.5860   45.8790 C   0  0  0  0  0  0  0  0  0  0  0  0
   54.8642   24.2703   45.9225 H   0  0  0  0  0  0  0  0  0  0  0  0
   56.8320   23.5480   45.7770 C   0  0  0  0  0  0  0  0  0  0  0  0
   56.3922   22.5400   45.7538 H   0  0  0  0  0  0  0  0  0  0  0  0
   58.2300   23.5870   45.6990 C   0  0  0  0  0  0  0  0  0  0  0  0
   58.9470   22.3760   45.5730 O   0  0  0  0  0  0  0  0  0  0  0  0
   59.5850   21.8930   44.3930 C   0  0  0  0  0  0  0  0  0  0  0  0
   60.4334   21.2507   44.6716 H   0  0  0  0  0  0  0  0  0  0  0  0
   58.8648   21.3117   43.7985 H   0  0  0  0  0  0  0  0  0  0  0  0
   59.9490   22.7439   43.7985 H   0  0  0  0  0  0  0  0  0  0  0  0
   59.0280   24.7370   45.7420 C   0  0  0  0  0  0  0  0  0  0  0  0
   60.2760   24.5560   45.6700 O   0  0  0  0  0  0  0  0  0  0  0  0
   58.6210   26.0680   45.8590 C   0  0  0  0  0  0  0  0  0  0  0  0
   59.4479   26.7924   45.8967 H   0  0  0  0  0  0  0  0  0  0  0  0
  1  2  1  0
  2  3  1  0
  3  4  2  0
  4  5  1  0
  4  6  1  0
  6  7  1  0
  6  8  2  0
  8  9  1  0
  8 10  1  0
 10 11  1  0
 11 12  2  0
 12 13  1  0
 13 14  2  0
 13 15  1  0
 15 16  1  0
 16 17  1  0
 16 18  2  0
 18 19  1  0
 18 20  1  0
 20 21  1  0
 20 22  2  0
 22 23  1  0
 23 24  1  0
 24 25  1  0
 24 26  1  0
 24 27  1  0
 22 28  1  0
 28 29  2  0
 28 30  1  0
 30 31  1  0
 11  3  1  0
 30 15  2  0
M  CHG  2  10  -1  17  -1
M  END
>  <UniqueID>  (66) 
61

>  <SMILES>  (66) 
COc1ccc([O-])c(C(=O)/N=c2/[n-]cccc2O)cc1=O

>  <Energy>  (66) 
72.97980098259953

>  <Genealogy>  (66) 
COc1ccc([O-])c(C(=O)N=c2[n-]cccc2O)cc1=O (protonated)
COc1ccc([O-])c(C(=O)/N=c2/[n-]cccc2O)cc1=O (cis-trans isomerization)
COc1ccc([O-])c(C(=O)/N=c2/[n-]cccc2O)cc1=O (3D coordinates assigned)
COc1ccc([O-])c(C(=O)/N=c2/[n-]cccc2O)cc1=O (optimized conformer: 72.97980098259953 kcal/mol)

>  <smiles>  (66) 
COc1ccc(O)c(C(=O)N=c2[nH]cccc2O)cc1=O

>  <score_type>  (66) 
oracle

>  <origin>  (66) 
adg

>  <m_score__min__energy>  (66) 
-12.31

>  <m_primary>  (66) 
energy

$$$$
66:0
     RDKit          3D

 46 48  0  0  0  0  0  0  0  0999 V2000
   65.4950   32.5180   49.7520 C   0  0  0  0  0  0  0  0  0  0  0  0
   64.1200   33.0430   49.4640 C   0  0  0  0  0  0  0  0  0  0  0  0
   63.5960   32.9610   48.1650 C   0  0  0  0  0  0  0  0  0  0  0  0
   62.3270   33.4770   47.8840 C   0  0  0  0  0  0  0  0  0  0  0  0
   61.5730   34.0960   48.8870 C   0  0  0  0  0  0  0  0  0  0  0  0
   60.2960   34.5780   48.5680 O   0  0  0  0  0  0  0  0  0  0  0  0
   59.5940   34.2960   47.3850 C   0  0  0  0  0  0  0  0  0  0  0  0
   59.6700   35.1530   46.2730 C   0  0  0  0  0  0  0  0  0  0  0  0
   58.9810   34.8470   45.0980 C   0  0  0  0  0  0  0  0  0  0  0  0
   58.2230   33.6780   45.0150 C   0  0  0  0  0  0  0  0  0  0  0  0
   58.1540   32.8100   46.1070 C   0  0  0  0  0  0  0  0  0  0  0  0
   58.8340   33.1120   47.3000 C   0  0  0  0  0  0  0  0  0  0  0  0
   58.7330   32.1730   48.4780 C   0  0  0  0  0  0  0  0  0  0  0  0
   60.0160   31.5270   48.7680 N   0  0  0  0  0  0  0  0  0  0  0  0
   59.8730   29.7920   48.8110 S   0  0  0  0  0  0  0  0  0  0  0  0
   58.9970   29.3930   49.9670 O   0  0  0  0  0  0  0  0  0  0  0  0
   61.2360   29.1950   49.0220 O   0  0  0  0  0  0  0  0  0  0  0  0
   59.2110   29.1670   47.3010 C   0  0  0  0  0  0  0  0  0  0  0  0
   59.8380   28.0920   46.6620 C   0  0  0  0  0  0  0  0  0  0  0  0
   59.3450   27.6110   45.4500 C   0  0  0  0  0  0  0  0  0  0  0  0
   58.2240   28.2040   44.8610 C   0  0  0  0  0  0  0  0  0  0  0  0
   57.5800   29.2870   45.4880 C   0  0  0  0  0  0  0  0  0  0  0  0
   56.3990   29.9250   44.8610 C   0  0  0  0  0  0  0  0  0  0  0  0
   55.1600   29.2240   44.7660 N   0  0  0  0  0  0  0  0  0  0  0  0
   56.4760   31.0990   44.4070 O   0  0  0  0  0  0  0  0  0  0  0  0
   58.0810   29.7590   46.7160 C   0  0  0  0  0  0  0  0  0  0  0  0
   62.0960   34.1740   50.1910 C   0  0  0  0  0  0  0  0  0  0  0  0
   63.3670   33.6630   50.4730 C   0  0  0  0  0  0  0  0  0  0  0  0
   65.6451   32.4607   50.8402 H   0  0  0  0  0  0  0  0  0  0  0  0
   65.6038   31.5151   49.3135 H   0  0  0  0  0  0  0  0  0  0  0  0
   66.2446   33.1932   49.3135 H   0  0  0  0  0  0  0  0  0  0  0  0
   64.1854   32.4892   47.3650 H   0  0  0  0  0  0  0  0  0  0  0  0
   61.9182   33.3956   46.8660 H   0  0  0  0  0  0  0  0  0  0  0  0
   60.2756   36.0696   46.3291 H   0  0  0  0  0  0  0  0  0  0  0  0
   59.0356   35.5284   44.2362 H   0  0  0  0  0  0  0  0  0  0  0  0
   57.6795   33.4401   44.0887 H   0  0  0  0  0  0  0  0  0  0  0  0
   57.5641   31.8845   46.0333 H   0  0  0  0  0  0  0  0  0  0  0  0
   58.4133   32.7437   49.3624 H   0  0  0  0  0  0  0  0  0  0  0  0
   58.0027   31.3888   48.2297 H   0  0  0  0  0  0  0  0  0  0  0  0
   60.7234   27.6245   47.1176 H   0  0  0  0  0  0  0  0  0  0  0  0
   59.8395   26.7621   44.9553 H   0  0  0  0  0  0  0  0  0  0  0  0
   57.8434   27.8219   43.9023 H   0  0  0  0  0  0  0  0  0  0  0  0
   54.4210   29.3430   45.4930 H   0  0  0  0  0  0  0  0  0  0  0  0
   57.5824   30.5992   47.2215 H   0  0  0  0  0  0  0  0  0  0  0  0
   61.5026   34.6389   50.9921 H   0  0  0  0  0  0  0  0  0  0  0  0
   63.7781   33.7474   51.4898 H   0  0  0  0  0  0  0  0  0  0  0  0
  1  2  1  0
  2  3  2  0
  3  4  1  0
  4  5  2  0
  5  6  1  0
  6  7  1  0
  7  8  2  0
  8  9  1  0
  9 10  2  0
 10 11  1  0
 11 12  2  0
 12 13  1  0
 13 14  1  0
 14 15  1  0
 15 16  2  0
 15 17  2  0
 15 18  1  0
 18 19  2  0
 19 20  1  0
 20 21  2  0
 21 22  1  0
 22 23  1  0
 23 24  1  0
 23 25  2  0
 22 26  2  0
  5 27  1  0
 27 28  2  0
 28  2  1  0
 12  7  1  0
 26 18  1  0
  1 29  1  0
  1 30  1  0
  1 31  1  0
  3 32  1  0
  4 33  1  0
  8 34  1  0
  9 35  1  0
 10 36  1  0
 11 37  1  0
 13 38  1  0
 13 39  1  0
 19 40  1  0
 20 41  1  0
 21 42  1  0
 24 43  1  0
 26 44  1  0
 27 45  1  0
 28 46  1  0
M  CHG  2  14  -1  24  -1
M  END
>  <UniqueID>  (67) 
62

>  <SMILES>  (67) 
Cc1ccc(Oc2ccccc2C[N-]S(=O)(=O)c2cccc(C([NH-])=O)c2)cc1

>  <Energy>  (67) 
52.39599176616762

>  <Genealogy>  (67) 
Cc1ccc(Oc2ccccc2C[N-]S(=O)(=O)c2cccc(C([NH-])=O)c2)cc1 (protonated)
Cc1ccc(Oc2ccccc2C[N-]S(=O)(=O)c2cccc(C([NH-])=O)c2)cc1 (3D coordinates assigned)
Cc1ccc(Oc2ccccc2C[N-]S(=O)(=O)c2cccc(C([NH-])=O)c2)cc1 (optimized conformer: 52.39599176616762 kcal/mol)

>  <smiles>  (67) 
Cc1ccc(Oc2ccccc2CNS(=O)(=O)c2cccc(C(N)=O)c2)cc1

>  <score_type>  (67) 
oracle

>  <origin>  (67) 
adg

>  <m_score__min__energy>  (67) 
-13.220000000000001

>  <m_primary>  (67) 
energy

$$$$
67:0
     RDKit          3D

 37 39  0  0  0  0  0  0  0  0999 V2000
   56.6690   31.1080   43.0660 O   0  0  0  0  0  0  0  0  0  0  0  0
   56.8930   31.1950   44.3020 C   0  0  0  0  0  0  0  0  0  0  0  0
   56.6570   32.4470   44.9600 N   0  0  0  0  0  0  0  0  0  0  0  0
   57.6330   33.2300   45.6630 C   0  0  0  0  0  0  0  0  0  0  0  0
   58.4100   34.1470   44.9450 C   0  0  0  0  0  0  0  0  0  0  0  0
   59.3790   34.9160   45.5960 C   0  0  0  0  0  0  0  0  0  0  0  0
   59.5890   34.7620   46.9690 C   0  0  0  0  0  0  0  0  0  0  0  0
   58.8360   33.8310   47.6900 C   0  0  0  0  0  0  0  0  0  0  0  0
   57.8670   33.0590   47.0400 C   0  0  0  0  0  0  0  0  0  0  0  0
   57.3460   29.9930   45.0450 C   0  0  0  0  0  0  0  0  0  0  0  0
   56.4640   28.9410   45.3170 C   0  0  0  0  0  0  0  0  0  0  0  0
   55.1510   28.9720   44.8610 O   0  0  0  0  0  0  0  0  0  0  0  0
   56.8940   27.8660   46.0170 N   0  0  0  0  0  0  0  0  0  0  0  0
   58.1690   27.7710   46.4670 C   0  0  0  0  0  0  0  0  0  0  0  0
   58.5070   26.7470   47.1190 O   0  0  0  0  0  0  0  0  0  0  0  0
   59.0720   28.7730   46.2110 N   0  0  0  0  0  0  0  0  0  0  0  0
   60.4470   28.6950   46.7450 C   0  0  0  0  0  0  0  0  0  0  0  0
   60.7450   29.8980   47.6050 C   0  0  0  0  0  0  0  0  0  0  0  0
   61.7070   30.8380   47.1980 C   0  0  0  0  0  0  0  0  0  0  0  0
   62.0130   31.9320   48.0130 C   0  0  0  0  0  0  0  0  0  0  0  0
   61.3640   32.0940   49.2400 C   0  0  0  0  0  0  0  0  0  0  0  0
   60.4080   31.1620   49.6540 C   0  0  0  0  0  0  0  0  0  0  0  0
   60.1000   30.0660   48.8420 C   0  0  0  0  0  0  0  0  0  0  0  0
   58.6720   29.8800   45.5000 C   0  0  0  0  0  0  0  0  0  0  0  0
   59.4890   30.8140   45.2660 O   0  0  0  0  0  0  0  0  0  0  0  0
   58.2570   34.2631   43.8619 H   0  0  0  0  0  0  0  0  0  0  0  0
   59.9769   35.6431   45.0269 H   0  0  0  0  0  0  0  0  0  0  0  0
   60.3463   35.3730   47.4819 H   0  0  0  0  0  0  0  0  0  0  0  0
   59.0054   33.7051   48.7696 H   0  0  0  0  0  0  0  0  0  0  0  0
   57.2865   32.3163   47.6069 H   0  0  0  0  0  0  0  0  0  0  0  0
   60.5498   27.7822   47.3502 H   0  0  0  0  0  0  0  0  0  0  0  0
   61.1560   28.6723   45.9043 H   0  0  0  0  0  0  0  0  0  0  0  0
   62.2216   30.7125   46.2339 H   0  0  0  0  0  0  0  0  0  0  0  0
   62.7653   32.6659   47.6881 H   0  0  0  0  0  0  0  0  0  0  0  0
   61.6055   32.9552   49.8802 H   0  0  0  0  0  0  0  0  0  0  0  0
   59.8974   31.2909   50.6197 H   0  0  0  0  0  0  0  0  0  0  0  0
   59.3499   29.3326   49.1729 H   0  0  0  0  0  0  0  0  0  0  0  0
  1  2  2  0
  2  3  1  0
  3  4  1  0
  4  5  2  0
  5  6  1  0
  6  7  2  0
  7  8  1  0
  8  9  2  0
  2 10  1  0
 10 11  2  0
 11 12  1  0
 11 13  1  0
 13 14  1  0
 14 15  2  0
 14 16  1  0
 16 17  1  0
 17 18  1  0
 18 19  2  0
 19 20  1  0
 20 21  2  0
 21 22  1  0
 22 23  2  0
 16 24  1  0
 24 25  2  0
  9  4  1  0
 24 10  1  0
 23 18  1  0
  5 26  1  0
  6 27  1  0
  7 28  1  0
  8 29  1  0
  9 30  1  0
 17 31  1  0
 17 32  1  0
 19 33  1  0
 20 34  1  0
 21 35  1  0
 22 36  1  0
 23 37  1  0
M  CHG  3   3  -1  12  -1  13  -1
M  END
>  <UniqueID>  (68) 
63

>  <SMILES>  (68) 
O=C([N-]c1ccccc1)c1c([O-])[n-]c(=O)n(Cc2ccccc2)c1=O

>  <Energy>  (68) 
53.34432523147458

>  <Genealogy>  (68) 
O=C([N-]c1ccccc1)c1c([O-])[n-]c(=O)n(Cc2ccccc2)c1=O (protonated)
O=C([N-]c1ccccc1)c1c([O-])[n-]c(=O)n(Cc2ccccc2)c1=O (3D coordinates assigned)
O=C([N-]c1ccccc1)c1c([O-])[n-]c(=O)n(Cc2ccccc2)c1=O (optimized conformer: 53.34432523147458 kcal/mol)

>  <smiles>  (68) 
O=C(Nc1ccccc1)c1c(O)[nH]c(=O)n(Cc2ccccc2)c1=O

>  <score_type>  (68) 
oracle

>  <origin>  (68) 
adg

>  <m_score__min__energy>  (68) 
-14.34

>  <m_primary>  (68) 
energy

$$$$
68:0
     RDKit          3D

 49 51  0  0  0  0  0  0  0  0999 V2000
   51.4200   33.2920   50.5970 H   0  0  0  0  0  0  0  0  0  0  0  0
   51.0140   32.3370   50.7130 N   0  0  0  0  0  0  0  0  0  0  0  0
   51.1800   31.9160   52.3800 S   0  0  0  0  0  0  0  0  0  0  0  0
   51.0120   33.1450   53.2290 O   0  0  0  0  0  0  0  0  0  0  0  0
   50.1180   30.9210   52.7560 O   0  0  0  0  0  0  0  0  0  0  0  0
   52.7730   31.2180   52.6490 C   0  0  0  0  0  0  0  0  0  0  0  0
   53.0660   30.5760   53.8610 C   0  0  0  0  0  0  0  0  0  0  0  0
   52.3009   30.5176   54.6492 H   0  0  0  0  0  0  0  0  0  0  0  0
   54.3270   30.0100   54.0710 C   0  0  0  0  0  0  0  0  0  0  0  0
   54.5500   29.5089   55.0245 H   0  0  0  0  0  0  0  0  0  0  0  0
   55.3100   30.0780   53.0710 C   0  0  0  0  0  0  0  0  0  0  0  0
   56.6620   29.4540   53.2790 C   0  0  0  0  0  0  0  0  0  0  0  0
   56.6519   28.4268   52.8857 H   0  0  0  0  0  0  0  0  0  0  0  0
   56.8894   29.4433   54.3552 H   0  0  0  0  0  0  0  0  0  0  0  0
   57.6890   30.2260   52.5840 N   0  0  0  0  0  0  0  0  0  0  0  0
   58.0870   29.8360   51.7000 H   0  0  0  0  0  0  0  0  0  0  0  0
   58.1990   31.4670   53.0930 C   0  0  0  0  0  0  0  0  0  0  0  0
   57.8720   31.8600   54.2450 O   0  0  0  0  0  0  0  0  0  0  0  0
   59.1590   32.2280   52.3470 N   0  0  0  0  0  0  0  0  0  0  0  0
   59.1240   32.5200   51.0770 C   0  0  0  0  0  0  0  0  0  0  0  0
   58.3690   31.7410   50.2570 N   0  0  0  0  0  0  0  0  0  0  0  0
   58.2840   31.9580   48.9180 C   0  0  0  0  0  0  0  0  0  0  0  0
   57.6497   31.3083   48.2971 H   0  0  0  0  0  0  0  0  0  0  0  0
   59.0010   33.0060   48.3250 C   0  0  0  0  0  0  0  0  0  0  0  0
   58.9180   33.2560   46.8660 C   0  0  0  0  0  0  0  0  0  0  0  0
   59.3620   34.4890   46.3580 C   0  0  0  0  0  0  0  0  0  0  0  0
   59.8310   35.2197   47.0334 H   0  0  0  0  0  0  0  0  0  0  0  0
   59.2130   34.7950   45.0030 C   0  0  0  0  0  0  0  0  0  0  0  0
   59.5689   35.7610   44.6153 H   0  0  0  0  0  0  0  0  0  0  0  0
   58.6130   33.8760   44.1410 C   0  0  0  0  0  0  0  0  0  0  0  0
   58.4827   34.1240   43.0773 H   0  0  0  0  0  0  0  0  0  0  0  0
   58.1780   32.6420   44.6280 C   0  0  0  0  0  0  0  0  0  0  0  0
   57.6968   31.9255   43.9461 H   0  0  0  0  0  0  0  0  0  0  0  0
   58.3490   32.3090   45.9760 C   0  0  0  0  0  0  0  0  0  0  0  0
   57.9380   31.0370   46.3990 O   0  0  0  0  0  0  0  0  0  0  0  0
   57.5280   30.0240   45.5230 C   0  0  0  0  0  0  0  0  0  0  0  0
   56.3630   30.0200   45.0410 O   0  0  0  0  0  0  0  0  0  0  0  0
   58.4550   28.8970   45.2220 C   0  0  0  0  0  0  0  0  0  0  0  0
   58.8162   28.4579   46.1636 H   0  0  0  0  0  0  0  0  0  0  0  0
   57.9229   28.1300   44.6401 H   0  0  0  0  0  0  0  0  0  0  0  0
   59.3102   29.2711   44.6401 H   0  0  0  0  0  0  0  0  0  0  0  0
   59.7940   33.8210   49.1440 C   0  0  0  0  0  0  0  0  0  0  0  0
   60.3601   34.6551   48.7037 H   0  0  0  0  0  0  0  0  0  0  0  0
   59.8680   33.5780   50.5170 C   0  0  0  0  0  0  0  0  0  0  0  0
   60.5028   34.2081   51.1573 H   0  0  0  0  0  0  0  0  0  0  0  0
   55.0100   30.7130   51.8550 C   0  0  0  0  0  0  0  0  0  0  0  0
   55.7714   30.7660   51.0629 H   0  0  0  0  0  0  0  0  0  0  0  0
   53.7490   31.2780   51.6460 C   0  0  0  0  0  0  0  0  0  0  0  0
   53.5219   31.7720   50.6897 H   0  0  0  0  0  0  0  0  0  0  0  0
  1  2  1  0
  2  3  1  0
  3  4  2  0
  3  5  2  0
  3  6  1  0
  6  7  2  0
  7  8  1  0
  7  9  1  0
  9 10  1  0
  9 11  2  0
 11 12  1  0
 12 13  1  0
 12 14  1  0
 12 15  1  0
 15 16  1  0
 15 17  1  0
 17 18  2  0
 17 19  1  0
 19 20  2  0
 20 21  1  0
 21 22  1  0
 22 23  1  0
 22 24  2  0
 24 25  1  0
 25 26  2  0
 26 27  1  0
 26 28  1  0
 28 29  1  0
 28 30  2  0
 30 31  1  0
 30 32  1  0
 32 33  1  0
 32 34  2  0
 34 35  1  0
 35 36  1  0
 36 37  2  0
 36 38  1  0
 38 39  1  0
 38 40  1  0
 38 41  1  0
 24 42  1  0
 42 43  1  0
 42 44  2  0
 44 45  1  0
 11 46  1  0
 46 47  1  0
 46 48  2  0
 48 49  1  0
 48  6  1  0
 44 20  1  0
 34 25  1  0
M  CHG  2   2  -1  21  -1
M  END
>  <UniqueID>  (69) 
64

>  <SMILES>  (69) 
CC(=O)Oc1ccccc1-c1cc/c(=N\C(=O)NCc2ccc(S([NH-])(=O)=O)cc2)[n-]c1

>  <Energy>  (69) 
68.38532171265719

>  <Genealogy>  (69) 
CC(=O)Oc1ccccc1-c1ccc(=NC(=O)NCc2ccc(S([NH-])(=O)=O)cc2)[n-]c1 (protonated)
CC(=O)Oc1ccccc1-c1cc/c(=N\C(=O)NCc2ccc(S([NH-])(=O)=O)cc2)[n-]c1 (cis-trans isomerization)
CC(=O)Oc1ccccc1-c1cc/c(=N\C(=O)NCc2ccc(S([NH-])(=O)=O)cc2)[n-]c1 (3D coordinates assigned)
CC(=O)Oc1ccccc1-c1cc/c(=N\C(=O)NCc2ccc(S([NH-])(=O)=O)cc2)[n-]c1 (optimized conformer: 68.38532171265719 kcal/mol)

>  <smiles>  (69) 
CC(=O)Oc1ccccc1-c1ccc(=NC(=O)NCc2ccc(S(N)(=O)=O)cc2)[nH]c1

>  <score_type>  (69) 
oracle

>  <origin>  (69) 
adg

>  <m_score__min__energy>  (69) 
-12.52

>  <m_primary>  (69) 
energy

$$$$
69:0
     RDKit          3D

 46 48  0  0  0  0  0  0  0  0999 V2000
   58.7400   30.5880   51.0310 C   0  0  0  0  0  0  0  0  0  0  0  0
   59.4770   31.2600   49.9660 N   0  0  0  0  0  0  0  0  0  0  0  0
   58.6650   32.2400   49.4290 O   0  0  0  0  0  0  0  0  0  0  0  0
   58.8590   32.7780   48.1470 C   0  0  0  0  0  0  0  0  0  0  0  0
   58.1490   32.1970   47.0890 C   0  0  0  0  0  0  0  0  0  0  0  0
   58.3450   32.6220   45.7640 C   0  0  0  0  0  0  0  0  0  0  0  0
   57.6020   31.9950   44.6460 C   0  0  0  0  0  0  0  0  0  0  0  0
   57.4130   32.6530   43.5880 O   0  0  0  0  0  0  0  0  0  0  0  0
   57.0370   30.6350   44.7390 C   0  0  0  0  0  0  0  0  0  0  0  0
   55.7260   30.2800   44.4810 C   0  0  0  0  0  0  0  0  0  0  0  0
   55.5640   28.9560   44.6880 N   0  0  0  0  0  0  0  0  0  0  0  0
   56.7330   28.4460   45.0470 N   0  0  0  0  0  0  0  0  0  0  0  0
   56.9220   27.0500   45.3490 C   0  0  0  0  0  0  0  0  0  0  0  0
   56.1710   26.4110   46.3540 C   0  0  0  0  0  0  0  0  0  0  0  0
   56.3790   25.0590   46.6400 C   0  0  0  0  0  0  0  0  0  0  0  0
   57.3440   24.3330   45.9350 C   0  0  0  0  0  0  0  0  0  0  0  0
   57.5450   23.0220   46.2150 F   0  0  0  0  0  0  0  0  0  0  0  0
   58.1060   24.9630   44.9470 C   0  0  0  0  0  0  0  0  0  0  0  0
   57.9020   26.3150   44.6590 C   0  0  0  0  0  0  0  0  0  0  0  0
   57.6480   29.4400   45.0860 C   0  0  0  0  0  0  0  0  0  0  0  0
   58.8990   29.2690   45.3860 N   0  0  0  0  0  0  0  0  0  0  0  0
   59.2360   33.6750   45.5140 C   0  0  0  0  0  0  0  0  0  0  0  0
   59.9270   34.2830   46.5630 C   0  0  0  0  0  0  0  0  0  0  0  0
   59.7440   33.8520   47.8870 C   0  0  0  0  0  0  0  0  0  0  0  0
   60.3840   34.5600   48.9570 N   0  0  0  0  0  0  0  0  0  0  0  0
   61.5510   33.8120   49.9980 S   0  0  0  0  0  0  0  0  0  0  0  0
   62.9720   34.8690   50.1670 C   0  0  0  0  0  0  0  0  0  0  0  0
   61.9700   32.4850   49.4320 O   0  0  0  0  0  0  0  0  0  0  0  0
   60.9310   33.5880   51.3480 O   0  0  0  0  0  0  0  0  0  0  0  0
   59.1142   30.9292   52.0075 H   0  0  0  0  0  0  0  0  0  0  0  0
   57.6700   30.8278   50.9442 H   0  0  0  0  0  0  0  0  0  0  0  0
   58.8803   29.5004   50.9442 H   0  0  0  0  0  0  0  0  0  0  0  0
   60.2840   31.7530   50.4110 H   0  0  0  0  0  0  0  0  0  0  0  0
   57.4261   31.3948   47.2985 H   0  0  0  0  0  0  0  0  0  0  0  0
   54.9348   30.9717   44.1562 H   0  0  0  0  0  0  0  0  0  0  0  0
   55.4162   26.9793   46.9173 H   0  0  0  0  0  0  0  0  0  0  0  0
   55.7825   24.5650   47.4211 H   0  0  0  0  0  0  0  0  0  0  0  0
   58.8680   24.3932   44.3950 H   0  0  0  0  0  0  0  0  0  0  0  0
   58.5121   26.8075   43.8875 H   0  0  0  0  0  0  0  0  0  0  0  0
   59.6300   29.0680   44.6700 H   0  0  0  0  0  0  0  0  0  0  0  0
   59.3917   34.0248   44.4828 H   0  0  0  0  0  0  0  0  0  0  0  0
   60.6223   35.1085   46.3506 H   0  0  0  0  0  0  0  0  0  0  0  0
   60.1040   35.5430   49.1660 H   0  0  0  0  0  0  0  0  0  0  0  0
   63.1858   35.0280   51.2342 H   0  0  0  0  0  0  0  0  0  0  0  0
   63.8404   34.3956   49.6856 H   0  0  0  0  0  0  0  0  0  0  0  0
   62.7684   35.8369   49.6856 H   0  0  0  0  0  0  0  0  0  0  0  0
  1  2  1  0
  2  3  1  0
  3  4  1  0
  4  5  2  0
  5  6  1  0
  6  7  1  0
  7  8  2  0
  7  9  1  0
  9 10  2  0
 10 11  1  0
 11 12  1  0
 12 13  1  0
 13 14  2  0
 14 15  1  0
 15 16  2  0
 16 17  1  0
 16 18  1  0
 18 19  2  0
 12 20  1  0
 20 21  2  3
  6 22  2  0
 22 23  1  0
 23 24  2  0
 24 25  1  0
 25 26  1  0
 26 27  1  0
 26 28  2  0
 26 29  2  0
 24  4  1  0
 20  9  1  0
 19 13  1  0
  1 30  1  0
  1 31  1  0
  1 32  1  0
  2 33  1  0
  5 34  1  0
 10 35  1  0
 14 36  1  0
 15 37  1  0
 18 38  1  0
 19 39  1  0
 21 40  1  0
 22 41  1  0
 23 42  1  0
 25 43  1  0
 27 44  1  0
 27 45  1  0
 27 46  1  0
M  CHG  1  11  -1
M  END
>  <UniqueID>  (70) 
65

>  <SMILES>  (70) 
CNOc1cc(C(=O)c2c[n-]n(-c3ccc(F)cc3)c2=N)ccc1NS(C)(=O)=O

>  <Energy>  (70) 
93.30289149522748

>  <Genealogy>  (70) 
CNOc1cc(C(=O)c2c[n-]n(-c3ccc(F)cc3)c2=N)ccc1NS(C)(=O)=O (protonated)
CNOc1cc(C(=O)c2c[n-]n(-c3ccc(F)cc3)c2=N)ccc1NS(C)(=O)=O (3D coordinates assigned)
CNOc1cc(C(=O)c2c[n-]n(-c3ccc(F)cc3)c2=N)ccc1NS(C)(=O)=O (optimized conformer: 93.30289149522748 kcal/mol)

>  <smiles>  (70) 
CNOc1cc(C(=O)c2c[nH]n(-c3ccc(F)cc3)c2=N)ccc1NS(C)(=O)=O

>  <score_type>  (70) 
oracle

>  <origin>  (70) 
adg

>  <m_score__min__energy>  (70) 
-9.5899999999999999

>  <m_primary>  (70) 
energy

$$$$
70:0
     RDKit          3D

 46 47  0  0  0  0  0  0  0  0999 V2000
   58.1550   27.1800   43.5840 C   0  0  0  0  0  0  0  0  0  0  0  0
   57.3360   28.0710   44.4250 N   0  0  0  0  0  0  0  0  0  0  0  0
   57.8350   29.4610   44.3410 C   0  0  0  0  0  0  0  0  0  0  0  0
   56.7090   30.4270   44.5340 C   0  0  0  0  0  0  0  0  0  0  0  0
   55.5520   30.0020   44.8020 O   0  0  0  0  0  0  0  0  0  0  0  0
   56.9590   31.8300   44.4210 N   0  0  0  0  0  0  0  0  0  0  0  0
   57.0410   32.7130   45.5750 C   0  0  0  0  0  0  0  0  0  0  0  0
   58.4800   32.8910   45.9630 C   0  0  0  0  0  0  0  0  0  0  0  0
   59.0700   34.1640   45.9280 C   0  0  0  0  0  0  0  0  0  0  0  0
   60.3990   34.3370   46.3280 C   0  0  0  0  0  0  0  0  0  0  0  0
   61.1490   33.2410   46.7730 C   0  0  0  0  0  0  0  0  0  0  0  0
   62.8170   33.4610   47.2930 S   0  0  0  0  0  0  0  0  0  0  0  0
   63.5630   31.9180   47.5120 N   0  0  0  0  0  0  0  0  0  0  0  0
   63.5730   34.2390   46.2530 O   0  0  0  0  0  0  0  0  0  0  0  0
   62.8530   34.2240   48.5870 O   0  0  0  0  0  0  0  0  0  0  0  0
   60.5560   31.9740   46.8330 C   0  0  0  0  0  0  0  0  0  0  0  0
   59.2270   31.7990   46.4340 C   0  0  0  0  0  0  0  0  0  0  0  0
   57.3450   27.5930   45.8220 C   0  0  0  0  0  0  0  0  0  0  0  0
   56.3810   26.4470   45.9850 C   0  0  0  0  0  0  0  0  0  0  0  0
   55.1460   26.6880   46.0150 O   0  0  0  0  0  0  0  0  0  0  0  0
   56.8300   25.1010   46.1920 N   0  0  0  0  0  0  0  0  0  0  0  0
   56.8740   24.0660   45.2010 C   0  0  0  0  0  0  0  0  0  0  0  0
   55.8440   23.9930   44.2540 C   0  0  0  0  0  0  0  0  0  0  0  0
   55.8680   23.0090   43.2610 C   0  0  0  0  0  0  0  0  0  0  0  0
   56.9310   22.1050   43.1970 C   0  0  0  0  0  0  0  0  0  0  0  0
   57.9790   22.1910   44.1180 C   0  0  0  0  0  0  0  0  0  0  0  0
   57.9590   23.1740   45.1140 C   0  0  0  0  0  0  0  0  0  0  0  0
   59.0150   23.2790   45.9600 F   0  0  0  0  0  0  0  0  0  0  0  0
   58.7593   26.5226   44.2264 H   0  0  0  0  0  0  0  0  0  0  0  0
   57.4973   26.5684   42.9489 H   0  0  0  0  0  0  0  0  0  0  0  0
   58.8198   27.7840   42.9489 H   0  0  0  0  0  0  0  0  0  0  0  0
   58.5911   29.6234   45.1232 H   0  0  0  0  0  0  0  0  0  0  0  0
   58.2805   29.6229   43.3484 H   0  0  0  0  0  0  0  0  0  0  0  0
   56.6054   33.6906   45.3212 H   0  0  0  0  0  0  0  0  0  0  0  0
   56.4847   32.2728   46.4157 H   0  0  0  0  0  0  0  0  0  0  0  0
   58.4845   35.0296   45.5844 H   0  0  0  0  0  0  0  0  0  0  0  0
   60.8565   35.3367   46.2930 H   0  0  0  0  0  0  0  0  0  0  0  0
   64.4960   31.9620   47.0430 H   0  0  0  0  0  0  0  0  0  0  0  0
   61.1374   31.1133   47.1952 H   0  0  0  0  0  0  0  0  0  0  0  0
   58.7651   30.8022   46.4893 H   0  0  0  0  0  0  0  0  0  0  0  0
   58.3586   27.2555   46.0842 H   0  0  0  0  0  0  0  0  0  0  0  0
   57.0403   28.4159   46.4853 H   0  0  0  0  0  0  0  0  0  0  0  0
   55.0131   24.7128   44.2919 H   0  0  0  0  0  0  0  0  0  0  0  0
   55.0489   22.9467   42.5294 H   0  0  0  0  0  0  0  0  0  0  0  0
   56.9434   21.3250   42.4214 H   0  0  0  0  0  0  0  0  0  0  0  0
   58.8206   21.4851   44.0599 H   0  0  0  0  0  0  0  0  0  0  0  0
  1  2  1  0
  2  3  1  0
  3  4  1  0
  4  5  2  0
  4  6  1  0
  6  7  1  0
  7  8  1  0
  8  9  2  0
  9 10  1  0
 10 11  2  0
 11 12  1  0
 12 13  1  0
 12 14  2  0
 12 15  2  0
 11 16  1  0
 16 17  2  0
  2 18  1  0
 18 19  1  0
 19 20  2  0
 19 21  1  0
 21 22  1  0
 22 23  2  0
 23 24  1  0
 24 25  2  0
 25 26  1  0
 26 27  2  0
 27 28  1  0
 17  8  1  0
 27 22  1  0
  1 29  1  0
  1 30  1  0
  1 31  1  0
  3 32  1  0
  3 33  1  0
  7 34  1  0
  7 35  1  0
  9 36  1  0
 10 37  1  0
 13 38  1  0
 16 39  1  0
 17 40  1  0
 18 41  1  0
 18 42  1  0
 23 43  1  0
 24 44  1  0
 25 45  1  0
 26 46  1  0
M  CHG  3   6  -1  13  -1  21  -1
M  END
>  <UniqueID>  (71) 
66

>  <SMILES>  (71) 
CN(CC(=O)[N-]Cc1ccc(S([NH-])(=O)=O)cc1)CC(=O)[N-]c1ccccc1F

>  <Energy>  (71) 
48.41601915422896

>  <Genealogy>  (71) 
CN(CC(=O)[N-]Cc1ccc(S([NH-])(=O)=O)cc1)CC(=O)[N-]c1ccccc1F (protonated)
CN(CC(=O)[N-]Cc1ccc(S([NH-])(=O)=O)cc1)CC(=O)[N-]c1ccccc1F (3D coordinates assigned)
CN(CC(=O)[N-]Cc1ccc(S([NH-])(=O)=O)cc1)CC(=O)[N-]c1ccccc1F (optimized conformer: 48.41601915422896 kcal/mol)

>  <smiles>  (71) 
CN(CC(=O)NCc1ccc(S(N)(=O)=O)cc1)CC(=O)Nc1ccccc1F

>  <score_type>  (71) 
oracle

>  <origin>  (71) 
adg

>  <m_score__min__energy>  (71) 
-12.43

>  <m_primary>  (71) 
energy

$$$$
71:0
     RDKit          3D

 46 49  0  0  0  0  0  0  0  0999 V2000
   60.8690   29.6860   49.0770 O   0  0  0  0  0  0  0  0  0  0  0  0
   60.5820   29.8010   47.8530 C   0  0  0  0  0  0  0  0  0  0  0  0
   61.0450   30.9460   47.1060 N   0  0  0  0  0  0  0  0  0  0  0  0
   61.7770   32.0390   47.6910 C   0  0  0  0  0  0  0  0  0  0  0  0
   61.3180   32.6930   48.8500 C   0  0  0  0  0  0  0  0  0  0  0  0
   62.0680   33.7330   49.4140 C   0  0  0  0  0  0  0  0  0  0  0  0
   63.2810   34.1220   48.8330 C   0  0  0  0  0  0  0  0  0  0  0  0
   63.7530   33.4650   47.6930 C   0  0  0  0  0  0  0  0  0  0  0  0
   63.0090   32.4210   47.1290 C   0  0  0  0  0  0  0  0  0  0  0  0
   59.7530   28.7510   47.2100 C   0  0  0  0  0  0  0  0  0  0  0  0
   59.7380   27.4320   47.6970 C   0  0  0  0  0  0  0  0  0  0  0  0
   58.9610   26.4570   47.0690 C   0  0  0  0  0  0  0  0  0  0  0  0
   58.2100   26.7780   45.9380 C   0  0  0  0  0  0  0  0  0  0  0  0
   58.2330   28.0750   45.4160 C   0  0  0  0  0  0  0  0  0  0  0  0
   57.4930   28.3430   44.2180 N   0  0  0  0  0  0  0  0  0  0  0  0
   56.4130   29.6820   43.9890 S   0  0  0  0  0  0  0  0  0  0  0  0
   55.9140   29.6790   42.5710 O   0  0  0  0  0  0  0  0  0  0  0  0
   55.2420   29.5330   44.9210 O   0  0  0  0  0  0  0  0  0  0  0  0
   57.2660   31.1950   44.2890 C   0  0  0  0  0  0  0  0  0  0  0  0
   57.7970   31.9170   43.2120 C   0  0  0  0  0  0  0  0  0  0  0  0
   58.5160   33.0940   43.4360 C   0  0  0  0  0  0  0  0  0  0  0  0
   58.7080   33.5660   44.7430 C   0  0  0  0  0  0  0  0  0  0  0  0
   59.4320   34.7450   44.9790 C   0  0  0  0  0  0  0  0  0  0  0  0
   59.6160   35.2040   46.2860 C   0  0  0  0  0  0  0  0  0  0  0  0
   59.0830   34.4920   47.3640 C   0  0  0  0  0  0  0  0  0  0  0  0
   58.3620   33.3150   47.1420 C   0  0  0  0  0  0  0  0  0  0  0  0
   58.1680   32.8430   45.8340 C   0  0  0  0  0  0  0  0  0  0  0  0
   57.4480   31.6620   45.5990 C   0  0  0  0  0  0  0  0  0  0  0  0
   58.9950   29.0640   46.0660 C   0  0  0  0  0  0  0  0  0  0  0  0
   60.7640   31.0490   46.1060 H   0  0  0  0  0  0  0  0  0  0  0  0
   60.3686   32.3868   49.3136 H   0  0  0  0  0  0  0  0  0  0  0  0
   61.7028   34.2456   50.3161 H   0  0  0  0  0  0  0  0  0  0  0  0
   63.8628   34.9449   49.2738 H   0  0  0  0  0  0  0  0  0  0  0  0
   64.7082   33.7678   47.2392 H   0  0  0  0  0  0  0  0  0  0  0  0
   63.3904   31.8962   46.2407 H   0  0  0  0  0  0  0  0  0  0  0  0
   60.3417   27.1670   48.5775 H   0  0  0  0  0  0  0  0  0  0  0  0
   58.9408   25.4319   47.4674 H   0  0  0  0  0  0  0  0  0  0  0  0
   57.5953   26.0052   45.4533 H   0  0  0  0  0  0  0  0  0  0  0  0
   57.6470   31.5551   42.1841 H   0  0  0  0  0  0  0  0  0  0  0  0
   58.9328   33.6522   42.5847 H   0  0  0  0  0  0  0  0  0  0  0  0
   59.8551   35.3083   44.1342 H   0  0  0  0  0  0  0  0  0  0  0  0
   60.1826   36.1293   46.4670 H   0  0  0  0  0  0  0  0  0  0  0  0
   59.2312   34.8588   48.3904 H   0  0  0  0  0  0  0  0  0  0  0  0
   57.9458   32.7575   47.9940 H   0  0  0  0  0  0  0  0  0  0  0  0
   57.0248   31.1004   46.4449 H   0  0  0  0  0  0  0  0  0  0  0  0
   58.9982   30.0925   45.6758 H   0  0  0  0  0  0  0  0  0  0  0  0
  1  2  2  0
  2  3  1  0
  3  4  1  0
  4  5  2  0
  5  6  1  0
  6  7  2  0
  7  8  1  0
  8  9  2  0
  2 10  1  0
 10 11  2  0
 11 12  1  0
 12 13  2  0
 13 14  1  0
 14 15  1  0
 15 16  1  0
 16 17  2  0
 16 18  2  0
 16 19  1  0
 19 20  2  0
 20 21  1  0
 21 22  2  0
 22 23  1  0
 23 24  2  0
 24 25  1  0
 25 26  2  0
 26 27  1  0
 27 28  2  0
 14 29  2  0
  9  4  1  0
 29 10  1  0
 28 19  1  0
 27 22  1  0
  3 30  1  0
  5 31  1  0
  6 32  1  0
  7 33  1  0
  8 34  1  0
  9 35  1  0
 11 36  1  0
 12 37  1  0
 13 38  1  0
 20 39  1  0
 21 40  1  0
 23 41  1  0
 24 42  1  0
 25 43  1  0
 26 44  1  0
 28 45  1  0
 29 46  1  0
M  CHG  1  15  -1
M  END
>  <UniqueID>  (72) 
67

>  <SMILES>  (72) 
O=C(Nc1ccccc1)c1cccc([N-]S(=O)(=O)c2ccc3ccccc3c2)c1

>  <Energy>  (72) 
63.542506024158584

>  <Genealogy>  (72) 
O=C(Nc1ccccc1)c1cccc([N-]S(=O)(=O)c2ccc3ccccc3c2)c1 (protonated)
O=C(Nc1ccccc1)c1cccc([N-]S(=O)(=O)c2ccc3ccccc3c2)c1 (3D coordinates assigned)
O=C(Nc1ccccc1)c1cccc([N-]S(=O)(=O)c2ccc3ccccc3c2)c1 (optimized conformer: 63.542506024158584 kcal/mol)

>  <smiles>  (72) 
O=C(Nc1ccccc1)c1cccc(NS(=O)(=O)c2ccc3ccccc3c2)c1

>  <score_type>  (72) 
oracle

>  <origin>  (72) 
adg

>  <m_score__min__energy>  (72) 
-11.33

>  <m_primary>  (72) 
energy

$$$$
72:0
     RDKit          3D

 37 39  0  0  0  0  0  0  0  0999 V2000
   64.8810   32.6990   46.4480 H   0  0  0  0  0  0  0  0  0  0  0  0
   64.0900   33.2650   46.6480 O   0  0  0  0  0  0  0  0  0  0  0  0
   63.7790   33.0360   47.9930 C   0  0  0  0  0  0  0  0  0  0  0  0
   63.6910   33.9981   48.5189 H   0  0  0  0  0  0  0  0  0  0  0  0
   64.5757   32.4377   48.4591 H   0  0  0  0  0  0  0  0  0  0  0  0
   62.4760   32.2950   48.0810 C   0  0  0  0  0  0  0  0  0  0  0  0
   62.3010   31.2840   49.0380 C   0  0  0  0  0  0  0  0  0  0  0  0
   63.1317   31.0113   49.7054 H   0  0  0  0  0  0  0  0  0  0  0  0
   61.0760   30.6230   49.1460 C   0  0  0  0  0  0  0  0  0  0  0  0
   60.9470   29.8253   49.8923 H   0  0  0  0  0  0  0  0  0  0  0  0
   60.0140   30.9720   48.3090 C   0  0  0  0  0  0  0  0  0  0  0  0
   59.0526   30.4451   48.3988 H   0  0  0  0  0  0  0  0  0  0  0  0
   60.1640   31.9920   47.3520 C   0  0  0  0  0  0  0  0  0  0  0  0
   59.0340   32.3700   46.4660 C   0  0  0  0  0  0  0  0  0  0  0  0
   58.7220   33.6930   46.1430 C   0  0  0  0  0  0  0  0  0  0  0  0
   59.2562   34.5866   46.4981 H   0  0  0  0  0  0  0  0  0  0  0  0
   57.3880   33.6840   45.1170 S   0  0  0  0  0  0  0  0  0  0  0  0
   57.2540   32.0050   45.1210 C   0  0  0  0  0  0  0  0  0  0  0  0
   56.3610   31.2880   44.4980 N   0  0  0  0  0  0  0  0  0  0  0  0
   56.2300   29.8580   44.4730 C   0  0  0  0  0  0  0  0  0  0  0  0
   55.1430   29.3490   44.8520 O   0  0  0  0  0  0  0  0  0  0  0  0
   57.3270   29.0150   44.0950 N   0  0  0  0  0  0  0  0  0  0  0  0
   58.3390   28.4830   44.9620 C   0  0  0  0  0  0  0  0  0  0  0  0
   59.7120   28.6870   44.7240 C   0  0  0  0  0  0  0  0  0  0  0  0
   60.0375   29.2538   43.8392 H   0  0  0  0  0  0  0  0  0  0  0  0
   60.6630   28.1700   45.6110 C   0  0  0  0  0  0  0  0  0  0  0  0
   61.7349   28.3223   45.4164 H   0  0  0  0  0  0  0  0  0  0  0  0
   60.2540   27.4610   46.7430 C   0  0  0  0  0  0  0  0  0  0  0  0
   61.0038   27.0491   47.4345 H   0  0  0  0  0  0  0  0  0  0  0  0
   58.8930   27.2750   46.9970 C   0  0  0  0  0  0  0  0  0  0  0  0
   58.5714   26.7223   47.8921 H   0  0  0  0  0  0  0  0  0  0  0  0
   57.9390   27.7910   46.1140 C   0  0  0  0  0  0  0  0  0  0  0  0
   56.8682   27.6531   46.3246 H   0  0  0  0  0  0  0  0  0  0  0  0
   58.2100   31.4450   45.8920 N   0  0  0  0  0  0  0  0  0  0  0  0
   58.2850   30.4150   46.0470 H   0  0  0  0  0  0  0  0  0  0  0  0
   61.4010   32.6540   47.2510 C   0  0  0  0  0  0  0  0  0  0  0  0
   61.5279   33.4611   46.5145 H   0  0  0  0  0  0  0  0  0  0  0  0
  1  2  1  0
  2  3  1  0
  3  4  1  0
  3  5  1  0
  3  6  1  0
  6  7  2  0
  7  8  1  0
  7  9  1  0
  9 10  1  0
  9 11  2  0
 11 12  1  0
 11 13  1  0
 13 14  1  0
 14 15  2  0
 15 16  1  0
 15 17  1  0
 17 18  1  0
 18 19  2  0
 19 20  1  0
 20 21  2  0
 20 22  1  0
 22 23  1  0
 23 24  2  0
 24 25  1  0
 24 26  1  0
 26 27  1  0
 26 28  2  0
 28 29  1  0
 28 30  1  0
 30 31  1  0
 30 32  2  0
 32 33  1  0
 18 34  1  0
 34 35  1  0
 13 36  2  0
 36 37  1  0
 36  6  1  0
 34 14  1  0
 32 23  1  0
M  CHG  1  22  -1
M  END
>  <UniqueID>  (73) 
68

>  <SMILES>  (73) 
O=C(/N=c1/[nH]c(-c2cccc(CO)c2)cs1)[N-]c1ccccc1

>  <Energy>  (73) 
78.83254196085764

>  <Genealogy>  (73) 
O=C(N=c1[nH]c(-c2cccc(CO)c2)cs1)[N-]c1ccccc1 (protonated)
O=C(/N=c1/[nH]c(-c2cccc(CO)c2)cs1)[N-]c1ccccc1 (cis-trans isomerization)
O=C(/N=c1/[nH]c(-c2cccc(CO)c2)cs1)[N-]c1ccccc1 (3D coordinates assigned)
O=C(/N=c1/[nH]c(-c2cccc(CO)c2)cs1)[N-]c1ccccc1 (optimized conformer: 78.83254196085764 kcal/mol)

>  <smiles>  (73) 
O=C(N=c1[nH]c(-c2cccc(CO)c2)cs1)Nc1ccccc1

>  <score_type>  (73) 
oracle

>  <origin>  (73) 
adg

>  <m_score__min__energy>  (73) 
-10.01

>  <m_primary>  (73) 
energy

$$$$
73:0
     RDKit          3D

 41 43  0  0  0  0  0  0  0  0999 V2000
   60.5670   30.0980   47.2800 C   0  0  0  0  0  0  0  0  0  0  0  0
   59.9490   29.4920   46.1490 O   0  0  0  0  0  0  0  0  0  0  0  0
   58.9720   28.4860   46.2200 C   0  0  0  0  0  0  0  0  0  0  0  0
   58.9230   27.5670   47.2850 C   0  0  0  0  0  0  0  0  0  0  0  0
   57.9340   26.5840   47.3260 C   0  0  0  0  0  0  0  0  0  0  0  0
   56.9770   26.4930   46.3040 C   0  0  0  0  0  0  0  0  0  0  0  0
   55.9280   25.4520   46.3510 C   0  0  0  0  0  0  0  0  0  0  0  0
   54.8030   25.4840   45.6060 N   0  0  0  0  0  0  0  0  0  0  0  0
   54.1860   24.3500   45.9870 C   0  0  0  0  0  0  0  0  0  0  0  0
   52.8930   23.9090   45.4560 C   0  0  0  0  0  0  0  0  0  0  0  0
   52.6180   22.5190   45.3080 N   0  0  0  0  0  0  0  0  0  0  0  0
   52.0210   24.7580   45.1300 O   0  0  0  0  0  0  0  0  0  0  0  0
   54.8880   23.6630   46.9070 N   0  0  0  0  0  0  0  0  0  0  0  0
   55.9880   24.3580   47.1360 N   0  0  0  0  0  0  0  0  0  0  0  0
   57.0300   27.4040   45.2370 C   0  0  0  0  0  0  0  0  0  0  0  0
   58.0170   28.4060   45.1940 C   0  0  0  0  0  0  0  0  0  0  0  0
   58.0760   29.3600   44.1230 N   0  0  0  0  0  0  0  0  0  0  0  0
   57.0720   30.7670   43.9760 S   0  0  0  0  0  0  0  0  0  0  0  0
   56.9700   31.1520   42.5280 O   0  0  0  0  0  0  0  0  0  0  0  0
   55.6970   30.4460   44.4940 O   0  0  0  0  0  0  0  0  0  0  0  0
   57.7830   32.1050   44.8730 C   0  0  0  0  0  0  0  0  0  0  0  0
   57.8770   32.0580   46.2710 C   0  0  0  0  0  0  0  0  0  0  0  0
   58.4690   33.1140   46.9710 C   0  0  0  0  0  0  0  0  0  0  0  0
   58.9590   34.2340   46.2820 C   0  0  0  0  0  0  0  0  0  0  0  0
   59.6340   35.3470   47.0270 C   0  0  0  0  0  0  0  0  0  0  0  0
   58.8760   34.2710   44.8820 C   0  0  0  0  0  0  0  0  0  0  0  0
   58.2850   33.2160   44.1830 C   0  0  0  0  0  0  0  0  0  0  0  0
   60.1381   29.6774   48.2015 H   0  0  0  0  0  0  0  0  0  0  0  0
   61.6490   29.9011   47.2560 H   0  0  0  0  0  0  0  0  0  0  0  0
   60.3913   31.1836   47.2560 H   0  0  0  0  0  0  0  0  0  0  0  0
   59.6698   27.6243   48.0906 H   0  0  0  0  0  0  0  0  0  0  0  0
   57.9042   25.8746   48.1662 H   0  0  0  0  0  0  0  0  0  0  0  0
   51.7810   22.1910   44.7770 H   0  0  0  0  0  0  0  0  0  0  0  0
   56.2912   27.3336   44.4251 H   0  0  0  0  0  0  0  0  0  0  0  0
   57.4842   31.1885   46.8185 H   0  0  0  0  0  0  0  0  0  0  0  0
   58.5510   33.0665   48.0669 H   0  0  0  0  0  0  0  0  0  0  0  0
   59.5319   35.1786   48.1092 H   0  0  0  0  0  0  0  0  0  0  0  0
   60.7005   35.3736   46.7591 H   0  0  0  0  0  0  0  0  0  0  0  0
   59.1646   36.3051   46.7591 H   0  0  0  0  0  0  0  0  0  0  0  0
   59.2782   35.1348   44.3323 H   0  0  0  0  0  0  0  0  0  0  0  0
   58.2134   33.2577   43.0861 H   0  0  0  0  0  0  0  0  0  0  0  0
  1  2  1  0
  2  3  1  0
  3  4  2  0
  4  5  1  0
  5  6  2  0
  6  7  1  0
  7  8  2  0
  8  9  1  0
  9 10  1  0
 10 11  1  0
 10 12  2  0
  9 13  2  0
 13 14  1  0
  6 15  1  0
 15 16  2  0
 16 17  1  0
 17 18  1  0
 18 19  2  0
 18 20  2  0
 18 21  1  0
 21 22  2  0
 22 23  1  0
 23 24  2  0
 24 25  1  0
 24 26  1  0
 26 27  2  0
 16  3  1  0
 27 21  1  0
 14  7  1  0
  1 28  1  0
  1 29  1  0
  1 30  1  0
  4 31  1  0
  5 32  1  0
 11 33  1  0
 15 34  1  0
 22 35  1  0
 23 36  1  0
 25 37  1  0
 25 38  1  0
 25 39  1  0
 26 40  1  0
 27 41  1  0
M  CHG  3  11  -1  14  -1  17  -1
M  END
>  <UniqueID>  (74) 
69

>  <SMILES>  (74) 
COc1ccc(-c2nc(C([NH-])=O)n[n-]2)cc1[N-]S(=O)(=O)c1ccc(C)cc1

>  <Energy>  (74) 
75.2855124095107

>  <Genealogy>  (74) 
COc1ccc(-c2nc(C([NH-])=O)n[n-]2)cc1[N-]S(=O)(=O)c1ccc(C)cc1 (protonated)
COc1ccc(-c2nc(C([NH-])=O)n[n-]2)cc1[N-]S(=O)(=O)c1ccc(C)cc1 (3D coordinates assigned)
COc1ccc(-c2nc(C([NH-])=O)n[n-]2)cc1[N-]S(=O)(=O)c1ccc(C)cc1 (optimized conformer: 75.2855124095107 kcal/mol)

>  <smiles>  (74) 
COc1ccc(-c2nc(C(N)=O)n[nH]2)cc1NS(=O)(=O)c1ccc(C)cc1

>  <score_type>  (74) 
oracle

>  <origin>  (74) 
adg

>  <m_score__min__energy>  (74) 
-13.359999999999999

>  <m_primary>  (74) 
energy

$$$$
74:0
     RDKit          3D

 46 48  0  0  0  0  0  0  0  0999 V2000
   56.9070   25.6590   47.0740 C   0  0  0  0  0  0  0  0  0  0  0  0
   56.6390   24.8160   45.8930 N   0  0  0  0  0  0  0  0  0  0  0  0
   57.6700   24.1880   45.2330 C   0  0  0  0  0  0  0  0  0  0  0  0
   59.0910   24.3720   45.6250 C   0  0  0  0  0  0  0  0  0  0  0  0
   59.8260   23.3630   45.7850 O   0  0  0  0  0  0  0  0  0  0  0  0
   59.6290   25.6680   45.9230 N   0  0  0  0  0  0  0  0  0  0  0  0
   59.1000   26.9270   45.4780 C   0  0  0  0  0  0  0  0  0  0  0  0
   58.3370   27.0350   44.3040 C   0  0  0  0  0  0  0  0  0  0  0  0
   57.8450   28.2770   43.8940 C   0  0  0  0  0  0  0  0  0  0  0  0
   58.1230   29.4370   44.6400 C   0  0  0  0  0  0  0  0  0  0  0  0
   57.5960   30.7530   44.2090 C   0  0  0  0  0  0  0  0  0  0  0  0
   57.7140   31.1170   43.0070 O   0  0  0  0  0  0  0  0  0  0  0  0
   56.9520   31.6170   45.1540 N   0  0  0  0  0  0  0  0  0  0  0  0
   57.0050   33.0720   45.0850 C   0  0  0  0  0  0  0  0  0  0  0  0
   58.0850   33.5980   45.9920 C   0  0  0  0  0  0  0  0  0  0  0  0
   58.2490   33.0880   47.2880 C   0  0  0  0  0  0  0  0  0  0  0  0
   59.2720   33.5760   48.1040 C   0  0  0  0  0  0  0  0  0  0  0  0
   60.1250   34.5660   47.6150 C   0  0  0  0  0  0  0  0  0  0  0  0
   59.9580   35.0460   46.3530 N   0  0  0  0  0  0  0  0  0  0  0  0
   58.9700   34.5890   45.5400 C   0  0  0  0  0  0  0  0  0  0  0  0
   58.9110   29.3260   45.8000 C   0  0  0  0  0  0  0  0  0  0  0  0
   59.4010   28.0810   46.2080 C   0  0  0  0  0  0  0  0  0  0  0  0
   57.3930   23.3700   44.1390 C   0  0  0  0  0  0  0  0  0  0  0  0
   56.0800   23.2100   43.7200 C   0  0  0  0  0  0  0  0  0  0  0  0
   55.8440   22.4780   42.7190 O   0  0  0  0  0  0  0  0  0  0  0  0
   55.0650   23.8470   44.3780 N   0  0  0  0  0  0  0  0  0  0  0  0
   53.6770   23.7090   43.9020 C   0  0  0  0  0  0  0  0  0  0  0  0
   55.3480   24.6760   45.4360 C   0  0  0  0  0  0  0  0  0  0  0  0
   54.4120   25.3180   45.9920 O   0  0  0  0  0  0  0  0  0  0  0  0
   56.7221   25.0774   47.9892 H   0  0  0  0  0  0  0  0  0  0  0  0
   57.9553   25.9919   47.0566 H   0  0  0  0  0  0  0  0  0  0  0  0
   56.2434   26.5361   47.0566 H   0  0  0  0  0  0  0  0  0  0  0  0
   58.1256   26.1375   43.7042 H   0  0  0  0  0  0  0  0  0  0  0  0
   57.2357   28.3483   42.9810 H   0  0  0  0  0  0  0  0  0  0  0  0
   57.2184   33.3789   44.0504 H   0  0  0  0  0  0  0  0  0  0  0  0
   56.0361   33.4814   45.4068 H   0  0  0  0  0  0  0  0  0  0  0  0
   57.5729   32.3047   47.6613 H   0  0  0  0  0  0  0  0  0  0  0  0
   59.4041   33.1834   49.1230 H   0  0  0  0  0  0  0  0  0  0  0  0
   60.9328   34.9585   48.2501 H   0  0  0  0  0  0  0  0  0  0  0  0
   58.8634   34.9971   44.5241 H   0  0  0  0  0  0  0  0  0  0  0  0
   59.1435   30.2246   46.3904 H   0  0  0  0  0  0  0  0  0  0  0  0
   60.0274   28.0093   47.1093 H   0  0  0  0  0  0  0  0  0  0  0  0
   58.2095   22.8550   43.6116 H   0  0  0  0  0  0  0  0  0  0  0  0
   52.9984   23.6415   44.7651 H   0  0  0  0  0  0  0  0  0  0  0  0
   53.4095   24.5850   43.2928 H   0  0  0  0  0  0  0  0  0  0  0  0
   53.5872   22.7975   43.2928 H   0  0  0  0  0  0  0  0  0  0  0  0
  1  2  1  0
  2  3  1  0
  3  4  1  0
  4  5  2  0
  4  6  1  0
  6  7  1  0
  7  8  2  0
  8  9  1  0
  9 10  2  0
 10 11  1  0
 11 12  2  0
 11 13  1  0
 13 14  1  0
 14 15  1  0
 15 16  2  0
 16 17  1  0
 17 18  2  0
 18 19  1  0
 19 20  2  0
 10 21  1  0
 21 22  2  0
  3 23  2  0
 23 24  1  0
 24 25  2  0
 24 26  1  0
 26 27  1  0
 26 28  1  0
 28 29  2  0
 28  2  1  0
 22  7  1  0
 20 15  1  0
  1 30  1  0
  1 31  1  0
  1 32  1  0
  8 33  1  0
  9 34  1  0
 14 35  1  0
 14 36  1  0
 16 37  1  0
 17 38  1  0
 18 39  1  0
 20 40  1  0
 21 41  1  0
 22 42  1  0
 23 43  1  0
 27 44  1  0
 27 45  1  0
 27 46  1  0
M  CHG  2   6  -1  13  -1
M  END
>  <UniqueID>  (75) 
70

>  <SMILES>  (75) 
Cn1c(C(=O)[N-]c2ccc(C(=O)[N-]Cc3cccnc3)cc2)cc(=O)n(C)c1=O

>  <Energy>  (75) 
64.53482786670375

>  <Genealogy>  (75) 
Cn1c(C(=O)[N-]c2ccc(C(=O)[N-]Cc3cccnc3)cc2)cc(=O)n(C)c1=O (protonated)
Cn1c(C(=O)[N-]c2ccc(C(=O)[N-]Cc3cccnc3)cc2)cc(=O)n(C)c1=O (3D coordinates assigned)
Cn1c(C(=O)[N-]c2ccc(C(=O)[N-]Cc3cccnc3)cc2)cc(=O)n(C)c1=O (optimized conformer: 64.53482786670375 kcal/mol)

>  <smiles>  (75) 
Cn1c(C(=O)Nc2ccc(C(=O)NCc3cccnc3)cc2)cc(=O)n(C)c1=O

>  <score_type>  (75) 
oracle

>  <origin>  (75) 
adg

>  <m_score__min__energy>  (75) 
-12.09

>  <m_primary>  (75) 
energy

$$$$
75:0
     RDKit          3D

 36 38  0  0  0  0  0  0  0  0999 V2000
   58.8760   24.2460   45.4050 O   0  0  0  0  0  0  0  0  0  0  0  0
   57.9990   24.1990   46.3070 C   0  0  0  0  0  0  0  0  0  0  0  0
   57.6220   22.9210   46.8390 N   0  0  0  0  0  0  0  0  0  0  0  0
   56.6920   22.6500   47.7120 C   0  0  0  0  0  0  0  0  0  0  0  0
   55.3500   23.0600   47.5570 C   0  0  0  0  0  0  0  0  0  0  0  0
   54.4110   22.7200   48.5320 C   0  0  0  0  0  0  0  0  0  0  0  0
   54.7980   21.9710   49.6430 C   0  0  0  0  0  0  0  0  0  0  0  0
   56.1260   21.5610   49.7580 C   0  0  0  0  0  0  0  0  0  0  0  0
   57.0280   21.9030   48.7990 N   0  0  0  0  0  0  0  0  0  0  0  0
   57.5050   25.4100   46.8920 N   0  0  0  0  0  0  0  0  0  0  0  0
   57.5080   26.7000   46.2640 C   0  0  0  0  0  0  0  0  0  0  0  0
   58.7230   27.3860   46.1550 C   0  0  0  0  0  0  0  0  0  0  0  0
   58.7740   28.6480   45.5600 C   0  0  0  0  0  0  0  0  0  0  0  0
   57.6040   29.2580   45.0740 C   0  0  0  0  0  0  0  0  0  0  0  0
   57.6580   30.5980   44.4360 C   0  0  0  0  0  0  0  0  0  0  0  0
   57.4250   30.7450   43.0580 C   0  0  0  0  0  0  0  0  0  0  0  0
   57.4830   32.0140   42.4790 C   0  0  0  0  0  0  0  0  0  0  0  0
   57.7590   33.1020   43.2440 N   0  0  0  0  0  0  0  0  0  0  0  0
   57.9900   32.9970   44.5830 C   0  0  0  0  0  0  0  0  0  0  0  0
   58.2780   34.1580   45.3700 N   0  0  0  0  0  0  0  0  0  0  0  0
   59.2200   34.1860   46.2260 C   0  0  0  0  0  0  0  0  0  0  0  0
   60.4130   34.2220   47.3080 S   0  0  0  0  0  0  0  0  0  0  0  0
   57.9440   31.7430   45.2000 C   0  0  0  0  0  0  0  0  0  0  0  0
   56.3800   28.5810   45.2140 C   0  0  0  0  0  0  0  0  0  0  0  0
   56.3250   27.3200   45.8180 C   0  0  0  0  0  0  0  0  0  0  0  0
   55.0870   26.7130   46.0010 O   0  0  0  0  0  0  0  0  0  0  0  0
   55.0468   23.6428   46.6747 H   0  0  0  0  0  0  0  0  0  0  0  0
   53.3650   23.0430   48.4241 H   0  0  0  0  0  0  0  0  0  0  0  0
   54.0647   21.7068   50.4192 H   0  0  0  0  0  0  0  0  0  0  0  0
   56.4438   20.9614   50.6237 H   0  0  0  0  0  0  0  0  0  0  0  0
   59.6452   26.9272   46.5412 H   0  0  0  0  0  0  0  0  0  0  0  0
   59.7382   29.1698   45.4706 H   0  0  0  0  0  0  0  0  0  0  0  0
   57.1981   29.8647   42.4387 H   0  0  0  0  0  0  0  0  0  0  0  0
   57.3047   32.1332   41.4001 H   0  0  0  0  0  0  0  0  0  0  0  0
   58.1311   31.6527   46.2802 H   0  0  0  0  0  0  0  0  0  0  0  0
   55.4550   29.0478   44.8446 H   0  0  0  0  0  0  0  0  0  0  0  0
  1  2  2  0
  2  3  1  0
  3  4  2  3
  4  5  1  0
  5  6  2  0
  6  7  1  0
  7  8  2  0
  8  9  1  0
  2 10  1  0
 10 11  1  0
 11 12  2  0
 12 13  1  0
 13 14  2  0
 14 15  1  0
 15 16  2  0
 16 17  1  0
 17 18  2  0
 18 19  1  0
 19 20  1  0
 20 21  2  0
 21 22  2  0
 19 23  2  0
 14 24  1  0
 24 25  2  0
 25 26  1  0
  9  4  1  0
 25 11  1  0
 23 15  1  0
  5 27  1  0
  6 28  1  0
  7 29  1  0
  8 30  1  0
 12 31  1  0
 13 32  1  0
 16 33  1  0
 17 34  1  0
 23 35  1  0
 24 36  1  0
M  CHG  3   9  -1  10  -1  26  -1
M  END
>  <UniqueID>  (76) 
71

>  <SMILES>  (76) 
O=C(N=c1cccc[n-]1)[N-]c1ccc(-c2ccnc(N=C=S)c2)cc1[O-]

>  <Energy>  (76) 
58.33886168006273

>  <Genealogy>  (76) 
O=C(N=c1cccc[n-]1)[N-]c1ccc(-c2ccnc(N=C=S)c2)cc1[O-] (protonated)
O=C(N=c1cccc[n-]1)[N-]c1ccc(-c2ccnc(N=C=S)c2)cc1[O-] (3D coordinates assigned)
O=C(N=c1cccc[n-]1)[N-]c1ccc(-c2ccnc(N=C=S)c2)cc1[O-] (optimized conformer: 58.33886168006273 kcal/mol)

>  <smiles>  (76) 
O=C(N=c1cccc[nH]1)Nc1ccc(-c2ccnc(N=C=S)c2)cc1O

>  <score_type>  (76) 
oracle

>  <origin>  (76) 
adg

>  <m_score__min__energy>  (76) 
-14.140000000000001

>  <m_primary>  (76) 
energy

$$$$
76:0
     RDKit          3D

 58 60  0  0  0  0  0  0  0  0999 V2000
   63.3820   33.8620   46.4160 C   0  0  0  0  0  0  0  0  0  0  0  0
   63.7420   32.7930   47.4510 C   0  0  0  0  0  0  0  0  0  0  0  0
   62.8670   32.7950   48.6440 N   0  0  0  0  0  0  0  0  0  0  0  0
   62.4690   34.1330   49.1360 C   0  0  0  0  0  0  0  0  0  0  0  0
   60.9590   34.3880   49.0300 C   0  0  0  0  0  0  0  0  0  0  0  0
   60.4350   33.7160   47.8310 N   0  0  0  0  0  0  0  0  0  0  0  0
   59.0620   34.1570   47.5140 C   0  0  0  0  0  0  0  0  0  0  0  0
   58.5820   33.5140   46.2380 C   0  0  0  0  0  0  0  0  0  0  0  0
   58.8890   34.0830   44.9950 C   0  0  0  0  0  0  0  0  0  0  0  0
   58.4990   33.4490   43.8140 C   0  0  0  0  0  0  0  0  0  0  0  0
   57.8060   32.2290   43.8550 C   0  0  0  0  0  0  0  0  0  0  0  0
   57.4000   31.5800   42.5590 C   0  0  0  0  0  0  0  0  0  0  0  0
   57.5300   31.6330   45.1070 C   0  0  0  0  0  0  0  0  0  0  0  0
   56.9250   30.3350   45.2110 N   0  0  0  0  0  0  0  0  0  0  0  0
   57.5660   29.1900   45.7930 C   0  0  0  0  0  0  0  0  0  0  0  0
   58.2220   29.3410   46.8570 O   0  0  0  0  0  0  0  0  0  0  0  0
   57.4890   27.8480   45.1690 C   0  0  0  0  0  0  0  0  0  0  0  0
   57.9260   27.6590   43.8480 C   0  0  0  0  0  0  0  0  0  0  0  0
   57.8790   26.3880   43.2640 C   0  0  0  0  0  0  0  0  0  0  0  0
   57.3910   25.2910   43.9840 C   0  0  0  0  0  0  0  0  0  0  0  0
   57.3820   24.0020   43.3550 N   0  0  0  0  0  0  0  0  0  0  0  0
   56.3220   22.6900   43.7610 S   0  0  0  0  0  0  0  0  0  0  0  0
   56.9890   21.7590   45.1260 C   0  0  0  0  0  0  0  0  0  0  0  0
   56.2010   21.7810   42.5720 O   0  0  0  0  0  0  0  0  0  0  0  0
   54.9580   23.2210   44.1060 O   0  0  0  0  0  0  0  0  0  0  0  0
   56.9210   25.4870   45.2930 C   0  0  0  0  0  0  0  0  0  0  0  0
   56.9640   26.7540   45.8760 C   0  0  0  0  0  0  0  0  0  0  0  0
   57.8780   32.3030   46.2870 C   0  0  0  0  0  0  0  0  0  0  0  0
   60.4740   32.2530   48.0180 C   0  0  0  0  0  0  0  0  0  0  0  0
   61.8010   31.7690   48.6480 C   0  0  0  0  0  0  0  0  0  0  0  0
   63.0720   34.7825   46.9323 H   0  0  0  0  0  0  0  0  0  0  0  0
   64.2588   34.0724   45.7860 H   0  0  0  0  0  0  0  0  0  0  0  0
   62.5565   33.4992   45.7860 H   0  0  0  0  0  0  0  0  0  0  0  0
   63.6692   31.8065   46.9697 H   0  0  0  0  0  0  0  0  0  0  0  0
   64.7602   33.0178   47.8014 H   0  0  0  0  0  0  0  0  0  0  0  0
   62.7657   34.2205   50.1916 H   0  0  0  0  0  0  0  0  0  0  0  0
   62.9731   34.8787   48.5037 H   0  0  0  0  0  0  0  0  0  0  0  0
   60.4557   33.9903   49.9236 H   0  0  0  0  0  0  0  0  0  0  0  0
   60.7724   35.4696   48.9572 H   0  0  0  0  0  0  0  0  0  0  0  0
   58.3910   33.8718   48.3377 H   0  0  0  0  0  0  0  0  0  0  0  0
   59.0604   35.2493   47.3842 H   0  0  0  0  0  0  0  0  0  0  0  0
   59.4400   35.0339   44.9495 H   0  0  0  0  0  0  0  0  0  0  0  0
   58.7367   33.9092   42.8435 H   0  0  0  0  0  0  0  0  0  0  0  0
   56.8275   30.6649   42.7707 H   0  0  0  0  0  0  0  0  0  0  0  0
   56.7765   32.2767   41.9796 H   0  0  0  0  0  0  0  0  0  0  0  0
   58.2993   31.3241   41.9796 H   0  0  0  0  0  0  0  0  0  0  0  0
   58.3069   28.5136   43.2697 H   0  0  0  0  0  0  0  0  0  0  0  0
   58.2286   26.2498   42.2302 H   0  0  0  0  0  0  0  0  0  0  0  0
   56.6636   22.2133   46.0735 H   0  0  0  0  0  0  0  0  0  0  0  0
   56.6275   20.7214   45.0736 H   0  0  0  0  0  0  0  0  0  0  0  0
   58.0877   21.7676   45.0736 H   0  0  0  0  0  0  0  0  0  0  0  0
   56.5167   24.6368   45.8619 H   0  0  0  0  0  0  0  0  0  0  0  0
   56.5834   26.8971   46.8981 H   0  0  0  0  0  0  0  0  0  0  0  0
   57.5963   31.8750   47.2604 H   0  0  0  0  0  0  0  0  0  0  0  0
   59.6436   31.9598   48.6771 H   0  0  0  0  0  0  0  0  0  0  0  0
   60.3875   31.7878   47.0250 H   0  0  0  0  0  0  0  0  0  0  0  0
   61.6047   31.4754   49.6898 H   0  0  0  0  0  0  0  0  0  0  0  0
   62.1604   30.9278   48.0371 H   0  0  0  0  0  0  0  0  0  0  0  0
  1  2  1  0
  2  3  1  0
  3  4  1  0
  4  5  1  0
  5  6  1  0
  6  7  1  0
  7  8  1  0
  8  9  2  0
  9 10  1  0
 10 11  2  0
 11 12  1  0
 11 13  1  0
 13 14  1  0
 14 15  1  0
 15 16  2  0
 15 17  1  0
 17 18  2  0
 18 19  1  0
 19 20  2  0
 20 21  1  0
 21 22  1  0
 22 23  1  0
 22 24  2  0
 22 25  2  0
 20 26  1  0
 26 27  2  0
 13 28  2  0
  6 29  1  0
 29 30  1  0
 30  3  1  0
 28  8  1  0
 27 17  1  0
  1 31  1  0
  1 32  1  0
  1 33  1  0
  2 34  1  0
  2 35  1  0
  4 36  1  0
  4 37  1  0
  5 38  1  0
  5 39  1  0
  7 40  1  0
  7 41  1  0
  9 42  1  0
 10 43  1  0
 12 44  1  0
 12 45  1  0
 12 46  1  0
 18 47  1  0
 19 48  1  0
 23 49  1  0
 23 50  1  0
 23 51  1  0
 26 52  1  0
 27 53  1  0
 28 54  1  0
 29 55  1  0
 29 56  1  0
 30 57  1  0
 30 58  1  0
M  CHG  2  14  -1  21  -1
M  END
>  <UniqueID>  (77) 
72

>  <SMILES>  (77) 
CCN1CCN(Cc2ccc(C)c([N-]C(=O)c3ccc([N-]S(C)(=O)=O)cc3)c2)CC1

>  <Energy>  (77) 
77.14231434832901

>  <Genealogy>  (77) 
CCN1CCN(Cc2ccc(C)c([N-]C(=O)c3ccc([N-]S(C)(=O)=O)cc3)c2)CC1 (protonated)
CCN1CCN(Cc2ccc(C)c([N-]C(=O)c3ccc([N-]S(C)(=O)=O)cc3)c2)CC1 (3D coordinates assigned)
CCN1CCN(Cc2ccc(C)c([N-]C(=O)c3ccc([N-]S(C)(=O)=O)cc3)c2)CC1 (nonaromatic ring conformer: 77.14231434832901 kcal/mol)

>  <smiles>  (77) 
CCN1CCN(Cc2ccc(C)c(NC(=O)c3ccc(NS(C)(=O)=O)cc3)c2)CC1

>  <score_type>  (77) 
oracle

>  <origin>  (77) 
adg

>  <m_score__min__energy>  (77) 
-11.81

>  <m_primary>  (77) 
energy

$$$$
77:0
     RDKit          3D

 38 40  0  0  0  0  0  0  0  0999 V2000
   51.7180   22.6040   46.2610 C   0  0  0  0  0  0  0  0  0  0  0  0
   52.7400   22.5520   45.2720 O   0  0  0  0  0  0  0  0  0  0  0  0
   53.9330   23.2910   45.3230 C   0  0  0  0  0  0  0  0  0  0  0  0
   53.9500   24.6710   45.6030 C   0  0  0  0  0  0  0  0  0  0  0  0
   55.1610   25.3710   45.6430 C   0  0  0  0  0  0  0  0  0  0  0  0
   55.1540   26.7280   45.9510 O   0  0  0  0  0  0  0  0  0  0  0  0
   56.3700   24.7030   45.3800 C   0  0  0  0  0  0  0  0  0  0  0  0
   57.6640   25.4080   45.4480 C   0  0  0  0  0  0  0  0  0  0  0  0
   57.8300   26.7410   45.3040 C   0  0  0  0  0  0  0  0  0  0  0  0
   57.8830   27.6160   46.4910 C   0  0  0  0  0  0  0  0  0  0  0  0
   57.8360   27.1370   47.6570 O   0  0  0  0  0  0  0  0  0  0  0  0
   57.9840   29.0300   46.3150 N   0  0  0  0  0  0  0  0  0  0  0  0
   58.0320   29.6200   45.0040 C   0  0  0  0  0  0  0  0  0  0  0  0
   58.0810   31.0980   44.8740 C   0  0  0  0  0  0  0  0  0  0  0  0
   58.0950   31.6970   43.6010 C   0  0  0  0  0  0  0  0  0  0  0  0
   58.1360   33.0880   43.4730 C   0  0  0  0  0  0  0  0  0  0  0  0
   58.1600   33.8970   44.6120 C   0  0  0  0  0  0  0  0  0  0  0  0
   58.1420   33.3130   45.8810 C   0  0  0  0  0  0  0  0  0  0  0  0
   58.1020   31.9220   46.0150 C   0  0  0  0  0  0  0  0  0  0  0  0
   58.0370   28.8640   43.9370 N   0  0  0  0  0  0  0  0  0  0  0  0
   57.9960   27.4290   43.9980 C   0  0  0  0  0  0  0  0  0  0  0  0
   58.1410   26.7750   42.9300 O   0  0  0  0  0  0  0  0  0  0  0  0
   56.3540   23.3250   45.1290 C   0  0  0  0  0  0  0  0  0  0  0  0
   55.1440   22.6260   45.0920 C   0  0  0  0  0  0  0  0  0  0  0  0
   55.1480   21.2610   44.8240 O   0  0  0  0  0  0  0  0  0  0  0  0
   52.1745   22.5808   47.2615 H   0  0  0  0  0  0  0  0  0  0  0  0
   51.1404   23.5327   46.1429 H   0  0  0  0  0  0  0  0  0  0  0  0
   51.0491   21.7387   46.1429 H   0  0  0  0  0  0  0  0  0  0  0  0
   53.0053   25.2021   45.7915 H   0  0  0  0  0  0  0  0  0  0  0  0
   58.5634   24.8014   45.6301 H   0  0  0  0  0  0  0  0  0  0  0  0
   58.0520   29.6370   47.1620 H   0  0  0  0  0  0  0  0  0  0  0  0
   58.0735   31.0660   42.7002 H   0  0  0  0  0  0  0  0  0  0  0  0
   58.1494   33.5470   42.4734 H   0  0  0  0  0  0  0  0  0  0  0  0
   58.1930   34.9917   44.5097 H   0  0  0  0  0  0  0  0  0  0  0  0
   58.1594   33.9498   46.7778 H   0  0  0  0  0  0  0  0  0  0  0  0
   58.0869   31.4691   47.0173 H   0  0  0  0  0  0  0  0  0  0  0  0
   58.0590   29.3000   42.9880 H   0  0  0  0  0  0  0  0  0  0  0  0
   57.2998   22.7894   44.9599 H   0  0  0  0  0  0  0  0  0  0  0  0
  1  2  1  0
  2  3  1  0
  3  4  2  0
  4  5  1  0
  5  6  1  0
  5  7  2  0
  7  8  1  0
  8  9  2  3
  9 10  1  0
 10 11  2  0
 10 12  1  0
 12 13  1  0
 13 14  1  0
 14 15  2  0
 15 16  1  0
 16 17  2  0
 17 18  1  0
 18 19  2  0
 13 20  2  0
 20 21  1  0
 21 22  2  0
  7 23  1  0
 23 24  2  0
 24 25  1  0
 24  3  1  0
 21  9  1  0
 19 14  1  0
  1 26  1  0
  1 27  1  0
  1 28  1  0
  4 29  1  0
  8 30  1  0
 12 31  1  0
 15 32  1  0
 16 33  1  0
 17 34  1  0
 18 35  1  0
 19 36  1  0
 20 37  1  0
 23 38  1  0
M  CHG  3   6  -1  20   1  25  -1
M  END
>  <UniqueID>  (78) 
73

>  <SMILES>  (78) 
COc1cc([O-])c(C=C2C(=O)NC(c3ccccc3)=[NH+]C2=O)cc1[O-]

>  <Energy>  (78) 
54.6248092980799

>  <Genealogy>  (78) 
COc1cc([O-])c(C=C2C(=O)NC(c3ccccc3)=[NH+]C2=O)cc1[O-] (protonated)
COc1cc([O-])c(C=C2C(=O)NC(c3ccccc3)=[NH+]C2=O)cc1[O-] (3D coordinates assigned)
COc1cc([O-])c(C=C2C(=O)NC(c3ccccc3)=[NH+]C2=O)cc1[O-] (nonaromatic ring conformer: 54.6248092980799 kcal/mol)

>  <smiles>  (78) 
COc1cc(O)c(C=C2C(=O)N=C(c3ccccc3)NC2=O)cc1O

>  <score_type>  (78) 
oracle

>  <origin>  (78) 
adg

>  <m_score__min__energy>  (78) 
-12.25

>  <m_primary>  (78) 
energy

$$$$
78:0
     RDKit          3D

 41 42  0  0  0  0  0  0  0  0999 V2000
   56.4230   22.6370   42.9140 C   0  0  0  0  0  0  0  0  0  0  0  0
   56.9710   21.3760   43.5830 C   0  0  0  0  0  0  0  0  0  0  0  0
   58.2120   21.6520   44.4440 C   0  0  0  0  0  0  0  0  0  0  0  0
   57.8590   22.0130   45.8940 C   0  0  0  0  0  0  0  0  0  0  0  0
   57.0710   23.2610   45.9310 N   0  0  0  0  0  0  0  0  0  0  0  0
   55.7460   23.2300   46.2930 C   0  0  0  0  0  0  0  0  0  0  0  0
   55.1880   22.1460   46.6090 O   0  0  0  0  0  0  0  0  0  0  0  0
   55.0170   24.3750   46.3200 N   0  0  0  0  0  0  0  0  0  0  0  0
   55.5540   25.5680   45.9720 C   0  0  0  0  0  0  0  0  0  0  0  0
   54.7730   26.7150   46.0600 O   0  0  0  0  0  0  0  0  0  0  0  0
   56.8870   25.6340   45.5480 C   0  0  0  0  0  0  0  0  0  0  0  0
   57.5140   26.9230   45.1660 C   0  0  0  0  0  0  0  0  0  0  0  0
   57.8870   27.8670   46.0500 C   0  0  0  0  0  0  0  0  0  0  0  0
   58.7000   27.5310   47.1980 C   0  0  0  0  0  0  0  0  0  0  0  0
   59.3500   27.2620   48.1170 N   0  0  0  0  0  0  0  0  0  0  0  0
   57.3880   29.2580   45.9150 C   0  0  0  0  0  0  0  0  0  0  0  0
   56.3560   29.4890   45.2290 O   0  0  0  0  0  0  0  0  0  0  0  0
   58.0090   30.3530   46.6030 N   0  0  0  0  0  0  0  0  0  0  0  0
   58.1750   31.6850   46.0950 C   0  0  0  0  0  0  0  0  0  0  0  0
   58.5300   32.7560   46.9350 C   0  0  0  0  0  0  0  0  0  0  0  0
   58.7010   34.0390   46.4060 C   0  0  0  0  0  0  0  0  0  0  0  0
   58.5360   34.2580   45.0340 C   0  0  0  0  0  0  0  0  0  0  0  0
   58.7040   35.5020   44.5220 F   0  0  0  0  0  0  0  0  0  0  0  0
   58.2080   33.1920   44.1910 C   0  0  0  0  0  0  0  0  0  0  0  0
   58.0360   31.9080   44.7190 C   0  0  0  0  0  0  0  0  0  0  0  0
   57.6430   24.4500   45.5510 C   0  0  0  0  0  0  0  0  0  0  0  0
   58.8520   24.4880   45.1860 O   0  0  0  0  0  0  0  0  0  0  0  0
   56.1107   23.3555   43.6861 H   0  0  0  0  0  0  0  0  0  0  0  0
   57.2057   23.0893   42.2873 H   0  0  0  0  0  0  0  0  0  0  0  0
   55.5583   22.3733   42.2873 H   0  0  0  0  0  0  0  0  0  0  0  0
   56.1860   20.9487   44.2243 H   0  0  0  0  0  0  0  0  0  0  0  0
   57.2690   20.6800   42.7850 H   0  0  0  0  0  0  0  0  0  0  0  0
   58.8439   20.7516   44.4494 H   0  0  0  0  0  0  0  0  0  0  0  0
   58.7358   22.5140   44.0051 H   0  0  0  0  0  0  0  0  0  0  0  0
   57.2693   21.1976   46.3383 H   0  0  0  0  0  0  0  0  0  0  0  0
   58.7883   22.1581   46.4643 H   0  0  0  0  0  0  0  0  0  0  0  0
   57.6842   27.1189   44.0971 H   0  0  0  0  0  0  0  0  0  0  0  0
   58.6736   32.5836   48.0119 H   0  0  0  0  0  0  0  0  0  0  0  0
   58.9653   34.8763   47.0686 H   0  0  0  0  0  0  0  0  0  0  0  0
   58.0850   33.3631   43.1114 H   0  0  0  0  0  0  0  0  0  0  0  0
   57.7905   31.0696   44.0506 H   0  0  0  0  0  0  0  0  0  0  0  0
  1  2  1  0
  2  3  1  0
  3  4  1  0
  4  5  1  0
  5  6  1  0
  6  7  2  0
  6  8  1  0
  8  9  1  0
  9 10  1  0
  9 11  2  0
 11 12  1  0
 12 13  2  3
 13 14  1  0
 14 15  3  0
 13 16  1  0
 16 17  2  0
 16 18  1  0
 18 19  1  0
 19 20  2  0
 20 21  1  0
 21 22  2  0
 22 23  1  0
 22 24  1  0
 24 25  2  0
 11 26  1  0
 26 27  2  0
 26  5  1  0
 25 19  1  0
  1 28  1  0
  1 29  1  0
  1 30  1  0
  2 31  1  0
  2 32  1  0
  3 33  1  0
  3 34  1  0
  4 35  1  0
  4 36  1  0
 12 37  1  0
 20 38  1  0
 21 39  1  0
 24 40  1  0
 25 41  1  0
M  CHG  3   8  -1  10  -1  18  -1
M  END
>  <UniqueID>  (79) 
74

>  <SMILES>  (79) 
CCCCn1c(=O)[n-]c([O-])c(C=C(C#N)C(=O)[N-]c2ccc(F)cc2)c1=O

>  <Energy>  (79) 
53.39717239704004

>  <Genealogy>  (79) 
CCCCn1c(=O)[n-]c([O-])c(C=C(C#N)C(=O)[N-]c2ccc(F)cc2)c1=O (protonated)
CCCCn1c(=O)[n-]c([O-])c(C=C(C#N)C(=O)[N-]c2ccc(F)cc2)c1=O (3D coordinates assigned)
CCCCn1c(=O)[n-]c([O-])c(C=C(C#N)C(=O)[N-]c2ccc(F)cc2)c1=O (optimized conformer: 53.39717239704004 kcal/mol)

>  <smiles>  (79) 
CCCCn1c(=O)[nH]c(O)c(C=C(C#N)C(=O)Nc2ccc(F)cc2)c1=O

>  <score_type>  (79) 
oracle

>  <origin>  (79) 
adg

>  <m_score__min__energy>  (79) 
-14.59

>  <m_primary>  (79) 
energy

$$$$
79:0
     RDKit          3D

 64 68  0  0  0  0  0  0  0  0999 V2000
   58.8460   34.6050   46.3510 C   0  0  0  0  0  0  0  0  0  0  0  0
   59.9170   33.6270   46.3320 N   0  0  0  0  0  0  0  0  0  0  0  0
   61.2660   34.0850   46.4820 C   0  0  0  0  0  0  0  0  0  0  0  0
   61.8270   33.7140   47.8280 C   0  0  0  0  0  0  0  0  0  0  0  0
   61.0730   33.7260   48.9410 N   0  0  0  0  0  0  0  0  0  0  0  0
   61.5640   33.3970   50.1540 C   0  0  0  0  0  0  0  0  0  0  0  0
   60.6660   33.4320   51.3480 C   0  0  0  0  0  0  0  0  0  0  0  0
   59.2640   33.8390   51.2180 C   0  0  0  0  0  0  0  0  0  0  0  0
   59.5120   32.3800   51.3070 C   0  0  0  0  0  0  0  0  0  0  0  0
   62.8580   33.0420   50.2480 N   0  0  0  0  0  0  0  0  0  0  0  0
   63.6770   33.0050   49.1750 C   0  0  0  0  0  0  0  0  0  0  0  0
   64.8910   32.6640   49.3160 O   0  0  0  0  0  0  0  0  0  0  0  0
   63.1730   33.3430   47.9360 C   0  0  0  0  0  0  0  0  0  0  0  0
   63.9810   33.3220   46.7910 O   0  0  0  0  0  0  0  0  0  0  0  0
   59.5390   32.2670   46.1620 C   0  0  0  0  0  0  0  0  0  0  0  0
   58.4740   31.9610   45.3390 C   0  0  0  0  0  0  0  0  0  0  0  0
   58.0610   30.6380   45.1390 C   0  0  0  0  0  0  0  0  0  0  0  0
   58.6960   29.5800   45.7540 C   0  0  0  0  0  0  0  0  0  0  0  0
   58.3270   28.2270   45.5950 N   0  0  0  0  0  0  0  0  0  0  0  0
   57.0120   27.7630   45.2310 C   0  0  0  0  0  0  0  0  0  0  0  0
   56.5410   26.5650   46.0200 C   0  0  0  0  0  0  0  0  0  0  0  0
   57.6150   25.6650   46.2350 N   0  0  0  0  0  0  0  0  0  0  0  0
   57.2790   24.2930   46.4310 C   0  0  0  0  0  0  0  0  0  0  0  0
   57.1340   23.4870   45.2160 C   0  0  0  0  0  0  0  0  0  0  0  0
   56.2990   23.7910   44.1610 C   0  0  0  0  0  0  0  0  0  0  0  0
   56.2340   22.9560   43.0410 C   0  0  0  0  0  0  0  0  0  0  0  0
   57.0190   21.8130   42.9940 C   0  0  0  0  0  0  0  0  0  0  0  0
   57.8610   21.4900   44.0380 C   0  0  0  0  0  0  0  0  0  0  0  0
   57.9100   22.3240   45.1330 C   0  0  0  0  0  0  0  0  0  0  0  0
   58.7480   25.8830   45.3940 C   0  0  0  0  0  0  0  0  0  0  0  0
   59.3510   27.2080   45.8080 C   0  0  0  0  0  0  0  0  0  0  0  0
   59.7660   29.9130   46.5790 C   0  0  0  0  0  0  0  0  0  0  0  0
   60.1750   31.2130   46.7780 C   0  0  0  0  0  0  0  0  0  0  0  0
   58.5853   34.8431   47.3928 H   0  0  0  0  0  0  0  0  0  0  0  0
   59.1759   35.5200   45.8373 H   0  0  0  0  0  0  0  0  0  0  0  0
   57.9646   34.1936   45.8373 H   0  0  0  0  0  0  0  0  0  0  0  0
   61.8878   33.6291   45.6974 H   0  0  0  0  0  0  0  0  0  0  0  0
   61.2701   35.1817   46.3964 H   0  0  0  0  0  0  0  0  0  0  0  0
   60.0710   34.0120   48.8100 H   0  0  0  0  0  0  0  0  0  0  0  0
   61.4760   33.7423   52.0244 H   0  0  0  0  0  0  0  0  0  0  0  0
   58.7726   34.3540   52.0567 H   0  0  0  0  0  0  0  0  0  0  0  0
   58.7262   34.4692   50.4944 H   0  0  0  0  0  0  0  0  0  0  0  0
   59.2345   31.8223   52.2136 H   0  0  0  0  0  0  0  0  0  0  0  0
   59.2668   31.4962   50.6998 H   0  0  0  0  0  0  0  0  0  0  0  0
   64.9030   32.9460   46.7450 H   0  0  0  0  0  0  0  0  0  0  0  0
   57.9377   32.7746   44.8288 H   0  0  0  0  0  0  0  0  0  0  0  0
   57.2079   30.4377   44.4741 H   0  0  0  0  0  0  0  0  0  0  0  0
   56.2988   28.5848   45.3920 H   0  0  0  0  0  0  0  0  0  0  0  0
   57.0667   27.4482   44.1784 H   0  0  0  0  0  0  0  0  0  0  0  0
   56.1492   26.9013   46.9913 H   0  0  0  0  0  0  0  0  0  0  0  0
   55.7510   26.0508   45.4529 H   0  0  0  0  0  0  0  0  0  0  0  0
   58.0699   23.8372   47.0447 H   0  0  0  0  0  0  0  0  0  0  0  0
   56.2864   24.2957   46.9051 H   0  0  0  0  0  0  0  0  0  0  0  0
   55.6786   24.6985   44.2010 H   0  0  0  0  0  0  0  0  0  0  0  0
   55.5653   23.2037   42.2034 H   0  0  0  0  0  0  0  0  0  0  0  0
   56.9694   21.1560   42.1132 H   0  0  0  0  0  0  0  0  0  0  0  0
   58.4819   20.5829   43.9967 H   0  0  0  0  0  0  0  0  0  0  0  0
   58.5791   22.0688   45.9680 H   0  0  0  0  0  0  0  0  0  0  0  0
   59.4813   25.0744   45.5294 H   0  0  0  0  0  0  0  0  0  0  0  0
   58.4559   25.8963   44.3336 H   0  0  0  0  0  0  0  0  0  0  0  0
   59.6386   27.1772   46.8693 H   0  0  0  0  0  0  0  0  0  0  0  0
   60.2541   27.4295   45.2204 H   0  0  0  0  0  0  0  0  0  0  0  0
   60.3072   29.1051   47.0931 H   0  0  0  0  0  0  0  0  0  0  0  0
   61.0279   31.4132   47.4432 H   0  0  0  0  0  0  0  0  0  0  0  0
  1  2  1  0
  2  3  1  0
  3  4  1  0
  4  5  1  0
  5  6  1  0
  6  7  1  0
  7  8  1  0
  8  9  1  0
  6 10  2  0
 10 11  1  0
 11 12  2  0
 11 13  1  0
 13 14  1  0
  2 15  1  0
 15 16  2  0
 16 17  1  0
 17 18  2  0
 18 19  1  0
 19 20  1  0
 20 21  1  0
 21 22  1  0
 22 23  1  0
 23 24  1  0
 24 25  2  0
 25 26  1  0
 26 27  2  0
 27 28  1  0
 28 29  2  0
 22 30  1  0
 30 31  1  0
 18 32  1  0
 32 33  2  0
 13  4  2  0
 33 15  1  0
  9  7  1  0
 31 19  1  0
 29 24  1  0
  1 34  1  0
  1 35  1  0
  1 36  1  0
  3 37  1  0
  3 38  1  0
  5 39  1  0
  7 40  1  0
  8 41  1  0
  8 42  1  0
  9 43  1  0
  9 44  1  0
 14 45  1  0
 16 46  1  0
 17 47  1  0
 20 48  1  0
 20 49  1  0
 21 50  1  0
 21 51  1  0
 23 52  1  0
 23 53  1  0
 25 54  1  0
 26 55  1  0
 27 56  1  0
 28 57  1  0
 29 58  1  0
 30 59  1  0
 30 60  1  0
 31 61  1  0
 31 62  1  0
 32 63  1  0
 33 64  1  0
M  END
>  <smiles>  (80) 
CN(Cc1[nH]c(C2CC2)nc(=O)c1O)c1ccc(N2CCN(Cc3ccccc3)CC2)cc1

>  <score_type>  (80) 
oracle

>  <origin>  (80) 
adg

>  <m_score__min__energy>  (80) 
-9

>  <m_primary>  (80) 
energy

$$$$
80:0
     RDKit          3D

 58 61  0  0  0  0  0  0  0  0999 V2000
   54.9970   29.1410   52.9840 C   0  0  0  0  0  0  0  0  0  0  0  0
   55.9890   30.0730   52.3760 C   0  0  0  0  0  0  0  0  0  0  0  0
   55.8940   31.4150   52.4200 N   0  0  0  0  0  0  0  0  0  0  0  0
   56.9390   31.8810   51.7530 N   0  0  0  0  0  0  0  0  0  0  0  0
   57.6270   30.8040   51.3230 C   0  0  0  0  0  0  0  0  0  0  0  0
   58.8670   30.8560   50.5340 C   0  0  0  0  0  0  0  0  0  0  0  0
   59.2700   32.1280   49.5040 S   0  0  0  0  0  0  0  0  0  0  0  0
   60.7200   31.4210   49.0450 C   0  0  0  0  0  0  0  0  0  0  0  0
   61.5460   31.9580   48.2030 N   0  0  0  0  0  0  0  0  0  0  0  0
   61.2240   33.4470   47.3760 S   0  0  0  0  0  0  0  0  0  0  0  0
   61.1730   34.5830   48.3580 O   0  0  0  0  0  0  0  0  0  0  0  0
   62.3110   33.7000   46.3690 O   0  0  0  0  0  0  0  0  0  0  0  0
   59.6650   33.3180   46.5700 C   0  0  0  0  0  0  0  0  0  0  0  0
   58.6570   34.2430   46.8660 C   0  0  0  0  0  0  0  0  0  0  0  0
   57.4090   34.1470   46.2470 C   0  0  0  0  0  0  0  0  0  0  0  0
   57.1610   33.1280   45.3220 C   0  0  0  0  0  0  0  0  0  0  0  0
   58.1730   32.2050   45.0000 C   0  0  0  0  0  0  0  0  0  0  0  0
   57.9490   31.1240   44.0810 N   0  0  0  0  0  0  0  0  0  0  0  0
   56.7630   30.3280   43.9780 C   0  0  0  0  0  0  0  0  0  0  0  0
   55.6840   30.7130   44.5070 O   0  0  0  0  0  0  0  0  0  0  0  0
   56.8120   29.0770   43.2040 C   0  0  0  0  0  0  0  0  0  0  0  0
   57.7580   28.1490   43.3970 C   0  0  0  0  0  0  0  0  0  0  0  0
   58.5620   28.0840   44.6370 C   0  0  0  0  0  0  0  0  0  0  0  0
   59.9420   28.3270   44.5360 C   0  0  0  0  0  0  0  0  0  0  0  0
   60.7490   28.3290   45.6740 C   0  0  0  0  0  0  0  0  0  0  0  0
   60.1910   28.0710   46.9260 C   0  0  0  0  0  0  0  0  0  0  0  0
   58.8290   27.7970   47.0420 C   0  0  0  0  0  0  0  0  0  0  0  0
   57.9980   27.7910   45.9060 C   0  0  0  0  0  0  0  0  0  0  0  0
   56.6200   27.3980   46.0270 N   0  0  0  0  0  0  0  0  0  0  0  0
   56.1010   25.7410   45.9800 S   0  0  0  0  0  0  0  0  0  0  0  0
   56.9820   24.8710   44.7030 C   0  0  0  0  0  0  0  0  0  0  0  0
   56.3460   25.0860   47.3100 O   0  0  0  0  0  0  0  0  0  0  0  0
   54.6280   25.6990   45.6850 O   0  0  0  0  0  0  0  0  0  0  0  0
   59.4150   32.2940   45.6420 C   0  0  0  0  0  0  0  0  0  0  0  0
   60.9250   30.2300   49.6490 N   0  0  0  0  0  0  0  0  0  0  0  0
   59.8990   29.9070   50.4820 C   0  0  0  0  0  0  0  0  0  0  0  0
   59.9100   28.6280   51.2580 C   0  0  0  0  0  0  0  0  0  0  0  0
   57.0460   29.6900   51.7000 O   0  0  0  0  0  0  0  0  0  0  0  0
   55.0613   29.2014   54.0805 H   0  0  0  0  0  0  0  0  0  0  0  0
   53.9839   29.4215   52.6601 H   0  0  0  0  0  0  0  0  0  0  0  0
   55.2139   28.1124   52.6601 H   0  0  0  0  0  0  0  0  0  0  0  0
   58.8488   35.0491   47.5894 H   0  0  0  0  0  0  0  0  0  0  0  0
   56.6195   34.8743   46.4874 H   0  0  0  0  0  0  0  0  0  0  0  0
   56.1729   33.0479   44.8452 H   0  0  0  0  0  0  0  0  0  0  0  0
   56.0428   28.8976   42.4384 H   0  0  0  0  0  0  0  0  0  0  0  0
   57.9439   27.4085   42.6051 H   0  0  0  0  0  0  0  0  0  0  0  0
   60.3907   28.5176   43.5499 H   0  0  0  0  0  0  0  0  0  0  0  0
   61.8259   28.5342   45.5838 H   0  0  0  0  0  0  0  0  0  0  0  0
   60.8268   28.0837   47.8236 H   0  0  0  0  0  0  0  0  0  0  0  0
   58.3993   27.5832   48.0318 H   0  0  0  0  0  0  0  0  0  0  0  0
   55.8930   28.1170   46.2360 H   0  0  0  0  0  0  0  0  0  0  0  0
   57.6934   24.1685   45.1617 H   0  0  0  0  0  0  0  0  0  0  0  0
   56.2676   24.3142   44.0788 H   0  0  0  0  0  0  0  0  0  0  0  0
   57.5298   25.5923   44.0788 H   0  0  0  0  0  0  0  0  0  0  0  0
   60.1999   31.5567   45.4176 H   0  0  0  0  0  0  0  0  0  0  0  0
   59.9081   28.8525   52.3349 H   0  0  0  0  0  0  0  0  0  0  0  0
   59.0169   28.0378   51.0049 H   0  0  0  0  0  0  0  0  0  0  0  0
   60.8131   28.0533   51.0049 H   0  0  0  0  0  0  0  0  0  0  0  0
  1  2  1  0
  2  3  2  0
  3  4  1  0
  4  5  2  0
  5  6  1  0
  6  7  1  0
  7  8  1  0
  8  9  2  3
  9 10  1  0
 10 11  2  0
 10 12  2  0
 10 13  1  0
 13 14  2  0
 14 15  1  0
 15 16  2  0
 16 17  1  0
 17 18  1  0
 18 19  1  0
 19 20  2  0
 19 21  1  0
 21 22  2  3
 22 23  1  0
 23 24  2  0
 24 25  1  0
 25 26  2  0
 26 27  1  0
 27 28  2  0
 28 29  1  0
 29 30  1  0
 30 31  1  0
 30 32  2  0
 30 33  2  0
 17 34  2  0
  8 35  1  0
 35 36  1  0
 36 37  1  0
  5 38  1  0
 38  2  1  0
 36  6  2  0
 34 13  1  0
 28 23  1  0
  1 39  1  0
  1 40  1  0
  1 41  1  0
 14 42  1  0
 15 43  1  0
 16 44  1  0
 21 45  1  0
 22 46  1  0
 24 47  1  0
 25 48  1  0
 26 49  1  0
 27 50  1  0
 29 51  1  0
 31 52  1  0
 31 53  1  0
 31 54  1  0
 34 55  1  0
 37 56  1  0
 37 57  1  0
 37 58  1  0
M  CHG  2  18  -1  35  -1
M  END
>  <UniqueID>  (81) 
75

>  <SMILES>  (81) 
Cc1nnc(-c2sc(=NS(=O)(=O)c3cccc([N-]C(=O)C=Cc4ccccc4NS(C)(=O)=O)c3)[n-]c2C)o1

>  <Energy>  (81) 
135.2801244413707

>  <Genealogy>  (81) 
Cc1nnc(-c2sc(=NS(=O)(=O)c3cccc([N-]C(=O)C=Cc4ccccc4NS(C)(=O)=O)c3)[n-]c2C)o1 (protonated)
Cc1nnc(-c2sc(=NS(=O)(=O)c3cccc([N-]C(=O)C=Cc4ccccc4NS(C)(=O)=O)c3)[n-]c2C)o1 (3D coordinates assigned)
Cc1nnc(-c2sc(=NS(=O)(=O)c3cccc([N-]C(=O)C=Cc4ccccc4NS(C)(=O)=O)c3)[n-]c2C)o1 (optimized conformer: 135.2801244413707 kcal/mol)

>  <smiles>  (81) 
Cc1nnc(-c2sc(=NS(=O)(=O)c3cccc(NC(=O)C=Cc4ccccc4NS(C)(=O)=O)c3)[nH]c2C)o1

>  <score_type>  (81) 
oracle

>  <origin>  (81) 
adg

>  <m_score__min__energy>  (81) 
-14.51

>  <m_primary>  (81) 
energy

$$$$
81:0
     RDKit          3D

 54 57  0  0  0  0  0  0  0  0999 V2000
   60.3000   32.1530   53.2210 C   0  0  0  0  0  0  0  0  0  0  0  0
   60.1150   31.6880   51.8070 C   0  0  0  0  0  0  0  0  0  0  0  0
   58.8280   31.5300   51.2740 C   0  0  0  0  0  0  0  0  0  0  0  0
   58.6580   31.1270   49.9470 C   0  0  0  0  0  0  0  0  0  0  0  0
   59.7730   30.8840   49.1250 C   0  0  0  0  0  0  0  0  0  0  0  0
   59.5990   30.4640   47.7130 C   0  0  0  0  0  0  0  0  0  0  0  0
   60.4280   30.7860   46.7840 N   0  0  0  0  0  0  0  0  0  0  0  0
   60.0120   30.2710   45.5860 O   0  0  0  0  0  0  0  0  0  0  0  0
   58.7860   29.5580   45.6720 C   0  0  2  0  0  0  0  0  0  0  0  0
   59.0360   28.0980   45.1960 C   0  0  0  0  0  0  0  0  0  0  0  0
   58.0790   27.0030   45.6810 C   0  0  0  0  0  0  0  0  0  0  0  0
   56.6850   27.1900   45.6290 C   0  0  0  0  0  0  0  0  0  0  0  0
   55.8420   26.1700   46.0500 C   0  0  0  0  0  0  0  0  0  0  0  0
   54.5930   26.3130   45.9920 O   0  0  0  0  0  0  0  0  0  0  0  0
   56.3660   25.0160   46.5180 N   0  0  0  0  0  0  0  0  0  0  0  0
   57.7070   24.8350   46.6090 C   0  0  0  0  0  0  0  0  0  0  0  0
   58.1370   23.7370   47.0550 O   0  0  0  0  0  0  0  0  0  0  0  0
   58.5740   25.8320   46.2260 N   0  0  0  0  0  0  0  0  0  0  0  0
   60.0280   25.6180   46.3600 C   0  0  0  0  0  0  0  0  0  0  0  0
   57.7760   30.2850   44.8050 C   0  0  0  0  0  0  0  0  0  0  0  0
   57.5420   29.8780   43.6350 O   0  0  0  0  0  0  0  0  0  0  0  0
   57.1690   31.4960   45.2660 N   0  0  0  0  0  0  0  0  0  0  0  0
   57.8150   33.0570   44.8940 S   0  0  0  0  0  0  0  0  0  0  0  0
   58.4740   33.0110   43.5440 O   0  0  0  0  0  0  0  0  0  0  0  0
   56.6990   34.0620   44.8540 O   0  0  0  0  0  0  0  0  0  0  0  0
   58.9650   33.5220   46.1410 C   0  0  0  0  0  0  0  0  0  0  0  0
   60.3140   33.7020   45.8050 C   0  0  0  0  0  0  0  0  0  0  0  0
   61.2370   34.0840   46.7830 C   0  0  0  0  0  0  0  0  0  0  0  0
   60.8160   34.2900   48.1000 C   0  0  0  0  0  0  0  0  0  0  0  0
   59.4720   34.1140   48.4390 C   0  0  0  0  0  0  0  0  0  0  0  0
   58.5470   33.7310   47.4640 C   0  0  0  0  0  0  0  0  0  0  0  0
   58.4700   29.6310   47.1950 C   0  0  0  0  0  0  0  0  0  0  0  0
   61.0620   31.0610   49.6600 C   0  0  0  0  0  0  0  0  0  0  0  0
   61.2300   31.4640   50.9880 C   0  0  0  0  0  0  0  0  0  0  0  0
   59.9838   31.3583   53.9127 H   0  0  0  0  0  0  0  0  0  0  0  0
   61.3605   32.3889   53.3936 H   0  0  0  0  0  0  0  0  0  0  0  0
   59.6914   33.0529   53.3936 H   0  0  0  0  0  0  0  0  0  0  0  0
   57.9474   31.7243   51.9038 H   0  0  0  0  0  0  0  0  0  0  0  0
   57.6434   30.9987   49.5418 H   0  0  0  0  0  0  0  0  0  0  0  0
   58.9962   28.1022   44.0967 H   0  0  0  0  0  0  0  0  0  0  0  0
   60.0053   27.8289   45.6410 H   0  0  0  0  0  0  0  0  0  0  0  0
   56.2664   28.1370   45.2577 H   0  0  0  0  0  0  0  0  0  0  0  0
   60.2961   25.5785   47.4261 H   0  0  0  0  0  0  0  0  0  0  0  0
   60.3051   24.6694   45.8769 H   0  0  0  0  0  0  0  0  0  0  0  0
   60.5666   26.4465   45.8769 H   0  0  0  0  0  0  0  0  0  0  0  0
   60.6472   33.5422   44.7689 H   0  0  0  0  0  0  0  0  0  0  0  0
   62.2951   34.2225   46.5161 H   0  0  0  0  0  0  0  0  0  0  0  0
   61.5426   34.5906   48.8692 H   0  0  0  0  0  0  0  0  0  0  0  0
   59.1414   34.2772   49.4754 H   0  0  0  0  0  0  0  0  0  0  0  0
   57.4896   33.5932   47.7341 H   0  0  0  0  0  0  0  0  0  0  0  0
   57.4999   30.1161   47.3781 H   0  0  0  0  0  0  0  0  0  0  0  0
   58.3914   28.6454   47.6771 H   0  0  0  0  0  0  0  0  0  0  0  0
   61.9445   30.8809   49.0285 H   0  0  0  0  0  0  0  0  0  0  0  0
   62.2430   31.6061   51.3924 H   0  0  0  0  0  0  0  0  0  0  0  0
  1  2  1  0
  2  3  2  0
  3  4  1  0
  4  5  2  0
  5  6  1  0
  6  7  2  0
  7  8  1  0
  8  9  1  0
  9 10  1  6
 10 11  1  0
 11 12  2  0
 12 13  1  0
 13 14  2  0
 13 15  1  0
 15 16  1  0
 16 17  2  0
 16 18  1  0
 18 19  1  0
  9 20  1  0
 20 21  2  0
 20 22  1  0
 22 23  1  0
 23 24  2  0
 23 25  2  0
 23 26  1  0
 26 27  2  0
 27 28  1  0
 28 29  2  0
 29 30  1  0
 30 31  2  0
  9 32  1  0
  5 33  1  0
 33 34  2  0
 34  2  1  0
 32  6  1  0
 18 11  1  0
 31 26  1  0
  1 35  1  0
  1 36  1  0
  1 37  1  0
  3 38  1  0
  4 39  1  0
 10 40  1  0
 10 41  1  0
 12 42  1  0
 19 43  1  0
 19 44  1  0
 19 45  1  0
 27 46  1  0
 28 47  1  0
 29 48  1  0
 30 49  1  0
 31 50  1  0
 32 51  1  0
 32 52  1  0
 33 53  1  0
 34 54  1  0
M  CHG  2  15  -1  22  -1
M  END
>  <UniqueID>  (82) 
76

>  <SMILES>  (82) 
Cc1ccc(C2=NO[C@](Cc3cc(=O)[n-]c(=O)n3C)(C(=O)[N-]S(=O)(=O)c3ccccc3)C2)cc1

>  <Energy>  (82) 
85.07057424978247

>  <Genealogy>  (82) 
Cc1ccc(C2=NOC(Cc3cc(=O)[n-]c(=O)n3C)(C(=O)[N-]S(=O)(=O)c3ccccc3)C2)cc1 (protonated)
Cc1ccc(C2=NO[C@](Cc3cc(=O)[n-]c(=O)n3C)(C(=O)[N-]S(=O)(=O)c3ccccc3)C2)cc1 (chirality)
Cc1ccc(C2=NO[C@](Cc3cc(=O)[n-]c(=O)n3C)(C(=O)[N-]S(=O)(=O)c3ccccc3)C2)cc1 (3D coordinates assigned)
Cc1ccc(C2=NO[C@](Cc3cc(=O)[n-]c(=O)n3C)(C(=O)[N-]S(=O)(=O)c3ccccc3)C2)cc1 (nonaromatic ring conformer: 85.07057424978247 kcal/mol)

>  <smiles>  (82) 
Cc1ccc(C2=NOC(Cc3cc(=O)[nH]c(=O)n3C)(C(=O)NS(=O)(=O)c3ccccc3)C2)cc1

>  <score_type>  (82) 
oracle

>  <origin>  (82) 
adg

>  <m_score__min__energy>  (82) 
-12.09

>  <m_primary>  (82) 
energy

$$$$
82:0
     RDKit          3D

 45 47  0  0  0  0  0  0  0  0999 V2000
   51.1280   29.3860   37.8410 O   0  0  0  0  0  0  0  0  0  0  0  0
   59.3060   36.0750   53.1500 C   0  0  0  0  0  0  0  0  0  0  0  0
   59.4420   18.8690   55.5110 N   0  0  0  0  0  0  0  0  0  0  0  0
   55.5340   22.9850   50.4540 C   0  0  0  0  0  0  0  0  0  0  0  0
   56.1880   23.9890   48.1790 C   0  0  0  0  0  0  0  0  0  0  0  0
   57.2870   24.2160   47.4620 C   0  0  0  0  0  0  0  0  0  0  0  0
   57.1020   24.1770   46.0770 C   0  0  0  0  0  0  0  0  0  0  0  0
   55.8230   23.8830   45.5120 C   0  0  0  0  0  0  0  0  0  0  0  0
   54.7950   23.6560   46.3600 C   0  0  0  0  0  0  0  0  0  0  0  0
   54.9940   23.7240   47.6990 C   0  0  0  0  0  0  0  0  0  0  0  0
   71.2530   16.2020   35.7680 N   0  0  0  0  0  0  0  0  0  0  0  0
   64.4350   19.9500   37.6570 C   0  0  0  0  0  0  0  0  0  0  0  0
   55.0410   18.9240   42.3310 O   0  0  0  0  0  0  0  0  0  0  0  0
   60.3350   32.3930   43.9220 C   0  0  0  0  0  0  0  0  0  0  0  0
   55.0770   23.7530   42.8620 C   0  0  0  0  0  0  0  0  0  0  0  0
   59.2210   22.8780   42.1870 C   0  0  0  0  0  0  0  0  0  0  0  0
   60.3320   23.6380   42.5620 C   0  0  0  0  0  0  0  0  0  0  0  0
   61.2800   24.4320   41.4720 S   0  0  0  0  0  0  0  0  0  0  0  0
   61.9680   25.6080   41.9790 O   0  0  0  0  0  0  0  0  0  0  0  0
   62.4200   23.4220   41.1070 O   0  0  0  0  0  0  0  0  0  0  0  0
   60.5080   24.7400   39.9360 N   0  0  0  0  0  0  0  0  0  0  0  0
   59.1070   25.0540   39.9110 C   0  0  0  0  0  0  0  0  0  0  0  0
   59.2340   26.3410   39.2030 C   0  0  0  0  0  0  0  0  0  0  0  0
   60.6730   26.2340   39.6550 C   0  0  0  0  0  0  0  0  0  0  0  0
   61.5190   22.3260   43.3630 C   0  0  0  0  0  0  0  0  0  0  0  0
   63.8090   19.9430   47.5580 C   0  0  0  0  0  0  0  0  0  0  0  0
   57.9890   19.8460   48.7270 H   0  0  0  0  0  0  0  0  0  0  0  0
   54.6689   22.3486   50.2163 H   0  0  0  0  0  0  0  0  0  0  0  0
   55.5574   23.9292   51.0178 H   0  0  0  0  0  0  0  0  0  0  0  0
   58.2646   24.4185   47.9238 H   0  0  0  0  0  0  0  0  0  0  0  0
   57.9549   24.3759   45.4113 H   0  0  0  0  0  0  0  0  0  0  0  0
   55.6795   23.8427   44.4222 H   0  0  0  0  0  0  0  0  0  0  0  0
   53.7974   23.4162   45.9635 H   0  0  0  0  0  0  0  0  0  0  0  0
   54.1521   23.5566   48.3869 H   0  0  0  0  0  0  0  0  0  0  0  0
   31.5020   11.8240   51.8300 H   0  0  0  0  0  0  0  0  0  0  0  0
   54.0689   23.3143   42.8981 H   0  0  0  0  0  0  0  0  0  0  0  0
   59.4356   21.9404   41.6533 H   0  0  0  0  0  0  0  0  0  0  0  0
   58.5189   24.3167   39.3449 H   0  0  0  0  0  0  0  0  0  0  0  0
   58.5849   25.0699   40.8791 H   0  0  0  0  0  0  0  0  0  0  0  0
   59.0727   26.3039   38.1155 H   0  0  0  0  0  0  0  0  0  0  0  0
   58.5918   27.2142   39.3902 H   0  0  0  0  0  0  0  0  0  0  0  0
   61.4047   26.4593   38.8651 H   0  0  0  0  0  0  0  0  0  0  0  0
   61.0475   26.9001   40.4462 H   0  0  0  0  0  0  0  0  0  0  0  0
   61.9419   21.7942   42.4979 H   0  0  0  0  0  0  0  0  0  0  0  0
   64.2147   19.1325   48.1813 H   0  0  0  0  0  0  0  0  0  0  0  0
  1  2  2  0
  2  3  1  0
  3  4  1  0
  4  5  1  0
  5  6  2  0
  6  7  1  0
  7  8  2  0
  8  9  1  0
  9 10  2  0
  2 11  1  0
 11 12  1  0
 12 13  2  0
 12 14  1  0
 14 15  2  0
 15 16  1  0
 16 17  2  0
 17 18  1  0
 18 19  2  0
 18 20  2  0
 18 21  1  0
 21 22  1  0
 22 23  1  0
 23 24  1  0
 17 25  1  0
 25 26  2  0
 10  5  1  0
 26 14  1  0
 24 21  1  0
  3 27  1  0
  4 28  1  0
  4 29  1  0
  6 30  1  0
  7 31  1  0
  8 32  1  0
  9 33  1  0
 10 34  1  0
 11 35  1  0
 15 36  1  0
 16 37  1  0
 22 38  1  0
 22 39  1  0
 23 40  1  0
 23 41  1  0
 24 42  1  0
 24 43  1  0
 25 44  1  0
 26 45  1  0
M  END
>  <UniqueID>  (83) 
77

>  <SMILES>  (83) 
O=C(NCc1ccccc1)NC(=O)c1ccc(S(=O)(=O)N2CCC2)cc1

>  <Energy>  (83) 
2288461.5275129904

>  <Genealogy>  (83) 
O=C(NCc1ccccc1)NC(=O)c1ccc(S(=O)(=O)N2CCC2)cc1 (3D coordinates assigned)
O=C(NCc1ccccc1)NC(=O)c1ccc(S(=O)(=O)N2CCC2)cc1 (nonaromatic ring conformer: 2288461.5275129904 kcal/mol)

>  <smiles>  (83) 
O=C(NCc1ccccc1)NC(=O)c1ccc(S(=O)(=O)N2CCC2)cc1

>  <score_type>  (83) 
oracle

>  <origin>  (83) 
adg

>  <m_score__min__energy>  (83) 
33555553.490000002

>  <m_primary>  (83) 
energy

$$$$
83:0
     RDKit          3D

 39 41  0  0  0  0  0  0  0  0999 V2000
   58.5020   34.2840   46.7130 C   0  0  0  0  0  0  0  0  0  0  0  0
   59.9420   33.3770   47.2380 S   0  0  0  0  0  0  0  0  0  0  0  0
   59.8740   31.9920   46.6610 O   0  0  0  0  0  0  0  0  0  0  0  0
   61.1930   34.0460   46.7440 O   0  0  0  0  0  0  0  0  0  0  0  0
   59.9750   33.2570   48.9680 N   0  0  0  0  0  0  0  0  0  0  0  0
   59.2160   32.3330   49.7590 C   0  0  0  0  0  0  0  0  0  0  0  0
   58.5710   32.8090   50.9080 C   0  0  0  0  0  0  0  0  0  0  0  0
   57.8220   31.9450   51.7120 C   0  0  0  0  0  0  0  0  0  0  0  0
   57.7150   30.5890   51.3860 C   0  0  0  0  0  0  0  0  0  0  0  0
   56.9430   29.7560   52.2100 O   0  0  0  0  0  0  0  0  0  0  0  0
   55.5500   29.8290   52.3600 C   0  0  0  0  0  0  0  0  0  0  0  0
   54.8830   30.9640   51.8900 C   0  0  0  0  0  0  0  0  0  0  0  0
   53.4970   31.0810   52.0330 C   0  0  0  0  0  0  0  0  0  0  0  0
   52.7570   30.0640   52.6560 C   0  0  0  0  0  0  0  0  0  0  0  0
   51.2690   30.2270   52.8310 C   0  0  0  0  0  0  0  0  0  0  0  0
   50.9220   31.6730   53.0140 C   0  0  0  0  0  0  0  0  0  0  0  0
   50.5890   32.4070   54.4940 S   0  0  0  0  0  0  0  0  0  0  0  0
   50.2540   33.8900   53.7760 C   0  0  0  0  0  0  0  0  0  0  0  0
   49.9210   34.9250   54.4090 O   0  0  0  0  0  0  0  0  0  0  0  0
   50.3760   33.8560   52.4330 N   0  0  0  0  0  0  0  0  0  0  0  0
   50.7420   32.6190   52.0070 C   0  0  0  0  0  0  0  0  0  0  0  0
   50.9250   32.3360   50.6590 O   0  0  0  0  0  0  0  0  0  0  0  0
   53.4310   28.9350   53.1590 C   0  0  0  0  0  0  0  0  0  0  0  0
   52.7340   27.9220   53.8090 O   0  0  0  0  0  0  0  0  0  0  0  0
   54.8190   28.8220   53.0130 C   0  0  0  0  0  0  0  0  0  0  0  0
   58.3410   30.1110   50.2220 C   0  0  0  0  0  0  0  0  0  0  0  0
   59.0890   30.9750   49.4170 C   0  0  0  0  0  0  0  0  0  0  0  0
   57.9469   34.6337   47.5959 H   0  0  0  0  0  0  0  0  0  0  0  0
   58.8135   35.1492   46.1094 H   0  0  0  0  0  0  0  0  0  0  0  0
   57.8562   33.6293   46.1094 H   0  0  0  0  0  0  0  0  0  0  0  0
   58.6547   33.8716   51.1797 H   0  0  0  0  0  0  0  0  0  0  0  0
   57.3136   32.3339   52.6066 H   0  0  0  0  0  0  0  0  0  0  0  0
   55.4522   31.7704   51.4045 H   0  0  0  0  0  0  0  0  0  0  0  0
   52.9828   31.9767   51.6544 H   0  0  0  0  0  0  0  0  0  0  0  0
   50.7543   29.8404   51.9390 H   0  0  0  0  0  0  0  0  0  0  0  0
   50.9502   29.6670   53.7225 H   0  0  0  0  0  0  0  0  0  0  0  0
   55.3405   27.9394   53.4120 H   0  0  0  0  0  0  0  0  0  0  0  0
   58.2418   29.0516   49.9430 H   0  0  0  0  0  0  0  0  0  0  0  0
   59.5808   30.5906   48.5113 H   0  0  0  0  0  0  0  0  0  0  0  0
  1  2  1  0
  2  3  2  0
  2  4  2  0
  2  5  1  0
  5  6  1  0
  6  7  2  0
  7  8  1  0
  8  9  2  0
  9 10  1  0
 10 11  1  0
 11 12  2  0
 12 13  1  0
 13 14  2  0
 14 15  1  0
 15 16  1  0
 16 17  1  0
 17 18  1  0
 18 19  2  0
 18 20  1  0
 20 21  1  0
 21 22  1  0
 14 23  1  0
 23 24  1  0
 23 25  2  0
  9 26  1  0
 26 27  2  0
 27  6  1  0
 25 11  1  0
 21 16  2  0
  1 28  1  0
  1 29  1  0
  1 30  1  0
  7 31  1  0
  8 32  1  0
 12 33  1  0
 13 34  1  0
 15 35  1  0
 15 36  1  0
 25 37  1  0
 26 38  1  0
 27 39  1  0
M  CHG  4   5  -1  20  -1  22  -1  24  -1
M  END
>  <UniqueID>  (84) 
78

>  <SMILES>  (84) 
CS(=O)(=O)[N-]c1ccc(Oc2ccc(Cc3sc(=O)[n-]c3[O-])c([O-])c2)cc1

>  <Energy>  (84) 
77.0828894355702

>  <Genealogy>  (84) 
CS(=O)(=O)[N-]c1ccc(Oc2ccc(Cc3sc(=O)[n-]c3[O-])c([O-])c2)cc1 (protonated)
CS(=O)(=O)[N-]c1ccc(Oc2ccc(Cc3sc(=O)[n-]c3[O-])c([O-])c2)cc1 (3D coordinates assigned)
CS(=O)(=O)[N-]c1ccc(Oc2ccc(Cc3sc(=O)[n-]c3[O-])c([O-])c2)cc1 (optimized conformer: 77.0828894355702 kcal/mol)

>  <smiles>  (84) 
CS(=O)(=O)Nc1ccc(Oc2ccc(Cc3sc(=O)[nH]c3O)c(O)c2)cc1

>  <score_type>  (84) 
oracle

>  <origin>  (84) 
adg

>  <m_score__min__energy>  (84) 
-17.09

>  <m_primary>  (84) 
energy

$$$$
84:0
     RDKit          3D

 43 46  0  0  0  0  0  0  0  0999 V2000
   60.8355   33.7047   49.7288 H   0  0  0  0  0  0  0  0  0  0  0  0
   60.3660   33.6970   48.7340 C   0  0  0  0  0  0  0  0  0  0  0  0
   61.0640   34.1900   47.6280 C   0  0  0  0  0  0  0  0  0  0  0  0
   62.0820   34.5873   47.7537 H   0  0  0  0  0  0  0  0  0  0  0  0
   60.4710   34.1790   46.3630 C   0  0  0  0  0  0  0  0  0  0  0  0
   61.0219   34.5728   45.4961 H   0  0  0  0  0  0  0  0  0  0  0  0
   59.1740   33.6670   46.1940 C   0  0  0  0  0  0  0  0  0  0  0  0
   58.5210   33.6860   44.8350 C   0  0  0  0  0  0  0  0  0  0  0  0
   59.0956   33.0424   44.1527 H   0  0  0  0  0  0  0  0  0  0  0  0
   58.5064   34.7243   44.4721 H   0  0  0  0  0  0  0  0  0  0  0  0
   57.0800   33.1790   44.9020 C   0  0  0  0  0  0  0  0  0  0  0  0
   56.5225   33.5543   44.0312 H   0  0  0  0  0  0  0  0  0  0  0  0
   56.6164   33.5413   45.8314 H   0  0  0  0  0  0  0  0  0  0  0  0
   57.0550   31.7210   44.8970 N   0  0  0  0  0  0  0  0  0  0  0  0
   57.8110   30.9370   43.9730 C   0  0  0  0  0  0  0  0  0  0  0  0
   57.7790   31.2120   42.7430 O   0  0  0  0  0  0  0  0  0  0  0  0
   58.5250   29.7920   44.4610 N   0  0  0  0  0  0  0  0  0  0  0  0
   58.0670   28.6280   44.8340 C   0  0  0  0  0  0  0  0  0  0  0  0
   58.9130   27.5510   44.7590 N   0  0  0  0  0  0  0  0  0  0  0  0
   58.5400   26.2870   45.1180 C   0  0  0  0  0  0  0  0  0  0  0  0
   59.2431   25.4446   45.0403 H   0  0  0  0  0  0  0  0  0  0  0  0
   57.2430   26.0980   45.5850 C   0  0  0  0  0  0  0  0  0  0  0  0
   56.5140   24.9940   45.9790 C   0  0  0  0  0  0  0  0  0  0  0  0
   56.9680   23.5930   46.1060 C   0  0  0  0  0  0  0  0  0  0  0  0
   56.4830   22.7610   47.1310 C   0  0  0  0  0  0  0  0  0  0  0  0
   55.7608   23.1559   47.8608 H   0  0  0  0  0  0  0  0  0  0  0  0
   56.9140   21.4350   47.2270 C   0  0  0  0  0  0  0  0  0  0  0  0
   56.5373   20.7924   48.0365 H   0  0  0  0  0  0  0  0  0  0  0  0
   57.8230   20.9240   46.2960 C   0  0  0  0  0  0  0  0  0  0  0  0
   58.2390   19.6370   46.3900 F   0  0  0  0  0  0  0  0  0  0  0  0
   58.2960   21.7380   45.2630 C   0  0  0  0  0  0  0  0  0  0  0  0
   59.0077   21.3344   44.5277 H   0  0  0  0  0  0  0  0  0  0  0  0
   57.8660   23.0640   45.1630 C   0  0  0  0  0  0  0  0  0  0  0  0
   58.2324   23.6973   44.3416 H   0  0  0  0  0  0  0  0  0  0  0  0
   55.2450   25.3970   46.2330 N   0  0  0  0  0  0  0  0  0  0  0  0
   55.1520   26.7070   46.0240 N   0  0  0  0  0  0  0  0  0  0  0  0
   56.3630   27.1370   45.6340 C   0  0  0  0  0  0  0  0  0  0  0  0
   56.7280   28.4280   45.2680 C   0  0  0  0  0  0  0  0  0  0  0  0
   56.0102   29.2603   45.3125 H   0  0  0  0  0  0  0  0  0  0  0  0
   58.4730   33.1820   47.3120 C   0  0  0  0  0  0  0  0  0  0  0  0
   57.4514   32.7921   47.1921 H   0  0  0  0  0  0  0  0  0  0  0  0
   59.0710   33.1940   48.5760 C   0  0  0  0  0  0  0  0  0  0  0  0
   58.5219   32.8072   49.4471 H   0  0  0  0  0  0  0  0  0  0  0  0
  1  2  1  0
  2  3  2  0
  3  4  1  0
  3  5  1  0
  5  6  1  0
  5  7  2  0
  7  8  1  0
  8  9  1  0
  8 10  1  0
  8 11  1  0
 11 12  1  0
 11 13  1  0
 11 14  1  0
 14 15  1  0
 15 16  2  0
 15 17  1  0
 17 18  2  0
 18 19  1  0
 19 20  1  0
 20 21  1  0
 20 22  2  0
 22 23  1  0
 23 24  1  0
 24 25  2  0
 25 26  1  0
 25 27  1  0
 27 28  1  0
 27 29  2  0
 29 30  1  0
 29 31  1  0
 31 32  1  0
 31 33  2  0
 33 34  1  0
 23 35  2  0
 35 36  1  0
 36 37  1  0
 37 38  2  0
 38 39  1  0
  7 40  1  0
 40 41  1  0
 40 42  2  0
 42 43  1  0
 42  2  1  0
 38 18  1  0
 37 22  1  0
 33 24  1  0
M  CHG  3  14  -1  19  -1  36  -1
M  END
>  <UniqueID>  (85) 
79

>  <SMILES>  (85) 
O=C(/N=c1\cc2[n-]nc(-c3ccc(F)cc3)c2c[n-]1)[N-]CCc1ccccc1

>  <Energy>  (85) 
94.02299388244005

>  <Genealogy>  (85) 
O=C(N=c1cc2[n-]nc(-c3ccc(F)cc3)c2c[n-]1)[N-]CCc1ccccc1 (protonated)
O=C(/N=c1\cc2[n-]nc(-c3ccc(F)cc3)c2c[n-]1)[N-]CCc1ccccc1 (cis-trans isomerization)
O=C(/N=c1\cc2[n-]nc(-c3ccc(F)cc3)c2c[n-]1)[N-]CCc1ccccc1 (3D coordinates assigned)
O=C(/N=c1\cc2[n-]nc(-c3ccc(F)cc3)c2c[n-]1)[N-]CCc1ccccc1 (optimized conformer: 94.02299388244005 kcal/mol)

>  <smiles>  (85) 
O=C(N=c1cc2[nH]nc(-c3ccc(F)cc3)c2c[nH]1)NCCc1ccccc1

>  <score_type>  (85) 
oracle

>  <origin>  (85) 
adg

>  <m_score__min__energy>  (85) 
-12.25

>  <m_primary>  (85) 
energy

$$$$
85:0
     RDKit          3D

 33 35  0  0  0  0  0  0  0  0999 V2000
   60.5120   28.3790   48.4040 C   0  0  0  0  0  0  0  0  0  0  0  0
   59.3420   28.4590   47.4520 C   0  0  0  0  0  0  0  0  0  0  0  0
   58.5690   27.3110   47.1920 C   0  0  0  0  0  0  0  0  0  0  0  0
   58.8840   26.1080   47.8220 O   0  0  0  0  0  0  0  0  0  0  0  0
   57.4840   27.3600   46.2990 C   0  0  0  0  0  0  0  0  0  0  0  0
   56.7050   26.1190   46.0450 C   0  0  0  0  0  0  0  0  0  0  0  0
   55.4460   26.1180   46.0250 O   0  0  0  0  0  0  0  0  0  0  0  0
   57.1600   28.5790   45.6680 C   0  0  0  0  0  0  0  0  0  0  0  0
   56.1400   28.6210   44.8120 O   0  0  0  0  0  0  0  0  0  0  0  0
   55.7660   29.7190   44.1740 C   0  0  0  0  0  0  0  0  0  0  0  0
   54.7940   29.6740   43.3750 O   0  0  0  0  0  0  0  0  0  0  0  0
   56.4350   30.9180   44.3880 C   0  0  0  0  0  0  0  0  0  0  0  0
   57.5070   30.9560   45.2830 C   0  0  0  0  0  0  0  0  0  0  0  0
   58.1250   32.2730   45.5320 C   0  0  0  0  0  0  0  0  0  0  0  0
   58.7730   32.9580   44.4920 C   0  0  0  0  0  0  0  0  0  0  0  0
   59.3410   34.2140   44.7250 C   0  0  0  0  0  0  0  0  0  0  0  0
   59.2560   34.7960   45.9940 C   0  0  0  0  0  0  0  0  0  0  0  0
   58.6000   34.1250   47.0290 C   0  0  0  0  0  0  0  0  0  0  0  0
   58.0310   32.8690   46.8000 C   0  0  0  0  0  0  0  0  0  0  0  0
   57.9130   29.7560   45.9350 C   0  0  0  0  0  0  0  0  0  0  0  0
   59.0310   29.6780   46.8050 C   0  0  0  0  0  0  0  0  0  0  0  0
   59.8390   30.8030   47.0040 O   0  0  0  0  0  0  0  0  0  0  0  0
   60.1439   28.4042   49.4403 H   0  0  0  0  0  0  0  0  0  0  0  0
   61.0608   27.4412   48.2325 H   0  0  0  0  0  0  0  0  0  0  0  0
   61.1833   29.2333   48.2325 H   0  0  0  0  0  0  0  0  0  0  0  0
   57.2435   25.1759   45.8698 H   0  0  0  0  0  0  0  0  0  0  0  0
   56.1231   31.8295   43.8571 H   0  0  0  0  0  0  0  0  0  0  0  0
   58.8340   32.5054   43.4913 H   0  0  0  0  0  0  0  0  0  0  0  0
   59.8550   34.7447   43.9100 H   0  0  0  0  0  0  0  0  0  0  0  0
   59.7060   35.7829   46.1772 H   0  0  0  0  0  0  0  0  0  0  0  0
   58.5312   34.5857   48.0255 H   0  0  0  0  0  0  0  0  0  0  0  0
   57.5085   32.3464   47.6148 H   0  0  0  0  0  0  0  0  0  0  0  0
   59.9310   31.2880   47.8870 H   0  0  0  0  0  0  0  0  0  0  0  0
  1  2  1  0
  2  3  2  0
  3  4  1  0
  3  5  1  0
  5  6  1  0
  6  7  2  0
  5  8  2  0
  8  9  1  0
  9 10  1  0
 10 11  2  0
 10 12  1  0
 12 13  2  0
 13 14  1  0
 14 15  2  0
 15 16  1  0
 16 17  2  0
 17 18  1  0
 18 19  2  0
 13 20  1  0
 20 21  2  0
 21 22  1  0
 21  2  1  0
 20  8  1  0
 19 14  1  0
  1 23  1  0
  1 24  1  0
  1 25  1  0
  6 26  1  0
 12 27  1  0
 15 28  1  0
 16 29  1  0
 17 30  1  0
 18 31  1  0
 19 32  1  0
 22 33  1  0
M  CHG  1   4  -1
M  END
>  <UniqueID>  (86) 
80

>  <SMILES>  (86) 
Cc1c([O-])c(C=O)c2oc(=O)cc(-c3ccccc3)c2c1O

>  <Energy>  (86) 
57.269106963886664

>  <Genealogy>  (86) 
Cc1c([O-])c(C=O)c2oc(=O)cc(-c3ccccc3)c2c1O (protonated)
Cc1c([O-])c(C=O)c2oc(=O)cc(-c3ccccc3)c2c1O (3D coordinates assigned)
Cc1c([O-])c(C=O)c2oc(=O)cc(-c3ccccc3)c2c1O (optimized conformer: 57.269106963886664 kcal/mol)

>  <smiles>  (86) 
Cc1c(O)c(C=O)c2oc(=O)cc(-c3ccccc3)c2c1O

>  <score_type>  (86) 
oracle

>  <origin>  (86) 
adg

>  <m_score__min__energy>  (86) 
-8.7200000000000006

>  <m_primary>  (86) 
energy

$$$$
86:0
     RDKit          3D

 48 50  0  0  0  0  0  0  0  0999 V2000
   57.2950   32.2750   42.8040 H   0  0  0  0  0  0  0  0  0  0  0  0
   57.9420   33.0310   42.9960 O   0  0  0  0  0  0  0  0  0  0  0  0
   58.3600   33.3250   44.2930 C   0  0  0  0  0  0  0  0  0  0  0  0
   59.3410   34.3040   44.5060 C   0  0  0  0  0  0  0  0  0  0  0  0
   59.8042   34.8107   43.6465 H   0  0  0  0  0  0  0  0  0  0  0  0
   59.7330   34.6390   45.8040 C   0  0  0  0  0  0  0  0  0  0  0  0
   60.5096   35.4014   45.9643 H   0  0  0  0  0  0  0  0  0  0  0  0
   59.1390   34.0060   46.8990 C   0  0  0  0  0  0  0  0  0  0  0  0
   59.6210   34.4390   48.5290 Cl  0  0  0  0  0  0  0  0  0  0  0  0
   58.1640   33.0250   46.6950 C   0  0  0  0  0  0  0  0  0  0  0  0
   57.6887   32.5394   47.5600 H   0  0  0  0  0  0  0  0  0  0  0  0
   57.7880   32.6560   45.3970 C   0  0  0  0  0  0  0  0  0  0  0  0
   56.7970   31.6330   45.2310 N   0  0  0  0  0  0  0  0  0  0  0  0
   56.9590   30.4170   44.4890 C   0  0  0  0  0  0  0  0  0  0  0  0
   56.4650   30.3420   43.3340 O   0  0  0  0  0  0  0  0  0  0  0  0
   57.6430   29.2390   45.0580 C   0  0  0  0  0  0  0  0  0  0  0  0
   57.5700   27.6680   44.4600 S   0  0  0  0  0  0  0  0  0  0  0  0
   58.5870   26.9730   45.6050 C   0  0  0  0  0  0  0  0  0  0  0  0
   58.8980   25.5330   45.6580 C   0  0  0  0  0  0  0  0  0  0  0  0
   59.8460   25.1110   46.3730 O   0  0  0  0  0  0  0  0  0  0  0  0
   58.1460   24.6270   44.8370 N   0  0  0  0  0  0  0  0  0  0  0  0
   56.9330   24.1900   45.0220 C   0  0  0  0  0  0  0  0  0  0  0  0
   55.9750   25.0890   45.3810 N   0  0  0  0  0  0  0  0  0  0  0  0
   54.6910   24.7230   45.6370 C   0  0  0  0  0  0  0  0  0  0  0  0
   53.9459   25.4872   45.9033 H   0  0  0  0  0  0  0  0  0  0  0  0
   54.3140   23.3780   45.5630 C   0  0  0  0  0  0  0  0  0  0  0  0
   52.9320   22.9750   45.8790 C   0  0  0  0  0  0  0  0  0  0  0  0
   52.5660   22.9310   47.0830 O   0  0  0  0  0  0  0  0  0  0  0  0
   51.9960   22.5990   44.8580 N   0  0  0  0  0  0  0  0  0  0  0  0
   50.7170   23.2550   44.5970 C   0  0  0  0  0  0  0  0  0  0  0  0
   50.1798   23.3933   45.5469 H   0  0  0  0  0  0  0  0  0  0  0  0
   50.1246   22.6254   43.9167 H   0  0  0  0  0  0  0  0  0  0  0  0
   50.9390   24.5960   43.9530 C   0  0  0  0  0  0  0  0  0  0  0  0
   51.9457   25.0387   43.9780 H   0  0  0  0  0  0  0  0  0  0  0  0
   49.9530   25.2660   43.3520 C   0  0  0  0  0  0  0  0  0  0  0  0
   50.1538   26.2447   42.8919 H   0  0  0  0  0  0  0  0  0  0  0  0
   48.9397   24.8393   43.3170 H   0  0  0  0  0  0  0  0  0  0  0  0
   55.2720   22.4320   45.1790 C   0  0  0  0  0  0  0  0  0  0  0  0
   54.9895   21.3732   45.0836 H   0  0  0  0  0  0  0  0  0  0  0  0
   56.5840   22.8280   44.9170 C   0  0  0  0  0  0  0  0  0  0  0  0
   57.3407   22.0828   44.6305 H   0  0  0  0  0  0  0  0  0  0  0  0
   59.0140   27.9830   46.4780 C   0  0  0  0  0  0  0  0  0  0  0  0
   59.9300   27.7670   47.6460 C   0  0  0  0  0  0  0  0  0  0  0  0
   59.3679   27.8995   48.5822 H   0  0  0  0  0  0  0  0  0  0  0  0
   60.3408   26.7474   47.6062 H   0  0  0  0  0  0  0  0  0  0  0  0
   60.7531   28.4957   47.6062 H   0  0  0  0  0  0  0  0  0  0  0  0
   58.4890   29.2480   46.1610 C   0  0  0  0  0  0  0  0  0  0  0  0
   58.7252   30.1583   46.7315 H   0  0  0  0  0  0  0  0  0  0  0  0
  1  2  1  0
  2  3  1  0
  3  4  2  0
  4  5  1  0
  4  6  1  0
  6  7  1  0
  6  8  2  0
  8  9  1  0
  8 10  1  0
 10 11  1  0
 10 12  2  0
 12 13  1  0
 13 14  1  0
 14 15  2  0
 14 16  1  0
 16 17  1  0
 17 18  1  0
 18 19  1  0
 19 20  2  0
 19 21  1  0
 21 22  2  0
 22 23  1  0
 23 24  1  0
 24 25  1  0
 24 26  2  0
 26 27  1  0
 27 28  2  0
 27 29  1  0
 29 30  1  0
 30 31  1  0
 30 32  1  0
 30 33  1  0
 33 34  1  0
 33 35  2  0
 35 36  1  0
 35 37  1  0
 26 38  1  0
 38 39  1  0
 38 40  2  0
 40 41  1  0
 18 42  2  0
 42 43  1  0
 43 44  1  0
 43 45  1  0
 43 46  1  0
 42 47  1  0
 47 48  1  0
 12  3  1  0
 47 16  2  0
 40 22  1  0
M  CHG  3  13  -1  23  -1  29  -1
M  END
>  <UniqueID>  (87) 
81

>  <SMILES>  (87) 
C=CC[N-]C(=O)c1cc/c(=N\C(=O)c2sc(C(=O)[N-]c3cc(Cl)ccc3O)cc2C)[n-]c1

>  <Energy>  (87) 
91.52769725802926

>  <Genealogy>  (87) 
C=CC[N-]C(=O)c1ccc(=NC(=O)c2sc(C(=O)[N-]c3cc(Cl)ccc3O)cc2C)[n-]c1 (protonated)
C=CC[N-]C(=O)c1cc/c(=N\C(=O)c2sc(C(=O)[N-]c3cc(Cl)ccc3O)cc2C)[n-]c1 (cis-trans isomerization)
C=CC[N-]C(=O)c1cc/c(=N\C(=O)c2sc(C(=O)[N-]c3cc(Cl)ccc3O)cc2C)[n-]c1 (3D coordinates assigned)
C=CC[N-]C(=O)c1cc/c(=N\C(=O)c2sc(C(=O)[N-]c3cc(Cl)ccc3O)cc2C)[n-]c1 (optimized conformer: 91.52769725802926 kcal/mol)

>  <smiles>  (87) 
C=CCNC(=O)c1ccc(=NC(=O)c2sc(C(=O)Nc3cc(Cl)ccc3O)cc2C)[nH]c1

>  <score_type>  (87) 
oracle

>  <origin>  (87) 
adg

>  <m_score__min__energy>  (87) 
-13.289999999999999

>  <m_primary>  (87) 
energy

$$$$
87:0
     RDKit          3D

 42 45  0  0  0  0  0  0  0  0999 V2000
   55.9530   25.3850   47.1600 O   0  0  0  0  0  0  0  0  0  0  0  0
   56.4490   25.2690   45.8650 C   0  0  0  0  0  0  0  0  0  0  0  0
   55.8690   24.3370   44.9960 C   0  0  0  0  0  0  0  0  0  0  0  0
   56.3400   24.2080   43.6830 C   0  0  0  0  0  0  0  0  0  0  0  0
   55.7670   23.2850   42.8110 O   0  0  0  0  0  0  0  0  0  0  0  0
   57.3970   25.0090   43.2430 C   0  0  0  0  0  0  0  0  0  0  0  0
   57.9820   25.9370   44.1070 C   0  0  0  0  0  0  0  0  0  0  0  0
   57.5070   26.0860   45.4220 C   0  0  0  0  0  0  0  0  0  0  0  0
   58.1360   27.0650   46.3390 C   0  0  0  0  0  0  0  0  0  0  0  0
   58.7630   26.7090   47.4800 N   0  0  0  0  0  0  0  0  0  0  0  0
   59.2650   27.7960   48.0490 N   0  0  0  0  0  0  0  0  0  0  0  0
   58.9560   28.8540   47.2790 C   0  0  0  0  0  0  0  0  0  0  0  0
   59.3120   30.2040   47.6150 N   0  0  0  0  0  0  0  0  0  0  0  0
   58.7970   30.8350   48.8360 C   0  0  0  0  0  0  0  0  0  0  0  0
   58.6170   32.3580   48.6360 C   0  0  0  0  0  0  0  0  0  0  0  0
   59.2170   32.8580   47.4510 O   0  0  0  0  0  0  0  0  0  0  0  0
   60.5130   32.3220   47.2910 C   0  0  0  0  0  0  0  0  0  0  0  0
   60.4070   30.8500   46.8870 C   0  0  0  0  0  0  0  0  0  0  0  0
   58.2430   28.4390   46.1670 C   0  0  0  0  0  0  0  0  0  0  0  0
   57.7070   29.2690   45.0670 C   0  0  0  0  0  0  0  0  0  0  0  0
   58.5360   30.2200   44.4480 C   0  0  0  0  0  0  0  0  0  0  0  0
   58.0500   31.0000   43.3940 C   0  0  0  0  0  0  0  0  0  0  0  0
   56.7360   30.8350   42.9490 C   0  0  0  0  0  0  0  0  0  0  0  0
   55.9030   29.8950   43.5610 C   0  0  0  0  0  0  0  0  0  0  0  0
   56.3800   29.1160   44.6200 C   0  0  0  0  0  0  0  0  0  0  0  0
   55.5240   28.2060   45.2330 O   0  0  0  0  0  0  0  0  0  0  0  0
   55.0403   23.7037   45.3456 H   0  0  0  0  0  0  0  0  0  0  0  0
   56.1170   23.1580   41.8690 H   0  0  0  0  0  0  0  0  0  0  0  0
   57.7694   24.9082   42.2129 H   0  0  0  0  0  0  0  0  0  0  0  0
   58.8208   26.5562   43.7562 H   0  0  0  0  0  0  0  0  0  0  0  0
   57.8247   30.3877   49.0901 H   0  0  0  0  0  0  0  0  0  0  0  0
   59.5197   30.6701   49.6487 H   0  0  0  0  0  0  0  0  0  0  0  0
   57.5397   32.5772   48.5977 H   0  0  0  0  0  0  0  0  0  0  0  0
   59.1192   32.8522   49.4808 H   0  0  0  0  0  0  0  0  0  0  0  0
   61.0470   32.8801   46.5078 H   0  0  0  0  0  0  0  0  0  0  0  0
   61.0647   32.4043   48.2391 H   0  0  0  0  0  0  0  0  0  0  0  0
   60.2144   30.7827   45.8061 H   0  0  0  0  0  0  0  0  0  0  0  0
   61.3509   30.3412   47.1323 H   0  0  0  0  0  0  0  0  0  0  0  0
   59.5718   30.3514   44.7941 H   0  0  0  0  0  0  0  0  0  0  0  0
   58.7030   31.7443   42.9148 H   0  0  0  0  0  0  0  0  0  0  0  0
   56.3570   31.4456   42.1162 H   0  0  0  0  0  0  0  0  0  0  0  0
   54.8688   29.7672   43.2088 H   0  0  0  0  0  0  0  0  0  0  0  0
  1  2  1  0
  2  3  2  0
  3  4  1  0
  4  5  1  0
  4  6  2  0
  6  7  1  0
  7  8  2  0
  8  9  1  0
  9 10  1  0
 10 11  1  0
 11 12  2  0
 12 13  1  0
 13 14  1  0
 14 15  1  0
 15 16  1  0
 16 17  1  0
 17 18  1  0
 12 19  1  0
 19 20  1  0
 20 21  2  0
 21 22  1  0
 22 23  2  0
 23 24  1  0
 24 25  2  0
 25 26  1  0
  8  2  1  0
 19  9  2  0
 25 20  1  0
 18 13  1  0
  3 27  1  0
  5 28  1  0
  6 29  1  0
  7 30  1  0
 14 31  1  0
 14 32  1  0
 15 33  1  0
 15 34  1  0
 17 35  1  0
 17 36  1  0
 18 37  1  0
 18 38  1  0
 21 39  1  0
 22 40  1  0
 23 41  1  0
 24 42  1  0
M  CHG  3   1  -1  10  -1  26  -1
M  END
>  <UniqueID>  (88) 
82

>  <SMILES>  (88) 
[O-]c1cc(O)ccc1-c1[n-]nc(N2CCOCC2)c1-c1ccccc1[O-]

>  <Energy>  (88) 
94.79947780889584

>  <Genealogy>  (88) 
[O-]c1cc(O)ccc1-c1[n-]nc(N2CCOCC2)c1-c1ccccc1[O-] (protonated)
[O-]c1cc(O)ccc1-c1[n-]nc(N2CCOCC2)c1-c1ccccc1[O-] (3D coordinates assigned)
[O-]c1cc(O)ccc1-c1[n-]nc(N2CCOCC2)c1-c1ccccc1[O-] (nonaromatic ring conformer: 94.79947780889584 kcal/mol)

>  <smiles>  (88) 
Oc1ccc(-c2[nH]nc(N3CCOCC3)c2-c2ccccc2O)c(O)c1

>  <score_type>  (88) 
oracle

>  <origin>  (88) 
adg

>  <m_score__min__energy>  (88) 
-14.27

>  <m_primary>  (88) 
energy

$$$$
88:0
     RDKit          3D

 60 63  0  0  0  0  0  0  0  0999 V2000
   58.7282   35.0503   46.7371 H   0  0  0  0  0  0  0  0  0  0  0  0
   58.5390   34.1500   46.1340 C   0  0  0  0  0  0  0  0  0  0  0  0
   59.0640   32.9170   46.5340 C   0  0  0  0  0  0  0  0  0  0  0  0
   59.6694   32.8496   47.4499 H   0  0  0  0  0  0  0  0  0  0  0  0
   58.8210   31.7690   45.7720 C   0  0  0  0  0  0  0  0  0  0  0  0
   59.2405   30.8022   46.0872 H   0  0  0  0  0  0  0  0  0  0  0  0
   58.0430   31.8480   44.6060 C   0  0  0  0  0  0  0  0  0  0  0  0
   57.8020   30.6190   43.7680 C   0  0  0  0  0  0  0  0  0  0  0  0
   58.2342   29.7471   44.2808 H   0  0  0  0  0  0  0  0  0  0  0  0
   58.2758   30.7733   42.7874 H   0  0  0  0  0  0  0  0  0  0  0  0
   56.3020   30.3720   43.5430 C   0  0  0  0  0  0  0  0  0  0  0  0
   56.1648   29.8719   42.5729 H   0  0  0  0  0  0  0  0  0  0  0  0
   55.7881   31.3444   43.5619 H   0  0  0  0  0  0  0  0  0  0  0  0
   55.7270   29.5320   44.5950 N   0  0  0  0  0  0  0  0  0  0  0  0
   56.4000   28.7230   45.3570 C   0  0  0  0  0  0  0  0  0  0  0  0
   55.8990   27.4920   45.6260 N   0  0  0  0  0  0  0  0  0  0  0  0
   56.5840   26.6310   46.4270 C   0  0  0  0  0  0  0  0  0  0  0  0
   56.1190   25.4450   46.6850 N   0  0  0  0  0  0  0  0  0  0  0  0
   56.3820   24.2530   45.8740 C   0  0  2  0  0  0  0  0  0  0  0  0
   56.1437   23.3917   46.5153 H   0  0  0  0  0  0  0  0  0  0  0  0
   57.8320   24.2020   45.3950 C   0  0  0  0  0  0  0  0  0  0  0  0
   58.3780   25.0987   45.7232 H   0  0  0  0  0  0  0  0  0  0  0  0
   58.3694   23.3344   45.8054 H   0  0  0  0  0  0  0  0  0  0  0  0
   57.7510   24.1530   43.8730 C   0  0  0  0  0  0  0  0  0  0  0  0
   57.9633   25.1471   43.4528 H   0  0  0  0  0  0  0  0  0  0  0  0
   58.4891   23.4458   43.4668 H   0  0  0  0  0  0  0  0  0  0  0  0
   56.3820   23.7380   43.5190 N   0  0  1  0  0  0  0  0  0  0  0  0
   56.1090   24.1670   42.6020 H   0  0  0  0  0  0  0  0  0  0  0  0
   56.2100   22.3000   43.4170 C   0  0  0  0  0  0  0  0  0  0  0  0
   56.5430   21.6760   42.3710 O   0  0  0  0  0  0  0  0  0  0  0  0
   55.5650   21.6000   44.4930 N   0  0  0  0  0  0  0  0  0  0  0  0
   56.1730   21.0780   45.6860 C   0  0  0  0  0  0  0  0  0  0  0  0
   57.4410   20.4620   45.6670 C   0  0  0  0  0  0  0  0  0  0  0  0
   57.9832   20.3531   44.7161 H   0  0  0  0  0  0  0  0  0  0  0  0
   58.0130   19.9880   46.8550 C   0  0  0  0  0  0  0  0  0  0  0  0
   58.9992   19.5012   46.8338 H   0  0  0  0  0  0  0  0  0  0  0  0
   57.3320   20.1330   48.0670 C   0  0  0  0  0  0  0  0  0  0  0  0
   57.7785   19.7518   48.9972 H   0  0  0  0  0  0  0  0  0  0  0  0
   56.0840   20.7620   48.0980 C   0  0  0  0  0  0  0  0  0  0  0  0
   55.5522   20.8786   49.0538 H   0  0  0  0  0  0  0  0  0  0  0  0
   55.5090   21.2440   46.9160 C   0  0  0  0  0  0  0  0  0  0  0  0
   53.9420   22.0430   46.9900 Cl  0  0  0  0  0  0  0  0  0  0  0  0
   55.5460   24.2850   44.5980 C   0  0  0  0  0  0  0  0  0  0  0  0
   55.2560   25.3197   44.3629 H   0  0  0  0  0  0  0  0  0  0  0  0
   54.6260   23.6941   44.7180 H   0  0  0  0  0  0  0  0  0  0  0  0
   57.7730   27.0110   46.9580 N   0  0  0  0  0  0  0  0  0  0  0  0
   58.2830   28.2390   46.6940 C   0  0  0  0  0  0  0  0  0  0  0  0
   59.4200   28.5840   47.2180 N   0  0  0  0  0  0  0  0  0  0  0  0
   59.6380   28.8690   48.6360 C   0  0  0  0  0  0  0  0  0  0  0  0
   60.7090   28.7642   48.8642 H   0  0  0  0  0  0  0  0  0  0  0  0
   59.0474   28.1584   49.2328 H   0  0  0  0  0  0  0  0  0  0  0  0
   59.1900   30.2860   48.9800 C   0  0  0  0  0  0  0  0  0  0  0  0
   59.1528   30.4036   50.0731 H   0  0  0  0  0  0  0  0  0  0  0  0
   59.9034   31.0089   48.5575 H   0  0  0  0  0  0  0  0  0  0  0  0
   58.1907   30.4674   48.5575 H   0  0  0  0  0  0  0  0  0  0  0  0
   57.5930   29.0930   45.8910 N   0  0  0  0  0  0  0  0  0  0  0  0
   57.5280   33.0930   44.2040 C   0  0  0  0  0  0  0  0  0  0  0  0
   56.9289   33.1666   43.2844 H   0  0  0  0  0  0  0  0  0  0  0  0
   57.7740   34.2380   44.9680 C   0  0  0  0  0  0  0  0  0  0  0  0
   57.3650   35.2087   44.6509 H   0  0  0  0  0  0  0  0  0  0  0  0
  1  2  1  0
  2  3  2  0
  3  4  1  0
  3  5  1  0
  5  6  1  0
  5  7  2  0
  7  8  1  0
  8  9  1  0
  8 10  1  0
  8 11  1  0
 11 12  1  0
 11 13  1  0
 11 14  1  0
 14 15  2  0
 15 16  1  0
 16 17  1  0
 17 18  2  3
 18 19  1  0
 19 20  1  1
 19 21  1  0
 21 22  1  0
 21 23  1  0
 21 24  1  0
 24 25  1  0
 24 26  1  0
 24 27  1  0
 27 28  1  6
 27 29  1  0
 29 30  2  0
 29 31  1  0
 31 32  1  0
 32 33  2  0
 33 34  1  0
 33 35  1  0
 35 36  1  0
 35 37  2  0
 37 38  1  0
 37 39  1  0
 39 40  1  0
 39 41  2  0
 41 42  1  0
 27 43  1  0
 43 44  1  0
 43 45  1  0
 17 46  1  0
 46 47  1  0
 47 48  2  0
 48 49  1  0
 49 50  1  0
 49 51  1  0
 49 52  1  0
 52 53  1  0
 52 54  1  0
 52 55  1  0
 47 56  1  0
  7 57  1  0
 57 58  1  0
 57 59  2  0
 59 60  1  0
 59  2  1  0
 56 15  1  0
 43 19  1  0
 41 32  1  0
M  CHG  5  16  -1  27   1  31  -1  46  -1  56  -1
M  END
>  <UniqueID>  (89) 
83

>  <SMILES>  (89) 
CC/N=c1/[n-]c(=N[C@@H]2CC[N@@H+](C(=O)[N-]c3ccccc3Cl)C2)[n-]/c(=N/CCc2ccccc2)[n-]1

>  <Energy>  (89) 
68.85545822082472

>  <Genealogy>  (89) 
CCN=c1[n-]c(=NCCc2ccccc2)[n-]c(=NC2CC[NH+](C(=O)[N-]c3ccccc3Cl)C2)[n-]1 (protonated)
CCN=c1[n-]c(=NCCc2ccccc2)[n-]c(=N[C@@H]2CC[N@@H+](C(=O)[N-]c3ccccc3Cl)C2)[n-]1 (chirality)
CC/N=c1/[n-]c(=N[C@@H]2CC[N@@H+](C(=O)[N-]c3ccccc3Cl)C2)[n-]/c(=N/CCc2ccccc2)[n-]1 (cis-trans isomerization)
CC/N=c1/[n-]c(=N[C@@H]2CC[N@@H+](C(=O)[N-]c3ccccc3Cl)C2)[n-]/c(=N/CCc2ccccc2)[n-]1 (3D coordinates assigned)
CC/N=c1/[n-]c(=N[C@@H]2CC[N@@H+](C(=O)[N-]c3ccccc3Cl)C2)[n-]/c(=N/CCc2ccccc2)[n-]1 (nonaromatic ring conformer: 68.85545822082472 kcal/mol)

>  <smiles>  (89) 
CCN=c1[nH]c(=NCCc2ccccc2)[nH]c(=NC2CCN(C(=O)Nc3ccccc3Cl)C2)[nH]1

>  <score_type>  (89) 
oracle

>  <origin>  (89) 
adg

>  <m_score__min__energy>  (89) 
-13.66

>  <m_primary>  (89) 
energy

$$$$
89:0
     RDKit          3D

 30 31  0  0  0  0  0  0  0  0999 V2000
   55.8870   30.0310   44.8760 O   0  0  0  0  0  0  0  0  0  0  0  0
   56.9320   29.6130   44.3080 C   0  0  0  0  0  0  0  0  0  0  0  0
   57.3770   28.2040   44.5290 C   0  0  0  0  0  0  0  0  0  0  0  0
   59.1870   28.1140   44.3580 S   0  0  0  0  0  0  0  0  0  0  0  0
   59.4970   28.9640   45.9070 C   0  0  0  0  0  0  0  0  0  0  0  0
   58.6770   28.7220   47.0150 C   0  0  0  0  0  0  0  0  0  0  0  0
   58.9200   29.3840   48.2240 C   0  0  0  0  0  0  0  0  0  0  0  0
   59.9840   30.2860   48.3260 C   0  0  0  0  0  0  0  0  0  0  0  0
   60.8060   30.5260   47.2200 C   0  0  0  0  0  0  0  0  0  0  0  0
   60.5640   29.8660   46.0110 C   0  0  0  0  0  0  0  0  0  0  0  0
   57.7180   30.4950   43.4950 N   0  0  0  0  0  0  0  0  0  0  0  0
   57.4080   31.9140   43.3540 C   0  0  0  0  0  0  0  0  0  0  0  0
   58.0190   32.6900   44.4780 C   0  0  0  0  0  0  0  0  0  0  0  0
   58.7860   33.8420   44.3430 C   0  0  0  0  0  0  0  0  0  0  0  0
   59.2640   34.3300   45.5640 C   0  0  0  0  0  0  0  0  0  0  0  0
   58.8740   33.5580   46.6490 C   0  0  0  0  0  0  0  0  0  0  0  0
   59.2930   33.8620   48.3210 Cl  0  0  0  0  0  0  0  0  0  0  0  0
   57.9430   32.2700   46.1060 S   0  0  0  0  0  0  0  0  0  0  0  0
   57.0864   27.8806   45.5394 H   0  0  0  0  0  0  0  0  0  0  0  0
   56.9025   27.5458   43.7863 H   0  0  0  0  0  0  0  0  0  0  0  0
   57.8412   28.0113   46.9357 H   0  0  0  0  0  0  0  0  0  0  0  0
   58.2741   29.1948   49.0941 H   0  0  0  0  0  0  0  0  0  0  0  0
   60.1744   30.8067   49.2761 H   0  0  0  0  0  0  0  0  0  0  0  0
   61.6435   31.2345   47.3012 H   0  0  0  0  0  0  0  0  0  0  0  0
   61.2113   30.0550   45.1419 H   0  0  0  0  0  0  0  0  0  0  0  0
   58.5580   30.1170   43.0020 H   0  0  0  0  0  0  0  0  0  0  0  0
   57.8105   32.2807   42.3982 H   0  0  0  0  0  0  0  0  0  0  0  0
   56.3163   32.0472   43.3773 H   0  0  0  0  0  0  0  0  0  0  0  0
   58.9955   34.3207   43.3751 H   0  0  0  0  0  0  0  0  0  0  0  0
   59.8853   35.2332   45.6546 H   0  0  0  0  0  0  0  0  0  0  0  0
  1  2  2  0
  2  3  1  0
  3  4  1  0
  4  5  1  0
  5  6  2  0
  6  7  1  0
  7  8  2  0
  8  9  1  0
  9 10  2  0
  2 11  1  0
 11 12  1  0
 12 13  1  0
 13 14  2  0
 14 15  1  0
 15 16  2  0
 16 17  1  0
 16 18  1  0
 10  5  1  0
 18 13  1  0
  3 19  1  0
  3 20  1  0
  6 21  1  0
  7 22  1  0
  8 23  1  0
  9 24  1  0
 10 25  1  0
 11 26  1  0
 12 27  1  0
 12 28  1  0
 14 29  1  0
 15 30  1  0
M  END
>  <UniqueID>  (90) 
84

>  <SMILES>  (90) 
O=C(CSc1ccccc1)NCc1ccc(Cl)s1

>  <Energy>  (90) 
47.44743752367634

>  <Genealogy>  (90) 
O=C(CSc1ccccc1)NCc1ccc(Cl)s1 (3D coordinates assigned)
O=C(CSc1ccccc1)NCc1ccc(Cl)s1 (optimized conformer: 47.44743752367634 kcal/mol)

>  <smiles>  (90) 
O=C(CSc1ccccc1)NCc1ccc(Cl)s1

>  <score_type>  (90) 
oracle

>  <origin>  (90) 
adg

>  <m_score__min__energy>  (90) 
-6.7999999999999998

>  <m_primary>  (90) 
energy

$$$$
90:0
     RDKit          3D

 46 48  0  0  0  0  0  0  0  0999 V2000
   58.4470   24.4250   46.5250 O   0  0  0  0  0  0  0  0  0  0  0  0
   57.4240   25.1610   46.5860 C   0  0  0  0  0  0  0  0  0  0  0  0
   56.2460   24.6900   47.2600 N   0  0  0  0  0  0  0  0  0  0  0  0
   56.0540   23.2870   47.6290 C   0  0  0  0  0  0  0  0  0  0  0  0
   55.0890   22.5890   46.6620 C   0  0  0  0  0  0  0  0  0  0  0  0
   55.6640   22.4680   45.2750 C   0  0  0  0  0  0  0  0  0  0  0  0
   56.3750   21.3160   44.8960 C   0  0  0  0  0  0  0  0  0  0  0  0
   56.8690   21.1880   43.5950 C   0  0  0  0  0  0  0  0  0  0  0  0
   56.6600   22.2090   42.6630 C   0  0  0  0  0  0  0  0  0  0  0  0
   55.9560   23.3590   43.0320 C   0  0  0  0  0  0  0  0  0  0  0  0
   55.4580   23.4880   44.3320 C   0  0  0  0  0  0  0  0  0  0  0  0
   57.4720   26.5160   45.9890 C   0  0  0  0  0  0  0  0  0  0  0  0
   58.7170   27.0780   45.6560 C   0  0  0  0  0  0  0  0  0  0  0  0
   58.7940   28.3540   45.0950 C   0  0  0  0  0  0  0  0  0  0  0  0
   57.6290   29.0950   44.8550 C   0  0  0  0  0  0  0  0  0  0  0  0
   57.7200   30.4690   44.2440 C   0  0  0  0  0  0  0  0  0  0  0  0
   57.2180   31.4590   45.1420 O   0  0  0  0  0  0  0  0  0  0  0  0
   57.9120   32.6090   45.5530 C   0  0  0  0  0  0  0  0  0  0  0  0
   58.3480   33.5050   44.5680 C   0  0  0  0  0  0  0  0  0  0  0  0
   59.0470   34.6630   44.9220 C   0  0  0  0  0  0  0  0  0  0  0  0
   59.3140   34.9370   46.2650 C   0  0  0  0  0  0  0  0  0  0  0  0
   58.8800   34.0530   47.2570 C   0  0  0  0  0  0  0  0  0  0  0  0
   58.1800   32.8940   46.9070 C   0  0  0  0  0  0  0  0  0  0  0  0
   56.3820   28.5280   45.1550 C   0  0  0  0  0  0  0  0  0  0  0  0
   56.2970   27.2480   45.7130 C   0  0  0  0  0  0  0  0  0  0  0  0
   55.0400   26.7090   45.9610 O   0  0  0  0  0  0  0  0  0  0  0  0
   55.5310   25.3810   47.5770 H   0  0  0  0  0  0  0  0  0  0  0  0
   57.0256   22.7720   47.6012 H   0  0  0  0  0  0  0  0  0  0  0  0
   55.6244   23.2474   48.6409 H   0  0  0  0  0  0  0  0  0  0  0  0
   54.8711   21.5810   47.0446 H   0  0  0  0  0  0  0  0  0  0  0  0
   54.1753   23.1981   46.5975 H   0  0  0  0  0  0  0  0  0  0  0  0
   56.5433   20.5115   45.6270 H   0  0  0  0  0  0  0  0  0  0  0  0
   57.4227   20.2832   43.3040 H   0  0  0  0  0  0  0  0  0  0  0  0
   57.0495   22.1074   41.6393 H   0  0  0  0  0  0  0  0  0  0  0  0
   55.7938   24.1630   42.2990 H   0  0  0  0  0  0  0  0  0  0  0  0
   54.9020   24.3931   44.6176 H   0  0  0  0  0  0  0  0  0  0  0  0
   59.6391   26.5069   45.8392 H   0  0  0  0  0  0  0  0  0  0  0  0
   59.7753   28.7805   44.8397 H   0  0  0  0  0  0  0  0  0  0  0  0
   58.7722   30.6919   44.0135 H   0  0  0  0  0  0  0  0  0  0  0  0
   57.1141   30.4868   43.3261 H   0  0  0  0  0  0  0  0  0  0  0  0
   58.1388   33.2959   43.5085 H   0  0  0  0  0  0  0  0  0  0  0  0
   59.3872   35.3593   44.1413 H   0  0  0  0  0  0  0  0  0  0  0  0
   59.8653   35.8477   46.5420 H   0  0  0  0  0  0  0  0  0  0  0  0
   59.0895   34.2694   48.3150 H   0  0  0  0  0  0  0  0  0  0  0  0
   57.8375   32.2026   47.6910 H   0  0  0  0  0  0  0  0  0  0  0  0
   55.4621   29.0950   44.9496 H   0  0  0  0  0  0  0  0  0  0  0  0
  1  2  2  0
  2  3  1  0
  3  4  1  0
  4  5  1  0
  5  6  1  0
  6  7  2  0
  7  8  1  0
  8  9  2  0
  9 10  1  0
 10 11  2  0
  2 12  1  0
 12 13  2  0
 13 14  1  0
 14 15  2  0
 15 16  1  0
 16 17  1  0
 17 18  1  0
 18 19  2  0
 19 20  1  0
 20 21  2  0
 21 22  1  0
 22 23  2  0
 15 24  1  0
 24 25  2  0
 25 26  1  0
 11  6  1  0
 25 12  1  0
 23 18  1  0
  3 27  1  0
  4 28  1  0
  4 29  1  0
  5 30  1  0
  5 31  1  0
  7 32  1  0
  8 33  1  0
  9 34  1  0
 10 35  1  0
 11 36  1  0
 13 37  1  0
 14 38  1  0
 16 39  1  0
 16 40  1  0
 19 41  1  0
 20 42  1  0
 21 43  1  0
 22 44  1  0
 23 45  1  0
 24 46  1  0
M  CHG  1  26  -1
M  END
>  <UniqueID>  (91) 
85

>  <SMILES>  (91) 
O=C(NCCc1ccccc1)c1ccc(COc2ccccc2)cc1[O-]

>  <Energy>  (91) 
47.55173035054583

>  <Genealogy>  (91) 
O=C(NCCc1ccccc1)c1ccc(COc2ccccc2)cc1[O-] (protonated)
O=C(NCCc1ccccc1)c1ccc(COc2ccccc2)cc1[O-] (3D coordinates assigned)
O=C(NCCc1ccccc1)c1ccc(COc2ccccc2)cc1[O-] (optimized conformer: 47.55173035054583 kcal/mol)

>  <smiles>  (91) 
O=C(NCCc1ccccc1)c1ccc(COc2ccccc2)cc1O

>  <score_type>  (91) 
oracle

>  <origin>  (91) 
adg

>  <m_score__min__energy>  (91) 
-12.199999999999999

>  <m_primary>  (91) 
energy

$$$$
