0:0
     RDKit          3D

 24 25  0  0  0  0  0  0  0  0999 V2000
   59.3090   35.0010   47.4820 C   0  0  0  0  0  0  0  0  0  0  0  0
   58.5890   34.0370   46.6100 C   0  0  0  0  0  0  0  0  0  0  0  0
   59.0970   33.3010   45.5780 N   0  0  0  0  0  0  0  0  0  0  0  0
   58.0890   32.5700   45.0750 C   0  0  0  0  0  0  0  0  0  0  0  0
   58.1460   31.4040   43.6980 S   0  0  0  0  0  0  0  0  0  0  0  0
   58.4110   29.7340   44.3300 C   0  0  0  0  0  0  0  0  0  0  0  0
   59.6890   29.3140   44.7090 C   0  0  0  0  0  0  0  0  0  0  0  0
   59.8340   28.0110   45.1940 C   0  0  0  0  0  0  0  0  0  0  0  0
   58.7590   27.1520   45.3000 C   0  0  0  0  0  0  0  0  0  0  0  0
   57.5000   27.5740   44.9220 C   0  0  0  0  0  0  0  0  0  0  0  0
   57.3500   28.8590   44.4440 C   0  0  0  0  0  0  0  0  0  0  0  0
   56.0680   29.3380   44.0430 N   0  0  0  0  0  0  0  0  0  0  0  0
   55.1510   29.3950   44.8830 O   0  0  0  0  0  0  0  0  0  0  0  0
   55.8120   29.7440   42.7430 O   0  0  0  0  0  0  0  0  0  0  0  0
   56.9810   32.8560   45.7890 N   0  0  0  0  0  0  0  0  0  0  0  0
   57.2700   33.7460   46.7260 N   0  0  0  0  0  0  0  0  0  0  0  0
   59.1225   34.7513   48.5369 H   0  0  0  0  0  0  0  0  0  0  0  0
   60.3883   34.9452   47.2773 H   0  0  0  0  0  0  0  0  0  0  0  0
   58.9492   36.0201   47.2773 H   0  0  0  0  0  0  0  0  0  0  0  0
   60.5544   29.9882   44.6281 H   0  0  0  0  0  0  0  0  0  0  0  0
   60.8312   27.6611   45.4992 H   0  0  0  0  0  0  0  0  0  0  0  0
   58.9052   26.1321   45.6853 H   0  0  0  0  0  0  0  0  0  0  0  0
   56.6346   26.8995   45.0004 H   0  0  0  0  0  0  0  0  0  0  0  0
   56.6180   34.1720   47.4450 H   0  0  0  0  0  0  0  0  0  0  0  0
  1  2  1  0
  2  3  2  0
  3  4  1  0
  4  5  1  0
  5  6  1  0
  6  7  2  0
  7  8  1  0
  8  9  2  0
  9 10  1  0
 10 11  2  0
 11 12  1  0
 12 13  2  0
 12 14  1  0
  4 15  2  0
 15 16  1  0
 16  2  1  0
 11  6  1  0
  1 17  1  0
  1 18  1  0
  1 19  1  0
  7 20  1  0
  8 21  1  0
  9 22  1  0
 10 23  1  0
 16 24  1  0
M  CHG  2  12   1  14  -1
M  END
>  <smiles>  (1) 
Cc1nc(Sc2ccccc2[N+](=O)[O-])n[nH]1

>  <score_type>  (1) 
oracle

>  <origin>  (1) 
adg

>  <m_score__min__energy>  (1) 
-6.6500000000000004

>  <m_primary>  (1) 
energy

$$$$
1:0
     RDKit          3D

 40 42  0  0  0  0  0  0  0  0999 V2000
   55.4900   25.5230   46.0390 O   0  0  0  0  0  0  0  0  0  0  0  0
   56.5470   26.1370   45.7360 C   0  0  0  0  0  0  0  0  0  0  0  0
   56.7550   27.4540   46.2610 N   0  0  0  0  0  0  0  0  0  0  0  0
   57.0480   28.6240   45.4870 C   0  0  0  0  0  0  0  0  0  0  0  0
   58.3180   29.2230   45.5170 C   0  0  0  0  0  0  0  0  0  0  0  0
   58.5720   30.3730   44.7660 C   0  0  0  0  0  0  0  0  0  0  0  0
   57.5600   30.9470   43.9770 C   0  0  0  0  0  0  0  0  0  0  0  0
   57.8240   32.1570   43.1640 C   0  0  0  0  0  0  0  0  0  0  0  0
   57.8670   32.0610   41.9080 O   0  0  0  0  0  0  0  0  0  0  0  0
   57.9840   33.4530   43.7590 N   0  0  0  0  0  0  0  0  0  0  0  0
   58.4430   33.7230   45.0910 C   0  0  0  0  0  0  0  0  0  0  0  0
   59.5740   34.5260   45.3350 C   0  0  0  0  0  0  0  0  0  0  0  0
   59.9890   34.7750   46.6470 C   0  0  0  0  0  0  0  0  0  0  0  0
   59.2730   34.2410   47.7220 C   0  0  0  0  0  0  0  0  0  0  0  0
   59.6760   34.4840   48.9930 F   0  0  0  0  0  0  0  0  0  0  0  0
   58.1340   33.4650   47.4850 C   0  0  0  0  0  0  0  0  0  0  0  0
   57.7180   33.2140   46.1740 C   0  0  0  0  0  0  0  0  0  0  0  0
   56.2770   30.3720   43.9910 C   0  0  0  0  0  0  0  0  0  0  0  0
   56.0250   29.2220   44.7450 C   0  0  0  0  0  0  0  0  0  0  0  0
   57.5090   25.5370   44.8520 N   0  0  0  0  0  0  0  0  0  0  0  0
   57.3960   24.1940   44.3610 C   0  0  0  0  0  0  0  0  0  0  0  0
   56.4140   23.8950   43.4030 C   0  0  0  0  0  0  0  0  0  0  0  0
   56.2720   22.5900   42.9210 C   0  0  0  0  0  0  0  0  0  0  0  0
   57.0960   21.5710   43.4040 C   0  0  0  0  0  0  0  0  0  0  0  0
   58.0580   21.8530   44.3780 C   0  0  0  0  0  0  0  0  0  0  0  0
   58.2060   23.1570   44.8640 C   0  0  0  0  0  0  0  0  0  0  0  0
   59.0990   23.3940   45.8570 F   0  0  0  0  0  0  0  0  0  0  0  0
   59.1159   28.7847   46.1344 H   0  0  0  0  0  0  0  0  0  0  0  0
   59.5710   30.8327   44.7921 H   0  0  0  0  0  0  0  0  0  0  0  0
   60.1323   34.9583   44.4915 H   0  0  0  0  0  0  0  0  0  0  0  0
   60.8803   35.3921   46.8333 H   0  0  0  0  0  0  0  0  0  0  0  0
   57.5649   33.0517   48.3308 H   0  0  0  0  0  0  0  0  0  0  0  0
   56.8150   32.6125   45.9929 H   0  0  0  0  0  0  0  0  0  0  0  0
   55.4664   30.8299   43.4050 H   0  0  0  0  0  0  0  0  0  0  0  0
   55.0156   28.7849   44.7545 H   0  0  0  0  0  0  0  0  0  0  0  0
   58.3910   26.0530   44.6380 H   0  0  0  0  0  0  0  0  0  0  0  0
   55.7531   24.6912   43.0298 H   0  0  0  0  0  0  0  0  0  0  0  0
   55.5100   22.3656   42.1601 H   0  0  0  0  0  0  0  0  0  0  0  0
   56.9879   20.5467   43.0179 H   0  0  0  0  0  0  0  0  0  0  0  0
   58.7005   21.0477   44.7636 H   0  0  0  0  0  0  0  0  0  0  0  0
  1  2  2  0
  2  3  1  0
  3  4  1  0
  4  5  2  0
  5  6  1  0
  6  7  2  0
  7  8  1  0
  8  9  2  0
  8 10  1  0
 10 11  1  0
 11 12  2  0
 12 13  1  0
 13 14  2  0
 14 15  1  0
 14 16  1  0
 16 17  2  0
  7 18  1  0
 18 19  2  0
  2 20  1  0
 20 21  1  0
 21 22  2  0
 22 23  1  0
 23 24  2  0
 24 25  1  0
 25 26  2  0
 26 27  1  0
 19  4  1  0
 26 21  1  0
 17 11  1  0
  5 28  1  0
  6 29  1  0
 12 30  1  0
 13 31  1  0
 16 32  1  0
 17 33  1  0
 18 34  1  0
 19 35  1  0
 20 36  1  0
 22 37  1  0
 23 38  1  0
 24 39  1  0
 25 40  1  0
M  CHG  2   3  -1  10  -1
M  END
>  <UniqueID>  (2) 
1

>  <SMILES>  (2) 
O=C([N-]c1ccc(C(=O)[N-]c2ccc(F)cc2)cc1)Nc1ccccc1F

>  <Energy>  (2) 
59.101510488043104

>  <Genealogy>  (2) 
O=C([N-]c1ccc(C(=O)[N-]c2ccc(F)cc2)cc1)Nc1ccccc1F (protonated)
O=C([N-]c1ccc(C(=O)[N-]c2ccc(F)cc2)cc1)Nc1ccccc1F (3D coordinates assigned)
O=C([N-]c1ccc(C(=O)[N-]c2ccc(F)cc2)cc1)Nc1ccccc1F (optimized conformer: 59.101510488043104 kcal/mol)

>  <smiles>  (2) 
O=C(Nc1ccc(C(=O)Nc2ccc(F)cc2)cc1)Nc1ccccc1F

>  <score_type>  (2) 
oracle

>  <origin>  (2) 
adg

>  <m_score__min__energy>  (2) 
-11.07

>  <m_primary>  (2) 
energy

$$$$
2:0
     RDKit          3D

 49 52  0  0  0  0  0  0  0  0999 V2000
   55.5500   29.2140   44.8560 N   0  0  0  0  0  0  0  0  0  0  0  0
   57.2570   29.3130   45.1070 S   0  0  0  0  0  0  0  0  0  0  0  0
   57.5670   28.9330   46.5280 O   0  0  0  0  0  0  0  0  0  0  0  0
   57.9610   28.3480   44.1960 O   0  0  0  0  0  0  0  0  0  0  0  0
   57.8100   30.9640   44.7890 C   0  0  0  0  0  0  0  0  0  0  0  0
   57.4450   31.5750   43.5790 C   0  0  0  0  0  0  0  0  0  0  0  0
   57.8210   32.8900   43.3040 C   0  0  0  0  0  0  0  0  0  0  0  0
   58.5670   33.6140   44.2340 C   0  0  0  0  0  0  0  0  0  0  0  0
   58.9480   33.0190   45.4380 C   0  0  0  0  0  0  0  0  0  0  0  0
   58.5890   31.6920   45.7240 C   0  0  0  0  0  0  0  0  0  0  0  0
   59.0430   31.1010   47.0000 C   0  0  0  0  0  0  0  0  0  0  0  0
   60.0040   30.0780   47.0090 C   0  0  0  0  0  0  0  0  0  0  0  0
   60.4400   29.5330   48.2190 C   0  0  0  0  0  0  0  0  0  0  0  0
   59.9190   29.9970   49.4320 C   0  0  0  0  0  0  0  0  0  0  0  0
   60.4260   29.4580   50.6590 N   0  0  0  0  0  0  0  0  0  0  0  0
   59.8080   29.5680   51.9480 C   0  0  0  0  0  0  0  0  0  0  0  0
   60.5280   29.8520   52.9420 O   0  0  0  0  0  0  0  0  0  0  0  0
   58.3630   29.2060   52.1750 C   0  0  0  0  0  0  0  0  0  0  0  0
   57.6150   30.3320   52.8980 C   0  0  0  0  0  0  0  0  0  0  0  0
   56.1300   30.1340   52.8360 C   0  0  0  0  0  0  0  0  0  0  0  0
   55.5730   28.9950   53.3280 N   0  0  0  0  0  0  0  0  0  0  0  0
   54.2360   28.7720   53.2560 C   0  0  0  0  0  0  0  0  0  0  0  0
   53.7620   27.7030   53.7240 O   0  0  0  0  0  0  0  0  0  0  0  0
   53.4010   29.7350   52.6630 C   0  0  0  0  0  0  0  0  0  0  0  0
   52.0080   29.5700   52.5680 C   0  0  0  0  0  0  0  0  0  0  0  0
   51.2250   30.5690   51.9790 C   0  0  0  0  0  0  0  0  0  0  0  0
   51.8230   31.7290   51.4770 C   0  0  0  0  0  0  0  0  0  0  0  0
   51.0400   32.7130   50.8860 O   0  0  0  0  0  0  0  0  0  0  0  0
   53.2090   31.8980   51.5650 C   0  0  0  0  0  0  0  0  0  0  0  0
   54.0000   30.9070   52.1550 C   0  0  0  0  0  0  0  0  0  0  0  0
   55.3450   31.0730   52.2470 N   0  0  0  0  0  0  0  0  0  0  0  0
   58.9880   31.0490   49.4270 C   0  0  0  0  0  0  0  0  0  0  0  0
   58.5490   31.5930   48.2170 C   0  0  0  0  0  0  0  0  0  0  0  0
   55.1580   28.6560   45.6460 H   0  0  0  0  0  0  0  0  0  0  0  0
   56.8565   31.0112   42.8402 H   0  0  0  0  0  0  0  0  0  0  0  0
   57.5286   33.3568   42.3519 H   0  0  0  0  0  0  0  0  0  0  0  0
   58.8550   34.6536   44.0187 H   0  0  0  0  0  0  0  0  0  0  0  0
   59.5346   33.5948   46.1690 H   0  0  0  0  0  0  0  0  0  0  0  0
   60.4153   29.7041   46.0598 H   0  0  0  0  0  0  0  0  0  0  0  0
   61.1969   28.7348   48.2183 H   0  0  0  0  0  0  0  0  0  0  0  0
   57.8823   29.0228   51.2027 H   0  0  0  0  0  0  0  0  0  0  0  0
   58.3251   28.3039   52.8033 H   0  0  0  0  0  0  0  0  0  0  0  0
   57.9293   30.3506   53.9520 H   0  0  0  0  0  0  0  0  0  0  0  0
   57.8574   31.2824   52.4000 H   0  0  0  0  0  0  0  0  0  0  0  0
   51.5341   28.6564   52.9563 H   0  0  0  0  0  0  0  0  0  0  0  0
   50.1346   30.4413   51.9106 H   0  0  0  0  0  0  0  0  0  0  0  0
   53.6772   32.8115   51.1696 H   0  0  0  0  0  0  0  0  0  0  0  0
   58.6035   31.4456   50.3782 H   0  0  0  0  0  0  0  0  0  0  0  0
   57.8130   32.4105   48.2190 H   0  0  0  0  0  0  0  0  0  0  0  0
  1  2  1  0
  2  3  2  0
  2  4  2  0
  2  5  1  0
  5  6  2  0
  6  7  1  0
  7  8  2  0
  8  9  1  0
  9 10  2  0
 10 11  1  0
 11 12  2  0
 12 13  1  0
 13 14  2  0
 14 15  1  0
 15 16  1  0
 16 17  2  0
 16 18  1  0
 18 19  1  0
 19 20  1  0
 20 21  2  0
 21 22  1  0
 22 23  2  0
 22 24  1  0
 24 25  2  0
 25 26  1  0
 26 27  2  0
 27 28  1  0
 27 29  1  0
 29 30  2  0
 30 31  1  0
 14 32  1  0
 32 33  2  0
 10  5  1  0
 33 11  1  0
 31 20  1  0
 30 24  1  0
  1 34  1  0
  6 35  1  0
  7 36  1  0
  8 37  1  0
  9 38  1  0
 12 39  1  0
 13 40  1  0
 18 41  1  0
 18 42  1  0
 19 43  1  0
 19 44  1  0
 25 45  1  0
 26 46  1  0
 29 47  1  0
 32 48  1  0
 33 49  1  0
M  CHG  4   1  -1  15  -1  28  -1  31  -1
M  END
>  <UniqueID>  (3) 
2

>  <SMILES>  (3) 
[NH-]S(=O)(=O)c1ccccc1-c1ccc([N-]C(=O)CCc2nc(=O)c3ccc([O-])cc3[n-]2)cc1

>  <Energy>  (3) 
63.44901299517022

>  <Genealogy>  (3) 
[NH-]S(=O)(=O)c1ccccc1-c1ccc([N-]C(=O)CCc2nc(=O)c3ccc([O-])cc3[n-]2)cc1 (protonated)
[NH-]S(=O)(=O)c1ccccc1-c1ccc([N-]C(=O)CCc2nc(=O)c3ccc([O-])cc3[n-]2)cc1 (3D coordinates assigned)
[NH-]S(=O)(=O)c1ccccc1-c1ccc([N-]C(=O)CCc2nc(=O)c3ccc([O-])cc3[n-]2)cc1 (optimized conformer: 63.44901299517022 kcal/mol)

>  <smiles>  (3) 
NS(=O)(=O)c1ccccc1-c1ccc(NC(=O)CCc2nc(=O)c3ccc(O)cc3[nH]2)cc1

>  <score_type>  (3) 
oracle

>  <origin>  (3) 
adg

>  <m_score__min__energy>  (3) 
-18.260000000000002

>  <m_primary>  (3) 
energy

$$$$
3:0
     RDKit          3D

 45 47  0  0  0  0  0  0  0  0999 V2000
   60.8440   28.5970   45.6970 C   0  0  0  0  0  0  0  0  0  0  0  0
   59.6160   27.7390   45.8530 C   0  0  0  0  0  0  0  0  0  0  0  0
   59.7130   26.3540   45.6360 C   0  0  0  0  0  0  0  0  0  0  0  0
   58.5910   25.5350   45.7750 C   0  0  0  0  0  0  0  0  0  0  0  0
   57.3550   26.0850   46.1250 C   0  0  0  0  0  0  0  0  0  0  0  0
   55.9360   25.0530   46.2660 S   0  0  0  0  0  0  0  0  0  0  0  0
   54.5130   25.9800   45.9540 N   0  0  0  0  0  0  0  0  0  0  0  0
   55.8630   24.4760   47.6520 O   0  0  0  0  0  0  0  0  0  0  0  0
   56.0280   23.9220   45.2790 O   0  0  0  0  0  0  0  0  0  0  0  0
   57.2440   27.4670   46.3230 C   0  0  0  0  0  0  0  0  0  0  0  0
   58.3670   28.3040   46.2000 C   0  0  0  0  0  0  0  0  0  0  0  0
   58.2280   29.7270   46.3780 N   0  0  0  0  0  0  0  0  0  0  0  0
   58.2840   30.6620   45.2870 C   0  0  0  0  0  0  0  0  0  0  0  0
   58.0940   30.2570   44.1070 O   0  0  0  0  0  0  0  0  0  0  0  0
   58.5160   32.1060   45.5330 C   0  0  0  0  0  0  0  0  0  0  0  0
   57.9920   33.0670   44.6510 C   0  0  0  0  0  0  0  0  0  0  0  0
   58.2130   34.4270   44.8710 C   0  0  0  0  0  0  0  0  0  0  0  0
   58.9630   34.8460   45.9720 C   0  0  0  0  0  0  0  0  0  0  0  0
   59.4960   33.9020   46.8670 C   0  0  0  0  0  0  0  0  0  0  0  0
   60.2690   34.2800   47.9740 O   0  0  0  0  0  0  0  0  0  0  0  0
   61.1420   33.4290   48.6680 C   0  0  0  0  0  0  0  0  0  0  0  0
   60.7250   32.9010   49.8950 C   0  0  0  0  0  0  0  0  0  0  0  0
   61.5610   32.0430   50.6160 C   0  0  0  0  0  0  0  0  0  0  0  0
   62.8270   31.7220   50.1230 C   0  0  0  0  0  0  0  0  0  0  0  0
   63.2650   32.2650   48.9120 C   0  0  0  0  0  0  0  0  0  0  0  0
   62.4330   33.1240   48.1810 C   0  0  0  0  0  0  0  0  0  0  0  0
   62.9370   33.7240   46.9710 C   0  0  0  0  0  0  0  0  0  0  0  0
   63.3430   34.2050   46.0000 N   0  0  0  0  0  0  0  0  0  0  0  0
   59.2800   32.5380   46.6350 C   0  0  0  0  0  0  0  0  0  0  0  0
   61.2310   28.8674   46.6905 H   0  0  0  0  0  0  0  0  0  0  0  0
   61.6133   28.0389   45.1433 H   0  0  0  0  0  0  0  0  0  0  0  0
   60.5845   29.5114   45.1433 H   0  0  0  0  0  0  0  0  0  0  0  0
   60.6801   25.9119   45.3545 H   0  0  0  0  0  0  0  0  0  0  0  0
   58.6803   24.4514   45.6082 H   0  0  0  0  0  0  0  0  0  0  0  0
   54.7750   26.7160   45.2610 H   0  0  0  0  0  0  0  0  0  0  0  0
   56.2667   27.9028   46.5778 H   0  0  0  0  0  0  0  0  0  0  0  0
   57.9910   30.0910   47.3270 H   0  0  0  0  0  0  0  0  0  0  0  0
   57.4028   32.7441   43.7801 H   0  0  0  0  0  0  0  0  0  0  0  0
   57.7957   35.1705   44.1759 H   0  0  0  0  0  0  0  0  0  0  0  0
   59.1374   35.9191   46.1396 H   0  0  0  0  0  0  0  0  0  0  0  0
   59.7340   33.1624   50.2945 H   0  0  0  0  0  0  0  0  0  0  0  0
   61.2207   31.6204   51.5729 H   0  0  0  0  0  0  0  0  0  0  0  0
   63.4804   31.0411   50.6882 H   0  0  0  0  0  0  0  0  0  0  0  0
   64.2667   32.0172   48.5310 H   0  0  0  0  0  0  0  0  0  0  0  0
   59.7120   31.7949   47.3214 H   0  0  0  0  0  0  0  0  0  0  0  0
  1  2  1  0
  2  3  2  0
  3  4  1  0
  4  5  2  0
  5  6  1  0
  6  7  1  0
  6  8  2  0
  6  9  2  0
  5 10  1  0
 10 11  2  0
 11 12  1  0
 12 13  1  0
 13 14  2  0
 13 15  1  0
 15 16  2  0
 16 17  1  0
 17 18  2  0
 18 19  1  0
 19 20  1  0
 20 21  1  0
 21 22  2  0
 22 23  1  0
 23 24  2  0
 24 25  1  0
 25 26  2  0
 26 27  1  0
 27 28  3  0
 19 29  2  0
 11  2  1  0
 29 15  1  0
 26 21  1  0
  1 30  1  0
  1 31  1  0
  1 32  1  0
  3 33  1  0
  4 34  1  0
  7 35  1  0
 10 36  1  0
 12 37  1  0
 16 38  1  0
 17 39  1  0
 18 40  1  0
 22 41  1  0
 23 42  1  0
 24 43  1  0
 25 44  1  0
 29 45  1  0
M  CHG  1   7  -1
M  END
>  <UniqueID>  (4) 
3

>  <SMILES>  (4) 
Cc1ccc(S([NH-])(=O)=O)cc1NC(=O)c1cccc(Oc2ccccc2C#N)c1

>  <Energy>  (4) 
61.349887893458835

>  <Genealogy>  (4) 
Cc1ccc(S([NH-])(=O)=O)cc1NC(=O)c1cccc(Oc2ccccc2C#N)c1 (protonated)
Cc1ccc(S([NH-])(=O)=O)cc1NC(=O)c1cccc(Oc2ccccc2C#N)c1 (3D coordinates assigned)
Cc1ccc(S([NH-])(=O)=O)cc1NC(=O)c1cccc(Oc2ccccc2C#N)c1 (optimized conformer: 61.349887893458835 kcal/mol)

>  <smiles>  (4) 
Cc1ccc(S(N)(=O)=O)cc1NC(=O)c1cccc(Oc2ccccc2C#N)c1

>  <score_type>  (4) 
oracle

>  <origin>  (4) 
adg

>  <m_score__min__energy>  (4) 
-12.44

>  <m_primary>  (4) 
energy

$$$$
4:0
     RDKit          3D

 35 37  0  0  0  0  0  0  0  0999 V2000
   59.3978   35.7500   44.6906 H   0  0  0  0  0  0  0  0  0  0  0  0
   59.2230   34.9650   45.4410 C   0  0  0  0  0  0  0  0  0  0  0  0
   60.1930   34.6590   46.3420 N   0  0  0  0  0  0  0  0  0  0  0  0
   60.0100   33.7030   47.2930 C   0  0  0  0  0  0  0  0  0  0  0  0
   60.8177   33.4746   48.0040 H   0  0  0  0  0  0  0  0  0  0  0  0
   58.7920   33.0070   47.3690 C   0  0  0  0  0  0  0  0  0  0  0  0
   58.5620   31.9990   48.3170 O   0  0  0  0  0  0  0  0  0  0  0  0
   58.9230   30.6510   48.1740 C   0  0  0  0  0  0  0  0  0  0  0  0
   59.4930   29.9190   49.2290 C   0  0  0  0  0  0  0  0  0  0  0  0
   59.6797   30.4072   50.1969 H   0  0  0  0  0  0  0  0  0  0  0  0
   59.8230   28.5750   49.0530 C   0  0  0  0  0  0  0  0  0  0  0  0
   60.3770   27.8750   50.0750 F   0  0  0  0  0  0  0  0  0  0  0  0
   59.5760   27.9440   47.8300 C   0  0  0  0  0  0  0  0  0  0  0  0
   59.8440   26.8854   47.6974 H   0  0  0  0  0  0  0  0  0  0  0  0
   58.9870   28.6540   46.7680 C   0  0  0  0  0  0  0  0  0  0  0  0
   58.7120   27.9870   45.4730 C   0  0  0  0  0  0  0  0  0  0  0  0
   58.9980   28.5770   44.3960 O   0  0  0  0  0  0  0  0  0  0  0  0
   58.1660   26.6570   45.4610 N   0  0  0  0  0  0  0  0  0  0  0  0
   56.9230   26.2890   45.5900 C   0  0  0  0  0  0  0  0  0  0  0  0
   56.4830   24.9950   45.4210 C   0  0  0  0  0  0  0  0  0  0  0  0
   57.0718   24.1060   45.1509 H   0  0  0  0  0  0  0  0  0  0  0  0
   55.1270   25.0780   45.6710 C   0  0  0  0  0  0  0  0  0  0  0  0
   54.1730   23.9310   45.6900 C   0  0  0  0  0  0  0  0  0  0  0  0
   53.9470   23.6593   46.7317 H   0  0  0  0  0  0  0  0  0  0  0  0
   53.2438   24.2184   45.1762 H   0  0  0  0  0  0  0  0  0  0  0  0
   54.6248   23.0697   45.1762 H   0  0  0  0  0  0  0  0  0  0  0  0
   54.7890   26.3420   45.9980 N   0  0  0  0  0  0  0  0  0  0  0  0
   55.8860   27.0820   45.9390 N   0  0  0  0  0  0  0  0  0  0  0  0
   55.8950   28.0960   46.1710 H   0  0  0  0  0  0  0  0  0  0  0  0
   58.6570   30.0100   46.9580 C   0  0  0  0  0  0  0  0  0  0  0  0
   58.1839   30.5730   46.1400 H   0  0  0  0  0  0  0  0  0  0  0  0
   57.7940   33.2970   46.4320 C   0  0  0  0  0  0  0  0  0  0  0  0
   56.8419   32.7467   46.4556 H   0  0  0  0  0  0  0  0  0  0  0  0
   58.0050   34.2840   45.4670 C   0  0  0  0  0  0  0  0  0  0  0  0
   57.0360   34.5770   44.5650 F   0  0  0  0  0  0  0  0  0  0  0  0
  1  2  1  0
  2  3  2  0
  3  4  1  0
  4  5  1  0
  4  6  2  0
  6  7  1  0
  7  8  1  0
  8  9  2  0
  9 10  1  0
  9 11  1  0
 11 12  1  0
 11 13  2  0
 13 14  1  0
 13 15  1  0
 15 16  1  0
 16 17  2  0
 16 18  1  0
 18 19  2  0
 19 20  1  0
 20 21  1  0
 20 22  2  0
 22 23  1  0
 23 24  1  0
 23 25  1  0
 23 26  1  0
 22 27  1  0
 27 28  1  0
 28 29  1  0
 15 30  2  0
 30 31  1  0
  6 32  1  0
 32 33  1  0
 32 34  2  0
 34 35  1  0
 34  2  1  0
 30  8  1  0
 28 19  1  0
M  CHG  1  27  -1
M  END
>  <UniqueID>  (5) 
4

>  <SMILES>  (5) 
Cc1c/c(=N/C(=O)c2cc(F)cc(Oc3cncc(F)c3)c2)[nH][n-]1

>  <Energy>  (5) 
79.84475553809983

>  <Genealogy>  (5) 
Cc1cc(=NC(=O)c2cc(F)cc(Oc3cncc(F)c3)c2)[nH][n-]1 (protonated)
Cc1c/c(=N/C(=O)c2cc(F)cc(Oc3cncc(F)c3)c2)[nH][n-]1 (cis-trans isomerization)
Cc1c/c(=N/C(=O)c2cc(F)cc(Oc3cncc(F)c3)c2)[nH][n-]1 (3D coordinates assigned)
Cc1c/c(=N/C(=O)c2cc(F)cc(Oc3cncc(F)c3)c2)[nH][n-]1 (optimized conformer: 79.84475553809983 kcal/mol)

>  <smiles>  (5) 
Cc1cc(=NC(=O)c2cc(F)cc(Oc3cncc(F)c3)c2)[nH][nH]1

>  <score_type>  (5) 
oracle

>  <origin>  (5) 
adg

>  <m_score__min__energy>  (5) 
-10.26

>  <m_primary>  (5) 
energy

$$$$
5:0
     RDKit          3D

 28 29  0  0  0  0  0  0  0  0999 V2000
   56.5550   30.1170   42.5990 C   0  0  0  0  0  0  0  0  0  0  0  0
   56.6950   30.1090   44.3740 S   0  0  0  0  0  0  0  0  0  0  0  0
   56.6540   31.5270   44.8660 O   0  0  0  0  0  0  0  0  0  0  0  0
   55.5510   29.3510   44.9880 O   0  0  0  0  0  0  0  0  0  0  0  0
   58.2030   29.3960   44.8510 N   0  0  0  0  0  0  0  0  0  0  0  0
   58.4000   28.0310   45.2430 C   0  0  0  0  0  0  0  0  0  0  0  0
   59.6790   27.6330   45.6500 C   0  0  0  0  0  0  0  0  0  0  0  0
   59.9190   26.3140   46.0420 C   0  0  0  0  0  0  0  0  0  0  0  0
   58.8820   25.3800   46.0300 C   0  0  0  0  0  0  0  0  0  0  0  0
   57.5930   25.7560   45.6210 C   0  0  0  0  0  0  0  0  0  0  0  0
   56.4900   24.7610   45.6160 C   0  0  0  0  0  0  0  0  0  0  0  0
   56.7630   23.4040   45.3960 C   0  0  0  0  0  0  0  0  0  0  0  0
   55.7570   22.4930   45.4030 N   0  0  0  0  0  0  0  0  0  0  0  0
   54.4700   22.8720   45.6140 C   0  0  0  0  0  0  0  0  0  0  0  0
   53.5220   21.9910   45.6180 N   0  0  0  0  0  0  0  0  0  0  0  0
   54.1740   24.1800   45.8190 N   0  0  0  0  0  0  0  0  0  0  0  0
   55.1450   25.1300   45.8230 C   0  0  0  0  0  0  0  0  0  0  0  0
   54.8250   26.3370   45.9930 O   0  0  0  0  0  0  0  0  0  0  0  0
   57.3560   27.0890   45.2370 C   0  0  0  0  0  0  0  0  0  0  0  0
   55.4940   30.1776   42.3152 H   0  0  0  0  0  0  0  0  0  0  0  0
   57.0935   30.9858   42.1926 H   0  0  0  0  0  0  0  0  0  0  0  0
   56.9910   29.1925   42.1926 H   0  0  0  0  0  0  0  0  0  0  0  0
   60.5007   28.3642   45.6612 H   0  0  0  0  0  0  0  0  0  0  0  0
   60.9272   26.0108   46.3608 H   0  0  0  0  0  0  0  0  0  0  0  0
   59.0759   24.3434   46.3428 H   0  0  0  0  0  0  0  0  0  0  0  0
   57.7975   23.0758   45.2168 H   0  0  0  0  0  0  0  0  0  0  0  0
   52.5710   22.2120   45.2470 H   0  0  0  0  0  0  0  0  0  0  0  0
   56.3456   27.3966   44.9296 H   0  0  0  0  0  0  0  0  0  0  0  0
  1  2  1  0
  2  3  2  0
  2  4  2  0
  2  5  1  0
  5  6  1  0
  6  7  2  0
  7  8  1  0
  8  9  2  0
  9 10  1  0
 10 11  1  0
 11 12  2  0
 12 13  1  0
 13 14  1  0
 14 15  2  3
 14 16  1  0
 16 17  1  0
 17 18  2  0
 10 19  2  0
 19  6  1  0
 17 11  1  0
  1 20  1  0
  1 21  1  0
  1 22  1  0
  7 23  1  0
  8 24  1  0
  9 25  1  0
 12 26  1  0
 15 27  1  0
 19 28  1  0
M  CHG  3   5  -1  13  -1  16  -1
M  END
>  <UniqueID>  (6) 
5

>  <SMILES>  (6) 
CS(=O)(=O)[N-]c1cccc(-c2c[n-]c(=N)[n-]c2=O)c1

>  <Energy>  (6) 
34.93761818920996

>  <Genealogy>  (6) 
CS(=O)(=O)[N-]c1cccc(-c2c[n-]c(=N)[n-]c2=O)c1 (protonated)
CS(=O)(=O)[N-]c1cccc(-c2c[n-]c(=N)[n-]c2=O)c1 (3D coordinates assigned)
CS(=O)(=O)[N-]c1cccc(-c2c[n-]c(=N)[n-]c2=O)c1 (optimized conformer: 34.93761818920996 kcal/mol)

>  <smiles>  (6) 
CS(=O)(=O)Nc1cccc(-c2c[nH]c(=N)[nH]c2=O)c1

>  <score_type>  (6) 
oracle

>  <origin>  (6) 
adg

>  <m_score__min__energy>  (6) 
-12.890000000000001

>  <m_primary>  (6) 
energy

$$$$
6:0
     RDKit          3D

 50 52  0  0  0  0  0  0  0  0999 V2000
   50.6280   32.3330   49.3600 O   0  0  0  0  0  0  0  0  0  0  0  0
   51.0630   31.9530   50.4790 C   0  0  0  0  0  0  0  0  0  0  0  0
   50.7240   32.6590   51.6300 O   0  0  0  0  0  0  0  0  0  0  0  0
   51.8950   30.7100   50.5810 C   0  0  0  0  0  0  0  0  0  0  0  0
   52.1710   30.3350   52.0450 C   0  0  0  0  0  0  0  0  0  0  0  0
   53.6370   30.0620   52.2840 C   0  0  0  0  0  0  0  0  0  0  0  0
   54.0490   28.8380   52.8330 C   0  0  0  0  0  0  0  0  0  0  0  0
   55.4020   28.5990   53.0970 C   0  0  0  0  0  0  0  0  0  0  0  0
   56.3650   29.5930   52.8310 C   0  0  0  0  0  0  0  0  0  0  0  0
   57.7630   29.3820   53.0990 N   0  0  0  0  0  0  0  0  0  0  0  0
   58.8190   30.6220   53.6980 S   0  0  0  0  0  0  0  0  0  0  0  0
   58.1010   31.4220   54.7500 O   0  0  0  0  0  0  0  0  0  0  0  0
   60.0310   29.9850   54.3200 O   0  0  0  0  0  0  0  0  0  0  0  0
   59.3410   31.6510   52.3670 C   0  0  0  0  0  0  0  0  0  0  0  0
   58.5670   32.7460   51.9590 C   0  0  0  0  0  0  0  0  0  0  0  0
   59.0020   33.5650   50.9130 C   0  0  0  0  0  0  0  0  0  0  0  0
   60.2060   33.2890   50.2490 C   0  0  0  0  0  0  0  0  0  0  0  0
   60.7130   34.2110   49.1710 C   0  0  0  0  0  0  0  0  0  0  0  0
   59.6100   34.7010   48.3430 N   0  0  0  0  0  0  0  0  0  0  0  0
   59.0480   33.9910   47.2210 C   0  0  0  0  0  0  0  0  0  0  0  0
   58.8650   34.6030   45.9620 C   0  0  0  0  0  0  0  0  0  0  0  0
   58.3500   33.8690   44.8860 C   0  0  0  0  0  0  0  0  0  0  0  0
   58.0050   32.5230   45.0550 C   0  0  0  0  0  0  0  0  0  0  0  0
   57.3730   31.5970   43.7000 Cl  0  0  0  0  0  0  0  0  0  0  0  0
   58.1660   31.9110   46.3060 C   0  0  0  0  0  0  0  0  0  0  0  0
   58.6850   32.6410   47.3810 C   0  0  0  0  0  0  0  0  0  0  0  0
   60.9860   32.1980   50.6690 C   0  0  0  0  0  0  0  0  0  0  0  0
   60.5530   31.3850   51.7200 C   0  0  0  0  0  0  0  0  0  0  0  0
   55.9480   30.8130   52.2810 C   0  0  0  0  0  0  0  0  0  0  0  0
   54.5960   31.0500   52.0140 C   0  0  0  0  0  0  0  0  0  0  0  0
   51.3600   29.8810   50.0946 H   0  0  0  0  0  0  0  0  0  0  0  0
   52.8589   30.8986   50.0857 H   0  0  0  0  0  0  0  0  0  0  0  0
   51.8528   31.1657   52.6920 H   0  0  0  0  0  0  0  0  0  0  0  0
   51.6089   29.4182   52.2763 H   0  0  0  0  0  0  0  0  0  0  0  0
   53.3031   28.0612   53.0573 H   0  0  0  0  0  0  0  0  0  0  0  0
   55.7156   27.6307   53.5142 H   0  0  0  0  0  0  0  0  0  0  0  0
   58.2040   28.4770   52.8160 H   0  0  0  0  0  0  0  0  0  0  0  0
   57.6137   32.9617   52.4638 H   0  0  0  0  0  0  0  0  0  0  0  0
   58.3962   34.4313   50.6089 H   0  0  0  0  0  0  0  0  0  0  0  0
   61.2206   35.0675   49.6387 H   0  0  0  0  0  0  0  0  0  0  0  0
   61.4125   33.6532   48.5311 H   0  0  0  0  0  0  0  0  0  0  0  0
   59.1770   35.6120   48.6240 H   0  0  0  0  0  0  0  0  0  0  0  0
   59.1284   35.6622   45.8253 H   0  0  0  0  0  0  0  0  0  0  0  0
   58.2164   34.3512   43.9064 H   0  0  0  0  0  0  0  0  0  0  0  0
   57.8842   30.8565   46.4425 H   0  0  0  0  0  0  0  0  0  0  0  0
   58.8103   32.1552   48.3599 H   0  0  0  0  0  0  0  0  0  0  0  0
   61.9415   31.9830   50.1683 H   0  0  0  0  0  0  0  0  0  0  0  0
   61.1683   30.5313   52.0404 H   0  0  0  0  0  0  0  0  0  0  0  0
   56.6918   31.5918   52.0571 H   0  0  0  0  0  0  0  0  0  0  0  0
   54.2828   32.0156   51.5903 H   0  0  0  0  0  0  0  0  0  0  0  0
  1  2  2  0
  2  3  1  0
  2  4  1  0
  4  5  1  0
  5  6  1  0
  6  7  2  0
  7  8  1  0
  8  9  2  0
  9 10  1  0
 10 11  1  0
 11 12  2  0
 11 13  2  0
 11 14  1  0
 14 15  2  0
 15 16  1  0
 16 17  2  0
 17 18  1  0
 18 19  1  0
 19 20  1  0
 20 21  2  0
 21 22  1  0
 22 23  2  0
 23 24  1  0
 23 25  1  0
 25 26  2  0
 17 27  1  0
 27 28  2  0
  9 29  1  0
 29 30  2  0
 30  6  1  0
 28 14  1  0
 26 20  1  0
  4 31  1  0
  4 32  1  0
  5 33  1  0
  5 34  1  0
  7 35  1  0
  8 36  1  0
 10 37  1  0
 15 38  1  0
 16 39  1  0
 18 40  1  0
 18 41  1  0
 19 42  1  0
 21 43  1  0
 22 44  1  0
 25 45  1  0
 26 46  1  0
 27 47  1  0
 28 48  1  0
 29 49  1  0
 30 50  1  0
M  CHG  1   3  -1
M  END
>  <UniqueID>  (7) 
6

>  <SMILES>  (7) 
O=C([O-])CCc1ccc(NS(=O)(=O)c2ccc(CNc3ccc(Cl)cc3)cc2)cc1

>  <Energy>  (7) 
48.48009379467985

>  <Genealogy>  (7) 
O=C([O-])CCc1ccc(NS(=O)(=O)c2ccc(CNc3ccc(Cl)cc3)cc2)cc1 (protonated)
O=C([O-])CCc1ccc(NS(=O)(=O)c2ccc(CNc3ccc(Cl)cc3)cc2)cc1 (3D coordinates assigned)
O=C([O-])CCc1ccc(NS(=O)(=O)c2ccc(CNc3ccc(Cl)cc3)cc2)cc1 (optimized conformer: 48.48009379467985 kcal/mol)

>  <smiles>  (7) 
O=C(O)CCc1ccc(NS(=O)(=O)c2ccc(CNc3ccc(Cl)cc3)cc2)cc1

>  <score_type>  (7) 
oracle

>  <origin>  (7) 
adg

>  <m_score__min__energy>  (7) 
-12.779999999999999

>  <m_primary>  (7) 
energy

$$$$
7:0
     RDKit          3D

 44 46  0  0  0  0  0  0  0  0999 V2000
   58.8920   30.7240   49.2300 O   0  0  0  0  0  0  0  0  0  0  0  0
   59.8980   31.4610   49.0430 C   0  0  0  0  0  0  0  0  0  0  0  0
   59.8430   32.8230   49.4900 N   0  0  0  0  0  0  0  0  0  0  0  0
   59.8690   33.8900   48.7450 C   0  0  0  0  0  0  0  0  0  0  0  0
   59.1870   34.0040   47.4410 C   0  0  0  0  0  0  0  0  0  0  0  0
   57.9050   33.4610   47.2440 C   0  0  0  0  0  0  0  0  0  0  0  0
   57.3020   33.5230   45.9840 C   0  0  0  0  0  0  0  0  0  0  0  0
   57.9640   34.1380   44.9200 C   0  0  0  0  0  0  0  0  0  0  0  0
   59.2440   34.6690   45.1050 C   0  0  0  0  0  0  0  0  0  0  0  0
   59.8600   34.5890   46.3580 C   0  0  0  0  0  0  0  0  0  0  0  0
   61.0400   30.9870   48.1610 C   0  0  1  0  0  0  0  0  0  0  0  0
   60.8160   31.2660   46.6550 C   0  0  0  0  0  0  0  0  0  0  0  0
   59.9400   30.2220   46.0080 C   0  0  0  0  0  0  0  0  0  0  0  0
   60.4610   28.9680   45.6620 C   0  0  0  0  0  0  0  0  0  0  0  0
   59.6420   28.0080   45.0620 C   0  0  0  0  0  0  0  0  0  0  0  0
   58.2990   28.2930   44.8010 C   0  0  0  0  0  0  0  0  0  0  0  0
   57.7600   29.5480   45.1320 C   0  0  0  0  0  0  0  0  0  0  0  0
   56.3830   29.8480   44.8380 N   0  0  0  0  0  0  0  0  0  0  0  0
   55.5130   28.9550   44.8840 O   0  0  0  0  0  0  0  0  0  0  0  0
   56.0000   31.1310   44.5190 O   0  0  0  0  0  0  0  0  0  0  0  0
   58.5920   30.5090   45.7360 C   0  0  0  0  0  0  0  0  0  0  0  0
   62.3080   31.6030   48.6130 N   0  0  0  0  0  0  0  0  0  0  0  0
   62.9010   32.5690   47.8410 C   0  0  0  0  0  0  0  0  0  0  0  0
   64.0950   33.1670   48.2370 C   0  0  0  0  0  0  0  0  0  0  0  0
   64.6740   32.7640   49.4340 C   0  0  0  0  0  0  0  0  0  0  0  0
   65.7530   33.2830   49.8240 O   0  0  0  0  0  0  0  0  0  0  0  0
   64.0730   31.8080   50.1840 N   0  0  0  0  0  0  0  0  0  0  0  0
   62.9090   31.2280   49.7930 C   0  0  0  0  0  0  0  0  0  0  0  0
   62.3960   30.3440   50.5300 O   0  0  0  0  0  0  0  0  0  0  0  0
   60.4341   34.7604   49.1097 H   0  0  0  0  0  0  0  0  0  0  0  0
   57.3753   32.9863   48.0831 H   0  0  0  0  0  0  0  0  0  0  0  0
   56.3041   33.0863   45.8309 H   0  0  0  0  0  0  0  0  0  0  0  0
   57.4782   34.2049   43.9353 H   0  0  0  0  0  0  0  0  0  0  0  0
   59.7666   35.1498   44.2649 H   0  0  0  0  0  0  0  0  0  0  0  0
   60.8765   34.9865   46.4949 H   0  0  0  0  0  0  0  0  0  0  0  0
   61.0883   29.8931   48.2656 H   0  0  0  0  0  0  0  0  0  0  0  0
   60.3363   32.2496   46.5441 H   0  0  0  0  0  0  0  0  0  0  0  0
   61.7964   31.2413   46.1567 H   0  0  0  0  0  0  0  0  0  0  0  0
   61.5178   28.7387   45.8633 H   0  0  0  0  0  0  0  0  0  0  0  0
   60.0557   27.0246   44.7942 H   0  0  0  0  0  0  0  0  0  0  0  0
   57.6595   27.5299   44.3333 H   0  0  0  0  0  0  0  0  0  0  0  0
   58.1823   31.4957   45.9980 H   0  0  0  0  0  0  0  0  0  0  0  0
   62.4275   32.8756   46.8967 H   0  0  0  0  0  0  0  0  0  0  0  0
   64.5691   33.9412   47.6158 H   0  0  0  0  0  0  0  0  0  0  0  0
  1  2  2  0
  2  3  1  0
  3  4  2  3
  4  5  1  0
  5  6  2  0
  6  7  1  0
  7  8  2  0
  8  9  1  0
  9 10  2  0
  2 11  1  0
 11 12  1  0
 12 13  1  0
 13 14  2  0
 14 15  1  0
 15 16  2  0
 16 17  1  0
 17 18  1  0
 18 19  2  0
 18 20  1  0
 17 21  2  0
 11 22  1  0
 22 23  1  0
 23 24  2  0
 24 25  1  0
 25 26  2  0
 25 27  1  0
 27 28  1  0
 28 29  2  0
 10  5  1  0
 21 13  1  0
 28 22  1  0
  4 30  1  0
  6 31  1  0
  7 32  1  0
  8 33  1  0
  9 34  1  0
 10 35  1  0
 11 36  1  6
 12 37  1  0
 12 38  1  0
 14 39  1  0
 15 40  1  0
 16 41  1  0
 21 42  1  0
 23 43  1  0
 24 44  1  0
M  CHG  3  18   1  20  -1  27  -1
M  END
>  <UniqueID>  (8) 
7

>  <SMILES>  (8) 
O=C(N=Cc1ccccc1)[C@@H](Cc1cccc([N+](=O)[O-])c1)n1ccc(=O)[n-]c1=O

>  <Energy>  (8) 
59.90344197107077

>  <Genealogy>  (8) 
O=C(N=Cc1ccccc1)C(Cc1cccc([N+](=O)[O-])c1)n1ccc(=O)[n-]c1=O (protonated)
O=C(N=Cc1ccccc1)[C@@H](Cc1cccc([N+](=O)[O-])c1)n1ccc(=O)[n-]c1=O (chirality)
O=C(N=Cc1ccccc1)[C@@H](Cc1cccc([N+](=O)[O-])c1)n1ccc(=O)[n-]c1=O (3D coordinates assigned)
O=C(N=Cc1ccccc1)[C@@H](Cc1cccc([N+](=O)[O-])c1)n1ccc(=O)[n-]c1=O (optimized conformer: 59.90344197107077 kcal/mol)

>  <smiles>  (8) 
O=C(N=Cc1ccccc1)C(Cc1cccc([N+](=O)[O-])c1)n1ccc(=O)[nH]c1=O

>  <score_type>  (8) 
oracle

>  <origin>  (8) 
adg

>  <m_score__min__energy>  (8) 
-10.49

>  <m_primary>  (8) 
energy

$$$$
8:0
     RDKit          3D

 24 25  0  0  0  0  0  0  0  0999 V2000
   55.9960   28.7890   45.0140 O   0  0  0  0  0  0  0  0  0  0  0  0
   57.0220   28.4460   45.6620 C   0  0  0  0  0  0  0  0  0  0  0  0
   58.0180   29.4220   46.0160 N   0  0  0  0  0  0  0  0  0  0  0  0
   57.9720   30.8020   45.6120 C   0  0  0  0  0  0  0  0  0  0  0  0
   58.1600   31.8060   46.5750 C   0  0  0  0  0  0  0  0  0  0  0  0
   58.1450   33.1540   46.2050 C   0  0  0  0  0  0  0  0  0  0  0  0
   57.9560   33.5100   44.8670 C   0  0  0  0  0  0  0  0  0  0  0  0
   57.9440   34.8180   44.5080 F   0  0  0  0  0  0  0  0  0  0  0  0
   57.7930   32.5180   43.8960 C   0  0  0  0  0  0  0  0  0  0  0  0
   57.8080   31.1680   44.2630 C   0  0  0  0  0  0  0  0  0  0  0  0
   57.1790   27.0280   46.0620 C   0  0  0  0  0  0  0  0  0  0  0  0
   56.0510   26.2070   46.2400 C   0  0  0  0  0  0  0  0  0  0  0  0
   54.7700   26.7040   46.0280 O   0  0  0  0  0  0  0  0  0  0  0  0
   56.2060   24.9100   46.6080 N   0  0  0  0  0  0  0  0  0  0  0  0
   57.4380   24.3810   46.8160 C   0  0  0  0  0  0  0  0  0  0  0  0
   57.5560   23.1750   47.1530 O   0  0  0  0  0  0  0  0  0  0  0  0
   58.5420   25.1540   46.6650 N   0  0  0  0  0  0  0  0  0  0  0  0
   58.4450   26.4590   46.3020 C   0  0  0  0  0  0  0  0  0  0  0  0
   59.4940   27.1500   46.2090 O   0  0  0  0  0  0  0  0  0  0  0  0
   58.8000   29.1350   46.6460 H   0  0  0  0  0  0  0  0  0  0  0  0
   58.3202   31.5302   47.6277 H   0  0  0  0  0  0  0  0  0  0  0  0
   58.2820   33.9349   46.9675 H   0  0  0  0  0  0  0  0  0  0  0  0
   57.6527   32.7991   42.8418 H   0  0  0  0  0  0  0  0  0  0  0  0
   57.6912   30.3898   43.4944 H   0  0  0  0  0  0  0  0  0  0  0  0
  1  2  2  0
  2  3  1  0
  3  4  1  0
  4  5  2  0
  5  6  1  0
  6  7  2  0
  7  8  1  0
  7  9  1  0
  9 10  2  0
  2 11  1  0
 11 12  2  0
 12 13  1  0
 12 14  1  0
 14 15  1  0
 15 16  2  0
 15 17  1  0
 17 18  1  0
 18 19  2  0
 10  4  1  0
 18 11  1  0
  3 20  1  0
  5 21  1  0
  6 22  1  0
  9 23  1  0
 10 24  1  0
M  CHG  3  13  -1  14  -1  17  -1
M  END
>  <UniqueID>  (9) 
8

>  <SMILES>  (9) 
O=C(Nc1ccc(F)cc1)c1c([O-])[n-]c(=O)[n-]c1=O

>  <Energy>  (9) 
36.282926589800674

>  <Genealogy>  (9) 
O=C(Nc1ccc(F)cc1)c1c([O-])[n-]c(=O)[n-]c1=O (protonated)
O=C(Nc1ccc(F)cc1)c1c([O-])[n-]c(=O)[n-]c1=O (3D coordinates assigned)
O=C(Nc1ccc(F)cc1)c1c([O-])[n-]c(=O)[n-]c1=O (optimized conformer: 36.282926589800674 kcal/mol)

>  <smiles>  (9) 
O=C(Nc1ccc(F)cc1)c1c(O)[nH]c(=O)[nH]c1=O

>  <score_type>  (9) 
oracle

>  <origin>  (9) 
adg

>  <m_score__min__energy>  (9) 
-13.789999999999999

>  <m_primary>  (9) 
energy

$$$$
9:0
     RDKit          3D

 42 43  0  0  0  0  0  0  0  0999 V2000
   63.9160   33.2080   48.2900 C   0  0  0  0  0  0  0  0  0  0  0  0
   63.0160   33.4900   47.0920 C   0  0  0  0  0  0  0  0  0  0  0  0
   61.7820   32.7830   47.2120 O   0  0  0  0  0  0  0  0  0  0  0  0
   60.5100   33.2810   46.8710 C   0  0  0  0  0  0  0  0  0  0  0  0
   60.3450   34.4660   46.1250 C   0  0  0  0  0  0  0  0  0  0  0  0
   59.0660   34.9230   45.7990 C   0  0  0  0  0  0  0  0  0  0  0  0
   57.9410   34.2090   46.2080 C   0  0  0  0  0  0  0  0  0  0  0  0
   58.0890   33.0350   46.9500 C   0  0  0  0  0  0  0  0  0  0  0  0
   59.3680   32.5700   47.2970 C   0  0  0  0  0  0  0  0  0  0  0  0
   59.5070   31.2800   48.0640 C   0  0  0  0  0  0  0  0  0  0  0  0
   59.4350   30.1110   47.1290 C   0  0  0  0  0  0  0  0  0  0  0  0
   60.4980   29.5460   46.7560 O   0  0  0  0  0  0  0  0  0  0  0  0
   58.1630   29.6650   46.6360 N   0  0  0  0  0  0  0  0  0  0  0  0
   58.0370   28.5330   45.7110 C   0  0  2  0  0  0  0  0  0  0  0  0
   58.6280   28.8730   44.3180 C   0  0  0  0  0  0  0  0  0  0  0  0
   58.3300   30.2880   43.7820 C   0  0  0  0  0  0  0  0  0  0  0  0
   56.9680   30.8540   44.2170 C   0  0  0  0  0  0  0  0  0  0  0  0
   55.7500   29.9090   44.0320 C   0  0  0  0  0  0  0  0  0  0  0  0
   55.5750   28.9610   45.1330 N   0  0  0  0  0  0  0  0  0  0  0  0
   56.5990   28.0850   45.6170 C   0  0  0  0  0  0  0  0  0  0  0  0
   56.2950   26.9060   45.9370 O   0  0  0  0  0  0  0  0  0  0  0  0
   63.3548   33.3838   49.2196 H   0  0  0  0  0  0  0  0  0  0  0  0
   64.2527   32.1613   48.2573 H   0  0  0  0  0  0  0  0  0  0  0  0
   64.7898   33.8754   48.2573 H   0  0  0  0  0  0  0  0  0  0  0  0
   62.8105   34.5694   47.0407 H   0  0  0  0  0  0  0  0  0  0  0  0
   63.5282   33.1557   46.1777 H   0  0  0  0  0  0  0  0  0  0  0  0
   61.2285   35.0338   45.7979 H   0  0  0  0  0  0  0  0  0  0  0  0
   58.9462   35.8492   45.2177 H   0  0  0  0  0  0  0  0  0  0  0  0
   56.9356   34.5705   45.9462 H   0  0  0  0  0  0  0  0  0  0  0  0
   57.1984   32.4712   47.2645 H   0  0  0  0  0  0  0  0  0  0  0  0
   60.4759   31.2696   48.5847 H   0  0  0  0  0  0  0  0  0  0  0  0
   58.6873   31.2066   48.7939 H   0  0  0  0  0  0  0  0  0  0  0  0
   57.3130   30.2000   46.9230 H   0  0  0  0  0  0  0  0  0  0  0  0
   58.6250   27.6935   46.1103 H   0  0  0  0  0  0  0  0  0  0  0  0
   59.7204   28.7601   44.3797 H   0  0  0  0  0  0  0  0  0  0  0  0
   58.1419   28.1817   43.6139 H   0  0  0  0  0  0  0  0  0  0  0  0
   59.1167   30.9664   44.1437 H   0  0  0  0  0  0  0  0  0  0  0  0
   58.3040   30.2110   42.6850 H   0  0  0  0  0  0  0  0  0  0  0  0
   57.0355   31.1116   45.2843 H   0  0  0  0  0  0  0  0  0  0  0  0
   56.7795   31.7146   43.5584 H   0  0  0  0  0  0  0  0  0  0  0  0
   54.8411   30.5236   43.9538 H   0  0  0  0  0  0  0  0  0  0  0  0
   55.9335   29.3185   43.1223 H   0  0  0  0  0  0  0  0  0  0  0  0
  1  2  1  0
  2  3  1  0
  3  4  1  0
  4  5  2  0
  5  6  1  0
  6  7  2  0
  7  8  1  0
  8  9  2  0
  9 10  1  0
 10 11  1  0
 11 12  2  0
 11 13  1  0
 13 14  1  0
 14 15  1  0
 15 16  1  0
 16 17  1  0
 17 18  1  0
 18 19  1  0
 19 20  1  0
 20 21  2  0
  9  4  1  0
 20 14  1  0
  1 22  1  0
  1 23  1  0
  1 24  1  0
  2 25  1  0
  2 26  1  0
  5 27  1  0
  6 28  1  0
  7 29  1  0
  8 30  1  0
 10 31  1  0
 10 32  1  0
 13 33  1  0
 14 34  1  1
 15 35  1  0
 15 36  1  0
 16 37  1  0
 16 38  1  0
 17 39  1  0
 17 40  1  0
 18 41  1  0
 18 42  1  0
M  CHG  1  19  -1
M  END
>  <UniqueID>  (10) 
9

>  <SMILES>  (10) 
CCOc1ccccc1CC(=O)N[C@@H]1CCCC[N-]C1=O

>  <Energy>  (10) 
40.662962684561144

>  <Genealogy>  (10) 
CCOc1ccccc1CC(=O)NC1CCCC[N-]C1=O (protonated)
CCOc1ccccc1CC(=O)N[C@@H]1CCCC[N-]C1=O (chirality)
CCOc1ccccc1CC(=O)N[C@@H]1CCCC[N-]C1=O (3D coordinates assigned)
CCOc1ccccc1CC(=O)N[C@@H]1CCCC[N-]C1=O (nonaromatic ring conformer: 40.662962684561144 kcal/mol)

>  <smiles>  (10) 
CCOc1ccccc1CC(=O)NC1CCCCNC1=O

>  <score_type>  (10) 
oracle

>  <origin>  (10) 
adg

>  <m_score__min__energy>  (10) 
-6.6100000000000003

>  <m_primary>  (10) 
energy

$$$$
10:0
     RDKit          3D

 54 56  0  0  0  0  0  0  0  0999 V2000
   59.1480   33.7440   51.8080 C   0  0  0  0  0  0  0  0  0  0  0  0
   59.9350   33.7860   50.7320 C   0  0  0  0  0  0  0  0  0  0  0  0
   59.3920   33.4720   49.3660 C   0  0  0  0  0  0  0  0  0  0  0  0
   60.4530   32.9540   48.4910 N   0  0  0  0  0  0  0  0  0  0  0  0
   61.1870   31.8280   48.6740 C   0  0  0  0  0  0  0  0  0  0  0  0
   60.9770   30.8180   49.7710 C   0  0  0  0  0  0  0  0  0  0  0  0
   59.3450   30.0030   49.6050 S   0  0  0  0  0  0  0  0  0  0  0  0
   59.8720   28.8510   48.3390 C   0  0  0  0  0  0  0  0  0  0  0  0
   60.0160   27.5310   48.6320 N   0  0  0  0  0  0  0  0  0  0  0  0
   60.3780   26.6400   47.6710 C   0  0  0  0  0  0  0  0  0  0  0  0
   60.5970   27.0770   46.3640 C   0  0  0  0  0  0  0  0  0  0  0  0
   60.4500   28.4390   46.0790 C   0  0  0  0  0  0  0  0  0  0  0  0
   60.6360   28.9490   44.6850 C   0  0  0  0  0  0  0  0  0  0  0  0
   60.0950   29.2960   47.0730 N   0  0  0  0  0  0  0  0  0  0  0  0
   62.0670   31.6540   47.6200 C   0  0  0  0  0  0  0  0  0  0  0  0
   61.8530   32.7020   46.7510 C   0  0  0  0  0  0  0  0  0  0  0  0
   60.8610   33.4800   47.3130 C   0  0  0  0  0  0  0  0  0  0  0  0
   60.1490   34.9280   46.5180 S   0  0  0  0  0  0  0  0  0  0  0  0
   58.4150   34.4640   46.8560 C   0  0  0  0  0  0  0  0  0  0  0  0
   57.9510   33.4060   45.9050 C   0  0  0  0  0  0  0  0  0  0  0  0
   57.4820   33.7490   44.7860 O   0  0  0  0  0  0  0  0  0  0  0  0
   57.9820   32.0240   46.2980 N   0  0  0  0  0  0  0  0  0  0  0  0
   57.6420   30.9300   45.4300 C   0  0  0  0  0  0  0  0  0  0  0  0
   57.5280   31.1030   44.0380 C   0  0  0  0  0  0  0  0  0  0  0  0
   57.2020   30.0210   43.2180 C   0  0  0  0  0  0  0  0  0  0  0  0
   56.9960   28.7560   43.7720 C   0  0  0  0  0  0  0  0  0  0  0  0
   57.1200   28.5650   45.1540 C   0  0  0  0  0  0  0  0  0  0  0  0
   56.8620   26.9730   45.8590 S   0  0  0  0  0  0  0  0  0  0  0  0
   55.1660   26.6720   45.9990 N   0  0  0  0  0  0  0  0  0  0  0  0
   57.4910   25.9230   44.9860 O   0  0  0  0  0  0  0  0  0  0  0  0
   57.4950   26.9090   47.2210 O   0  0  0  0  0  0  0  0  0  0  0  0
   57.4630   29.6480   45.9760 C   0  0  0  0  0  0  0  0  0  0  0  0
   59.5608   33.9765   52.8007 H   0  0  0  0  0  0  0  0  0  0  0  0
   58.0861   33.4768   51.7027 H   0  0  0  0  0  0  0  0  0  0  0  0
   60.9958   34.0540   50.8458 H   0  0  0  0  0  0  0  0  0  0  0  0
   58.5986   32.7156   49.4580 H   0  0  0  0  0  0  0  0  0  0  0  0
   58.9897   34.3958   48.9247 H   0  0  0  0  0  0  0  0  0  0  0  0
   61.7678   30.0555   49.7148 H   0  0  0  0  0  0  0  0  0  0  0  0
   61.0133   31.3382   50.7395 H   0  0  0  0  0  0  0  0  0  0  0  0
   60.4981   25.5761   47.9234 H   0  0  0  0  0  0  0  0  0  0  0  0
   60.8794   26.3655   45.5741 H   0  0  0  0  0  0  0  0  0  0  0  0
   61.0127   29.9819   44.7197 H   0  0  0  0  0  0  0  0  0  0  0  0
   61.3598   28.3123   44.1552 H   0  0  0  0  0  0  0  0  0  0  0  0
   59.6723   28.9278   44.1552 H   0  0  0  0  0  0  0  0  0  0  0  0
   62.7951   30.8384   47.4994 H   0  0  0  0  0  0  0  0  0  0  0  0
   62.3707   32.8828   45.7974 H   0  0  0  0  0  0  0  0  0  0  0  0
   58.3381   34.0825   47.8848 H   0  0  0  0  0  0  0  0  0  0  0  0
   57.7814   35.3541   46.7283 H   0  0  0  0  0  0  0  0  0  0  0  0
   58.1760   31.8110   47.3040 H   0  0  0  0  0  0  0  0  0  0  0  0
   57.6965   32.0952   43.5940 H   0  0  0  0  0  0  0  0  0  0  0  0
   57.1071   30.1656   42.1317 H   0  0  0  0  0  0  0  0  0  0  0  0
   56.7358   27.9077   43.1218 H   0  0  0  0  0  0  0  0  0  0  0  0
   54.7660   26.7140   45.0330 H   0  0  0  0  0  0  0  0  0  0  0  0
   57.5930   29.4925   47.0572 H   0  0  0  0  0  0  0  0  0  0  0  0
  1  2  2  0
  2  3  1  0
  3  4  1  0
  4  5  1  0
  5  6  1  0
  6  7  1  0
  7  8  1  0
  8  9  2  0
  9 10  1  0
 10 11  2  0
 11 12  1  0
 12 13  1  0
 12 14  2  0
  5 15  2  0
 15 16  1  0
 16 17  2  0
 17 18  1  0
 18 19  1  0
 19 20  1  0
 20 21  2  0
 20 22  1  0
 22 23  1  0
 23 24  2  0
 24 25  1  0
 25 26  2  0
 26 27  1  0
 27 28  1  0
 28 29  1  0
 28 30  2  0
 28 31  2  0
 27 32  2  0
 17  4  1  0
 32 23  1  0
 14  8  1  0
  1 33  1  0
  1 34  1  0
  2 35  1  0
  3 36  1  0
  3 37  1  0
  6 38  1  0
  6 39  1  0
 10 40  1  0
 11 41  1  0
 13 42  1  0
 13 43  1  0
 13 44  1  0
 15 45  1  0
 16 46  1  0
 19 47  1  0
 19 48  1  0
 22 49  1  0
 24 50  1  0
 25 51  1  0
 26 52  1  0
 29 53  1  0
 32 54  1  0
M  CHG  1  29  -1
M  END
>  <UniqueID>  (11) 
10

>  <SMILES>  (11) 
C=CCn1c(CSc2nccc(C)n2)ccc1SCC(=O)Nc1cccc(S([NH-])(=O)=O)c1

>  <Energy>  (11) 
66.86775749023612

>  <Genealogy>  (11) 
C=CCn1c(CSc2nccc(C)n2)ccc1SCC(=O)Nc1cccc(S([NH-])(=O)=O)c1 (protonated)
C=CCn1c(CSc2nccc(C)n2)ccc1SCC(=O)Nc1cccc(S([NH-])(=O)=O)c1 (3D coordinates assigned)
C=CCn1c(CSc2nccc(C)n2)ccc1SCC(=O)Nc1cccc(S([NH-])(=O)=O)c1 (optimized conformer: 66.86775749023612 kcal/mol)

>  <smiles>  (11) 
C=CCn1c(CSc2nccc(C)n2)ccc1SCC(=O)Nc1cccc(S(N)(=O)=O)c1

>  <score_type>  (11) 
oracle

>  <origin>  (11) 
adg

>  <m_score__min__energy>  (11) 
-13.300000000000001

>  <m_primary>  (11) 
energy

$$$$
11:0
     RDKit          3D

 50 53  0  0  0  0  0  0  0  0999 V2000
   60.7340   29.7500   45.5050 O   0  0  0  0  0  0  0  0  0  0  0  0
   59.8810   29.6670   46.4310 C   0  0  0  0  0  0  0  0  0  0  0  0
   58.6530   28.8670   46.2130 C   0  0  0  0  0  0  0  0  0  0  0  0
   57.6420   29.3450   45.3600 C   0  0  0  0  0  0  0  0  0  0  0  0
   56.4700   28.6080   45.1690 C   0  0  0  0  0  0  0  0  0  0  0  0
   56.2990   27.3830   45.8180 C   0  0  0  0  0  0  0  0  0  0  0  0
   55.1310   26.6530   45.6320 O   0  0  0  0  0  0  0  0  0  0  0  0
   57.3050   26.8890   46.6550 C   0  0  0  0  0  0  0  0  0  0  0  0
   58.4790   27.6230   46.8470 C   0  0  0  0  0  0  0  0  0  0  0  0
   60.1320   30.3850   47.7000 C   0  0  0  0  0  0  0  0  0  0  0  0
   60.7140   29.8600   48.8420 C   0  0  0  0  0  0  0  0  0  0  0  0
   61.1470   28.5530   49.0510 O   0  0  0  0  0  0  0  0  0  0  0  0
   60.7760   30.8760   49.7630 C   0  0  0  0  0  0  0  0  0  0  0  0
   61.3060   30.7620   51.0440 O   0  0  0  0  0  0  0  0  0  0  0  0
   60.2630   32.0150   49.2540 N   0  0  0  0  0  0  0  0  0  0  0  0
   60.2290   33.3080   49.9420 C   0  0  0  0  0  0  0  0  0  0  0  0
   60.6920   34.4290   49.0000 C   0  0  0  0  0  0  0  0  0  0  0  0
   62.1660   34.4640   48.8860 N   0  0  0  0  0  0  0  0  0  0  0  0
   62.8190   34.2140   50.1940 C   0  0  0  0  0  0  0  0  0  0  0  0
   63.3280   32.7670   50.3140 C   0  0  0  0  0  0  0  0  0  0  0  0
   64.2750   32.4110   49.3140 O   0  0  0  0  0  0  0  0  0  0  0  0
   64.1040   33.1130   48.0900 C   0  0  0  0  0  0  0  0  0  0  0  0
   62.6530   33.5480   47.8270 C   0  0  0  0  0  0  0  0  0  0  0  0
   59.8630   31.7250   47.9880 C   0  0  0  0  0  0  0  0  0  0  0  0
   59.3380   32.7090   47.0200 C   0  0  0  0  0  0  0  0  0  0  0  0
   57.9660   32.9820   46.9250 C   0  0  0  0  0  0  0  0  0  0  0  0
   57.5200   33.8530   45.9820 N   0  0  0  0  0  0  0  0  0  0  0  0
   58.3780   34.4640   45.1240 C   0  0  0  0  0  0  0  0  0  0  0  0
   59.7430   34.1880   45.2090 C   0  0  0  0  0  0  0  0  0  0  0  0
   60.1910   33.3160   46.1490 N   0  0  0  0  0  0  0  0  0  0  0  0
   57.7746   30.3051   44.8398 H   0  0  0  0  0  0  0  0  0  0  0  0
   55.6809   28.9933   44.5065 H   0  0  0  0  0  0  0  0  0  0  0  0
   57.1721   25.9222   47.1625 H   0  0  0  0  0  0  0  0  0  0  0  0
   59.2718   27.2256   47.4978 H   0  0  0  0  0  0  0  0  0  0  0  0
   61.4480   28.2320   49.9620 H   0  0  0  0  0  0  0  0  0  0  0  0
   59.2008   33.5150   50.2736 H   0  0  0  0  0  0  0  0  0  0  0  0
   60.9054   33.2685   50.8086 H   0  0  0  0  0  0  0  0  0  0  0  0
   60.2599   34.2596   48.0027 H   0  0  0  0  0  0  0  0  0  0  0  0
   60.3540   35.3905   49.4139 H   0  0  0  0  0  0  0  0  0  0  0  0
   63.6712   34.9009   50.3031 H   0  0  0  0  0  0  0  0  0  0  0  0
   62.0725   34.3794   50.9848 H   0  0  0  0  0  0  0  0  0  0  0  0
   63.8010   32.6455   51.2997 H   0  0  0  0  0  0  0  0  0  0  0  0
   62.4576   32.1073   50.1830 H   0  0  0  0  0  0  0  0  0  0  0  0
   64.7376   34.0119   48.1133 H   0  0  0  0  0  0  0  0  0  0  0  0
   64.3855   32.4232   47.2807 H   0  0  0  0  0  0  0  0  0  0  0  0
   62.6036   34.0635   46.8565 H   0  0  0  0  0  0  0  0  0  0  0  0
   62.0164   32.6510   47.8235 H   0  0  0  0  0  0  0  0  0  0  0  0
   57.2556   32.4946   47.6090 H   0  0  0  0  0  0  0  0  0  0  0  0
   58.0001   35.1696   44.3695 H   0  0  0  0  0  0  0  0  0  0  0  0
   60.4506   34.6727   44.5203 H   0  0  0  0  0  0  0  0  0  0  0  0
  1  2  2  0
  2  3  1  0
  3  4  2  0
  4  5  1  0
  5  6  2  0
  6  7  1  0
  6  8  1  0
  8  9  2  0
  2 10  1  0
 10 11  1  0
 11 12  1  0
 11 13  2  0
 13 14  1  0
 13 15  1  0
 15 16  1  0
 16 17  1  0
 17 18  1  0
 18 19  1  0
 19 20  1  0
 20 21  1  0
 21 22  1  0
 22 23  1  0
 15 24  1  0
 24 25  1  0
 25 26  2  0
 26 27  1  0
 27 28  2  0
 28 29  1  0
 29 30  2  0
  9  3  1  0
 24 10  2  0
 30 25  1  0
 23 18  1  0
  4 31  1  0
  5 32  1  0
  8 33  1  0
  9 34  1  0
 12 35  1  0
 16 36  1  0
 16 37  1  0
 17 38  1  0
 17 39  1  0
 19 40  1  0
 19 41  1  0
 20 42  1  0
 20 43  1  0
 22 44  1  0
 22 45  1  0
 23 46  1  0
 23 47  1  0
 26 48  1  0
 28 49  1  0
 29 50  1  0
M  CHG  2   7  -1  14  -1
M  END
>  <UniqueID>  (12) 
11

>  <SMILES>  (12) 
O=C(c1ccc([O-])cc1)c1c(O)c([O-])n(CCN2CCOCC2)c1-c1cnccn1

>  <Energy>  (12) 
107.13177923578932

>  <Genealogy>  (12) 
O=C(c1ccc([O-])cc1)c1c(O)c([O-])n(CCN2CCOCC2)c1-c1cnccn1 (protonated)
O=C(c1ccc([O-])cc1)c1c(O)c([O-])n(CCN2CCOCC2)c1-c1cnccn1 (3D coordinates assigned)
O=C(c1ccc([O-])cc1)c1c(O)c([O-])n(CCN2CCOCC2)c1-c1cnccn1 (nonaromatic ring conformer: 107.13177923578932 kcal/mol)

>  <smiles>  (12) 
O=C(c1ccc(O)cc1)c1c(O)c(O)n(CCN2CCOCC2)c1-c1cnccn1

>  <score_type>  (12) 
oracle

>  <origin>  (12) 
adg

>  <m_score__min__energy>  (12) 
-10.640000000000001

>  <m_primary>  (12) 
energy

$$$$
12:0
     RDKit          3D

 46 48  0  0  0  0  0  0  0  0999 V2000
   59.6550   34.9520   48.1440 N   0  0  0  0  0  0  0  0  0  0  0  0
   59.2100   34.2550   47.3340 C   0  0  0  0  0  0  0  0  0  0  0  0
   58.6520   33.3880   46.3210 C   0  0  0  0  0  0  0  0  0  0  0  0
   58.4950   32.0020   46.5360 C   0  0  0  0  0  0  0  0  0  0  0  0
   58.8570   31.3420   47.8400 C   0  0  0  0  0  0  0  0  0  0  0  0
   60.3150   31.5490   48.1500 C   0  0  0  0  0  0  0  0  0  0  0  0
   60.7140   31.9430   49.4390 C   0  0  0  0  0  0  0  0  0  0  0  0
   62.0660   32.1610   49.7230 C   0  0  0  0  0  0  0  0  0  0  0  0
   63.0270   31.9910   48.7240 C   0  0  0  0  0  0  0  0  0  0  0  0
   62.6390   31.6020   47.4390 C   0  0  0  0  0  0  0  0  0  0  0  0
   61.2890   31.3830   47.1500 C   0  0  0  0  0  0  0  0  0  0  0  0
   57.9550   31.2350   45.5520 N   0  0  0  0  0  0  0  0  0  0  0  0
   57.5780   31.7690   44.3630 C   0  0  0  0  0  0  0  0  0  0  0  0
   56.8790   30.7180   43.0930 S   0  0  0  0  0  0  0  0  0  0  0  0
   57.3450   29.1580   43.9160 C   0  0  0  0  0  0  0  0  0  0  0  0
   56.2720   28.7190   44.8620 C   0  0  0  0  0  0  0  0  0  0  0  0
   55.1650   29.3200   44.8680 O   0  0  0  0  0  0  0  0  0  0  0  0
   56.5500   27.6790   45.8070 N   0  0  0  0  0  0  0  0  0  0  0  0
   57.7430   26.8850   45.8770 C   0  0  0  0  0  0  0  0  0  0  0  0
   58.9790   27.4280   46.2740 C   0  0  0  0  0  0  0  0  0  0  0  0
   60.1120   26.6130   46.3530 C   0  0  0  0  0  0  0  0  0  0  0  0
   60.0210   25.2530   46.0470 C   0  0  0  0  0  0  0  0  0  0  0  0
   58.7930   24.6980   45.6650 C   0  0  0  0  0  0  0  0  0  0  0  0
   58.6670   22.9810   45.3020 S   0  0  0  0  0  0  0  0  0  0  0  0
   60.2360   22.2550   45.3580 N   0  0  0  0  0  0  0  0  0  0  0  0
   58.0810   22.8020   43.9300 O   0  0  0  0  0  0  0  0  0  0  0  0
   57.7840   22.3060   46.3150 O   0  0  0  0  0  0  0  0  0  0  0  0
   57.6550   25.5150   45.5960 C   0  0  0  0  0  0  0  0  0  0  0  0
   57.7240   33.0980   44.1370 N   0  0  0  0  0  0  0  0  0  0  0  0
   58.2510   33.9160   45.0840 C   0  0  0  0  0  0  0  0  0  0  0  0
   58.3740   35.1460   44.8380 O   0  0  0  0  0  0  0  0  0  0  0  0
   58.2501   31.7783   48.6470 H   0  0  0  0  0  0  0  0  0  0  0  0
   58.6609   30.2627   47.7583 H   0  0  0  0  0  0  0  0  0  0  0  0
   59.9596   32.0805   50.2277 H   0  0  0  0  0  0  0  0  0  0  0  0
   62.3727   32.4666   50.7342 H   0  0  0  0  0  0  0  0  0  0  0  0
   64.0899   32.1634   48.9487 H   0  0  0  0  0  0  0  0  0  0  0  0
   63.3973   31.4679   46.6535 H   0  0  0  0  0  0  0  0  0  0  0  0
   60.9877   31.0797   46.1365 H   0  0  0  0  0  0  0  0  0  0  0  0
   57.4960   28.3789   43.1543 H   0  0  0  0  0  0  0  0  0  0  0  0
   58.2728   29.3208   44.4840 H   0  0  0  0  0  0  0  0  0  0  0  0
   59.0539   28.4969   46.5229 H   0  0  0  0  0  0  0  0  0  0  0  0
   61.0775   27.0436   46.6568 H   0  0  0  0  0  0  0  0  0  0  0  0
   60.9161   24.6163   46.1062 H   0  0  0  0  0  0  0  0  0  0  0  0
   60.7710   22.6160   44.5370 H   0  0  0  0  0  0  0  0  0  0  0  0
   60.1050   21.2300   45.2050 H   0  0  0  0  0  0  0  0  0  0  0  0
   56.6850   25.0765   45.3189 H   0  0  0  0  0  0  0  0  0  0  0  0
  1  2  3  0
  2  3  1  0
  3  4  2  0
  4  5  1  0
  5  6  1  0
  6  7  2  0
  7  8  1  0
  8  9  2  0
  9 10  1  0
 10 11  2  0
  4 12  1  0
 12 13  1  0
 13 14  1  0
 14 15  1  0
 15 16  1  0
 16 17  2  0
 16 18  1  0
 18 19  1  0
 19 20  2  0
 20 21  1  0
 21 22  2  0
 22 23  1  0
 23 24  1  0
 24 25  1  0
 24 26  2  0
 24 27  2  0
 23 28  2  0
 13 29  2  0
 29 30  1  0
 30 31  2  0
 30  3  1  0
 11  6  1  0
 28 19  1  0
  5 32  1  0
  5 33  1  0
  7 34  1  0
  8 35  1  0
  9 36  1  0
 10 37  1  0
 11 38  1  0
 15 39  1  0
 15 40  1  0
 20 41  1  0
 21 42  1  0
 22 43  1  0
 25 44  1  0
 25 45  1  0
 28 46  1  0
M  CHG  2  12  -1  18  -1
M  END
>  <UniqueID>  (13) 
12

>  <SMILES>  (13) 
N#Cc1c(Cc2ccccc2)[n-]c(SCC(=O)[N-]c2cccc(S(N)(=O)=O)c2)nc1=O

>  <Energy>  (13) 
46.36169141643046

>  <Genealogy>  (13) 
N#Cc1c(Cc2ccccc2)[n-]c(SCC(=O)[N-]c2cccc(S(N)(=O)=O)c2)nc1=O (protonated)
N#Cc1c(Cc2ccccc2)[n-]c(SCC(=O)[N-]c2cccc(S(N)(=O)=O)c2)nc1=O (3D coordinates assigned)
N#Cc1c(Cc2ccccc2)[n-]c(SCC(=O)[N-]c2cccc(S(N)(=O)=O)c2)nc1=O (optimized conformer: 46.36169141643046 kcal/mol)

>  <smiles>  (13) 
N#Cc1c(Cc2ccccc2)[nH]c(SCC(=O)Nc2cccc(S(N)(=O)=O)c2)nc1=O

>  <score_type>  (13) 
oracle

>  <origin>  (13) 
adg

>  <m_score__min__energy>  (13) 
-12.880000000000001

>  <m_primary>  (13) 
energy

$$$$
13:0
     RDKit          3D

 49 52  0  0  0  0  0  0  0  0999 V2000
   58.1760   32.2230   48.9970 N   0  0  0  0  0  0  0  0  0  0  0  0
   59.2880   32.3200   48.6930 C   0  0  0  0  0  0  0  0  0  0  0  0
   60.6770   32.4380   48.3110 C   0  0  0  0  0  0  0  0  0  0  0  0
   61.6950   31.8400   49.0970 C   0  0  0  0  0  0  0  0  0  0  0  0
   61.3860   31.1220   50.3110 N   0  0  0  0  0  0  0  0  0  0  0  0
   61.0950   29.7560   49.9960 C   0  0  0  0  0  0  0  0  0  0  0  0
   60.3290   29.1180   49.0390 C   0  0  0  0  0  0  0  0  0  0  0  0
   59.5140   29.5570   47.9530 N   0  0  0  0  0  0  0  0  0  0  0  0
   59.7160   29.0410   46.6020 C   0  0  0  0  0  0  0  0  0  0  0  0
   58.5730   29.4370   45.7100 C   0  0  0  0  0  0  0  0  0  0  0  0
   58.8080   30.1740   44.5400 C   0  0  0  0  0  0  0  0  0  0  0  0
   57.7470   30.4930   43.6910 C   0  0  0  0  0  0  0  0  0  0  0  0
   56.4570   30.0690   44.0190 C   0  0  0  0  0  0  0  0  0  0  0  0
   56.2450   29.3460   45.1510 N   0  0  0  0  0  0  0  0  0  0  0  0
   57.2630   29.0190   45.9920 C   0  0  0  0  0  0  0  0  0  0  0  0
   60.6800   27.8930   49.5760 C   0  0  0  0  0  0  0  0  0  0  0  0
   60.4080   26.6940   49.3110 O   0  0  0  0  0  0  0  0  0  0  0  0
   61.4550   28.5300   50.5230 C   0  0  0  0  0  0  0  0  0  0  0  0
   62.1830   28.1520   51.4780 O   0  0  0  0  0  0  0  0  0  0  0  0
   63.0390   31.9940   48.7070 C   0  0  0  0  0  0  0  0  0  0  0  0
   63.3690   32.7090   47.5550 C   0  0  0  0  0  0  0  0  0  0  0  0
   62.3660   33.2880   46.7800 C   0  0  0  0  0  0  0  0  0  0  0  0
   61.0220   33.1600   47.1490 C   0  0  0  0  0  0  0  0  0  0  0  0
   60.0190   33.7800   46.3330 N   0  0  0  0  0  0  0  0  0  0  0  0
   58.8990   32.9810   45.8340 C   0  0  0  0  0  0  0  0  0  0  0  0
   58.3540   33.6090   44.5480 C   0  0  0  0  0  0  0  0  0  0  0  0
   58.0720   34.9840   44.7400 O   0  0  0  0  0  0  0  0  0  0  0  0
   59.2730   35.6890   44.9950 C   0  0  0  0  0  0  0  0  0  0  0  0
   59.9000   35.2380   46.3190 C   0  0  0  0  0  0  0  0  0  0  0  0
   60.5530   31.5370   50.7890 H   0  0  0  0  0  0  0  0  0  0  0  0
   62.1890   31.1670   50.9790 H   0  0  0  0  0  0  0  0  0  0  0  0
   58.7600   30.2540   48.1500 H   0  0  0  0  0  0  0  0  0  0  0  0
   60.6519   29.4508   46.1943 H   0  0  0  0  0  0  0  0  0  0  0  0
   59.7693   27.9431   46.6452 H   0  0  0  0  0  0  0  0  0  0  0  0
   59.8286   30.5006   44.2915 H   0  0  0  0  0  0  0  0  0  0  0  0
   57.9248   31.0724   42.7730 H   0  0  0  0  0  0  0  0  0  0  0  0
   55.6120   30.3202   43.3610 H   0  0  0  0  0  0  0  0  0  0  0  0
   57.0591   28.4255   46.8954 H   0  0  0  0  0  0  0  0  0  0  0  0
   63.8374   31.5460   49.3168 H   0  0  0  0  0  0  0  0  0  0  0  0
   64.4228   32.8158   47.2581 H   0  0  0  0  0  0  0  0  0  0  0  0
   62.6323   33.8493   45.8723 H   0  0  0  0  0  0  0  0  0  0  0  0
   59.2438   31.9577   45.6243 H   0  0  0  0  0  0  0  0  0  0  0  0
   58.1032   32.9526   46.5929 H   0  0  0  0  0  0  0  0  0  0  0  0
   59.1027   33.5025   43.7492 H   0  0  0  0  0  0  0  0  0  0  0  0
   57.4227   33.0934   44.2710 H   0  0  0  0  0  0  0  0  0  0  0  0
   59.9831   35.4989   44.1767 H   0  0  0  0  0  0  0  0  0  0  0  0
   59.0434   36.7627   45.0620 H   0  0  0  0  0  0  0  0  0  0  0  0
   60.8983   35.6880   46.4236 H   0  0  0  0  0  0  0  0  0  0  0  0
   59.2617   35.5609   47.1547 H   0  0  0  0  0  0  0  0  0  0  0  0
  1  2  3  0
  2  3  1  0
  3  4  2  0
  4  5  1  0
  5  6  1  0
  6  7  2  0
  7  8  1  0
  8  9  1  0
  9 10  1  0
 10 11  2  0
 11 12  1  0
 12 13  2  0
 13 14  1  0
 14 15  2  0
  7 16  1  0
 16 17  2  0
 16 18  1  0
 18 19  2  0
  4 20  1  0
 20 21  2  0
 21 22  1  0
 22 23  2  0
 23 24  1  0
 24 25  1  0
 25 26  1  0
 26 27  1  0
 27 28  1  0
 28 29  1  0
 23  3  1  0
 29 24  1  0
 18  6  1  0
 15 10  1  0
  5 30  1  0
  5 31  1  0
  8 32  1  0
  9 33  1  0
  9 34  1  0
 11 35  1  0
 12 36  1  0
 13 37  1  0
 15 38  1  0
 20 39  1  0
 21 40  1  0
 22 41  1  0
 25 42  1  0
 25 43  1  0
 26 44  1  0
 26 45  1  0
 28 46  1  0
 28 47  1  0
 29 48  1  0
 29 49  1  0
M  CHG  1   5   1
M  END
>  <UniqueID>  (14) 
13

>  <SMILES>  (14) 
N#Cc1c([NH2+]c2c(NCc3cccnc3)c(=O)c2=O)cccc1N1CCOCC1

>  <Energy>  (14) 
49.047447161849995

>  <Genealogy>  (14) 
N#Cc1c([NH2+]c2c(NCc3cccnc3)c(=O)c2=O)cccc1N1CCOCC1 (protonated)
N#Cc1c([NH2+]c2c(NCc3cccnc3)c(=O)c2=O)cccc1N1CCOCC1 (3D coordinates assigned)
N#Cc1c([NH2+]c2c(NCc3cccnc3)c(=O)c2=O)cccc1N1CCOCC1 (nonaromatic ring conformer: 49.047447161849995 kcal/mol)

>  <smiles>  (14) 
N#Cc1c(Nc2c(NCc3cccnc3)c(=O)c2=O)cccc1N1CCOCC1

>  <score_type>  (14) 
oracle

>  <origin>  (14) 
adg

>  <m_score__min__energy>  (14) 
-7.0599999999999996

>  <m_primary>  (14) 
energy

$$$$
14:0
     RDKit          3D

 44 45  0  0  0  0  0  0  0  0999 V2000
   59.3150   30.9240   48.2860 C   0  0  0  0  0  0  0  0  0  0  0  0
   58.4840   31.5240   47.2990 O   0  0  0  0  0  0  0  0  0  0  0  0
   58.1340   30.9230   46.0800 C   0  0  0  0  0  0  0  0  0  0  0  0
   58.5110   29.6040   45.7620 C   0  0  0  0  0  0  0  0  0  0  0  0
   58.1610   29.0380   44.5270 C   0  0  0  0  0  0  0  0  0  0  0  0
   58.5660   27.6270   44.1850 C   0  0  0  0  0  0  0  0  0  0  0  0
   57.4440   26.7000   44.4180 N   0  0  0  0  0  0  0  0  0  0  0  0
   57.5740   25.8510   45.6210 C   0  0  1  0  0  0  0  0  0  0  0  0
   58.7280   26.3030   46.5270 C   0  0  0  0  0  0  0  0  0  0  0  0
   56.2640   25.7130   46.3630 C   0  0  0  0  0  0  0  0  0  0  0  0
   55.1500   26.5140   45.9780 N   0  0  0  0  0  0  0  0  0  0  0  0
   56.1540   24.9220   47.3400 O   0  0  0  0  0  0  0  0  0  0  0  0
   57.3980   29.7880   43.6200 C   0  0  0  0  0  0  0  0  0  0  0  0
   57.0170   31.0940   43.9290 C   0  0  0  0  0  0  0  0  0  0  0  0
   57.3880   31.6730   45.1570 C   0  0  0  0  0  0  0  0  0  0  0  0
   57.0370   32.9900   45.5020 O   0  0  0  0  0  0  0  0  0  0  0  0
   57.8450   34.1460   45.2800 C   0  0  0  0  0  0  0  0  0  0  0  0
   59.0390   34.1490   46.1980 C   0  0  0  0  0  0  0  0  0  0  0  0
   58.8840   34.4730   47.5560 C   0  0  0  0  0  0  0  0  0  0  0  0
   59.9900   34.4810   48.4110 C   0  0  0  0  0  0  0  0  0  0  0  0
   61.2600   34.1750   47.9140 C   0  0  0  0  0  0  0  0  0  0  0  0
   62.3330   34.1840   48.7440 F   0  0  0  0  0  0  0  0  0  0  0  0
   61.4260   33.8640   46.5620 C   0  0  0  0  0  0  0  0  0  0  0  0
   60.3210   33.8540   45.7040 C   0  0  0  0  0  0  0  0  0  0  0  0
   58.9459   31.1905   49.2874 H   0  0  0  0  0  0  0  0  0  0  0  0
   59.2950   29.8307   48.1668 H   0  0  0  0  0  0  0  0  0  0  0  0
   60.3465   31.2870   48.1668 H   0  0  0  0  0  0  0  0  0  0  0  0
   59.0856   29.0116   46.4892 H   0  0  0  0  0  0  0  0  0  0  0  0
   58.8604   27.5809   43.1261 H   0  0  0  0  0  0  0  0  0  0  0  0
   59.4108   27.3330   44.8252 H   0  0  0  0  0  0  0  0  0  0  0  0
   56.5620   27.2580   44.5030 H   0  0  0  0  0  0  0  0  0  0  0  0
   57.8374   24.8409   45.2740 H   0  0  0  0  0  0  0  0  0  0  0  0
   58.4337   26.1877   47.5806 H   0  0  0  0  0  0  0  0  0  0  0  0
   59.6161   25.6863   46.3248 H   0  0  0  0  0  0  0  0  0  0  0  0
   58.9610   27.3588   46.3248 H   0  0  0  0  0  0  0  0  0  0  0  0
   55.1770   27.0840   45.1030 H   0  0  0  0  0  0  0  0  0  0  0  0
   57.0983   29.3438   42.6594 H   0  0  0  0  0  0  0  0  0  0  0  0
   56.4228   31.6749   43.2083 H   0  0  0  0  0  0  0  0  0  0  0  0
   58.1926   34.1479   44.2364 H   0  0  0  0  0  0  0  0  0  0  0  0
   57.2412   35.0425   45.4844 H   0  0  0  0  0  0  0  0  0  0  0  0
   57.8871   34.7217   47.9488 H   0  0  0  0  0  0  0  0  0  0  0  0
   59.8607   34.7282   49.4751 H   0  0  0  0  0  0  0  0  0  0  0  0
   62.4267   33.6267   46.1717 H   0  0  0  0  0  0  0  0  0  0  0  0
   60.4562   33.6144   44.6390 H   0  0  0  0  0  0  0  0  0  0  0  0
  1  2  1  0
  2  3  1  0
  3  4  2  0
  4  5  1  0
  5  6  1  0
  6  7  1  0
  7  8  1  0
  8  9  1  0
  8 10  1  0
 10 11  1  0
 10 12  2  0
  5 13  2  0
 13 14  1  0
 14 15  2  0
 15 16  1  0
 16 17  1  0
 17 18  1  0
 18 19  2  0
 19 20  1  0
 20 21  2  0
 21 22  1  0
 21 23  1  0
 23 24  2  0
 15  3  1  0
 24 18  1  0
  1 25  1  0
  1 26  1  0
  1 27  1  0
  4 28  1  0
  6 29  1  0
  6 30  1  0
  7 31  1  0
  8 32  1  6
  9 33  1  0
  9 34  1  0
  9 35  1  0
 11 36  1  0
 13 37  1  0
 14 38  1  0
 17 39  1  0
 17 40  1  0
 19 41  1  0
 20 42  1  0
 23 43  1  0
 24 44  1  0
M  CHG  1  11  -1
M  END
>  <UniqueID>  (15) 
14

>  <SMILES>  (15) 
COc1cc(CN[C@@H](C)C([NH-])=O)ccc1OCc1ccc(F)cc1

>  <Energy>  (15) 
44.00170717111726

>  <Genealogy>  (15) 
COc1cc(CNC(C)C([NH-])=O)ccc1OCc1ccc(F)cc1 (protonated)
COc1cc(CN[C@@H](C)C([NH-])=O)ccc1OCc1ccc(F)cc1 (chirality)
COc1cc(CN[C@@H](C)C([NH-])=O)ccc1OCc1ccc(F)cc1 (3D coordinates assigned)
COc1cc(CN[C@@H](C)C([NH-])=O)ccc1OCc1ccc(F)cc1 (optimized conformer: 44.00170717111726 kcal/mol)

>  <smiles>  (15) 
COc1cc(CNC(C)C(N)=O)ccc1OCc1ccc(F)cc1

>  <score_type>  (15) 
oracle

>  <origin>  (15) 
adg

>  <m_score__min__energy>  (15) 
-10.76

>  <m_primary>  (15) 
energy

$$$$
15:0
     RDKit          3D

 35 36  0  0  0  0  0  0  0  0999 V2000
   59.3430   28.1400   44.5380 C   0  0  0  0  0  0  0  0  0  0  0  0
   58.2560   29.1600   44.5070 C   0  0  0  0  0  0  0  0  0  0  0  0
   58.5590   30.5010   44.5190 C   0  0  0  0  0  0  0  0  0  0  0  0
   57.5480   31.4610   44.4910 C   0  0  0  0  0  0  0  0  0  0  0  0
   58.0780   33.1670   44.5110 S   0  0  0  0  0  0  0  0  0  0  0  0
   57.7720   33.8280   46.1610 C   0  0  0  0  0  0  0  0  0  0  0  0
   59.0150   33.6670   46.9860 C   0  0  0  0  0  0  0  0  0  0  0  0
   59.1280   34.2120   48.1150 O   0  0  0  0  0  0  0  0  0  0  0  0
   60.1160   32.8930   46.5240 N   0  0  0  0  0  0  0  0  0  0  0  0
   61.2810   32.7510   47.3150 C   0  0  0  0  0  0  0  0  0  0  0  0
   62.2210   33.7780   47.2180 C   0  0  0  0  0  0  0  0  0  0  0  0
   63.4000   33.7640   47.9360 C   0  0  0  0  0  0  0  0  0  0  0  0
   63.6210   32.6690   48.7740 C   0  0  0  0  0  0  0  0  0  0  0  0
   65.2500   32.6490   49.7650 Br  0  0  0  0  0  0  0  0  0  0  0  0
   62.6880   31.6490   48.8710 C   0  0  0  0  0  0  0  0  0  0  0  0
   61.5120   31.6750   48.1470 C   0  0  0  0  0  0  0  0  0  0  0  0
   60.5020   30.5940   48.2370 C   0  0  0  0  0  0  0  0  0  0  0  0
   56.2610   31.0910   44.4500 N   0  0  0  0  0  0  0  0  0  0  0  0
   55.9870   29.7730   44.4380 C   0  0  0  0  0  0  0  0  0  0  0  0
   54.7930   29.3400   44.4000 O   0  0  0  0  0  0  0  0  0  0  0  0
   56.9510   28.8240   44.4660 N   0  0  0  0  0  0  0  0  0  0  0  0
   59.5946   27.9039   45.5825 H   0  0  0  0  0  0  0  0  0  0  0  0
   59.0036   27.2268   44.0272 H   0  0  0  0  0  0  0  0  0  0  0  0
   60.2328   28.5367   44.0272 H   0  0  0  0  0  0  0  0  0  0  0  0
   59.6111   30.8203   44.5511 H   0  0  0  0  0  0  0  0  0  0  0  0
   57.5116   34.8943   46.0894 H   0  0  0  0  0  0  0  0  0  0  0  0
   56.9388   33.2856   46.6317 H   0  0  0  0  0  0  0  0  0  0  0  0
   60.0620   32.4210   45.5840 H   0  0  0  0  0  0  0  0  0  0  0  0
   62.0159   34.6259   46.5479 H   0  0  0  0  0  0  0  0  0  0  0  0
   64.1332   34.5796   47.8517 H   0  0  0  0  0  0  0  0  0  0  0  0
   62.8885   30.7991   49.5399 H   0  0  0  0  0  0  0  0  0  0  0  0
   60.2951   30.3726   49.2944 H   0  0  0  0  0  0  0  0  0  0  0  0
   59.5744   30.9167   47.7417 H   0  0  0  0  0  0  0  0  0  0  0  0
   60.8869   29.6904   47.7417 H   0  0  0  0  0  0  0  0  0  0  0  0
   56.7360   27.8040   44.4570 H   0  0  0  0  0  0  0  0  0  0  0  0
  1  2  1  0
  2  3  2  0
  3  4  1  0
  4  5  1  0
  5  6  1  0
  6  7  1  0
  7  8  2  0
  7  9  1  0
  9 10  1  0
 10 11  2  0
 11 12  1  0
 12 13  2  0
 13 14  1  0
 13 15  1  0
 15 16  2  0
 16 17  1  0
  4 18  2  0
 18 19  1  0
 19 20  2  0
 19 21  1  0
 21  2  1  0
 16 10  1  0
  1 22  1  0
  1 23  1  0
  1 24  1  0
  3 25  1  0
  6 26  1  0
  6 27  1  0
  9 28  1  0
 11 29  1  0
 12 30  1  0
 15 31  1  0
 17 32  1  0
 17 33  1  0
 17 34  1  0
 21 35  1  0
M  END
>  <smiles>  (16) 
Cc1cc(SCC(=O)Nc2ccc(Br)cc2C)nc(=O)[nH]1

>  <score_type>  (16) 
oracle

>  <origin>  (16) 
adg

>  <m_score__min__energy>  (16) 
-8.1899999999999995

>  <m_primary>  (16) 
energy

$$$$
16:0
     RDKit          3D

 41 43  0  0  0  0  0  0  0  0999 V2000
   57.0020   20.7190   42.7780 C   0  0  0  0  0  0  0  0  0  0  0  0
   55.9470   21.6470   43.0040 O   0  0  0  0  0  0  0  0  0  0  0  0
   56.0610   22.7990   43.7960 C   0  0  0  0  0  0  0  0  0  0  0  0
   55.0070   23.2710   44.5990 C   0  0  0  0  0  0  0  0  0  0  0  0
   55.1690   24.4240   45.3720 C   0  0  0  0  0  0  0  0  0  0  0  0
   56.3860   25.1280   45.3590 C   0  0  0  0  0  0  0  0  0  0  0  0
   56.5550   26.3540   46.1720 C   0  0  0  0  0  0  0  0  0  0  0  0
   56.9770   26.2760   47.3580 O   0  0  0  0  0  0  0  0  0  0  0  0
   56.2300   27.6330   45.6190 N   0  0  0  0  0  0  0  0  0  0  0  0
   57.0230   28.2700   44.5770 C   0  0  0  0  0  0  0  0  0  0  0  0
   57.0410   29.7540   44.7830 C   0  0  0  0  0  0  0  0  0  0  0  0
   55.9350   30.5190   44.7040 N   0  0  0  0  0  0  0  0  0  0  0  0
   56.3150   31.7760   44.8750 N   0  0  0  0  0  0  0  0  0  0  0  0
   57.6500   31.7580   45.0500 C   0  0  0  0  0  0  0  0  0  0  0  0
   58.5360   33.1170   45.2800 S   0  0  0  0  0  0  0  0  0  0  0  0
   58.1470   30.5040   44.9980 N   0  0  0  0  0  0  0  0  0  0  0  0
   59.5420   30.0640   45.1330 C   0  0  0  0  0  0  0  0  0  0  0  0
   59.6600   28.9670   46.1570 C   0  0  0  0  0  0  0  0  0  0  0  0
   59.2990   29.1980   47.4960 C   0  0  0  0  0  0  0  0  0  0  0  0
   59.4030   28.1720   48.4400 C   0  0  0  0  0  0  0  0  0  0  0  0
   59.8740   26.9130   48.0570 C   0  0  0  0  0  0  0  0  0  0  0  0
   60.2420   26.6780   46.7300 C   0  0  0  0  0  0  0  0  0  0  0  0
   60.1390   27.7010   45.7820 C   0  0  0  0  0  0  0  0  0  0  0  0
   57.4370   24.6520   44.5540 C   0  0  0  0  0  0  0  0  0  0  0  0
   57.2720   23.4990   43.7820 C   0  0  0  0  0  0  0  0  0  0  0  0
   57.3975   20.3711   43.7437 H   0  0  0  0  0  0  0  0  0  0  0  0
   56.6188   19.8599   42.2078 H   0  0  0  0  0  0  0  0  0  0  0  0
   57.8052   21.2087   42.2078 H   0  0  0  0  0  0  0  0  0  0  0  0
   54.0497   22.7295   44.6187 H   0  0  0  0  0  0  0  0  0  0  0  0
   54.3374   24.7837   45.9958 H   0  0  0  0  0  0  0  0  0  0  0  0
   58.0524   27.8842   44.6153 H   0  0  0  0  0  0  0  0  0  0  0  0
   56.5776   28.0466   43.5963 H   0  0  0  0  0  0  0  0  0  0  0  0
   59.8978   29.6903   44.1616 H   0  0  0  0  0  0  0  0  0  0  0  0
   60.1512   30.9192   45.4608 H   0  0  0  0  0  0  0  0  0  0  0  0
   58.9335   30.1894   47.8019 H   0  0  0  0  0  0  0  0  0  0  0  0
   59.1138   28.3558   49.4853 H   0  0  0  0  0  0  0  0  0  0  0  0
   59.9550   26.1067   48.8009 H   0  0  0  0  0  0  0  0  0  0  0  0
   60.6133   25.6869   46.4303 H   0  0  0  0  0  0  0  0  0  0  0  0
   60.4341   27.5135   44.7391 H   0  0  0  0  0  0  0  0  0  0  0  0
   58.3955   25.1913   44.5321 H   0  0  0  0  0  0  0  0  0  0  0  0
   58.1024   23.1383   43.1572 H   0  0  0  0  0  0  0  0  0  0  0  0
  1  2  1  0
  2  3  1  0
  3  4  2  0
  4  5  1  0
  5  6  2  0
  6  7  1  0
  7  8  2  0
  7  9  1  0
  9 10  1  0
 10 11  1  0
 11 12  2  0
 12 13  1  0
 13 14  1  0
 14 15  2  0
 14 16  1  0
 16 17  1  0
 17 18  1  0
 18 19  2  0
 19 20  1  0
 20 21  2  0
 21 22  1  0
 22 23  2  0
  6 24  1  0
 24 25  2  0
 25  3  1  0
 16 11  1  0
 23 18  1  0
  1 26  1  0
  1 27  1  0
  1 28  1  0
  4 29  1  0
  5 30  1  0
 10 31  1  0
 10 32  1  0
 17 33  1  0
 17 34  1  0
 19 35  1  0
 20 36  1  0
 21 37  1  0
 22 38  1  0
 23 39  1  0
 24 40  1  0
 25 41  1  0
M  CHG  2   9  -1  13  -1
M  END
>  <UniqueID>  (17) 
15

>  <SMILES>  (17) 
COc1ccc(C(=O)[N-]Cc2n[n-]c(=S)n2Cc2ccccc2)cc1

>  <Energy>  (17) 
74.37776473196092

>  <Genealogy>  (17) 
COc1ccc(C(=O)[N-]Cc2n[n-]c(=S)n2Cc2ccccc2)cc1 (protonated)
COc1ccc(C(=O)[N-]Cc2n[n-]c(=S)n2Cc2ccccc2)cc1 (3D coordinates assigned)
COc1ccc(C(=O)[N-]Cc2n[n-]c(=S)n2Cc2ccccc2)cc1 (optimized conformer: 74.37776473196092 kcal/mol)

>  <smiles>  (17) 
COc1ccc(C(=O)NCc2n[nH]c(=S)n2Cc2ccccc2)cc1

>  <score_type>  (17) 
oracle

>  <origin>  (17) 
adg

>  <m_score__min__energy>  (17) 
-11.66

>  <m_primary>  (17) 
energy

$$$$
17:0
     RDKit          3D

 50 52  0  0  0  0  0  0  0  0999 V2000
   57.2880   33.4890   47.4440 O   0  0  0  0  0  0  0  0  0  0  0  0
   58.4550   33.0560   47.2530 C   0  0  0  0  0  0  0  0  0  0  0  0
   58.7880   32.3510   45.9720 C   0  0  0  0  0  0  0  0  0  0  0  0
   59.3300   31.0170   46.2550 N   0  0  0  0  0  0  0  0  0  0  0  0
   58.4900   29.8500   46.1660 C   0  0  0  0  0  0  0  0  0  0  0  0
   58.9720   28.5950   46.5610 C   0  0  0  0  0  0  0  0  0  0  0  0
   58.1840   27.4520   46.4040 C   0  0  0  0  0  0  0  0  0  0  0  0
   56.8990   27.5360   45.8410 C   0  0  0  0  0  0  0  0  0  0  0  0
   56.0950   26.2990   45.6740 C   0  0  0  0  0  0  0  0  0  0  0  0
   56.6230   25.2300   45.2670 O   0  0  0  0  0  0  0  0  0  0  0  0
   54.7370   26.3010   45.9720 O   0  0  0  0  0  0  0  0  0  0  0  0
   56.4150   28.8020   45.4420 C   0  0  0  0  0  0  0  0  0  0  0  0
   55.1530   28.9460   44.8760 O   0  0  0  0  0  0  0  0  0  0  0  0
   57.2080   29.9440   45.6070 C   0  0  0  0  0  0  0  0  0  0  0  0
   60.9690   30.8680   46.8160 S   0  0  0  0  0  0  0  0  0  0  0  0
   61.7010   32.1670   46.6230 O   0  0  0  0  0  0  0  0  0  0  0  0
   61.6680   29.7950   46.0310 O   0  0  0  0  0  0  0  0  0  0  0  0
   60.9740   30.4810   48.5350 C   0  0  0  0  0  0  0  0  0  0  0  0
   61.9830   30.9970   49.3570 C   0  0  0  0  0  0  0  0  0  0  0  0
   61.9830   30.7210   50.7270 C   0  0  0  0  0  0  0  0  0  0  0  0
   60.9740   29.9310   51.2940 C   0  0  0  0  0  0  0  0  0  0  0  0
   61.0170   29.6890   52.6750 O   0  0  0  0  0  0  0  0  0  0  0  0
   59.9800   29.0600   53.4220 C   0  0  0  0  0  0  0  0  0  0  0  0
   59.8790   27.7380   53.0300 F   0  0  0  0  0  0  0  0  0  0  0  0
   58.7740   29.6940   53.1810 F   0  0  0  0  0  0  0  0  0  0  0  0
   59.9590   29.4160   50.4650 C   0  0  0  0  0  0  0  0  0  0  0  0
   59.9600   29.6930   49.0940 C   0  0  0  0  0  0  0  0  0  0  0  0
   59.4640   33.2220   48.2570 N   0  0  0  0  0  0  0  0  0  0  0  0
   59.2000   33.1470   49.6690 C   0  0  0  0  0  0  0  0  0  0  0  0
   58.1770   32.3270   50.1830 C   0  0  0  0  0  0  0  0  0  0  0  0
   57.9720   32.2350   51.5630 C   0  0  0  0  0  0  0  0  0  0  0  0
   58.7900   32.9510   52.4420 C   0  0  0  0  0  0  0  0  0  0  0  0
   58.5330   32.8320   54.1740 Cl  0  0  0  0  0  0  0  0  0  0  0  0
   59.8190   33.7540   51.9410 C   0  0  0  0  0  0  0  0  0  0  0  0
   60.0280   33.8460   50.5610 C   0  0  0  0  0  0  0  0  0  0  0  0
   57.8766   32.2517   45.3642 H   0  0  0  0  0  0  0  0  0  0  0  0
   59.5416   32.9365   45.4250 H   0  0  0  0  0  0  0  0  0  0  0  0
   59.9779   28.5091   46.9978 H   0  0  0  0  0  0  0  0  0  0  0  0
   58.5740   26.4748   46.7248 H   0  0  0  0  0  0  0  0  0  0  0  0
   56.8210   30.9252   45.2947 H   0  0  0  0  0  0  0  0  0  0  0  0
   62.7780   31.6214   48.9233 H   0  0  0  0  0  0  0  0  0  0  0  0
   62.7815   31.1272   51.3654 H   0  0  0  0  0  0  0  0  0  0  0  0
   60.2166   29.1216   54.4945 H   0  0  0  0  0  0  0  0  0  0  0  0
   59.1620   28.7933   50.8974 H   0  0  0  0  0  0  0  0  0  0  0  0
   59.1619   29.2907   48.4528 H   0  0  0  0  0  0  0  0  0  0  0  0
   60.4540   33.3330   47.9400 H   0  0  0  0  0  0  0  0  0  0  0  0
   57.5359   31.7560   49.4953 H   0  0  0  0  0  0  0  0  0  0  0  0
   57.1662   31.5986   51.9575 H   0  0  0  0  0  0  0  0  0  0  0  0
   60.4651   34.3142   52.6330 H   0  0  0  0  0  0  0  0  0  0  0  0
   60.8463   34.4700   50.1725 H   0  0  0  0  0  0  0  0  0  0  0  0
  1  2  2  0
  2  3  1  0
  3  4  1  0
  4  5  1  0
  5  6  2  0
  6  7  1  0
  7  8  2  0
  8  9  1  0
  9 10  2  0
  9 11  1  0
  8 12  1  0
 12 13  1  0
 12 14  2  0
  4 15  1  0
 15 16  2  0
 15 17  2  0
 15 18  1  0
 18 19  2  0
 19 20  1  0
 20 21  2  0
 21 22  1  0
 22 23  1  0
 23 24  1  0
 23 25  1  0
 21 26  1  0
 26 27  2  0
  2 28  1  0
 28 29  1  0
 29 30  2  0
 30 31  1  0
 31 32  2  0
 32 33  1  0
 32 34  1  0
 34 35  2  0
 14  5  1  0
 27 18  1  0
 35 29  1  0
  3 36  1  0
  3 37  1  0
  6 38  1  0
  7 39  1  0
 14 40  1  0
 19 41  1  0
 20 42  1  0
 23 43  1  0
 26 44  1  0
 27 45  1  0
 28 46  1  0
 30 47  1  0
 31 48  1  0
 34 49  1  0
 35 50  1  0
M  CHG  2  11  -1  13  -1
M  END
>  <UniqueID>  (18) 
16

>  <SMILES>  (18) 
O=C(CN(c1ccc(C(=O)[O-])c([O-])c1)S(=O)(=O)c1ccc(OC(F)F)cc1)Nc1ccc(Cl)cc1

>  <Energy>  (18) 
60.25710191490438

>  <Genealogy>  (18) 
O=C(CN(c1ccc(C(=O)[O-])c([O-])c1)S(=O)(=O)c1ccc(OC(F)F)cc1)Nc1ccc(Cl)cc1 (protonated)
O=C(CN(c1ccc(C(=O)[O-])c([O-])c1)S(=O)(=O)c1ccc(OC(F)F)cc1)Nc1ccc(Cl)cc1 (3D coordinates assigned)
O=C(CN(c1ccc(C(=O)[O-])c([O-])c1)S(=O)(=O)c1ccc(OC(F)F)cc1)Nc1ccc(Cl)cc1 (optimized conformer: 60.25710191490438 kcal/mol)

>  <smiles>  (18) 
O=C(CN(c1ccc(C(=O)O)c(O)c1)S(=O)(=O)c1ccc(OC(F)F)cc1)Nc1ccc(Cl)cc1

>  <score_type>  (18) 
oracle

>  <origin>  (18) 
adg

>  <m_score__min__energy>  (18) 
-14.5

>  <m_primary>  (18) 
energy

$$$$
18:0
     RDKit          3D

 36 38  0  0  0  0  0  0  0  0999 V2000
   56.9970   22.3460   46.1240 C   0  0  0  0  0  0  0  0  0  0  0  0
   57.0110   23.6950   46.0450 C   0  0  0  0  0  0  0  0  0  0  0  0
   58.2660   24.3450   45.9530 C   0  0  0  0  0  0  0  0  0  0  0  0
   59.4550   23.6190   45.9470 O   0  0  0  0  0  0  0  0  0  0  0  0
   58.3480   25.7310   45.8620 C   0  0  0  0  0  0  0  0  0  0  0  0
   57.1960   26.5170   45.8560 C   0  0  0  0  0  0  0  0  0  0  0  0
   57.3110   27.9470   45.7460 N   0  0  0  0  0  0  0  0  0  0  0  0
   56.7800   28.7180   44.6190 C   0  0  0  0  0  0  0  0  0  0  0  0
   57.2920   30.0840   44.8820 C   0  0  0  0  0  0  0  0  0  0  0  0
   57.0850   31.2360   44.1230 C   0  0  0  0  0  0  0  0  0  0  0  0
   57.6630   32.4390   44.5570 C   0  0  0  0  0  0  0  0  0  0  0  0
   58.4380   32.4820   45.7360 C   0  0  0  0  0  0  0  0  0  0  0  0
   58.9920   33.7110   46.1220 O   0  0  0  0  0  0  0  0  0  0  0  0
   59.2330   34.7960   45.2320 C   0  0  0  0  0  0  0  0  0  0  0  0
   58.6310   31.2970   46.4840 C   0  0  0  0  0  0  0  0  0  0  0  0
   58.0440   30.1150   46.0320 C   0  0  0  0  0  0  0  0  0  0  0  0
   58.1210   28.7690   46.6490 C   0  0  0  0  0  0  0  0  0  0  0  0
   55.9380   25.9060   45.9590 C   0  0  0  0  0  0  0  0  0  0  0  0
   54.8030   26.7130   45.9980 O   0  0  0  0  0  0  0  0  0  0  0  0
   55.8190   24.4940   46.0490 C   0  0  0  0  0  0  0  0  0  0  0  0
   54.5790   23.9640   46.1390 C   0  0  0  0  0  0  0  0  0  0  0  0
   56.0396   21.8092   46.1966 H   0  0  0  0  0  0  0  0  0  0  0  0
   57.9430   21.7847   46.1157 H   0  0  0  0  0  0  0  0  0  0  0  0
   59.3344   26.2131   45.7939 H   0  0  0  0  0  0  0  0  0  0  0  0
   57.1585   28.3310   43.6614 H   0  0  0  0  0  0  0  0  0  0  0  0
   55.6838   28.6727   44.5397 H   0  0  0  0  0  0  0  0  0  0  0  0
   56.4816   31.2022   43.2039 H   0  0  0  0  0  0  0  0  0  0  0  0
   57.5105   33.3581   43.9722 H   0  0  0  0  0  0  0  0  0  0  0  0
   59.4356   35.7082   45.8123 H   0  0  0  0  0  0  0  0  0  0  0  0
   60.1016   34.5642   44.5980 H   0  0  0  0  0  0  0  0  0  0  0  0
   58.3480   34.9537   44.5980 H   0  0  0  0  0  0  0  0  0  0  0  0
   59.2327   31.3074   47.4048 H   0  0  0  0  0  0  0  0  0  0  0  0
   59.1600   28.4097   46.6860 H   0  0  0  0  0  0  0  0  0  0  0  0
   57.7667   28.7480   47.6902 H   0  0  0  0  0  0  0  0  0  0  0  0
   54.4507   22.8738   46.2102 H   0  0  0  0  0  0  0  0  0  0  0  0
   53.6981   24.6228   46.1410 H   0  0  0  0  0  0  0  0  0  0  0  0
  1  2  2  0
  2  3  1  0
  3  4  1  0
  3  5  2  0
  5  6  1  0
  6  7  1  0
  7  8  1  0
  8  9  1  0
  9 10  2  0
 10 11  1  0
 11 12  2  0
 12 13  1  0
 13 14  1  0
 12 15  1  0
 15 16  2  0
 16 17  1  0
  6 18  2  0
 18 19  1  0
 18 20  1  0
 20 21  2  0
 20  2  1  0
 17  7  1  0
 16  9  1  0
  1 22  1  0
  1 23  1  0
  5 24  1  0
  8 25  1  0
  8 26  1  0
 10 27  1  0
 11 28  1  0
 14 29  1  0
 14 30  1  0
 14 31  1  0
 15 32  1  0
 17 33  1  0
 17 34  1  0
 21 35  1  0
 21 36  1  0
M  CHG  2   4  -1  19  -1
M  END
>  <UniqueID>  (19) 
17

>  <SMILES>  (19) 
C=c1c([O-])cc(N2Cc3ccc(OC)cc3C2)c([O-])c1=C

>  <Energy>  (19) 
64.08792229752484

>  <Genealogy>  (19) 
C=c1c([O-])cc(N2Cc3ccc(OC)cc3C2)c([O-])c1=C (protonated)
C=c1c([O-])cc(N2Cc3ccc(OC)cc3C2)c([O-])c1=C (3D coordinates assigned)
C=c1c([O-])cc(N2Cc3ccc(OC)cc3C2)c([O-])c1=C (nonaromatic ring conformer: 64.08792229752484 kcal/mol)

>  <smiles>  (19) 
C=c1c(O)cc(N2Cc3ccc(OC)cc3C2)c(O)c1=C

>  <score_type>  (19) 
oracle

>  <origin>  (19) 
adg

>  <m_score__min__energy>  (19) 
-12

>  <m_primary>  (19) 
energy

$$$$
19:0
     RDKit          3D

 31 32  0  0  0  0  0  0  0  0999 V2000
   59.3226   35.8552   44.4792 H   0  0  0  0  0  0  0  0  0  0  0  0
   59.1580   35.0740   45.2360 C   0  0  0  0  0  0  0  0  0  0  0  0
   59.5180   35.3020   46.5630 C   0  0  0  0  0  0  0  0  0  0  0  0
   59.9689   36.2626   46.8528 H   0  0  0  0  0  0  0  0  0  0  0  0
   59.3070   34.3130   47.5240 C   0  0  0  0  0  0  0  0  0  0  0  0
   59.5927   34.5019   48.5693 H   0  0  0  0  0  0  0  0  0  0  0  0
   58.7330   33.0760   47.1730 C   0  0  0  0  0  0  0  0  0  0  0  0
   58.5310   32.0520   48.2610 C   0  0  0  0  0  0  0  0  0  0  0  0
   58.6267   32.5372   49.2435 H   0  0  0  0  0  0  0  0  0  0  0  0
   57.5283   31.6097   48.1666 H   0  0  0  0  0  0  0  0  0  0  0  0
   59.2906   31.2620   48.1666 H   0  0  0  0  0  0  0  0  0  0  0  0
   58.3680   32.8450   45.8140 C   0  0  0  0  0  0  0  0  0  0  0  0
   57.7770   31.6260   45.3330 N   0  0  0  0  0  0  0  0  0  0  0  0
   58.4060   30.7440   44.6670 N   0  0  0  0  0  0  0  0  0  0  0  0
   58.2370   29.3490   44.9250 C   0  0  0  0  0  0  0  0  0  0  0  0
   59.2380   28.4060   45.0300 C   0  0  0  0  0  0  0  0  0  0  0  0
   60.7000   28.6420   44.8410 C   0  0  0  0  0  0  0  0  0  0  0  0
   61.1887   28.7209   45.8233 H   0  0  0  0  0  0  0  0  0  0  0  0
   61.1374   27.8028   44.2802 H   0  0  0  0  0  0  0  0  0  0  0  0
   60.8511   29.5762   44.2802 H   0  0  0  0  0  0  0  0  0  0  0  0
   58.6890   27.1960   45.2760 N   0  0  0  0  0  0  0  0  0  0  0  0
   57.3700   27.3470   45.3380 N   0  0  0  0  0  0  0  0  0  0  0  0
   56.4610   26.2650   45.6070 C   0  0  0  0  0  0  0  0  0  0  0  0
   56.8890   24.7280   45.2310 S   0  0  0  0  0  0  0  0  0  0  0  0
   55.1550   26.5120   46.1350 N   0  0  0  0  0  0  0  0  0  0  0  0
   54.7690   27.4780   46.2040 H   0  0  0  0  0  0  0  0  0  0  0  0
   54.5240   25.7150   46.3760 H   0  0  0  0  0  0  0  0  0  0  0  0
   57.0710   28.6490   45.1370 C   0  0  0  0  0  0  0  0  0  0  0  0
   55.9120   29.1390   45.1760 O   0  0  0  0  0  0  0  0  0  0  0  0
   58.5890   33.8550   44.8680 C   0  0  0  0  0  0  0  0  0  0  0  0
   58.3091   33.6836   43.8181 H   0  0  0  0  0  0  0  0  0  0  0  0
  1  2  1  0
  2  3  2  0
  3  4  1  0
  3  5  1  0
  5  6  1  0
  5  7  2  0
  7  8  1  0
  8  9  1  0
  8 10  1  0
  8 11  1  0
  7 12  1  0
 12 13  1  0
 13 14  2  0
 14 15  1  0
 15 16  2  0
 16 17  1  0
 17 18  1  0
 17 19  1  0
 17 20  1  0
 16 21  1  0
 21 22  1  0
 22 23  1  0
 23 24  2  0
 23 25  1  0
 25 26  1  0
 25 27  1  0
 22 28  1  0
 28 29  2  0
 12 30  2  0
 30 31  1  0
 30  2  1  0
 28 15  1  0
M  CHG  1  21  -1
M  END
>  <UniqueID>  (20) 
18

>  <SMILES>  (20) 
Cc1ccccc1/N=N/c1c(C)[n-]n(C(N)=S)c1=O

>  <Energy>  (20) 
68.50855191864626

>  <Genealogy>  (20) 
Cc1ccccc1N=Nc1c(C)[n-]n(C(N)=S)c1=O (protonated)
Cc1ccccc1/N=N/c1c(C)[n-]n(C(N)=S)c1=O (cis-trans isomerization)
Cc1ccccc1/N=N/c1c(C)[n-]n(C(N)=S)c1=O (3D coordinates assigned)
Cc1ccccc1/N=N/c1c(C)[n-]n(C(N)=S)c1=O (optimized conformer: 68.50855191864626 kcal/mol)

>  <smiles>  (20) 
Cc1ccccc1N=Nc1c(C)[nH]n(C(N)=S)c1=O

>  <score_type>  (20) 
oracle

>  <origin>  (20) 
adg

>  <m_score__min__energy>  (20) 
-8.8699999999999992

>  <m_primary>  (20) 
energy

$$$$
20:0
     RDKit          3D

 45 47  0  0  1  0  0  0  0  0999 V2000
   65.0750   33.0560   49.3950 C   0  0  0  0  0  0  0  0  0  0  0  0
   64.3620   33.3570   48.2140 O   0  0  0  0  0  0  0  0  0  0  0  0
   63.1040   32.7960   48.0440 C   0  0  0  0  0  0  0  0  0  0  0  0
   62.1540   33.4950   47.2920 C   0  0  0  0  0  0  0  0  0  0  0  0
   60.8800   32.9630   47.0980 C   0  0  0  0  0  0  0  0  0  0  0  0
   60.5490   31.7410   47.6500 C   0  0  0  0  0  0  0  0  0  0  0  0
   56.3370   28.9790   44.7560 N   0  0  0  0  0  0  0  0  0  0  0  0
   57.5080   29.1170   45.3130 C   0  0  0  0  0  0  0  0  0  0  0  0
   59.9780   29.3100   46.4140 N   0  0  0  0  0  0  0  0  0  0  0  0
   59.7520   28.2850   45.5720 C   0  0  0  0  0  0  0  0  0  0  0  0
   58.4800   28.1900   45.0090 C   0  0  0  0  0  0  0  0  0  0  0  0
   58.9950   30.1950   46.6820 C   0  0  0  0  0  0  0  0  0  0  0  0
   59.2660   31.1460   47.4880 N   0  0  0  0  0  0  0  0  0  0  0  0
   55.7740   29.9580   43.8730 C   0  0  0  0  0  0  0  0  0  0  0  0
   56.8100   30.7380   43.0870 C   0  0  0  0  0  0  0  0  0  0  0  0
   57.2020   31.8600   43.9230 N   0  0  0  0  0  0  0  0  0  0  0  0
   58.2750   32.6440   43.6160 C   0  0  0  0  0  0  0  0  0  0  0  0
   58.3520   33.6030   44.6220 C   0  0  0  0  0  0  0  0  0  0  0  0
   57.3260   33.3800   45.5140 C   0  0  0  0  0  0  0  0  0  0  0  0
   56.6520   32.3020   45.0420 N   0  0  0  0  0  0  0  0  0  0  0  0
   57.7710   30.1300   46.1600 N   0  0  0  0  0  0  0  0  0  0  0  0
   61.4850   31.0240   48.4060 C   0  0  0  0  0  0  0  0  0  0  0  0
   61.1580   29.8160   48.9500 O   0  0  0  0  0  0  0  0  0  0  0  0
   60.4700   29.6420   50.1710 C   0  0  0  0  0  0  0  0  0  0  0  0
   62.7430   31.5750   48.5820 C   0  0  0  0  0  0  0  0  0  0  0  0
   64.4610   33.3152   50.2701 H   0  0  0  0  0  0  0  0  0  0  0  0
   65.3104   31.9817   49.4175 H   0  0  0  0  0  0  0  0  0  0  0  0
   66.0090   33.6366   49.4175 H   0  0  0  0  0  0  0  0  0  0  0  0
   62.4133   34.4691   46.8516 H   0  0  0  0  0  0  0  0  0  0  0  0
   60.1377   33.5171   46.5047 H   0  0  0  0  0  0  0  0  0  0  0  0
   60.9060   29.4060   46.8460 H   0  0  0  0  0  0  0  0  0  0  0  0
   60.5383   27.5523   45.3376 H   0  0  0  0  0  0  0  0  0  0  0  0
   58.2508   27.3672   44.3158 H   0  0  0  0  0  0  0  0  0  0  0  0
   55.1126   29.4434   43.1604 H   0  0  0  0  0  0  0  0  0  0  0  0
   55.2334   30.6827   44.4995 H   0  0  0  0  0  0  0  0  0  0  0  0
   57.6813   30.1022   42.8710 H   0  0  0  0  0  0  0  0  0  0  0  0
   56.4037   31.0816   42.1242 H   0  0  0  0  0  0  0  0  0  0  0  0
   58.9440   32.5396   42.7491 H   0  0  0  0  0  0  0  0  0  0  0  0
   59.1040   34.4027   44.6927 H   0  0  0  0  0  0  0  0  0  0  0  0
   57.0999   33.9577   46.4224 H   0  0  0  0  0  0  0  0  0  0  0  0
   57.0420   30.8380   46.3980 H   0  0  0  0  0  0  0  0  0  0  0  0
   61.1607   29.8167   51.0092 H   0  0  0  0  0  0  0  0  0  0  0  0
   59.6365   30.3576   50.2274 H   0  0  0  0  0  0  0  0  0  0  0  0
   60.0769   28.6162   50.2274 H   0  0  0  0  0  0  0  0  0  0  0  0
   63.4849   31.0187   49.1737 H   0  0  0  0  0  0  0  0  0  0  0  0
  1  2  1  0
  2  3  1  0
  3  4  2  0
  4  5  1  0
  5  6  2  0
  6  7  1  0
  7  8  2  0
  8  9  1  0
  9 10  1  0
 10 11  2  0
 11 12  1  0
 12 13  2  0
 13 14  1  0
 14 15  1  0
 15 16  1  0
 16 17  1  0
 17 18  2  0
 18 19  1  0
 19 20  2  0
 12 21  1  0
  6 22  1  0
 22 23  1  0
 23 24  1  0
 22 25  2  0
 25  3  1  0
 21  8  1  0
 20 16  1  0
  1 26  1  0
  1 27  1  0
  1 28  1  0
  4 29  1  0
  5 30  1  0
  9 31  1  0
 10 32  1  0
 11 33  1  0
 14 34  1  0
 14 35  1  0
 15 36  1  0
 15 37  1  0
 17 38  1  0
 18 39  1  0
 19 40  1  0
 21 41  1  0
 24 42  1  0
 24 43  1  0
 24 44  1  0
 25 45  1  0
M  END
>  <smiles>  (21) 
COc1ccc(N=c2[nH]ccc(=NCCn3cccn3)[nH]2)c(OC)c1

>  <score_type>  (21) 
oracle

>  <origin>  (21) 
adg

>  <m_score__min__energy>  (21) 
-7.7300000000000004

>  <m_primary>  (21) 
energy

$$$$
21:0
     RDKit          3D

 30 31  0  0  0  0  0  0  0  0999 V2000
   55.1440   29.0250   44.8570 O   0  0  0  0  0  0  0  0  0  0  0  0
   56.2630   28.3140   45.2720 C   0  0  0  0  0  0  0  0  0  0  0  0
   57.5360   28.8640   45.1050 C   0  0  0  0  0  0  0  0  0  0  0  0
   58.6750   28.1550   45.5180 C   0  0  0  0  0  0  0  0  0  0  0  0
   60.0520   28.7070   45.2670 C   0  0  0  0  0  0  0  0  0  0  0  0
   60.1680   30.0300   45.8780 N   0  0  0  0  0  0  0  0  0  0  0  0
   59.9470   30.2600   47.2780 C   0  0  0  0  0  0  0  0  0  0  0  0
   60.3750   29.1370   48.3970 S   0  0  0  0  0  0  0  0  0  0  0  0
   59.1750   31.4700   47.7090 C   0  0  0  0  0  0  0  0  0  0  0  0
   58.8890   32.3300   46.5180 C   0  0  0  0  0  0  0  0  0  0  0  0
   57.8490   32.1480   45.6150 C   0  0  0  0  0  0  0  0  0  0  0  0
   57.7590   33.1740   44.6670 C   0  0  0  0  0  0  0  0  0  0  0  0
   58.7120   34.1710   44.8310 C   0  0  0  0  0  0  0  0  0  0  0  0
   59.6660   33.7780   46.1580 S   0  0  0  0  0  0  0  0  0  0  0  0
   58.5230   26.8810   46.0860 C   0  0  0  0  0  0  0  0  0  0  0  0
   57.2510   26.3260   46.2570 C   0  0  0  0  0  0  0  0  0  0  0  0
   57.1340   25.0570   46.8240 O   0  0  0  0  0  0  0  0  0  0  0  0
   56.1150   27.0460   45.8480 C   0  0  0  0  0  0  0  0  0  0  0  0
   54.8440   26.5040   46.0070 O   0  0  0  0  0  0  0  0  0  0  0  0
   57.6466   29.8581   44.6474 H   0  0  0  0  0  0  0  0  0  0  0  0
   60.8023   28.0335   45.7067 H   0  0  0  0  0  0  0  0  0  0  0  0
   60.2212   28.7887   44.1832 H   0  0  0  0  0  0  0  0  0  0  0  0
   60.1240   30.8540   45.2360 H   0  0  0  0  0  0  0  0  0  0  0  0
   58.2272   31.1551   48.1699 H   0  0  0  0  0  0  0  0  0  0  0  0
   59.7664   32.0410   48.4399 H   0  0  0  0  0  0  0  0  0  0  0  0
   57.1662   31.2860   45.6422 H   0  0  0  0  0  0  0  0  0  0  0  0
   57.0042   33.1892   43.8670 H   0  0  0  0  0  0  0  0  0  0  0  0
   58.8234   35.0652   44.2001 H   0  0  0  0  0  0  0  0  0  0  0  0
   59.4120   26.3140   46.3994 H   0  0  0  0  0  0  0  0  0  0  0  0
   56.2360   24.6050   46.9500 H   0  0  0  0  0  0  0  0  0  0  0  0
  1  2  1  0
  2  3  2  0
  3  4  1  0
  4  5  1  0
  5  6  1  0
  6  7  1  0
  7  8  2  0
  7  9  1  0
  9 10  1  0
 10 11  2  0
 11 12  1  0
 12 13  2  0
 13 14  1  0
  4 15  2  0
 15 16  1  0
 16 17  1  0
 16 18  2  0
 18 19  1  0
 18  2  1  0
 14 10  1  0
  3 20  1  0
  5 21  1  0
  5 22  1  0
  6 23  1  0
  9 24  1  0
  9 25  1  0
 11 26  1  0
 12 27  1  0
 13 28  1  0
 15 29  1  0
 17 30  1  0
M  CHG  2   1  -1  19  -1
M  END
>  <UniqueID>  (22) 
19

>  <SMILES>  (22) 
[O-]c1cc(CNC(=S)Cc2cccs2)cc(O)c1[O-]

>  <Energy>  (22) 
49.55457745544722

>  <Genealogy>  (22) 
[O-]c1cc(CNC(=S)Cc2cccs2)cc(O)c1[O-] (protonated)
[O-]c1cc(CNC(=S)Cc2cccs2)cc(O)c1[O-] (3D coordinates assigned)
[O-]c1cc(CNC(=S)Cc2cccs2)cc(O)c1[O-] (optimized conformer: 49.55457745544722 kcal/mol)

>  <smiles>  (22) 
Oc1cc(CNC(=S)Cc2cccs2)cc(O)c1O

>  <score_type>  (22) 
oracle

>  <origin>  (22) 
adg

>  <m_score__min__energy>  (22) 
-15.210000000000001

>  <m_primary>  (22) 
energy

$$$$
22:0
     RDKit          3D

 49 50  0  0  0  0  0  0  0  0999 V2000
   55.0467   31.2480   43.8469 H   0  0  0  0  0  0  0  0  0  0  0  0
   55.6620   30.4440   44.2770 C   0  0  0  0  0  0  0  0  0  0  0  0
   55.1910   29.3320   44.8690 N   0  0  0  0  0  0  0  0  0  0  0  0
   56.3080   28.6690   45.2350 C   0  0  0  0  0  0  0  0  0  0  0  0
   56.2610   27.5340   45.8690 N   0  0  0  0  0  0  0  0  0  0  0  0
   57.0090   26.3360   45.4850 C   0  0  0  0  0  0  0  0  0  0  0  0
   57.5067   26.5181   44.5211 H   0  0  0  0  0  0  0  0  0  0  0  0
   56.3026   25.4965   45.4062 H   0  0  0  0  0  0  0  0  0  0  0  0
   58.0700   25.9790   46.5360 C   0  0  0  0  0  0  0  0  0  0  0  0
   58.3490   24.9224   46.4101 H   0  0  0  0  0  0  0  0  0  0  0  0
   57.6333   26.1680   47.5277 H   0  0  0  0  0  0  0  0  0  0  0  0
   59.3420   26.8440   46.4130 C   0  0  0  0  0  0  0  0  0  0  0  0
   59.7461   26.7334   45.3959 H   0  0  0  0  0  0  0  0  0  0  0  0
   60.0562   26.4959   47.1738 H   0  0  0  0  0  0  0  0  0  0  0  0
   59.0810   28.2840   46.6670 N   0  0  0  0  0  0  0  0  0  0  0  0
   58.1900   28.5260   46.1680 H   0  0  0  0  0  0  0  0  0  0  0  0
   60.2100   29.1380   46.1810 C   0  0  0  0  0  0  0  0  0  0  0  0
   61.0094   29.1345   46.9366 H   0  0  0  0  0  0  0  0  0  0  0  0
   59.8231   30.1547   46.0181 H   0  0  0  0  0  0  0  0  0  0  0  0
   60.7800   28.6290   44.8550 C   0  0  0  0  0  0  0  0  0  0  0  0
   61.5868   27.9086   45.0552 H   0  0  0  0  0  0  0  0  0  0  0  0
   59.9832   28.1364   44.2784 H   0  0  0  0  0  0  0  0  0  0  0  0
   61.1797   29.4762   44.2784 H   0  0  0  0  0  0  0  0  0  0  0  0
   58.8420   28.4920   48.1180 C   0  0  0  0  0  0  0  0  0  0  0  0
   57.8393   28.1159   48.3694 H   0  0  0  0  0  0  0  0  0  0  0  0
   59.6231   27.9491   48.6703 H   0  0  0  0  0  0  0  0  0  0  0  0
   58.9280   29.9730   48.5130 C   0  0  0  0  0  0  0  0  0  0  0  0
   58.9331   30.0603   49.6095 H   0  0  0  0  0  0  0  0  0  0  0  0
   59.8529   30.4079   48.1063 H   0  0  0  0  0  0  0  0  0  0  0  0
   58.0596   30.5120   48.1063 H   0  0  0  0  0  0  0  0  0  0  0  0
   57.4590   29.2940   44.9080 N   0  0  0  0  0  0  0  0  0  0  0  0
   57.0370   30.4140   44.2960 C   0  0  0  0  0  0  0  0  0  0  0  0
   57.9530   31.4960   43.8110 C   0  0  0  0  0  0  0  0  0  0  0  0
   58.9440   31.3563   44.2674 H   0  0  0  0  0  0  0  0  0  0  0  0
   58.0134   31.4306   42.7146 H   0  0  0  0  0  0  0  0  0  0  0  0
   57.4260   32.8880   44.1810 C   0  0  0  0  0  0  0  0  0  0  0  0
   57.5673   33.5619   43.3232 H   0  0  0  0  0  0  0  0  0  0  0  0
   56.3606   32.7933   44.4378 H   0  0  0  0  0  0  0  0  0  0  0  0
   58.1470   33.4600   45.3750 C   0  0  0  0  0  0  0  0  0  0  0  0
   58.0230   32.8510   46.6360 C   0  0  0  0  0  0  0  0  0  0  0  0
   57.3754   31.9703   46.7582 H   0  0  0  0  0  0  0  0  0  0  0  0
   58.7200   33.3610   47.7350 C   0  0  0  0  0  0  0  0  0  0  0  0
   58.6154   32.8845   48.7209 H   0  0  0  0  0  0  0  0  0  0  0  0
   59.5500   34.4760   47.5830 C   0  0  0  0  0  0  0  0  0  0  0  0
   60.0967   34.8768   48.4493 H   0  0  0  0  0  0  0  0  0  0  0  0
   59.6850   35.0810   46.3310 C   0  0  0  0  0  0  0  0  0  0  0  0
   60.3395   35.9570   46.2116 H   0  0  0  0  0  0  0  0  0  0  0  0
   58.9890   34.5740   45.2300 C   0  0  0  0  0  0  0  0  0  0  0  0
   59.1016   35.0503   44.2449 H   0  0  0  0  0  0  0  0  0  0  0  0
  1  2  1  0
  2  3  1  0
  3  4  1  0
  4  5  2  0
  5  6  1  0
  6  7  1  0
  6  8  1  0
  6  9  1  0
  9 10  1  0
  9 11  1  0
  9 12  1  0
 12 13  1  0
 12 14  1  0
 12 15  1  0
 15 16  1  0
 15 17  1  0
 17 18  1  0
 17 19  1  0
 17 20  1  0
 20 21  1  0
 20 22  1  0
 20 23  1  0
 15 24  1  0
 24 25  1  0
 24 26  1  0
 24 27  1  0
 27 28  1  0
 27 29  1  0
 27 30  1  0
  4 31  1  0
 31 32  1  0
 32 33  1  0
 33 34  1  0
 33 35  1  0
 33 36  1  0
 36 37  1  0
 36 38  1  0
 36 39  1  0
 39 40  2  0
 40 41  1  0
 40 42  1  0
 42 43  1  0
 42 44  2  0
 44 45  1  0
 44 46  1  0
 46 47  1  0
 46 48  2  0
 48 49  1  0
 32  2  2  0
 48 39  1  0
M  CHG  3   3  -1  15   1  31  -1
M  END
>  <UniqueID>  (23) 
20

>  <SMILES>  (23) 
CC[NH+](CC)CCC/N=c1/[n-]cc(CCc2ccccc2)[n-]1

>  <Energy>  (23) 
69.96089177282522

>  <Genealogy>  (23) 
CC[NH+](CC)CCCN=c1[n-]cc(CCc2ccccc2)[n-]1 (protonated)
CC[NH+](CC)CCC/N=c1/[n-]cc(CCc2ccccc2)[n-]1 (cis-trans isomerization)
CC[NH+](CC)CCC/N=c1/[n-]cc(CCc2ccccc2)[n-]1 (3D coordinates assigned)
CC[NH+](CC)CCC/N=c1/[n-]cc(CCc2ccccc2)[n-]1 (optimized conformer: 69.96089177282522 kcal/mol)

>  <smiles>  (23) 
CCN(CC)CCCN=c1[nH]cc(CCc2ccccc2)[nH]1

>  <score_type>  (23) 
oracle

>  <origin>  (23) 
adg

>  <m_score__min__energy>  (23) 
-8.3200000000000003

>  <m_primary>  (23) 
energy

$$$$
23:0
     RDKit          3D

 36 37  0  0  0  0  0  0  0  0999 V2000
   57.3430   22.0400   47.1270 N   0  0  0  0  0  0  0  0  0  0  0  0
   57.9580   22.6880   45.6490 S   0  0  0  0  0  0  0  0  0  0  0  0
   59.4400   22.4470   45.5780 O   0  0  0  0  0  0  0  0  0  0  0  0
   57.3020   22.0000   44.4850 O   0  0  0  0  0  0  0  0  0  0  0  0
   57.6290   24.4160   45.5830 C   0  0  0  0  0  0  0  0  0  0  0  0
   58.6600   25.3230   45.3080 C   0  0  0  0  0  0  0  0  0  0  0  0
   58.4000   26.6950   45.2680 C   0  0  0  0  0  0  0  0  0  0  0  0
   57.1060   27.1820   45.5200 C   0  0  0  0  0  0  0  0  0  0  0  0
   56.8190   28.5910   45.4620 N   0  0  0  0  0  0  0  0  0  0  0  0
   56.7630   29.3530   44.2440 C   0  0  0  0  0  0  0  0  0  0  0  0
   57.0950   28.8340   43.1460 O   0  0  0  0  0  0  0  0  0  0  0  0
   56.3820   30.8010   44.2820 C   0  0  0  0  0  0  0  0  0  0  0  0
   57.5630   31.8120   43.3230 S   0  0  0  0  0  0  0  0  0  0  0  0
   58.3360   32.5660   44.7590 C   0  0  0  0  0  0  0  0  0  0  0  0
   58.5590   33.9460   44.7940 C   0  0  0  0  0  0  0  0  0  0  0  0
   59.1470   34.5330   45.9190 C   0  0  0  0  0  0  0  0  0  0  0  0
   59.5270   33.7430   47.0200 C   0  0  0  0  0  0  0  0  0  0  0  0
   60.1240   34.3440   48.1830 N   0  0  0  0  0  0  0  0  0  0  0  0
   61.3500   34.5790   48.2210 O   0  0  0  0  0  0  0  0  0  0  0  0
   59.3530   34.6740   49.2750 O   0  0  0  0  0  0  0  0  0  0  0  0
   59.3110   32.3550   46.9680 C   0  0  0  0  0  0  0  0  0  0  0  0
   58.7210   31.7710   45.8440 C   0  0  0  0  0  0  0  0  0  0  0  0
   56.0690   26.2670   45.7800 C   0  0  0  0  0  0  0  0  0  0  0  0
   54.7730   26.7170   46.0080 O   0  0  0  0  0  0  0  0  0  0  0  0
   56.3340   24.8940   45.8190 C   0  0  0  0  0  0  0  0  0  0  0  0
   57.7640   21.0900   47.2410 H   0  0  0  0  0  0  0  0  0  0  0  0
   59.6793   24.9534   45.1226 H   0  0  0  0  0  0  0  0  0  0  0  0
   59.2134   27.3988   45.0378 H   0  0  0  0  0  0  0  0  0  0  0  0
   56.7480   29.1150   46.3640 H   0  0  0  0  0  0  0  0  0  0  0  0
   55.3757   30.9199   43.8538 H   0  0  0  0  0  0  0  0  0  0  0  0
   56.3974   31.1408   45.3281 H   0  0  0  0  0  0  0  0  0  0  0  0
   58.2715   34.5708   43.9355 H   0  0  0  0  0  0  0  0  0  0  0  0
   59.3137   35.6200   45.9435 H   0  0  0  0  0  0  0  0  0  0  0  0
   59.6086   31.7239   47.8184 H   0  0  0  0  0  0  0  0  0  0  0  0
   58.5588   30.6835   45.8121 H   0  0  0  0  0  0  0  0  0  0  0  0
   55.5207   24.1859   46.0362 H   0  0  0  0  0  0  0  0  0  0  0  0
  1  2  1  0
  2  3  2  0
  2  4  2  0
  2  5  1  0
  5  6  2  0
  6  7  1  0
  7  8  2  0
  8  9  1  0
  9 10  1  0
 10 11  2  0
 10 12  1  0
 12 13  1  0
 13 14  1  0
 14 15  2  0
 15 16  1  0
 16 17  2  0
 17 18  1  0
 18 19  2  0
 18 20  1  0
 17 21  1  0
 21 22  2  0
  8 23  1  0
 23 24  1  0
 23 25  2  0
 25  5  1  0
 22 14  1  0
  1 26  1  0
  6 27  1  0
  7 28  1  0
  9 29  1  0
 12 30  1  0
 12 31  1  0
 15 32  1  0
 16 33  1  0
 21 34  1  0
 22 35  1  0
 25 36  1  0
M  CHG  4   1  -1  18   1  20  -1  24  -1
M  END
>  <UniqueID>  (24) 
21

>  <SMILES>  (24) 
[NH-]S(=O)(=O)c1ccc(NC(=O)CSc2ccc([N+](=O)[O-])cc2)c([O-])c1

>  <Energy>  (24) 
34.79840955814051

>  <Genealogy>  (24) 
[NH-]S(=O)(=O)c1ccc(NC(=O)CSc2ccc([N+](=O)[O-])cc2)c([O-])c1 (protonated)
[NH-]S(=O)(=O)c1ccc(NC(=O)CSc2ccc([N+](=O)[O-])cc2)c([O-])c1 (3D coordinates assigned)
[NH-]S(=O)(=O)c1ccc(NC(=O)CSc2ccc([N+](=O)[O-])cc2)c([O-])c1 (optimized conformer: 34.79840955814051 kcal/mol)

>  <smiles>  (24) 
NS(=O)(=O)c1ccc(NC(=O)CSc2ccc([N+](=O)[O-])cc2)c(O)c1

>  <score_type>  (24) 
oracle

>  <origin>  (24) 
adg

>  <m_score__min__energy>  (24) 
-13.23

>  <m_primary>  (24) 
energy

$$$$
24:0
     RDKit          3D

 61 65  0  0  0  0  0  0  0  0999 V2000
   56.9830   33.3630   45.7570 C   0  0  0  0  0  0  0  0  0  0  0  0
   57.7680   32.1950   45.4130 N   0  0  0  0  0  0  0  0  0  0  0  0
   58.9570   31.8240   46.1100 C   0  0  0  0  0  0  0  0  0  0  0  0
   59.7700   32.6080   46.8600 N   0  0  0  0  0  0  0  0  0  0  0  0
   60.7680   31.8350   47.3240 C   0  0  0  0  0  0  0  0  0  0  0  0
   61.8740   32.2660   48.1750 C   0  0  0  0  0  0  0  0  0  0  0  0
   63.1730   32.0760   47.7520 C   0  0  0  0  0  0  0  0  0  0  0  0
   64.2370   32.4460   48.4810 N   0  0  0  0  0  0  0  0  0  0  0  0
   64.0760   33.0300   49.6820 C   0  0  0  0  0  0  0  0  0  0  0  0
   65.2540   33.4110   50.4330 C   0  0  0  0  0  0  0  0  0  0  0  0
   65.0870   34.2210   51.5370 C   0  0  0  0  0  0  0  0  0  0  0  0
   66.1580   34.6300   52.3050 C   0  0  0  0  0  0  0  0  0  0  0  0
   67.4360   34.2220   51.9710 C   0  0  0  0  0  0  0  0  0  0  0  0
   67.6100   33.4120   50.8690 C   0  0  0  0  0  0  0  0  0  0  0  0
   66.5250   33.0210   50.1210 C   0  0  0  0  0  0  0  0  0  0  0  0
   62.7900   33.2270   50.1220 C   0  0  0  0  0  0  0  0  0  0  0  0
   61.6690   32.8620   49.4040 C   0  0  0  0  0  0  0  0  0  0  0  0
   60.3090   33.0760   49.8810 C   0  0  0  0  0  0  0  0  0  0  0  0
   59.8070   34.2240   50.0130 O   0  0  0  0  0  0  0  0  0  0  0  0
   59.4820   31.9760   50.2230 N   0  0  0  0  0  0  0  0  0  0  0  0
   58.1320   32.2060   50.6960 C   0  0  0  0  0  0  0  0  0  0  0  0
   58.0480   31.7110   52.1170 C   0  0  0  0  0  0  0  0  0  0  0  0
   58.7100   30.4520   52.2530 N   0  0  0  0  0  0  0  0  0  0  0  0
   58.9440   29.7880   50.9860 C   0  0  0  0  0  0  0  0  0  0  0  0
   59.9150   30.5930   50.1240 C   0  0  0  0  0  0  0  0  0  0  0  0
   60.5760   30.6060   46.8720 N   0  0  0  0  0  0  0  0  0  0  0  0
   59.4540   30.5330   46.1040 C   0  0  0  0  0  0  0  0  0  0  0  0
   58.8060   29.4150   45.3770 C   0  0  0  0  0  0  0  0  0  0  0  0
   59.8970   28.3670   45.1240 C   0  0  0  0  0  0  0  0  0  0  0  0
   57.7730   28.7160   46.2590 C   0  0  0  0  0  0  0  0  0  0  0  0
   58.3050   29.7800   44.1030 N   0  0  0  0  0  0  0  0  0  0  0  0
   57.2920   31.1620   44.1040 S   0  0  0  0  0  0  0  0  0  0  0  0
   57.5590   31.9160   42.8290 O   0  0  0  0  0  0  0  0  0  0  0  0
   55.8380   30.8450   44.1760 O   0  0  0  0  0  0  0  0  0  0  0  0
   56.9217   33.4542   46.8515 H   0  0  0  0  0  0  0  0  0  0  0  0
   57.4611   34.2618   45.3404 H   0  0  0  0  0  0  0  0  0  0  0  0
   55.9702   33.2598   45.3404 H   0  0  0  0  0  0  0  0  0  0  0  0
   63.3441   31.6006   46.7749 H   0  0  0  0  0  0  0  0  0  0  0  0
   64.0739   34.5494   51.8123 H   0  0  0  0  0  0  0  0  0  0  0  0
   65.9956   35.2778   53.1791 H   0  0  0  0  0  0  0  0  0  0  0  0
   68.2996   34.5384   52.5744 H   0  0  0  0  0  0  0  0  0  0  0  0
   68.6195   33.0778   50.5876 H   0  0  0  0  0  0  0  0  0  0  0  0
   66.6853   32.3749   49.2453 H   0  0  0  0  0  0  0  0  0  0  0  0
   62.6450   33.7030   51.1030 H   0  0  0  0  0  0  0  0  0  0  0  0
   57.9017   33.2810   50.6606 H   0  0  0  0  0  0  0  0  0  0  0  0
   57.4080   31.6737   50.0616 H   0  0  0  0  0  0  0  0  0  0  0  0
   58.5257   32.4441   52.7836 H   0  0  0  0  0  0  0  0  0  0  0  0
   56.9888   31.5846   52.3855 H   0  0  0  0  0  0  0  0  0  0  0  0
   58.0750   29.8130   52.7940 H   0  0  0  0  0  0  0  0  0  0  0  0
   59.3697   28.7913   51.1742 H   0  0  0  0  0  0  0  0  0  0  0  0
   57.9867   29.7002   50.4513 H   0  0  0  0  0  0  0  0  0  0  0  0
   60.9422   30.4856   50.5025 H   0  0  0  0  0  0  0  0  0  0  0  0
   59.9148   30.2432   49.0811 H   0  0  0  0  0  0  0  0  0  0  0  0
   61.1740   29.7880   47.0570 H   0  0  0  0  0  0  0  0  0  0  0  0
   60.2812   27.9980   46.0864 H   0  0  0  0  0  0  0  0  0  0  0  0
   59.4739   27.5280   44.5521 H   0  0  0  0  0  0  0  0  0  0  0  0
   60.7183   28.8234   44.5521 H   0  0  0  0  0  0  0  0  0  0  0  0
   58.0210   28.8838   47.3175 H   0  0  0  0  0  0  0  0  0  0  0  0
   56.7738   29.1243   46.0473 H   0  0  0  0  0  0  0  0  0  0  0  0
   57.7804   27.6366   46.0473 H   0  0  0  0  0  0  0  0  0  0  0  0
   58.9490   29.7010   43.3080 H   0  0  0  0  0  0  0  0  0  0  0  0
  1  2  1  0
  2  3  1  0
  3  4  1  0
  4  5  2  0
  5  6  1  0
  6  7  2  0
  7  8  1  0
  8  9  2  0
  9 10  1  0
 10 11  2  0
 11 12  1  0
 12 13  2  0
 13 14  1  0
 14 15  2  0
  9 16  1  0
 16 17  2  0
 17 18  1  0
 18 19  2  0
 18 20  1  0
 20 21  1  0
 21 22  1  0
 22 23  1  0
 23 24  1  0
 24 25  1  0
  5 26  1  0
 26 27  1  0
 27 28  1  0
 28 29  1  0
 28 30  1  0
 28 31  1  0
 31 32  1  0
 32 33  2  0
 32 34  2  0
 32  2  1  0
 27  3  2  0
 17  6  1  0
 25 20  1  0
 15 10  1  0
  1 35  1  0
  1 36  1  0
  1 37  1  0
  7 38  1  0
 11 39  1  0
 12 40  1  0
 13 41  1  0
 14 42  1  0
 15 43  1  0
 16 44  1  0
 21 45  1  0
 21 46  1  0
 22 47  1  0
 22 48  1  0
 23 49  1  0
 24 50  1  0
 24 51  1  0
 25 52  1  0
 25 53  1  0
 26 54  1  0
 29 55  1  0
 29 56  1  0
 29 57  1  0
 30 58  1  0
 30 59  1  0
 30 60  1  0
 31 61  1  0
M  END
>  <smiles>  (25) 
CN1c2nc(-c3cnc(-c4ccccc4)cc3C(=O)N3CCNCC3)[nH]c2C(C)(C)NS1(=O)=O

>  <score_type>  (25) 
oracle

>  <origin>  (25) 
adg

>  <m_score__min__energy>  (25) 
-9.9900000000000002

>  <m_primary>  (25) 
energy

$$$$
25:0
     RDKit          3D

 54 57  0  0  0  0  0  0  0  0999 V2000
   60.2740   30.4230   50.5420 C   0  0  0  0  0  0  0  0  0  0  0  0
   60.6490   31.2600   49.3970 N   0  0  0  0  0  0  0  0  0  0  0  0
   59.8240   31.7320   48.4600 C   0  0  0  0  0  0  0  0  0  0  0  0
   60.5400   32.4890   47.5190 C   0  0  0  0  0  0  0  0  0  0  0  0
   59.8950   33.0550   46.3670 C   0  0  0  0  0  0  0  0  0  0  0  0
   60.1490   34.1590   45.8360 O   0  0  0  0  0  0  0  0  0  0  0  0
   58.8150   32.2760   45.7230 C   0  0  0  0  0  0  0  0  0  0  0  0
   57.6650   32.9120   45.2430 C   0  0  0  0  0  0  0  0  0  0  0  0
   56.6750   32.2190   44.6460 N   0  0  0  0  0  0  0  0  0  0  0  0
   56.7740   30.8940   44.5000 C   0  0  0  0  0  0  0  0  0  0  0  0
   57.8820   30.2160   44.9530 C   0  0  0  0  0  0  0  0  0  0  0  0
   57.9160   28.8100   44.7480 N   0  0  0  0  0  0  0  0  0  0  0  0
   58.0180   27.9840   45.8950 C   0  0  0  0  0  0  0  0  0  0  0  0
   58.0650   28.5630   47.0270 O   0  0  0  0  0  0  0  0  0  0  0  0
   58.0680   26.5280   45.8340 C   0  0  0  0  0  0  0  0  0  0  0  0
   56.8350   25.8650   45.8450 C   0  0  0  0  0  0  0  0  0  0  0  0
   56.8100   24.4670   45.7940 C   0  0  0  0  0  0  0  0  0  0  0  0
   58.0270   23.7880   45.7360 C   0  0  0  0  0  0  0  0  0  0  0  0
   57.9770   22.3180   45.6720 C   0  0  0  0  0  0  0  0  0  0  0  0
   58.1810   21.7920   44.3280 N   0  0  0  0  0  0  0  0  0  0  0  0
   56.6240   21.9270   43.5490 S   0  0  0  0  0  0  0  0  0  0  0  0
   56.5690   23.4040   42.6240 N   0  0  0  0  0  0  0  0  0  0  0  0
   56.4980   20.7760   42.6120 O   0  0  0  0  0  0  0  0  0  0  0  0
   55.5200   21.9950   44.5620 O   0  0  0  0  0  0  0  0  0  0  0  0
   59.2240   24.4740   45.7280 C   0  0  0  0  0  0  0  0  0  0  0  0
   59.2620   25.8510   45.7770 C   0  0  0  0  0  0  0  0  0  0  0  0
   58.9010   30.9120   45.5650 C   0  0  0  0  0  0  0  0  0  0  0  0
   61.8460   32.4580   47.9300 C   0  0  0  0  0  0  0  0  0  0  0  0
   62.9750   33.0280   47.4020 C   0  0  0  0  0  0  0  0  0  0  0  0
   63.0470   33.7670   46.3800 N   0  0  0  0  0  0  0  0  0  0  0  0
   64.1350   32.7970   48.0790 N   0  0  0  0  0  0  0  0  0  0  0  0
   64.1930   32.0610   49.1970 C   0  0  0  0  0  0  0  0  0  0  0  0
   63.0720   31.4900   49.7330 N   0  0  0  0  0  0  0  0  0  0  0  0
   61.8780   31.6880   49.0960 C   0  0  0  0  0  0  0  0  0  0  0  0
   60.5112   30.9525   51.4765 H   0  0  0  0  0  0  0  0  0  0  0  0
   59.1952   30.2117   50.5040 H   0  0  0  0  0  0  0  0  0  0  0  0
   60.8344   29.4772   50.5040 H   0  0  0  0  0  0  0  0  0  0  0  0
   58.7390   31.5536   48.4294 H   0  0  0  0  0  0  0  0  0  0  0  0
   57.5666   34.0018   45.3553 H   0  0  0  0  0  0  0  0  0  0  0  0
   55.9595   30.3389   44.0116 H   0  0  0  0  0  0  0  0  0  0  0  0
   57.8680   28.3860   43.7960 H   0  0  0  0  0  0  0  0  0  0  0  0
   55.8965   26.4367   45.8932 H   0  0  0  0  0  0  0  0  0  0  0  0
   55.8566   23.9184   45.7995 H   0  0  0  0  0  0  0  0  0  0  0  0
   58.7615   21.9131   46.3282 H   0  0  0  0  0  0  0  0  0  0  0  0
   56.9701   22.0121   45.9922 H   0  0  0  0  0  0  0  0  0  0  0  0
   58.5070   20.7980   44.3520 H   0  0  0  0  0  0  0  0  0  0  0  0
   55.5900   23.4920   42.2580 H   0  0  0  0  0  0  0  0  0  0  0  0
   57.2960   23.3920   41.8930 H   0  0  0  0  0  0  0  0  0  0  0  0
   60.1675   23.9104   45.6816 H   0  0  0  0  0  0  0  0  0  0  0  0
   60.2199   26.3917   45.7707 H   0  0  0  0  0  0  0  0  0  0  0  0
   59.7886   30.3742   45.9295 H   0  0  0  0  0  0  0  0  0  0  0  0
   62.3950   34.1900   45.7640 H   0  0  0  0  0  0  0  0  0  0  0  0
   65.0370   33.2190   47.7110 H   0  0  0  0  0  0  0  0  0  0  0  0
   65.1629   31.9129   49.6943 H   0  0  0  0  0  0  0  0  0  0  0  0
  1  2  1  0
  2  3  1  0
  3  4  2  0
  4  5  1  0
  5  6  2  0
  5  7  1  0
  7  8  2  0
  8  9  1  0
  9 10  2  0
 10 11  1  0
 11 12  1  0
 12 13  1  0
 13 14  2  0
 13 15  1  0
 15 16  2  0
 16 17  1  0
 17 18  2  0
 18 19  1  0
 19 20  1  0
 20 21  1  0
 21 22  1  0
 21 23  2  0
 21 24  2  0
 18 25  1  0
 25 26  2  0
 11 27  2  0
  4 28  1  0
 28 29  1  0
 29 30  2  3
 29 31  1  0
 31 32  1  0
 32 33  2  0
 33 34  1  0
 34  2  1  0
 27  7  1  0
 34 28  2  0
 26 15  1  0
  1 35  1  0
  1 36  1  0
  1 37  1  0
  3 38  1  0
  8 39  1  0
 10 40  1  0
 12 41  1  0
 16 42  1  0
 17 43  1  0
 19 44  1  0
 19 45  1  0
 20 46  1  0
 22 47  1  0
 22 48  1  0
 25 49  1  0
 26 50  1  0
 27 51  1  0
 30 52  1  0
 31 53  1  0
 32 54  1  0
M  END
>  <smiles>  (26) 
Cn1cc(C(=O)c2cncc(NC(=O)c3ccc(CNS(N)(=O)=O)cc3)c2)c2c(=N)[nH]cnc21

>  <score_type>  (26) 
oracle

>  <origin>  (26) 
adg

>  <m_score__min__energy>  (26) 
-10.380000000000001

>  <m_primary>  (26) 
energy

$$$$
26:0
     RDKit          3D

 40 42  0  0  0  0  0  0  0  0999 V2000
   57.3520   31.6070   42.2750 C   0  0  0  0  0  0  0  0  0  0  0  0
   57.0000   30.3150   42.7530 O   0  0  0  0  0  0  0  0  0  0  0  0
   56.1780   30.1200   43.8680 C   0  0  0  0  0  0  0  0  0  0  0  0
   54.9990   29.6990   43.7240 O   0  0  0  0  0  0  0  0  0  0  0  0
   56.6440   30.4470   45.1810 N   0  0  0  0  0  0  0  0  0  0  0  0
   57.5500   31.5090   45.5180 C   0  0  0  0  0  0  0  0  0  0  0  0
   57.2060   32.8560   45.3120 C   0  0  0  0  0  0  0  0  0  0  0  0
   58.0670   33.8460   45.6590 N   0  0  0  0  0  0  0  0  0  0  0  0
   59.2880   33.5840   46.1970 C   0  0  0  0  0  0  0  0  0  0  0  0
   60.1770   34.7220   46.6060 C   0  0  0  0  0  0  0  0  0  0  0  0
   61.4280   34.1910   47.2510 C   0  0  0  0  0  0  0  0  0  0  0  0
   62.5310   33.8250   46.4650 C   0  0  0  0  0  0  0  0  0  0  0  0
   63.6960   33.3700   47.0860 C   0  0  0  0  0  0  0  0  0  0  0  0
   63.7620   33.2910   48.4410 N   0  0  0  0  0  0  0  0  0  0  0  0
   62.7130   33.6500   49.2270 C   0  0  0  0  0  0  0  0  0  0  0  0
   61.5280   34.1110   48.6480 C   0  0  0  0  0  0  0  0  0  0  0  0
   59.6840   32.2580   46.4040 C   0  0  0  0  0  0  0  0  0  0  0  0
   58.8230   31.2080   46.0480 C   0  0  0  0  0  0  0  0  0  0  0  0
   59.2600   29.8080   46.2650 C   0  0  0  0  0  0  0  0  0  0  0  0
   58.9120   29.1230   47.4440 C   0  0  0  0  0  0  0  0  0  0  0  0
   59.3190   27.7990   47.6380 C   0  0  0  0  0  0  0  0  0  0  0  0
   60.0690   27.1450   46.6560 C   0  0  0  0  0  0  0  0  0  0  0  0
   60.4620   25.8620   46.8450 F   0  0  0  0  0  0  0  0  0  0  0  0
   60.4100   27.8140   45.4770 C   0  0  0  0  0  0  0  0  0  0  0  0
   60.0060   29.1380   45.2800 C   0  0  0  0  0  0  0  0  0  0  0  0
   57.5344   32.2766   43.1285 H   0  0  0  0  0  0  0  0  0  0  0  0
   58.2635   31.5359   41.6634 H   0  0  0  0  0  0  0  0  0  0  0  0
   56.5304   32.0081   41.6634 H   0  0  0  0  0  0  0  0  0  0  0  0
   56.2326   33.1095   44.8667 H   0  0  0  0  0  0  0  0  0  0  0  0
   60.4472   35.3109   45.7171 H   0  0  0  0  0  0  0  0  0  0  0  0
   59.6413   35.3581   47.3261 H   0  0  0  0  0  0  0  0  0  0  0  0
   62.4785   33.8959   45.3685 H   0  0  0  0  0  0  0  0  0  0  0  0
   64.5628   33.0747   46.4766 H   0  0  0  0  0  0  0  0  0  0  0  0
   62.7971   33.5775   50.3214 H   0  0  0  0  0  0  0  0  0  0  0  0
   60.6802   34.4088   49.2825 H   0  0  0  0  0  0  0  0  0  0  0  0
   60.6678   32.0389   46.8447 H   0  0  0  0  0  0  0  0  0  0  0  0
   58.3169   29.6314   48.2169 H   0  0  0  0  0  0  0  0  0  0  0  0
   59.0486   27.2715   48.5646 H   0  0  0  0  0  0  0  0  0  0  0  0
   60.9971   27.2980   44.7030 H   0  0  0  0  0  0  0  0  0  0  0  0
   60.2736   29.6584   44.3486 H   0  0  0  0  0  0  0  0  0  0  0  0
  1  2  1  0
  2  3  1  0
  3  4  2  0
  3  5  1  0
  5  6  1  0
  6  7  2  0
  7  8  1  0
  8  9  2  0
  9 10  1  0
 10 11  1  0
 11 12  2  0
 12 13  1  0
 13 14  2  0
 14 15  1  0
 15 16  2  0
  9 17  1  0
 17 18  2  0
 18 19  1  0
 19 20  2  0
 20 21  1  0
 21 22  2  0
 22 23  1  0
 22 24  1  0
 24 25  2  0
 18  6  1  0
 25 19  1  0
 16 11  1  0
  1 26  1  0
  1 27  1  0
  1 28  1  0
  7 29  1  0
 10 30  1  0
 10 31  1  0
 12 32  1  0
 13 33  1  0
 15 34  1  0
 16 35  1  0
 17 36  1  0
 20 37  1  0
 21 38  1  0
 24 39  1  0
 25 40  1  0
M  CHG  1   5  -1
M  END
>  <UniqueID>  (27) 
22

>  <SMILES>  (27) 
COC(=O)[N-]c1cnc(Cc2ccncc2)cc1-c1ccc(F)cc1

>  <Energy>  (27) 
49.93305732651156

>  <Genealogy>  (27) 
COC(=O)[N-]c1cnc(Cc2ccncc2)cc1-c1ccc(F)cc1 (protonated)
COC(=O)[N-]c1cnc(Cc2ccncc2)cc1-c1ccc(F)cc1 (3D coordinates assigned)
COC(=O)[N-]c1cnc(Cc2ccncc2)cc1-c1ccc(F)cc1 (optimized conformer: 49.93305732651156 kcal/mol)

>  <smiles>  (27) 
COC(=O)Nc1cnc(Cc2ccncc2)cc1-c1ccc(F)cc1

>  <score_type>  (27) 
oracle

>  <origin>  (27) 
adg

>  <m_score__min__energy>  (27) 
-9.2599999999999998

>  <m_primary>  (27) 
energy

$$$$
27:0
     RDKit          3D

 60 64  0  0  0  0  0  0  0  0999 V2000
   55.1850   29.3200   44.5690 N   0  0  0  0  0  0  0  0  0  0  0  0
   56.1390   30.1640   43.9260 C   0  0  0  0  0  0  0  0  0  0  0  0
   56.0660   30.3380   42.6810 O   0  0  0  0  0  0  0  0  0  0  0  0
   57.2330   30.7740   44.7170 C   0  0  0  0  0  0  0  0  0  0  0  0
   57.0290   32.0770   45.2050 C   0  0  0  0  0  0  0  0  0  0  0  0
   58.0070   32.7250   45.9560 C   0  0  0  0  0  0  0  0  0  0  0  0
   59.2280   32.0940   46.2170 C   0  0  0  0  0  0  0  0  0  0  0  0
   60.2640   32.7740   47.0270 C   0  0  0  0  0  0  0  0  0  0  0  0
   61.4220   33.2260   46.3730 C   0  0  0  0  0  0  0  0  0  0  0  0
   62.4500   33.8400   47.0870 C   0  0  0  0  0  0  0  0  0  0  0  0
   62.3410   34.0200   48.4650 C   0  0  0  0  0  0  0  0  0  0  0  0
   61.1890   33.5950   49.1430 C   0  0  0  0  0  0  0  0  0  0  0  0
   61.0770   33.7950   50.5280 C   0  0  0  0  0  0  0  0  0  0  0  0
   59.9240   33.3970   51.2050 C   0  0  0  0  0  0  0  0  0  0  0  0
   58.8720   32.8040   50.5080 C   0  0  0  0  0  0  0  0  0  0  0  0
   58.9670   32.5950   49.1300 C   0  0  0  0  0  0  0  0  0  0  0  0
   60.1310   32.9720   48.4270 C   0  0  0  0  0  0  0  0  0  0  0  0
   59.4500   30.8000   45.7350 C   0  0  0  0  0  0  0  0  0  0  0  0
   58.4700   30.1180   44.9880 C   0  0  0  0  0  0  0  0  0  0  0  0
   58.7950   28.8090   44.4590 N   0  0  0  0  0  0  0  0  0  0  0  0
   58.6560   27.8010   45.4840 C   0  0  0  0  0  0  0  0  0  0  0  0
   59.4420   27.8540   46.6500 C   0  0  0  0  0  0  0  0  0  0  0  0
   59.3020   26.8840   47.6440 C   0  0  0  0  0  0  0  0  0  0  0  0
   58.3760   25.8510   47.4910 C   0  0  0  0  0  0  0  0  0  0  0  0
   57.5750   25.7860   46.3410 C   0  0  0  0  0  0  0  0  0  0  0  0
   56.5860   24.6630   46.1580 C   0  0  0  0  0  0  0  0  0  0  0  0
   57.2090   23.5190   45.4570 N   0  0  0  0  0  0  0  0  0  0  0  0
   56.3110   22.3360   45.4570 C   0  0  0  0  0  0  0  0  0  0  0  0
   56.7180   21.2920   44.4170 C   0  0  0  0  0  0  0  0  0  0  0  0
   56.3920   21.8770   42.7140 S   0  0  0  0  0  0  0  0  0  0  0  0
   56.6630   23.6650   43.0050 C   0  0  0  0  0  0  0  0  0  0  0  0
   57.6970   23.9080   44.1100 C   0  0  0  0  0  0  0  0  0  0  0  0
   57.7230   26.7590   45.3410 C   0  0  0  0  0  0  0  0  0  0  0  0
   54.6880   29.6330   45.4320 H   0  0  0  0  0  0  0  0  0  0  0  0
   56.0816   32.5930   44.9902 H   0  0  0  0  0  0  0  0  0  0  0  0
   57.8186   33.7364   46.3452 H   0  0  0  0  0  0  0  0  0  0  0  0
   61.5188   33.0940   45.2852 H   0  0  0  0  0  0  0  0  0  0  0  0
   63.3521   34.1843   46.5601 H   0  0  0  0  0  0  0  0  0  0  0  0
   63.1608   34.4967   49.0223 H   0  0  0  0  0  0  0  0  0  0  0  0
   61.9018   34.2675   51.0817 H   0  0  0  0  0  0  0  0  0  0  0  0
   59.8446   33.5514   52.2912 H   0  0  0  0  0  0  0  0  0  0  0  0
   57.9623   32.4991   51.0461 H   0  0  0  0  0  0  0  0  0  0  0  0
   58.1281   32.1331   48.5889 H   0  0  0  0  0  0  0  0  0  0  0  0
   60.4098   30.3047   45.9436 H   0  0  0  0  0  0  0  0  0  0  0  0
   58.2140   28.5420   43.6370 H   0  0  0  0  0  0  0  0  0  0  0  0
   59.7810   28.8380   44.1070 H   0  0  0  0  0  0  0  0  0  0  0  0
   60.1725   28.6662   46.7792 H   0  0  0  0  0  0  0  0  0  0  0  0
   59.9232   26.9339   48.5504 H   0  0  0  0  0  0  0  0  0  0  0  0
   58.2739   25.0856   48.2744 H   0  0  0  0  0  0  0  0  0  0  0  0
   56.2318   24.3308   47.1450 H   0  0  0  0  0  0  0  0  0  0  0  0
   55.7453   25.0309   45.5515 H   0  0  0  0  0  0  0  0  0  0  0  0
   56.3400   21.8711   46.4535 H   0  0  0  0  0  0  0  0  0  0  0  0
   55.2992   22.6845   45.2025 H   0  0  0  0  0  0  0  0  0  0  0  0
   57.7926   21.0822   44.5231 H   0  0  0  0  0  0  0  0  0  0  0  0
   56.1221   20.3836   44.5892 H   0  0  0  0  0  0  0  0  0  0  0  0
   57.0210   24.1278   42.0735 H   0  0  0  0  0  0  0  0  0  0  0  0
   55.7087   24.1095   43.3239 H   0  0  0  0  0  0  0  0  0  0  0  0
   58.5990   23.3215   43.8811 H   0  0  0  0  0  0  0  0  0  0  0  0
   57.9046   24.9880   44.1345 H   0  0  0  0  0  0  0  0  0  0  0  0
   57.1019   26.7060   44.4347 H   0  0  0  0  0  0  0  0  0  0  0  0
  1  2  1  0
  2  3  2  0
  2  4  1  0
  4  5  2  0
  5  6  1  0
  6  7  2  0
  7  8  1  0
  8  9  2  0
  9 10  1  0
 10 11  2  0
 11 12  1  0
 12 13  2  0
 13 14  1  0
 14 15  2  0
 15 16  1  0
 16 17  2  0
  7 18  1  0
 18 19  2  0
 19 20  1  0
 20 21  1  0
 21 22  2  0
 22 23  1  0
 23 24  2  0
 24 25  1  0
 25 26  1  0
 26 27  1  0
 27 28  1  0
 28 29  1  0
 29 30  1  0
 30 31  1  0
 31 32  1  0
 25 33  2  0
 19  4  1  0
 33 21  1  0
 17  8  1  0
 32 27  1  0
 17 12  1  0
  1 34  1  0
  5 35  1  0
  6 36  1  0
  9 37  1  0
 10 38  1  0
 11 39  1  0
 13 40  1  0
 14 41  1  0
 15 42  1  0
 16 43  1  0
 18 44  1  0
 20 45  1  0
 20 46  1  0
 22 47  1  0
 23 48  1  0
 24 49  1  0
 26 50  1  0
 26 51  1  0
 28 52  1  0
 28 53  1  0
 29 54  1  0
 29 55  1  0
 31 56  1  0
 31 57  1  0
 32 58  1  0
 32 59  1  0
 33 60  1  0
M  CHG  2   1  -1  20   1
M  END
>  <UniqueID>  (28) 
23

>  <SMILES>  (28) 
[NH-]C(=O)c1ccc(-c2cccc3ccccc23)cc1[NH2+]c1cccc(CN2CCSCC2)c1

>  <Energy>  (28) 
92.9865116217763

>  <Genealogy>  (28) 
[NH-]C(=O)c1ccc(-c2cccc3ccccc23)cc1[NH2+]c1cccc(CN2CCSCC2)c1 (protonated)
[NH-]C(=O)c1ccc(-c2cccc3ccccc23)cc1[NH2+]c1cccc(CN2CCSCC2)c1 (3D coordinates assigned)
[NH-]C(=O)c1ccc(-c2cccc3ccccc23)cc1[NH2+]c1cccc(CN2CCSCC2)c1 (nonaromatic ring conformer: 92.9865116217763 kcal/mol)

>  <smiles>  (28) 
NC(=O)c1ccc(-c2cccc3ccccc23)cc1Nc1cccc(CN2CCSCC2)c1

>  <score_type>  (28) 
oracle

>  <origin>  (28) 
adg

>  <m_score__min__energy>  (28) 
-11.07

>  <m_primary>  (28) 
energy

$$$$
28:0
     RDKit          3D

 46 48  0  0  0  0  0  0  0  0999 V2000
   52.1039   30.9411   52.7895 H   0  0  0  0  0  0  0  0  0  0  0  0
   52.3190   31.4080   51.8170 C   0  0  0  0  0  0  0  0  0  0  0  0
   51.3390   32.3400   51.2400 C   0  0  0  0  0  0  0  0  0  0  0  0
   51.1020   32.3060   50.0050 O   0  0  0  0  0  0  0  0  0  0  0  0
   50.6660   33.2590   52.0380 O   0  0  0  0  0  0  0  0  0  0  0  0
   53.4670   31.1110   51.1920 C   0  0  0  0  0  0  0  0  0  0  0  0
   53.4979   31.1970   50.0958 H   0  0  0  0  0  0  0  0  0  0  0  0
   54.6980   30.6730   51.8940 C   0  0  0  0  0  0  0  0  0  0  0  0
   54.6060   29.6510   52.8490 C   0  0  0  0  0  0  0  0  0  0  0  0
   53.6297   29.1928   53.0656 H   0  0  0  0  0  0  0  0  0  0  0  0
   55.7130   29.2220   53.5090 N   0  0  0  0  0  0  0  0  0  0  0  0
   56.9410   29.7490   53.2690 C   0  0  0  0  0  0  0  0  0  0  0  0
   57.8134   29.3810   53.8290 H   0  0  0  0  0  0  0  0  0  0  0  0
   57.1030   30.7610   52.3100 C   0  0  0  0  0  0  0  0  0  0  0  0
   58.4080   31.3240   52.0440 N   0  0  0  0  0  0  0  0  0  0  0  0
   59.0440   31.0970   52.8380 H   0  0  0  0  0  0  0  0  0  0  0  0
   58.3550   32.3690   52.0160 H   0  0  0  0  0  0  0  0  0  0  0  0
   58.9070   30.8670   50.7630 C   0  0  0  0  0  0  0  0  0  0  0  0
   58.9330   29.4830   50.5090 C   0  0  0  0  0  0  0  0  0  0  0  0
   58.6275   28.7829   51.3005 H   0  0  0  0  0  0  0  0  0  0  0  0
   59.3390   28.9830   49.2720 C   0  0  0  0  0  0  0  0  0  0  0  0
   59.3753   27.8963   49.1053 H   0  0  0  0  0  0  0  0  0  0  0  0
   59.7000   29.8580   48.2430 C   0  0  0  0  0  0  0  0  0  0  0  0
   60.1670   29.3170   46.9250 C   0  0  0  0  0  0  0  0  0  0  0  0
   60.8769   28.4946   47.0970 H   0  0  0  0  0  0  0  0  0  0  0  0
   59.3035   28.9429   46.3555 H   0  0  0  0  0  0  0  0  0  0  0  0
   60.6632   30.1166   46.3555 H   0  0  0  0  0  0  0  0  0  0  0  0
   59.6860   31.2380   48.4770 C   0  0  0  0  0  0  0  0  0  0  0  0
   59.9855   31.9250   47.6718 H   0  0  0  0  0  0  0  0  0  0  0  0
   59.2960   31.7630   49.7230 C   0  0  0  0  0  0  0  0  0  0  0  0
   59.3000   33.2360   49.8680 C   0  0  0  0  0  0  0  0  0  0  0  0
   58.9290   33.7740   50.9460 O   0  0  0  0  0  0  0  0  0  0  0  0
   59.7390   34.0470   48.7700 N   0  0  0  0  0  0  0  0  0  0  0  0
   59.1400   34.1190   47.4680 C   0  0  0  0  0  0  0  0  0  0  0  0
   57.9010   33.4950   47.2630 C   0  0  0  0  0  0  0  0  0  0  0  0
   57.4042   32.9798   48.0983 H   0  0  0  0  0  0  0  0  0  0  0  0
   57.2930   33.5230   46.0050 C   0  0  0  0  0  0  0  0  0  0  0  0
   56.3148   33.0424   45.8562 H   0  0  0  0  0  0  0  0  0  0  0  0
   57.9280   34.1620   44.9350 C   0  0  0  0  0  0  0  0  0  0  0  0
   57.4463   34.1906   43.9465 H   0  0  0  0  0  0  0  0  0  0  0  0
   59.1750   34.7640   45.1230 C   0  0  0  0  0  0  0  0  0  0  0  0
   59.6777   35.2596   44.2794 H   0  0  0  0  0  0  0  0  0  0  0  0
   59.7850   34.7380   46.3800 C   0  0  0  0  0  0  0  0  0  0  0  0
   60.7722   35.2026   46.5200 H   0  0  0  0  0  0  0  0  0  0  0  0
   55.9670   31.2170   51.6200 C   0  0  0  0  0  0  0  0  0  0  0  0
   56.0702   32.0053   50.8598 H   0  0  0  0  0  0  0  0  0  0  0  0
  1  2  1  0
  2  3  1  0
  3  4  2  0
  3  5  1  0
  2  6  2  0
  6  7  1  0
  6  8  1  0
  8  9  2  0
  9 10  1  0
  9 11  1  0
 11 12  2  0
 12 13  1  0
 12 14  1  0
 14 15  1  0
 15 16  1  0
 15 17  1  0
 15 18  1  0
 18 19  2  0
 19 20  1  0
 19 21  1  0
 21 22  1  0
 21 23  2  0
 23 24  1  0
 24 25  1  0
 24 26  1  0
 24 27  1  0
 23 28  1  0
 28 29  1  0
 28 30  2  0
 30 31  1  0
 31 32  2  0
 31 33  1  0
 33 34  1  0
 34 35  2  0
 35 36  1  0
 35 37  1  0
 37 38  1  0
 37 39  2  0
 39 40  1  0
 39 41  1  0
 41 42  1  0
 41 43  2  0
 43 44  1  0
 14 45  2  0
 45 46  1  0
 45  8  1  0
 30 18  1  0
 43 34  1  0
M  CHG  3   5  -1  15   1  33  -1
M  END
>  <UniqueID>  (29) 
24

>  <SMILES>  (29) 
Cc1ccc([NH2+]c2cncc(/C=C/C(=O)[O-])c2)c(C(=O)[N-]c2ccccc2)c1

>  <Energy>  (29) 
63.4350519037441

>  <Genealogy>  (29) 
Cc1ccc([NH2+]c2cncc(C=CC(=O)[O-])c2)c(C(=O)[N-]c2ccccc2)c1 (protonated)
Cc1ccc([NH2+]c2cncc(/C=C/C(=O)[O-])c2)c(C(=O)[N-]c2ccccc2)c1 (cis-trans isomerization)
Cc1ccc([NH2+]c2cncc(/C=C/C(=O)[O-])c2)c(C(=O)[N-]c2ccccc2)c1 (3D coordinates assigned)
Cc1ccc([NH2+]c2cncc(/C=C/C(=O)[O-])c2)c(C(=O)[N-]c2ccccc2)c1 (optimized conformer: 63.4350519037441 kcal/mol)

>  <smiles>  (29) 
Cc1ccc(Nc2cncc(C=CC(=O)O)c2)c(C(=O)Nc2ccccc2)c1

>  <score_type>  (29) 
oracle

>  <origin>  (29) 
adg

>  <m_score__min__energy>  (29) 
-11.609999999999999

>  <m_primary>  (29) 
energy

$$$$
29:0
     RDKit          3D

 54 57  0  0  0  0  0  0  0  0999 V2000
   57.4670   32.3290   41.1520 C   0  0  0  0  0  0  0  0  0  0  0  0
   57.4840   31.8880   42.5880 C   0  0  0  0  0  0  0  0  0  0  0  0
   57.9460   32.7550   43.5920 C   0  0  0  0  0  0  0  0  0  0  0  0
   57.9470   32.3480   44.9340 C   0  0  0  0  0  0  0  0  0  0  0  0
   58.5490   33.4260   46.1890 S   0  0  0  0  0  0  0  0  0  0  0  0
   59.1860   34.6450   45.5830 O   0  0  0  0  0  0  0  0  0  0  0  0
   57.3960   33.8540   47.0530 O   0  0  0  0  0  0  0  0  0  0  0  0
   59.7210   32.6030   47.1690 N   0  0  0  0  0  0  0  0  0  0  0  0
   61.1470   32.7720   47.0420 C   0  0  0  0  0  0  0  0  0  0  0  0
   61.7010   33.9350   46.4700 C   0  0  0  0  0  0  0  0  0  0  0  0
   63.0850   34.0840   46.3630 C   0  0  0  0  0  0  0  0  0  0  0  0
   63.9350   33.0790   46.8190 C   0  0  0  0  0  0  0  0  0  0  0  0
   63.4040   31.9240   47.3940 C   0  0  0  0  0  0  0  0  0  0  0  0
   62.0140   31.7700   47.5270 C   0  0  0  0  0  0  0  0  0  0  0  0
   61.4730   30.6160   48.1150 O   0  0  0  0  0  0  0  0  0  0  0  0
   60.5500   29.7650   47.4930 C   0  0  0  0  0  0  0  0  0  0  0  0
   60.7860   29.3870   46.1660 C   0  0  0  0  0  0  0  0  0  0  0  0
   59.9100   28.5190   45.5100 C   0  0  0  0  0  0  0  0  0  0  0  0
   58.7820   28.0330   46.1720 C   0  0  0  0  0  0  0  0  0  0  0  0
   58.5170   28.4250   47.4860 C   0  0  0  0  0  0  0  0  0  0  0  0
   59.3870   29.3020   48.1570 C   0  0  0  0  0  0  0  0  0  0  0  0
   59.0530   29.7600   49.4800 N   0  0  0  0  0  0  0  0  0  0  0  0
   58.4700   31.0980   49.6500 C   0  0  0  0  0  0  0  0  0  0  0  0
   57.9720   31.3050   51.0810 C   0  0  0  0  0  0  0  0  0  0  0  0
   57.5260   30.0790   51.6200 O   0  0  0  0  0  0  0  0  0  0  0  0
   58.6420   29.2570   51.8950 C   0  0  0  0  0  0  0  0  0  0  0  0
   59.5060   28.9840   50.6440 C   0  0  0  0  0  0  0  0  0  0  0  0
   57.4660   31.0780   45.2740 C   0  0  0  0  0  0  0  0  0  0  0  0
   56.9940   30.2170   44.2810 C   0  0  0  0  0  0  0  0  0  0  0  0
   57.0000   30.6180   42.9420 C   0  0  0  0  0  0  0  0  0  0  0  0
   56.5300   29.7700   41.9920 F   0  0  0  0  0  0  0  0  0  0  0  0
   57.4247   33.4272   41.1062 H   0  0  0  0  0  0  0  0  0  0  0  0
   58.3794   31.9759   40.6492 H   0  0  0  0  0  0  0  0  0  0  0  0
   56.5845   31.9067   40.6492 H   0  0  0  0  0  0  0  0  0  0  0  0
   58.3089   33.7583   43.3242 H   0  0  0  0  0  0  0  0  0  0  0  0
   59.3420   31.9290   47.8720 H   0  0  0  0  0  0  0  0  0  0  0  0
   61.0370   34.7323   46.1047 H   0  0  0  0  0  0  0  0  0  0  0  0
   63.5054   34.9976   45.9173 H   0  0  0  0  0  0  0  0  0  0  0  0
   65.0248   33.1960   46.7258 H   0  0  0  0  0  0  0  0  0  0  0  0
   64.0780   31.1289   47.7454 H   0  0  0  0  0  0  0  0  0  0  0  0
   61.6677   29.7764   45.6360 H   0  0  0  0  0  0  0  0  0  0  0  0
   60.1096   28.2184   44.4709 H   0  0  0  0  0  0  0  0  0  0  0  0
   58.1001   27.3397   45.6579 H   0  0  0  0  0  0  0  0  0  0  0  0
   57.6215   28.0449   47.9994 H   0  0  0  0  0  0  0  0  0  0  0  0
   59.2355   31.8547   49.4232 H   0  0  0  0  0  0  0  0  0  0  0  0
   57.6146   31.1954   48.9654 H   0  0  0  0  0  0  0  0  0  0  0  0
   58.7930   31.6973   51.6991 H   0  0  0  0  0  0  0  0  0  0  0  0
   57.1364   32.0204   51.0722 H   0  0  0  0  0  0  0  0  0  0  0  0
   59.2665   29.7538   52.6521 H   0  0  0  0  0  0  0  0  0  0  0  0
   58.2608   28.2890   52.2524 H   0  0  0  0  0  0  0  0  0  0  0  0
   60.5487   29.2545   50.8669 H   0  0  0  0  0  0  0  0  0  0  0  0
   59.4156   27.9162   50.3958 H   0  0  0  0  0  0  0  0  0  0  0  0
   57.4598   30.7574   46.3262 H   0  0  0  0  0  0  0  0  0  0  0  0
   56.6164   29.2204   44.5533 H   0  0  0  0  0  0  0  0  0  0  0  0
  1  2  1  0
  2  3  2  0
  3  4  1  0
  4  5  1  0
  5  6  2  0
  5  7  2  0
  5  8  1  0
  8  9  1  0
  9 10  2  0
 10 11  1  0
 11 12  2  0
 12 13  1  0
 13 14  2  0
 14 15  1  0
 15 16  1  0
 16 17  2  0
 17 18  1  0
 18 19  2  0
 19 20  1  0
 20 21  2  0
 21 22  1  0
 22 23  1  0
 23 24  1  0
 24 25  1  0
 25 26  1  0
 26 27  1  0
  4 28  2  0
 28 29  1  0
 29 30  2  0
 30 31  1  0
 30  2  1  0
 14  9  1  0
 21 16  1  0
 27 22  1  0
  1 32  1  0
  1 33  1  0
  1 34  1  0
  3 35  1  0
  8 36  1  0
 10 37  1  0
 11 38  1  0
 12 39  1  0
 13 40  1  0
 17 41  1  0
 18 42  1  0
 19 43  1  0
 20 44  1  0
 23 45  1  0
 23 46  1  0
 24 47  1  0
 24 48  1  0
 26 49  1  0
 26 50  1  0
 27 51  1  0
 27 52  1  0
 28 53  1  0
 29 54  1  0
M  END
>  <UniqueID>  (30) 
25

>  <SMILES>  (30) 
Cc1cc(S(=O)(=O)Nc2ccccc2Oc2ccccc2N2CCOCC2)ccc1F

>  <Energy>  (30) 
75.33981999483119

>  <Genealogy>  (30) 
Cc1cc(S(=O)(=O)Nc2ccccc2Oc2ccccc2N2CCOCC2)ccc1F (3D coordinates assigned)
Cc1cc(S(=O)(=O)Nc2ccccc2Oc2ccccc2N2CCOCC2)ccc1F (nonaromatic ring conformer: 75.33981999483119 kcal/mol)

>  <smiles>  (30) 
Cc1cc(S(=O)(=O)Nc2ccccc2Oc2ccccc2N2CCOCC2)ccc1F

>  <score_type>  (30) 
oracle

>  <origin>  (30) 
adg

>  <m_score__min__energy>  (30) 
-9.7699999999999996

>  <m_primary>  (30) 
energy

$$$$
30:0
     RDKit          3D

 56 59  0  0  0  0  0  0  0  0999 V2000
   57.0480   29.2590   42.3890 H   0  0  0  0  0  0  0  0  0  0  0  0
   56.8310   30.0130   43.1600 C   0  0  0  0  0  0  0  0  0  0  0  0
   56.0320   29.5780   44.3240 C   0  0  0  0  0  0  0  0  0  0  0  0
   54.8020   29.3610   44.1650 O   0  0  0  0  0  0  0  0  0  0  0  0
   56.6110   29.5060   45.6360 N   0  0  0  0  0  0  0  0  0  0  0  0
   57.8180   28.8280   46.0120 C   0  0  0  0  0  0  0  0  0  0  0  0
   58.2810   27.7900   45.1950 C   0  0  0  0  0  0  0  0  0  0  0  0
   57.7219   27.5168   44.2880 H   0  0  0  0  0  0  0  0  0  0  0  0
   59.4480   27.1000   45.5250 C   0  0  0  0  0  0  0  0  0  0  0  0
   59.8100   26.2918   44.8725 H   0  0  0  0  0  0  0  0  0  0  0  0
   60.1580   27.4320   46.6810 C   0  0  0  0  0  0  0  0  0  0  0  0
   61.0899   26.8997   46.9224 H   0  0  0  0  0  0  0  0  0  0  0  0
   59.6880   28.4430   47.5380 C   0  0  0  0  0  0  0  0  0  0  0  0
   60.4400   28.8170   48.7580 C   0  0  0  0  0  0  0  0  0  0  0  0
   60.7060   27.9270   49.6110 O   0  0  0  0  0  0  0  0  0  0  0  0
   60.8580   30.2040   49.0380 C   0  0  0  0  0  0  0  0  0  0  0  0
   61.9610   30.8440   48.4870 C   0  0  0  0  0  0  0  0  0  0  0  0
   62.6739   30.3747   47.7931 H   0  0  0  0  0  0  0  0  0  0  0  0
   62.0390   32.1280   48.9220 N   0  0  0  0  0  0  0  0  0  0  0  0
   63.0480   33.1170   48.5100 C   0  0  0  0  0  0  0  0  0  0  0  0
   62.6169   34.1230   48.6197 H   0  0  0  0  0  0  0  0  0  0  0  0
   63.4230   32.9120   47.0400 C   0  0  0  0  0  0  0  0  0  0  0  0
   64.3866   32.3852   46.9774 H   0  0  0  0  0  0  0  0  0  0  0  0
   62.6451   32.3137   46.5431 H   0  0  0  0  0  0  0  0  0  0  0  0
   63.5067   33.8898   46.5431 H   0  0  0  0  0  0  0  0  0  0  0  0
   64.2860   33.0380   49.4090 C   0  0  0  0  0  0  0  0  0  0  0  0
   63.9750   33.0578   50.4639 H   0  0  0  0  0  0  0  0  0  0  0  0
   64.8288   32.1034   49.2043 H   0  0  0  0  0  0  0  0  0  0  0  0
   64.9432   33.8960   49.2043 H   0  0  0  0  0  0  0  0  0  0  0  0
   60.9630   32.3150   49.7220 C   0  0  0  0  0  0  0  0  0  0  0  0
   60.5510   33.4850   50.3680 C   0  0  0  0  0  0  0  0  0  0  0  0
   61.1403   34.4115   50.3019 H   0  0  0  0  0  0  0  0  0  0  0  0
   59.3550   33.4320   51.1050 C   0  0  0  0  0  0  0  0  0  0  0  0
   59.0024   34.3265   51.6394 H   0  0  0  0  0  0  0  0  0  0  0  0
   58.6260   32.2740   51.1620 N   0  0  0  0  0  0  0  0  0  0  0  0
   59.0260   31.1340   50.5270 C   0  0  0  0  0  0  0  0  0  0  0  0
   58.4190   30.2180   50.5768 H   0  0  0  0  0  0  0  0  0  0  0  0
   60.2230   31.1600   49.8140 C   0  0  0  0  0  0  0  0  0  0  0  0
   58.5150   29.1380   47.1940 C   0  0  0  0  0  0  0  0  0  0  0  0
   58.1386   29.9320   47.8557 H   0  0  0  0  0  0  0  0  0  0  0  0
   57.3160   31.2520   42.9620 C   0  0  0  0  0  0  0  0  0  0  0  0
   57.2905   31.6529   41.9380 H   0  0  0  0  0  0  0  0  0  0  0  0
   57.8800   32.1120   44.0210 C   0  0  0  0  0  0  0  0  0  0  0  0
   58.7120   31.5510   44.9990 C   0  0  0  0  0  0  0  0  0  0  0  0
   58.9424   30.4758   44.9711 H   0  0  0  0  0  0  0  0  0  0  0  0
   59.2510   32.3530   46.0110 C   0  0  0  0  0  0  0  0  0  0  0  0
   59.9077   31.9046   46.7711 H   0  0  0  0  0  0  0  0  0  0  0  0
   58.9600   33.7270   46.0640 C   0  0  0  0  0  0  0  0  0  0  0  0
   59.5090   34.5870   47.1720 C   0  0  0  0  0  0  0  0  0  0  0  0
   60.8580   34.3310   47.3230 F   0  0  0  0  0  0  0  0  0  0  0  0
   58.8610   34.3120   48.3660 F   0  0  0  0  0  0  0  0  0  0  0  0
   59.3340   35.9290   46.8850 F   0  0  0  0  0  0  0  0  0  0  0  0
   58.0770   34.2750   45.1170 C   0  0  0  0  0  0  0  0  0  0  0  0
   57.8046   35.3392   45.1742 H   0  0  0  0  0  0  0  0  0  0  0  0
   57.5430   33.4730   44.1020 C   0  0  0  0  0  0  0  0  0  0  0  0
   56.8555   33.9111   43.3635 H   0  0  0  0  0  0  0  0  0  0  0  0
  1  2  1  0
  2  3  1  0
  3  4  2  0
  3  5  1  0
  5  6  1  0
  6  7  2  0
  7  8  1  0
  7  9  1  0
  9 10  1  0
  9 11  2  0
 11 12  1  0
 11 13  1  0
 13 14  1  0
 14 15  2  0
 14 16  1  0
 16 17  2  0
 17 18  1  0
 17 19  1  0
 19 20  1  0
 20 21  1  0
 20 22  1  0
 22 23  1  0
 22 24  1  0
 22 25  1  0
 20 26  1  0
 26 27  1  0
 26 28  1  0
 26 29  1  0
 19 30  1  0
 30 31  2  0
 31 32  1  0
 31 33  1  0
 33 34  1  0
 33 35  2  0
 35 36  1  0
 36 37  1  0
 36 38  2  0
 13 39  2  0
 39 40  1  0
  2 41  2  0
 41 42  1  0
 41 43  1  0
 43 44  2  0
 44 45  1  0
 44 46  1  0
 46 47  1  0
 46 48  2  0
 48 49  1  0
 49 50  1  0
 49 51  1  0
 49 52  1  0
 48 53  1  0
 53 54  1  0
 53 55  2  0
 55 56  1  0
 39  6  1  0
 55 43  1  0
 38 16  1  0
 38 30  1  0
M  CHG  1   5  -1
M  END
>  <UniqueID>  (31) 
26

>  <SMILES>  (31) 
CC(C)n1cc(C(=O)c2cccc([N-]C(=O)/C=C\c3ccc(C(F)(F)F)cc3)c2)c2cnccc21

>  <Energy>  (31) 
108.20464092277855

>  <Genealogy>  (31) 
CC(C)n1cc(C(=O)c2cccc([N-]C(=O)C=Cc3ccc(C(F)(F)F)cc3)c2)c2cnccc21 (protonated)
CC(C)n1cc(C(=O)c2cccc([N-]C(=O)/C=C\c3ccc(C(F)(F)F)cc3)c2)c2cnccc21 (cis-trans isomerization)
CC(C)n1cc(C(=O)c2cccc([N-]C(=O)/C=C\c3ccc(C(F)(F)F)cc3)c2)c2cnccc21 (3D coordinates assigned)
CC(C)n1cc(C(=O)c2cccc([N-]C(=O)/C=C\c3ccc(C(F)(F)F)cc3)c2)c2cnccc21 (optimized conformer: 108.20464092277855 kcal/mol)

>  <smiles>  (31) 
CC(C)n1cc(C(=O)c2cccc(NC(=O)C=Cc3ccc(C(F)(F)F)cc3)c2)c2cnccc21

>  <score_type>  (31) 
oracle

>  <origin>  (31) 
adg

>  <m_score__min__energy>  (31) 
-11.32

>  <m_primary>  (31) 
energy

$$$$
31:0
     RDKit          3D

 59 62  0  0  0  0  0  0  0  0999 V2000
   55.1400   27.0890   45.2580 H   0  0  0  0  0  0  0  0  0  0  0  0
   55.9510   26.6400   45.7410 N   0  0  0  0  0  0  0  0  0  0  0  0
   55.4840   25.0150   46.1070 S   0  0  0  0  0  0  0  0  0  0  0  0
   55.5260   24.8000   47.5930 O   0  0  0  0  0  0  0  0  0  0  0  0
   54.0740   24.8090   45.6240 O   0  0  0  0  0  0  0  0  0  0  0  0
   56.5720   23.8670   45.3070 C   0  0  0  0  0  0  0  0  0  0  0  0
   56.0140   22.8150   44.5600 C   0  0  0  0  0  0  0  0  0  0  0  0
   54.9210   22.7023   44.5084 H   0  0  0  0  0  0  0  0  0  0  0  0
   56.8360   21.9120   43.8830 C   0  0  0  0  0  0  0  0  0  0  0  0
   56.3880   21.0903   43.3049 H   0  0  0  0  0  0  0  0  0  0  0  0
   58.2230   22.0480   43.9370 C   0  0  0  0  0  0  0  0  0  0  0  0
   58.8668   21.3390   43.3958 H   0  0  0  0  0  0  0  0  0  0  0  0
   58.7940   23.0840   44.6780 C   0  0  0  0  0  0  0  0  0  0  0  0
   59.8883   23.1896   44.7150 H   0  0  0  0  0  0  0  0  0  0  0  0
   57.9820   23.9930   45.3770 C   0  0  0  0  0  0  0  0  0  0  0  0
   58.6360   25.0560   46.1650 C   0  0  0  0  0  0  0  0  0  0  0  0
   58.2310   25.3140   47.4820 C   0  0  0  0  0  0  0  0  0  0  0  0
   57.4246   24.7178   47.9340 H   0  0  0  0  0  0  0  0  0  0  0  0
   58.8480   26.3260   48.2230 C   0  0  0  0  0  0  0  0  0  0  0  0
   58.5193   26.5275   49.2532 H   0  0  0  0  0  0  0  0  0  0  0  0
   59.8880   27.0890   47.6580 C   0  0  0  0  0  0  0  0  0  0  0  0
   60.5310   28.1470   48.3920 N   0  0  0  0  0  0  0  0  0  0  0  0
   61.5730   28.2060   48.3960 H   0  0  0  0  0  0  0  0  0  0  0  0
   59.8070   29.2070   49.0340 C   0  0  0  0  0  0  0  0  0  0  0  0
   59.2960   29.0290   50.2180 N   0  0  0  0  0  0  0  0  0  0  0  0
   60.0590   29.0900   51.4590 C   0  0  0  0  0  0  0  0  0  0  0  0
   59.3710   29.0350   52.3155 H   0  0  0  0  0  0  0  0  0  0  0  0
   60.7624   28.2452   51.4989 H   0  0  0  0  0  0  0  0  0  0  0  0
   60.6192   30.0358   51.4989 H   0  0  0  0  0  0  0  0  0  0  0  0
   59.6590   30.5180   48.3530 C   0  0  0  0  0  0  0  0  0  0  0  0
   60.2690   30.7450   47.1050 C   0  0  0  0  0  0  0  0  0  0  0  0
   60.8627   29.9470   46.6352 H   0  0  0  0  0  0  0  0  0  0  0  0
   60.1270   31.9760   46.4570 C   0  0  0  0  0  0  0  0  0  0  0  0
   60.6000   32.1362   45.4769 H   0  0  0  0  0  0  0  0  0  0  0  0
   59.3850   33.0070   47.0500 C   0  0  0  0  0  0  0  0  0  0  0  0
   59.2010   34.3200   46.3370 C   0  0  0  0  0  0  0  0  0  0  0  0
   59.0239   35.1124   47.0791 H   0  0  0  0  0  0  0  0  0  0  0  0
   60.1094   34.5379   45.7562 H   0  0  0  0  0  0  0  0  0  0  0  0
   58.0600   34.2550   45.4210 N   0  0  0  0  0  0  0  0  0  0  0  0
   57.4170   35.0790   45.3580 H   0  0  0  0  0  0  0  0  0  0  0  0
   57.7780   33.1120   44.5900 C   0  0  0  0  0  0  0  0  0  0  0  0
   58.1930   33.0530   43.2430 C   0  0  0  0  0  0  0  0  0  0  0  0
   58.7495   33.8944   42.8044 H   0  0  0  0  0  0  0  0  0  0  0  0
   57.9000   31.9290   42.4620 C   0  0  0  0  0  0  0  0  0  0  0  0
   58.2283   31.8885   41.4129 H   0  0  0  0  0  0  0  0  0  0  0  0
   57.1910   30.8580   43.0130 C   0  0  0  0  0  0  0  0  0  0  0  0
   56.9593   29.9771   42.3963 H   0  0  0  0  0  0  0  0  0  0  0  0
   56.7760   30.9050   44.3470 C   0  0  0  0  0  0  0  0  0  0  0  0
   56.2190   30.0610   44.7799 H   0  0  0  0  0  0  0  0  0  0  0  0
   57.0690   32.0250   45.1310 C   0  0  0  0  0  0  0  0  0  0  0  0
   56.7418   32.0560   46.1808 H   0  0  0  0  0  0  0  0  0  0  0  0
   58.7620   32.7840   48.2850 C   0  0  0  0  0  0  0  0  0  0  0  0
   58.1614   33.5814   48.7470 H   0  0  0  0  0  0  0  0  0  0  0  0
   58.9000   31.5530   48.9330 C   0  0  0  0  0  0  0  0  0  0  0  0
   58.4112   31.3912   49.9050 H   0  0  0  0  0  0  0  0  0  0  0  0
   60.2980   26.8150   46.3450 C   0  0  0  0  0  0  0  0  0  0  0  0
   61.1110   27.4029   45.8939 H   0  0  0  0  0  0  0  0  0  0  0  0
   59.6830   25.8020   45.6050 C   0  0  0  0  0  0  0  0  0  0  0  0
   60.0211   25.5890   44.5801 H   0  0  0  0  0  0  0  0  0  0  0  0
  1  2  1  0
  2  3  1  0
  3  4  2  0
  3  5  2  0
  3  6  1  0
  6  7  2  0
  7  8  1  0
  7  9  1  0
  9 10  1  0
  9 11  2  0
 11 12  1  0
 11 13  1  0
 13 14  1  0
 13 15  2  0
 15 16  1  0
 16 17  2  0
 17 18  1  0
 17 19  1  0
 19 20  1  0
 19 21  2  0
 21 22  1  0
 22 23  1  0
 22 24  1  0
 24 25  2  0
 25 26  1  0
 26 27  1  0
 26 28  1  0
 26 29  1  0
 24 30  1  0
 30 31  2  0
 31 32  1  0
 31 33  1  0
 33 34  1  0
 33 35  2  0
 35 36  1  0
 36 37  1  0
 36 38  1  0
 36 39  1  0
 39 40  1  0
 39 41  1  0
 41 42  2  0
 42 43  1  0
 42 44  1  0
 44 45  1  0
 44 46  2  0
 46 47  1  0
 46 48  1  0
 48 49  1  0
 48 50  2  0
 50 51  1  0
 35 52  1  0
 52 53  1  0
 52 54  2  0
 54 55  1  0
 21 56  1  0
 56 57  1  0
 56 58  2  0
 58 59  1  0
 15  6  1  0
 58 16  1  0
 54 30  1  0
 50 41  1  0
M  CHG  1   2  -1
M  END
>  <UniqueID>  (32) 
27

>  <SMILES>  (32) 
C/N=C(\Nc1ccc(-c2ccccc2S([NH-])(=O)=O)cc1)c1ccc(CNc2ccccc2)cc1

>  <Energy>  (32) 
77.77343510367042

>  <Genealogy>  (32) 
CN=C(Nc1ccc(-c2ccccc2S([NH-])(=O)=O)cc1)c1ccc(CNc2ccccc2)cc1 (protonated)
C/N=C(\Nc1ccc(-c2ccccc2S([NH-])(=O)=O)cc1)c1ccc(CNc2ccccc2)cc1 (cis-trans isomerization)
C/N=C(\Nc1ccc(-c2ccccc2S([NH-])(=O)=O)cc1)c1ccc(CNc2ccccc2)cc1 (3D coordinates assigned)
C/N=C(\Nc1ccc(-c2ccccc2S([NH-])(=O)=O)cc1)c1ccc(CNc2ccccc2)cc1 (optimized conformer: 77.77343510367042 kcal/mol)

>  <smiles>  (32) 
CN=C(Nc1ccc(-c2ccccc2S(N)(=O)=O)cc1)c1ccc(CNc2ccccc2)cc1

>  <score_type>  (32) 
oracle

>  <origin>  (32) 
adg

>  <m_score__min__energy>  (32) 
-11.68

>  <m_primary>  (32) 
energy

$$$$
32:0
     RDKit          3D

 53 55  0  0  0  0  0  0  0  0999 V2000
   54.4270   25.9030   45.9740 N   0  0  0  0  0  0  0  0  0  0  0  0
   55.3740   24.9760   45.4470 C   0  0  0  0  0  0  0  0  0  0  0  0
   54.9610   24.0040   44.7580 O   0  0  0  0  0  0  0  0  0  0  0  0
   56.8280   25.1500   45.7050 C   0  0  0  0  0  0  0  0  0  0  0  0
   57.7010   24.0400   45.7230 C   0  0  0  0  0  0  0  0  0  0  0  0
   57.2380   22.7150   45.4080 N   0  0  0  0  0  0  0  0  0  0  0  0
   56.2680   22.0670   46.3070 C   0  0  0  0  0  0  0  0  0  0  0  0
   56.7090   20.6530   46.7290 C   0  0  0  0  0  0  0  0  0  0  0  0
   57.0150   19.6890   45.5730 C   0  0  0  0  0  0  0  0  0  0  0  0
   56.2230   19.9700   44.2850 C   0  0  0  0  0  0  0  0  0  0  0  0
   56.6830   21.1970   43.4680 C   0  0  0  0  0  0  0  0  0  0  0  0
   57.7320   22.0810   44.1710 C   0  0  0  0  0  0  0  0  0  0  0  0
   59.0530   24.2310   46.0100 C   0  0  0  0  0  0  0  0  0  0  0  0
   59.5370   25.5110   46.2600 C   0  0  0  0  0  0  0  0  0  0  0  0
   58.7040   26.5930   46.2220 N   0  0  0  0  0  0  0  0  0  0  0  0
   59.2650   27.9210   46.5230 C   0  0  0  0  0  0  0  0  0  0  0  0
   58.8490   28.9050   45.4730 C   0  0  0  0  0  0  0  0  0  0  0  0
   59.6400   29.1670   44.5260 O   0  0  0  0  0  0  0  0  0  0  0  0
   57.5860   29.5760   45.5680 N   0  0  0  0  0  0  0  0  0  0  0  0
   57.1420   30.5620   44.5830 C   0  0  0  0  0  0  0  0  0  0  0  0
   57.7870   31.9010   44.8520 C   0  0  0  0  0  0  0  0  0  0  0  0
   57.9170   32.3260   46.1860 C   0  0  0  0  0  0  0  0  0  0  0  0
   58.4950   33.5620   46.4850 C   0  0  0  0  0  0  0  0  0  0  0  0
   58.9490   34.3880   45.4570 C   0  0  0  0  0  0  0  0  0  0  0  0
   58.8280   33.9800   44.1270 C   0  0  0  0  0  0  0  0  0  0  0  0
   58.2510   32.7420   43.8130 C   0  0  0  0  0  0  0  0  0  0  0  0
   58.1380   32.2960   42.1140 Cl  0  0  0  0  0  0  0  0  0  0  0  0
   57.3630   26.4340   45.9680 C   0  0  0  0  0  0  0  0  0  0  0  0
   56.5980   27.4380   45.9870 O   0  0  0  0  0  0  0  0  0  0  0  0
   54.7370   26.8130   46.3820 H   0  0  0  0  0  0  0  0  0  0  0  0
   56.1555   22.6856   47.2096 H   0  0  0  0  0  0  0  0  0  0  0  0
   55.3178   21.9720   45.7611 H   0  0  0  0  0  0  0  0  0  0  0  0
   57.6178   20.7489   47.3412 H   0  0  0  0  0  0  0  0  0  0  0  0
   55.8567   20.2174   47.2710 H   0  0  0  0  0  0  0  0  0  0  0  0
   58.0876   19.7608   45.3399 H   0  0  0  0  0  0  0  0  0  0  0  0
   56.7162   18.6864   45.9129 H   0  0  0  0  0  0  0  0  0  0  0  0
   56.3047   19.0839   43.6383 H   0  0  0  0  0  0  0  0  0  0  0  0
   55.1958   20.1942   44.6085 H   0  0  0  0  0  0  0  0  0  0  0  0
   57.1159   20.8370   42.5230 H   0  0  0  0  0  0  0  0  0  0  0  0
   55.7924   21.8262   43.3234 H   0  0  0  0  0  0  0  0  0  0  0  0
   58.6005   21.4552   44.4241 H   0  0  0  0  0  0  0  0  0  0  0  0
   57.9891   22.8921   43.4738 H   0  0  0  0  0  0  0  0  0  0  0  0
   59.7362   23.3694   46.0386 H   0  0  0  0  0  0  0  0  0  0  0  0
   60.6030   25.6535   46.4910 H   0  0  0  0  0  0  0  0  0  0  0  0
   58.8972   28.2577   47.5035 H   0  0  0  0  0  0  0  0  0  0  0  0
   60.3628   27.8532   46.5385 H   0  0  0  0  0  0  0  0  0  0  0  0
   56.9560   29.3640   46.3740 H   0  0  0  0  0  0  0  0  0  0  0  0
   57.4226   30.2201   43.5758 H   0  0  0  0  0  0  0  0  0  0  0  0
   56.0497   30.6710   44.6540 H   0  0  0  0  0  0  0  0  0  0  0  0
   57.5604   31.6794   47.0013 H   0  0  0  0  0  0  0  0  0  0  0  0
   58.5922   33.8842   47.5323 H   0  0  0  0  0  0  0  0  0  0  0  0
   59.4027   35.3616   45.6941 H   0  0  0  0  0  0  0  0  0  0  0  0
   59.1881   34.6350   43.3200 H   0  0  0  0  0  0  0  0  0  0  0  0
  1  2  1  0
  2  3  2  0
  2  4  1  0
  4  5  2  0
  5  6  1  0
  6  7  1  0
  7  8  1  0
  8  9  1  0
  9 10  1  0
 10 11  1  0
 11 12  1  0
  5 13  1  0
 13 14  2  0
 14 15  1  0
 15 16  1  0
 16 17  1  0
 17 18  2  0
 17 19  1  0
 19 20  1  0
 20 21  1  0
 21 22  2  0
 22 23  1  0
 23 24  2  0
 24 25  1  0
 25 26  2  0
 26 27  1  0
 15 28  1  0
 28 29  2  0
 28  4  1  0
 12  6  1  0
 26 21  1  0
  1 30  1  0
  7 31  1  0
  7 32  1  0
  8 33  1  0
  8 34  1  0
  9 35  1  0
  9 36  1  0
 10 37  1  0
 10 38  1  0
 11 39  1  0
 11 40  1  0
 12 41  1  0
 12 42  1  0
 13 43  1  0
 14 44  1  0
 16 45  1  0
 16 46  1  0
 19 47  1  0
 20 48  1  0
 20 49  1  0
 22 50  1  0
 23 51  1  0
 24 52  1  0
 25 53  1  0
M  CHG  1   1  -1
M  END
>  <UniqueID>  (33) 
28

>  <SMILES>  (33) 
[NH-]C(=O)c1c(N2CCCCCC2)ccn(CC(=O)NCc2ccccc2Cl)c1=O

>  <Energy>  (33) 
68.60195023566189

>  <Genealogy>  (33) 
[NH-]C(=O)c1c(N2CCCCCC2)ccn(CC(=O)NCc2ccccc2Cl)c1=O (protonated)
[NH-]C(=O)c1c(N2CCCCCC2)ccn(CC(=O)NCc2ccccc2Cl)c1=O (3D coordinates assigned)
[NH-]C(=O)c1c(N2CCCCCC2)ccn(CC(=O)NCc2ccccc2Cl)c1=O (nonaromatic ring conformer: 68.60195023566189 kcal/mol)

>  <smiles>  (33) 
NC(=O)c1c(N2CCCCCC2)ccn(CC(=O)NCc2ccccc2Cl)c1=O

>  <score_type>  (33) 
oracle

>  <origin>  (33) 
adg

>  <m_score__min__energy>  (33) 
-8.7599999999999998

>  <m_primary>  (33) 
energy

$$$$
33:0
     RDKit          3D

 80 84  0  0  0  0  0  0  0  0999 V2000
   58.9190   31.2290   49.4210 C   0  0  0  0  0  0  0  0  0  0  0  0
   59.6600   29.9260   49.5960 C   0  0  0  0  0  0  0  0  0  0  0  0
   59.5270   28.9430   48.6020 C   0  0  0  0  0  0  0  0  0  0  0  0
   60.2390   27.7440   48.6890 C   0  0  0  0  0  0  0  0  0  0  0  0
   60.1080   26.7360   47.6310 C   0  0  0  0  0  0  0  0  0  0  0  0
   61.1090   26.4560   46.9190 O   0  0  0  0  0  0  0  0  0  0  0  0
   58.8190   26.1840   47.3400 N   0  0  0  0  0  0  0  0  0  0  0  0
   57.8440   26.7030   46.6440 C   0  0  0  0  0  0  0  0  0  0  0  0
   57.8490   28.0030   46.1940 C   0  0  0  0  0  0  0  0  0  0  0  0
   56.6400   28.1440   45.5410 C   0  0  0  0  0  0  0  0  0  0  0  0
   56.1220   29.4020   44.9700 C   0  0  0  0  0  0  0  0  0  0  0  0
   55.1310   29.3600   44.1880 O   0  0  0  0  0  0  0  0  0  0  0  0
   56.7500   30.6690   45.2160 N   0  0  0  0  0  0  0  0  0  0  0  0
   57.3570   31.5460   44.2200 C   0  0  0  0  0  0  0  0  0  0  0  0
   57.5560   32.9650   44.7910 C   0  0  0  0  0  0  0  0  0  0  0  0
   58.9390   33.2560   45.2380 N   0  0  0  0  0  0  0  0  0  0  0  0
   59.1670   34.6440   45.7100 C   0  0  0  0  0  0  0  0  0  0  0  0
   59.2880   34.7340   47.2320 C   0  0  0  0  0  0  0  0  0  0  0  0
   60.3980   33.8390   47.6820 C   0  0  0  0  0  0  0  0  0  0  0  0
   61.2430   34.2050   48.7390 C   0  0  0  0  0  0  0  0  0  0  0  0
   62.2430   33.3320   49.1660 C   0  0  0  0  0  0  0  0  0  0  0  0
   62.4200   32.1010   48.5300 C   0  0  0  0  0  0  0  0  0  0  0  0
   61.5810   31.7330   47.4720 C   0  0  0  0  0  0  0  0  0  0  0  0
   60.5640   32.5980   47.0450 C   0  0  0  0  0  0  0  0  0  0  0  0
   59.5660   32.1450   46.0030 C   0  0  0  0  0  0  0  0  0  0  0  0
   55.9410   26.9930   45.6220 N   0  0  0  0  0  0  0  0  0  0  0  0
   56.6750   26.1110   46.2840 N   0  0  0  0  0  0  0  0  0  0  0  0
   56.1210   24.8610   46.7080 C   0  0  0  0  0  0  0  0  0  0  0  0
   56.6090   24.2280   47.8610 C   0  0  0  0  0  0  0  0  0  0  0  0
   56.0400   23.0220   48.2940 C   0  0  0  0  0  0  0  0  0  0  0  0
   54.9810   22.4530   47.5800 C   0  0  0  0  0  0  0  0  0  0  0  0
   54.4740   23.0960   46.4430 C   0  0  0  0  0  0  0  0  0  0  0  0
   55.0360   24.3040   46.0130 C   0  0  0  0  0  0  0  0  0  0  0  0
   61.0950   27.5200   49.7740 C   0  0  0  0  0  0  0  0  0  0  0  0
   61.2090   28.4730   50.7910 C   0  0  0  0  0  0  0  0  0  0  0  0
   60.4730   29.6680   50.7280 C   0  0  0  0  0  0  0  0  0  0  0  0
   60.5480   30.6010   51.8670 C   0  0  0  0  0  0  0  0  0  0  0  0
   61.6730   31.0410   52.2340 O   0  0  0  0  0  0  0  0  0  0  0  0
   59.3600   30.9700   52.5780 N   0  0  0  0  0  0  0  0  0  0  0  0
   59.3760   31.8590   53.7380 C   0  0  0  0  0  0  0  0  0  0  0  0
   57.9630   32.2950   54.1060 C   0  0  0  0  0  0  0  0  0  0  0  0
   57.0710   32.0330   52.9790 N   0  0  0  0  0  0  0  0  0  0  0  0
   56.5120   30.3840   53.0210 S   0  0  0  0  0  0  0  0  0  0  0  0
   54.7980   30.3040   53.5060 C   0  0  0  0  0  0  0  0  0  0  0  0
   56.6730   29.7520   51.6640 O   0  0  0  0  0  0  0  0  0  0  0  0
   57.3420   29.6210   54.0160 O   0  0  0  0  0  0  0  0  0  0  0  0
   58.6795   31.6501   50.4086 H   0  0  0  0  0  0  0  0  0  0  0  0
   59.5494   31.9373   48.8634 H   0  0  0  0  0  0  0  0  0  0  0  0
   57.9880   31.0493   48.8634 H   0  0  0  0  0  0  0  0  0  0  0  0
   58.8566   29.1184   47.7477 H   0  0  0  0  0  0  0  0  0  0  0  0
   58.6373   28.7590   46.3246 H   0  0  0  0  0  0  0  0  0  0  0  0
   58.3339   31.1354   43.9249 H   0  0  0  0  0  0  0  0  0  0  0  0
   56.6889   31.6064   43.3482 H   0  0  0  0  0  0  0  0  0  0  0  0
   57.2868   33.6912   44.0099 H   0  0  0  0  0  0  0  0  0  0  0  0
   56.9158   33.0376   45.6825 H   0  0  0  0  0  0  0  0  0  0  0  0
   60.0969   35.0213   45.2595 H   0  0  0  0  0  0  0  0  0  0  0  0
   58.2973   35.2462   45.4082 H   0  0  0  0  0  0  0  0  0  0  0  0
   59.5081   35.7713   47.5245 H   0  0  0  0  0  0  0  0  0  0  0  0
   58.3432   34.4215   47.7007 H   0  0  0  0  0  0  0  0  0  0  0  0
   61.1172   35.1806   49.2314 H   0  0  0  0  0  0  0  0  0  0  0  0
   62.8945   33.6136   50.0064 H   0  0  0  0  0  0  0  0  0  0  0  0
   63.2188   31.4209   48.8607 H   0  0  0  0  0  0  0  0  0  0  0  0
   61.7201   30.7621   46.9740 H   0  0  0  0  0  0  0  0  0  0  0  0
   60.0848   31.4856   45.2916 H   0  0  0  0  0  0  0  0  0  0  0  0
   58.7547   31.6342   46.5423 H   0  0  0  0  0  0  0  0  0  0  0  0
   57.4387   24.6782   48.4257 H   0  0  0  0  0  0  0  0  0  0  0  0
   56.4266   22.5236   49.1952 H   0  0  0  0  0  0  0  0  0  0  0  0
   54.5452   21.4990   47.9115 H   0  0  0  0  0  0  0  0  0  0  0  0
   53.6344   22.6517   45.8883 H   0  0  0  0  0  0  0  0  0  0  0  0
   54.6271   24.8170   45.1300 H   0  0  0  0  0  0  0  0  0  0  0  0
   61.6805   26.5902   49.8267 H   0  0  0  0  0  0  0  0  0  0  0  0
   61.8779   28.2862   51.6441 H   0  0  0  0  0  0  0  0  0  0  0  0
   58.4630   30.4950   52.3400 H   0  0  0  0  0  0  0  0  0  0  0  0
   59.8238   31.3295   54.5919 H   0  0  0  0  0  0  0  0  0  0  0  0
   59.9668   32.7528   53.4888 H   0  0  0  0  0  0  0  0  0  0  0  0
   57.6207   31.7297   54.9854 H   0  0  0  0  0  0  0  0  0  0  0  0
   57.9569   33.3697   54.3403 H   0  0  0  0  0  0  0  0  0  0  0  0
   54.7273   30.3007   54.6037 H   0  0  0  0  0  0  0  0  0  0  0  0
   54.2628   31.1781   53.1067 H   0  0  0  0  0  0  0  0  0  0  0  0
   54.3465   29.3838   53.1067 H   0  0  0  0  0  0  0  0  0  0  0  0
  1  2  1  0
  2  3  2  0
  3  4  1  0
  4  5  1  0
  5  6  2  0
  5  7  1  0
  7  8  2  3
  8  9  1  0
  9 10  2  0
 10 11  1  0
 11 12  2  0
 11 13  1  0
 13 14  1  0
 14 15  1  0
 15 16  1  0
 16 17  1  0
 17 18  1  0
 18 19  1  0
 19 20  2  0
 20 21  1  0
 21 22  2  0
 22 23  1  0
 23 24  2  0
 24 25  1  0
 10 26  1  0
 26 27  1  0
 27 28  1  0
 28 29  2  0
 29 30  1  0
 30 31  2  0
 31 32  1  0
 32 33  2  0
  4 34  2  0
 34 35  1  0
 35 36  2  0
 36 37  1  0
 37 38  2  0
 37 39  1  0
 39 40  1  0
 40 41  1  0
 41 42  1  0
 42 43  1  0
 43 44  1  0
 43 45  2  0
 43 46  2  0
 36  2  1  0
 27  8  1  0
 33 28  1  0
 25 16  1  0
 24 19  1  0
  1 47  1  0
  1 48  1  0
  1 49  1  0
  3 50  1  0
  9 51  1  0
 14 52  1  0
 14 53  1  0
 15 54  1  0
 15 55  1  0
 17 56  1  0
 17 57  1  0
 18 58  1  0
 18 59  1  0
 20 60  1  0
 21 61  1  0
 22 62  1  0
 23 63  1  0
 25 64  1  0
 25 65  1  0
 29 66  1  0
 30 67  1  0
 31 68  1  0
 32 69  1  0
 33 70  1  0
 34 71  1  0
 35 72  1  0
 39 73  1  0
 40 74  1  0
 40 75  1  0
 41 76  1  0
 41 77  1  0
 44 78  1  0
 44 79  1  0
 44 80  1  0
M  CHG  3  13  -1  26  -1  42  -1
M  END
>  <UniqueID>  (34) 
29

>  <SMILES>  (34) 
Cc1cc(C(=O)N=c2cc(C(=O)[N-]CCN3CCc4ccccc4C3)[n-]n2-c2ccccc2)ccc1C(=O)NCC[N-]S(C)(=O)=O

>  <Energy>  (34) 
152.16298198212783

>  <Genealogy>  (34) 
Cc1cc(C(=O)N=c2cc(C(=O)[N-]CCN3CCc4ccccc4C3)[n-]n2-c2ccccc2)ccc1C(=O)NCC[N-]S(C)(=O)=O (protonated)
Cc1cc(C(=O)N=c2cc(C(=O)[N-]CCN3CCc4ccccc4C3)[n-]n2-c2ccccc2)ccc1C(=O)NCC[N-]S(C)(=O)=O (3D coordinates assigned)
Cc1cc(C(=O)N=c2cc(C(=O)[N-]CCN3CCc4ccccc4C3)[n-]n2-c2ccccc2)ccc1C(=O)NCC[N-]S(C)(=O)=O (nonaromatic ring conformer: 152.16298198212783 kcal/mol)

>  <smiles>  (34) 
Cc1cc(C(=O)N=c2cc(C(=O)NCCN3CCc4ccccc4C3)[nH]n2-c2ccccc2)ccc1C(=O)NCCNS(C)(=O)=O

>  <score_type>  (34) 
oracle

>  <origin>  (34) 
adg

>  <m_score__min__energy>  (34) 
-14.630000000000001

>  <m_primary>  (34) 
energy

$$$$
34:0
     RDKit          3D

 27 27  0  0  0  0  0  0  0  0999 V2000
   56.6870   32.0400   44.8100 N   0  0  0  0  0  0  0  0  0  0  0  0
   57.7940   32.6610   45.9830 S   0  0  0  0  0  0  0  0  0  0  0  0
   59.0520   33.1090   45.2930 O   0  0  0  0  0  0  0  0  0  0  0  0
   57.1640   33.8310   46.6850 O   0  0  0  0  0  0  0  0  0  0  0  0
   58.1610   31.4120   47.1310 N   0  0  0  0  0  0  0  0  0  0  0  0
   59.3390   30.6680   46.6920 C   0  0  0  0  0  0  0  0  0  0  0  0
   59.2320   29.2070   47.1310 C   0  0  0  0  0  0  0  0  0  0  0  0
   59.2240   28.2460   45.9320 C   0  0  0  0  0  0  0  0  0  0  0  0
   58.0290   27.3150   45.9950 C   0  0  0  0  0  0  0  0  0  0  0  0
   56.7310   27.6840   45.5490 C   0  0  0  0  0  0  0  0  0  0  0  0
   56.4090   28.9870   44.9200 C   0  0  0  0  0  0  0  0  0  0  0  0
   57.3120   29.6190   44.3100 O   0  0  0  0  0  0  0  0  0  0  0  0
   55.1540   29.5680   45.0410 O   0  0  0  0  0  0  0  0  0  0  0  0
   55.7050   26.8040   45.7020 N   0  0  0  0  0  0  0  0  0  0  0  0
   55.8900   25.5730   46.2370 C   0  0  0  0  0  0  0  0  0  0  0  0
   54.9150   24.7880   46.3590 O   0  0  0  0  0  0  0  0  0  0  0  0
   57.1250   25.1860   46.6380 N   0  0  0  0  0  0  0  0  0  0  0  0
   58.1900   26.0180   46.5280 C   0  0  0  0  0  0  0  0  0  0  0  0
   59.3210   25.6150   46.9120 O   0  0  0  0  0  0  0  0  0  0  0  0
   56.2140   31.2160   45.2440 H   0  0  0  0  0  0  0  0  0  0  0  0
   57.2580   31.6760   44.0140 H   0  0  0  0  0  0  0  0  0  0  0  0
   59.4104   30.7140   45.5953 H   0  0  0  0  0  0  0  0  0  0  0  0
   60.2363   31.1150   47.1448 H   0  0  0  0  0  0  0  0  0  0  0  0
   60.0910   28.9654   47.7743 H   0  0  0  0  0  0  0  0  0  0  0  0
   58.2827   29.0831   47.6727 H   0  0  0  0  0  0  0  0  0  0  0  0
   59.1766   28.8309   45.0016 H   0  0  0  0  0  0  0  0  0  0  0  0
   60.1429   27.6419   45.9587 H   0  0  0  0  0  0  0  0  0  0  0  0
  1  2  1  0
  2  3  2  0
  2  4  2  0
  2  5  1  0
  5  6  1  0
  6  7  1  0
  7  8  1  0
  8  9  1  0
  9 10  2  0
 10 11  1  0
 11 12  2  0
 11 13  1  0
 10 14  1  0
 14 15  1  0
 15 16  2  0
 15 17  1  0
 17 18  1  0
 18 19  2  0
 18  9  1  0
  1 20  1  0
  1 21  1  0
  6 22  1  0
  6 23  1  0
  7 24  1  0
  7 25  1  0
  8 26  1  0
  8 27  1  0
M  CHG  4   5  -1  13  -1  14  -1  17  -1
M  END
>  <UniqueID>  (35) 
30

>  <SMILES>  (35) 
NS(=O)(=O)[N-]CCCc1c(C(=O)[O-])[n-]c(=O)[n-]c1=O

>  <Energy>  (35) 
22.926507909067627

>  <Genealogy>  (35) 
NS(=O)(=O)[N-]CCCc1c(C(=O)[O-])[n-]c(=O)[n-]c1=O (protonated)
NS(=O)(=O)[N-]CCCc1c(C(=O)[O-])[n-]c(=O)[n-]c1=O (3D coordinates assigned)
NS(=O)(=O)[N-]CCCc1c(C(=O)[O-])[n-]c(=O)[n-]c1=O (optimized conformer: 22.926507909067627 kcal/mol)

>  <smiles>  (35) 
NS(=O)(=O)NCCCc1c(C(=O)O)[nH]c(=O)[nH]c1=O

>  <score_type>  (35) 
oracle

>  <origin>  (35) 
adg

>  <m_score__min__energy>  (35) 
-13.66

>  <m_primary>  (35) 
energy

$$$$
35:0
     RDKit          3D

 70 74  0  0  1  0  0  0  0  0999 V2000
   59.6790   35.7340   45.6460 C   0  0  0  0  0  0  0  0  0  0  0  0
   59.6910   34.4880   46.4870 C   0  0  0  0  0  0  0  0  0  0  0  0
   59.2670   34.7380   47.9250 C   0  0  0  0  0  0  0  0  0  0  0  0
   58.8430   33.4290   45.8720 C   0  0  0  0  0  0  0  0  0  0  0  0
   58.6820   33.2220   44.4960 C   0  0  0  0  0  0  0  0  0  0  0  0
   57.8240   32.1640   44.4020 C   0  0  0  0  0  0  0  0  0  0  0  0
   57.2780   31.4820   43.1800 C   0  0  0  0  0  0  0  0  0  0  0  0
   56.8210   30.1510   43.5090 N   0  0  0  0  0  0  0  0  0  0  0  0
   57.5740   29.2070   43.9570 C   0  0  0  0  0  0  0  0  0  0  0  0
   57.3950   27.9430   43.5410 N   0  0  0  0  0  0  0  0  0  0  0  0
   58.1400   26.9160   43.9850 C   0  0  0  0  0  0  0  0  0  0  0  0
   57.8410   25.6300   43.4510 N   0  0  0  0  0  0  0  0  0  0  0  0
   56.8290   24.8470   44.0950 C   0  0  0  0  0  0  0  0  0  0  0  0
   56.2220   23.7680   43.4880 C   0  0  0  0  0  0  0  0  0  0  0  0
   55.2300   23.0610   44.1740 C   0  0  0  0  0  0  0  0  0  0  0  0
   54.8300   23.4040   45.4470 C   0  0  0  0  0  0  0  0  0  0  0  0
   53.7910   22.6940   46.1830 C   0  0  0  0  0  0  0  0  0  0  0  0
   52.7800   22.2240   45.6000 O   0  0  0  0  0  0  0  0  0  0  0  0
   53.8610   22.4940   47.5910 N   0  0  0  0  0  0  0  0  0  0  0  0
   52.7970   21.7790   48.2630 C   0  0  0  0  0  0  0  0  0  0  0  0
   52.4800   22.2480   49.6550 C   0  0  0  0  0  0  0  0  0  0  0  0
   53.1020   20.9200   49.4440 C   0  0  0  0  0  0  0  0  0  0  0  0
   55.4370   24.4820   46.0540 C   0  0  0  0  0  0  0  0  0  0  0  0
   56.4070   25.1740   45.3850 C   0  0  0  0  0  0  0  0  0  0  0  0
   59.1380   27.1410   44.9070 C   0  0  0  0  0  0  0  0  0  0  0  0
   59.3220   28.4400   45.3350 C   0  0  0  0  0  0  0  0  0  0  0  0
   60.2390   28.6660   46.1810 N   0  0  0  0  0  0  0  0  0  0  0  0
   60.2690   29.7540   47.1020 C   0  0  0  0  0  0  0  0  0  0  0  0
   59.3320   29.8650   48.1100 C   0  0  0  0  0  0  0  0  0  0  0  0
   59.3910   30.9430   48.9970 C   0  0  0  0  0  0  0  0  0  0  0  0
   60.4070   31.8620   48.8180 C   0  0  0  0  0  0  0  0  0  0  0  0
   61.3400   31.7530   47.8180 C   0  0  0  0  0  0  0  0  0  0  0  0
   62.5800   32.9790   47.6930 S   0  0  0  0  0  0  0  0  0  0  0  0
   64.1250   32.3310   48.0600 N   0  0  0  0  0  0  0  0  0  0  0  0
   62.6430   33.5210   46.2760 O   0  0  0  0  0  0  0  0  0  0  0  0
   62.2430   34.1030   48.6360 O   0  0  0  0  0  0  0  0  0  0  0  0
   61.2730   30.6860   46.9460 C   0  0  0  0  0  0  0  0  0  0  0  0
   58.5550   29.4440   44.8670 N   0  0  0  0  0  0  0  0  0  0  0  0
   57.4880   31.7560   45.6090 O   0  0  0  0  0  0  0  0  0  0  0  0
   58.0800   32.4930   46.4890 N   0  0  0  0  0  0  0  0  0  0  0  0
   59.6705   36.6181   46.3005 H   0  0  0  0  0  0  0  0  0  0  0  0
   60.5770   35.7565   45.0111 H   0  0  0  0  0  0  0  0  0  0  0  0
   58.7808   35.7392   45.0111 H   0  0  0  0  0  0  0  0  0  0  0  0
   60.7352   34.1436   46.5189 H   0  0  0  0  0  0  0  0  0  0  0  0
   60.0099   34.3000   48.6078 H   0  0  0  0  0  0  0  0  0  0  0  0
   59.1983   35.8212   48.1040 H   0  0  0  0  0  0  0  0  0  0  0  0
   58.2859   34.2738   48.1040 H   0  0  0  0  0  0  0  0  0  0  0  0
   59.1445   33.7869   43.6732 H   0  0  0  0  0  0  0  0  0  0  0  0
   56.4350   32.0674   42.7842 H   0  0  0  0  0  0  0  0  0  0  0  0
   58.0748   31.4098   42.4251 H   0  0  0  0  0  0  0  0  0  0  0  0
   56.6460   27.7560   42.8400 H   0  0  0  0  0  0  0  0  0  0  0  0
   58.3130   25.2220   42.6170 H   0  0  0  0  0  0  0  0  0  0  0  0
   56.5160   23.4658   42.4720 H   0  0  0  0  0  0  0  0  0  0  0  0
   54.7526   22.2016   43.6806 H   0  0  0  0  0  0  0  0  0  0  0  0
   54.6620   22.8510   48.1490 H   0  0  0  0  0  0  0  0  0  0  0  0
   52.2511   21.6064   47.3237 H   0  0  0  0  0  0  0  0  0  0  0  0
   53.0639   23.0633   50.1071 H   0  0  0  0  0  0  0  0  0  0  0  0
   51.5766   22.6114   50.1666 H   0  0  0  0  0  0  0  0  0  0  0  0
   54.1469   20.7505   49.7431 H   0  0  0  0  0  0  0  0  0  0  0  0
   52.8478   19.8911   49.7385 H   0  0  0  0  0  0  0  0  0  0  0  0
   55.1427   24.7834   47.0701 H   0  0  0  0  0  0  0  0  0  0  0  0
   56.8787   26.0312   45.8878 H   0  0  0  0  0  0  0  0  0  0  0  0
   59.7628   26.3191   45.2866 H   0  0  0  0  0  0  0  0  0  0  0  0
   58.5416   29.1072   48.2144 H   0  0  0  0  0  0  0  0  0  0  0  0
   58.6560   31.0558   49.8076 H   0  0  0  0  0  0  0  0  0  0  0  0
   60.4706   32.7175   49.5065 H   0  0  0  0  0  0  0  0  0  0  0  0
   64.3010   31.5070   47.4460 H   0  0  0  0  0  0  0  0  0  0  0  0
   64.8330   33.0620   47.8030 H   0  0  0  0  0  0  0  0  0  0  0  0
   62.0108   30.5802   46.1370 H   0  0  0  0  0  0  0  0  0  0  0  0
   58.6690   30.4440   45.1710 H   0  0  0  0  0  0  0  0  0  0  0  0
  1  2  1  0
  2  3  1  0
  2  4  1  0
  4  5  1  0
  5  6  2  0
  6  7  1  0
  7  8  1  0
  8  9  2  0
  9 10  1  0
 10 11  1  0
 11 12  1  0
 12 13  1  0
 13 14  2  0
 14 15  1  0
 15 16  2  0
 16 17  1  0
 17 18  2  0
 17 19  1  0
 19 20  1  0
 20 21  1  0
 21 22  1  0
 16 23  1  0
 23 24  2  0
 11 25  2  0
 25 26  1  0
 26 27  2  0
 27 28  1  0
 28 29  2  0
 29 30  1  0
 30 31  2  0
 31 32  1  0
 32 33  1  0
 33 34  1  0
 33 35  2  0
 33 36  2  0
 32 37  2  0
 26 38  1  0
  6 39  1  0
 39 40  1  0
 40  4  2  0
 38  9  1  0
 24 13  1  0
 37 28  1  0
 22 20  1  0
  1 41  1  0
  1 42  1  0
  1 43  1  0
  2 44  1  0
  3 45  1  0
  3 46  1  0
  3 47  1  0
  5 48  1  0
  7 49  1  0
  7 50  1  0
 10 51  1  0
 12 52  1  0
 14 53  1  0
 15 54  1  0
 19 55  1  0
 20 56  1  0
 21 57  1  0
 21 58  1  0
 22 59  1  0
 22 60  1  0
 23 61  1  0
 24 62  1  0
 25 63  1  0
 29 64  1  0
 30 65  1  0
 31 66  1  0
 34 67  1  0
 34 68  1  0
 37 69  1  0
 38 70  1  0
M  END
>  <smiles>  (36) 
CC(C)c1cc(CN=c2[nH]c(Nc3ccc(C(=O)NC4CC4)cc3)cc(=Nc3cccc(S(N)(=O)=O)c3)[nH]2)on1

>  <score_type>  (36) 
oracle

>  <origin>  (36) 
adg

>  <m_score__min__energy>  (36) 
-11.09

>  <m_primary>  (36) 
energy

$$$$
36:0
     RDKit          3D

 50 52  0  0  0  0  0  0  0  0999 V2000
   55.1510   26.7040   45.9930 N   0  0  0  0  0  0  0  0  0  0  0  0
   56.1370   25.7480   46.3800 C   0  0  0  0  0  0  0  0  0  0  0  0
   55.7640   24.6380   46.8440 O   0  0  0  0  0  0  0  0  0  0  0  0
   57.5800   26.0520   46.2030 C   0  0  0  0  0  0  0  0  0  0  0  0
   58.5070   24.9930   46.2550 C   0  0  0  0  0  0  0  0  0  0  0  0
   59.8770   25.2380   46.1560 C   0  0  0  0  0  0  0  0  0  0  0  0
   60.3460   26.5390   45.9950 C   0  0  0  0  0  0  0  0  0  0  0  0
   59.4460   27.6010   45.9210 C   0  0  0  0  0  0  0  0  0  0  0  0
   58.0600   27.3770   46.0290 C   0  0  0  0  0  0  0  0  0  0  0  0
   57.1500   28.4880   45.9150 N   0  0  0  0  0  0  0  0  0  0  0  0
   57.2850   29.5290   44.9300 C   0  0  0  0  0  0  0  0  0  0  0  0
   56.4350   29.5150   43.8130 C   0  0  0  0  0  0  0  0  0  0  0  0
   56.5770   30.4660   42.8010 C   0  0  0  0  0  0  0  0  0  0  0  0
   57.5640   31.4480   42.8960 C   0  0  0  0  0  0  0  0  0  0  0  0
   58.4000   31.4940   44.0140 C   0  0  0  0  0  0  0  0  0  0  0  0
   58.2570   30.5540   45.0480 C   0  0  0  0  0  0  0  0  0  0  0  0
   59.1010   30.6840   46.2500 C   0  0  0  0  0  0  0  0  0  0  0  0
   60.3120   31.0160   46.1270 O   0  0  0  0  0  0  0  0  0  0  0  0
   58.5380   30.4770   47.5530 N   0  0  0  0  0  0  0  0  0  0  0  0
   59.2530   30.8720   48.7700 C   0  0  1  0  0  0  0  0  0  0  0  0
   58.9080   32.3240   49.1470 C   0  0  0  0  0  0  0  0  0  0  0  0
   58.9350   33.2330   47.9420 C   0  0  0  0  0  0  0  0  0  0  0  0
   60.1260   33.8660   47.5540 C   0  0  0  0  0  0  0  0  0  0  0  0
   60.1540   34.6780   46.4150 C   0  0  0  0  0  0  0  0  0  0  0  0
   58.9950   34.8580   45.6560 C   0  0  0  0  0  0  0  0  0  0  0  0
   57.8070   34.2250   46.0310 C   0  0  0  0  0  0  0  0  0  0  0  0
   57.7750   33.4120   47.1680 C   0  0  0  0  0  0  0  0  0  0  0  0
   58.9080   29.9270   49.8890 C   0  0  0  0  0  0  0  0  0  0  0  0
   57.7690   30.1810   50.7070 N   0  0  0  0  0  0  0  0  0  0  0  0
   59.6070   28.8970   50.0890 O   0  0  0  0  0  0  0  0  0  0  0  0
   54.5030   27.1210   46.6980 H   0  0  0  0  0  0  0  0  0  0  0  0
   58.1467   23.9606   46.3751 H   0  0  0  0  0  0  0  0  0  0  0  0
   60.5887   24.4007   46.2053 H   0  0  0  0  0  0  0  0  0  0  0  0
   61.4273   26.7290   45.9262 H   0  0  0  0  0  0  0  0  0  0  0  0
   59.8224   28.6245   45.7768 H   0  0  0  0  0  0  0  0  0  0  0  0
   56.2540   28.4380   46.4520 H   0  0  0  0  0  0  0  0  0  0  0  0
   55.6503   28.7481   43.7344 H   0  0  0  0  0  0  0  0  0  0  0  0
   55.9096   30.4413   41.9269 H   0  0  0  0  0  0  0  0  0  0  0  0
   57.6837   32.1865   42.0896 H   0  0  0  0  0  0  0  0  0  0  0  0
   59.1752   32.2712   44.0852 H   0  0  0  0  0  0  0  0  0  0  0  0
   57.5490   30.1440   47.6220 H   0  0  0  0  0  0  0  0  0  0  0  0
   60.3365   30.8193   48.5878 H   0  0  0  0  0  0  0  0  0  0  0  0
   57.9013   32.3482   49.5898 H   0  0  0  0  0  0  0  0  0  0  0  0
   59.6616   32.6813   49.8642 H   0  0  0  0  0  0  0  0  0  0  0  0
   61.0410   33.7232   48.1477 H   0  0  0  0  0  0  0  0  0  0  0  0
   61.0890   35.1749   46.1170 H   0  0  0  0  0  0  0  0  0  0  0  0
   59.0176   35.4988   44.7622 H   0  0  0  0  0  0  0  0  0  0  0  0
   56.8960   34.3665   45.4310 H   0  0  0  0  0  0  0  0  0  0  0  0
   56.8396   32.9110   47.4578 H   0  0  0  0  0  0  0  0  0  0  0  0
   57.1570   31.0080   50.5310 H   0  0  0  0  0  0  0  0  0  0  0  0
  1  2  1  0
  2  3  2  0
  2  4  1  0
  4  5  2  0
  5  6  1  0
  6  7  2  0
  7  8  1  0
  8  9  2  0
  9 10  1  0
 10 11  1  0
 11 12  2  0
 12 13  1  0
 13 14  2  0
 14 15  1  0
 15 16  2  0
 16 17  1  0
 17 18  2  0
 17 19  1  0
 19 20  1  0
 20 21  1  0
 21 22  1  0
 22 23  2  0
 23 24  1  0
 24 25  2  0
 25 26  1  0
 26 27  2  0
 20 28  1  0
 28 29  1  0
 28 30  2  0
  9  4  1  0
 16 11  1  0
 27 22  1  0
  1 31  1  0
  5 32  1  0
  6 33  1  0
  7 34  1  0
  8 35  1  0
 10 36  1  0
 12 37  1  0
 13 38  1  0
 14 39  1  0
 15 40  1  0
 19 41  1  0
 20 42  1  6
 21 43  1  0
 21 44  1  0
 23 45  1  0
 24 46  1  0
 25 47  1  0
 26 48  1  0
 27 49  1  0
 29 50  1  0
M  CHG  2   1  -1  29  -1
M  END
>  <UniqueID>  (37) 
31

>  <SMILES>  (37) 
[NH-]C(=O)c1ccccc1Nc1ccccc1C(=O)N[C@@H](Cc1ccccc1)C([NH-])=O

>  <Energy>  (37) 
60.87281554554561

>  <Genealogy>  (37) 
[NH-]C(=O)c1ccccc1Nc1ccccc1C(=O)NC(Cc1ccccc1)C([NH-])=O (protonated)
[NH-]C(=O)c1ccccc1Nc1ccccc1C(=O)N[C@@H](Cc1ccccc1)C([NH-])=O (chirality)
[NH-]C(=O)c1ccccc1Nc1ccccc1C(=O)N[C@@H](Cc1ccccc1)C([NH-])=O (3D coordinates assigned)
[NH-]C(=O)c1ccccc1Nc1ccccc1C(=O)N[C@@H](Cc1ccccc1)C([NH-])=O (optimized conformer: 60.87281554554561 kcal/mol)

>  <smiles>  (37) 
NC(=O)c1ccccc1Nc1ccccc1C(=O)NC(Cc1ccccc1)C(N)=O

>  <score_type>  (37) 
oracle

>  <origin>  (37) 
adg

>  <m_score__min__energy>  (37) 
-14.44

>  <m_primary>  (37) 
energy

$$$$
37:0
     RDKit          3D

 27 29  0  0  1  0  0  0  0  0999 V2000
   58.7340   34.9170   45.2330 O   0  0  0  0  0  0  0  0  0  0  0  0
   59.0470   33.8460   45.7750 C   0  0  0  0  0  0  0  0  0  0  0  0
   58.3740   32.6110   45.6250 N   0  0  0  0  0  0  0  0  0  0  0  0
   58.0180   32.2340   44.4550 C   0  0  0  0  0  0  0  0  0  0  0  0
   58.4660   32.9490   43.4090 N   0  0  0  0  0  0  0  0  0  0  0  0
   58.1470   32.6330   42.1400 C   0  0  0  0  0  0  0  0  0  0  0  0
   57.3600   31.5800   41.8740 N   0  0  0  0  0  0  0  0  0  0  0  0
   56.8820   30.8310   42.8830 C   0  0  0  0  0  0  0  0  0  0  0  0
   56.0840   29.7290   42.9200 N   0  0  0  0  0  0  0  0  0  0  0  0
   55.9380   29.4010   44.2290 C   0  0  0  0  0  0  0  0  0  0  0  0
   56.6230   30.2660   44.9950 N   0  0  0  0  0  0  0  0  0  0  0  0
   57.2120   31.1570   44.1830 C   0  0  0  0  0  0  0  0  0  0  0  0
   60.2300   33.8360   46.6600 C   0  0  0  0  0  0  0  0  0  0  0  0
   61.4530   33.8420   46.0370 C   0  0  0  0  0  0  0  0  0  0  0  0
   62.6400   33.8370   46.7470 C   0  0  0  0  0  0  0  0  0  0  0  0
   62.5300   33.8240   48.1290 C   0  0  0  0  0  0  0  0  0  0  0  0
   61.2970   33.8190   48.7660 C   0  0  0  0  0  0  0  0  0  0  0  0
   60.1230   33.8260   48.0330 C   0  0  0  0  0  0  0  0  0  0  0  0
   58.9320   33.8180   48.6570 F   0  0  0  0  0  0  0  0  0  0  0  0
   59.0950   33.7940   43.5480 H   0  0  0  0  0  0  0  0  0  0  0  0
   58.5358   33.2447   41.3126 H   0  0  0  0  0  0  0  0  0  0  0  0
   55.6660   29.2340   42.0870 H   0  0  0  0  0  0  0  0  0  0  0  0
   55.3470   28.5534   44.6062 H   0  0  0  0  0  0  0  0  0  0  0  0
   61.4903   33.8511   44.9377 H   0  0  0  0  0  0  0  0  0  0  0  0
   63.6176   33.8430   46.2428 H   0  0  0  0  0  0  0  0  0  0  0  0
   63.4461   33.8175   48.7379 H   0  0  0  0  0  0  0  0  0  0  0  0
   61.2523   33.8094   49.8650 H   0  0  0  0  0  0  0  0  0  0  0  0
  1  2  2  0
  2  3  1  0
  3  4  2  0
  4  5  1  0
  5  6  1  0
  6  7  2  0
  7  8  1  0
  8  9  1  0
  9 10  1  0
 10 11  2  0
 11 12  1  0
  2 13  1  0
 13 14  2  0
 14 15  1  0
 15 16  2  0
 16 17  1  0
 17 18  2  0
 18 19  1  0
 12  4  1  0
 18 13  1  0
 12  8  2  0
  5 20  1  0
  6 21  1  0
  9 22  1  0
 10 23  1  0
 14 24  1  0
 15 25  1  0
 16 26  1  0
 17 27  1  0
M  END
>  <smiles>  (38) 
O=C(N=c1[nH]cnc2[nH]cnc12)c1ccccc1F

>  <score_type>  (38) 
oracle

>  <origin>  (38) 
adg

>  <m_score__min__energy>  (38) 
-6.9699999999999998

>  <m_primary>  (38) 
energy

$$$$
38:0
     RDKit          3D

 53 56  0  0  0  0  0  0  0  0999 V2000
   56.2880   23.8360   43.7160 C   0  0  0  0  0  0  0  0  0  0  0  0
   56.1240   24.3070   45.0500 O   0  0  0  0  0  0  0  0  0  0  0  0
   56.9980   25.2010   45.6890 C   0  0  0  0  0  0  0  0  0  0  0  0
   58.3620   24.9120   45.8800 C   0  0  0  0  0  0  0  0  0  0  0  0
   59.1960   25.8320   46.5200 C   0  0  0  0  0  0  0  0  0  0  0  0
   58.6880   27.0610   46.9680 C   0  0  0  0  0  0  0  0  0  0  0  0
   59.5730   28.0180   47.6650 C   0  0  0  0  0  0  0  0  0  0  0  0
   60.0270   27.9060   48.9640 C   0  0  0  0  0  0  0  0  0  0  0  0
   60.7540   29.0020   49.2570 N   0  0  0  0  0  0  0  0  0  0  0  0
   61.4420   29.2770   50.4870 C   0  0  0  0  0  0  0  0  0  0  0  0
   61.0390   28.7310   51.5490 O   0  0  0  0  0  0  0  0  0  0  0  0
   62.6170   30.1770   50.5420 C   0  0  0  0  0  0  0  0  0  0  0  0
   63.7250   29.8400   51.3390 C   0  0  0  0  0  0  0  0  0  0  0  0
   64.8440   30.6770   51.3850 C   0  0  0  0  0  0  0  0  0  0  0  0
   64.8740   31.8510   50.6260 C   0  0  0  0  0  0  0  0  0  0  0  0
   66.2790   32.8980   50.6830 Cl  0  0  0  0  0  0  0  0  0  0  0  0
   63.7840   32.1850   49.8160 C   0  0  0  0  0  0  0  0  0  0  0  0
   62.6630   31.3500   49.7690 C   0  0  0  0  0  0  0  0  0  0  0  0
   60.8140   29.7960   48.2000 N   0  0  0  0  0  0  0  0  0  0  0  0
   60.0920   29.2280   47.2130 C   0  0  0  0  0  0  0  0  0  0  0  0
   60.0090   29.7940   45.8530 C   0  0  0  0  0  0  0  0  0  0  0  0
   60.6980   29.2940   44.9250 O   0  0  0  0  0  0  0  0  0  0  0  0
   59.1970   30.9990   45.5790 C   0  0  0  0  0  0  0  0  0  0  0  0
   59.6090   32.2210   46.1360 C   0  0  0  0  0  0  0  0  0  0  0  0
   58.8610   33.3830   45.9380 C   0  0  0  0  0  0  0  0  0  0  0  0
   57.6800   33.3430   45.1870 C   0  0  0  0  0  0  0  0  0  0  0  0
   56.8920   34.5980   44.9540 C   0  0  0  0  0  0  0  0  0  0  0  0
   57.2810   32.1370   44.5930 C   0  0  0  0  0  0  0  0  0  0  0  0
   58.0350   30.9640   44.7660 C   0  0  0  0  0  0  0  0  0  0  0  0
   57.5780   29.7050   44.0750 C   0  0  0  0  0  0  0  0  0  0  0  0
   57.3240   27.3410   46.7930 C   0  0  0  0  0  0  0  0  0  0  0  0
   56.4870   26.4200   46.1540 C   0  0  0  0  0  0  0  0  0  0  0  0
   55.1390   26.7200   45.9840 O   0  0  0  0  0  0  0  0  0  0  0  0
   56.6497   22.7973   43.7357 H   0  0  0  0  0  0  0  0  0  0  0  0
   55.3223   23.8781   43.1910 H   0  0  0  0  0  0  0  0  0  0  0  0
   57.0187   24.4688   43.1910 H   0  0  0  0  0  0  0  0  0  0  0  0
   58.7738   23.9564   45.5234 H   0  0  0  0  0  0  0  0  0  0  0  0
   60.2583   25.5914   46.6738 H   0  0  0  0  0  0  0  0  0  0  0  0
   59.8288   27.0647   49.6444 H   0  0  0  0  0  0  0  0  0  0  0  0
   63.7115   28.9123   51.9299 H   0  0  0  0  0  0  0  0  0  0  0  0
   65.7024   30.4114   52.0195 H   0  0  0  0  0  0  0  0  0  0  0  0
   63.8084   33.1059   49.2149 H   0  0  0  0  0  0  0  0  0  0  0  0
   61.8122   31.6129   49.1232 H   0  0  0  0  0  0  0  0  0  0  0  0
   60.5309   32.2628   46.7346 H   0  0  0  0  0  0  0  0  0  0  0  0
   59.2009   34.3340   46.3739 H   0  0  0  0  0  0  0  0  0  0  0  0
   56.6137   35.0412   45.9216 H   0  0  0  0  0  0  0  0  0  0  0  0
   57.5029   35.3141   44.3848 H   0  0  0  0  0  0  0  0  0  0  0  0
   55.9816   34.3590   44.3848 H   0  0  0  0  0  0  0  0  0  0  0  0
   56.3657   32.1089   43.9836 H   0  0  0  0  0  0  0  0  0  0  0  0
   57.3046   28.9517   44.8286 H   0  0  0  0  0  0  0  0  0  0  0  0
   56.7037   29.9286   43.4461 H   0  0  0  0  0  0  0  0  0  0  0  0
   58.3922   29.3157   43.4461 H   0  0  0  0  0  0  0  0  0  0  0  0
   56.9101   28.2914   47.1609 H   0  0  0  0  0  0  0  0  0  0  0  0
  1  2  1  0
  2  3  1  0
  3  4  2  0
  4  5  1  0
  5  6  2  0
  6  7  1  0
  7  8  2  0
  8  9  1  0
  9 10  1  0
 10 11  2  0
 10 12  1  0
 12 13  2  0
 13 14  1  0
 14 15  2  0
 15 16  1  0
 15 17  1  0
 17 18  2  0
  9 19  1  0
 19 20  2  0
 20 21  1  0
 21 22  2  0
 21 23  1  0
 23 24  2  0
 24 25  1  0
 25 26  2  0
 26 27  1  0
 26 28  1  0
 28 29  2  0
 29 30  1  0
  6 31  1  0
 31 32  2  0
 32 33  1  0
 32  3  1  0
 20  7  1  0
 29 23  1  0
 18 12  1  0
  1 34  1  0
  1 35  1  0
  1 36  1  0
  4 37  1  0
  5 38  1  0
  8 39  1  0
 13 40  1  0
 14 41  1  0
 17 42  1  0
 18 43  1  0
 24 44  1  0
 25 45  1  0
 27 46  1  0
 27 47  1  0
 27 48  1  0
 28 49  1  0
 30 50  1  0
 30 51  1  0
 30 52  1  0
 31 53  1  0
M  CHG  1  33  -1
M  END
>  <UniqueID>  (39) 
32

>  <SMILES>  (39) 
COc1ccc(-c2cn(C(=O)c3ccc(Cl)cc3)nc2C(=O)c2ccc(C)cc2C)cc1[O-]

>  <Energy>  (39) 
102.39943256290432

>  <Genealogy>  (39) 
COc1ccc(-c2cn(C(=O)c3ccc(Cl)cc3)nc2C(=O)c2ccc(C)cc2C)cc1[O-] (protonated)
COc1ccc(-c2cn(C(=O)c3ccc(Cl)cc3)nc2C(=O)c2ccc(C)cc2C)cc1[O-] (3D coordinates assigned)
COc1ccc(-c2cn(C(=O)c3ccc(Cl)cc3)nc2C(=O)c2ccc(C)cc2C)cc1[O-] (optimized conformer: 102.39943256290432 kcal/mol)

>  <smiles>  (39) 
COc1ccc(-c2cn(C(=O)c3ccc(Cl)cc3)nc2C(=O)c2ccc(C)cc2C)cc1O

>  <score_type>  (39) 
oracle

>  <origin>  (39) 
adg

>  <m_score__min__energy>  (39) 
-12.199999999999999

>  <m_primary>  (39) 
energy

$$$$
39:0
     RDKit          3D

 44 46  0  0  0  0  0  0  0  0999 V2000
   59.6180   26.4330   47.0850 N   0  0  0  0  0  0  0  0  0  0  0  0
   58.3330   26.8480   46.5820 C   0  0  0  0  0  0  0  0  0  0  0  0
   58.1550   28.1860   46.1630 C   0  0  0  0  0  0  0  0  0  0  0  0
   59.2440   29.1270   46.2060 N   0  0  0  0  0  0  0  0  0  0  0  0
   59.2060   30.3430   47.0190 C   0  0  0  0  0  0  0  0  0  0  0  0
   60.5210   31.0680   46.9320 C   0  0  0  0  0  0  0  0  0  0  0  0
   61.5130   30.4670   46.5500 O   0  0  0  0  0  0  0  0  0  0  0  0
   60.6510   32.5060   47.3680 C   0  0  0  0  0  0  0  0  0  0  0  0
   62.0060   32.7940   47.8300 N   0  0  0  0  0  0  0  0  0  0  0  0
   62.3740   33.2020   49.0600 C   0  0  0  0  0  0  0  0  0  0  0  0
   63.7420   33.3790   49.0620 C   0  0  0  0  0  0  0  0  0  0  0  0
   64.2150   33.0810   47.8370 N   0  0  0  0  0  0  0  0  0  0  0  0
   63.1410   32.7270   47.1060 C   0  0  0  0  0  0  0  0  0  0  0  0
   56.9050   28.5660   45.6610 C   0  0  0  0  0  0  0  0  0  0  0  0
   56.7120   29.7270   45.2170 O   0  0  0  0  0  0  0  0  0  0  0  0
   55.8950   27.6700   45.6230 N   0  0  0  0  0  0  0  0  0  0  0  0
   56.0540   26.3960   46.0530 C   0  0  0  0  0  0  0  0  0  0  0  0
   55.0680   25.6120   45.9890 O   0  0  0  0  0  0  0  0  0  0  0  0
   57.2680   25.9690   46.5380 N   0  0  0  0  0  0  0  0  0  0  0  0
   57.4130   24.5720   47.0080 C   0  0  0  0  0  0  0  0  0  0  0  0
   57.6010   23.6160   45.8540 C   0  0  0  0  0  0  0  0  0  0  0  0
   56.4960   23.1460   45.1210 C   0  0  0  0  0  0  0  0  0  0  0  0
   56.6760   22.2380   44.0730 C   0  0  0  0  0  0  0  0  0  0  0  0
   57.9570   21.7760   43.7600 C   0  0  0  0  0  0  0  0  0  0  0  0
   59.0580   22.2180   44.4970 C   0  0  0  0  0  0  0  0  0  0  0  0
   58.8830   23.1270   45.5450 C   0  0  0  0  0  0  0  0  0  0  0  0
   59.9540   26.6680   48.0420 H   0  0  0  0  0  0  0  0  0  0  0  0
   60.2750   25.8620   46.5130 H   0  0  0  0  0  0  0  0  0  0  0  0
   60.1180   28.9200   45.6710 H   0  0  0  0  0  0  0  0  0  0  0  0
   58.4039   31.0003   46.6522 H   0  0  0  0  0  0  0  0  0  0  0  0
   59.0167   30.0679   48.0671 H   0  0  0  0  0  0  0  0  0  0  0  0
   60.4142   33.1622   46.5176 H   0  0  0  0  0  0  0  0  0  0  0  0
   59.9529   32.6839   48.1992 H   0  0  0  0  0  0  0  0  0  0  0  0
   61.7006   33.3656   49.9143 H   0  0  0  0  0  0  0  0  0  0  0  0
   64.3455   33.7085   49.9206 H   0  0  0  0  0  0  0  0  0  0  0  0
   65.2090   33.1130   47.5210 H   0  0  0  0  0  0  0  0  0  0  0  0
   63.1844   32.4214   46.0502 H   0  0  0  0  0  0  0  0  0  0  0  0
   58.2877   24.5073   47.6718 H   0  0  0  0  0  0  0  0  0  0  0  0
   56.4937   24.2908   47.5427 H   0  0  0  0  0  0  0  0  0  0  0  0
   55.4840   23.4950   45.3739 H   0  0  0  0  0  0  0  0  0  0  0  0
   55.8086   21.8872   43.4946 H   0  0  0  0  0  0  0  0  0  0  0  0
   58.0983   21.0643   42.9333 H   0  0  0  0  0  0  0  0  0  0  0  0
   60.0654   21.8501   44.2524 H   0  0  0  0  0  0  0  0  0  0  0  0
   59.7521   23.4612   46.1306 H   0  0  0  0  0  0  0  0  0  0  0  0
  1  2  1  0
  2  3  2  0
  3  4  1  0
  4  5  1  0
  5  6  1  0
  6  7  2  0
  6  8  1  0
  8  9  1  0
  9 10  1  0
 10 11  2  0
 11 12  1  0
 12 13  2  0
  3 14  1  0
 14 15  2  0
 14 16  1  0
 16 17  1  0
 17 18  2  0
 17 19  1  0
 19 20  1  0
 20 21  1  0
 21 22  2  0
 22 23  1  0
 23 24  2  0
 24 25  1  0
 25 26  2  0
 19  2  1  0
 26 21  1  0
 13  9  1  0
  1 27  1  0
  1 28  1  0
  4 29  1  0
  5 30  1  0
  5 31  1  0
  8 32  1  0
  8 33  1  0
 10 34  1  0
 11 35  1  0
 12 36  1  0
 13 37  1  0
 20 38  1  0
 20 39  1  0
 22 40  1  0
 23 41  1  0
 24 42  1  0
 25 43  1  0
 26 44  1  0
M  CHG  2  12   1  16  -1
M  END
>  <UniqueID>  (40) 
33

>  <SMILES>  (40) 
Nc1c(NCC(=O)Cn2cc[nH+]c2)c(=O)[n-]c(=O)n1Cc1ccccc1

>  <Energy>  (40) 
83.30335190848625

>  <Genealogy>  (40) 
Nc1c(NCC(=O)Cn2cc[nH+]c2)c(=O)[n-]c(=O)n1Cc1ccccc1 (protonated)
Nc1c(NCC(=O)Cn2cc[nH+]c2)c(=O)[n-]c(=O)n1Cc1ccccc1 (3D coordinates assigned)
Nc1c(NCC(=O)Cn2cc[nH+]c2)c(=O)[n-]c(=O)n1Cc1ccccc1 (optimized conformer: 83.30335190848625 kcal/mol)

>  <smiles>  (40) 
Nc1c(NCC(=O)Cn2ccnc2)c(=O)[nH]c(=O)n1Cc1ccccc1

>  <score_type>  (40) 
oracle

>  <origin>  (40) 
adg

>  <m_score__min__energy>  (40) 
-7.7000000000000002

>  <m_primary>  (40) 
energy

$$$$
40:0
     RDKit          3D

 42 43  0  0  0  0  0  0  0  0999 V2000
   59.2990   29.7240   50.3400 C   0  0  0  0  0  0  0  0  0  0  0  0
   59.3050   30.8550   49.3530 C   0  0  0  0  0  0  0  0  0  0  0  0
   59.6360   32.1490   49.7670 C   0  0  0  0  0  0  0  0  0  0  0  0
   59.6150   33.2310   48.8680 C   0  0  0  0  0  0  0  0  0  0  0  0
   59.9940   34.5920   49.3980 C   0  0  0  0  0  0  0  0  0  0  0  0
   59.2350   33.0050   47.5100 C   0  0  0  0  0  0  0  0  0  0  0  0
   59.1870   34.0200   46.5160 C   0  0  0  0  0  0  0  0  0  0  0  0
   59.4940   35.2140   46.7720 O   0  0  0  0  0  0  0  0  0  0  0  0
   58.7960   33.7060   45.2120 C   0  0  0  0  0  0  0  0  0  0  0  0
   58.4420   32.3960   44.8850 C   0  0  0  0  0  0  0  0  0  0  0  0
   58.0580   32.0310   43.4790 C   0  0  0  0  0  0  0  0  0  0  0  0
   57.6630   30.6140   43.4060 N   0  0  0  0  0  0  0  0  0  0  0  0
   56.2530   30.4400   43.0080 C   0  0  0  0  0  0  0  0  0  0  0  0
   55.4370   29.6140   44.0130 C   0  0  0  0  0  0  0  0  0  0  0  0
   56.2090   29.3980   45.2350 N   0  0  0  0  0  0  0  0  0  0  0  0
   57.4580   28.2240   44.9560 S   0  0  0  0  0  0  0  0  0  0  0  0
   56.9580   26.6370   45.5910 C   0  0  0  0  0  0  0  0  0  0  0  0
   57.7480   28.1110   43.4840 O   0  0  0  0  0  0  0  0  0  0  0  0
   58.7060   28.6620   45.6690 O   0  0  0  0  0  0  0  0  0  0  0  0
   58.5050   31.4290   45.8340 N   0  0  0  0  0  0  0  0  0  0  0  0
   58.8800   31.6870   47.1140 C   0  0  0  0  0  0  0  0  0  0  0  0
   58.9130   30.6340   48.0310 C   0  0  0  0  0  0  0  0  0  0  0  0
   59.3012   30.1296   51.3625 H   0  0  0  0  0  0  0  0  0  0  0  0
   58.3976   29.1116   50.1904 H   0  0  0  0  0  0  0  0  0  0  0  0
   60.1939   29.1020   50.1904 H   0  0  0  0  0  0  0  0  0  0  0  0
   59.9182   32.3243   50.8156 H   0  0  0  0  0  0  0  0  0  0  0  0
   59.9884   34.5718   50.4978 H   0  0  0  0  0  0  0  0  0  0  0  0
   61.0002   34.8572   49.0413 H   0  0  0  0  0  0  0  0  0  0  0  0
   59.2697   35.3391   49.0413 H   0  0  0  0  0  0  0  0  0  0  0  0
   58.7671   34.4916   44.4426 H   0  0  0  0  0  0  0  0  0  0  0  0
   57.2138   32.6595   43.1591 H   0  0  0  0  0  0  0  0  0  0  0  0
   58.9227   32.1948   42.8190 H   0  0  0  0  0  0  0  0  0  0  0  0
   57.8440   30.1460   44.3250 H   0  0  0  0  0  0  0  0  0  0  0  0
   58.2560   30.1400   42.6830 H   0  0  0  0  0  0  0  0  0  0  0  0
   55.7908   31.4339   42.9158 H   0  0  0  0  0  0  0  0  0  0  0  0
   56.2483   29.8914   42.0546 H   0  0  0  0  0  0  0  0  0  0  0  0
   54.5106   30.1536   44.2593 H   0  0  0  0  0  0  0  0  0  0  0  0
   55.1963   28.6391   43.5640 H   0  0  0  0  0  0  0  0  0  0  0  0
   56.9662   26.6630   46.6907 H   0  0  0  0  0  0  0  0  0  0  0  0
   55.9429   26.4038   45.2373 H   0  0  0  0  0  0  0  0  0  0  0  0
   57.6561   25.8640   45.2373 H   0  0  0  0  0  0  0  0  0  0  0  0
   58.6277   29.6216   47.7090 H   0  0  0  0  0  0  0  0  0  0  0  0
  1  2  1  0
  2  3  2  0
  3  4  1  0
  4  5  1  0
  4  6  2  0
  6  7  1  0
  7  8  2  0
  7  9  1  0
  9 10  2  0
 10 11  1  0
 11 12  1  0
 12 13  1  0
 13 14  1  0
 14 15  1  0
 15 16  1  0
 16 17  1  0
 16 18  2  0
 16 19  2  0
 10 20  1  0
 20 21  1  0
 21 22  2  0
 22  2  1  0
 21  6  1  0
  1 23  1  0
  1 24  1  0
  1 25  1  0
  3 26  1  0
  5 27  1  0
  5 28  1  0
  5 29  1  0
  9 30  1  0
 11 31  1  0
 11 32  1  0
 12 33  1  0
 12 34  1  0
 13 35  1  0
 13 36  1  0
 14 37  1  0
 14 38  1  0
 17 39  1  0
 17 40  1  0
 17 41  1  0
 22 42  1  0
M  CHG  3  12   1  15  -1  20  -1
M  END
>  <UniqueID>  (41) 
34

>  <SMILES>  (41) 
Cc1cc(C)c2c(=O)cc(C[NH2+]CC[N-]S(C)(=O)=O)[n-]c2c1

>  <Energy>  (41) 
41.00634522207968

>  <Genealogy>  (41) 
Cc1cc(C)c2c(=O)cc(C[NH2+]CC[N-]S(C)(=O)=O)[n-]c2c1 (protonated)
Cc1cc(C)c2c(=O)cc(C[NH2+]CC[N-]S(C)(=O)=O)[n-]c2c1 (3D coordinates assigned)
Cc1cc(C)c2c(=O)cc(C[NH2+]CC[N-]S(C)(=O)=O)[n-]c2c1 (optimized conformer: 41.00634522207968 kcal/mol)

>  <smiles>  (41) 
Cc1cc(C)c2c(=O)cc(CNCCNS(C)(=O)=O)[nH]c2c1

>  <score_type>  (41) 
oracle

>  <origin>  (41) 
adg

>  <m_score__min__energy>  (41) 
-8.0700000000000003

>  <m_primary>  (41) 
energy

$$$$
41:0
     RDKit          3D

 36 38  0  0  0  0  0  0  0  0999 V2000
   61.4687   30.1934   48.1698 H   0  0  0  0  0  0  0  0  0  0  0  0
   60.6370   29.6620   47.6840 C   0  0  0  0  0  0  0  0  0  0  0  0
   59.6730   29.0120   48.4610 C   0  0  0  0  0  0  0  0  0  0  0  0
   59.7473   29.0314   49.5583 H   0  0  0  0  0  0  0  0  0  0  0  0
   58.6140   28.3370   47.8440 C   0  0  0  0  0  0  0  0  0  0  0  0
   57.8542   27.8300   48.4570 H   0  0  0  0  0  0  0  0  0  0  0  0
   58.5200   28.3060   46.4450 C   0  0  0  0  0  0  0  0  0  0  0  0
   57.1980   27.4480   45.6610 S   0  0  0  0  0  0  0  0  0  0  0  0
   56.4240   26.6930   46.7040 O   0  0  0  0  0  0  0  0  0  0  0  0
   57.7250   26.4750   44.6430 O   0  0  0  0  0  0  0  0  0  0  0  0
   56.1400   28.5770   44.8710 N   0  0  0  0  0  0  0  0  0  0  0  0
   55.1270   28.3280   44.8180 H   0  0  0  0  0  0  0  0  0  0  0  0
   56.5590   29.8510   44.3600 C   0  0  0  0  0  0  0  0  0  0  0  0
   56.8370   30.8510   45.2410 N   0  0  0  0  0  0  0  0  0  0  0  0
   57.2360   32.0810   44.8240 C   0  0  0  0  0  0  0  0  0  0  0  0
   57.5130   32.9910   45.7120 N   0  0  0  0  0  0  0  0  0  0  0  0
   58.5800   32.9610   46.6760 C   0  0  0  0  0  0  0  0  0  0  0  0
   58.2610   32.7560   48.0250 C   0  0  0  0  0  0  0  0  0  0  0  0
   57.2135   32.5972   48.3208 H   0  0  0  0  0  0  0  0  0  0  0  0
   59.2660   32.7520   48.9980 C   0  0  0  0  0  0  0  0  0  0  0  0
   59.0092   32.5740   50.0527 H   0  0  0  0  0  0  0  0  0  0  0  0
   60.5960   32.9740   48.6310 C   0  0  0  0  0  0  0  0  0  0  0  0
   61.3868   32.9615   49.3956 H   0  0  0  0  0  0  0  0  0  0  0  0
   60.9220   33.2120   47.2920 C   0  0  0  0  0  0  0  0  0  0  0  0
   62.7350   33.5520   46.7980 Br  0  0  0  0  0  0  0  0  0  0  0  0
   59.9180   33.2170   46.3180 C   0  0  0  0  0  0  0  0  0  0  0  0
   60.1745   33.4217   45.2681 H   0  0  0  0  0  0  0  0  0  0  0  0
   57.3820   32.3230   43.4930 N   0  0  0  0  0  0  0  0  0  0  0  0
   57.1150   31.3630   42.5720 C   0  0  0  0  0  0  0  0  0  0  0  0
   57.2510   31.6160   41.3460 O   0  0  0  0  0  0  0  0  0  0  0  0
   56.6900   30.0990   42.9850 C   0  0  0  0  0  0  0  0  0  0  0  0
   56.4627   29.3143   42.2484 H   0  0  0  0  0  0  0  0  0  0  0  0
   59.4860   28.9620   45.6700 C   0  0  0  0  0  0  0  0  0  0  0  0
   59.4124   28.9466   44.5726 H   0  0  0  0  0  0  0  0  0  0  0  0
   60.5430   29.6360   46.2890 C   0  0  0  0  0  0  0  0  0  0  0  0
   61.3018   30.1466   45.6778 H   0  0  0  0  0  0  0  0  0  0  0  0
  1  2  1  0
  2  3  2  0
  3  4  1  0
  3  5  1  0
  5  6  1  0
  5  7  2  0
  7  8  1  0
  8  9  2  0
  8 10  2  0
  8 11  1  0
 11 12  1  0
 11 13  1  0
 13 14  1  0
 14 15  1  0
 15 16  2  0
 16 17  1  0
 17 18  2  0
 18 19  1  0
 18 20  1  0
 20 21  1  0
 20 22  2  0
 22 23  1  0
 22 24  1  0
 24 25  1  0
 24 26  2  0
 26 27  1  0
 15 28  1  0
 28 29  1  0
 29 30  2  0
 29 31  1  0
 31 32  1  0
  7 33  1  0
 33 34  1  0
 33 35  2  0
 35 36  1  0
 35  2  1  0
 31 13  2  0
 26 17  1  0
M  CHG  2  14  -1  28  -1
M  END
>  <UniqueID>  (42) 
35

>  <SMILES>  (42) 
O=c1cc(NS(=O)(=O)c2ccccc2)[n-]/c(=N/c2cccc(Br)c2)[n-]1

>  <Energy>  (42) 
48.497117352248104

>  <Genealogy>  (42) 
O=c1cc(NS(=O)(=O)c2ccccc2)[n-]c(=Nc2cccc(Br)c2)[n-]1 (protonated)
O=c1cc(NS(=O)(=O)c2ccccc2)[n-]/c(=N/c2cccc(Br)c2)[n-]1 (cis-trans isomerization)
O=c1cc(NS(=O)(=O)c2ccccc2)[n-]/c(=N/c2cccc(Br)c2)[n-]1 (3D coordinates assigned)
O=c1cc(NS(=O)(=O)c2ccccc2)[n-]/c(=N/c2cccc(Br)c2)[n-]1 (optimized conformer: 48.497117352248104 kcal/mol)

>  <smiles>  (42) 
O=c1cc(NS(=O)(=O)c2ccccc2)[nH]c(=Nc2cccc(Br)c2)[nH]1

>  <score_type>  (42) 
oracle

>  <origin>  (42) 
adg

>  <m_score__min__energy>  (42) 
-12.050000000000001

>  <m_primary>  (42) 
energy

$$$$
42:0
     RDKit          3D

 47 49  0  0  0  0  0  0  0  0999 V2000
   64.8360   32.7990   49.3870 C   0  0  0  0  0  0  0  0  0  0  0  0
   63.6230   32.6780   48.0700 S   0  0  0  0  0  0  0  0  0  0  0  0
   63.5290   31.2950   47.5480 O   0  0  0  0  0  0  0  0  0  0  0  0
   64.1080   33.5930   46.9570 O   0  0  0  0  0  0  0  0  0  0  0  0
   62.1010   33.2970   48.6030 N   0  0  0  0  0  0  0  0  0  0  0  0
   60.8870   32.9390   47.9540 C   0  0  0  0  0  0  0  0  0  0  0  0
   60.0020   33.9390   47.6190 C   0  0  0  0  0  0  0  0  0  0  0  0
   58.8380   33.5540   46.9950 C   0  0  0  0  0  0  0  0  0  0  0  0
   58.5630   32.2020   46.7120 C   0  0  0  0  0  0  0  0  0  0  0  0
   57.3480   31.9910   46.0940 O   0  0  0  0  0  0  0  0  0  0  0  0
   57.3830   32.0100   44.6750 C   0  0  0  0  0  0  0  0  0  0  0  0
   58.1370   32.9260   43.9830 C   0  0  0  0  0  0  0  0  0  0  0  0
   58.1590   32.9300   42.6340 N   0  0  0  0  0  0  0  0  0  0  0  0
   57.4320   32.0210   41.9480 C   0  0  0  0  0  0  0  0  0  0  0  0
   57.4230   31.9880   40.6560 N   0  0  0  0  0  0  0  0  0  0  0  0
   56.7010   31.1330   42.6060 N   0  0  0  0  0  0  0  0  0  0  0  0
   56.6520   31.0960   43.9450 C   0  0  0  0  0  0  0  0  0  0  0  0
   55.9450   30.2350   44.5990 N   0  0  0  0  0  0  0  0  0  0  0  0
   59.4410   31.2080   47.0390 C   0  0  0  0  0  0  0  0  0  0  0  0
   59.3630   29.8220   46.6680 C   0  0  0  0  0  0  0  0  0  0  0  0
   60.4150   29.1140   46.7830 O   0  0  0  0  0  0  0  0  0  0  0  0
   58.2340   29.1250   46.1880 N   0  0  0  0  0  0  0  0  0  0  0  0
   58.2920   27.7140   45.8830 C   0  0  0  0  0  0  0  0  0  0  0  0
   58.7120   26.8710   46.9110 C   0  0  0  0  0  0  0  0  0  0  0  0
   58.7870   25.5250   46.6820 C   0  0  0  0  0  0  0  0  0  0  0  0
   58.4460   25.0280   45.4450 C   0  0  0  0  0  0  0  0  0  0  0  0
   58.0290   25.8680   44.4300 C   0  0  0  0  0  0  0  0  0  0  0  0
   57.6890   25.3990   43.2030 F   0  0  0  0  0  0  0  0  0  0  0  0
   57.9460   27.2320   44.6350 C   0  0  0  0  0  0  0  0  0  0  0  0
   57.5420   28.0990   43.6690 F   0  0  0  0  0  0  0  0  0  0  0  0
   60.6200   31.6200   47.6770 C   0  0  0  0  0  0  0  0  0  0  0  0
   64.3265   32.7482   50.3606 H   0  0  0  0  0  0  0  0  0  0  0  0
   65.5517   31.9678   49.3039 H   0  0  0  0  0  0  0  0  0  0  0  0
   65.3734   33.7552   49.3039 H   0  0  0  0  0  0  0  0  0  0  0  0
   62.0110   33.9580   49.4210 H   0  0  0  0  0  0  0  0  0  0  0  0
   60.2154   34.9953   47.8397 H   0  0  0  0  0  0  0  0  0  0  0  0
   58.1034   34.3215   46.7098 H   0  0  0  0  0  0  0  0  0  0  0  0
   58.7317   33.6673   44.5368 H   0  0  0  0  0  0  0  0  0  0  0  0
   58.7460   33.6440   42.1220 H   0  0  0  0  0  0  0  0  0  0  0  0
   58.2660   31.7370   40.0910 H   0  0  0  0  0  0  0  0  0  0  0  0
   56.1450   30.4390   42.0840 H   0  0  0  0  0  0  0  0  0  0  0  0
   55.9530   30.1010   45.6160 H   0  0  0  0  0  0  0  0  0  0  0  0
   57.3430   29.5880   45.9950 H   0  0  0  0  0  0  0  0  0  0  0  0
   58.9799   27.2838   47.8948 H   0  0  0  0  0  0  0  0  0  0  0  0
   59.1175   24.8446   47.4807 H   0  0  0  0  0  0  0  0  0  0  0  0
   58.5063   23.9451   45.2612 H   0  0  0  0  0  0  0  0  0  0  0  0
   61.3589   30.8584   47.9666 H   0  0  0  0  0  0  0  0  0  0  0  0
  1  2  1  0
  2  3  2  0
  2  4  2  0
  2  5  1  0
  5  6  1  0
  6  7  2  0
  7  8  1  0
  8  9  2  0
  9 10  1  0
 10 11  1  0
 11 12  2  0
 12 13  1  0
 13 14  1  0
 14 15  2  3
 14 16  1  0
 16 17  1  0
 17 18  2  3
  9 19  1  0
 19 20  1  0
 20 21  2  0
 20 22  1  0
 22 23  1  0
 23 24  2  0
 24 25  1  0
 25 26  2  0
 26 27  1  0
 27 28  1  0
 27 29  2  0
 29 30  1  0
 19 31  2  0
 31  6  1  0
 17 11  1  0
 29 23  1  0
  1 32  1  0
  1 33  1  0
  1 34  1  0
  5 35  1  0
  7 36  1  0
  8 37  1  0
 12 38  1  0
 13 39  1  0
 15 40  1  0
 16 41  1  0
 18 42  1  0
 22 43  1  0
 24 44  1  0
 25 45  1  0
 26 46  1  0
 31 47  1  0
M  END
>  <smiles>  (43) 
CS(=O)(=O)Nc1ccc(Oc2c[nH]c(=N)[nH]c2=N)c(C(=O)Nc2cccc(F)c2F)c1

>  <score_type>  (43) 
oracle

>  <origin>  (43) 
adg

>  <m_score__min__energy>  (43) 
-7.71

>  <m_primary>  (43) 
energy

$$$$
43:0
     RDKit          3D

 54 57  0  0  0  0  0  0  0  0999 V2000
   59.2860   34.8520   47.5560 C   0  0  0  0  0  0  0  0  0  0  0  0
   58.7860   33.5260   47.4160 O   0  0  0  0  0  0  0  0  0  0  0  0
   58.3830   32.9550   46.1990 C   0  0  0  0  0  0  0  0  0  0  0  0
   58.6120   33.6710   45.0220 C   0  0  0  0  0  0  0  0  0  0  0  0
   58.2520   33.1370   43.7840 C   0  0  0  0  0  0  0  0  0  0  0  0
   57.6510   31.8660   43.7010 C   0  0  0  0  0  0  0  0  0  0  0  0
   57.3200   31.2860   42.4660 O   0  0  0  0  0  0  0  0  0  0  0  0
   57.3370   31.9720   41.2180 C   0  0  0  0  0  0  0  0  0  0  0  0
   57.3910   31.1530   44.8880 C   0  0  0  0  0  0  0  0  0  0  0  0
   56.6890   29.5340   44.8380 S   0  0  0  0  0  0  0  0  0  0  0  0
   57.2120   28.7780   43.6500 O   0  0  0  0  0  0  0  0  0  0  0  0
   55.1930   29.6220   44.7160 O   0  0  0  0  0  0  0  0  0  0  0  0
   57.1000   28.6810   46.2860 N   0  0  0  0  0  0  0  0  0  0  0  0
   58.0880   27.6480   46.2650 C   0  0  0  0  0  0  0  0  0  0  0  0
   59.4490   28.0040   46.2020 C   0  0  0  0  0  0  0  0  0  0  0  0
   59.8110   29.3940   46.1710 N   0  0  0  0  0  0  0  0  0  0  0  0
   60.3580   30.0770   47.1330 C   0  0  0  0  0  0  0  0  0  0  0  0
   60.5420   29.5670   48.4480 N   0  0  0  0  0  0  0  0  0  0  0  0
   61.4110   30.4080   49.2520 C   0  0  2  0  0  0  0  0  0  0  0  0
   60.5780   31.3110   50.1700 C   0  0  0  0  0  0  0  0  0  0  0  0
   61.4360   32.8530   50.2350 S   0  0  0  0  0  0  0  0  0  0  0  0
   60.5280   34.0010   49.8910 O   0  0  0  0  0  0  0  0  0  0  0  0
   62.0810   33.0690   51.5740 O   0  0  0  0  0  0  0  0  0  0  0  0
   62.6400   32.5820   48.9730 C   0  0  0  0  0  0  0  0  0  0  0  0
   62.2350   31.2810   48.2780 C   0  0  2  0  0  0  0  0  0  0  0  0
   61.2010   31.6050   46.8000 S   0  0  0  0  0  0  0  0  0  0  0  0
   60.4320   27.0070   46.2870 C   0  0  0  0  0  0  0  0  0  0  0  0
   60.0670   25.6650   46.3670 C   0  0  0  0  0  0  0  0  0  0  0  0
   58.7210   25.3030   46.3780 C   0  0  0  0  0  0  0  0  0  0  0  0
   57.7110   26.2810   46.3260 C   0  0  0  0  0  0  0  0  0  0  0  0
   56.2860   25.8540   46.3370 C   0  0  0  0  0  0  0  0  0  0  0  0
   55.2730   26.7120   45.8140 N   0  0  0  0  0  0  0  0  0  0  0  0
   55.9500   24.7380   46.8170 O   0  0  0  0  0  0  0  0  0  0  0  0
   57.7660   31.6930   46.1260 C   0  0  0  0  0  0  0  0  0  0  0  0
   59.3788   35.0980   48.6241 H   0  0  0  0  0  0  0  0  0  0  0  0
   60.2731   34.9242   47.0760 H   0  0  0  0  0  0  0  0  0  0  0  0
   58.5923   35.5580   47.0760 H   0  0  0  0  0  0  0  0  0  0  0  0
   59.0805   34.6650   45.0713 H   0  0  0  0  0  0  0  0  0  0  0  0
   58.4391   33.7132   42.8659 H   0  0  0  0  0  0  0  0  0  0  0  0
   57.3639   33.0571   41.3964 H   0  0  0  0  0  0  0  0  0  0  0  0
   58.2280   31.6721   40.6469 H   0  0  0  0  0  0  0  0  0  0  0  0
   56.4323   31.7166   40.6469 H   0  0  0  0  0  0  0  0  0  0  0  0
   60.3780   28.5680   48.7020 H   0  0  0  0  0  0  0  0  0  0  0  0
   62.0666   29.7892   49.8823 H   0  0  0  0  0  0  0  0  0  0  0  0
   59.5686   31.4514   49.7560 H   0  0  0  0  0  0  0  0  0  0  0  0
   60.4591   30.8712   51.1712 H   0  0  0  0  0  0  0  0  0  0  0  0
   62.6365   33.4159   48.2557 H   0  0  0  0  0  0  0  0  0  0  0  0
   63.6552   32.5167   49.3914 H   0  0  0  0  0  0  0  0  0  0  0  0
   63.1580   30.7681   47.9698 H   0  0  0  0  0  0  0  0  0  0  0  0
   61.4960   27.2861   46.2905 H   0  0  0  0  0  0  0  0  0  0  0  0
   60.8439   24.8881   46.4217 H   0  0  0  0  0  0  0  0  0  0  0  0
   58.4450   24.2394   46.4280 H   0  0  0  0  0  0  0  0  0  0  0  0
   55.5220   27.5550   45.2510 H   0  0  0  0  0  0  0  0  0  0  0  0
   57.5761   31.1249   47.0486 H   0  0  0  0  0  0  0  0  0  0  0  0
  1  2  1  0
  2  3  1  0
  3  4  2  0
  4  5  1  0
  5  6  2  0
  6  7  1  0
  7  8  1  0
  6  9  1  0
  9 10  1  0
 10 11  2  0
 10 12  2  0
 10 13  1  0
 13 14  1  0
 14 15  1  0
 15 16  1  0
 16 17  2  3
 17 18  1  0
 18 19  1  0
 19 20  1  0
 20 21  1  0
 21 22  2  0
 21 23  2  0
 21 24  1  0
 24 25  1  0
 25 26  1  0
 15 27  2  0
 27 28  1  0
 28 29  2  0
 29 30  1  0
 30 31  1  0
 31 32  1  0
 31 33  2  0
  9 34  2  0
 34  3  1  0
 30 14  2  0
 26 17  1  0
 25 19  1  0
  1 35  1  0
  1 36  1  0
  1 37  1  0
  4 38  1  0
  5 39  1  0
  8 40  1  0
  8 41  1  0
  8 42  1  0
 18 43  1  0
 19 44  1  1
 20 45  1  0
 20 46  1  0
 24 47  1  0
 24 48  1  0
 25 49  1  6
 27 50  1  0
 28 51  1  0
 29 52  1  0
 32 53  1  0
 34 54  1  0
M  CHG  2  13  -1  32  -1
M  END
>  <UniqueID>  (44) 
36

>  <SMILES>  (44) 
COc1ccc(OC)c(S(=O)(=O)[N-]c2c(N=C3N[C@@H]4CS(=O)(=O)C[C@@H]4S3)cccc2C([NH-])=O)c1

>  <Energy>  (44) 
77.46320348015753

>  <Genealogy>  (44) 
COc1ccc(OC)c(S(=O)(=O)[N-]c2c(N=C3NC4CS(=O)(=O)CC4S3)cccc2C([NH-])=O)c1 (protonated)
COc1ccc(OC)c(S(=O)(=O)[N-]c2c(N=C3N[C@@H]4CS(=O)(=O)C[C@@H]4S3)cccc2C([NH-])=O)c1 (chirality)
COc1ccc(OC)c(S(=O)(=O)[N-]c2c(N=C3N[C@@H]4CS(=O)(=O)C[C@@H]4S3)cccc2C([NH-])=O)c1 (3D coordinates assigned)
COc1ccc(OC)c(S(=O)(=O)[N-]c2c(N=C3N[C@@H]4CS(=O)(=O)C[C@@H]4S3)cccc2C([NH-])=O)c1 (nonaromatic ring conformer: 77.46320348015753 kcal/mol)

>  <smiles>  (44) 
COc1ccc(OC)c(S(=O)(=O)Nc2c(N=C3NC4CS(=O)(=O)CC4S3)cccc2C(N)=O)c1

>  <score_type>  (44) 
oracle

>  <origin>  (44) 
adg

>  <m_score__min__energy>  (44) 
-13.539999999999999

>  <m_primary>  (44) 
energy

$$$$
44:0
     RDKit          3D

 41 43  0  0  0  0  0  0  0  0999 V2000
   59.6470   24.8370   46.1850 O   0  0  0  0  0  0  0  0  0  0  0  0
   58.5600   25.7890   46.5900 S   0  0  0  0  0  0  0  0  0  0  0  0
   58.5720   25.9390   48.0860 O   0  0  0  0  0  0  0  0  0  0  0  0
   57.0330   25.1280   46.0940 N   0  0  0  0  0  0  0  0  0  0  0  0
   56.8520   23.9190   45.3420 C   0  0  0  0  0  0  0  0  0  0  0  0
   57.2060   22.6530   45.8510 C   0  0  0  0  0  0  0  0  0  0  0  0
   57.0340   21.5090   45.0660 C   0  0  0  0  0  0  0  0  0  0  0  0
   56.5040   21.6110   43.7750 C   0  0  0  0  0  0  0  0  0  0  0  0
   56.3410   20.4620   43.0030 O   0  0  0  0  0  0  0  0  0  0  0  0
   56.1390   22.8660   43.2710 C   0  0  0  0  0  0  0  0  0  0  0  0
   56.3120   24.0130   44.0530 C   0  0  0  0  0  0  0  0  0  0  0  0
   58.8500   27.3440   45.8170 C   0  0  0  0  0  0  0  0  0  0  0  0
   60.1620   27.7430   45.5280 C   0  0  0  0  0  0  0  0  0  0  0  0
   60.4030   28.9580   44.8780 C   0  0  0  0  0  0  0  0  0  0  0  0
   59.3340   29.7850   44.5250 C   0  0  0  0  0  0  0  0  0  0  0  0
   58.0160   29.3900   44.8030 C   0  0  0  0  0  0  0  0  0  0  0  0
   56.6590   30.3970   44.3070 S   0  0  0  0  0  0  0  0  0  0  0  0
   55.3850   29.6500   44.5910 O   0  0  0  0  0  0  0  0  0  0  0  0
   56.7270   30.7070   42.8370 O   0  0  0  0  0  0  0  0  0  0  0  0
   56.6430   31.8800   45.2070 N   0  0  0  0  0  0  0  0  0  0  0  0
   57.7760   32.7220   45.4580 C   0  0  0  0  0  0  0  0  0  0  0  0
   58.1130   33.7970   44.6130 C   0  0  0  0  0  0  0  0  0  0  0  0
   59.2280   34.5950   44.9000 C   0  0  0  0  0  0  0  0  0  0  0  0
   60.0040   34.3340   46.0330 C   0  0  0  0  0  0  0  0  0  0  0  0
   59.6770   33.2670   46.8740 C   0  0  0  0  0  0  0  0  0  0  0  0
   58.5700   32.4600   46.5850 C   0  0  0  0  0  0  0  0  0  0  0  0
   58.2710   31.4170   47.4020 F   0  0  0  0  0  0  0  0  0  0  0  0
   57.7790   28.1640   45.4360 C   0  0  0  0  0  0  0  0  0  0  0  0
   57.6181   22.5651   46.8671 H   0  0  0  0  0  0  0  0  0  0  0  0
   57.3167   20.5238   45.4652 H   0  0  0  0  0  0  0  0  0  0  0  0
   56.8690   19.6200   43.1910 H   0  0  0  0  0  0  0  0  0  0  0  0
   55.7158   22.9497   42.2591 H   0  0  0  0  0  0  0  0  0  0  0  0
   56.0219   24.9957   43.6528 H   0  0  0  0  0  0  0  0  0  0  0  0
   61.0060   27.0979   45.8136 H   0  0  0  0  0  0  0  0  0  0  0  0
   61.4341   29.2621   44.6449 H   0  0  0  0  0  0  0  0  0  0  0  0
   59.5254   30.7476   44.0282 H   0  0  0  0  0  0  0  0  0  0  0  0
   57.4992   34.0106   43.7255 H   0  0  0  0  0  0  0  0  0  0  0  0
   59.4933   35.4283   44.2327 H   0  0  0  0  0  0  0  0  0  0  0  0
   60.8725   34.9688   46.2627 H   0  0  0  0  0  0  0  0  0  0  0  0
   60.2899   33.0609   47.7639 H   0  0  0  0  0  0  0  0  0  0  0  0
   56.7462   27.8423   45.6355 H   0  0  0  0  0  0  0  0  0  0  0  0
  1  2  2  0
  2  3  2  0
  2  4  1  0
  4  5  1  0
  5  6  2  0
  6  7  1  0
  7  8  2  0
  8  9  1  0
  8 10  1  0
 10 11  2  0
  2 12  1  0
 12 13  2  0
 13 14  1  0
 14 15  2  0
 15 16  1  0
 16 17  1  0
 17 18  2  0
 17 19  2  0
 17 20  1  0
 20 21  1  0
 21 22  2  0
 22 23  1  0
 23 24  2  0
 24 25  1  0
 25 26  2  0
 26 27  1  0
 16 28  2  0
 11  5  1  0
 28 12  1  0
 26 21  1  0
  6 29  1  0
  7 30  1  0
  9 31  1  0
 10 32  1  0
 11 33  1  0
 13 34  1  0
 14 35  1  0
 15 36  1  0
 22 37  1  0
 23 38  1  0
 24 39  1  0
 25 40  1  0
 28 41  1  0
M  CHG  2   4  -1  20  -1
M  END
>  <UniqueID>  (45) 
37

>  <SMILES>  (45) 
O=S(=O)([N-]c1ccc(O)cc1)c1cccc(S(=O)(=O)[N-]c2ccccc2F)c1

>  <Energy>  (45) 
45.760795213238154

>  <Genealogy>  (45) 
O=S(=O)([N-]c1ccc(O)cc1)c1cccc(S(=O)(=O)[N-]c2ccccc2F)c1 (protonated)
O=S(=O)([N-]c1ccc(O)cc1)c1cccc(S(=O)(=O)[N-]c2ccccc2F)c1 (3D coordinates assigned)
O=S(=O)([N-]c1ccc(O)cc1)c1cccc(S(=O)(=O)[N-]c2ccccc2F)c1 (optimized conformer: 45.760795213238154 kcal/mol)

>  <smiles>  (45) 
O=S(=O)(Nc1ccc(O)cc1)c1cccc(S(=O)(=O)Nc2ccccc2F)c1

>  <score_type>  (45) 
oracle

>  <origin>  (45) 
adg

>  <m_score__min__energy>  (45) 
-12.4

>  <m_primary>  (45) 
energy

$$$$
45:0
     RDKit          3D

 78 83  0  0  0  0  0  0  0  0999 V2000
   60.6070   26.3180   46.2500 O   0  0  0  0  0  0  0  0  0  0  0  0
   59.5220   25.9240   46.7510 C   0  0  0  0  0  0  0  0  0  0  0  0
   59.2150   26.2760   48.1030 N   0  0  0  0  0  0  0  0  0  0  0  0
   59.5760   27.5060   48.7550 C   0  0  0  0  0  0  0  0  0  0  0  0
   58.7180   28.6210   48.7500 C   0  0  0  0  0  0  0  0  0  0  0  0
   59.1200   29.8190   49.3430 C   0  0  0  0  0  0  0  0  0  0  0  0
   60.3820   29.9220   49.9470 C   0  0  0  0  0  0  0  0  0  0  0  0
   60.9090   31.4470   50.6630 S   0  0  0  0  0  0  0  0  0  0  0  0
   61.4690   31.1950   52.0370 O   0  0  0  0  0  0  0  0  0  0  0  0
   59.7110   32.3480   50.8020 O   0  0  0  0  0  0  0  0  0  0  0  0
   62.1100   32.2130   49.6490 N   0  0  0  0  0  0  0  0  0  0  0  0
   62.7760   31.2070   48.8110 C   0  0  0  0  0  0  0  0  0  0  0  0
   63.7270   31.8930   47.8070 C   0  0  0  0  0  0  0  0  0  0  0  0
   64.2630   33.1860   48.2950 N   0  0  0  0  0  0  0  0  0  0  0  0
   63.4960   34.3500   47.8000 C   0  0  0  0  0  0  0  0  0  0  0  0
   62.6960   33.9400   46.5580 C   0  0  0  0  0  0  0  0  0  0  0  0
   61.2230   34.1290   46.7880 C   0  0  0  0  0  0  0  0  0  0  0  0
   60.6910   34.0280   48.0820 C   0  0  0  0  0  0  0  0  0  0  0  0
   59.3250   34.2480   48.2790 C   0  0  0  0  0  0  0  0  0  0  0  0
   58.5210   34.5500   47.2240 N   0  0  0  0  0  0  0  0  0  0  0  0
   59.0130   34.6570   45.9620 C   0  0  0  0  0  0  0  0  0  0  0  0
   60.3740   34.4530   45.7200 C   0  0  0  0  0  0  0  0  0  0  0  0
   64.4230   33.1950   49.7620 C   0  0  0  0  0  0  0  0  0  0  0  0
   63.0870   32.9300   50.4910 C   0  0  0  0  0  0  0  0  0  0  0  0
   61.2390   28.8130   49.9460 C   0  0  0  0  0  0  0  0  0  0  0  0
   60.8400   27.6180   49.3440 C   0  0  0  0  0  0  0  0  0  0  0  0
   58.6290   25.0530   45.9620 C   0  0  0  0  0  0  0  0  0  0  0  0
   58.1260   23.5030   46.4440 S   0  0  0  0  0  0  0  0  0  0  0  0
   57.2480   23.2390   45.0420 C   0  0  0  0  0  0  0  0  0  0  0  0
   57.3180   24.2970   44.2070 C   0  0  0  0  0  0  0  0  0  0  0  0
   58.1000   25.3550   44.6990 C   0  0  0  0  0  0  0  0  0  0  0  0
   58.3080   26.6340   44.0800 N   0  0  0  0  0  0  0  0  0  0  0  0
   57.4950   28.1350   44.4200 S   0  0  0  0  0  0  0  0  0  0  0  0
   57.0620   28.6960   43.0950 O   0  0  0  0  0  0  0  0  0  0  0  0
   56.2700   27.8810   45.2500 O   0  0  0  0  0  0  0  0  0  0  0  0
   58.5650   29.3150   45.2190 C   0  0  0  0  0  0  0  0  0  0  0  0
   59.7620   28.8510   45.7920 C   0  0  0  0  0  0  0  0  0  0  0  0
   60.6700   29.7280   46.3790 C   0  0  0  0  0  0  0  0  0  0  0  0
   60.4030   31.0910   46.4020 C   0  0  0  0  0  0  0  0  0  0  0  0
   59.2180   31.5820   45.8570 C   0  0  0  0  0  0  0  0  0  0  0  0
   58.2700   30.7110   45.2740 C   0  0  0  0  0  0  0  0  0  0  0  0
   57.0210   31.3130   44.6570 C   0  0  0  0  0  0  0  0  0  0  0  0
   56.7220   32.5280   45.2360 F   0  0  0  0  0  0  0  0  0  0  0  0
   57.1770   31.5350   43.3000 F   0  0  0  0  0  0  0  0  0  0  0  0
   55.9640   30.4430   44.8320 F   0  0  0  0  0  0  0  0  0  0  0  0
   56.6400   24.0140   42.9250 C   0  0  0  0  0  0  0  0  0  0  0  0
   56.1840   22.5370   43.0690 C   0  0  0  0  0  0  0  0  0  0  0  0
   56.5300   22.0750   44.5050 C   0  0  0  0  0  0  0  0  0  0  0  0
   57.7274   28.5485   48.2774 H   0  0  0  0  0  0  0  0  0  0  0  0
   58.4439   30.6866   49.3367 H   0  0  0  0  0  0  0  0  0  0  0  0
   63.3547   30.5258   49.4521 H   0  0  0  0  0  0  0  0  0  0  0  0
   62.0135   30.6425   48.2543 H   0  0  0  0  0  0  0  0  0  0  0  0
   64.5721   31.2172   47.6093 H   0  0  0  0  0  0  0  0  0  0  0  0
   63.1436   32.1047   46.8988 H   0  0  0  0  0  0  0  0  0  0  0  0
   62.8059   34.6953   48.5839 H   0  0  0  0  0  0  0  0  0  0  0  0
   64.1890   35.1635   47.5394 H   0  0  0  0  0  0  0  0  0  0  0  0
   63.0106   34.5595   45.7052 H   0  0  0  0  0  0  0  0  0  0  0  0
   62.8876   32.8771   46.3492 H   0  0  0  0  0  0  0  0  0  0  0  0
   61.3421   33.7783   48.9327 H   0  0  0  0  0  0  0  0  0  0  0  0
   58.8985   34.1767   49.2905 H   0  0  0  0  0  0  0  0  0  0  0  0
   58.3385   34.9047   45.1291 H   0  0  0  0  0  0  0  0  0  0  0  0
   60.7760   34.5458   44.7003 H   0  0  0  0  0  0  0  0  0  0  0  0
   65.1435   32.4136   50.0456 H   0  0  0  0  0  0  0  0  0  0  0  0
   64.7804   34.1921   50.0589 H   0  0  0  0  0  0  0  0  0  0  0  0
   63.2894   32.3254   51.3874 H   0  0  0  0  0  0  0  0  0  0  0  0
   62.6501   33.9062   50.7481 H   0  0  0  0  0  0  0  0  0  0  0  0
   62.2287   28.8842   50.4208 H   0  0  0  0  0  0  0  0  0  0  0  0
   61.5252   26.7575   49.3328 H   0  0  0  0  0  0  0  0  0  0  0  0
   59.9855   27.7741   45.7762 H   0  0  0  0  0  0  0  0  0  0  0  0
   61.5986   29.3417   46.8245 H   0  0  0  0  0  0  0  0  0  0  0  0
   61.1288   31.7846   46.8516 H   0  0  0  0  0  0  0  0  0  0  0  0
   59.0176   32.6633   45.8810 H   0  0  0  0  0  0  0  0  0  0  0  0
   55.7757   24.6794   42.7829 H   0  0  0  0  0  0  0  0  0  0  0  0
   57.2909   24.1765   42.0532 H   0  0  0  0  0  0  0  0  0  0  0  0
   55.0993   22.4620   42.9026 H   0  0  0  0  0  0  0  0  0  0  0  0
   56.6924   21.9031   42.3276 H   0  0  0  0  0  0  0  0  0  0  0  0
   55.6201   21.8649   45.0863 H   0  0  0  0  0  0  0  0  0  0  0  0
   57.1125   21.1426   44.5401 H   0  0  0  0  0  0  0  0  0  0  0  0
  1  2  2  0
  2  3  1  0
  3  4  1  0
  4  5  2  0
  5  6  1  0
  6  7  2  0
  7  8  1  0
  8  9  2  0
  8 10  2  0
  8 11  1  0
 11 12  1  0
 12 13  1  0
 13 14  1  0
 14 15  1  0
 15 16  1  0
 16 17  1  0
 17 18  2  0
 18 19  1  0
 19 20  2  0
 20 21  1  0
 21 22  2  0
 14 23  1  0
 23 24  1  0
  7 25  1  0
 25 26  2  0
  2 27  1  0
 27 28  1  0
 28 29  1  0
 29 30  2  0
 30 31  1  0
 31 32  1  0
 32 33  1  0
 33 34  2  0
 33 35  2  0
 33 36  1  0
 36 37  2  0
 37 38  1  0
 38 39  2  0
 39 40  1  0
 40 41  2  0
 41 42  1  0
 42 43  1  0
 42 44  1  0
 42 45  1  0
 30 46  1  0
 46 47  1  0
 47 48  1  0
 26  4  1  0
 31 27  2  0
 41 36  1  0
 24 11  1  0
 48 29  1  0
 22 17  1  0
  5 49  1  0
  6 50  1  0
 12 51  1  0
 12 52  1  0
 13 53  1  0
 13 54  1  0
 15 55  1  0
 15 56  1  0
 16 57  1  0
 16 58  1  0
 18 59  1  0
 19 60  1  0
 21 61  1  0
 22 62  1  0
 23 63  1  0
 23 64  1  0
 24 65  1  0
 24 66  1  0
 25 67  1  0
 26 68  1  0
 37 69  1  0
 38 70  1  0
 39 71  1  0
 40 72  1  0
 46 73  1  0
 46 74  1  0
 47 75  1  0
 47 76  1  0
 48 77  1  0
 48 78  1  0
M  CHG  2   3  -1  32  -1
M  END
>  <UniqueID>  (46) 
38

>  <SMILES>  (46) 
O=C([N-]c1ccc(S(=O)(=O)N2CCN(CCc3ccncc3)CC2)cc1)c1sc2c(c1[N-]S(=O)(=O)c1ccccc1C(F)(F)F)CCC2

>  <Energy>  (46) 
153.52403095280215

>  <Genealogy>  (46) 
O=C([N-]c1ccc(S(=O)(=O)N2CCN(CCc3ccncc3)CC2)cc1)c1sc2c(c1[N-]S(=O)(=O)c1ccccc1C(F)(F)F)CCC2 (protonated)
O=C([N-]c1ccc(S(=O)(=O)N2CCN(CCc3ccncc3)CC2)cc1)c1sc2c(c1[N-]S(=O)(=O)c1ccccc1C(F)(F)F)CCC2 (3D coordinates assigned)
O=C([N-]c1ccc(S(=O)(=O)N2CCN(CCc3ccncc3)CC2)cc1)c1sc2c(c1[N-]S(=O)(=O)c1ccccc1C(F)(F)F)CCC2 (nonaromatic ring conformer: 153.52403095280215 kcal/mol)

>  <smiles>  (46) 
O=C(Nc1ccc(S(=O)(=O)N2CCN(CCc3ccncc3)CC2)cc1)c1sc2c(c1NS(=O)(=O)c1ccccc1C(F)(F)F)CCC2

>  <score_type>  (46) 
oracle

>  <origin>  (46) 
adg

>  <m_score__min__energy>  (46) 
-12.65

>  <m_primary>  (46) 
energy

$$$$
46:0
     RDKit          3D

 44 46  0  0  0  0  0  0  0  0999 V2000
   55.1600   29.3250   44.5540 O   0  0  0  0  0  0  0  0  0  0  0  0
   56.3470   29.5860   44.8800 C   0  0  0  0  0  0  0  0  0  0  0  0
   57.0290   28.6970   45.7730 N   0  0  0  0  0  0  0  0  0  0  0  0
   58.4360   28.8060   46.1420 C   0  0  0  0  0  0  0  0  0  0  0  0
   59.2180   27.6500   45.5150 C   0  0  0  0  0  0  0  0  0  0  0  0
   58.3120   26.4670   45.1480 C   0  0  0  0  0  0  0  0  0  0  0  0
   57.9670   25.3870   46.5850 S   0  0  0  0  0  0  0  0  0  0  0  0
   56.2050   25.2770   46.2810 C   0  0  0  0  0  0  0  0  0  0  0  0
   55.4520   24.1320   46.2230 C   0  0  0  0  0  0  0  0  0  0  0  0
   54.1880   24.5040   45.9590 N   0  0  0  0  0  0  0  0  0  0  0  0
   54.1870   25.8270   45.8610 N   0  0  0  0  0  0  0  0  0  0  0  0
   55.3990   26.3270   46.0490 N   0  0  0  0  0  0  0  0  0  0  0  0
   57.0030   30.7770   44.3020 C   0  0  0  0  0  0  0  0  0  0  0  0
   57.0550   30.9390   42.9100 C   0  0  0  0  0  0  0  0  0  0  0  0
   57.6620   32.0670   42.3530 C   0  0  0  0  0  0  0  0  0  0  0  0
   58.2100   33.0490   43.1830 C   0  0  0  0  0  0  0  0  0  0  0  0
   58.1410   32.9110   44.5750 C   0  0  0  0  0  0  0  0  0  0  0  0
   58.8030   34.1730   45.6110 S   0  0  0  0  0  0  0  0  0  0  0  0
   59.2240   35.3670   44.8010 O   0  0  0  0  0  0  0  0  0  0  0  0
   57.7480   34.5960   46.5930 O   0  0  0  0  0  0  0  0  0  0  0  0
   60.1750   33.5630   46.4770 N   0  0  0  0  0  0  0  0  0  0  0  0
   60.1890   32.3660   47.2670 C   0  0  0  0  0  0  0  0  0  0  0  0
   61.1910   31.3870   47.1280 C   0  0  0  0  0  0  0  0  0  0  0  0
   61.1600   30.2320   47.9150 C   0  0  0  0  0  0  0  0  0  0  0  0
   60.1360   30.0450   48.8480 C   0  0  0  0  0  0  0  0  0  0  0  0
   60.1020   28.5950   49.8350 Cl  0  0  0  0  0  0  0  0  0  0  0  0
   59.1410   31.0160   48.9950 C   0  0  0  0  0  0  0  0  0  0  0  0
   59.1690   32.1710   48.2080 C   0  0  0  0  0  0  0  0  0  0  0  0
   57.5340   31.7780   45.1320 C   0  0  0  0  0  0  0  0  0  0  0  0
   58.8382   29.7621   45.7759 H   0  0  0  0  0  0  0  0  0  0  0  0
   58.5326   28.7632   47.2369 H   0  0  0  0  0  0  0  0  0  0  0  0
   59.7143   28.0121   44.6026 H   0  0  0  0  0  0  0  0  0  0  0  0
   59.9498   27.2968   46.2564 H   0  0  0  0  0  0  0  0  0  0  0  0
   57.3590   26.8574   44.7616 H   0  0  0  0  0  0  0  0  0  0  0  0
   58.8346   25.8641   44.3908 H   0  0  0  0  0  0  0  0  0  0  0  0
   55.8144   23.1033   46.3657 H   0  0  0  0  0  0  0  0  0  0  0  0
   56.6155   30.1738   42.2533 H   0  0  0  0  0  0  0  0  0  0  0  0
   57.7088   32.1826   41.2601 H   0  0  0  0  0  0  0  0  0  0  0  0
   58.6963   33.9317   42.7422 H   0  0  0  0  0  0  0  0  0  0  0  0
   62.0009   31.5313   46.3978 H   0  0  0  0  0  0  0  0  0  0  0  0
   61.9434   29.4684   47.7998 H   0  0  0  0  0  0  0  0  0  0  0  0
   58.3357   30.8711   49.7302 H   0  0  0  0  0  0  0  0  0  0  0  0
   58.3844   32.9326   48.3283 H   0  0  0  0  0  0  0  0  0  0  0  0
   57.4729   31.6717   46.2251 H   0  0  0  0  0  0  0  0  0  0  0  0
  1  2  2  0
  2  3  1  0
  3  4  1  0
  4  5  1  0
  5  6  1  0
  6  7  1  0
  7  8  1  0
  8  9  2  0
  9 10  1  0
 10 11  1  0
 11 12  2  0
  2 13  1  0
 13 14  2  0
 14 15  1  0
 15 16  2  0
 16 17  1  0
 17 18  1  0
 18 19  2  0
 18 20  2  0
 18 21  1  0
 21 22  1  0
 22 23  2  0
 23 24  1  0
 24 25  2  0
 25 26  1  0
 25 27  1  0
 27 28  2  0
 17 29  2  0
 12  8  1  0
 29 13  1  0
 28 22  1  0
  4 30  1  0
  4 31  1  0
  5 32  1  0
  5 33  1  0
  6 34  1  0
  6 35  1  0
  9 36  1  0
 14 37  1  0
 15 38  1  0
 16 39  1  0
 23 40  1  0
 24 41  1  0
 27 42  1  0
 28 43  1  0
 29 44  1  0
M  CHG  3   3  -1  10  -1  21  -1
M  END
>  <UniqueID>  (47) 
39

>  <SMILES>  (47) 
O=C([N-]CCCSc1c[n-]nn1)c1cccc(S(=O)(=O)[N-]c2ccc(Cl)cc2)c1

>  <Energy>  (47) 
80.09282588214437

>  <Genealogy>  (47) 
O=C([N-]CCCSc1c[n-]nn1)c1cccc(S(=O)(=O)[N-]c2ccc(Cl)cc2)c1 (protonated)
O=C([N-]CCCSc1c[n-]nn1)c1cccc(S(=O)(=O)[N-]c2ccc(Cl)cc2)c1 (3D coordinates assigned)
O=C([N-]CCCSc1c[n-]nn1)c1cccc(S(=O)(=O)[N-]c2ccc(Cl)cc2)c1 (optimized conformer: 80.09282588214437 kcal/mol)

>  <smiles>  (47) 
O=C(NCCCSc1c[nH]nn1)c1cccc(S(=O)(=O)Nc2ccc(Cl)cc2)c1

>  <score_type>  (47) 
oracle

>  <origin>  (47) 
adg

>  <m_score__min__energy>  (47) 
-14.67

>  <m_primary>  (47) 
energy

$$$$
47:0
     RDKit          3D

 40 43  0  0  0  0  0  0  0  0999 V2000
   61.9553   32.3150   51.1995 H   0  0  0  0  0  0  0  0  0  0  0  0
   62.1900   32.5990   50.1630 C   0  0  0  0  0  0  0  0  0  0  0  0
   63.4760   33.0180   49.8310 C   0  0  0  0  0  0  0  0  0  0  0  0
   64.2588   33.0527   50.6030 H   0  0  0  0  0  0  0  0  0  0  0  0
   63.7730   33.3940   48.5200 C   0  0  0  0  0  0  0  0  0  0  0  0
   64.7916   33.7217   48.2650 H   0  0  0  0  0  0  0  0  0  0  0  0
   62.7830   33.3580   47.5220 C   0  0  0  0  0  0  0  0  0  0  0  0
   63.1450   33.8280   46.1370 C   0  0  0  0  0  0  0  0  0  0  0  0
   63.8148   34.6976   46.2083 H   0  0  0  0  0  0  0  0  0  0  0  0
   63.6538   33.0167   45.5958 H   0  0  0  0  0  0  0  0  0  0  0  0
   62.2307   34.1128   45.5958 H   0  0  0  0  0  0  0  0  0  0  0  0
   61.4820   32.8920   47.8510 C   0  0  0  0  0  0  0  0  0  0  0  0
   60.3930   32.7710   46.8540 C   0  0  0  0  0  0  0  0  0  0  0  0
   59.7410   33.8410   46.3440 N   0  0  0  0  0  0  0  0  0  0  0  0
   58.7250   33.4860   45.5100 C   0  0  0  0  0  0  0  0  0  0  0  0
   57.8630   34.5270   44.8660 C   0  0  0  0  0  0  0  0  0  0  0  0
   57.3674   35.1255   45.6445 H   0  0  0  0  0  0  0  0  0  0  0  0
   58.4859   35.1830   44.2402 H   0  0  0  0  0  0  0  0  0  0  0  0
   57.1024   34.0373   44.2402 H   0  0  0  0  0  0  0  0  0  0  0  0
   58.5640   32.1050   45.3440 C   0  0  0  0  0  0  0  0  0  0  0  0
   57.5550   31.3990   44.5300 C   0  0  0  0  0  0  0  0  0  0  0  0
   57.4880   31.6480   43.2970 O   0  0  0  0  0  0  0  0  0  0  0  0
   56.6600   30.4270   45.0880 N   0  0  0  0  0  0  0  0  0  0  0  0
   56.9760   29.2070   45.4080 C   0  0  0  0  0  0  0  0  0  0  0  0
   58.1760   28.8550   45.9470 N   0  0  0  0  0  0  0  0  0  0  0  0
   58.0380   27.5280   46.1200 C   0  0  0  0  0  0  0  0  0  0  0  0
   58.9730   26.6350   46.6380 C   0  0  0  0  0  0  0  0  0  0  0  0
   59.9657   26.9765   46.9666 H   0  0  0  0  0  0  0  0  0  0  0  0
   58.6020   25.2790   46.7260 C   0  0  0  0  0  0  0  0  0  0  0  0
   59.3126   24.5429   47.1300 H   0  0  0  0  0  0  0  0  0  0  0  0
   57.3210   24.8580   46.2980 C   0  0  0  0  0  0  0  0  0  0  0  0
   57.0423   23.7964   46.3716 H   0  0  0  0  0  0  0  0  0  0  0  0
   56.4010   25.7870   45.7790 C   0  0  0  0  0  0  0  0  0  0  0  0
   55.4019   25.4736   45.4419 H   0  0  0  0  0  0  0  0  0  0  0  0
   56.8030   27.1190   45.7080 C   0  0  0  0  0  0  0  0  0  0  0  0
   56.1140   28.1740   45.2570 N   0  0  0  0  0  0  0  0  0  0  0  0
   55.1410   28.1930   44.8750 H   0  0  0  0  0  0  0  0  0  0  0  0
   59.6990   31.3330   46.3160 S   0  0  0  0  0  0  0  0  0  0  0  0
   61.1990   32.5390   49.1830 C   0  0  0  0  0  0  0  0  0  0  0  0
   60.1846   32.2119   49.4549 H   0  0  0  0  0  0  0  0  0  0  0  0
  1  2  1  0
  2  3  2  0
  3  4  1  0
  3  5  1  0
  5  6  1  0
  5  7  2  0
  7  8  1  0
  8  9  1  0
  8 10  1  0
  8 11  1  0
  7 12  1  0
 12 13  1  0
 13 14  2  0
 14 15  1  0
 15 16  1  0
 16 17  1  0
 16 18  1  0
 16 19  1  0
 15 20  2  0
 20 21  1  0
 21 22  2  0
 21 23  1  0
 23 24  2  0
 24 25  1  0
 25 26  1  0
 26 27  2  0
 27 28  1  0
 27 29  1  0
 29 30  1  0
 29 31  2  0
 31 32  1  0
 31 33  1  0
 33 34  1  0
 33 35  2  0
 35 36  1  0
 36 37  1  0
 20 38  1  0
 12 39  2  0
 39 40  1  0
 39  2  1  0
 38 13  1  0
 36 24  1  0
 35 26  1  0
M  CHG  1  25  -1
M  END
>  <UniqueID>  (48) 
40

>  <SMILES>  (48) 
Cc1ccccc1-c1nc(C)c(C(=O)/N=c2\[n-]c3ccccc3[nH]2)s1

>  <Energy>  (48) 
122.69641645114297

>  <Genealogy>  (48) 
Cc1ccccc1-c1nc(C)c(C(=O)N=c2[n-]c3ccccc3[nH]2)s1 (protonated)
Cc1ccccc1-c1nc(C)c(C(=O)/N=c2\[n-]c3ccccc3[nH]2)s1 (cis-trans isomerization)
Cc1ccccc1-c1nc(C)c(C(=O)/N=c2\[n-]c3ccccc3[nH]2)s1 (3D coordinates assigned)
Cc1ccccc1-c1nc(C)c(C(=O)/N=c2\[n-]c3ccccc3[nH]2)s1 (optimized conformer: 122.69641645114297 kcal/mol)

>  <smiles>  (48) 
Cc1ccccc1-c1nc(C)c(C(=O)N=c2[nH]c3ccccc3[nH]2)s1

>  <score_type>  (48) 
oracle

>  <origin>  (48) 
adg

>  <m_score__min__energy>  (48) 
-10.77

>  <m_primary>  (48) 
energy

$$$$
48:0
     RDKit          3D

 40 42  0  0  0  0  0  0  0  0999 V2000
   60.8740   32.9500   47.6590 C   0  0  0  0  0  0  0  0  0  0  0  0
   59.8630   33.1470   46.5600 C   0  0  0  0  0  0  0  0  0  0  0  0
   60.0390   34.2180   45.6690 C   0  0  0  0  0  0  0  0  0  0  0  0
   59.1160   34.4550   44.6550 C   0  0  0  0  0  0  0  0  0  0  0  0
   58.0050   33.6280   44.5100 C   0  0  0  0  0  0  0  0  0  0  0  0
   57.8010   32.5440   45.3810 C   0  0  0  0  0  0  0  0  0  0  0  0
   56.6520   31.6900   45.2460 N   0  0  0  0  0  0  0  0  0  0  0  0
   56.6270   30.1600   44.4300 S   0  0  0  0  0  0  0  0  0  0  0  0
   55.3570   29.4360   44.7740 O   0  0  0  0  0  0  0  0  0  0  0  0
   56.6690   30.3890   42.9450 O   0  0  0  0  0  0  0  0  0  0  0  0
   58.0380   29.2200   44.8980 C   0  0  0  0  0  0  0  0  0  0  0  0
   59.3300   29.7130   44.6770 C   0  0  0  0  0  0  0  0  0  0  0  0
   60.4400   28.9510   45.0390 C   0  0  0  0  0  0  0  0  0  0  0  0
   60.2700   27.6920   45.6240 C   0  0  0  0  0  0  0  0  0  0  0  0
   58.9780   27.1810   45.8540 C   0  0  0  0  0  0  0  0  0  0  0  0
   58.7990   25.8360   46.4540 C   0  0  0  0  0  0  0  0  0  0  0  0
   59.7300   24.9880   46.3620 O   0  0  0  0  0  0  0  0  0  0  0  0
   57.5700   25.5060   47.1260 N   0  0  0  0  0  0  0  0  0  0  0  0
   56.4130   25.2610   46.5840 C   0  0  0  0  0  0  0  0  0  0  0  0
   55.5060   26.2340   46.3590 N   0  0  0  0  0  0  0  0  0  0  0  0
   54.3870   25.7870   45.7930 N   0  0  0  0  0  0  0  0  0  0  0  0
   54.3880   24.4550   45.5590 C   0  0  0  0  0  0  0  0  0  0  0  0
   55.8320   23.7600   46.0720 S   0  0  0  0  0  0  0  0  0  0  0  0
   57.8640   27.9590   45.4890 C   0  0  0  0  0  0  0  0  0  0  0  0
   58.7390   32.2890   46.4090 C   0  0  0  0  0  0  0  0  0  0  0  0
   58.4720   31.1550   47.3760 C   0  0  0  0  0  0  0  0  0  0  0  0
   60.3774   33.0468   48.6357 H   0  0  0  0  0  0  0  0  0  0  0  0
   61.3197   31.9481   47.5719 H   0  0  0  0  0  0  0  0  0  0  0  0
   61.6633   33.7112   47.5719 H   0  0  0  0  0  0  0  0  0  0  0  0
   60.9145   34.8756   45.7736 H   0  0  0  0  0  0  0  0  0  0  0  0
   59.2645   35.2989   43.9653 H   0  0  0  0  0  0  0  0  0  0  0  0
   57.2803   33.8250   43.7062 H   0  0  0  0  0  0  0  0  0  0  0  0
   59.4692   30.7026   44.2173 H   0  0  0  0  0  0  0  0  0  0  0  0
   61.4533   29.3415   44.8639 H   0  0  0  0  0  0  0  0  0  0  0  0
   61.1512   27.0971   45.9063 H   0  0  0  0  0  0  0  0  0  0  0  0
   53.5578   23.9013   45.0963 H   0  0  0  0  0  0  0  0  0  0  0  0
   56.8486   27.5759   45.6683 H   0  0  0  0  0  0  0  0  0  0  0  0
   58.5591   31.5251   48.4082 H   0  0  0  0  0  0  0  0  0  0  0  0
   57.4572   30.7638   47.2112 H   0  0  0  0  0  0  0  0  0  0  0  0
   59.2057   30.3522   47.2112 H   0  0  0  0  0  0  0  0  0  0  0  0
  1  2  1  0
  2  3  2  0
  3  4  1  0
  4  5  2  0
  5  6  1  0
  6  7  1  0
  7  8  1  0
  8  9  2  0
  8 10  2  0
  8 11  1  0
 11 12  2  0
 12 13  1  0
 13 14  2  0
 14 15  1  0
 15 16  1  0
 16 17  2  0
 16 18  1  0
 18 19  2  3
 19 20  1  0
 20 21  1  0
 21 22  2  0
 22 23  1  0
 15 24  2  0
  6 25  2  0
 25 26  1  0
 25  2  1  0
 24 11  1  0
 23 19  1  0
  1 27  1  0
  1 28  1  0
  1 29  1  0
  3 30  1  0
  4 31  1  0
  5 32  1  0
 12 33  1  0
 13 34  1  0
 14 35  1  0
 22 36  1  0
 24 37  1  0
 26 38  1  0
 26 39  1  0
 26 40  1  0
M  CHG  2   7  -1  20  -1
M  END
>  <UniqueID>  (49) 
41

>  <SMILES>  (49) 
Cc1cccc([N-]S(=O)(=O)c2cccc(C(=O)N=c3[n-]ncs3)c2)c1C

>  <Energy>  (49) 
86.06485606094785

>  <Genealogy>  (49) 
Cc1cccc([N-]S(=O)(=O)c2cccc(C(=O)N=c3[n-]ncs3)c2)c1C (protonated)
Cc1cccc([N-]S(=O)(=O)c2cccc(C(=O)N=c3[n-]ncs3)c2)c1C (3D coordinates assigned)
Cc1cccc([N-]S(=O)(=O)c2cccc(C(=O)N=c3[n-]ncs3)c2)c1C (optimized conformer: 86.06485606094785 kcal/mol)

>  <smiles>  (49) 
Cc1cccc(NS(=O)(=O)c2cccc(C(=O)N=c3[nH]ncs3)c2)c1C

>  <score_type>  (49) 
oracle

>  <origin>  (49) 
adg

>  <m_score__min__energy>  (49) 
-12.869999999999999

>  <m_primary>  (49) 
energy

$$$$
49:0
     RDKit          3D

 40 42  0  0  1  0  0  0  0  0999 V2000
   58.2910   29.0590   43.9800 N   0  0  0  0  0  0  0  0  0  0  0  0
   57.1060   28.8060   45.2190 S   0  0  0  0  0  0  0  0  0  0  0  0
   55.7570   29.1240   44.6630 O   0  0  0  0  0  0  0  0  0  0  0  0
   57.3960   29.7810   46.3200 O   0  0  0  0  0  0  0  0  0  0  0  0
   57.2380   27.1440   45.7330 C   0  0  0  0  0  0  0  0  0  0  0  0
   56.1230   26.3350   45.9410 C   0  0  0  0  0  0  0  0  0  0  0  0
   56.2360   25.0210   46.3490 C   0  0  0  0  0  0  0  0  0  0  0  0
   57.4900   24.4860   46.5580 C   0  0  0  0  0  0  0  0  0  0  0  0
   58.6210   25.2520   46.3650 C   0  0  0  0  0  0  0  0  0  0  0  0
   58.4970   26.5750   45.9540 C   0  0  0  0  0  0  0  0  0  0  0  0
   59.6230   27.4170   45.7370 N   0  0  0  0  0  0  0  0  0  0  0  0
   59.9940   28.2370   46.6590 C   0  0  0  0  0  0  0  0  0  0  0  0
   60.3520   27.8480   47.8940 N   0  0  0  0  0  0  0  0  0  0  0  0
   60.7220   28.7700   48.7880 C   0  0  0  0  0  0  0  0  0  0  0  0
   60.7490   30.1070   48.4900 C   0  0  0  0  0  0  0  0  0  0  0  0
   61.2790   31.3780   49.7820 Br  0  0  0  0  0  0  0  0  0  0  0  0
   60.3860   30.5000   47.2370 C   0  0  0  0  0  0  0  0  0  0  0  0
   60.3780   31.7020   46.8700 N   0  0  0  0  0  0  0  0  0  0  0  0
   59.4070   32.3470   46.0700 C   0  0  0  0  0  0  0  0  0  0  0  0
   58.7400   31.6250   45.0670 C   0  0  0  0  0  0  0  0  0  0  0  0
   57.7440   32.2400   44.3000 C   0  0  0  0  0  0  0  0  0  0  0  0
   57.0800   31.5380   43.3090 O   0  0  0  0  0  0  0  0  0  0  0  0
   57.4270   33.5720   44.5450 C   0  0  0  0  0  0  0  0  0  0  0  0
   58.0750   34.3080   45.5340 C   0  0  0  0  0  0  0  0  0  0  0  0
   59.0710   33.6910   46.3000 C   0  0  0  0  0  0  0  0  0  0  0  0
   59.9090   34.5910   47.5570 Cl  0  0  0  0  0  0  0  0  0  0  0  0
   60.0120   29.5540   46.3390 N   0  0  0  0  0  0  0  0  0  0  0  0
   58.7840   28.1490   43.8270 H   0  0  0  0  0  0  0  0  0  0  0  0
   57.8090   29.4250   43.1500 H   0  0  0  0  0  0  0  0  0  0  0  0
   55.1207   26.7567   45.7748 H   0  0  0  0  0  0  0  0  0  0  0  0
   55.3363   24.4077   46.5056 H   0  0  0  0  0  0  0  0  0  0  0  0
   57.5891   23.4393   46.8814 H   0  0  0  0  0  0  0  0  0  0  0  0
   59.6173   24.8180   46.5355 H   0  0  0  0  0  0  0  0  0  0  0  0
   60.3310   26.8460   48.1160 H   0  0  0  0  0  0  0  0  0  0  0  0
   61.0147   28.4444   49.7971 H   0  0  0  0  0  0  0  0  0  0  0  0
   59.0013   30.5724   44.8836 H   0  0  0  0  0  0  0  0  0  0  0  0
   56.8140   30.5620   43.3960 H   0  0  0  0  0  0  0  0  0  0  0  0
   56.6446   34.0564   43.9423 H   0  0  0  0  0  0  0  0  0  0  0  0
   57.8076   35.3603   45.7108 H   0  0  0  0  0  0  0  0  0  0  0  0
   59.7330   29.8510   45.3790 H   0  0  0  0  0  0  0  0  0  0  0  0
  1  2  1  0
  2  3  2  0
  2  4  2  0
  2  5  1  0
  5  6  2  0
  6  7  1  0
  7  8  2  0
  8  9  1  0
  9 10  2  0
 10 11  1  0
 11 12  2  0
 12 13  1  0
 13 14  1  0
 14 15  2  0
 15 16  1  0
 15 17  1  0
 17 18  2  0
 18 19  1  0
 19 20  2  0
 20 21  1  0
 21 22  1  0
 21 23  2  0
 23 24  1  0
 24 25  2  0
 25 26  1  0
 17 27  1  0
 10  5  1  0
 27 12  1  0
 25 19  1  0
  1 28  1  0
  1 29  1  0
  6 30  1  0
  7 31  1  0
  8 32  1  0
  9 33  1  0
 13 34  1  0
 14 35  1  0
 20 36  1  0
 22 37  1  0
 23 38  1  0
 24 39  1  0
 27 40  1  0
M  END
>  <smiles>  (50) 
NS(=O)(=O)c1ccccc1N=c1[nH]cc(Br)c(=Nc2cc(O)ccc2Cl)[nH]1

>  <score_type>  (50) 
oracle

>  <origin>  (50) 
adg

>  <m_score__min__energy>  (50) 
-9.3499999999999996

>  <m_primary>  (50) 
energy

$$$$
50:0
     RDKit          3D

 45 47  0  0  0  0  0  0  0  0999 V2000
   60.3730   33.9070   46.2010 C   0  0  0  0  0  0  0  0  0  0  0  0
   59.4430   32.7870   46.3860 N   0  0  0  0  0  0  0  0  0  0  0  0
   58.0110   32.9680   46.0790 C   0  0  0  0  0  0  0  0  0  0  0  0
   57.6370   32.2450   44.8140 C   0  0  0  0  0  0  0  0  0  0  0  0
   58.1420   32.6600   43.5710 C   0  0  0  0  0  0  0  0  0  0  0  0
   57.7440   31.9900   42.4130 C   0  0  0  0  0  0  0  0  0  0  0  0
   56.8650   30.9090   42.5040 C   0  0  0  0  0  0  0  0  0  0  0  0
   56.3940   30.5140   43.7580 C   0  0  0  0  0  0  0  0  0  0  0  0
   56.7850   31.1850   44.8750 N   0  0  0  0  0  0  0  0  0  0  0  0
   59.9790   31.5080   46.8000 C   0  0  0  0  0  0  0  0  0  0  0  0
   60.9900   31.4680   47.5550 O   0  0  0  0  0  0  0  0  0  0  0  0
   59.4080   30.2320   46.3270 C   0  0  0  0  0  0  0  0  0  0  0  0
   58.4560   29.5450   47.0930 C   0  0  0  0  0  0  0  0  0  0  0  0
   57.8550   28.3870   46.5940 C   0  0  0  0  0  0  0  0  0  0  0  0
   58.2110   27.8920   45.3280 C   0  0  0  0  0  0  0  0  0  0  0  0
   57.5730   26.7430   44.7560 N   0  0  0  0  0  0  0  0  0  0  0  0
   56.9120   25.4310   45.6780 S   0  0  0  0  0  0  0  0  0  0  0  0
   55.4710   25.7190   45.9950 O   0  0  0  0  0  0  0  0  0  0  0  0
   57.6760   25.2950   46.9660 O   0  0  0  0  0  0  0  0  0  0  0  0
   57.0740   23.9370   44.7600 C   0  0  0  0  0  0  0  0  0  0  0  0
   58.0000   22.9540   45.1420 C   0  0  0  0  0  0  0  0  0  0  0  0
   58.0820   21.7540   44.4290 C   0  0  0  0  0  0  0  0  0  0  0  0
   57.2450   21.5300   43.3320 C   0  0  0  0  0  0  0  0  0  0  0  0
   56.3270   22.5100   42.9430 C   0  0  0  0  0  0  0  0  0  0  0  0
   56.2390   23.7100   43.6560 C   0  0  0  0  0  0  0  0  0  0  0  0
   59.2100   28.5420   44.5940 C   0  0  0  0  0  0  0  0  0  0  0  0
   59.8080   29.7040   45.0910 C   0  0  0  0  0  0  0  0  0  0  0  0
   60.6889   34.2874   47.1836 H   0  0  0  0  0  0  0  0  0  0  0  0
   61.2546   33.5628   45.6404 H   0  0  0  0  0  0  0  0  0  0  0  0
   59.8726   34.7103   45.6404 H   0  0  0  0  0  0  0  0  0  0  0  0
   57.4114   32.5709   46.9113 H   0  0  0  0  0  0  0  0  0  0  0  0
   57.8143   34.0415   45.9412 H   0  0  0  0  0  0  0  0  0  0  0  0
   58.8442   33.5046   43.5106 H   0  0  0  0  0  0  0  0  0  0  0  0
   58.1217   32.3127   41.4316 H   0  0  0  0  0  0  0  0  0  0  0  0
   56.5467   30.3739   41.5972 H   0  0  0  0  0  0  0  0  0  0  0  0
   55.7063   29.6596   43.8426 H   0  0  0  0  0  0  0  0  0  0  0  0
   58.1813   29.9190   48.0903 H   0  0  0  0  0  0  0  0  0  0  0  0
   57.0993   27.8600   47.1950 H   0  0  0  0  0  0  0  0  0  0  0  0
   58.6619   23.1278   46.0032 H   0  0  0  0  0  0  0  0  0  0  0  0
   58.8070   20.9842   44.7321 H   0  0  0  0  0  0  0  0  0  0  0  0
   57.3086   20.5834   42.7753 H   0  0  0  0  0  0  0  0  0  0  0  0
   55.6733   22.3371   42.0754 H   0  0  0  0  0  0  0  0  0  0  0  0
   55.5131   24.4778   43.3502 H   0  0  0  0  0  0  0  0  0  0  0  0
   59.5261   28.1367   43.6215 H   0  0  0  0  0  0  0  0  0  0  0  0
   60.5956   30.2062   44.5100 H   0  0  0  0  0  0  0  0  0  0  0  0
  1  2  1  0
  2  3  1  0
  3  4  1  0
  4  5  2  0
  5  6  1  0
  6  7  2  0
  7  8  1  0
  8  9  2  0
  2 10  1  0
 10 11  2  0
 10 12  1  0
 12 13  2  0
 13 14  1  0
 14 15  2  0
 15 16  1  0
 16 17  1  0
 17 18  2  0
 17 19  2  0
 17 20  1  0
 20 21  2  0
 21 22  1  0
 22 23  2  0
 23 24  1  0
 24 25  2  0
 15 26  1  0
 26 27  2  0
  9  4  1  0
 27 12  1  0
 25 20  1  0
  1 28  1  0
  1 29  1  0
  1 30  1  0
  3 31  1  0
  3 32  1  0
  5 33  1  0
  6 34  1  0
  7 35  1  0
  8 36  1  0
 13 37  1  0
 14 38  1  0
 21 39  1  0
 22 40  1  0
 23 41  1  0
 24 42  1  0
 25 43  1  0
 26 44  1  0
 27 45  1  0
M  CHG  1  16  -1
M  END
>  <UniqueID>  (51) 
42

>  <SMILES>  (51) 
CN(Cc1ccccn1)C(=O)c1ccc([N-]S(=O)(=O)c2ccccc2)cc1

>  <Energy>  (51) 
51.59127340357271

>  <Genealogy>  (51) 
CN(Cc1ccccn1)C(=O)c1ccc([N-]S(=O)(=O)c2ccccc2)cc1 (protonated)
CN(Cc1ccccn1)C(=O)c1ccc([N-]S(=O)(=O)c2ccccc2)cc1 (3D coordinates assigned)
CN(Cc1ccccn1)C(=O)c1ccc([N-]S(=O)(=O)c2ccccc2)cc1 (optimized conformer: 51.59127340357271 kcal/mol)

>  <smiles>  (51) 
CN(Cc1ccccn1)C(=O)c1ccc(NS(=O)(=O)c2ccccc2)cc1

>  <score_type>  (51) 
oracle

>  <origin>  (51) 
adg

>  <m_score__min__energy>  (51) 
-10.4

>  <m_primary>  (51) 
energy

$$$$
51:0
     RDKit          3D

 46 49  0  0  0  0  0  0  0  0999 V2000
   59.2050   28.7490   48.9280 O   0  0  0  0  0  0  0  0  0  0  0  0
   59.1780   29.1070   47.7180 C   0  0  0  0  0  0  0  0  0  0  0  0
   58.9150   30.5500   47.3980 C   0  0  0  0  0  0  0  0  0  0  0  0
   59.8670   31.4550   48.0450 N   0  0  0  0  0  0  0  0  0  0  0  0
   59.5780   32.6980   48.7010 C   0  0  0  0  0  0  0  0  0  0  0  0
   59.8830   33.7710   48.1170 O   0  0  0  0  0  0  0  0  0  0  0  0
   59.0160   32.7640   50.0640 C   0  0  0  0  0  0  0  0  0  0  0  0
   59.3310   33.8210   50.9290 C   0  0  0  0  0  0  0  0  0  0  0  0
   58.7340   33.8940   52.1900 C   0  0  0  0  0  0  0  0  0  0  0  0
   57.8280   32.9120   52.5980 C   0  0  0  0  0  0  0  0  0  0  0  0
   57.5260   31.8280   51.7550 C   0  0  0  0  0  0  0  0  0  0  0  0
   56.5450   30.8010   52.1670 C   0  0  0  0  0  0  0  0  0  0  0  0
   56.8310   29.5800   52.0490 O   0  0  0  0  0  0  0  0  0  0  0  0
   55.2810   31.1990   52.7170 N   0  0  0  0  0  0  0  0  0  0  0  0
   53.9750   30.8970   52.2060 C   0  0  0  0  0  0  0  0  0  0  0  0
   53.4550   29.5870   52.1940 C   0  0  0  0  0  0  0  0  0  0  0  0
   52.1980   29.3340   51.6360 C   0  0  0  0  0  0  0  0  0  0  0  0
   51.4560   30.3760   51.0730 C   0  0  0  0  0  0  0  0  0  0  0  0
   51.9740   31.6740   51.0600 C   0  0  0  0  0  0  0  0  0  0  0  0
   51.2460   32.7070   50.4820 O   0  0  0  0  0  0  0  0  0  0  0  0
   53.2300   31.9300   51.6220 C   0  0  0  0  0  0  0  0  0  0  0  0
   58.1410   31.7540   50.4940 C   0  0  0  0  0  0  0  0  0  0  0  0
   59.3070   28.1360   46.6710 N   0  0  0  0  0  0  0  0  0  0  0  0
   58.3590   27.1030   46.3610 C   0  0  0  0  0  0  0  0  0  0  0  0
   58.8270   25.7760   46.2060 C   0  0  0  0  0  0  0  0  0  0  0  0
   57.9330   24.7240   45.9400 C   0  0  0  0  0  0  0  0  0  0  0  0
   56.5790   25.0300   45.8490 C   0  0  0  0  0  0  0  0  0  0  0  0
   55.5590   24.1890   45.6160 N   0  0  0  0  0  0  0  0  0  0  0  0
   54.4880   25.0230   45.6600 C   0  0  0  0  0  0  0  0  0  0  0  0
   53.3090   24.6140   45.4930 O   0  0  0  0  0  0  0  0  0  0  0  0
   54.7780   26.3250   45.9070 N   0  0  0  0  0  0  0  0  0  0  0  0
   56.1150   26.2980   46.0180 C   0  0  0  0  0  0  0  0  0  0  0  0
   56.9680   27.3660   46.2810 C   0  0  0  0  0  0  0  0  0  0  0  0
   58.9838   30.6871   46.3087 H   0  0  0  0  0  0  0  0  0  0  0  0
   57.9121   30.7968   47.7766 H   0  0  0  0  0  0  0  0  0  0  0  0
   60.0485   34.5933   50.6149 H   0  0  0  0  0  0  0  0  0  0  0  0
   58.9783   34.7280   52.8643 H   0  0  0  0  0  0  0  0  0  0  0  0
   57.3479   32.9873   53.5848 H   0  0  0  0  0  0  0  0  0  0  0  0
   54.0398   28.7610   52.6249 H   0  0  0  0  0  0  0  0  0  0  0  0
   51.7919   28.3117   51.6402 H   0  0  0  0  0  0  0  0  0  0  0  0
   50.4649   30.1746   50.6404 H   0  0  0  0  0  0  0  0  0  0  0  0
   53.6362   32.9521   51.6050 H   0  0  0  0  0  0  0  0  0  0  0  0
   57.9348   30.8961   49.8371 H   0  0  0  0  0  0  0  0  0  0  0  0
   59.9030   25.5654   46.2947 H   0  0  0  0  0  0  0  0  0  0  0  0
   58.2924   23.6928   45.8082 H   0  0  0  0  0  0  0  0  0  0  0  0
   56.5748   28.3835   46.4225 H   0  0  0  0  0  0  0  0  0  0  0  0
  1  2  2  0
  2  3  1  0
  3  4  1  0
  4  5  1  0
  5  6  2  0
  5  7  1  0
  7  8  2  0
  8  9  1  0
  9 10  2  0
 10 11  1  0
 11 12  1  0
 12 13  2  0
 12 14  1  0
 14 15  1  0
 15 16  2  0
 16 17  1  0
 17 18  2  0
 18 19  1  0
 19 20  1  0
 19 21  2  0
 11 22  2  0
  2 23  1  0
 23 24  1  0
 24 25  2  0
 25 26  1  0
 26 27  2  0
 27 28  1  0
 28 29  1  0
 29 30  2  0
 29 31  1  0
 31 32  1  0
 32 33  2  0
 22  7  1  0
 33 24  1  0
 21 15  1  0
 32 27  1  0
  3 34  1  0
  3 35  1  0
  8 36  1  0
  9 37  1  0
 10 38  1  0
 16 39  1  0
 17 40  1  0
 18 41  1  0
 21 42  1  0
 22 43  1  0
 25 44  1  0
 26 45  1  0
 33 46  1  0
M  CHG  6   4  -1  14  -1  20  -1  23  -1  28  -1  31  -1
M  END
>  <UniqueID>  (52) 
43

>  <SMILES>  (52) 
O=C(C[N-]C(=O)c1cccc(C(=O)[N-]c2cccc([O-])c2)c1)[N-]c1ccc2[n-]c(=O)[n-]c2c1

>  <Energy>  (52) 
91.39802076806906

>  <Genealogy>  (52) 
O=C(C[N-]C(=O)c1cccc(C(=O)[N-]c2cccc([O-])c2)c1)[N-]c1ccc2[n-]c(=O)[n-]c2c1 (protonated)
O=C(C[N-]C(=O)c1cccc(C(=O)[N-]c2cccc([O-])c2)c1)[N-]c1ccc2[n-]c(=O)[n-]c2c1 (3D coordinates assigned)
O=C(C[N-]C(=O)c1cccc(C(=O)[N-]c2cccc([O-])c2)c1)[N-]c1ccc2[n-]c(=O)[n-]c2c1 (optimized conformer: 91.39802076806906 kcal/mol)

>  <smiles>  (52) 
O=C(CNC(=O)c1cccc(C(=O)Nc2cccc(O)c2)c1)Nc1ccc2[nH]c(=O)[nH]c2c1

>  <score_type>  (52) 
oracle

>  <origin>  (52) 
adg

>  <m_score__min__energy>  (52) 
-19.73

>  <m_primary>  (52) 
energy

$$$$
52:0
     RDKit          3D

 59 62  0  0  0  0  0  0  0  0999 V2000
   60.6950   26.4920   47.6320 O   0  0  0  0  0  0  0  0  0  0  0  0
   59.8870   27.4620   47.6250 C   0  0  0  0  0  0  0  0  0  0  0  0
   58.8730   27.5780   46.5270 C   0  0  0  0  0  0  0  0  0  0  0  0
   57.8260   28.6680   46.8200 C   0  0  0  0  0  0  0  0  0  0  0  0
   57.4520   29.4490   45.5680 C   0  0  0  0  0  0  0  0  0  0  0  0
   56.2900   29.0820   44.8510 C   0  0  0  0  0  0  0  0  0  0  0  0
   55.5270   27.9860   45.2480 O   0  0  0  0  0  0  0  0  0  0  0  0
   55.8890   29.8110   43.7270 C   0  0  0  0  0  0  0  0  0  0  0  0
   56.6330   30.9120   43.3040 C   0  0  0  0  0  0  0  0  0  0  0  0
   57.7910   31.2810   43.9900 C   0  0  0  0  0  0  0  0  0  0  0  0
   58.2220   30.5520   45.1150 C   0  0  0  0  0  0  0  0  0  0  0  0
   59.4420   30.9920   45.8340 C   0  0  0  0  0  0  0  0  0  0  0  0
   59.6520   32.2330   46.3170 C   0  0  0  0  0  0  0  0  0  0  0  0
   59.4950   32.6460   47.7300 C   0  0  0  0  0  0  0  0  0  0  0  0
   59.9740   33.8840   48.1990 C   0  0  0  0  0  0  0  0  0  0  0  0
   59.8500   34.2210   49.5490 C   0  0  0  0  0  0  0  0  0  0  0  0
   59.2750   33.3170   50.4440 C   0  0  0  0  0  0  0  0  0  0  0  0
   59.1580   33.6510   51.7850 O   0  0  0  0  0  0  0  0  0  0  0  0
   58.8230   32.0740   49.9920 C   0  0  0  0  0  0  0  0  0  0  0  0
   58.9380   31.7370   48.6420 C   0  0  0  0  0  0  0  0  0  0  0  0
   59.8970   28.4420   48.6740 N   0  0  0  0  0  0  0  0  0  0  0  0
   60.7720   28.4750   49.8120 C   0  0  0  0  0  0  0  0  0  0  0  0
   61.0900   27.3170   50.5450 C   0  0  0  0  0  0  0  0  0  0  0  0
   61.9140   27.4060   51.6710 C   0  0  0  0  0  0  0  0  0  0  0  0
   62.4380   28.6420   52.0640 C   0  0  0  0  0  0  0  0  0  0  0  0
   62.1830   29.7890   51.3060 C   0  0  0  0  0  0  0  0  0  0  0  0
   62.7260   31.0410   51.7410 N   0  0  0  0  0  0  0  0  0  0  0  0
   64.0450   31.8510   50.9590 S   0  0  0  0  0  0  0  0  0  0  0  0
   65.2200   30.9070   50.8810 O   0  0  0  0  0  0  0  0  0  0  0  0
   64.4460   33.0400   51.7920 O   0  0  0  0  0  0  0  0  0  0  0  0
   63.6050   32.4220   49.3520 C   0  0  0  0  0  0  0  0  0  0  0  0
   63.1440   31.5100   48.3880 C   0  0  0  0  0  0  0  0  0  0  0  0
   62.7990   31.9560   47.1070 C   0  0  0  0  0  0  0  0  0  0  0  0
   62.9150   33.3130   46.7820 C   0  0  0  0  0  0  0  0  0  0  0  0
   63.3810   34.2250   47.7380 C   0  0  0  0  0  0  0  0  0  0  0  0
   63.7280   33.7820   49.0190 C   0  0  0  0  0  0  0  0  0  0  0  0
   61.3470   29.6990   50.1800 C   0  0  0  0  0  0  0  0  0  0  0  0
   59.3919   27.8271   45.5896 H   0  0  0  0  0  0  0  0  0  0  0  0
   58.3472   26.6151   46.4477 H   0  0  0  0  0  0  0  0  0  0  0  0
   56.9211   28.1917   47.2253 H   0  0  0  0  0  0  0  0  0  0  0  0
   58.2619   29.3729   47.5433 H   0  0  0  0  0  0  0  0  0  0  0  0
   54.9845   29.5152   43.1752 H   0  0  0  0  0  0  0  0  0  0  0  0
   56.3064   31.4910   42.4276 H   0  0  0  0  0  0  0  0  0  0  0  0
   58.3728   32.1499   43.6485 H   0  0  0  0  0  0  0  0  0  0  0  0
   60.2378   30.2477   45.9850 H   0  0  0  0  0  0  0  0  0  0  0  0
   59.9671   33.0051   45.5996 H   0  0  0  0  0  0  0  0  0  0  0  0
   60.4477   34.5887   47.4997 H   0  0  0  0  0  0  0  0  0  0  0  0
   60.2054   35.1986   49.9068 H   0  0  0  0  0  0  0  0  0  0  0  0
   58.3764   31.3608   50.7004 H   0  0  0  0  0  0  0  0  0  0  0  0
   58.5902   30.7540   48.2917 H   0  0  0  0  0  0  0  0  0  0  0  0
   60.6902   26.3412   50.2321 H   0  0  0  0  0  0  0  0  0  0  0  0
   62.1510   26.5011   52.2498 H   0  0  0  0  0  0  0  0  0  0  0  0
   63.0532   28.7119   52.9732 H   0  0  0  0  0  0  0  0  0  0  0  0
   63.0540   30.4432   48.6405 H   0  0  0  0  0  0  0  0  0  0  0  0
   62.4364   31.2398   46.3549 H   0  0  0  0  0  0  0  0  0  0  0  0
   62.6402   33.6630   45.7760 H   0  0  0  0  0  0  0  0  0  0  0  0
   63.4742   35.2905   47.4812 H   0  0  0  0  0  0  0  0  0  0  0  0
   64.0976   34.4992   49.7667 H   0  0  0  0  0  0  0  0  0  0  0  0
   61.1418   30.5986   49.5812 H   0  0  0  0  0  0  0  0  0  0  0  0
  1  2  2  0
  2  3  1  0
  3  4  1  0
  4  5  1  0
  5  6  2  0
  6  7  1  0
  6  8  1  0
  8  9  2  0
  9 10  1  0
 10 11  2  0
 11 12  1  0
 12 13  2  3
 13 14  1  0
 14 15  2  0
 15 16  1  0
 16 17  2  0
 17 18  1  0
 17 19  1  0
 19 20  2  0
  2 21  1  0
 21 22  1  0
 22 23  2  0
 23 24  1  0
 24 25  2  0
 25 26  1  0
 26 27  1  0
 27 28  1  0
 28 29  2  0
 28 30  2  0
 28 31  1  0
 31 32  2  0
 32 33  1  0
 33 34  2  0
 34 35  1  0
 35 36  2  0
 26 37  2  0
 11  5  1  0
 20 14  1  0
 37 22  1  0
 36 31  1  0
  3 38  1  0
  3 39  1  0
  4 40  1  0
  4 41  1  0
  8 42  1  0
  9 43  1  0
 10 44  1  0
 12 45  1  0
 13 46  1  0
 15 47  1  0
 16 48  1  0
 19 49  1  0
 20 50  1  0
 23 51  1  0
 24 52  1  0
 25 53  1  0
 32 54  1  0
 33 55  1  0
 34 56  1  0
 35 57  1  0
 36 58  1  0
 37 59  1  0
M  CHG  4   7  -1  18  -1  21  -1  27  -1
M  END
>  <UniqueID>  (53) 
44

>  <SMILES>  (53) 
O=C(CCc1c([O-])cccc1C=Cc1ccc([O-])cc1)[N-]c1cccc([N-]S(=O)(=O)c2ccccc2)c1

>  <Energy>  (53) 
82.33347828458443

>  <Genealogy>  (53) 
O=C(CCc1c([O-])cccc1C=Cc1ccc([O-])cc1)[N-]c1cccc([N-]S(=O)(=O)c2ccccc2)c1 (protonated)
O=C(CCc1c([O-])cccc1C=Cc1ccc([O-])cc1)[N-]c1cccc([N-]S(=O)(=O)c2ccccc2)c1 (3D coordinates assigned)
O=C(CCc1c([O-])cccc1C=Cc1ccc([O-])cc1)[N-]c1cccc([N-]S(=O)(=O)c2ccccc2)c1 (optimized conformer: 82.33347828458443 kcal/mol)

>  <smiles>  (53) 
O=C(CCc1c(O)cccc1C=Cc1ccc(O)cc1)Nc1cccc(NS(=O)(=O)c2ccccc2)c1

>  <score_type>  (53) 
oracle

>  <origin>  (53) 
adg

>  <m_score__min__energy>  (53) 
-17.399999999999999

>  <m_primary>  (53) 
energy

$$$$
53:0
     RDKit          3D

 56 59  0  0  0  0  0  0  0  0999 V2000
   54.9470   26.3080   46.0440 N   0  0  0  0  0  0  0  0  0  0  0  0
   56.6440   25.9890   46.1570 S   0  0  0  0  0  0  0  0  0  0  0  0
   56.9460   25.3530   47.4870 O   0  0  0  0  0  0  0  0  0  0  0  0
   57.0540   25.0420   45.0640 O   0  0  0  0  0  0  0  0  0  0  0  0
   57.5260   27.5020   45.9900 C   0  0  0  0  0  0  0  0  0  0  0  0
   58.8840   27.5630   46.3340 C   0  0  0  0  0  0  0  0  0  0  0  0
   59.6010   28.7520   46.1630 C   0  0  0  0  0  0  0  0  0  0  0  0
   58.9660   29.8850   45.6480 C   0  0  0  0  0  0  0  0  0  0  0  0
   57.6070   29.8410   45.3120 C   0  0  0  0  0  0  0  0  0  0  0  0
   56.9780   31.0280   44.8060 N   0  0  0  0  0  0  0  0  0  0  0  0
   57.6580   32.1530   44.2330 C   0  0  0  0  0  0  0  0  0  0  0  0
   57.6780   32.2600   42.9750 O   0  0  0  0  0  0  0  0  0  0  0  0
   58.3840   33.1520   45.0710 C   0  0  0  0  0  0  0  0  0  0  0  0
   58.6720   34.4340   44.5550 C   0  0  0  0  0  0  0  0  0  0  0  0
   59.3990   35.3560   45.3110 C   0  0  0  0  0  0  0  0  0  0  0  0
   59.8400   35.0210   46.5930 C   0  0  0  0  0  0  0  0  0  0  0  0
   59.5560   33.7620   47.1310 C   0  0  0  0  0  0  0  0  0  0  0  0
   60.0590   33.3560   48.7800 S   0  0  0  0  0  0  0  0  0  0  0  0
   59.4100   34.3130   49.7400 O   0  0  0  0  0  0  0  0  0  0  0  0
   59.5780   31.9680   49.1050 O   0  0  0  0  0  0  0  0  0  0  0  0
   61.7940   33.4660   49.0010 N   0  0  0  0  0  0  0  0  0  0  0  0
   62.1720   33.9890   50.3390 C   0  0  0  0  0  0  0  0  0  0  0  0
   63.2250   33.1390   51.0750 C   0  0  0  0  0  0  0  0  0  0  0  0
   64.3010   32.7250   50.1640 N   0  0  0  0  0  0  0  0  0  0  0  0
   65.6410   32.5090   50.6590 C   0  0  0  0  0  0  0  0  0  0  0  0
   66.6150   33.5170   50.5390 C   0  0  0  0  0  0  0  0  0  0  0  0
   67.9230   33.2990   50.9890 C   0  0  0  0  0  0  0  0  0  0  0  0
   68.2750   32.0760   51.5610 C   0  0  0  0  0  0  0  0  0  0  0  0
   67.3200   31.0710   51.6870 C   0  0  0  0  0  0  0  0  0  0  0  0
   66.0100   31.2810   51.2400 C   0  0  0  0  0  0  0  0  0  0  0  0
   63.9610   32.3310   48.7870 C   0  0  0  0  0  0  0  0  0  0  0  0
   62.4470   32.1980   48.6280 C   0  0  0  0  0  0  0  0  0  0  0  0
   58.8450   32.8310   46.3620 C   0  0  0  0  0  0  0  0  0  0  0  0
   56.8900   28.6410   45.4730 C   0  0  0  0  0  0  0  0  0  0  0  0
   54.7790   26.7210   45.1020 H   0  0  0  0  0  0  0  0  0  0  0  0
   59.3872   26.6729   46.7397 H   0  0  0  0  0  0  0  0  0  0  0  0
   60.6661   28.7950   46.4344 H   0  0  0  0  0  0  0  0  0  0  0  0
   59.5356   30.8152   45.5059 H   0  0  0  0  0  0  0  0  0  0  0  0
   58.3210   34.7089   43.5494 H   0  0  0  0  0  0  0  0  0  0  0  0
   59.6250   36.3491   44.8954 H   0  0  0  0  0  0  0  0  0  0  0  0
   60.4137   35.7513   47.1826 H   0  0  0  0  0  0  0  0  0  0  0  0
   62.5762   35.0040   50.2110 H   0  0  0  0  0  0  0  0  0  0  0  0
   61.2613   33.9674   50.9556 H   0  0  0  0  0  0  0  0  0  0  0  0
   63.6565   33.7322   51.8947 H   0  0  0  0  0  0  0  0  0  0  0  0
   62.7334   32.2369   51.4680 H   0  0  0  0  0  0  0  0  0  0  0  0
   66.3470   34.4839   50.0882 H   0  0  0  0  0  0  0  0  0  0  0  0
   68.6759   34.0950   50.8912 H   0  0  0  0  0  0  0  0  0  0  0  0
   69.3039   31.9065   51.9113 H   0  0  0  0  0  0  0  0  0  0  0  0
   67.5960   30.1073   52.1399 H   0  0  0  0  0  0  0  0  0  0  0  0
   65.2631   30.4801   51.3436 H   0  0  0  0  0  0  0  0  0  0  0  0
   64.3327   33.0958   48.0892 H   0  0  0  0  0  0  0  0  0  0  0  0
   64.4288   31.3597   48.5685 H   0  0  0  0  0  0  0  0  0  0  0  0
   62.2091   31.9585   47.5811 H   0  0  0  0  0  0  0  0  0  0  0  0
   62.0815   31.3939   49.2836 H   0  0  0  0  0  0  0  0  0  0  0  0
   58.6434   31.8314   46.7744 H   0  0  0  0  0  0  0  0  0  0  0  0
   55.8273   28.5956   45.1926 H   0  0  0  0  0  0  0  0  0  0  0  0
  1  2  1  0
  2  3  2  0
  2  4  2  0
  2  5  1  0
  5  6  2  0
  6  7  1  0
  7  8  2  0
  8  9  1  0
  9 10  1  0
 10 11  1  0
 11 12  2  0
 11 13  1  0
 13 14  2  0
 14 15  1  0
 15 16  2  0
 16 17  1  0
 17 18  1  0
 18 19  2  0
 18 20  2  0
 18 21  1  0
 21 22  1  0
 22 23  1  0
 23 24  1  0
 24 25  1  0
 25 26  2  0
 26 27  1  0
 27 28  2  0
 28 29  1  0
 29 30  2  0
 24 31  1  0
 31 32  1  0
 17 33  2  0
  9 34  2  0
 34  5  1  0
 33 13  1  0
 32 21  1  0
 30 25  1  0
  1 35  1  0
  6 36  1  0
  7 37  1  0
  8 38  1  0
 14 39  1  0
 15 40  1  0
 16 41  1  0
 22 42  1  0
 22 43  1  0
 23 44  1  0
 23 45  1  0
 26 46  1  0
 27 47  1  0
 28 48  1  0
 29 49  1  0
 30 50  1  0
 31 51  1  0
 31 52  1  0
 32 53  1  0
 32 54  1  0
 33 55  1  0
 34 56  1  0
M  CHG  2   1  -1  10  -1
M  END
>  <UniqueID>  (54) 
45

>  <SMILES>  (54) 
[NH-]S(=O)(=O)c1cccc([N-]C(=O)c2cccc(S(=O)(=O)N3CCN(c4ccccc4)CC3)c2)c1

>  <Energy>  (54) 
74.64128718943518

>  <Genealogy>  (54) 
[NH-]S(=O)(=O)c1cccc([N-]C(=O)c2cccc(S(=O)(=O)N3CCN(c4ccccc4)CC3)c2)c1 (protonated)
[NH-]S(=O)(=O)c1cccc([N-]C(=O)c2cccc(S(=O)(=O)N3CCN(c4ccccc4)CC3)c2)c1 (3D coordinates assigned)
[NH-]S(=O)(=O)c1cccc([N-]C(=O)c2cccc(S(=O)(=O)N3CCN(c4ccccc4)CC3)c2)c1 (nonaromatic ring conformer: 74.64128718943518 kcal/mol)

>  <smiles>  (54) 
NS(=O)(=O)c1cccc(NC(=O)c2cccc(S(=O)(=O)N3CCN(c4ccccc4)CC3)c2)c1

>  <score_type>  (54) 
oracle

>  <origin>  (54) 
adg

>  <m_score__min__energy>  (54) 
-14.539999999999999

>  <m_primary>  (54) 
energy

$$$$
54:0
     RDKit          3D

 46 48  0  0  0  0  0  0  0  0999 V2000
   57.7810   32.4740   44.5720 C   0  0  0  0  0  0  0  0  0  0  0  0
   57.4550   33.3900   45.7480 C   0  0  0  0  0  0  0  0  0  0  0  0
   58.5700   33.4310   46.7080 N   0  0  0  0  0  0  0  0  0  0  0  0
   59.4620   34.5990   46.7260 C   0  0  0  0  0  0  0  0  0  0  0  0
   60.8220   34.2170   47.2560 C   0  0  0  0  0  0  0  0  0  0  0  0
   61.8310   33.8270   46.3580 C   0  0  0  0  0  0  0  0  0  0  0  0
   63.0870   33.4350   46.8300 C   0  0  0  0  0  0  0  0  0  0  0  0
   63.3470   33.4230   48.2010 C   0  0  0  0  0  0  0  0  0  0  0  0
   62.3530   33.8050   49.1050 C   0  0  0  0  0  0  0  0  0  0  0  0
   61.0880   34.2010   48.6410 C   0  0  0  0  0  0  0  0  0  0  0  0
   60.1020   34.5740   49.5540 O   0  0  0  0  0  0  0  0  0  0  0  0
   58.7940   32.3320   47.6180 C   0  0  0  0  0  0  0  0  0  0  0  0
   58.3570   32.3250   48.8980 N   0  0  0  0  0  0  0  0  0  0  0  0
   58.7020   31.1850   49.5530 C   0  0  0  0  0  0  0  0  0  0  0  0
   59.4360   30.2720   48.7960 C   0  0  0  0  0  0  0  0  0  0  0  0
   59.9020   28.9320   49.2030 C   0  0  0  0  0  0  0  0  0  0  0  0
   59.8610   28.6270   50.4230 O   0  0  0  0  0  0  0  0  0  0  0  0
   60.3530   27.9430   48.2670 N   0  0  0  0  0  0  0  0  0  0  0  0
   59.5130   26.9730   47.5750 C   0  0  0  0  0  0  0  0  0  0  0  0
   58.8690   27.6340   46.3910 C   0  0  0  0  0  0  0  0  0  0  0  0
   59.6410   28.0010   45.2770 C   0  0  0  0  0  0  0  0  0  0  0  0
   59.0340   28.5850   44.1610 C   0  0  0  0  0  0  0  0  0  0  0  0
   57.6510   28.7960   44.1460 C   0  0  0  0  0  0  0  0  0  0  0  0
   56.8750   28.4180   45.2440 C   0  0  0  0  0  0  0  0  0  0  0  0
   55.5330   28.6140   45.2250 F   0  0  0  0  0  0  0  0  0  0  0  0
   57.4790   27.8350   46.3630 C   0  0  0  0  0  0  0  0  0  0  0  0
   59.6260   30.9130   47.2510 S   0  0  0  0  0  0  0  0  0  0  0  0
   58.1273   31.5009   44.9502 H   0  0  0  0  0  0  0  0  0  0  0  0
   56.8792   32.3293   43.9590 H   0  0  0  0  0  0  0  0  0  0  0  0
   58.5715   32.9315   43.9590 H   0  0  0  0  0  0  0  0  0  0  0  0
   57.2668   34.4062   45.3713 H   0  0  0  0  0  0  0  0  0  0  0  0
   56.5642   32.9988   46.2612 H   0  0  0  0  0  0  0  0  0  0  0  0
   59.5686   34.9889   45.7030 H   0  0  0  0  0  0  0  0  0  0  0  0
   59.0278   35.3682   47.3816 H   0  0  0  0  0  0  0  0  0  0  0  0
   61.6307   33.8304   45.2764 H   0  0  0  0  0  0  0  0  0  0  0  0
   63.8717   33.1355   46.1196 H   0  0  0  0  0  0  0  0  0  0  0  0
   64.3356   33.1124   48.5701 H   0  0  0  0  0  0  0  0  0  0  0  0
   62.5619   33.7956   50.1849 H   0  0  0  0  0  0  0  0  0  0  0  0
   59.2840   33.9990   49.7190 H   0  0  0  0  0  0  0  0  0  0  0  0
   58.4235   30.9968   50.6004 H   0  0  0  0  0  0  0  0  0  0  0  0
   60.1301   26.1285   47.2344 H   0  0  0  0  0  0  0  0  0  0  0  0
   58.7358   26.6021   48.2594 H   0  0  0  0  0  0  0  0  0  0  0  0
   60.7274   27.8284   45.2823 H   0  0  0  0  0  0  0  0  0  0  0  0
   59.6442   28.8788   43.2942 H   0  0  0  0  0  0  0  0  0  0  0  0
   57.1748   29.2596   43.2694 H   0  0  0  0  0  0  0  0  0  0  0  0
   56.8638   27.5331   47.2234 H   0  0  0  0  0  0  0  0  0  0  0  0
  1  2  1  0
  2  3  1  0
  3  4  1  0
  4  5  1  0
  5  6  2  0
  6  7  1  0
  7  8  2  0
  8  9  1  0
  9 10  2  0
 10 11  1  0
  3 12  1  0
 12 13  2  0
 13 14  1  0
 14 15  2  0
 15 16  1  0
 16 17  2  0
 16 18  1  0
 18 19  1  0
 19 20  1  0
 20 21  2  0
 21 22  1  0
 22 23  2  0
 23 24  1  0
 24 25  1  0
 24 26  2  0
 15 27  1  0
 10  5  1  0
 27 12  1  0
 26 20  1  0
  1 28  1  0
  1 29  1  0
  1 30  1  0
  2 31  1  0
  2 32  1  0
  4 33  1  0
  4 34  1  0
  6 35  1  0
  7 36  1  0
  8 37  1  0
  9 38  1  0
 11 39  1  0
 14 40  1  0
 19 41  1  0
 19 42  1  0
 21 43  1  0
 22 44  1  0
 23 45  1  0
 26 46  1  0
M  CHG  1  18  -1
M  END
>  <UniqueID>  (55) 
46

>  <SMILES>  (55) 
CCN(Cc1ccccc1O)c1ncc(C(=O)[N-]Cc2cccc(F)c2)s1

>  <Energy>  (55) 
75.69501601194102

>  <Genealogy>  (55) 
CCN(Cc1ccccc1O)c1ncc(C(=O)[N-]Cc2cccc(F)c2)s1 (protonated)
CCN(Cc1ccccc1O)c1ncc(C(=O)[N-]Cc2cccc(F)c2)s1 (3D coordinates assigned)
CCN(Cc1ccccc1O)c1ncc(C(=O)[N-]Cc2cccc(F)c2)s1 (optimized conformer: 75.69501601194102 kcal/mol)

>  <smiles>  (55) 
CCN(Cc1ccccc1O)c1ncc(C(=O)NCc2cccc(F)c2)s1

>  <score_type>  (55) 
oracle

>  <origin>  (55) 
adg

>  <m_score__min__energy>  (55) 
-10.050000000000001

>  <m_primary>  (55) 
energy

$$$$
55:0
     RDKit          3D

 38 40  0  0  0  0  0  0  0  0999 V2000
   55.4280   29.0660   44.8320 O   0  0  0  0  0  0  0  0  0  0  0  0
   56.6410   29.0590   45.1710 C   0  0  0  0  0  0  0  0  0  0  0  0
   57.4930   30.1150   44.7030 N   0  0  0  0  0  0  0  0  0  0  0  0
   58.0140   31.1900   45.4960 C   0  0  0  0  0  0  0  0  0  0  0  0
   58.6360   30.9570   46.7350 C   0  0  0  0  0  0  0  0  0  0  0  0
   59.1620   32.0220   47.4690 C   0  0  0  0  0  0  0  0  0  0  0  0
   59.0530   33.3360   46.9890 C   0  0  0  0  0  0  0  0  0  0  0  0
   59.6930   34.4730   47.7380 C   0  0  0  0  0  0  0  0  0  0  0  0
   61.1380   34.1590   48.0130 C   0  0  0  0  0  0  0  0  0  0  0  0
   62.0050   33.8300   46.9610 C   0  0  0  0  0  0  0  0  0  0  0  0
   63.3550   33.5890   47.2320 C   0  0  0  0  0  0  0  0  0  0  0  0
   63.8230   33.6820   48.5040 N   0  0  0  0  0  0  0  0  0  0  0  0
   63.0070   34.0090   49.5410 C   0  0  0  0  0  0  0  0  0  0  0  0
   61.6510   34.2580   49.3150 C   0  0  0  0  0  0  0  0  0  0  0  0
   58.4050   33.5700   45.7660 C   0  0  0  0  0  0  0  0  0  0  0  0
   57.8770   32.5030   45.0330 C   0  0  0  0  0  0  0  0  0  0  0  0
   57.1740   27.9160   45.9470 C   0  0  0  0  0  0  0  0  0  0  0  0
   58.4680   28.0080   46.4920 C   0  0  0  0  0  0  0  0  0  0  0  0
   59.0120   26.9460   47.2190 C   0  0  0  0  0  0  0  0  0  0  0  0
   60.7590   27.1040   47.9730 Br  0  0  0  0  0  0  0  0  0  0  0  0
   58.2770   25.7720   47.3940 C   0  0  0  0  0  0  0  0  0  0  0  0
   56.9940   25.6640   46.8550 C   0  0  0  0  0  0  0  0  0  0  0  0
   56.4260   26.7290   46.1460 C   0  0  0  0  0  0  0  0  0  0  0  0
   55.1160   26.5870   45.6850 O   0  0  0  0  0  0  0  0  0  0  0  0
   58.7086   29.9320   47.1276 H   0  0  0  0  0  0  0  0  0  0  0  0
   59.6644   31.8299   48.4285 H   0  0  0  0  0  0  0  0  0  0  0  0
   59.6281   35.3898   47.1336 H   0  0  0  0  0  0  0  0  0  0  0  0
   59.1668   34.6178   48.6931 H   0  0  0  0  0  0  0  0  0  0  0  0
   61.6257   33.7621   45.9307 H   0  0  0  0  0  0  0  0  0  0  0  0
   64.0401   33.3234   46.4134 H   0  0  0  0  0  0  0  0  0  0  0  0
   63.4152   34.0777   50.5601 H   0  0  0  0  0  0  0  0  0  0  0  0
   60.9905   34.5296   50.1517 H   0  0  0  0  0  0  0  0  0  0  0  0
   58.3123   34.5969   45.3828 H   0  0  0  0  0  0  0  0  0  0  0  0
   57.3508   32.6970   44.0867 H   0  0  0  0  0  0  0  0  0  0  0  0
   59.0572   28.9251   46.3443 H   0  0  0  0  0  0  0  0  0  0  0  0
   58.7092   24.9316   47.9570 H   0  0  0  0  0  0  0  0  0  0  0  0
   56.4237   24.7329   46.9887 H   0  0  0  0  0  0  0  0  0  0  0  0
   54.7500   27.0930   44.8890 H   0  0  0  0  0  0  0  0  0  0  0  0
  1  2  2  0
  2  3  1  0
  3  4  1  0
  4  5  2  0
  5  6  1  0
  6  7  2  0
  7  8  1  0
  8  9  1  0
  9 10  2  0
 10 11  1  0
 11 12  2  0
 12 13  1  0
 13 14  2  0
  7 15  1  0
 15 16  2  0
  2 17  1  0
 17 18  2  0
 18 19  1  0
 19 20  1  0
 19 21  2  0
 21 22  1  0
 22 23  2  0
 23 24  1  0
 16  4  1  0
 23 17  1  0
 14  9  1  0
  5 25  1  0
  6 26  1  0
  8 27  1  0
  8 28  1  0
 10 29  1  0
 11 30  1  0
 13 31  1  0
 14 32  1  0
 15 33  1  0
 16 34  1  0
 18 35  1  0
 21 36  1  0
 22 37  1  0
 24 38  1  0
M  CHG  1   3  -1
M  END
>  <UniqueID>  (56) 
47

>  <SMILES>  (56) 
O=C([N-]c1ccc(Cc2ccncc2)cc1)c1cc(Br)ccc1O

>  <Energy>  (56) 
48.917640010172015

>  <Genealogy>  (56) 
O=C([N-]c1ccc(Cc2ccncc2)cc1)c1cc(Br)ccc1O (protonated)
O=C([N-]c1ccc(Cc2ccncc2)cc1)c1cc(Br)ccc1O (3D coordinates assigned)
O=C([N-]c1ccc(Cc2ccncc2)cc1)c1cc(Br)ccc1O (optimized conformer: 48.917640010172015 kcal/mol)

>  <smiles>  (56) 
O=C(Nc1ccc(Cc2ccncc2)cc1)c1cc(Br)ccc1O

>  <score_type>  (56) 
oracle

>  <origin>  (56) 
adg

>  <m_score__min__energy>  (56) 
-11.050000000000001

>  <m_primary>  (56) 
energy

$$$$
56:0
     RDKit          3D

 32 34  0  0  0  0  0  0  0  0999 V2000
   62.2430   31.0280   47.8110 O   0  0  0  0  0  0  0  0  0  0  0  0
   60.7590   30.9450   47.5900 S   0  0  0  0  0  0  0  0  0  0  0  0
   60.1040   30.5550   48.8850 O   0  0  0  0  0  0  0  0  0  0  0  0
   60.4390   29.7230   46.4020 N   0  0  0  0  0  0  0  0  0  0  0  0
   59.1810   29.0570   46.2050 C   0  0  0  0  0  0  0  0  0  0  0  0
   58.8470   27.9050   46.9390 C   0  0  0  0  0  0  0  0  0  0  0  0
   57.6280   27.2610   46.7360 C   0  0  0  0  0  0  0  0  0  0  0  0
   56.7130   27.7520   45.8040 C   0  0  0  0  0  0  0  0  0  0  0  0
   55.5040   27.0830   45.6270 O   0  0  0  0  0  0  0  0  0  0  0  0
   57.0180   28.9040   45.0580 C   0  0  0  0  0  0  0  0  0  0  0  0
   56.1070   29.4130   44.1140 C   0  0  0  0  0  0  0  0  0  0  0  0
   56.4190   30.5560   43.3760 C   0  0  0  0  0  0  0  0  0  0  0  0
   57.6380   31.2060   43.5690 C   0  0  0  0  0  0  0  0  0  0  0  0
   58.5550   30.7170   44.5030 C   0  0  0  0  0  0  0  0  0  0  0  0
   58.2600   29.5650   45.2610 C   0  0  0  0  0  0  0  0  0  0  0  0
   60.0830   32.4970   47.0570 C   0  0  0  0  0  0  0  0  0  0  0  0
   58.6870   32.6750   46.9720 C   0  0  0  0  0  0  0  0  0  0  0  0
   57.8310   31.6690   47.2780 F   0  0  0  0  0  0  0  0  0  0  0  0
   58.1560   33.9040   46.5700 C   0  0  0  0  0  0  0  0  0  0  0  0
   59.0020   34.9620   46.2440 C   0  0  0  0  0  0  0  0  0  0  0  0
   60.3860   34.7960   46.3140 C   0  0  0  0  0  0  0  0  0  0  0  0
   60.9340   33.5730   46.7170 C   0  0  0  0  0  0  0  0  0  0  0  0
   62.8480   33.4350   46.7660 Br  0  0  0  0  0  0  0  0  0  0  0  0
   59.5553   27.5081   47.6811 H   0  0  0  0  0  0  0  0  0  0  0  0
   57.3851   26.3580   47.3153 H   0  0  0  0  0  0  0  0  0  0  0  0
   55.1430   28.9070   43.9567 H   0  0  0  0  0  0  0  0  0  0  0  0
   55.7009   30.9456   42.6395 H   0  0  0  0  0  0  0  0  0  0  0  0
   57.8781   32.1062   42.9842 H   0  0  0  0  0  0  0  0  0  0  0  0
   59.5146   31.2347   44.6482 H   0  0  0  0  0  0  0  0  0  0  0  0
   57.0656   34.0364   46.5108 H   0  0  0  0  0  0  0  0  0  0  0  0
   58.5791   35.9282   45.9314 H   0  0  0  0  0  0  0  0  0  0  0  0
   61.0505   35.6321   46.0506 H   0  0  0  0  0  0  0  0  0  0  0  0
  1  2  2  0
  2  3  2  0
  2  4  1  0
  4  5  1  0
  5  6  2  0
  6  7  1  0
  7  8  2  0
  8  9  1  0
  8 10  1  0
 10 11  2  0
 11 12  1  0
 12 13  2  0
 13 14  1  0
 14 15  2  0
  2 16  1  0
 16 17  2  0
 17 18  1  0
 17 19  1  0
 19 20  2  0
 20 21  1  0
 21 22  2  0
 22 23  1  0
 15  5  1  0
 22 16  1  0
 15 10  1  0
  6 24  1  0
  7 25  1  0
 11 26  1  0
 12 27  1  0
 13 28  1  0
 14 29  1  0
 19 30  1  0
 20 31  1  0
 21 32  1  0
M  CHG  2   4  -1   9  -1
M  END
>  <UniqueID>  (57) 
48

>  <SMILES>  (57) 
O=S(=O)([N-]c1ccc([O-])c2ccccc12)c1c(F)cccc1Br

>  <Energy>  (57) 
46.1530374966027

>  <Genealogy>  (57) 
O=S(=O)([N-]c1ccc([O-])c2ccccc12)c1c(F)cccc1Br (protonated)
O=S(=O)([N-]c1ccc([O-])c2ccccc12)c1c(F)cccc1Br (3D coordinates assigned)
O=S(=O)([N-]c1ccc([O-])c2ccccc12)c1c(F)cccc1Br (optimized conformer: 46.1530374966027 kcal/mol)

>  <smiles>  (57) 
O=S(=O)(Nc1ccc(O)c2ccccc12)c1c(F)cccc1Br

>  <score_type>  (57) 
oracle

>  <origin>  (57) 
adg

>  <m_score__min__energy>  (57) 
-12.130000000000001

>  <m_primary>  (57) 
energy

$$$$
57:0
     RDKit          3D

 41 43  0  0  0  0  0  0  0  0999 V2000
   57.3760   26.0010   47.8050 O   0  0  0  0  0  0  0  0  0  0  0  0
   56.9110   25.5700   46.4420 S   0  0  0  0  0  0  0  0  0  0  0  0
   55.6690   24.7370   46.5970 O   0  0  0  0  0  0  0  0  0  0  0  0
   58.1630   24.5970   45.6210 C   0  0  0  0  0  0  0  0  0  0  0  0
   57.5290   23.6340   44.6560 C   0  0  0  0  0  0  0  0  0  0  0  0
   58.0720   22.3500   44.4750 C   0  0  0  0  0  0  0  0  0  0  0  0
   57.4990   21.4690   43.5520 C   0  0  0  0  0  0  0  0  0  0  0  0
   56.3900   21.8640   42.8010 C   0  0  0  0  0  0  0  0  0  0  0  0
   55.8520   23.1430   42.9670 C   0  0  0  0  0  0  0  0  0  0  0  0
   56.4210   24.0280   43.8880 C   0  0  0  0  0  0  0  0  0  0  0  0
   56.5270   26.9640   45.4850 N   0  0  0  0  0  0  0  0  0  0  0  0
   57.2860   28.1800   45.4300 C   0  0  0  0  0  0  0  0  0  0  0  0
   58.6790   28.1980   45.6320 C   0  0  0  0  0  0  0  0  0  0  0  0
   59.3880   29.3980   45.5480 C   0  0  0  0  0  0  0  0  0  0  0  0
   58.7170   30.5910   45.2810 C   0  0  0  0  0  0  0  0  0  0  0  0
   57.3300   30.5990   45.1060 C   0  0  0  0  0  0  0  0  0  0  0  0
   56.6750   31.8470   44.8740 N   0  0  0  0  0  0  0  0  0  0  0  0
   57.5390   33.3480   44.8100 S   0  0  0  0  0  0  0  0  0  0  0  0
   58.4690   33.3270   43.6300 O   0  0  0  0  0  0  0  0  0  0  0  0
   56.5820   34.4980   44.6660 O   0  0  0  0  0  0  0  0  0  0  0  0
   58.4540   33.5450   46.2910 C   0  0  0  0  0  0  0  0  0  0  0  0
   59.5940   34.3220   46.4350 C   0  0  0  0  0  0  0  0  0  0  0  0
   60.1200   34.2840   47.7300 C   0  0  0  0  0  0  0  0  0  0  0  0
   59.3910   33.4760   48.5930 C   0  0  0  0  0  0  0  0  0  0  0  0
   59.7870   33.1660   50.4320 Br  0  0  0  0  0  0  0  0  0  0  0  0
   58.0940   32.8060   47.7580 S   0  0  0  0  0  0  0  0  0  0  0  0
   56.6130   29.3820   45.1500 C   0  0  0  0  0  0  0  0  0  0  0  0
   55.2410   29.3400   44.8920 O   0  0  0  0  0  0  0  0  0  0  0  0
   58.8406   25.2672   45.0718 H   0  0  0  0  0  0  0  0  0  0  0  0
   58.7247   24.0277   46.3762 H   0  0  0  0  0  0  0  0  0  0  0  0
   58.9493   22.0375   45.0604 H   0  0  0  0  0  0  0  0  0  0  0  0
   57.9229   20.4629   43.4174 H   0  0  0  0  0  0  0  0  0  0  0  0
   55.9395   21.1679   42.0782 H   0  0  0  0  0  0  0  0  0  0  0  0
   54.9802   23.4538   42.3726 H   0  0  0  0  0  0  0  0  0  0  0  0
   55.9993   25.0364   44.0115 H   0  0  0  0  0  0  0  0  0  0  0  0
   59.2116   27.2622   45.8571 H   0  0  0  0  0  0  0  0  0  0  0  0
   60.4784   29.4023   45.6928 H   0  0  0  0  0  0  0  0  0  0  0  0
   59.2826   31.5316   45.2076 H   0  0  0  0  0  0  0  0  0  0  0  0
   60.0379   34.9070   45.6160 H   0  0  0  0  0  0  0  0  0  0  0  0
   61.0202   34.8380   48.0345 H   0  0  0  0  0  0  0  0  0  0  0  0
   54.7730   28.5080   44.5580 H   0  0  0  0  0  0  0  0  0  0  0  0
  1  2  2  0
  2  3  2  0
  2  4  1  0
  4  5  1  0
  5  6  2  0
  6  7  1  0
  7  8  2  0
  8  9  1  0
  9 10  2  0
  2 11  1  0
 11 12  1  0
 12 13  2  0
 13 14  1  0
 14 15  2  0
 15 16  1  0
 16 17  1  0
 17 18  1  0
 18 19  2  0
 18 20  2  0
 18 21  1  0
 21 22  2  0
 22 23  1  0
 23 24  2  0
 24 25  1  0
 24 26  1  0
 16 27  2  0
 27 28  1  0
 10  5  1  0
 27 12  1  0
 26 21  1  0
  4 29  1  0
  4 30  1  0
  6 31  1  0
  7 32  1  0
  8 33  1  0
  9 34  1  0
 10 35  1  0
 13 36  1  0
 14 37  1  0
 15 38  1  0
 22 39  1  0
 23 40  1  0
 28 41  1  0
M  CHG  2  11  -1  17  -1
M  END
>  <UniqueID>  (58) 
49

>  <SMILES>  (58) 
O=S(=O)(Cc1ccccc1)[N-]c1cccc([N-]S(=O)(=O)c2ccc(Br)s2)c1O

>  <Energy>  (58) 
78.75983042030104

>  <Genealogy>  (58) 
O=S(=O)(Cc1ccccc1)[N-]c1cccc([N-]S(=O)(=O)c2ccc(Br)s2)c1O (protonated)
O=S(=O)(Cc1ccccc1)[N-]c1cccc([N-]S(=O)(=O)c2ccc(Br)s2)c1O (3D coordinates assigned)
O=S(=O)(Cc1ccccc1)[N-]c1cccc([N-]S(=O)(=O)c2ccc(Br)s2)c1O (optimized conformer: 78.75983042030104 kcal/mol)

>  <smiles>  (58) 
O=S(=O)(Cc1ccccc1)Nc1cccc(NS(=O)(=O)c2ccc(Br)s2)c1O

>  <score_type>  (58) 
oracle

>  <origin>  (58) 
adg

>  <m_score__min__energy>  (58) 
-13.609999999999999

>  <m_primary>  (58) 
energy

$$$$
58:0
     RDKit          3D

 47 50  0  0  0  0  0  0  0  0999 V2000
   60.7210   26.9740   48.0130 C   0  0  0  0  0  0  0  0  0  0  0  0
   59.9390   28.1390   47.4900 C   0  0  0  0  0  0  0  0  0  0  0  0
   58.8950   27.9110   46.7490 N   0  0  0  0  0  0  0  0  0  0  0  0
   58.0780   28.9530   46.1830 C   0  0  0  0  0  0  0  0  0  0  0  0
   58.5570   30.2810   46.1740 C   0  0  0  0  0  0  0  0  0  0  0  0
   57.8640   31.2130   45.3790 C   0  0  0  0  0  0  0  0  0  0  0  0
   58.3130   32.3730   45.1890 O   0  0  0  0  0  0  0  0  0  0  0  0
   56.7040   30.8540   44.7790 N   0  0  0  0  0  0  0  0  0  0  0  0
   56.2050   29.5990   44.8810 C   0  0  0  0  0  0  0  0  0  0  0  0
   55.1190   29.3280   44.2990 O   0  0  0  0  0  0  0  0  0  0  0  0
   56.8860   28.6390   45.5820 N   0  0  0  0  0  0  0  0  0  0  0  0
   56.3900   27.2530   45.6210 C   0  0  0  0  0  0  0  0  0  0  0  0
   59.9170   30.5620   46.8120 C   0  0  1  0  0  0  0  0  0  0  0  0
   60.1640   31.9990   47.2670 C   0  0  0  0  0  0  0  0  0  0  0  0
   61.4570   32.5390   47.1180 C   0  0  0  0  0  0  0  0  0  0  0  0
   61.7490   33.8290   47.5680 C   0  0  0  0  0  0  0  0  0  0  0  0
   60.7570   34.5990   48.1780 C   0  0  0  0  0  0  0  0  0  0  0  0
   59.4710   34.0800   48.3360 C   0  0  0  0  0  0  0  0  0  0  0  0
   59.1690   32.7900   47.8890 C   0  0  0  0  0  0  0  0  0  0  0  0
   57.8980   32.3400   48.0310 F   0  0  0  0  0  0  0  0  0  0  0  0
   60.2590   29.5420   47.9420 C   0  0  1  0  0  0  0  0  0  0  0  0
   59.5230   29.7740   49.2490 C   0  0  0  0  0  0  0  0  0  0  0  0
   58.4840   29.1080   49.4990 O   0  0  0  0  0  0  0  0  0  0  0  0
   60.0920   30.5630   50.3030 N   0  0  0  0  0  0  0  0  0  0  0  0
   59.4320   31.6090   51.0240 C   0  0  0  0  0  0  0  0  0  0  0  0
   60.1140   32.7810   51.3820 C   0  0  0  0  0  0  0  0  0  0  0  0
   59.4460   33.8020   52.0650 C   0  0  0  0  0  0  0  0  0  0  0  0
   58.0910   33.6670   52.3750 C   0  0  0  0  0  0  0  0  0  0  0  0
   57.3980   32.5140   51.9920 C   0  0  0  0  0  0  0  0  0  0  0  0
   58.0660   31.4910   51.3090 C   0  0  0  0  0  0  0  0  0  0  0  0
   60.7106   26.9895   49.1128 H   0  0  0  0  0  0  0  0  0  0  0  0
   60.2677   26.0378   47.6552 H   0  0  0  0  0  0  0  0  0  0  0  0
   61.7591   27.0389   47.6552 H   0  0  0  0  0  0  0  0  0  0  0  0
   56.2758   26.9338   46.6674 H   0  0  0  0  0  0  0  0  0  0  0  0
   55.4162   27.1976   45.1123 H   0  0  0  0  0  0  0  0  0  0  0  0
   57.1075   26.5923   45.1123 H   0  0  0  0  0  0  0  0  0  0  0  0
   60.6194   30.4196   45.9775 H   0  0  0  0  0  0  0  0  0  0  0  0
   62.2456   31.9379   46.6418 H   0  0  0  0  0  0  0  0  0  0  0  0
   62.7620   34.2386   47.4415 H   0  0  0  0  0  0  0  0  0  0  0  0
   60.9887   35.6138   48.5338 H   0  0  0  0  0  0  0  0  0  0  0  0
   58.6905   34.6894   48.8150 H   0  0  0  0  0  0  0  0  0  0  0  0
   61.3326   29.6868   48.1328 H   0  0  0  0  0  0  0  0  0  0  0  0
   61.1772   32.8973   51.1248 H   0  0  0  0  0  0  0  0  0  0  0  0
   59.9885   34.7128   52.3585 H   0  0  0  0  0  0  0  0  0  0  0  0
   57.5689   34.4671   52.9202 H   0  0  0  0  0  0  0  0  0  0  0  0
   56.3284   32.4112   52.2275 H   0  0  0  0  0  0  0  0  0  0  0  0
   57.5162   30.5915   50.9951 H   0  0  0  0  0  0  0  0  0  0  0  0
  1  2  1  0
  2  3  2  0
  3  4  1  0
  4  5  2  0
  5  6  1  0
  6  7  2  0
  6  8  1  0
  8  9  1  0
  9 10  2  0
  9 11  1  0
 11 12  1  0
  5 13  1  0
 13 14  1  0
 14 15  2  0
 15 16  1  0
 16 17  2  0
 17 18  1  0
 18 19  2  0
 19 20  1  0
 13 21  1  0
 21 22  1  0
 22 23  2  0
 22 24  1  0
 24 25  1  0
 25 26  2  0
 26 27  1  0
 27 28  2  0
 28 29  1  0
 29 30  2  0
 21  2  1  0
 30 25  1  0
 11  4  1  0
 19 14  1  0
  1 31  1  0
  1 32  1  0
  1 33  1  0
 12 34  1  0
 12 35  1  0
 12 36  1  0
 13 37  1  6
 15 38  1  0
 16 39  1  0
 17 40  1  0
 18 41  1  0
 21 42  1  1
 26 43  1  0
 27 44  1  0
 28 45  1  0
 29 46  1  0
 30 47  1  0
M  CHG  2   8  -1  24  -1
M  END
>  <UniqueID>  (59) 
50

>  <SMILES>  (59) 
CC1=Nc2c(c(=O)[n-]c(=O)n2C)[C@@H](c2ccccc2F)[C@H]1C(=O)[N-]c1ccccc1

>  <Energy>  (59) 
69.52838788763694

>  <Genealogy>  (59) 
CC1=Nc2c(c(=O)[n-]c(=O)n2C)C(c2ccccc2F)C1C(=O)[N-]c1ccccc1 (protonated)
CC1=Nc2c(c(=O)[n-]c(=O)n2C)[C@@H](c2ccccc2F)[C@H]1C(=O)[N-]c1ccccc1 (chirality)
CC1=Nc2c(c(=O)[n-]c(=O)n2C)[C@@H](c2ccccc2F)[C@H]1C(=O)[N-]c1ccccc1 (3D coordinates assigned)
CC1=Nc2c(c(=O)[n-]c(=O)n2C)[C@@H](c2ccccc2F)[C@H]1C(=O)[N-]c1ccccc1 (nonaromatic ring conformer: 69.52838788763694 kcal/mol)

>  <smiles>  (59) 
CC1=Nc2c(c(=O)[nH]c(=O)n2C)C(c2ccccc2F)C1C(=O)Nc1ccccc1

>  <score_type>  (59) 
oracle

>  <origin>  (59) 
adg

>  <m_score__min__energy>  (59) 
-11.44

>  <m_primary>  (59) 
energy

$$$$
59:0
     RDKit          3D

 29 31  0  0  0  0  0  0  0  0999 V2000
   55.5040   30.2480   44.2710 O   0  0  0  0  0  0  0  0  0  0  0  0
   56.4570   29.5320   44.6810 C   0  0  0  0  0  0  0  0  0  0  0  0
   56.1560   28.2420   45.2380 N   0  0  0  0  0  0  0  0  0  0  0  0
   57.1150   27.2810   45.7180 C   0  0  0  0  0  0  0  0  0  0  0  0
   56.6570   26.0280   46.1610 C   0  0  0  0  0  0  0  0  0  0  0  0
   57.5540   25.0680   46.6390 C   0  0  0  0  0  0  0  0  0  0  0  0
   58.9200   25.3500   46.6810 C   0  0  0  0  0  0  0  0  0  0  0  0
   59.3900   26.5910   46.2470 C   0  0  0  0  0  0  0  0  0  0  0  0
   58.4940   27.5570   45.7670 C   0  0  0  0  0  0  0  0  0  0  0  0
   59.1090   29.1030   45.2390 S   0  0  0  0  0  0  0  0  0  0  0  0
   60.1580   28.8870   44.1840 O   0  0  0  0  0  0  0  0  0  0  0  0
   59.6970   29.8360   46.4120 O   0  0  0  0  0  0  0  0  0  0  0  0
   57.8050   30.0200   44.5780 N   0  0  0  0  0  0  0  0  0  0  0  0
   58.0980   31.3020   43.9310 C   0  0  0  0  0  0  0  0  0  0  0  0
   58.0210   32.4110   44.9330 C   0  0  0  0  0  0  0  0  0  0  0  0
   58.6760   33.6240   44.8520 C   0  0  0  0  0  0  0  0  0  0  0  0
   58.3270   34.3080   45.9960 C   0  0  0  0  0  0  0  0  0  0  0  0
   57.4870   33.4720   46.7030 C   0  0  0  0  0  0  0  0  0  0  0  0
   57.3250   32.3480   46.0440 O   0  0  0  0  0  0  0  0  0  0  0  0
   55.1450   27.9770   45.2730 H   0  0  0  0  0  0  0  0  0  0  0  0
   55.5812   25.8003   46.1313 H   0  0  0  0  0  0  0  0  0  0  0  0
   57.1831   24.0908   46.9818 H   0  0  0  0  0  0  0  0  0  0  0  0
   59.6264   24.5947   47.0560 H   0  0  0  0  0  0  0  0  0  0  0  0
   60.4671   26.8118   46.2817 H   0  0  0  0  0  0  0  0  0  0  0  0
   59.1097   31.2698   43.5004 H   0  0  0  0  0  0  0  0  0  0  0  0
   57.3595   31.4821   43.1359 H   0  0  0  0  0  0  0  0  0  0  0  0
   59.3371   33.9711   44.0443 H   0  0  0  0  0  0  0  0  0  0  0  0
   58.6525   35.3176   46.2872 H   0  0  0  0  0  0  0  0  0  0  0  0
   57.0235   33.7110   47.6715 H   0  0  0  0  0  0  0  0  0  0  0  0
  1  2  2  0
  2  3  1  0
  3  4  1  0
  4  5  2  0
  5  6  1  0
  6  7  2  0
  7  8  1  0
  8  9  2  0
  9 10  1  0
 10 11  2  0
 10 12  2  0
 10 13  1  0
 13 14  1  0
 14 15  1  0
 15 16  2  0
 16 17  1  0
 17 18  2  0
 18 19  1  0
 13  2  1  0
 19 15  1  0
  9  4  1  0
  3 20  1  0
  5 21  1  0
  6 22  1  0
  7 23  1  0
  8 24  1  0
 14 25  1  0
 14 26  1  0
 16 27  1  0
 17 28  1  0
 18 29  1  0
M  END
>  <UniqueID>  (60) 
51

>  <SMILES>  (60) 
O=C1Nc2ccccc2S(=O)(=O)N1Cc1ccco1

>  <Energy>  (60) 
58.90040959867499

>  <Genealogy>  (60) 
O=C1Nc2ccccc2S(=O)(=O)N1Cc1ccco1 (3D coordinates assigned)
O=C1Nc2ccccc2S(=O)(=O)N1Cc1ccco1 (nonaromatic ring conformer: 58.90040959867499 kcal/mol)

>  <smiles>  (60) 
O=C1Nc2ccccc2S(=O)(=O)N1Cc1ccco1

>  <score_type>  (60) 
oracle

>  <origin>  (60) 
adg

>  <m_score__min__energy>  (60) 
-7.1500000000000004

>  <m_primary>  (60) 
energy

$$$$
60:0
     RDKit          3D

 33 35  0  0  0  0  0  0  0  0999 V2000
   57.4650   26.7450   43.0040 O   0  0  0  0  0  0  0  0  0  0  0  0
   57.4940   26.9070   44.2540 C   0  0  0  0  0  0  0  0  0  0  0  0
   57.2380   25.7410   45.1370 C   0  0  0  0  0  0  0  0  0  0  0  0
   58.1440   24.6640   45.1660 C   0  0  0  0  0  0  0  0  0  0  0  0
   57.9040   23.5530   45.9790 C   0  0  0  0  0  0  0  0  0  0  0  0
   58.7850   22.5230   45.9990 F   0  0  0  0  0  0  0  0  0  0  0  0
   56.7520   23.5000   46.7670 C   0  0  0  0  0  0  0  0  0  0  0  0
   55.8400   24.5570   46.7430 C   0  0  0  0  0  0  0  0  0  0  0  0
   56.0740   25.6750   45.9340 C   0  0  0  0  0  0  0  0  0  0  0  0
   55.1540   26.7170   45.9410 O   0  0  0  0  0  0  0  0  0  0  0  0
   57.7850   28.2570   44.8020 C   0  0  0  0  0  0  0  0  0  0  0  0
   59.0850   28.5880   45.2190 C   0  0  0  0  0  0  0  0  0  0  0  0
   59.3600   29.8470   45.7500 C   0  0  0  0  0  0  0  0  0  0  0  0
   58.3270   30.7910   45.8700 C   0  0  0  0  0  0  0  0  0  0  0  0
   58.5650   32.1440   46.4340 C   0  0  0  0  0  0  0  0  0  0  0  0
   58.2840   33.2850   45.6590 C   0  0  0  0  0  0  0  0  0  0  0  0
   58.5080   34.5660   46.1730 C   0  0  0  0  0  0  0  0  0  0  0  0
   59.0230   34.7240   47.4600 C   0  0  0  0  0  0  0  0  0  0  0  0
   59.3200   33.6010   48.2380 C   0  0  0  0  0  0  0  0  0  0  0  0
   59.9840   33.8030   49.8490 Cl  0  0  0  0  0  0  0  0  0  0  0  0
   59.0960   32.3170   47.7280 C   0  0  0  0  0  0  0  0  0  0  0  0
   57.0690   30.4440   45.4780 N   0  0  0  0  0  0  0  0  0  0  0  0
   56.7730   29.2250   44.9550 C   0  0  0  0  0  0  0  0  0  0  0  0
   55.5870   28.9820   44.6020 O   0  0  0  0  0  0  0  0  0  0  0  0
   59.0497   24.6973   44.5426 H   0  0  0  0  0  0  0  0  0  0  0  0
   56.5632   22.6253   47.4067 H   0  0  0  0  0  0  0  0  0  0  0  0
   54.9327   24.5109   47.3632 H   0  0  0  0  0  0  0  0  0  0  0  0
   59.8928   27.8472   45.1257 H   0  0  0  0  0  0  0  0  0  0  0  0
   60.3805   30.0999   46.0733 H   0  0  0  0  0  0  0  0  0  0  0  0
   57.8849   33.1680   44.6407 H   0  0  0  0  0  0  0  0  0  0  0  0
   58.2777   35.4509   45.5614 H   0  0  0  0  0  0  0  0  0  0  0  0
   59.1955   35.7329   47.8629 H   0  0  0  0  0  0  0  0  0  0  0  0
   59.3362   31.4363   48.3417 H   0  0  0  0  0  0  0  0  0  0  0  0
  1  2  2  0
  2  3  1  0
  3  4  2  0
  4  5  1  0
  5  6  1  0
  5  7  2  0
  7  8  1  0
  8  9  2  0
  9 10  1  0
  2 11  1  0
 11 12  2  0
 12 13  1  0
 13 14  2  0
 14 15  1  0
 15 16  2  0
 16 17  1  0
 17 18  2  0
 18 19  1  0
 19 20  1  0
 19 21  2  0
 14 22  1  0
 22 23  1  0
 23 24  2  0
  9  3  1  0
 23 11  1  0
 21 15  1  0
  4 25  1  0
  7 26  1  0
  8 27  1  0
 12 28  1  0
 13 29  1  0
 16 30  1  0
 17 31  1  0
 18 32  1  0
 21 33  1  0
M  CHG  2  10  -1  22  -1
M  END
>  <UniqueID>  (61) 
52

>  <SMILES>  (61) 
O=C(c1cc(F)ccc1[O-])c1ccc(-c2cccc(Cl)c2)[n-]c1=O

>  <Energy>  (61) 
49.6768489598961

>  <Genealogy>  (61) 
O=C(c1cc(F)ccc1[O-])c1ccc(-c2cccc(Cl)c2)[n-]c1=O (protonated)
O=C(c1cc(F)ccc1[O-])c1ccc(-c2cccc(Cl)c2)[n-]c1=O (3D coordinates assigned)
O=C(c1cc(F)ccc1[O-])c1ccc(-c2cccc(Cl)c2)[n-]c1=O (optimized conformer: 49.6768489598961 kcal/mol)

>  <smiles>  (61) 
O=C(c1cc(F)ccc1O)c1ccc(-c2cccc(Cl)c2)[nH]c1=O

>  <score_type>  (61) 
oracle

>  <origin>  (61) 
adg

>  <m_score__min__energy>  (61) 
-13.300000000000001

>  <m_primary>  (61) 
energy

$$$$
61:0
     RDKit          3D

 37 38  0  0  0  0  0  0  0  0999 V2000
   61.4350   31.8550   47.1250 C   0  0  0  0  0  0  0  0  0  0  0  0
   60.4300   30.7480   47.0830 C   0  0  0  0  0  0  0  0  0  0  0  0
   60.3250   29.9210   46.0070 N   0  0  0  0  0  0  0  0  0  0  0  0
   59.3550   28.9960   46.1740 C   0  0  0  0  0  0  0  0  0  0  0  0
   59.0650   27.9180   45.1800 C   0  0  0  0  0  0  0  0  0  0  0  0
   57.8510   28.2900   44.3240 C   0  0  0  0  0  0  0  0  0  0  0  0
   58.0160   29.6290   43.7660 N   0  0  0  0  0  0  0  0  0  0  0  0
   57.0980   30.6960   44.0380 C   0  0  0  0  0  0  0  0  0  0  0  0
   56.0560   30.4840   44.7180 O   0  0  0  0  0  0  0  0  0  0  0  0
   57.3970   32.0840   43.5620 C   0  0  0  0  0  0  0  0  0  0  0  0
   57.8970   32.9200   44.7080 C   0  0  0  0  0  0  0  0  0  0  0  0
   58.9070   33.8740   44.5020 C   0  0  0  0  0  0  0  0  0  0  0  0
   59.3960   34.6240   45.5760 C   0  0  0  0  0  0  0  0  0  0  0  0
   58.8880   34.4210   46.8630 C   0  0  0  0  0  0  0  0  0  0  0  0
   57.8920   33.4650   47.0770 C   0  0  0  0  0  0  0  0  0  0  0  0
   57.4000   32.7130   46.0060 C   0  0  0  0  0  0  0  0  0  0  0  0
   58.6020   29.1470   47.6720 S   0  0  0  0  0  0  0  0  0  0  0  0
   59.5270   30.4800   48.1140 C   0  0  0  0  0  0  0  0  0  0  0  0
   59.4450   31.1800   49.4310 C   0  0  0  0  0  0  0  0  0  0  0  0
   61.6618   32.1048   48.1720 H   0  0  0  0  0  0  0  0  0  0  0  0
   62.3561   31.5334   46.6170 H   0  0  0  0  0  0  0  0  0  0  0  0
   61.0262   32.7409   46.6170 H   0  0  0  0  0  0  0  0  0  0  0  0
   59.9401   27.7824   44.5275 H   0  0  0  0  0  0  0  0  0  0  0  0
   58.8467   26.9852   45.7205 H   0  0  0  0  0  0  0  0  0  0  0  0
   57.7497   27.5647   43.5032 H   0  0  0  0  0  0  0  0  0  0  0  0
   56.9498   28.2735   44.9546 H   0  0  0  0  0  0  0  0  0  0  0  0
   58.8260   29.8060   43.1290 H   0  0  0  0  0  0  0  0  0  0  0  0
   58.1666   32.0429   42.7772 H   0  0  0  0  0  0  0  0  0  0  0  0
   56.4785   32.5347   43.1578 H   0  0  0  0  0  0  0  0  0  0  0  0
   59.3146   34.0316   43.4925 H   0  0  0  0  0  0  0  0  0  0  0  0
   60.1818   35.3752   45.4082 H   0  0  0  0  0  0  0  0  0  0  0  0
   59.2724   35.0136   47.7062 H   0  0  0  0  0  0  0  0  0  0  0  0
   57.4942   33.3037   48.0898 H   0  0  0  0  0  0  0  0  0  0  0  0
   56.6208   31.9563   46.1801 H   0  0  0  0  0  0  0  0  0  0  0  0
   59.5313   30.4436   50.2436 H   0  0  0  0  0  0  0  0  0  0  0  0
   60.2637   31.9104   49.5096 H   0  0  0  0  0  0  0  0  0  0  0  0
   58.4796   31.7014   49.5096 H   0  0  0  0  0  0  0  0  0  0  0  0
  1  2  1  0
  2  3  1  0
  3  4  2  0
  4  5  1  0
  5  6  1  0
  6  7  1  0
  7  8  1  0
  8  9  2  0
  8 10  1  0
 10 11  1  0
 11 12  2  0
 12 13  1  0
 13 14  2  0
 14 15  1  0
 15 16  2  0
  4 17  1  0
 17 18  1  0
 18 19  1  0
 18  2  2  0
 16 11  1  0
  1 20  1  0
  1 21  1  0
  1 22  1  0
  5 23  1  0
  5 24  1  0
  6 25  1  0
  6 26  1  0
  7 27  1  0
 10 28  1  0
 10 29  1  0
 12 30  1  0
 13 31  1  0
 14 32  1  0
 15 33  1  0
 16 34  1  0
 19 35  1  0
 19 36  1  0
 19 37  1  0
M  END
>  <UniqueID>  (62) 
53

>  <SMILES>  (62) 
Cc1nc(CCNC(=O)Cc2ccccc2)sc1C

>  <Energy>  (62) 
55.73477679200257

>  <Genealogy>  (62) 
Cc1nc(CCNC(=O)Cc2ccccc2)sc1C (3D coordinates assigned)
Cc1nc(CCNC(=O)Cc2ccccc2)sc1C (optimized conformer: 55.73477679200257 kcal/mol)

>  <smiles>  (62) 
Cc1nc(CCNC(=O)Cc2ccccc2)sc1C

>  <score_type>  (62) 
oracle

>  <origin>  (62) 
adg

>  <m_score__min__energy>  (62) 
-7.0700000000000003

>  <m_primary>  (62) 
energy

$$$$
62:0
     RDKit          3D

 42 44  0  0  0  0  0  0  0  0999 V2000
   58.1220   26.5910   43.5360 C   0  0  0  0  0  0  0  0  0  0  0  0
   58.8240   27.7990   43.2670 O   0  0  0  0  0  0  0  0  0  0  0  0
   59.3520   28.6510   44.2510 C   0  0  0  0  0  0  0  0  0  0  0  0
   60.7070   28.6000   44.6280 C   0  0  0  0  0  0  0  0  0  0  0  0
   61.2040   29.4580   45.6130 C   0  0  0  0  0  0  0  0  0  0  0  0
   60.3580   30.3780   46.2500 C   0  0  0  0  0  0  0  0  0  0  0  0
   60.8930   31.2910   47.2930 C   0  0  0  0  0  0  0  0  0  0  0  0
   61.6780   30.8410   48.1700 O   0  0  0  0  0  0  0  0  0  0  0  0
   60.4750   32.6630   47.3870 N   0  0  0  0  0  0  0  0  0  0  0  0
   59.5620   33.2630   46.6750 C   0  0  0  0  0  0  0  0  0  0  0  0
   59.8780   34.1250   45.6020 C   0  0  0  0  0  0  0  0  0  0  0  0
   58.8470   34.7210   44.8740 C   0  0  0  0  0  0  0  0  0  0  0  0
   57.5180   34.4770   45.2200 C   0  0  0  0  0  0  0  0  0  0  0  0
   57.2380   33.6400   46.3010 C   0  0  0  0  0  0  0  0  0  0  0  0
   58.2550   33.0620   46.9960 N   0  0  0  0  0  0  0  0  0  0  0  0
   59.0010   30.4100   45.8930 C   0  0  0  0  0  0  0  0  0  0  0  0
   58.5000   29.5780   44.8820 C   0  0  0  0  0  0  0  0  0  0  0  0
   56.8010   29.7070   44.4210 S   0  0  0  0  0  0  0  0  0  0  0  0
   56.6810   29.5420   42.9330 O   0  0  0  0  0  0  0  0  0  0  0  0
   56.2660   31.0480   44.8400 O   0  0  0  0  0  0  0  0  0  0  0  0
   55.8960   28.4650   45.2260 N   0  0  0  0  0  0  0  0  0  0  0  0
   56.4560   27.3640   45.9550 C   0  0  0  0  0  0  0  0  0  0  0  0
   57.7660   27.4010   46.4680 C   0  0  0  0  0  0  0  0  0  0  0  0
   58.2770   26.3060   47.1750 C   0  0  0  0  0  0  0  0  0  0  0  0
   59.9100   26.3570   47.8120 Cl  0  0  0  0  0  0  0  0  0  0  0  0
   57.4850   25.1700   47.3740 C   0  0  0  0  0  0  0  0  0  0  0  0
   56.1840   25.1280   46.8670 C   0  0  0  0  0  0  0  0  0  0  0  0
   55.6690   26.2200   46.1600 C   0  0  0  0  0  0  0  0  0  0  0  0
   54.3720   26.1640   45.6620 O   0  0  0  0  0  0  0  0  0  0  0  0
   58.0396   26.4492   44.6237 H   0  0  0  0  0  0  0  0  0  0  0  0
   57.1153   26.6462   43.0961 H   0  0  0  0  0  0  0  0  0  0  0  0
   58.6684   25.7437   43.0961 H   0  0  0  0  0  0  0  0  0  0  0  0
   61.3809   27.8784   44.1431 H   0  0  0  0  0  0  0  0  0  0  0  0
   62.2673   29.4115   45.8910 H   0  0  0  0  0  0  0  0  0  0  0  0
   60.9280   34.3251   45.3421 H   0  0  0  0  0  0  0  0  0  0  0  0
   59.0825   35.3830   44.0276 H   0  0  0  0  0  0  0  0  0  0  0  0
   56.7002   34.9389   44.6475 H   0  0  0  0  0  0  0  0  0  0  0  0
   56.1946   33.4474   46.5913 H   0  0  0  0  0  0  0  0  0  0  0  0
   58.3200   31.0986   46.4146 H   0  0  0  0  0  0  0  0  0  0  0  0
   58.3905   28.2932   46.3130 H   0  0  0  0  0  0  0  0  0  0  0  0
   57.8868   24.3099   47.9297 H   0  0  0  0  0  0  0  0  0  0  0  0
   55.5627   24.2339   47.0241 H   0  0  0  0  0  0  0  0  0  0  0  0
  1  2  1  0
  2  3  1  0
  3  4  2  0
  4  5  1  0
  5  6  2  0
  6  7  1  0
  7  8  2  0
  7  9  1  0
  9 10  2  3
 10 11  1  0
 11 12  2  0
 12 13  1  0
 13 14  2  0
 14 15  1  0
  6 16  1  0
 16 17  2  0
 17 18  1  0
 18 19  2  0
 18 20  2  0
 18 21  1  0
 21 22  1  0
 22 23  2  0
 23 24  1  0
 24 25  1  0
 24 26  2  0
 26 27  1  0
 27 28  2  0
 28 29  1  0
 17  3  1  0
 28 22  1  0
 15 10  1  0
  1 30  1  0
  1 31  1  0
  1 32  1  0
  4 33  1  0
  5 34  1  0
 11 35  1  0
 12 36  1  0
 13 37  1  0
 14 38  1  0
 16 39  1  0
 23 40  1  0
 26 41  1  0
 27 42  1  0
M  CHG  3  15  -1  21  -1  29  -1
M  END
>  <UniqueID>  (63) 
54

>  <SMILES>  (63) 
COc1ccc(C(=O)N=c2cccc[n-]2)cc1S(=O)(=O)[N-]c1cc(Cl)ccc1[O-]

>  <Energy>  (63) 
59.440159039650936

>  <Genealogy>  (63) 
COc1ccc(C(=O)N=c2cccc[n-]2)cc1S(=O)(=O)[N-]c1cc(Cl)ccc1[O-] (protonated)
COc1ccc(C(=O)N=c2cccc[n-]2)cc1S(=O)(=O)[N-]c1cc(Cl)ccc1[O-] (3D coordinates assigned)
COc1ccc(C(=O)N=c2cccc[n-]2)cc1S(=O)(=O)[N-]c1cc(Cl)ccc1[O-] (optimized conformer: 59.440159039650936 kcal/mol)

>  <smiles>  (63) 
COc1ccc(C(=O)N=c2cccc[nH]2)cc1S(=O)(=O)Nc1cc(Cl)ccc1O

>  <score_type>  (63) 
oracle

>  <origin>  (63) 
adg

>  <m_score__min__energy>  (63) 
-16

>  <m_primary>  (63) 
energy

$$$$
63:0
     RDKit          3D

 47 50  0  0  0  0  0  0  0  0999 V2000
   59.9393   25.9218   46.6326 H   0  0  0  0  0  0  0  0  0  0  0  0
   58.8580   26.0770   46.5030 C   0  0  0  0  0  0  0  0  0  0  0  0
   58.3910   27.2800   46.0760 N   0  0  0  0  0  0  0  0  0  0  0  0
   57.0590   27.5180   45.9040 C   0  0  0  0  0  0  0  0  0  0  0  0
   56.6380   28.6760   45.4960 N   0  0  0  0  0  0  0  0  0  0  0  0
   57.4820   29.6620   44.3440 S   0  0  0  0  0  0  0  0  0  0  0  0
   56.7010   29.7520   43.0640 O   0  0  0  0  0  0  0  0  0  0  0  0
   58.8230   29.0430   44.0610 O   0  0  0  0  0  0  0  0  0  0  0  0
   57.6850   31.2890   45.0180 C   0  0  0  0  0  0  0  0  0  0  0  0
   57.3180   32.3900   44.2290 C   0  0  0  0  0  0  0  0  0  0  0  0
   56.9112   32.2234   43.2206 H   0  0  0  0  0  0  0  0  0  0  0  0
   57.4620   33.6920   44.7060 C   0  0  0  0  0  0  0  0  0  0  0  0
   57.1680   34.5424   44.0733 H   0  0  0  0  0  0  0  0  0  0  0  0
   57.9760   33.9210   45.9790 C   0  0  0  0  0  0  0  0  0  0  0  0
   58.0869   34.9513   46.3480 H   0  0  0  0  0  0  0  0  0  0  0  0
   58.3530   32.8430   46.7930 C   0  0  0  0  0  0  0  0  0  0  0  0
   58.8690   33.0860   48.0750 C   0  0  0  0  0  0  0  0  0  0  0  0
   58.9703   34.1207   48.4343 H   0  0  0  0  0  0  0  0  0  0  0  0
   59.2570   32.0220   48.9030 C   0  0  0  0  0  0  0  0  0  0  0  0
   59.7580   32.2760   50.2310 N   0  0  0  0  0  0  0  0  0  0  0  0
   60.2750   31.4350   50.5800 H   0  0  0  0  0  0  0  0  0  0  0  0
   58.9570   32.4540   50.8830 H   0  0  0  0  0  0  0  0  0  0  0  0
   60.6510   33.4410   50.2180 C   0  0  0  0  0  0  0  0  0  0  0  0
   60.0691   34.3404   49.9679 H   0  0  0  0  0  0  0  0  0  0  0  0
   61.1085   33.5497   51.2124 H   0  0  0  0  0  0  0  0  0  0  0  0
   61.7450   33.2570   49.1950 C   0  0  0  0  0  0  0  0  0  0  0  0
   62.7240   32.2660   49.3860 C   0  0  0  0  0  0  0  0  0  0  0  0
   62.7061   31.6463   50.2947 H   0  0  0  0  0  0  0  0  0  0  0  0
   63.7200   32.0650   48.4260 C   0  0  0  0  0  0  0  0  0  0  0  0
   64.4878   31.2934   48.5846 H   0  0  0  0  0  0  0  0  0  0  0  0
   63.7420   32.8420   47.2660 C   0  0  0  0  0  0  0  0  0  0  0  0
   64.5295   32.6855   46.5141 H   0  0  0  0  0  0  0  0  0  0  0  0
   62.7630   33.8190   47.0600 C   0  0  0  0  0  0  0  0  0  0  0  0
   62.7794   34.4277   46.1439 H   0  0  0  0  0  0  0  0  0  0  0  0
   61.7630   34.0240   48.0160 C   0  0  0  0  0  0  0  0  0  0  0  0
   60.8130   34.9670   47.7900 F   0  0  0  0  0  0  0  0  0  0  0  0
   59.1020   30.7060   48.4440 C   0  0  0  0  0  0  0  0  0  0  0  0
   59.3882   29.8655   49.0934 H   0  0  0  0  0  0  0  0  0  0  0  0
   58.5880   30.4520   47.1710 C   0  0  0  0  0  0  0  0  0  0  0  0
   58.4774   29.4130   46.8271 H   0  0  0  0  0  0  0  0  0  0  0  0
   58.2090   31.5110   46.3210 C   0  0  0  0  0  0  0  0  0  0  0  0
   56.1360   26.4950   46.1710 C   0  0  0  0  0  0  0  0  0  0  0  0
   54.7710   26.7080   46.0030 O   0  0  0  0  0  0  0  0  0  0  0  0
   56.5970   25.2520   46.6100 C   0  0  0  0  0  0  0  0  0  0  0  0
   55.8830   24.4430   46.8236 H   0  0  0  0  0  0  0  0  0  0  0  0
   57.9670   25.0390   46.7770 C   0  0  0  0  0  0  0  0  0  0  0  0
   58.3398   24.0629   47.1210 H   0  0  0  0  0  0  0  0  0  0  0  0
  1  2  1  0
  2  3  1  0
  3  4  1  0
  4  5  2  0
  5  6  1  0
  6  7  2  0
  6  8  2  0
  6  9  1  0
  9 10  2  0
 10 11  1  0
 10 12  1  0
 12 13  1  0
 12 14  2  0
 14 15  1  0
 14 16  1  0
 16 17  2  0
 17 18  1  0
 17 19  1  0
 19 20  1  0
 20 21  1  0
 20 22  1  0
 20 23  1  0
 23 24  1  0
 23 25  1  0
 23 26  1  0
 26 27  2  0
 27 28  1  0
 27 29  1  0
 29 30  1  0
 29 31  2  0
 31 32  1  0
 31 33  1  0
 33 34  1  0
 33 35  2  0
 35 36  1  0
 19 37  2  0
 37 38  1  0
 37 39  1  0
 39 40  1  0
 39 41  2  0
  4 42  1  0
 42 43  1  0
 42 44  2  0
 44 45  1  0
 44 46  1  0
 46 47  1  0
 46  2  2  0
 41  9  1  0
 41 16  1  0
 35 26  1  0
M  CHG  3   3  -1  20   1  43  -1
M  END
>  <UniqueID>  (64) 
55

>  <SMILES>  (64) 
O=S(=O)(/N=c1\[n-]cccc1[O-])c1cccc2cc([NH2+]Cc3ccccc3F)ccc12

>  <Energy>  (64) 
63.0461012964383

>  <Genealogy>  (64) 
O=S(=O)(N=c1[n-]cccc1[O-])c1cccc2cc([NH2+]Cc3ccccc3F)ccc12 (protonated)
O=S(=O)(/N=c1\[n-]cccc1[O-])c1cccc2cc([NH2+]Cc3ccccc3F)ccc12 (cis-trans isomerization)
O=S(=O)(/N=c1\[n-]cccc1[O-])c1cccc2cc([NH2+]Cc3ccccc3F)ccc12 (3D coordinates assigned)
O=S(=O)(/N=c1\[n-]cccc1[O-])c1cccc2cc([NH2+]Cc3ccccc3F)ccc12 (optimized conformer: 63.0461012964383 kcal/mol)

>  <smiles>  (64) 
O=S(=O)(N=c1[nH]cccc1O)c1cccc2cc(NCc3ccccc3F)ccc12

>  <score_type>  (64) 
oracle

>  <origin>  (64) 
adg

>  <m_score__min__energy>  (64) 
-13.27

>  <m_primary>  (64) 
energy

$$$$
64:0
     RDKit          3D

 57 60  0  0  0  0  0  0  0  0999 V2000
   54.7980   27.0870   46.5110 H   0  0  0  0  0  0  0  0  0  0  0  0
   55.1250   26.2640   45.9570 N   0  0  0  0  0  0  0  0  0  0  0  0
   56.8530   26.3160   45.9500 S   0  0  0  0  0  0  0  0  0  0  0  0
   57.3860   25.5070   47.1000 O   0  0  0  0  0  0  0  0  0  0  0  0
   57.3630   25.7240   44.6660 O   0  0  0  0  0  0  0  0  0  0  0  0
   57.3930   27.9850   46.1000 C   0  0  0  0  0  0  0  0  0  0  0  0
   57.0000   28.9350   45.1470 C   0  0  0  0  0  0  0  0  0  0  0  0
   56.3504   28.6371   44.3108 H   0  0  0  0  0  0  0  0  0  0  0  0
   57.4320   30.2610   45.2570 C   0  0  0  0  0  0  0  0  0  0  0  0
   57.1368   30.9979   44.4955 H   0  0  0  0  0  0  0  0  0  0  0  0
   58.2370   30.6540   46.3300 C   0  0  0  0  0  0  0  0  0  0  0  0
   58.7120   32.0050   46.3980 N   0  0  0  0  0  0  0  0  0  0  0  0
   59.6710   32.5270   47.1200 C   0  0  0  0  0  0  0  0  0  0  0  0
   60.7630   33.0440   46.4100 C   0  0  0  0  0  0  0  0  0  0  0  0
   60.7031   33.1500   45.3168 H   0  0  0  0  0  0  0  0  0  0  0  0
   61.9250   33.4250   47.0800 C   0  0  0  0  0  0  0  0  0  0  0  0
   63.1300   33.8750   46.3150 C   0  0  0  0  0  0  0  0  0  0  0  0
   63.9219   34.1707   47.0189 H   0  0  0  0  0  0  0  0  0  0  0  0
   63.4911   33.0511   45.6819 H   0  0  0  0  0  0  0  0  0  0  0  0
   62.8627   34.7339   45.6819 H   0  0  0  0  0  0  0  0  0  0  0  0
   61.9880   33.3230   48.4280 N   0  0  0  0  0  0  0  0  0  0  0  0
   60.9290   32.9290   49.1860 C   0  0  0  0  0  0  0  0  0  0  0  0
   61.0420   32.9080   50.5950 C   0  0  0  0  0  0  0  0  0  0  0  0
   62.3090   33.2520   51.2870 C   0  0  0  0  0  0  0  0  0  0  0  0
   62.2640   33.7260   52.4550 O   0  0  0  0  0  0  0  0  0  0  0  0
   63.5740   33.0890   50.6270 N   0  0  0  0  0  0  0  0  0  0  0  0
   63.5860   33.0350   49.5830 H   0  0  0  0  0  0  0  0  0  0  0  0
   64.8540   33.2080   51.3310 C   0  0  0  0  0  0  0  0  0  0  0  0
   64.8243   32.5995   52.2469 H   0  0  0  0  0  0  0  0  0  0  0  0
   66.0030   32.6750   50.4460 C   0  0  0  0  0  0  0  0  0  0  0  0
   66.2052   31.6306   50.7258 H   0  0  0  0  0  0  0  0  0  0  0  0
   65.6797   32.7646   49.3984 H   0  0  0  0  0  0  0  0  0  0  0  0
   67.3060   33.4850   50.5970 C   0  0  0  0  0  0  0  0  0  0  0  0
   68.1530   32.8445   50.3101 H   0  0  0  0  0  0  0  0  0  0  0  0
   67.2234   34.3686   49.9470 H   0  0  0  0  0  0  0  0  0  0  0  0
   67.5250   33.9670   51.9760 N   0  0  0  0  0  0  0  0  0  0  0  0
   67.8750   32.8680   52.8930 C   0  0  0  0  0  0  0  0  0  0  0  0
   67.7662   33.2095   53.9330 H   0  0  0  0  0  0  0  0  0  0  0  0
   67.2042   32.0145   52.7153 H   0  0  0  0  0  0  0  0  0  0  0  0
   68.9158   32.5596   52.7153 H   0  0  0  0  0  0  0  0  0  0  0  0
   66.4200   34.8130   52.5000 C   0  0  0  0  0  0  0  0  0  0  0  0
   66.2417   34.5365   53.5496 H   0  0  0  0  0  0  0  0  0  0  0  0
   66.7400   35.8590   52.3834 H   0  0  0  0  0  0  0  0  0  0  0  0
   65.0920   34.6670   51.7290 C   0  0  0  0  0  0  0  0  0  0  0  0
   64.2640   35.0063   52.3688 H   0  0  0  0  0  0  0  0  0  0  0  0
   65.1445   35.2782   50.8160 H   0  0  0  0  0  0  0  0  0  0  0  0
   59.9280   32.5550   51.3670 C   0  0  0  0  0  0  0  0  0  0  0  0
   60.0235   32.4756   52.4600 H   0  0  0  0  0  0  0  0  0  0  0  0
   58.7010   32.3040   50.7600 C   0  0  0  0  0  0  0  0  0  0  0  0
   57.8202   32.0805   51.3799 H   0  0  0  0  0  0  0  0  0  0  0  0
   58.5810   32.3340   49.3720 C   0  0  0  0  0  0  0  0  0  0  0  0
   57.5946   32.1820   48.9096 H   0  0  0  0  0  0  0  0  0  0  0  0
   59.7090   32.5570   48.5500 C   0  0  0  0  0  0  0  0  0  0  0  0
   58.6690   29.6930   47.2600 C   0  0  0  0  0  0  0  0  0  0  0  0
   59.3469   29.9848   48.0757 H   0  0  0  0  0  0  0  0  0  0  0  0
   58.2390   28.3660   47.1510 C   0  0  0  0  0  0  0  0  0  0  0  0
   58.5652   27.6205   47.8911 H   0  0  0  0  0  0  0  0  0  0  0  0
  1  2  1  0
  2  3  1  0
  3  4  2  0
  3  5  2  0
  3  6  1  0
  6  7  2  0
  7  8  1  0
  7  9  1  0
  9 10  1  0
  9 11  2  0
 11 12  1  0
 12 13  2  0
 13 14  1  0
 14 15  1  0
 14 16  2  0
 16 17  1  0
 17 18  1  0
 17 19  1  0
 17 20  1  0
 16 21  1  0
 21 22  1  0
 22 23  2  0
 23 24  1  0
 24 25  2  0
 24 26  1  0
 26 27  1  0
 26 28  1  0
 28 29  1  0
 28 30  1  0
 30 31  1  0
 30 32  1  0
 30 33  1  0
 33 34  1  0
 33 35  1  0
 33 36  1  0
 36 37  1  0
 37 38  1  0
 37 39  1  0
 37 40  1  0
 36 41  1  0
 41 42  1  0
 41 43  1  0
 41 44  1  0
 44 45  1  0
 44 46  1  0
 23 47  1  0
 47 48  1  0
 47 49  2  0
 49 50  1  0
 49 51  1  0
 51 52  1  0
 51 53  2  0
 11 54  1  0
 54 55  1  0
 54 56  2  0
 56 57  1  0
 56  6  1  0
 53 13  1  0
 53 22  1  0
 44 28  1  0
M  CHG  2   2  -1  21  -1
M  END
>  <UniqueID>  (65) 
56

>  <SMILES>  (65) 
Cc1c/c(=N/c2ccc(S([NH-])(=O)=O)cc2)c2cccc(C(=O)NC3CCN(C)CC3)c2[n-]1

>  <Energy>  (65) 
93.74713502294183

>  <Genealogy>  (65) 
Cc1cc(=Nc2ccc(S([NH-])(=O)=O)cc2)c2cccc(C(=O)NC3CCN(C)CC3)c2[n-]1 (protonated)
Cc1c/c(=N/c2ccc(S([NH-])(=O)=O)cc2)c2cccc(C(=O)NC3CCN(C)CC3)c2[n-]1 (cis-trans isomerization)
Cc1c/c(=N/c2ccc(S([NH-])(=O)=O)cc2)c2cccc(C(=O)NC3CCN(C)CC3)c2[n-]1 (3D coordinates assigned)
Cc1c/c(=N/c2ccc(S([NH-])(=O)=O)cc2)c2cccc(C(=O)NC3CCN(C)CC3)c2[n-]1 (nonaromatic ring conformer: 93.74713502294183 kcal/mol)

>  <smiles>  (65) 
Cc1cc(=Nc2ccc(S(N)(=O)=O)cc2)c2cccc(C(=O)NC3CCN(C)CC3)c2[nH]1

>  <score_type>  (65) 
oracle

>  <origin>  (65) 
adg

>  <m_score__min__energy>  (65) 
-11.59

>  <m_primary>  (65) 
energy

$$$$
65:0
     RDKit          3D

 41 43  0  0  0  0  0  0  0  0999 V2000
   53.6330   24.8360   45.6200 C   0  0  0  0  0  0  0  0  0  0  0  0
   54.4840   25.9420   45.9010 O   0  0  0  0  0  0  0  0  0  0  0  0
   55.8850   25.8740   45.9620 C   0  0  0  0  0  0  0  0  0  0  0  0
   56.5590   24.6910   46.3260 C   0  0  0  0  0  0  0  0  0  0  0  0
   57.9540   24.6650   46.3860 C   0  0  0  0  0  0  0  0  0  0  0  0
   58.6890   25.8120   46.0860 C   0  0  0  0  0  0  0  0  0  0  0  0
   58.0320   26.9900   45.7200 C   0  0  0  0  0  0  0  0  0  0  0  0
   56.6270   27.0270   45.6520 C   0  0  0  0  0  0  0  0  0  0  0  0
   55.9210   28.2150   45.2740 N   0  0  0  0  0  0  0  0  0  0  0  0
   56.5650   29.5170   44.3240 S   0  0  0  0  0  0  0  0  0  0  0  0
   57.0620   28.9820   43.0100 O   0  0  0  0  0  0  0  0  0  0  0  0
   55.4930   30.5440   44.0950 O   0  0  0  0  0  0  0  0  0  0  0  0
   57.9020   30.2720   45.1860 C   0  0  0  0  0  0  0  0  0  0  0  0
   59.1180   29.5890   45.3190 C   0  0  0  0  0  0  0  0  0  0  0  0
   60.1880   30.1880   45.9890 C   0  0  0  0  0  0  0  0  0  0  0  0
   60.0550   31.4760   46.5140 C   0  0  0  0  0  0  0  0  0  0  0  0
   58.8520   32.1770   46.3700 C   0  0  0  0  0  0  0  0  0  0  0  0
   58.7470   33.5010   46.9140 N   0  0  0  0  0  0  0  0  0  0  0  0
   59.7900   34.4860   46.9550 C   0  0  0  0  0  0  0  0  0  0  0  0
   59.5060   35.6780   46.6620 O   0  0  0  0  0  0  0  0  0  0  0  0
   61.1730   34.1600   47.3660 C   0  0  0  0  0  0  0  0  0  0  0  0
   61.5710   34.1790   48.7120 C   0  0  0  0  0  0  0  0  0  0  0  0
   62.8540   33.8700   49.0370 N   0  0  0  0  0  0  0  0  0  0  0  0
   63.7660   33.5540   48.0810 C   0  0  0  0  0  0  0  0  0  0  0  0
   63.3820   33.5580   46.7410 C   0  0  0  0  0  0  0  0  0  0  0  0
   62.0990   33.8630   46.4140 N   0  0  0  0  0  0  0  0  0  0  0  0
   57.7650   31.5560   45.7310 C   0  0  0  0  0  0  0  0  0  0  0  0
   53.2890   24.3889   46.5643 H   0  0  0  0  0  0  0  0  0  0  0  0
   52.7644   25.1799   45.0393 H   0  0  0  0  0  0  0  0  0  0  0  0
   54.1880   24.0845   45.0393 H   0  0  0  0  0  0  0  0  0  0  0  0
   55.9837   23.7841   46.5639 H   0  0  0  0  0  0  0  0  0  0  0  0
   58.4741   23.7384   46.6703 H   0  0  0  0  0  0  0  0  0  0  0  0
   59.7876   25.7893   46.1376 H   0  0  0  0  0  0  0  0  0  0  0  0
   58.6157   27.8920   45.4841 H   0  0  0  0  0  0  0  0  0  0  0  0
   59.2306   28.5800   44.8955 H   0  0  0  0  0  0  0  0  0  0  0  0
   61.1373   29.6442   46.1034 H   0  0  0  0  0  0  0  0  0  0  0  0
   60.8997   31.9414   47.0430 H   0  0  0  0  0  0  0  0  0  0  0  0
   60.8489   34.4424   49.4989 H   0  0  0  0  0  0  0  0  0  0  0  0
   64.7981   33.2973   48.3618 H   0  0  0  0  0  0  0  0  0  0  0  0
   64.1120   33.3161   45.9545 H   0  0  0  0  0  0  0  0  0  0  0  0
   56.8010   32.0808   45.6582 H   0  0  0  0  0  0  0  0  0  0  0  0
  1  2  1  0
  2  3  1  0
  3  4  2  0
  4  5  1  0
  5  6  2  0
  6  7  1  0
  7  8  2  0
  8  9  1  0
  9 10  1  0
 10 11  2  0
 10 12  2  0
 10 13  1  0
 13 14  2  0
 14 15  1  0
 15 16  2  0
 16 17  1  0
 17 18  1  0
 18 19  1  0
 19 20  2  0
 19 21  1  0
 21 22  2  0
 22 23  1  0
 23 24  2  0
 24 25  1  0
 25 26  2  0
 17 27  2  0
  8  3  1  0
 27 13  1  0
 26 21  1  0
  1 28  1  0
  1 29  1  0
  1 30  1  0
  4 31  1  0
  5 32  1  0
  6 33  1  0
  7 34  1  0
 14 35  1  0
 15 36  1  0
 16 37  1  0
 22 38  1  0
 24 39  1  0
 25 40  1  0
 27 41  1  0
M  CHG  2   9  -1  18  -1
M  END
>  <UniqueID>  (66) 
57

>  <SMILES>  (66) 
COc1ccccc1[N-]S(=O)(=O)c1cccc([N-]C(=O)c2cnccn2)c1

>  <Energy>  (66) 
53.966605572606106

>  <Genealogy>  (66) 
COc1ccccc1[N-]S(=O)(=O)c1cccc([N-]C(=O)c2cnccn2)c1 (protonated)
COc1ccccc1[N-]S(=O)(=O)c1cccc([N-]C(=O)c2cnccn2)c1 (3D coordinates assigned)
COc1ccccc1[N-]S(=O)(=O)c1cccc([N-]C(=O)c2cnccn2)c1 (optimized conformer: 53.966605572606106 kcal/mol)

>  <smiles>  (66) 
COc1ccccc1NS(=O)(=O)c1cccc(NC(=O)c2cnccn2)c1

>  <score_type>  (66) 
oracle

>  <origin>  (66) 
adg

>  <m_score__min__energy>  (66) 
-11.84

>  <m_primary>  (66) 
energy

$$$$
66:0
     RDKit          3D

 31 32  0  0  0  0  0  0  0  0999 V2000
   55.1420   29.3510   44.8640 N   0  0  0  0  0  0  0  0  0  0  0  0
   56.7660   29.8020   44.4830 S   0  0  0  0  0  0  0  0  0  0  0  0
   56.9870   29.6730   43.0030 O   0  0  0  0  0  0  0  0  0  0  0  0
   56.9960   31.2320   44.8830 O   0  0  0  0  0  0  0  0  0  0  0  0
   57.8850   28.7560   45.3530 C   0  0  0  0  0  0  0  0  0  0  0  0
   58.3330   27.5620   44.7740 C   0  0  0  0  0  0  0  0  0  0  0  0
   59.2230   26.7380   45.4670 C   0  0  0  0  0  0  0  0  0  0  0  0
   59.6590   27.0940   46.7460 C   0  0  0  0  0  0  0  0  0  0  0  0
   59.1920   28.2670   47.3500 C   0  0  0  0  0  0  0  0  0  0  0  0
   59.6700   28.6120   48.6590 N   0  0  0  0  0  0  0  0  0  0  0  0
   60.5760   29.6770   48.9660 C   0  0  0  0  0  0  0  0  0  0  0  0
   61.3270   29.5660   49.9710 O   0  0  0  0  0  0  0  0  0  0  0  0
   60.5620   30.8970   48.2060 N   0  0  0  0  0  0  0  0  0  0  0  0
   61.6450   31.8430   48.1890 C   0  0  0  0  0  0  0  0  0  0  0  0
   62.6940   31.7340   47.2580 C   0  0  0  0  0  0  0  0  0  0  0  0
   63.7240   32.6790   47.2390 C   0  0  0  0  0  0  0  0  0  0  0  0
   63.7120   33.7470   48.1390 C   0  0  0  0  0  0  0  0  0  0  0  0
   62.6640   33.8770   49.0550 C   0  0  0  0  0  0  0  0  0  0  0  0
   62.6520   34.9200   49.9220 F   0  0  0  0  0  0  0  0  0  0  0  0
   61.6300   32.9340   49.0780 C   0  0  0  0  0  0  0  0  0  0  0  0
   60.6210   33.0740   49.9750 F   0  0  0  0  0  0  0  0  0  0  0  0
   58.3170   29.1090   46.6390 C   0  0  0  0  0  0  0  0  0  0  0  0
   55.1940   28.6500   45.6370 H   0  0  0  0  0  0  0  0  0  0  0  0
   57.9835   27.2726   43.7720 H   0  0  0  0  0  0  0  0  0  0  0  0
   59.5816   25.8065   45.0047 H   0  0  0  0  0  0  0  0  0  0  0  0
   60.3724   26.4495   47.2805 H   0  0  0  0  0  0  0  0  0  0  0  0
   59.6840   31.1370   47.6920 H   0  0  0  0  0  0  0  0  0  0  0  0
   62.7038   30.9001   46.5406 H   0  0  0  0  0  0  0  0  0  0  0  0
   64.5454   32.5813   46.5139 H   0  0  0  0  0  0  0  0  0  0  0  0
   64.5270   34.4857   48.1270 H   0  0  0  0  0  0  0  0  0  0  0  0
   57.9704   30.0484   47.0944 H   0  0  0  0  0  0  0  0  0  0  0  0
  1  2  1  0
  2  3  2  0
  2  4  2  0
  2  5  1  0
  5  6  2  0
  6  7  1  0
  7  8  2  0
  8  9  1  0
  9 10  1  0
 10 11  1  0
 11 12  2  0
 11 13  1  0
 13 14  1  0
 14 15  2  0
 15 16  1  0
 16 17  2  0
 17 18  1  0
 18 19  1  0
 18 20  2  0
 20 21  1  0
  9 22  2  0
 22  5  1  0
 20 14  1  0
  1 23  1  0
  6 24  1  0
  7 25  1  0
  8 26  1  0
 13 27  1  0
 15 28  1  0
 16 29  1  0
 17 30  1  0
 22 31  1  0
M  CHG  2   1  -1  10  -1
M  END
>  <UniqueID>  (67) 
58

>  <SMILES>  (67) 
[NH-]S(=O)(=O)c1cccc([N-]C(=O)Nc2cccc(F)c2F)c1

>  <Energy>  (67) 
38.53557556389738

>  <Genealogy>  (67) 
[NH-]S(=O)(=O)c1cccc([N-]C(=O)Nc2cccc(F)c2F)c1 (protonated)
[NH-]S(=O)(=O)c1cccc([N-]C(=O)Nc2cccc(F)c2F)c1 (3D coordinates assigned)
[NH-]S(=O)(=O)c1cccc([N-]C(=O)Nc2cccc(F)c2F)c1 (optimized conformer: 38.53557556389738 kcal/mol)

>  <smiles>  (67) 
NS(=O)(=O)c1cccc(NC(=O)Nc2cccc(F)c2F)c1

>  <score_type>  (67) 
oracle

>  <origin>  (67) 
adg

>  <m_score__min__energy>  (67) 
-11.130000000000001

>  <m_primary>  (67) 
energy

$$$$
67:0
     RDKit          3D

 65 69  0  0  0  0  0  0  0  0999 V2000
   60.7720   31.6150   47.1240 O   0  0  0  0  0  0  0  0  0  0  0  0
   59.5060   31.6910   47.1060 C   0  0  0  0  0  0  0  0  0  0  0  0
   58.7950   31.4880   48.3020 O   0  0  0  0  0  0  0  0  0  0  0  0
   59.4120   31.0120   49.5070 C   0  0  0  0  0  0  0  0  0  0  0  0
   59.8120   29.5550   49.3900 C   0  0  0  0  0  0  0  0  0  0  0  0
   59.3070   28.7700   48.3330 C   0  0  0  0  0  0  0  0  0  0  0  0
   59.6620   27.4220   48.2230 C   0  0  0  0  0  0  0  0  0  0  0  0
   60.5130   26.8410   49.1630 C   0  0  0  0  0  0  0  0  0  0  0  0
   61.0360   27.6140   50.2040 C   0  0  0  0  0  0  0  0  0  0  0  0
   60.6920   28.9650   50.3150 C   0  0  0  0  0  0  0  0  0  0  0  0
   58.4930   31.2270   50.6910 C   0  0  0  0  0  0  0  0  0  0  0  0
   57.7970   30.1350   51.2490 C   0  0  0  0  0  0  0  0  0  0  0  0
   56.9210   30.3250   52.3240 C   0  0  0  0  0  0  0  0  0  0  0  0
   56.7220   31.6010   52.8510 C   0  0  0  0  0  0  0  0  0  0  0  0
   57.4070   32.6930   52.3060 C   0  0  0  0  0  0  0  0  0  0  0  0
   58.2960   32.5090   51.2410 C   0  0  0  0  0  0  0  0  0  0  0  0
   58.8040   32.0550   45.8390 C   0  0  0  0  0  0  0  0  0  0  0  0
   58.9690   33.3060   45.3510 C   0  0  0  0  0  0  0  0  0  0  0  0
   58.1830   33.8150   44.1820 C   0  0  0  0  0  0  0  0  0  0  0  0
   58.0650   32.7150   43.1370 C   0  0  0  0  0  0  0  0  0  0  0  0
   57.3580   31.4860   43.7260 C   0  0  0  0  0  0  0  0  0  0  0  0
   57.7560   31.1270   45.2030 C   0  0  1  0  0  0  0  0  0  0  0  0
   58.1140   29.6460   45.2800 C   0  0  0  0  0  0  0  0  0  0  0  0
   59.3810   29.1900   44.8730 C   0  0  0  0  0  0  0  0  0  0  0  0
   59.6540   27.8230   44.8050 C   0  0  0  0  0  0  0  0  0  0  0  0
   58.6640   26.8920   45.1310 C   0  0  0  0  0  0  0  0  0  0  0  0
   57.3960   27.3200   45.5630 C   0  0  0  0  0  0  0  0  0  0  0  0
   56.3710   26.3150   45.9460 C   0  0  0  0  0  0  0  0  0  0  0  0
   55.1570   26.6490   45.9900 O   0  0  0  0  0  0  0  0  0  0  0  0
   56.7160   24.9390   46.1610 N   0  0  0  0  0  0  0  0  0  0  0  0
   56.8320   23.9390   45.1420 C   0  0  0  0  0  0  0  0  0  0  0  0
   57.7800   22.9180   45.3030 C   0  0  0  0  0  0  0  0  0  0  0  0
   57.9130   21.9180   44.3330 C   0  0  0  0  0  0  0  0  0  0  0  0
   57.1000   21.9320   43.1950 C   0  0  0  0  0  0  0  0  0  0  0  0
   56.1580   22.9510   43.0220 C   0  0  0  0  0  0  0  0  0  0  0  0
   56.0240   23.9540   43.9870 C   0  0  0  0  0  0  0  0  0  0  0  0
   57.1380   28.7000   45.6530 C   0  0  0  0  0  0  0  0  0  0  0  0
   60.3323   31.5927   49.6677 H   0  0  0  0  0  0  0  0  0  0  0  0
   58.6306   29.2202   47.5915 H   0  0  0  0  0  0  0  0  0  0  0  0
   59.2687   26.8177   47.3922 H   0  0  0  0  0  0  0  0  0  0  0  0
   60.7726   25.7749   49.0853 H   0  0  0  0  0  0  0  0  0  0  0  0
   61.7189   27.1590   50.9366 H   0  0  0  0  0  0  0  0  0  0  0  0
   61.1126   29.5704   51.1314 H   0  0  0  0  0  0  0  0  0  0  0  0
   57.9436   29.1260   50.8363 H   0  0  0  0  0  0  0  0  0  0  0  0
   56.3875   29.4649   52.7548 H   0  0  0  0  0  0  0  0  0  0  0  0
   56.0289   31.7486   53.6923 H   0  0  0  0  0  0  0  0  0  0  0  0
   57.2459   33.7006   52.7167 H   0  0  0  0  0  0  0  0  0  0  0  0
   58.8440   33.3701   50.8310 H   0  0  0  0  0  0  0  0  0  0  0  0
   59.7041   33.9708   45.8281 H   0  0  0  0  0  0  0  0  0  0  0  0
   57.1784   34.1131   44.5166 H   0  0  0  0  0  0  0  0  0  0  0  0
   58.6950   34.6848   43.7447 H   0  0  0  0  0  0  0  0  0  0  0  0
   57.4853   33.0901   42.2807 H   0  0  0  0  0  0  0  0  0  0  0  0
   59.0748   32.4228   42.8131 H   0  0  0  0  0  0  0  0  0  0  0  0
   56.2743   31.6731   43.7018 H   0  0  0  0  0  0  0  0  0  0  0  0
   57.6709   30.6303   43.1098 H   0  0  0  0  0  0  0  0  0  0  0  0
   56.8750   31.3113   45.8354 H   0  0  0  0  0  0  0  0  0  0  0  0
   60.1627   29.9165   44.6063 H   0  0  0  0  0  0  0  0  0  0  0  0
   60.6509   27.4775   44.4940 H   0  0  0  0  0  0  0  0  0  0  0  0
   58.8783   25.8162   45.0491 H   0  0  0  0  0  0  0  0  0  0  0  0
   58.4221   22.9032   46.1960 H   0  0  0  0  0  0  0  0  0  0  0  0
   58.6581   21.1198   44.4658 H   0  0  0  0  0  0  0  0  0  0  0  0
   57.2015   21.1419   42.4365 H   0  0  0  0  0  0  0  0  0  0  0  0
   55.5213   22.9635   42.1251 H   0  0  0  0  0  0  0  0  0  0  0  0
   55.2859   24.7571   43.8444 H   0  0  0  0  0  0  0  0  0  0  0  0
   56.1603   29.0458   46.0198 H   0  0  0  0  0  0  0  0  0  0  0  0
  1  2  2  0
  2  3  1  0
  3  4  1  0
  4  5  1  0
  5  6  2  0
  6  7  1  0
  7  8  2  0
  8  9  1  0
  9 10  2  0
  4 11  1  0
 11 12  2  0
 12 13  1  0
 13 14  2  0
 14 15  1  0
 15 16  2  0
  2 17  1  0
 17 18  2  0
 18 19  1  0
 19 20  1  0
 20 21  1  0
 21 22  1  0
 22 23  1  0
 23 24  2  0
 24 25  1  0
 25 26  2  0
 26 27  1  0
 27 28  1  0
 28 29  2  0
 28 30  1  0
 30 31  1  0
 31 32  2  0
 32 33  1  0
 33 34  2  0
 34 35  1  0
 35 36  2  0
 27 37  2  0
 10  5  1  0
 16 11  1  0
 22 17  1  0
 37 23  1  0
 36 31  1  0
  4 38  1  0
  6 39  1  0
  7 40  1  0
  8 41  1  0
  9 42  1  0
 10 43  1  0
 12 44  1  0
 13 45  1  0
 14 46  1  0
 15 47  1  0
 16 48  1  0
 18 49  1  0
 19 50  1  0
 19 51  1  0
 20 52  1  0
 20 53  1  0
 21 54  1  0
 21 55  1  0
 22 56  1  1
 24 57  1  0
 25 58  1  0
 26 59  1  0
 32 60  1  0
 33 61  1  0
 34 62  1  0
 35 63  1  0
 36 64  1  0
 37 65  1  0
M  CHG  1  30  -1
M  END
>  <UniqueID>  (68) 
59

>  <SMILES>  (68) 
O=C(OC(c1ccccc1)c1ccccc1)C1=CCCC[C@H]1c1cccc(C(=O)[N-]c2ccccc2)c1

>  <Energy>  (68) 
83.48192400098617

>  <Genealogy>  (68) 
O=C(OC(c1ccccc1)c1ccccc1)C1=CCCCC1c1cccc(C(=O)[N-]c2ccccc2)c1 (protonated)
O=C(OC(c1ccccc1)c1ccccc1)C1=CCCC[C@H]1c1cccc(C(=O)[N-]c2ccccc2)c1 (chirality)
O=C(OC(c1ccccc1)c1ccccc1)C1=CCCC[C@H]1c1cccc(C(=O)[N-]c2ccccc2)c1 (3D coordinates assigned)
O=C(OC(c1ccccc1)c1ccccc1)C1=CCCC[C@H]1c1cccc(C(=O)[N-]c2ccccc2)c1 (nonaromatic ring conformer: 83.48192400098617 kcal/mol)

>  <smiles>  (68) 
O=C(OC(c1ccccc1)c1ccccc1)C1=CCCCC1c1cccc(C(=O)Nc2ccccc2)c1

>  <score_type>  (68) 
oracle

>  <origin>  (68) 
adg

>  <m_score__min__energy>  (68) 
-12.82

>  <m_primary>  (68) 
energy

$$$$
68:0
     RDKit          3D

 60 63  0  0  0  0  0  0  0  0999 V2000
   60.2370   34.9650   48.2520 N   0  0  0  0  0  0  0  0  0  0  0  0
   60.2450   34.9380   46.5210 S   0  0  0  0  0  0  0  0  0  0  0  0
   61.5700   34.4370   46.0250 O   0  0  0  0  0  0  0  0  0  0  0  0
   60.0360   36.3390   46.0240 O   0  0  0  0  0  0  0  0  0  0  0  0
   58.9600   33.8910   45.9230 C   0  0  0  0  0  0  0  0  0  0  0  0
   57.6830   33.9310   46.4970 C   0  0  0  0  0  0  0  0  0  0  0  0
   56.6700   33.0940   46.0220 C   0  0  0  0  0  0  0  0  0  0  0  0
   56.9220   32.1990   44.9740 C   0  0  0  0  0  0  0  0  0  0  0  0
   55.8570   31.3460   44.5310 N   0  0  0  0  0  0  0  0  0  0  0  0
   56.0520   29.7700   43.8390 S   0  0  0  0  0  0  0  0  0  0  0  0
   54.7690   28.9990   43.9900 O   0  0  0  0  0  0  0  0  0  0  0  0
   56.3530   29.9130   42.3740 O   0  0  0  0  0  0  0  0  0  0  0  0
   57.3900   28.9280   44.6120 C   0  0  0  0  0  0  0  0  0  0  0  0
   58.1250   27.9590   43.9150 C   0  0  0  0  0  0  0  0  0  0  0  0
   59.1950   27.3110   44.5360 C   0  0  0  0  0  0  0  0  0  0  0  0
   59.5470   27.6350   45.8470 C   0  0  0  0  0  0  0  0  0  0  0  0
   58.8310   28.6170   46.5490 C   0  0  0  0  0  0  0  0  0  0  0  0
   59.1990   28.9670   47.9370 C   0  0  0  0  0  0  0  0  0  0  0  0
   58.5330   28.4570   48.8810 O   0  0  0  0  0  0  0  0  0  0  0  0
   60.2910   29.8620   48.2370 N   0  0  0  0  0  0  0  0  0  0  0  0
   60.9910   29.7100   49.5200 C   0  0  0  0  0  0  0  0  0  0  0  0
   61.9720   30.8560   49.7770 C   0  0  0  0  0  0  0  0  0  0  0  0
   61.4650   32.1430   49.2780 N   0  0  0  0  0  0  0  0  0  0  0  0
   60.1340   32.7980   50.2170 S   0  0  0  0  0  0  0  0  0  0  0  0
   58.9490   32.9750   49.3080 O   0  0  0  0  0  0  0  0  0  0  0  0
   60.5200   34.1580   50.7280 O   0  0  0  0  0  0  0  0  0  0  0  0
   59.6350   31.7660   51.5700 C   0  0  0  0  0  0  0  0  0  0  0  0
   60.4000   31.7490   52.7500 C   0  0  0  0  0  0  0  0  0  0  0  0
   60.0270   30.9390   53.8270 C   0  0  0  0  0  0  0  0  0  0  0  0
   58.8990   30.1230   53.7310 C   0  0  0  0  0  0  0  0  0  0  0  0
   58.1470   30.1090   52.5520 C   0  0  0  0  0  0  0  0  0  0  0  0
   58.5120   30.9200   51.4720 C   0  0  0  0  0  0  0  0  0  0  0  0
   57.7610   30.8790   50.3420 F   0  0  0  0  0  0  0  0  0  0  0  0
   61.2180   32.1590   47.8240 C   0  0  0  0  0  0  0  0  0  0  0  0
   60.8050   30.7970   47.2250 C   0  0  0  0  0  0  0  0  0  0  0  0
   57.7390   29.2470   45.9310 C   0  0  0  0  0  0  0  0  0  0  0  0
   58.2020   32.1630   44.3920 C   0  0  0  0  0  0  0  0  0  0  0  0
   59.2120   33.0080   44.8650 C   0  0  0  0  0  0  0  0  0  0  0  0
   59.2390   34.9520   48.5570 H   0  0  0  0  0  0  0  0  0  0  0  0
   60.6690   34.0750   48.5830 H   0  0  0  0  0  0  0  0  0  0  0  0
   57.4766   34.6245   47.3255 H   0  0  0  0  0  0  0  0  0  0  0  0
   55.6681   33.1381   46.4739 H   0  0  0  0  0  0  0  0  0  0  0  0
   57.8586   27.7087   42.8775 H   0  0  0  0  0  0  0  0  0  0  0  0
   59.7622   26.5427   43.9900 H   0  0  0  0  0  0  0  0  0  0  0  0
   60.3887   27.1188   46.3319 H   0  0  0  0  0  0  0  0  0  0  0  0
   60.2473   29.6907   50.3302 H   0  0  0  0  0  0  0  0  0  0  0  0
   61.5654   28.7725   49.4847 H   0  0  0  0  0  0  0  0  0  0  0  0
   62.1441   30.9389   50.8603 H   0  0  0  0  0  0  0  0  0  0  0  0
   62.9048   30.6292   49.2400 H   0  0  0  0  0  0  0  0  0  0  0  0
   61.2991   32.3781   52.8263 H   0  0  0  0  0  0  0  0  0  0  0  0
   60.6235   30.9450   54.7512 H   0  0  0  0  0  0  0  0  0  0  0  0
   58.6018   29.4918   54.5814 H   0  0  0  0  0  0  0  0  0  0  0  0
   57.2644   29.4573   52.4734 H   0  0  0  0  0  0  0  0  0  0  0  0
   60.4132   32.8808   47.6210 H   0  0  0  0  0  0  0  0  0  0  0  0
   62.1725   32.4306   47.3495 H   0  0  0  0  0  0  0  0  0  0  0  0
   60.0205   30.9671   46.4729 H   0  0  0  0  0  0  0  0  0  0  0  0
   61.7039   30.3439   46.7815 H   0  0  0  0  0  0  0  0  0  0  0  0
   57.1540   29.9954   46.4856 H   0  0  0  0  0  0  0  0  0  0  0  0
   58.4093   31.4695   43.5637 H   0  0  0  0  0  0  0  0  0  0  0  0
   60.2100   32.9788   44.4033 H   0  0  0  0  0  0  0  0  0  0  0  0
  1  2  1  0
  2  3  2  0
  2  4  2  0
  2  5  1  0
  5  6  2  0
  6  7  1  0
  7  8  2  0
  8  9  1  0
  9 10  1  0
 10 11  2  0
 10 12  2  0
 10 13  1  0
 13 14  2  0
 14 15  1  0
 15 16  2  0
 16 17  1  0
 17 18  1  0
 18 19  2  0
 18 20  1  0
 20 21  1  0
 21 22  1  0
 22 23  1  0
 23 24  1  0
 24 25  2  0
 24 26  2  0
 24 27  1  0
 27 28  2  0
 28 29  1  0
 29 30  2  0
 30 31  1  0
 31 32  2  0
 32 33  1  0
 23 34  1  0
 34 35  1  0
 17 36  2  0
  8 37  1  0
 37 38  2  0
 38  5  1  0
 36 13  1  0
 35 20  1  0
 32 27  1  0
  1 39  1  0
  1 40  1  0
  6 41  1  0
  7 42  1  0
 14 43  1  0
 15 44  1  0
 16 45  1  0
 21 46  1  0
 21 47  1  0
 22 48  1  0
 22 49  1  0
 28 50  1  0
 29 51  1  0
 30 52  1  0
 31 53  1  0
 34 54  1  0
 34 55  1  0
 35 56  1  0
 35 57  1  0
 36 58  1  0
 37 59  1  0
 38 60  1  0
M  CHG  1   9  -1
M  END
>  <UniqueID>  (69) 
60

>  <SMILES>  (69) 
NS(=O)(=O)c1ccc([N-]S(=O)(=O)c2cccc(C(=O)N3CCN(S(=O)(=O)c4ccccc4F)CC3)c2)cc1

>  <Energy>  (69) 
77.75034000153238

>  <Genealogy>  (69) 
NS(=O)(=O)c1ccc([N-]S(=O)(=O)c2cccc(C(=O)N3CCN(S(=O)(=O)c4ccccc4F)CC3)c2)cc1 (protonated)
NS(=O)(=O)c1ccc([N-]S(=O)(=O)c2cccc(C(=O)N3CCN(S(=O)(=O)c4ccccc4F)CC3)c2)cc1 (3D coordinates assigned)
NS(=O)(=O)c1ccc([N-]S(=O)(=O)c2cccc(C(=O)N3CCN(S(=O)(=O)c4ccccc4F)CC3)c2)cc1 (nonaromatic ring conformer: 77.75034000153238 kcal/mol)

>  <smiles>  (69) 
NS(=O)(=O)c1ccc(NS(=O)(=O)c2cccc(C(=O)N3CCN(S(=O)(=O)c4ccccc4F)CC3)c2)cc1

>  <score_type>  (69) 
oracle

>  <origin>  (69) 
adg

>  <m_score__min__energy>  (69) 
-12.26

>  <m_primary>  (69) 
energy

$$$$
69:0
     RDKit          3D

 40 44  0  0  0  0  0  0  0  0999 V2000
   51.2936   31.6272   54.0685 H   0  0  0  0  0  0  0  0  0  0  0  0
   51.7660   30.9340   53.3570 C   0  0  0  0  0  0  0  0  0  0  0  0
   51.5900   31.1970   51.9190 C   0  0  0  0  0  0  0  0  0  0  0  0
   51.7560   30.2610   50.9680 N   0  0  0  0  0  0  0  0  0  0  0  0
   51.3910   30.8990   49.8350 C   0  0  0  0  0  0  0  0  0  0  0  0
   51.4250   30.3450   48.7050 O   0  0  0  0  0  0  0  0  0  0  0  0
   50.9770   32.1720   50.0080 N   0  0  0  0  0  0  0  0  0  0  0  0
   51.0960   32.3420   51.3340 C   0  0  0  0  0  0  0  0  0  0  0  0
   50.7210   33.5030   51.9980 O   0  0  0  0  0  0  0  0  0  0  0  0
   52.4650   29.9040   53.8550 C   0  0  0  0  0  0  0  0  0  0  0  0
   51.9840   28.9340   54.7340 C   0  0  0  0  0  0  0  0  0  0  0  0
   50.9643   28.9063   55.1457 H   0  0  0  0  0  0  0  0  0  0  0  0
   52.9570   28.0300   55.0070 N   0  0  0  0  0  0  0  0  0  0  0  0
   54.0240   28.4000   54.3170 N   0  0  0  0  0  0  0  0  0  0  0  0
   55.9040   29.4310   52.6810 C   0  0  0  0  0  0  0  0  0  0  0  0
   56.8360   29.9180   51.9160 N   0  0  0  0  0  0  0  0  0  0  0  0
   54.7470   25.4090   55.0500 C   0  0  0  0  0  0  0  0  0  0  0  0
   54.8326   25.3626   56.1457 H   0  0  0  0  0  0  0  0  0  0  0  0
   54.9690   24.4230   53.9140 C   0  0  0  0  0  0  0  0  0  0  0  0
   55.6537   24.6762   53.0912 H   0  0  0  0  0  0  0  0  0  0  0  0
   55.2782   23.3695   53.8462 H   0  0  0  0  0  0  0  0  0  0  0  0
   53.6310   25.1530   54.0490 C   0  0  0  0  0  0  0  0  0  0  0  0
   53.3529   25.9316   53.3234 H   0  0  0  0  0  0  0  0  0  0  0  0
   52.5779   24.8430   54.1187 H   0  0  0  0  0  0  0  0  0  0  0  0
   56.1710   28.3170   53.4270 N   0  0  0  0  0  0  0  0  0  0  0  0
   55.2280   27.7800   54.2520 C   0  0  0  0  0  0  0  0  0  0  0  0
   55.4450   26.7050   54.9620 N   0  0  0  0  0  0  0  0  0  0  0  0
   57.6400   31.0790   52.1870 C   0  0  0  0  0  0  0  0  0  0  0  0
   57.1060   32.3810   52.1310 C   0  0  0  0  0  0  0  0  0  0  0  0
   56.0395   32.5270   51.9048 H   0  0  0  0  0  0  0  0  0  0  0  0
   57.9270   33.4880   52.3620 C   0  0  0  0  0  0  0  0  0  0  0  0
   57.5033   34.5025   52.3265 H   0  0  0  0  0  0  0  0  0  0  0  0
   59.2850   33.3090   52.6380 C   0  0  0  0  0  0  0  0  0  0  0  0
   59.9264   34.1811   52.8332 H   0  0  0  0  0  0  0  0  0  0  0  0
   59.8280   32.0220   52.6660 C   0  0  0  0  0  0  0  0  0  0  0  0
   61.1810   31.8440   52.9260 O   0  0  0  0  0  0  0  0  0  0  0  0
   59.0100   30.9110   52.4290 C   0  0  0  0  0  0  0  0  0  0  0  0
   59.4450   29.9007   52.4328 H   0  0  0  0  0  0  0  0  0  0  0  0
   54.6830   30.0360   52.7760 N   0  0  0  0  0  0  0  0  0  0  0  0
   53.7660   29.5060   53.6170 C   0  0  0  0  0  0  0  0  0  0  0  0
  1  2  1  0
  2  3  1  0
  3  4  1  0
  4  5  1  0
  5  6  2  0
  5  7  1  0
  7  8  1  0
  8  9  1  0
  2 10  2  3
 10 11  1  0
 11 12  1  0
 11 13  2  0
 13 14  1  0
 14 15  1  0
 15 16  2  0
 16 17  1  0
 17 18  1  0
 17 19  1  0
 19 20  1  0
 19 21  1  0
 19 22  1  0
 22 23  1  0
 22 24  1  0
 15 25  1  0
 25 26  1  0
 26 27  2  0
 27 28  1  0
 28 29  2  0
 29 30  1  0
 29 31  1  0
 31 32  1  0
 31 33  2  0
 33 34  1  0
 33 35  1  0
 35 36  1  0
 35 37  2  0
 37 38  1  0
 26 39  1  0
 39 40  2  0
  8  3  2  0
 40 10  1  0
 40 14  1  0
 22 17  1  0
 37 28  1  0
M  CHG  5   4  -1   7  -1   9  -1  25  -1  36  -1
M  END
>  <UniqueID>  (70) 
61

>  <SMILES>  (70) 
O=c1[n-]c([O-])c(C=c2cnn3/c(=N/C4CC4)[n-]/c(=N/c4cccc([O-])c4)nc23)[n-]1

>  <Energy>  (70) 
399.16741075144563

>  <Genealogy>  (70) 
O=c1[n-]c([O-])c(C=c2cnn3c(=NC4CC4)[n-]c(=Nc4cccc([O-])c4)nc23)[n-]1 (protonated)
O=c1[n-]c([O-])c(C=c2cnn3/c(=N/C4CC4)[n-]/c(=N/c4cccc([O-])c4)nc23)[n-]1 (cis-trans isomerization)
O=c1[n-]c([O-])c(C=c2cnn3/c(=N/C4CC4)[n-]/c(=N/c4cccc([O-])c4)nc23)[n-]1 (3D coordinates assigned)
O=c1[n-]c([O-])c(C=c2cnn3/c(=N/C4CC4)[n-]/c(=N/c4cccc([O-])c4)nc23)[n-]1 (nonaromatic ring conformer: 399.16741075144563 kcal/mol)

>  <smiles>  (70) 
O=c1[nH]c(O)c(C=c2cnn3c(=NC4CC4)[nH]c(=Nc4cccc(O)c4)nc23)[nH]1

>  <score_type>  (70) 
oracle

>  <origin>  (70) 
adg

>  <m_score__min__energy>  (70) 
-17.879999999999999

>  <m_primary>  (70) 
energy

$$$$
70:0
     RDKit          3D

 42 44  0  0  1  0  0  0  0  0999 V2000
   64.1470   32.8010   49.5820 C   0  0  0  0  0  0  0  0  0  0  0  0
   62.9180   33.4580   49.6920 O   0  0  0  0  0  0  0  0  0  0  0  0
   62.0550   33.7410   48.6540 C   0  0  0  0  0  0  0  0  0  0  0  0
   60.7890   34.2110   48.9310 C   0  0  0  0  0  0  0  0  0  0  0  0
   59.9700   34.4760   47.8590 C   0  0  0  0  0  0  0  0  0  0  0  0
   60.3870   34.2860   46.5360 C   0  0  0  0  0  0  0  0  0  0  0  0
   59.4410   34.5910   45.5220 N   0  0  0  0  0  0  0  0  0  0  0  0
   58.5910   33.7020   45.1390 C   0  0  0  0  0  0  0  0  0  0  0  0
   58.5010   33.2980   43.8550 N   0  0  0  0  0  0  0  0  0  0  0  0
   57.5220   32.3590   43.7590 C   0  0  0  0  0  0  0  0  0  0  0  0
   57.1010   31.5780   42.2190 S   0  0  0  0  0  0  0  0  0  0  0  0
   56.3100   29.9900   42.5720 C   0  0  0  0  0  0  0  0  0  0  0  0
   56.7030   29.5560   43.9320 C   0  0  0  0  0  0  0  0  0  0  0  0
   55.9280   29.4110   44.8950 O   0  0  0  0  0  0  0  0  0  0  0  0
   58.0840   29.2830   44.1530 N   0  0  0  0  0  0  0  0  0  0  0  0
   58.5990   28.8610   45.4090 C   0  0  0  0  0  0  0  0  0  0  0  0
   58.4190   27.5960   45.9220 C   0  0  0  0  0  0  0  0  0  0  0  0
   58.9830   27.3410   47.1570 C   0  0  0  0  0  0  0  0  0  0  0  0
   59.7000   28.2910   47.8650 C   0  0  0  0  0  0  0  0  0  0  0  0
   60.4740   27.9260   49.5680 Br  0  0  0  0  0  0  0  0  0  0  0  0
   59.8800   29.5570   47.3470 C   0  0  0  0  0  0  0  0  0  0  0  0
   59.3230   29.8270   46.1170 C   0  0  0  0  0  0  0  0  0  0  0  0
   57.0280   32.2040   44.9920 N   0  0  0  0  0  0  0  0  0  0  0  0
   57.6720   33.0180   45.8400 N   0  0  0  0  0  0  0  0  0  0  0  0
   61.6570   33.8150   46.2820 C   0  0  0  0  0  0  0  0  0  0  0  0
   62.4630   33.5540   47.3740 C   0  0  0  0  0  0  0  0  0  0  0  0
   64.5413   32.5902   50.5870 H   0  0  0  0  0  0  0  0  0  0  0  0
   64.0100   31.8558   49.0362 H   0  0  0  0  0  0  0  0  0  0  0  0
   64.8568   33.4400   49.0362 H   0  0  0  0  0  0  0  0  0  0  0  0
   60.4487   34.3673   49.9653 H   0  0  0  0  0  0  0  0  0  0  0  0
   58.9527   34.8499   48.0471 H   0  0  0  0  0  0  0  0  0  0  0  0
   55.2169   30.1014   42.5204 H   0  0  0  0  0  0  0  0  0  0  0  0
   56.6281   29.2402   41.8327 H   0  0  0  0  0  0  0  0  0  0  0  0
   58.8010   29.3810   43.3790 H   0  0  0  0  0  0  0  0  0  0  0  0
   57.8540   26.8265   45.3755 H   0  0  0  0  0  0  0  0  0  0  0  0
   58.8572   26.3406   47.5968 H   0  0  0  0  0  0  0  0  0  0  0  0
   60.4476   30.3225   47.8964 H   0  0  0  0  0  0  0  0  0  0  0  0
   59.4504   30.8282   45.6794 H   0  0  0  0  0  0  0  0  0  0  0  0
   56.2620   31.5480   45.2470 H   0  0  0  0  0  0  0  0  0  0  0  0
   57.5270   33.1380   46.8670 H   0  0  0  0  0  0  0  0  0  0  0  0
   62.0139   33.6537   45.2541 H   0  0  0  0  0  0  0  0  0  0  0  0
   63.4814   33.1776   47.1971 H   0  0  0  0  0  0  0  0  0  0  0  0
  1  2  1  0
  2  3  1  0
  3  4  2  0
  4  5  1  0
  5  6  2  0
  6  7  1  0
  7  8  2  0
  8  9  1  0
  9 10  2  0
 10 11  1  0
 11 12  1  0
 12 13  1  0
 13 14  2  0
 13 15  1  0
 15 16  1  0
 16 17  2  0
 17 18  1  0
 18 19  2  0
 19 20  1  0
 19 21  1  0
 21 22  2  0
 10 23  1  0
 23 24  1  0
  6 25  1  0
 25 26  2  0
 26  3  1  0
 24  8  1  0
 22 16  1  0
  1 27  1  0
  1 28  1  0
  1 29  1  0
  4 30  1  0
  5 31  1  0
 12 32  1  0
 12 33  1  0
 15 34  1  0
 17 35  1  0
 18 36  1  0
 21 37  1  0
 22 38  1  0
 23 39  1  0
 24 40  1  0
 25 41  1  0
 26 42  1  0
M  END
>  <smiles>  (71) 
COc1ccc(N=c2nc(SCC(=O)Nc3ccc(Br)cc3)[nH][nH]2)cc1

>  <score_type>  (71) 
oracle

>  <origin>  (71) 
adg

>  <m_score__min__energy>  (71) 
-8.0399999999999991

>  <m_primary>  (71) 
energy

$$$$
71:0
     RDKit          3D

 32 34  0  0  0  0  0  0  0  0999 V2000
   56.1530   31.3360   44.5900 O   0  0  0  0  0  0  0  0  0  0  0  0
   56.2390   30.0850   44.4910 C   0  0  0  0  0  0  0  0  0  0  0  0
   55.1590   29.2890   44.8470 O   0  0  0  0  0  0  0  0  0  0  0  0
   57.4810   29.4600   43.9410 C   0  0  0  0  0  0  0  0  0  0  0  0
   57.8390   28.2850   44.7320 N   0  0  0  0  0  0  0  0  0  0  0  0
   57.4010   27.0590   44.4670 N   0  0  0  0  0  0  0  0  0  0  0  0
   57.8600   26.2270   45.4330 C   0  0  0  0  0  0  0  0  0  0  0  0
   57.6060   24.7710   45.4600 C   0  0  0  0  0  0  0  0  0  0  0  0
   58.6980   23.8990   45.2990 C   0  0  0  0  0  0  0  0  0  0  0  0
   58.5020   22.5200   45.2180 C   0  0  0  0  0  0  0  0  0  0  0  0
   57.2150   21.9930   45.2860 C   0  0  0  0  0  0  0  0  0  0  0  0
   56.1180   22.8410   45.4500 C   0  0  0  0  0  0  0  0  0  0  0  0
   56.2940   24.2340   45.5510 C   0  0  0  0  0  0  0  0  0  0  0  0
   55.1030   25.0800   45.8090 C   0  0  0  0  0  0  0  0  0  0  0  0
   53.9610   24.5550   45.9030 O   0  0  0  0  0  0  0  0  0  0  0  0
   55.2300   26.4500   46.0020 O   0  0  0  0  0  0  0  0  0  0  0  0
   58.6110   26.9650   46.3330 C   0  0  0  0  0  0  0  0  0  0  0  0
   59.2680   26.6290   47.5150 C   0  0  0  0  0  0  0  0  0  0  0  0
   59.9150   27.6640   48.2190 C   0  0  0  0  0  0  0  0  0  0  0  0
   60.7610   27.3040   49.7120 Cl  0  0  0  0  0  0  0  0  0  0  0  0
   59.8760   28.9920   47.7340 C   0  0  0  0  0  0  0  0  0  0  0  0
   59.1920   29.2990   46.5450 C   0  0  0  0  0  0  0  0  0  0  0  0
   58.5680   28.2510   45.8660 C   0  0  0  0  0  0  0  0  0  0  0  0
   57.3061   29.1579   42.8979 H   0  0  0  0  0  0  0  0  0  0  0  0
   58.3031   30.1896   43.9841 H   0  0  0  0  0  0  0  0  0  0  0  0
   59.7170   24.3086   45.2363 H   0  0  0  0  0  0  0  0  0  0  0  0
   59.3652   21.8484   45.1003 H   0  0  0  0  0  0  0  0  0  0  0  0
   57.0622   20.9063   45.2104 H   0  0  0  0  0  0  0  0  0  0  0  0
   55.1048   22.4158   45.5009 H   0  0  0  0  0  0  0  0  0  0  0  0
   59.2811   25.5932   47.8851 H   0  0  0  0  0  0  0  0  0  0  0  0
   60.3853   29.7915   48.2921 H   0  0  0  0  0  0  0  0  0  0  0  0
   59.1499   30.3296   46.1627 H   0  0  0  0  0  0  0  0  0  0  0  0
  1  2  2  0
  2  3  1  0
  2  4  1  0
  4  5  1  0
  5  6  1  0
  6  7  2  0
  7  8  1  0
  8  9  2  0
  9 10  1  0
 10 11  2  0
 11 12  1  0
 12 13  2  0
 13 14  1  0
 14 15  2  0
 14 16  1  0
  7 17  1  0
 17 18  2  0
 18 19  1  0
 19 20  1  0
 19 21  2  0
 21 22  1  0
 22 23  2  0
 23  5  1  0
 13  8  1  0
 23 17  1  0
  4 24  1  0
  4 25  1  0
  9 26  1  0
 10 27  1  0
 11 28  1  0
 12 29  1  0
 18 30  1  0
 21 31  1  0
 22 32  1  0
M  CHG  2   3  -1  16  -1
M  END
>  <UniqueID>  (72) 
62

>  <SMILES>  (72) 
O=C([O-])Cn1nc(-c2ccccc2C(=O)[O-])c2cc(Cl)ccc21

>  <Energy>  (72) 
81.5438888062782

>  <Genealogy>  (72) 
O=C([O-])Cn1nc(-c2ccccc2C(=O)[O-])c2cc(Cl)ccc21 (protonated)
O=C([O-])Cn1nc(-c2ccccc2C(=O)[O-])c2cc(Cl)ccc21 (3D coordinates assigned)
O=C([O-])Cn1nc(-c2ccccc2C(=O)[O-])c2cc(Cl)ccc21 (optimized conformer: 81.5438888062782 kcal/mol)

>  <smiles>  (72) 
O=C(O)Cn1nc(-c2ccccc2C(=O)O)c2cc(Cl)ccc21

>  <score_type>  (72) 
oracle

>  <origin>  (72) 
adg

>  <m_score__min__energy>  (72) 
-12.619999999999999

>  <m_primary>  (72) 
energy

$$$$
72:0
     RDKit          3D

 38 39  0  0  0  0  0  0  0  0999 V2000
   59.5470   26.0260   46.6750 C   0  0  0  0  0  0  0  0  0  0  0  0
   58.8460   27.3010   46.2870 C   0  0  0  0  0  0  0  0  0  0  0  0
   59.5930   28.4880   46.2110 C   0  0  0  0  0  0  0  0  0  0  0  0
   58.9820   29.6920   45.8570 C   0  0  0  0  0  0  0  0  0  0  0  0
   57.6130   29.7340   45.5900 C   0  0  0  0  0  0  0  0  0  0  0  0
   57.0130   30.9810   45.2180 N   0  0  0  0  0  0  0  0  0  0  0  0
   57.7180   32.1960   44.9360 C   0  0  0  0  0  0  0  0  0  0  0  0
   58.9620   32.1390   44.7410 O   0  0  0  0  0  0  0  0  0  0  0  0
   57.0310   33.5360   45.0100 C   0  0  0  0  0  0  0  0  0  0  0  0
   57.6970   34.4210   45.9620 N   0  0  0  0  0  0  0  0  0  0  0  0
   59.0630   34.8520   45.8920 C   0  0  0  0  0  0  0  0  0  0  0  0
   59.4030   35.6350   44.9670 O   0  0  0  0  0  0  0  0  0  0  0  0
   60.0940   34.3740   46.8350 C   0  0  0  0  0  0  0  0  0  0  0  0
   59.8260   34.3630   48.2140 C   0  0  0  0  0  0  0  0  0  0  0  0
   60.7860   33.8930   49.1150 C   0  0  0  0  0  0  0  0  0  0  0  0
   62.0120   33.4140   48.6460 C   0  0  0  0  0  0  0  0  0  0  0  0
   62.9410   32.9550   49.5200 F   0  0  0  0  0  0  0  0  0  0  0  0
   62.2790   33.4040   47.2740 C   0  0  0  0  0  0  0  0  0  0  0  0
   61.3230   33.8770   46.3700 C   0  0  0  0  0  0  0  0  0  0  0  0
   56.8680   28.5480   45.6070 C   0  0  0  0  0  0  0  0  0  0  0  0
   57.4700   27.3270   45.9520 C   0  0  0  0  0  0  0  0  0  0  0  0
   56.4740   25.8610   45.9710 S   0  0  0  0  0  0  0  0  0  0  0  0
   54.8030   26.2980   45.9930 N   0  0  0  0  0  0  0  0  0  0  0  0
   56.7460   25.0300   44.7500 O   0  0  0  0  0  0  0  0  0  0  0  0
   56.7970   25.0350   47.1850 O   0  0  0  0  0  0  0  0  0  0  0  0
   59.5889   25.9497   47.7715 H   0  0  0  0  0  0  0  0  0  0  0  0
   58.9950   25.1657   46.2684 H   0  0  0  0  0  0  0  0  0  0  0  0
   60.5691   26.0312   46.2684 H   0  0  0  0  0  0  0  0  0  0  0  0
   60.6703   28.4686   46.4327 H   0  0  0  0  0  0  0  0  0  0  0  0
   59.5820   30.6114   45.7882 H   0  0  0  0  0  0  0  0  0  0  0  0
   57.0478   34.0030   44.0142 H   0  0  0  0  0  0  0  0  0  0  0  0
   55.9962   33.3779   45.3478 H   0  0  0  0  0  0  0  0  0  0  0  0
   58.8566   34.7258   48.5864 H   0  0  0  0  0  0  0  0  0  0  0  0
   60.5759   33.9003   50.1947 H   0  0  0  0  0  0  0  0  0  0  0  0
   63.2428   33.0234   46.9049 H   0  0  0  0  0  0  0  0  0  0  0  0
   61.5340   33.8599   45.2906 H   0  0  0  0  0  0  0  0  0  0  0  0
   55.7994   28.5732   45.3472 H   0  0  0  0  0  0  0  0  0  0  0  0
   54.6980   27.0620   46.6970 H   0  0  0  0  0  0  0  0  0  0  0  0
  1  2  1  0
  2  3  2  0
  3  4  1  0
  4  5  2  0
  5  6  1  0
  6  7  1  0
  7  8  2  0
  7  9  1  0
  9 10  1  0
 10 11  1  0
 11 12  2  0
 11 13  1  0
 13 14  2  0
 14 15  1  0
 15 16  2  0
 16 17  1  0
 16 18  1  0
 18 19  2  0
  5 20  1  0
 20 21  2  0
 21 22  1  0
 22 23  1  0
 22 24  2  0
 22 25  2  0
 21  2  1  0
 19 13  1  0
  1 26  1  0
  1 27  1  0
  1 28  1  0
  3 29  1  0
  4 30  1  0
  9 31  1  0
  9 32  1  0
 14 33  1  0
 15 34  1  0
 18 35  1  0
 19 36  1  0
 20 37  1  0
 23 38  1  0
M  CHG  3   6  -1  10  -1  23  -1
M  END
>  <UniqueID>  (73) 
63

>  <SMILES>  (73) 
Cc1ccc([N-]C(=O)C[N-]C(=O)c2ccc(F)cc2)cc1S([NH-])(=O)=O

>  <Energy>  (73) 
48.74187315887455

>  <Genealogy>  (73) 
Cc1ccc([N-]C(=O)C[N-]C(=O)c2ccc(F)cc2)cc1S([NH-])(=O)=O (protonated)
Cc1ccc([N-]C(=O)C[N-]C(=O)c2ccc(F)cc2)cc1S([NH-])(=O)=O (3D coordinates assigned)
Cc1ccc([N-]C(=O)C[N-]C(=O)c2ccc(F)cc2)cc1S([NH-])(=O)=O (optimized conformer: 48.74187315887455 kcal/mol)

>  <smiles>  (73) 
Cc1ccc(NC(=O)CNC(=O)c2ccc(F)cc2)cc1S(N)(=O)=O

>  <score_type>  (73) 
oracle

>  <origin>  (73) 
adg

>  <m_score__min__energy>  (73) 
-13.289999999999999

>  <m_primary>  (73) 
energy

$$$$
73:0
     RDKit          3D

 55 58  0  0  0  0  0  0  0  0999 V2000
   57.9017   31.2148   42.0732 H   0  0  0  0  0  0  0  0  0  0  0  0
   57.7050   31.6170   43.0780 C   0  0  0  0  0  0  0  0  0  0  0  0
   58.2450   33.0960   43.6730 S   0  0  0  0  0  0  0  0  0  0  0  0
   57.5350   32.8620   45.1730 C   0  0  0  0  0  0  0  0  0  0  0  0
   57.5810   33.7340   46.1350 N   0  0  0  0  0  0  0  0  0  0  0  0
   58.4040   33.6370   47.3070 C   0  0  0  0  0  0  0  0  0  0  0  0
   58.1440   32.6040   48.2200 C   0  0  0  0  0  0  0  0  0  0  0  0
   57.3336   31.8882   48.0175 H   0  0  0  0  0  0  0  0  0  0  0  0
   58.9050   32.4770   49.3830 C   0  0  0  0  0  0  0  0  0  0  0  0
   58.7002   31.6575   50.0876 H   0  0  0  0  0  0  0  0  0  0  0  0
   59.9260   33.3900   49.6520 C   0  0  0  0  0  0  0  0  0  0  0  0
   60.5342   33.2808   50.5620 H   0  0  0  0  0  0  0  0  0  0  0  0
   60.1770   34.4420   48.7680 C   0  0  0  0  0  0  0  0  0  0  0  0
   60.9818   35.1592   48.9870 H   0  0  0  0  0  0  0  0  0  0  0  0
   59.4060   34.5910   47.5970 C   0  0  0  0  0  0  0  0  0  0  0  0
   59.5890   35.6780   46.7250 O   0  0  0  0  0  0  0  0  0  0  0  0
   59.6290   35.5780   45.3060 C   0  0  0  0  0  0  0  0  0  0  0  0
   60.0234   34.5921   45.0189 H   0  0  0  0  0  0  0  0  0  0  0  0
   58.6134   35.6987   44.9011 H   0  0  0  0  0  0  0  0  0  0  0  0
   60.2812   36.3659   44.9011 H   0  0  0  0  0  0  0  0  0  0  0  0
   56.8780   31.6830   45.2470 N   0  0  0  0  0  0  0  0  0  0  0  0
   56.9650   30.9900   44.0800 C   0  0  0  0  0  0  0  0  0  0  0  0
   56.3720   29.6490   43.9500 C   0  0  0  0  0  0  0  0  0  0  0  0
   55.2150   29.4520   44.4020 O   0  0  0  0  0  0  0  0  0  0  0  0
   57.0430   28.5670   43.2880 N   0  0  0  0  0  0  0  0  0  0  0  0
   57.8100   27.5220   43.9540 C   0  0  0  0  0  0  0  0  0  0  0  0
   57.1223   26.7924   44.4063 H   0  0  0  0  0  0  0  0  0  0  0  0
   58.4517   27.0106   43.2214 H   0  0  0  0  0  0  0  0  0  0  0  0
   58.6610   28.1410   45.0250 C   0  0  0  0  0  0  0  0  0  0  0  0
   58.2550   28.0830   46.3660 C   0  0  0  0  0  0  0  0  0  0  0  0
   57.3293   27.5530   46.6345 H   0  0  0  0  0  0  0  0  0  0  0  0
   59.0200   28.6950   47.3640 C   0  0  0  0  0  0  0  0  0  0  0  0
   58.6983   28.6339   48.4141 H   0  0  0  0  0  0  0  0  0  0  0  0
   60.1980   29.3880   47.0330 C   0  0  0  0  0  0  0  0  0  0  0  0
   61.0230   30.0480   48.0740 C   0  0  0  0  0  0  0  0  0  0  0  0
   61.0260   29.5720   49.2430 O   0  0  0  0  0  0  0  0  0  0  0  0
   61.8140   31.2120   47.7730 N   0  0  0  0  0  0  0  0  0  0  0  0
   61.7850   31.6190   46.8130 H   0  0  0  0  0  0  0  0  0  0  0  0
   62.6900   31.8310   48.7300 C   0  0  0  0  0  0  0  0  0  0  0  0
   62.5320   31.5660   50.1010 C   0  0  0  0  0  0  0  0  0  0  0  0
   61.7146   30.9125   50.4398 H   0  0  0  0  0  0  0  0  0  0  0  0
   63.4050   32.1260   51.0370 C   0  0  0  0  0  0  0  0  0  0  0  0
   63.2680   31.9194   52.1087 H   0  0  0  0  0  0  0  0  0  0  0  0
   64.4490   32.9460   50.6140 C   0  0  0  0  0  0  0  0  0  0  0  0
   65.1344   33.3871   51.3527 H   0  0  0  0  0  0  0  0  0  0  0  0
   64.6270   33.2090   49.2540 C   0  0  0  0  0  0  0  0  0  0  0  0
   65.4558   33.8537   48.9262 H   0  0  0  0  0  0  0  0  0  0  0  0
   63.7550   32.6560   48.3020 C   0  0  0  0  0  0  0  0  0  0  0  0
   63.9470   32.9660   46.9170 N   0  0  0  0  0  0  0  0  0  0  0  0
   64.8070   32.6470   46.4160 H   0  0  0  0  0  0  0  0  0  0  0  0
   63.2660   33.5450   46.3800 H   0  0  0  0  0  0  0  0  0  0  0  0
   60.6030   29.4390   45.6880 C   0  0  0  0  0  0  0  0  0  0  0  0
   61.5321   29.9620   45.4174 H   0  0  0  0  0  0  0  0  0  0  0  0
   59.8340   28.8300   44.6910 C   0  0  0  0  0  0  0  0  0  0  0  0
   60.1518   28.8924   43.6398 H   0  0  0  0  0  0  0  0  0  0  0  0
  1  2  1  0
  2  3  1  0
  3  4  1  0
  4  5  2  0
  5  6  1  0
  6  7  2  0
  7  8  1  0
  7  9  1  0
  9 10  1  0
  9 11  2  0
 11 12  1  0
 11 13  1  0
 13 14  1  0
 13 15  2  0
 15 16  1  0
 16 17  1  0
 17 18  1  0
 17 19  1  0
 17 20  1  0
  4 21  1  0
 21 22  1  0
 22 23  1  0
 23 24  2  0
 23 25  1  0
 25 26  1  0
 26 27  1  0
 26 28  1  0
 26 29  1  0
 29 30  2  0
 30 31  1  0
 30 32  1  0
 32 33  1  0
 32 34  2  0
 34 35  1  0
 35 36  2  0
 35 37  1  0
 37 38  1  0
 37 39  1  0
 39 40  2  0
 40 41  1  0
 40 42  1  0
 42 43  1  0
 42 44  2  0
 44 45  1  0
 44 46  1  0
 46 47  1  0
 46 48  2  0
 48 49  1  0
 49 50  1  0
 49 51  1  0
 34 52  1  0
 52 53  1  0
 52 54  2  0
 54 55  1  0
 22  2  2  0
 54 29  1  0
 15  6  1  0
 48 39  1  0
M  CHG  2  21  -1  25  -1
M  END
>  <UniqueID>  (74) 
64

>  <SMILES>  (74) 
COc1ccccc1/N=c1\[n-]c(C(=O)[N-]Cc2ccc(C(=O)Nc3ccccc3N)cc2)cs1

>  <Energy>  (74) 
105.79161414682467

>  <Genealogy>  (74) 
COc1ccccc1N=c1[n-]c(C(=O)[N-]Cc2ccc(C(=O)Nc3ccccc3N)cc2)cs1 (protonated)
COc1ccccc1/N=c1\[n-]c(C(=O)[N-]Cc2ccc(C(=O)Nc3ccccc3N)cc2)cs1 (cis-trans isomerization)
COc1ccccc1/N=c1\[n-]c(C(=O)[N-]Cc2ccc(C(=O)Nc3ccccc3N)cc2)cs1 (3D coordinates assigned)
COc1ccccc1/N=c1\[n-]c(C(=O)[N-]Cc2ccc(C(=O)Nc3ccccc3N)cc2)cs1 (optimized conformer: 105.79161414682467 kcal/mol)

>  <smiles>  (74) 
COc1ccccc1N=c1[nH]c(C(=O)NCc2ccc(C(=O)Nc3ccccc3N)cc2)cs1

>  <score_type>  (74) 
oracle

>  <origin>  (74) 
adg

>  <m_score__min__energy>  (74) 
-13.32

>  <m_primary>  (74) 
energy

$$$$
74:0
     RDKit          3D

 35 36  0  0  0  0  0  0  0  0999 V2000
   59.6190   35.1090   46.0120 C   0  0  0  0  0  0  0  0  0  0  0  0
   58.5770   34.2880   45.3160 C   0  0  0  0  0  0  0  0  0  0  0  0
   57.5450   34.8560   44.8770 O   0  0  0  0  0  0  0  0  0  0  0  0
   58.7380   32.8780   45.1010 N   0  0  0  0  0  0  0  0  0  0  0  0
   59.0460   31.8900   46.0960 C   0  0  0  0  0  0  0  0  0  0  0  0
   60.1310   32.0590   46.9720 C   0  0  0  0  0  0  0  0  0  0  0  0
   60.4210   31.1030   47.9620 C   0  0  0  0  0  0  0  0  0  0  0  0
   61.5870   31.3110   48.8610 C   0  0  0  0  0  0  0  0  0  0  0  0
   62.3030   32.3410   48.7470 O   0  0  0  0  0  0  0  0  0  0  0  0
   61.9120   30.3810   49.8420 O   0  0  0  0  0  0  0  0  0  0  0  0
   59.5870   29.9710   48.0790 C   0  0  0  0  0  0  0  0  0  0  0  0
   59.8430   28.9930   49.0400 O   0  0  0  0  0  0  0  0  0  0  0  0
   58.4860   29.8190   47.2240 C   0  0  0  0  0  0  0  0  0  0  0  0
   58.2050   30.7780   46.2380 C   0  0  0  0  0  0  0  0  0  0  0  0
   57.0830   30.6420   45.3520 N   0  0  0  0  0  0  0  0  0  0  0  0
   56.6290   29.1940   44.5130 S   0  0  0  0  0  0  0  0  0  0  0  0
   57.1060   29.2710   43.0900 O   0  0  0  0  0  0  0  0  0  0  0  0
   55.1330   29.0470   44.5500 O   0  0  0  0  0  0  0  0  0  0  0  0
   57.3620   27.7890   45.2890 C   0  0  0  0  0  0  0  0  0  0  0  0
   58.7540   27.6060   45.2540 C   0  0  0  0  0  0  0  0  0  0  0  0
   59.3340   26.4910   45.8660 C   0  0  0  0  0  0  0  0  0  0  0  0
   58.5300   25.5520   46.5170 C   0  0  0  0  0  0  0  0  0  0  0  0
   57.1440   25.7250   46.5550 C   0  0  0  0  0  0  0  0  0  0  0  0
   56.5570   26.8390   45.9430 C   0  0  0  0  0  0  0  0  0  0  0  0
   55.1750   26.9930   45.9890 O   0  0  0  0  0  0  0  0  0  0  0  0
   59.4956   35.0117   47.1007 H   0  0  0  0  0  0  0  0  0  0  0  0
   60.6191   34.7536   45.7232 H   0  0  0  0  0  0  0  0  0  0  0  0
   59.5074   36.1645   45.7232 H   0  0  0  0  0  0  0  0  0  0  0  0
   60.7643   32.9539   46.8822 H   0  0  0  0  0  0  0  0  0  0  0  0
   60.6340   29.0570   49.6710 H   0  0  0  0  0  0  0  0  0  0  0  0
   57.8351   28.9383   47.3271 H   0  0  0  0  0  0  0  0  0  0  0  0
   59.3906   28.3432   44.7428 H   0  0  0  0  0  0  0  0  0  0  0  0
   60.4248   26.3527   45.8350 H   0  0  0  0  0  0  0  0  0  0  0  0
   58.9882   24.6762   46.9998 H   0  0  0  0  0  0  0  0  0  0  0  0
   56.5125   24.9841   47.0671 H   0  0  0  0  0  0  0  0  0  0  0  0
  1  2  1  0
  2  3  2  0
  2  4  1  0
  4  5  1  0
  5  6  2  0
  6  7  1  0
  7  8  1  0
  8  9  2  0
  8 10  1  0
  7 11  2  0
 11 12  1  0
 11 13  1  0
 13 14  2  0
 14 15  1  0
 15 16  1  0
 16 17  2  0
 16 18  2  0
 16 19  1  0
 19 20  2  0
 20 21  1  0
 21 22  2  0
 22 23  1  0
 23 24  2  0
 24 25  1  0
 14  5  1  0
 24 19  1  0
  1 26  1  0
  1 27  1  0
  1 28  1  0
  6 29  1  0
 12 30  1  0
 13 31  1  0
 20 32  1  0
 21 33  1  0
 22 34  1  0
 23 35  1  0
M  CHG  4   4  -1  10  -1  15  -1  25  -1
M  END
>  <UniqueID>  (75) 
65

>  <SMILES>  (75) 
CC(=O)[N-]c1cc(C(=O)[O-])c(O)cc1[N-]S(=O)(=O)c1ccccc1[O-]

>  <Energy>  (75) 
46.41894516708158

>  <Genealogy>  (75) 
CC(=O)[N-]c1cc(C(=O)[O-])c(O)cc1[N-]S(=O)(=O)c1ccccc1[O-] (protonated)
CC(=O)[N-]c1cc(C(=O)[O-])c(O)cc1[N-]S(=O)(=O)c1ccccc1[O-] (3D coordinates assigned)
CC(=O)[N-]c1cc(C(=O)[O-])c(O)cc1[N-]S(=O)(=O)c1ccccc1[O-] (optimized conformer: 46.41894516708158 kcal/mol)

>  <smiles>  (75) 
CC(=O)Nc1cc(C(=O)O)c(O)cc1NS(=O)(=O)c1ccccc1O

>  <score_type>  (75) 
oracle

>  <origin>  (75) 
adg

>  <m_score__min__energy>  (75) 
-14.529999999999999

>  <m_primary>  (75) 
energy

$$$$
75:0
     RDKit          3D

 77 81  0  0  0  0  0  0  0  0999 V2000
   56.5780   30.7600   44.1170 C   0  0  0  0  0  0  0  0  0  0  0  0
   56.8130   29.3280   44.5820 C   0  0  0  0  0  0  0  0  0  0  0  0
   57.5030   28.4900   43.4990 C   0  0  0  0  0  0  0  0  0  0  0  0
   58.5870   27.5690   44.0780 C   0  0  0  0  0  0  0  0  0  0  0  0
   58.0260   26.5500   45.0360 C   0  0  0  0  0  0  0  0  0  0  0  0
   57.0180   25.7070   44.7240 N   0  0  0  0  0  0  0  0  0  0  0  0
   56.7920   24.9510   45.7890 N   0  0  0  0  0  0  0  0  0  0  0  0
   55.8580   23.8620   45.8490 C   0  0  0  0  0  0  0  0  0  0  0  0
   54.4900   24.1300   46.0250 C   0  0  0  0  0  0  0  0  0  0  0  0
   53.5670   23.0840   46.0940 C   0  0  0  0  0  0  0  0  0  0  0  0
   54.0010   21.7610   45.9930 C   0  0  0  0  0  0  0  0  0  0  0  0
   55.3580   21.4820   45.8120 C   0  0  0  0  0  0  0  0  0  0  0  0
   56.2900   22.5240   45.7370 C   0  0  0  0  0  0  0  0  0  0  0  0
   57.9750   22.1240   45.4280 Cl  0  0  0  0  0  0  0  0  0  0  0  0
   57.6640   25.3380   46.7410 C   0  0  0  0  0  0  0  0  0  0  0  0
   57.7430   24.8190   47.8870 O   0  0  0  0  0  0  0  0  0  0  0  0
   58.4470   26.3490   46.3110 N   0  0  0  0  0  0  0  0  0  0  0  0
   59.5410   26.9940   47.0430 C   0  0  0  0  0  0  0  0  0  0  0  0
   59.5170   28.4940   46.8740 C   0  0  0  0  0  0  0  0  0  0  0  0
   58.5170   29.2490   47.5100 C   0  0  0  0  0  0  0  0  0  0  0  0
   58.5110   30.6440   47.4100 C   0  0  0  0  0  0  0  0  0  0  0  0
   59.5060   31.3000   46.6740 C   0  0  0  0  0  0  0  0  0  0  0  0
   59.5080   32.7670   46.5650 C   0  0  0  0  0  0  0  0  0  0  0  0
   59.2630   33.3420   45.3080 C   0  0  0  0  0  0  0  0  0  0  0  0
   59.2790   34.7290   45.1510 C   0  0  0  0  0  0  0  0  0  0  0  0
   59.5440   35.5530   46.2460 C   0  0  0  0  0  0  0  0  0  0  0  0
   59.7920   34.9930   47.5010 C   0  0  0  0  0  0  0  0  0  0  0  0
   59.7780   33.6000   47.6770 C   0  0  0  0  0  0  0  0  0  0  0  0
   60.0760   32.9310   49.2920 S   0  0  0  0  0  0  0  0  0  0  0  0
   58.7720   32.4460   49.8630 O   0  0  0  0  0  0  0  0  0  0  0  0
   60.6230   33.9930   50.2050 O   0  0  0  0  0  0  0  0  0  0  0  0
   61.2330   31.6410   49.1980 N   0  0  0  0  0  0  0  0  0  0  0  0
   62.5720   31.7920   48.7110 C   0  0  0  0  0  0  0  0  0  0  0  0
   62.7760   31.8750   47.4730 O   0  0  0  0  0  0  0  0  0  0  0  0
   63.6930   31.9450   49.6720 C   0  0  0  0  0  0  0  0  0  0  0  0
   64.7050   32.8750   49.3580 C   0  0  0  0  0  0  0  0  0  0  0  0
   65.8420   32.9970   50.1570 C   0  0  0  0  0  0  0  0  0  0  0  0
   65.9870   32.2020   51.2890 C   0  0  0  0  0  0  0  0  0  0  0  0
   64.9870   31.3000   51.6410 C   0  0  0  0  0  0  0  0  0  0  0  0
   63.8250   31.1700   50.8600 C   0  0  0  0  0  0  0  0  0  0  0  0
   62.5590   30.0830   51.4660 S   0  0  0  0  0  0  0  0  0  0  0  0
   61.2640   31.0190   52.2510 C   0  0  0  0  0  0  0  0  0  0  0  0
   63.1370   29.0820   52.4270 O   0  0  0  0  0  0  0  0  0  0  0  0
   61.9610   29.3250   50.3130 O   0  0  0  0  0  0  0  0  0  0  0  0
   60.4960   30.5530   46.0270 C   0  0  0  0  0  0  0  0  0  0  0  0
   60.5240   29.1630   46.1550 C   0  0  0  0  0  0  0  0  0  0  0  0
   56.4702   31.4169   44.9927 H   0  0  0  0  0  0  0  0  0  0  0  0
   57.4334   31.0939   43.5113 H   0  0  0  0  0  0  0  0  0  0  0  0
   55.6608   30.8030   43.5113 H   0  0  0  0  0  0  0  0  0  0  0  0
   57.4480   29.3438   45.4801 H   0  0  0  0  0  0  0  0  0  0  0  0
   55.8361   28.8719   44.8002 H   0  0  0  0  0  0  0  0  0  0  0  0
   56.7461   27.8718   42.9941 H   0  0  0  0  0  0  0  0  0  0  0  0
   57.9895   29.1825   42.7963 H   0  0  0  0  0  0  0  0  0  0  0  0
   59.0803   27.0401   43.2492 H   0  0  0  0  0  0  0  0  0  0  0  0
   59.2969   28.1974   44.6358 H   0  0  0  0  0  0  0  0  0  0  0  0
   56.5250   25.6250   43.8070 H   0  0  0  0  0  0  0  0  0  0  0  0
   54.1436   25.1706   46.1090 H   0  0  0  0  0  0  0  0  0  0  0  0
   52.4973   23.3028   46.2280 H   0  0  0  0  0  0  0  0  0  0  0  0
   53.2742   20.9377   46.0560 H   0  0  0  0  0  0  0  0  0  0  0  0
   55.6958   20.4385   45.7280 H   0  0  0  0  0  0  0  0  0  0  0  0
   59.4449   26.7540   48.1122 H   0  0  0  0  0  0  0  0  0  0  0  0
   60.4927   26.6183   46.6390 H   0  0  0  0  0  0  0  0  0  0  0  0
   57.7337   28.7395   48.0904 H   0  0  0  0  0  0  0  0  0  0  0  0
   57.7236   31.2270   47.9102 H   0  0  0  0  0  0  0  0  0  0  0  0
   59.0572   32.6959   44.4418 H   0  0  0  0  0  0  0  0  0  0  0  0
   59.0827   35.1728   44.1638 H   0  0  0  0  0  0  0  0  0  0  0  0
   59.5575   36.6457   46.1201 H   0  0  0  0  0  0  0  0  0  0  0  0
   60.0001   35.6489   48.3592 H   0  0  0  0  0  0  0  0  0  0  0  0
   64.5964   33.5142   48.4694 H   0  0  0  0  0  0  0  0  0  0  0  0
   66.6248   33.7228   49.8915 H   0  0  0  0  0  0  0  0  0  0  0  0
   66.8931   32.2862   51.9069 H   0  0  0  0  0  0  0  0  0  0  0  0
   65.1074   30.6807   52.5421 H   0  0  0  0  0  0  0  0  0  0  0  0
   61.3679   30.9439   53.3435 H   0  0  0  0  0  0  0  0  0  0  0  0
   61.3381   32.0736   51.9473 H   0  0  0  0  0  0  0  0  0  0  0  0
   60.2858   30.6178   51.9473 H   0  0  0  0  0  0  0  0  0  0  0  0
   61.2551   31.0625   45.4153 H   0  0  0  0  0  0  0  0  0  0  0  0
   61.3385   28.5876   45.6908 H   0  0  0  0  0  0  0  0  0  0  0  0
  1  2  1  0
  2  3  1  0
  3  4  1  0
  4  5  1  0
  5  6  2  0
  6  7  1  0
  7  8  1  0
  8  9  2  0
  9 10  1  0
 10 11  2  0
 11 12  1  0
 12 13  2  0
 13 14  1  0
  7 15  1  0
 15 16  2  0
 15 17  1  0
 17 18  1  0
 18 19  1  0
 19 20  2  0
 20 21  1  0
 21 22  2  0
 22 23  1  0
 23 24  2  0
 24 25  1  0
 25 26  2  0
 26 27  1  0
 27 28  2  0
 28 29  1  0
 29 30  2  0
 29 31  2  0
 29 32  1  0
 32 33  1  0
 33 34  2  0
 33 35  1  0
 35 36  2  0
 36 37  1  0
 37 38  2  0
 38 39  1  0
 39 40  2  0
 40 41  1  0
 41 42  1  0
 41 43  2  0
 41 44  2  0
 22 45  1  0
 45 46  2  0
 17  5  1  0
 46 19  1  0
 13  8  1  0
 28 23  1  0
 40 35  1  0
  1 47  1  0
  1 48  1  0
  1 49  1  0
  2 50  1  0
  2 51  1  0
  3 52  1  0
  3 53  1  0
  4 54  1  0
  4 55  1  0
  6 56  1  0
  9 57  1  0
 10 58  1  0
 11 59  1  0
 12 60  1  0
 18 61  1  0
 18 62  1  0
 20 63  1  0
 21 64  1  0
 24 65  1  0
 25 66  1  0
 26 67  1  0
 27 68  1  0
 36 69  1  0
 37 70  1  0
 38 71  1  0
 39 72  1  0
 42 73  1  0
 42 74  1  0
 42 75  1  0
 45 76  1  0
 46 77  1  0
M  CHG  2   6   1  32  -1
M  END
>  <UniqueID>  (76) 
66

>  <SMILES>  (76) 
CCCCc1[nH+]n(-c2ccccc2Cl)c(=O)n1Cc1ccc(-c2ccccc2S(=O)(=O)[N-]C(=O)c2ccccc2S(C)(=O)=O)cc1

>  <Energy>  (76) 
127.42173786647922

>  <Genealogy>  (76) 
CCCCc1[nH+]n(-c2ccccc2Cl)c(=O)n1Cc1ccc(-c2ccccc2S(=O)(=O)[N-]C(=O)c2ccccc2S(C)(=O)=O)cc1 (protonated)
CCCCc1[nH+]n(-c2ccccc2Cl)c(=O)n1Cc1ccc(-c2ccccc2S(=O)(=O)[N-]C(=O)c2ccccc2S(C)(=O)=O)cc1 (3D coordinates assigned)
CCCCc1[nH+]n(-c2ccccc2Cl)c(=O)n1Cc1ccc(-c2ccccc2S(=O)(=O)[N-]C(=O)c2ccccc2S(C)(=O)=O)cc1 (optimized conformer: 127.42173786647922 kcal/mol)

>  <smiles>  (76) 
CCCCc1nn(-c2ccccc2Cl)c(=O)n1Cc1ccc(-c2ccccc2S(=O)(=O)NC(=O)c2ccccc2S(C)(=O)=O)cc1

>  <score_type>  (76) 
oracle

>  <origin>  (76) 
adg

>  <m_score__min__energy>  (76) 
-11.640000000000001

>  <m_primary>  (76) 
energy

$$$$
76:0
     RDKit          3D

 51 53  0  0  0  0  0  0  0  0999 V2000
   63.1340   33.8340   46.4240 C   0  0  0  0  0  0  0  0  0  0  0  0
   62.6550   32.3760   47.3310 S   0  0  0  0  0  0  0  0  0  0  0  0
   61.4010   31.7940   46.7440 O   0  0  0  0  0  0  0  0  0  0  0  0
   63.7500   31.3530   47.2240 O   0  0  0  0  0  0  0  0  0  0  0  0
   62.4010   32.7460   49.0070 N   0  0  0  0  0  0  0  0  0  0  0  0
   61.1460   32.6870   49.7050 C   0  0  0  0  0  0  0  0  0  0  0  0
   60.5190   33.8520   50.1830 C   0  0  0  0  0  0  0  0  0  0  0  0
   59.3000   33.7700   50.8620 C   0  0  0  0  0  0  0  0  0  0  0  0
   58.6970   32.5330   51.0760 C   0  0  0  0  0  0  0  0  0  0  0  0
   59.3080   31.3680   50.6100 C   0  0  0  0  0  0  0  0  0  0  0  0
   60.5300   31.4330   49.9180 C   0  0  0  0  0  0  0  0  0  0  0  0
   61.1650   30.1610   49.4130 C   0  0  0  0  0  0  0  0  0  0  0  0
   60.4470   29.6560   48.2470 N   0  0  0  0  0  0  0  0  0  0  0  0
   60.1670   28.2580   48.0590 C   0  0  0  0  0  0  0  0  0  0  0  0
   60.7090   27.4040   48.8140 O   0  0  0  0  0  0  0  0  0  0  0  0
   59.2330   27.8150   47.0020 C   0  0  0  0  0  0  0  0  0  0  0  0
   59.2980   26.5200   46.4640 C   0  0  0  0  0  0  0  0  0  0  0  0
   58.3710   26.1320   45.4920 C   0  0  0  0  0  0  0  0  0  0  0  0
   58.4160   24.9710   45.0070 O   0  0  0  0  0  0  0  0  0  0  0  0
   57.3930   27.0350   45.0600 C   0  0  0  0  0  0  0  0  0  0  0  0
   57.3580   28.3230   45.6100 C   0  0  0  0  0  0  0  0  0  0  0  0
   56.3780   29.3270   45.1610 C   0  0  0  0  0  0  0  0  0  0  0  0
   55.2250   28.9800   44.7880 O   0  0  0  0  0  0  0  0  0  0  0  0
   56.7470   30.7070   45.1280 N   0  0  0  0  0  0  0  0  0  0  0  0
   58.0420   31.1370   44.6150 C   0  0  0  0  0  0  0  0  0  0  0  0
   58.4140   32.4760   45.1960 C   0  0  0  0  0  0  0  0  0  0  0  0
   58.4560   32.6550   46.5880 C   0  0  0  0  0  0  0  0  0  0  0  0
   58.8810   33.8720   47.1300 C   0  0  0  0  0  0  0  0  0  0  0  0
   59.2680   34.9150   46.2870 C   0  0  0  0  0  0  0  0  0  0  0  0
   59.6750   36.0930   46.8140 F   0  0  0  0  0  0  0  0  0  0  0  0
   59.2370   34.7420   44.9000 C   0  0  0  0  0  0  0  0  0  0  0  0
   58.8190   33.5250   44.3560 C   0  0  0  0  0  0  0  0  0  0  0  0
   58.2710   28.6690   46.5580 N   0  0  0  0  0  0  0  0  0  0  0  0
   63.3972   34.6352   47.1303 H   0  0  0  0  0  0  0  0  0  0  0  0
   64.0035   33.6029   45.7910 H   0  0  0  0  0  0  0  0  0  0  0  0
   62.2969   34.1636   45.7910 H   0  0  0  0  0  0  0  0  0  0  0  0
   60.9905   34.8326   50.0216 H   0  0  0  0  0  0  0  0  0  0  0  0
   58.8148   34.6865   51.2289 H   0  0  0  0  0  0  0  0  0  0  0  0
   57.7386   32.4742   51.6126 H   0  0  0  0  0  0  0  0  0  0  0  0
   58.8304   30.3927   50.7853 H   0  0  0  0  0  0  0  0  0  0  0  0
   62.2095   30.3643   49.1342 H   0  0  0  0  0  0  0  0  0  0  0  0
   61.1243   29.4038   50.2098 H   0  0  0  0  0  0  0  0  0  0  0  0
   60.0400   30.3560   47.5890 H   0  0  0  0  0  0  0  0  0  0  0  0
   60.0719   25.8163   46.8044 H   0  0  0  0  0  0  0  0  0  0  0  0
   56.6594   26.7366   44.2966 H   0  0  0  0  0  0  0  0  0  0  0  0
   58.8065   30.3960   44.8916 H   0  0  0  0  0  0  0  0  0  0  0  0
   57.9827   31.2252   43.5201 H   0  0  0  0  0  0  0  0  0  0  0  0
   58.1533   31.8344   47.2550 H   0  0  0  0  0  0  0  0  0  0  0  0
   58.9103   34.0074   48.2212 H   0  0  0  0  0  0  0  0  0  0  0  0
   59.5420   35.5647   44.2366 H   0  0  0  0  0  0  0  0  0  0  0  0
   58.8072   33.3883   43.2646 H   0  0  0  0  0  0  0  0  0  0  0  0
  1  2  1  0
  2  3  2  0
  2  4  2  0
  2  5  1  0
  5  6  1  0
  6  7  2  0
  7  8  1  0
  8  9  2  0
  9 10  1  0
 10 11  2  0
 11 12  1  0
 12 13  1  0
 13 14  1  0
 14 15  2  0
 14 16  1  0
 16 17  2  0
 17 18  1  0
 18 19  2  0
 18 20  1  0
 20 21  2  0
 21 22  1  0
 22 23  2  0
 22 24  1  0
 24 25  1  0
 25 26  1  0
 26 27  2  0
 27 28  1  0
 28 29  2  0
 29 30  1  0
 29 31  1  0
 31 32  2  0
 21 33  1  0
 11  6  1  0
 33 16  1  0
 32 26  1  0
  1 34  1  0
  1 35  1  0
  1 36  1  0
  7 37  1  0
  8 38  1  0
  9 39  1  0
 10 40  1  0
 12 41  1  0
 12 42  1  0
 13 43  1  0
 17 44  1  0
 20 45  1  0
 25 46  1  0
 25 47  1  0
 27 48  1  0
 28 49  1  0
 31 50  1  0
 32 51  1  0
M  CHG  3   5  -1  24  -1  33  -1
M  END
>  <UniqueID>  (77) 
67

>  <SMILES>  (77) 
CS(=O)(=O)[N-]c1ccccc1CNC(=O)c1cc(=O)cc(C(=O)[N-]Cc2ccc(F)cc2)[n-]1

>  <Energy>  (77) 
52.16090031171261

>  <Genealogy>  (77) 
CS(=O)(=O)[N-]c1ccccc1CNC(=O)c1cc(=O)cc(C(=O)[N-]Cc2ccc(F)cc2)[n-]1 (protonated)
CS(=O)(=O)[N-]c1ccccc1CNC(=O)c1cc(=O)cc(C(=O)[N-]Cc2ccc(F)cc2)[n-]1 (3D coordinates assigned)
CS(=O)(=O)[N-]c1ccccc1CNC(=O)c1cc(=O)cc(C(=O)[N-]Cc2ccc(F)cc2)[n-]1 (optimized conformer: 52.16090031171261 kcal/mol)

>  <smiles>  (77) 
CS(=O)(=O)Nc1ccccc1CNC(=O)c1cc(=O)cc(C(=O)NCc2ccc(F)cc2)[nH]1

>  <score_type>  (77) 
oracle

>  <origin>  (77) 
adg

>  <m_score__min__energy>  (77) 
-13.720000000000001

>  <m_primary>  (77) 
energy

$$$$
77:0
     RDKit          3D

 51 54  0  0  0  0  0  0  0  0999 V2000
   59.6480   34.1420   48.3590 C   0  0  0  0  0  0  0  0  0  0  0  0
   58.9730   34.1840   46.9840 C   0  0  0  0  0  0  0  0  0  0  0  0
   59.6070   35.2680   46.1080 C   0  0  0  0  0  0  0  0  0  0  0  0
   58.9950   32.8010   46.3010 C   0  0  0  0  0  0  0  0  0  0  0  0
   58.1390   31.8360   47.0030 N   0  0  0  0  0  0  0  0  0  0  0  0
   58.6170   30.7810   47.8560 C   0  0  0  0  0  0  0  0  0  0  0  0
   59.1710   31.0060   49.1410 C   0  0  0  0  0  0  0  0  0  0  0  0
   59.5630   29.9170   49.9690 C   0  0  0  0  0  0  0  0  0  0  0  0
   60.0390   30.1470   51.3000 N   0  0  0  0  0  0  0  0  0  0  0  0
   59.4940   29.1690   52.6260 S   0  0  0  0  0  0  0  0  0  0  0  0
   59.8450   27.7350   52.3470 O   0  0  0  0  0  0  0  0  0  0  0  0
   60.1680   29.5860   53.9000 O   0  0  0  0  0  0  0  0  0  0  0  0
   57.7510   29.3160   52.7870 C   0  0  0  0  0  0  0  0  0  0  0  0
   56.9030   28.4010   53.3910 C   0  0  0  0  0  0  0  0  0  0  0  0
   55.5520   28.7670   53.3180 C   0  0  0  0  0  0  0  0  0  0  0  0
   55.3340   29.9740   52.6480 C   0  0  0  0  0  0  0  0  0  0  0  0
   54.0270   30.6300   52.3770 C   0  0  0  0  0  0  0  0  0  0  0  0
   53.7110   31.1240   51.0980 C   0  0  0  0  0  0  0  0  0  0  0  0
   52.4790   31.7430   50.8610 C   0  0  0  0  0  0  0  0  0  0  0  0
   51.5440   31.8790   51.8880 C   0  0  0  0  0  0  0  0  0  0  0  0
   50.3240   32.4970   51.6210 O   0  0  0  0  0  0  0  0  0  0  0  0
   51.8370   31.3910   53.1750 C   0  0  0  0  0  0  0  0  0  0  0  0
   50.8520   31.5290   54.2680 C   0  0  0  0  0  0  0  0  0  0  0  0
   51.0050   30.9240   55.3640 O   0  0  0  0  0  0  0  0  0  0  0  0
   53.0790   30.7720   53.4090 C   0  0  0  0  0  0  0  0  0  0  0  0
   56.8340   30.5690   52.1600 S   0  0  0  0  0  0  0  0  0  0  0  0
   59.4610   28.5920   49.4890 C   0  0  0  0  0  0  0  0  0  0  0  0
   58.9230   28.4130   48.2230 C   0  0  0  0  0  0  0  0  0  0  0  0
   58.6970   27.2670   47.5650 N   0  0  0  0  0  0  0  0  0  0  0  0
   58.1790   27.6490   46.4210 O   0  0  0  0  0  0  0  0  0  0  0  0
   58.0480   28.9460   46.2960 N   0  0  0  0  0  0  0  0  0  0  0  0
   58.5220   29.4480   47.4450 C   0  0  0  0  0  0  0  0  0  0  0  0
   58.8807   34.1897   49.1457 H   0  0  0  0  0  0  0  0  0  0  0  0
   60.2182   33.2066   48.4592 H   0  0  0  0  0  0  0  0  0  0  0  0
   60.3297   34.9995   48.4592 H   0  0  0  0  0  0  0  0  0  0  0  0
   57.9146   34.4471   47.1272 H   0  0  0  0  0  0  0  0  0  0  0  0
   60.0584   36.0398   46.7488 H   0  0  0  0  0  0  0  0  0  0  0  0
   60.3843   34.8181   45.4729 H   0  0  0  0  0  0  0  0  0  0  0  0
   58.8338   35.7249   45.4729 H   0  0  0  0  0  0  0  0  0  0  0  0
   58.6373   32.9084   45.2663 H   0  0  0  0  0  0  0  0  0  0  0  0
   60.0279   32.4235   46.3232 H   0  0  0  0  0  0  0  0  0  0  0  0
   57.1320   31.8140   46.7140 H   0  0  0  0  0  0  0  0  0  0  0  0
   59.2997   32.0366   49.5033 H   0  0  0  0  0  0  0  0  0  0  0  0
   60.9460   30.6530   51.4260 H   0  0  0  0  0  0  0  0  0  0  0  0
   57.2550   27.4800   53.8787 H   0  0  0  0  0  0  0  0  0  0  0  0
   54.7402   28.1616   53.7474 H   0  0  0  0  0  0  0  0  0  0  0  0
   54.4379   31.0228   50.2786 H   0  0  0  0  0  0  0  0  0  0  0  0
   52.2453   32.1258   49.8566 H   0  0  0  0  0  0  0  0  0  0  0  0
   49.9702   32.1704   54.1232 H   0  0  0  0  0  0  0  0  0  0  0  0
   53.3133   30.3927   54.4146 H   0  0  0  0  0  0  0  0  0  0  0  0
   59.7948   27.7367   50.0949 H   0  0  0  0  0  0  0  0  0  0  0  0
  1  2  1  0
  2  3  1  0
  2  4  1  0
  4  5  1  0
  5  6  1  0
  6  7  2  0
  7  8  1  0
  8  9  1  0
  9 10  1  0
 10 11  2  0
 10 12  2  0
 10 13  1  0
 13 14  2  0
 14 15  1  0
 15 16  2  0
 16 17  1  0
 17 18  2  0
 18 19  1  0
 19 20  2  0
 20 21  1  0
 20 22  1  0
 22 23  1  0
 23 24  2  0
 22 25  2  0
 16 26  1  0
  8 27  2  0
 27 28  1  0
 28 29  2  0
 29 30  1  0
 30 31  1  0
 31 32  2  0
 32  6  1  0
 26 13  1  0
 32 28  1  0
 25 17  1  0
  1 33  1  0
  1 34  1  0
  1 35  1  0
  2 36  1  0
  3 37  1  0
  3 38  1  0
  3 39  1  0
  4 40  1  0
  4 41  1  0
  5 42  1  0
  7 43  1  0
  9 44  1  0
 14 45  1  0
 15 46  1  0
 18 47  1  0
 19 48  1  0
 23 49  1  0
 25 50  1  0
 27 51  1  0
M  CHG  1  21  -1
M  END
>  <UniqueID>  (78) 
68

>  <SMILES>  (78) 
CC(C)CNc1cc(NS(=O)(=O)c2ccc(-c3ccc([O-])c(C=O)c3)s2)cc2nonc12

>  <Energy>  (78) 
126.9417205428962

>  <Genealogy>  (78) 
CC(C)CNc1cc(NS(=O)(=O)c2ccc(-c3ccc([O-])c(C=O)c3)s2)cc2nonc12 (protonated)
CC(C)CNc1cc(NS(=O)(=O)c2ccc(-c3ccc([O-])c(C=O)c3)s2)cc2nonc12 (3D coordinates assigned)
CC(C)CNc1cc(NS(=O)(=O)c2ccc(-c3ccc([O-])c(C=O)c3)s2)cc2nonc12 (optimized conformer: 126.9417205428962 kcal/mol)

>  <smiles>  (78) 
CC(C)CNc1cc(NS(=O)(=O)c2ccc(-c3ccc(O)c(C=O)c3)s2)cc2nonc12

>  <score_type>  (78) 
oracle

>  <origin>  (78) 
adg

>  <m_score__min__energy>  (78) 
-11.539999999999999

>  <m_primary>  (78) 
energy

$$$$
78:0
     RDKit          3D

 42 44  0  0  0  0  0  0  0  0999 V2000
   57.0070   30.4070   44.8750 O   0  0  0  0  0  0  0  0  0  0  0  0
   57.5250   30.1250   45.9900 C   0  0  0  0  0  0  0  0  0  0  0  0
   58.1880   31.1360   46.7590 N   0  0  0  0  0  0  0  0  0  0  0  0
   58.5820   32.4190   46.2440 C   0  0  0  0  0  0  0  0  0  0  0  0
   57.6870   33.1410   45.4380 C   0  0  0  0  0  0  0  0  0  0  0  0
   58.0380   34.4010   44.9430 C   0  0  0  0  0  0  0  0  0  0  0  0
   59.2790   34.9570   45.2590 C   0  0  0  0  0  0  0  0  0  0  0  0
   60.1680   34.2580   46.0800 C   0  0  0  0  0  0  0  0  0  0  0  0
   59.8220   32.9980   46.5770 C   0  0  0  0  0  0  0  0  0  0  0  0
   57.3760   28.8450   46.5400 O   0  0  0  0  0  0  0  0  0  0  0  0
   58.2840   27.7840   46.3840 C   0  0  0  0  0  0  0  0  0  0  0  0
   59.6700   27.9990   46.5170 C   0  0  0  0  0  0  0  0  0  0  0  0
   60.5690   26.9410   46.3830 C   0  0  0  0  0  0  0  0  0  0  0  0
   60.1010   25.6560   46.1260 C   0  0  0  0  0  0  0  0  0  0  0  0
   58.7310   25.4190   46.0110 C   0  0  0  0  0  0  0  0  0  0  0  0
   57.8030   26.4730   46.1400 C   0  0  0  0  0  0  0  0  0  0  0  0
   56.3480   26.1820   46.0110 C   0  0  0  0  0  0  0  0  0  0  0  0
   55.5380   27.0970   45.7020 O   0  0  0  0  0  0  0  0  0  0  0  0
   55.8690   24.8410   46.1890 N   0  0  0  0  0  0  0  0  0  0  0  0
   56.1580   23.7080   45.3530 C   0  0  0  0  0  0  0  0  0  0  0  0
   56.2170   23.8530   43.9540 C   0  0  0  0  0  0  0  0  0  0  0  0
   56.4720   22.7530   43.1350 C   0  0  0  0  0  0  0  0  0  0  0  0
   56.6590   21.4930   43.6970 C   0  0  0  0  0  0  0  0  0  0  0  0
   56.5800   21.3250   45.0800 C   0  0  0  0  0  0  0  0  0  0  0  0
   56.3200   22.4200   45.9290 C   0  0  0  0  0  0  0  0  0  0  0  0
   56.2400   22.1910   47.3970 C   0  0  0  0  0  0  0  0  0  0  0  0
   55.1290   22.2520   47.9890 O   0  0  0  0  0  0  0  0  0  0  0  0
   57.3740   21.9110   48.1500 O   0  0  0  0  0  0  0  0  0  0  0  0
   58.3310   30.9450   47.7770 H   0  0  0  0  0  0  0  0  0  0  0  0
   56.7035   32.7127   45.1944 H   0  0  0  0  0  0  0  0  0  0  0  0
   57.3350   34.9550   44.3035 H   0  0  0  0  0  0  0  0  0  0  0  0
   59.5568   35.9445   44.8620 H   0  0  0  0  0  0  0  0  0  0  0  0
   61.1422   34.7002   46.3357 H   0  0  0  0  0  0  0  0  0  0  0  0
   60.5212   32.4564   47.2310 H   0  0  0  0  0  0  0  0  0  0  0  0
   60.0467   29.0106   46.7285 H   0  0  0  0  0  0  0  0  0  0  0  0
   61.6495   27.1227   46.4806 H   0  0  0  0  0  0  0  0  0  0  0  0
   60.8130   24.8251   46.0132 H   0  0  0  0  0  0  0  0  0  0  0  0
   58.3704   24.3980   45.8174 H   0  0  0  0  0  0  0  0  0  0  0  0
   56.0604   24.8436   43.5022 H   0  0  0  0  0  0  0  0  0  0  0  0
   56.5254   22.8812   42.0438 H   0  0  0  0  0  0  0  0  0  0  0  0
   56.8693   20.6287   43.0499 H   0  0  0  0  0  0  0  0  0  0  0  0
   56.7226   20.3243   45.5138 H   0  0  0  0  0  0  0  0  0  0  0  0
  1  2  2  0
  2  3  1  0
  3  4  1  0
  4  5  2  0
  5  6  1  0
  6  7  2  0
  7  8  1  0
  8  9  2  0
  2 10  1  0
 10 11  1  0
 11 12  2  0
 12 13  1  0
 13 14  2  0
 14 15  1  0
 15 16  2  0
 16 17  1  0
 17 18  2  0
 17 19  1  0
 19 20  1  0
 20 21  2  0
 21 22  1  0
 22 23  2  0
 23 24  1  0
 24 25  2  0
 25 26  1  0
 26 27  2  0
 26 28  1  0
  9  4  1  0
 16 11  1  0
 25 20  1  0
  3 29  1  0
  5 30  1  0
  6 31  1  0
  7 32  1  0
  8 33  1  0
  9 34  1  0
 12 35  1  0
 13 36  1  0
 14 37  1  0
 15 38  1  0
 21 39  1  0
 22 40  1  0
 23 41  1  0
 24 42  1  0
M  CHG  2  19  -1  28  -1
M  END
>  <UniqueID>  (79) 
69

>  <SMILES>  (79) 
O=C(Nc1ccccc1)Oc1ccccc1C(=O)[N-]c1ccccc1C(=O)[O-]

>  <Energy>  (79) 
62.02459349216504

>  <Genealogy>  (79) 
O=C(Nc1ccccc1)Oc1ccccc1C(=O)[N-]c1ccccc1C(=O)[O-] (protonated)
O=C(Nc1ccccc1)Oc1ccccc1C(=O)[N-]c1ccccc1C(=O)[O-] (3D coordinates assigned)
O=C(Nc1ccccc1)Oc1ccccc1C(=O)[N-]c1ccccc1C(=O)[O-] (optimized conformer: 62.02459349216504 kcal/mol)

>  <smiles>  (79) 
O=C(Nc1ccccc1)Oc1ccccc1C(=O)Nc1ccccc1C(=O)O

>  <score_type>  (79) 
oracle

>  <origin>  (79) 
adg

>  <m_score__min__energy>  (79) 
-13.699999999999999

>  <m_primary>  (79) 
energy

$$$$
79:0
     RDKit          3D

 49 52  0  0  0  0  0  0  0  0999 V2000
   55.7560   29.3220   44.9800 O   0  0  0  0  0  0  0  0  0  0  0  0
   56.9930   29.1280   44.8420 C   0  0  0  0  0  0  0  0  0  0  0  0
   57.4530   28.0740   43.9970 N   0  0  0  0  0  0  0  0  0  0  0  0
   58.8130   27.5590   44.0820 C   0  0  0  0  0  0  0  0  0  0  0  0
   59.8040   28.6250   44.5690 C   0  0  0  0  0  0  0  0  0  0  0  0
   59.2940   29.4240   45.7030 N   0  0  0  0  0  0  0  0  0  0  0  0
   59.5640   28.8910   47.0570 C   0  0  0  0  0  0  0  0  0  0  0  0
   60.5230   29.7360   47.8630 C   0  0  0  0  0  0  0  0  0  0  0  0
   60.6680   29.5320   49.2460 C   0  0  0  0  0  0  0  0  0  0  0  0
   61.5570   30.3170   49.9850 C   0  0  0  0  0  0  0  0  0  0  0  0
   62.2980   31.3200   49.3550 C   0  0  0  0  0  0  0  0  0  0  0  0
   62.1440   31.5450   47.9830 C   0  0  0  0  0  0  0  0  0  0  0  0
   63.1530   32.9190   47.1230 Br  0  0  0  0  0  0  0  0  0  0  0  0
   61.2540   30.7620   47.2410 C   0  0  0  0  0  0  0  0  0  0  0  0
   57.9700   30.0590   45.5060 C   0  0  1  0  0  0  0  0  0  0  0  0
   58.1100   31.3460   44.6660 C   0  0  0  0  0  0  0  0  0  0  0  0
   57.5120   32.5560   45.3410 C   0  0  0  0  0  0  0  0  0  0  0  0
   56.2710   32.7520   45.2400 O   0  0  0  0  0  0  0  0  0  0  0  0
   58.3130   33.5270   46.0350 N   0  0  0  0  0  0  0  0  0  0  0  0
   58.9470   34.6570   45.3540 C   0  0  0  0  0  0  0  0  0  0  0  0
   59.9850   35.2300   46.3470 C   0  0  0  0  0  0  0  0  0  0  0  0
   59.7760   34.4120   47.5730 C   0  0  0  0  0  0  0  0  0  0  0  0
   60.4020   34.5540   48.8130 C   0  0  0  0  0  0  0  0  0  0  0  0
   60.0100   33.7070   49.8610 C   0  0  0  0  0  0  0  0  0  0  0  0
   58.9930   32.7540   49.6600 C   0  0  0  0  0  0  0  0  0  0  0  0
   58.3750   32.6350   48.4040 C   0  0  0  0  0  0  0  0  0  0  0  0
   58.8140   33.4610   47.3630 C   0  0  0  0  0  0  0  0  0  0  0  0
   56.7450   27.5050   43.4790 H   0  0  0  0  0  0  0  0  0  0  0  0
   58.8287   26.7127   44.7845 H   0  0  0  0  0  0  0  0  0  0  0  0
   59.1205   27.2458   43.0734 H   0  0  0  0  0  0  0  0  0  0  0  0
   60.7300   28.1223   44.8848 H   0  0  0  0  0  0  0  0  0  0  0  0
   59.9731   29.3186   43.7322 H   0  0  0  0  0  0  0  0  0  0  0  0
   58.6109   28.8311   47.6029 H   0  0  0  0  0  0  0  0  0  0  0  0
   60.0358   27.9059   46.9262 H   0  0  0  0  0  0  0  0  0  0  0  0
   60.0790   28.7509   49.7489 H   0  0  0  0  0  0  0  0  0  0  0  0
   61.6737   30.1449   51.0652 H   0  0  0  0  0  0  0  0  0  0  0  0
   63.0021   31.9324   49.9375 H   0  0  0  0  0  0  0  0  0  0  0  0
   61.1256   30.9504   46.1649 H   0  0  0  0  0  0  0  0  0  0  0  0
   57.5785   30.3088   46.5032 H   0  0  0  0  0  0  0  0  0  0  0  0
   59.1791   31.5352   44.4893 H   0  0  0  0  0  0  0  0  0  0  0  0
   57.5614   31.1878   43.7258 H   0  0  0  0  0  0  0  0  0  0  0  0
   59.4458   34.3172   44.4344 H   0  0  0  0  0  0  0  0  0  0  0  0
   58.2069   35.4173   45.0637 H   0  0  0  0  0  0  0  0  0  0  0  0
   61.0080   35.1076   45.9616 H   0  0  0  0  0  0  0  0  0  0  0  0
   59.8611   36.3086   46.5236 H   0  0  0  0  0  0  0  0  0  0  0  0
   61.1843   35.3122   48.9649 H   0  0  0  0  0  0  0  0  0  0  0  0
   60.4989   33.7878   50.8430 H   0  0  0  0  0  0  0  0  0  0  0  0
   58.6816   32.1010   50.4886 H   0  0  0  0  0  0  0  0  0  0  0  0
   57.5645   31.9091   48.2424 H   0  0  0  0  0  0  0  0  0  0  0  0
  1  2  2  0
  2  3  1  0
  3  4  1  0
  4  5  1  0
  5  6  1  0
  6  7  1  0
  7  8  1  0
  8  9  2  0
  9 10  1  0
 10 11  2  0
 11 12  1  0
 12 13  1  0
 12 14  2  0
  6 15  1  0
 15 16  1  0
 16 17  1  0
 17 18  2  0
 17 19  1  0
 19 20  1  0
 20 21  1  0
 21 22  1  0
 22 23  2  0
 23 24  1  0
 24 25  2  0
 25 26  1  0
 26 27  2  0
 15  2  1  0
 27 19  1  0
 14  8  1  0
 27 22  1  0
  3 28  1  0
  4 29  1  0
  4 30  1  0
  5 31  1  0
  5 32  1  0
  7 33  1  0
  7 34  1  0
  9 35  1  0
 10 36  1  0
 11 37  1  0
 14 38  1  0
 15 39  1  1
 16 40  1  0
 16 41  1  0
 20 42  1  0
 20 43  1  0
 21 44  1  0
 21 45  1  0
 23 46  1  0
 24 47  1  0
 25 48  1  0
 26 49  1  0
M  END
>  <UniqueID>  (80) 
70

>  <SMILES>  (80) 
O=C1NCCN(Cc2cccc(Br)c2)[C@H]1CC(=O)N1CCc2ccccc21

>  <Energy>  (80) 
75.18991850094925

>  <Genealogy>  (80) 
O=C1NCCN(Cc2cccc(Br)c2)[C@H]1CC(=O)N1CCc2ccccc21 (chirality)
O=C1NCCN(Cc2cccc(Br)c2)[C@H]1CC(=O)N1CCc2ccccc21 (3D coordinates assigned)
O=C1NCCN(Cc2cccc(Br)c2)[C@H]1CC(=O)N1CCc2ccccc21 (nonaromatic ring conformer: 75.18991850094925 kcal/mol)

>  <smiles>  (80) 
O=C1NCCN(Cc2cccc(Br)c2)C1CC(=O)N1CCc2ccccc21

>  <score_type>  (80) 
oracle

>  <origin>  (80) 
adg

>  <m_score__min__energy>  (80) 
-9.5700000000000003

>  <m_primary>  (80) 
energy

$$$$
80:0
     RDKit          3D

 29 30  0  0  0  0  0  0  0  0999 V2000
   58.5590   34.2480   47.2910 O   0  0  0  0  0  0  0  0  0  0  0  0
   59.0140   34.0370   46.1340 C   0  0  0  0  0  0  0  0  0  0  0  0
   58.0790   34.0640   44.9620 C   0  0  0  0  0  0  0  0  0  0  0  0
   58.7530   33.6360   43.7820 O   0  0  0  0  0  0  0  0  0  0  0  0
   58.2870   32.6030   42.9580 C   0  0  0  0  0  0  0  0  0  0  0  0
   58.4830   32.6500   41.7120 O   0  0  0  0  0  0  0  0  0  0  0  0
   57.5660   31.4570   43.5510 C   0  0  0  0  0  0  0  0  0  0  0  0
   56.5230   30.8220   42.8500 C   0  0  0  0  0  0  0  0  0  0  0  0
   55.8440   29.7390   43.4180 C   0  0  0  0  0  0  0  0  0  0  0  0
   56.2000   29.2770   44.6880 C   0  0  0  0  0  0  0  0  0  0  0  0
   55.5250   28.2000   45.2500 O   0  0  0  0  0  0  0  0  0  0  0  0
   57.2340   29.8990   45.3920 C   0  0  0  0  0  0  0  0  0  0  0  0
   57.9150   30.9830   44.8300 C   0  0  0  0  0  0  0  0  0  0  0  0
   60.4140   33.8040   45.9410 N   0  0  0  0  0  0  0  0  0  0  0  0
   61.3570   33.8610   47.0530 C   0  0  0  0  0  0  0  0  0  0  0  0
   62.1080   32.5580   47.2680 C   0  0  0  0  0  0  0  0  0  0  0  0
   62.8120   33.7470   46.6340 C   0  0  0  0  0  0  0  0  0  0  0  0
   57.2305   33.3923   45.1591 H   0  0  0  0  0  0  0  0  0  0  0  0
   57.7188   35.0929   44.8152 H   0  0  0  0  0  0  0  0  0  0  0  0
   56.2403   31.1800   41.8490 H   0  0  0  0  0  0  0  0  0  0  0  0
   55.0287   29.2503   42.8643 H   0  0  0  0  0  0  0  0  0  0  0  0
   57.5132   29.5347   46.3917 H   0  0  0  0  0  0  0  0  0  0  0  0
   58.7279   31.4682   45.3901 H   0  0  0  0  0  0  0  0  0  0  0  0
   60.7860   33.6930   44.9700 H   0  0  0  0  0  0  0  0  0  0  0  0
   60.7843   34.5513   47.6898 H   0  0  0  0  0  0  0  0  0  0  0  0
   62.3758   32.2389   48.2861 H   0  0  0  0  0  0  0  0  0  0  0  0
   61.9430   31.5085   46.9827 H   0  0  0  0  0  0  0  0  0  0  0  0
   63.5894   34.2882   47.1932 H   0  0  0  0  0  0  0  0  0  0  0  0
   63.3678   33.9143   45.6996 H   0  0  0  0  0  0  0  0  0  0  0  0
  1  2  2  0
  2  3  1  0
  3  4  1  0
  4  5  1  0
  5  6  2  0
  5  7  1  0
  7  8  2  0
  8  9  1  0
  9 10  2  0
 10 11  1  0
 10 12  1  0
 12 13  2  0
  2 14  1  0
 14 15  1  0
 15 16  1  0
 16 17  1  0
 13  7  1  0
 17 15  1  0
  3 18  1  0
  3 19  1  0
  8 20  1  0
  9 21  1  0
 12 22  1  0
 13 23  1  0
 14 24  1  0
 15 25  1  0
 16 26  1  0
 16 27  1  0
 17 28  1  0
 17 29  1  0
M  CHG  1  11  -1
M  END
>  <UniqueID>  (81) 
71

>  <SMILES>  (81) 
O=C(COC(=O)c1ccc([O-])cc1)NC1CC1

>  <Energy>  (81) 
288.7491291488467

>  <Genealogy>  (81) 
O=C(COC(=O)c1ccc([O-])cc1)NC1CC1 (protonated)
O=C(COC(=O)c1ccc([O-])cc1)NC1CC1 (3D coordinates assigned)
O=C(COC(=O)c1ccc([O-])cc1)NC1CC1 (nonaromatic ring conformer: 288.7491291488467 kcal/mol)

>  <smiles>  (81) 
O=C(COC(=O)c1ccc(O)cc1)NC1CC1

>  <score_type>  (81) 
oracle

>  <origin>  (81) 
adg

>  <m_score__min__energy>  (81) 
-9.2200000000000006

>  <m_primary>  (81) 
energy

$$$$
81:0
     RDKit          3D

 58 61  0  0  0  0  0  0  0  0999 V2000
   62.6270   29.4760   52.4140 C   0  0  0  0  0  0  0  0  0  0  0  0
   61.2320   29.5760   52.1530 O   0  0  0  0  0  0  0  0  0  0  0  0
   60.7090   29.6590   50.8600 C   0  0  0  0  0  0  0  0  0  0  0  0
   61.5400   30.0450   49.8080 C   0  0  0  0  0  0  0  0  0  0  0  0
   61.0190   30.1300   48.5170 C   0  0  0  0  0  0  0  0  0  0  0  0
   59.6670   29.8340   48.2780 C   0  0  0  0  0  0  0  0  0  0  0  0
   59.0950   29.9430   46.9150 C   0  0  0  0  0  0  0  0  0  0  0  0
   59.3950   28.9810   45.9350 C   0  0  0  0  0  0  0  0  0  0  0  0
   58.8940   29.1120   44.6380 C   0  0  0  0  0  0  0  0  0  0  0  0
   58.1010   30.2090   44.2990 C   0  0  0  0  0  0  0  0  0  0  0  0
   57.8020   31.1870   45.2580 C   0  0  0  0  0  0  0  0  0  0  0  0
   57.0370   32.4240   44.8610 C   0  0  0  0  0  0  0  0  0  0  0  0
   57.9240   33.4120   44.2260 N   0  0  0  0  0  0  0  0  0  0  0  0
   58.1620   34.5940   45.0720 C   0  0  0  0  0  0  0  0  0  0  0  0
   59.1060   34.2680   46.2010 C   0  0  0  0  0  0  0  0  0  0  0  0
   60.2320   33.4580   45.9790 C   0  0  0  0  0  0  0  0  0  0  0  0
   61.1530   33.2360   47.0060 C   0  0  0  0  0  0  0  0  0  0  0  0
   60.9460   33.7930   48.2770 C   0  0  0  0  0  0  0  0  0  0  0  0
   61.9380   33.5990   49.3530 C   0  0  0  0  0  0  0  0  0  0  0  0
   63.2880   33.8670   49.0700 C   0  0  0  0  0  0  0  0  0  0  0  0
   64.2690   33.6730   50.0440 C   0  0  0  0  0  0  0  0  0  0  0  0
   63.9140   33.2170   51.3120 C   0  0  0  0  0  0  0  0  0  0  0  0
   62.5750   32.9630   51.6160 C   0  0  0  0  0  0  0  0  0  0  0  0
   61.5720   33.1600   50.6520 C   0  0  0  0  0  0  0  0  0  0  0  0
   59.8840   32.9050   51.1210 S   0  0  0  0  0  0  0  0  0  0  0  0
   59.7930   31.8220   52.4670 N   0  0  0  0  0  0  0  0  0  0  0  0
   59.2550   34.2190   51.4860 O   0  0  0  0  0  0  0  0  0  0  0  0
   59.1210   32.3010   49.9740 O   0  0  0  0  0  0  0  0  0  0  0  0
   59.8090   34.5840   48.5050 C   0  0  0  0  0  0  0  0  0  0  0  0
   58.8920   34.8120   47.4760 C   0  0  0  0  0  0  0  0  0  0  0  0
   58.2790   31.0360   46.5710 C   0  0  0  0  0  0  0  0  0  0  0  0
   58.8670   29.4520   49.3680 C   0  0  0  0  0  0  0  0  0  0  0  0
   59.3990   29.3710   50.6160 N   0  0  0  0  0  0  0  0  0  0  0  0
   62.7967   29.4638   53.5008 H   0  0  0  0  0  0  0  0  0  0  0  0
   63.0172   28.5476   51.9715 H   0  0  0  0  0  0  0  0  0  0  0  0
   63.1456   30.3393   51.9715 H   0  0  0  0  0  0  0  0  0  0  0  0
   62.5980   30.2805   49.9953 H   0  0  0  0  0  0  0  0  0  0  0  0
   61.6697   30.4301   47.6825 H   0  0  0  0  0  0  0  0  0  0  0  0
   60.0287   28.1192   46.1914 H   0  0  0  0  0  0  0  0  0  0  0  0
   59.1253   28.3479   43.8812 H   0  0  0  0  0  0  0  0  0  0  0  0
   57.7091   30.3068   43.2758 H   0  0  0  0  0  0  0  0  0  0  0  0
   56.2440   32.1443   44.1518 H   0  0  0  0  0  0  0  0  0  0  0  0
   56.6034   32.8734   45.7665 H   0  0  0  0  0  0  0  0  0  0  0  0
   57.4450   33.7460   43.3560 H   0  0  0  0  0  0  0  0  0  0  0  0
   58.5992   35.3945   44.4571 H   0  0  0  0  0  0  0  0  0  0  0  0
   57.2019   34.9181   45.5000 H   0  0  0  0  0  0  0  0  0  0  0  0
   60.3893   32.9967   44.9929 H   0  0  0  0  0  0  0  0  0  0  0  0
   62.0453   32.6211   46.8170 H   0  0  0  0  0  0  0  0  0  0  0  0
   63.5741   34.2327   48.0728 H   0  0  0  0  0  0  0  0  0  0  0  0
   65.3237   33.8804   49.8102 H   0  0  0  0  0  0  0  0  0  0  0  0
   64.6901   33.0568   52.0749 H   0  0  0  0  0  0  0  0  0  0  0  0
   62.3028   32.6052   52.6199 H   0  0  0  0  0  0  0  0  0  0  0  0
   59.4160   30.9170   52.1070 H   0  0  0  0  0  0  0  0  0  0  0  0
   60.7740   31.6390   52.7760 H   0  0  0  0  0  0  0  0  0  0  0  0
   59.6394   35.0261   49.4979 H   0  0  0  0  0  0  0  0  0  0  0  0
   57.9967   35.4219   47.6669 H   0  0  0  0  0  0  0  0  0  0  0  0
   58.0119   31.7791   47.3368 H   0  0  0  0  0  0  0  0  0  0  0  0
   57.8040   29.2171   49.2104 H   0  0  0  0  0  0  0  0  0  0  0  0
  1  2  1  0
  2  3  1  0
  3  4  2  0
  4  5  1  0
  5  6  2  0
  6  7  1  0
  7  8  2  0
  8  9  1  0
  9 10  2  0
 10 11  1  0
 11 12  1  0
 12 13  1  0
 13 14  1  0
 14 15  1  0
 15 16  2  0
 16 17  1  0
 17 18  2  0
 18 19  1  0
 19 20  2  0
 20 21  1  0
 21 22  2  0
 22 23  1  0
 23 24  2  0
 24 25  1  0
 25 26  1  0
 25 27  2  0
 25 28  2  0
 18 29  1  0
 29 30  2  0
 11 31  2  0
  6 32  1  0
 32 33  2  0
 33  3  1  0
 31  7  1  0
 30 15  1  0
 24 19  1  0
  1 34  1  0
  1 35  1  0
  1 36  1  0
  4 37  1  0
  5 38  1  0
  8 39  1  0
  9 40  1  0
 10 41  1  0
 12 42  1  0
 12 43  1  0
 13 44  1  0
 14 45  1  0
 14 46  1  0
 16 47  1  0
 17 48  1  0
 20 49  1  0
 21 50  1  0
 22 51  1  0
 23 52  1  0
 26 53  1  0
 26 54  1  0
 29 55  1  0
 30 56  1  0
 31 57  1  0
 32 58  1  0
M  END
>  <UniqueID>  (82) 
72

>  <SMILES>  (82) 
COc1ccc(-c2cccc(CNCc3ccc(-c4ccccc4S(N)(=O)=O)cc3)c2)cn1

>  <Energy>  (82) 
66.16116868184737

>  <Genealogy>  (82) 
COc1ccc(-c2cccc(CNCc3ccc(-c4ccccc4S(N)(=O)=O)cc3)c2)cn1 (3D coordinates assigned)
COc1ccc(-c2cccc(CNCc3ccc(-c4ccccc4S(N)(=O)=O)cc3)c2)cn1 (optimized conformer: 66.16116868184737 kcal/mol)

>  <smiles>  (82) 
COc1ccc(-c2cccc(CNCc3ccc(-c4ccccc4S(N)(=O)=O)cc3)c2)cn1

>  <score_type>  (82) 
oracle

>  <origin>  (82) 
adg

>  <m_score__min__energy>  (82) 
-8.9499999999999993

>  <m_primary>  (82) 
energy

$$$$
82:0
     RDKit          3D

 54 55  0  0  0  0  0  0  0  0999 V2000
   58.0540   33.2680   44.2040 C   0  0  0  0  0  0  0  0  0  0  0  0
   58.7390   33.4250   45.5290 C   0  0  0  0  0  0  0  0  0  0  0  0
   58.6010   34.6150   46.2590 C   0  0  0  0  0  0  0  0  0  0  0  0
   59.2720   34.7760   47.4740 C   0  0  0  0  0  0  0  0  0  0  0  0
   60.1000   33.7600   47.9590 C   0  0  0  0  0  0  0  0  0  0  0  0
   60.2680   32.5730   47.2280 C   0  0  0  0  0  0  0  0  0  0  0  0
   61.1820   31.4820   47.7420 C   0  0  0  0  0  0  0  0  0  0  0  0
   60.4310   30.2380   48.3230 C   0  0  0  0  0  0  0  0  0  0  0  0
   58.8970   30.4560   48.3500 C   0  0  0  0  0  0  0  0  0  0  0  0
   60.8910   29.9770   49.7750 C   0  0  0  0  0  0  0  0  0  0  0  0
   60.7620   29.0190   47.5440 N   0  0  0  0  0  0  0  0  0  0  0  0
   60.2700   27.7370   48.0850 C   0  0  0  0  0  0  0  0  0  0  0  0
   60.0100   26.7600   46.9260 C   0  0  2  0  0  0  0  0  0  0  0  0
   60.7450   27.1070   45.7760 O   0  0  0  0  0  0  0  0  0  0  0  0
   58.5310   26.6580   46.6060 C   0  0  0  0  0  0  0  0  0  0  0  0
   57.8020   25.5300   47.0120 C   0  0  0  0  0  0  0  0  0  0  0  0
   56.4390   25.4310   46.7310 C   0  0  0  0  0  0  0  0  0  0  0  0
   55.7850   26.4530   46.0380 C   0  0  0  0  0  0  0  0  0  0  0  0
   54.4280   26.3230   45.7620 O   0  0  0  0  0  0  0  0  0  0  0  0
   56.4940   27.5940   45.6180 C   0  0  0  0  0  0  0  0  0  0  0  0
   55.8080   28.6400   44.9050 N   0  0  0  0  0  0  0  0  0  0  0  0
   56.5940   30.0450   44.2540 S   0  0  0  0  0  0  0  0  0  0  0  0
   56.4440   30.0680   42.4790 C   0  0  0  0  0  0  0  0  0  0  0  0
   58.0410   30.0580   44.6580 O   0  0  0  0  0  0  0  0  0  0  0  0
   55.9250   31.2750   44.8040 O   0  0  0  0  0  0  0  0  0  0  0  0
   57.8650   27.6930   45.9230 C   0  0  0  0  0  0  0  0  0  0  0  0
   59.5810   32.4120   46.0120 C   0  0  0  0  0  0  0  0  0  0  0  0
   56.9935   33.0249   44.3660 H   0  0  0  0  0  0  0  0  0  0  0  0
   58.1324   34.2074   43.6371 H   0  0  0  0  0  0  0  0  0  0  0  0
   58.5337   32.4565   43.6371 H   0  0  0  0  0  0  0  0  0  0  0  0
   57.9627   35.4238   45.8737 H   0  0  0  0  0  0  0  0  0  0  0  0
   59.1482   35.7048   48.0502 H   0  0  0  0  0  0  0  0  0  0  0  0
   60.6226   33.8908   48.9180 H   0  0  0  0  0  0  0  0  0  0  0  0
   61.8177   31.1440   46.9103 H   0  0  0  0  0  0  0  0  0  0  0  0
   61.7604   31.9177   48.5701 H   0  0  0  0  0  0  0  0  0  0  0  0
   58.5519   30.5050   49.3933 H   0  0  0  0  0  0  0  0  0  0  0  0
   58.6515   31.3981   47.8379 H   0  0  0  0  0  0  0  0  0  0  0  0
   58.3987   29.6196   47.8379 H   0  0  0  0  0  0  0  0  0  0  0  0
   60.1526   30.3960   50.4745 H   0  0  0  0  0  0  0  0  0  0  0  0
   60.9807   28.8935   49.9421 H   0  0  0  0  0  0  0  0  0  0  0  0
   61.8671   30.4558   49.9421 H   0  0  0  0  0  0  0  0  0  0  0  0
   60.4060   29.1240   46.5620 H   0  0  0  0  0  0  0  0  0  0  0  0
   61.0247   27.3106   48.7622 H   0  0  0  0  0  0  0  0  0  0  0  0
   59.3353   27.9066   48.6395 H   0  0  0  0  0  0  0  0  0  0  0  0
   60.3554   25.7702   47.2591 H   0  0  0  0  0  0  0  0  0  0  0  0
   61.3690   27.8410   46.0140 H   0  0  0  0  0  0  0  0  0  0  0  0
   58.3083   24.7186   47.5553 H   0  0  0  0  0  0  0  0  0  0  0  0
   55.8763   24.5437   47.0567 H   0  0  0  0  0  0  0  0  0  0  0  0
   54.8040   28.5120   44.6510 H   0  0  0  0  0  0  0  0  0  0  0  0
   55.3917   30.2294   42.2020 H   0  0  0  0  0  0  0  0  0  0  0  0
   57.0599   30.8822   42.0695 H   0  0  0  0  0  0  0  0  0  0  0  0
   56.7877   29.1067   42.0695 H   0  0  0  0  0  0  0  0  0  0  0  0
   58.4236   28.5920   45.6233 H   0  0  0  0  0  0  0  0  0  0  0  0
   59.7047   31.4840   45.4344 H   0  0  0  0  0  0  0  0  0  0  0  0
  1  2  1  0
  2  3  2  0
  3  4  1  0
  4  5  2  0
  5  6  1  0
  6  7  1  0
  7  8  1  0
  8  9  1  0
  8 10  1  0
  8 11  1  0
 11 12  1  0
 12 13  1  0
 13 14  1  0
 13 15  1  0
 15 16  2  0
 16 17  1  0
 17 18  2  0
 18 19  1  0
 18 20  1  0
 20 21  1  0
 21 22  1  0
 22 23  1  0
 22 24  2  0
 22 25  2  0
 20 26  2  0
  6 27  2  0
 27  2  1  0
 26 15  1  0
  1 28  1  0
  1 29  1  0
  1 30  1  0
  3 31  1  0
  4 32  1  0
  5 33  1  0
  7 34  1  0
  7 35  1  0
  9 36  1  0
  9 37  1  0
  9 38  1  0
 10 39  1  0
 10 40  1  0
 10 41  1  0
 11 42  1  0
 12 43  1  0
 12 44  1  0
 13 45  1  1
 14 46  1  0
 16 47  1  0
 17 48  1  0
 21 49  1  0
 23 50  1  0
 23 51  1  0
 23 52  1  0
 26 53  1  0
 27 54  1  0
M  CHG  1  19  -1
M  END
>  <UniqueID>  (83) 
73

>  <SMILES>  (83) 
Cc1cccc(CC(C)(C)NC[C@H](O)c2ccc([O-])c(NS(C)(=O)=O)c2)c1

>  <Energy>  (83) 
55.01963628546694

>  <Genealogy>  (83) 
Cc1cccc(CC(C)(C)NCC(O)c2ccc([O-])c(NS(C)(=O)=O)c2)c1 (protonated)
Cc1cccc(CC(C)(C)NC[C@H](O)c2ccc([O-])c(NS(C)(=O)=O)c2)c1 (chirality)
Cc1cccc(CC(C)(C)NC[C@H](O)c2ccc([O-])c(NS(C)(=O)=O)c2)c1 (3D coordinates assigned)
Cc1cccc(CC(C)(C)NC[C@H](O)c2ccc([O-])c(NS(C)(=O)=O)c2)c1 (optimized conformer: 55.01963628546694 kcal/mol)

>  <smiles>  (83) 
Cc1cccc(CC(C)(C)NCC(O)c2ccc(O)c(NS(C)(=O)=O)c2)c1

>  <score_type>  (83) 
oracle

>  <origin>  (83) 
adg

>  <m_score__min__energy>  (83) 
-12.41

>  <m_primary>  (83) 
energy

$$$$
83:0
     RDKit          3D

 47 50  0  0  0  0  0  0  0  0999 V2000
   55.1520   29.3850   44.8950 O   0  0  0  0  0  0  0  0  0  0  0  0
   56.4070   29.5010   44.8330 C   0  0  0  0  0  0  0  0  0  0  0  0
   57.2440   28.6130   45.5800 N   0  0  0  0  0  0  0  0  0  0  0  0
   58.6810   28.4790   45.3650 C   0  0  0  0  0  0  0  0  0  0  0  0
   59.3770   28.1700   46.6630 C   0  0  0  0  0  0  0  0  0  0  0  0
   59.2370   29.0370   47.7590 C   0  0  0  0  0  0  0  0  0  0  0  0
   59.8650   28.7440   48.9730 C   0  0  0  0  0  0  0  0  0  0  0  0
   60.6330   27.5840   49.1030 C   0  0  0  0  0  0  0  0  0  0  0  0
   60.7730   26.7130   48.0190 C   0  0  0  0  0  0  0  0  0  0  0  0
   60.1450   27.0020   46.8030 C   0  0  0  0  0  0  0  0  0  0  0  0
   57.0010   30.5940   44.0380 C   0  0  0  0  0  0  0  0  0  0  0  0
   56.9350   30.5460   42.6290 C   0  0  0  0  0  0  0  0  0  0  0  0
   57.4460   31.5970   41.8460 C   0  0  0  0  0  0  0  0  0  0  0  0
   58.0390   32.7120   42.4530 C   0  0  0  0  0  0  0  0  0  0  0  0
   58.1150   32.7530   43.8440 C   0  0  0  0  0  0  0  0  0  0  0  0
   57.6180   31.7200   44.6190 C   0  0  0  0  0  0  0  0  0  0  0  0
   57.9560   32.0460   45.9940 C   0  0  0  0  0  0  0  0  0  0  0  0
   57.7780   31.3100   46.9990 O   0  0  0  0  0  0  0  0  0  0  0  0
   58.6100   33.3090   46.0450 N   0  0  0  0  0  0  0  0  0  0  0  0
   59.2260   33.9020   47.2290 C   0  0  0  0  0  0  0  0  0  0  0  0
   60.5290   33.2140   47.5320 C   0  0  0  0  0  0  0  0  0  0  0  0
   60.5940   32.2140   48.5160 C   0  0  0  0  0  0  0  0  0  0  0  0
   61.7990   31.5510   48.7680 C   0  0  0  0  0  0  0  0  0  0  0  0
   62.9440   31.8760   48.0380 C   0  0  0  0  0  0  0  0  0  0  0  0
   62.8900   32.8630   47.0480 C   0  0  0  0  0  0  0  0  0  0  0  0
   64.0380   33.1740   46.3230 O   0  0  0  0  0  0  0  0  0  0  0  0
   61.6820   33.5290   46.7940 C   0  0  0  0  0  0  0  0  0  0  0  0
   58.7620   33.8170   44.6810 C   0  0  0  0  0  0  0  0  0  0  0  0
   58.8665   27.6633   44.6507 H   0  0  0  0  0  0  0  0  0  0  0  0
   59.0728   29.4261   44.9657 H   0  0  0  0  0  0  0  0  0  0  0  0
   58.6310   29.9499   47.6617 H   0  0  0  0  0  0  0  0  0  0  0  0
   59.7544   29.4279   49.8275 H   0  0  0  0  0  0  0  0  0  0  0  0
   61.1276   27.3562   50.0588 H   0  0  0  0  0  0  0  0  0  0  0  0
   61.3774   25.7997   48.1221 H   0  0  0  0  0  0  0  0  0  0  0  0
   60.2529   26.3121   45.9531 H   0  0  0  0  0  0  0  0  0  0  0  0
   56.4779   29.6751   42.1365 H   0  0  0  0  0  0  0  0  0  0  0  0
   57.3796   31.5431   40.7493 H   0  0  0  0  0  0  0  0  0  0  0  0
   58.4362   33.5377   41.8444 H   0  0  0  0  0  0  0  0  0  0  0  0
   59.4125   34.9705   47.0458 H   0  0  0  0  0  0  0  0  0  0  0  0
   58.5474   33.7827   48.0865 H   0  0  0  0  0  0  0  0  0  0  0  0
   59.6935   31.9514   49.0906 H   0  0  0  0  0  0  0  0  0  0  0  0
   61.8450   30.7717   49.5430 H   0  0  0  0  0  0  0  0  0  0  0  0
   63.8909   31.3547   48.2418 H   0  0  0  0  0  0  0  0  0  0  0  0
   64.8930   32.6410   46.4300 H   0  0  0  0  0  0  0  0  0  0  0  0
   61.6373   34.3021   46.0127 H   0  0  0  0  0  0  0  0  0  0  0  0
   58.2472   34.7815   44.5598 H   0  0  0  0  0  0  0  0  0  0  0  0
   59.8102   34.0045   44.4051 H   0  0  0  0  0  0  0  0  0  0  0  0
  1  2  2  0
  2  3  1  0
  3  4  1  0
  4  5  1  0
  5  6  2  0
  6  7  1  0
  7  8  2  0
  8  9  1  0
  9 10  2  0
  2 11  1  0
 11 12  2  0
 12 13  1  0
 13 14  2  0
 14 15  1  0
 15 16  2  0
 16 17  1  0
 17 18  2  0
 17 19  1  0
 19 20  1  0
 20 21  1  0
 21 22  2  0
 22 23  1  0
 23 24  2  0
 24 25  1  0
 25 26  1  0
 25 27  2  0
 19 28  1  0
 10  5  1  0
 16 11  1  0
 27 21  1  0
 28 15  1  0
  4 29  1  0
  4 30  1  0
  6 31  1  0
  7 32  1  0
  8 33  1  0
  9 34  1  0
 10 35  1  0
 12 36  1  0
 13 37  1  0
 14 38  1  0
 20 39  1  0
 20 40  1  0
 22 41  1  0
 23 42  1  0
 24 43  1  0
 26 44  1  0
 27 45  1  0
 28 46  1  0
 28 47  1  0
M  CHG  1   3  -1
M  END
>  <UniqueID>  (84) 
74

>  <SMILES>  (84) 
O=C([N-]Cc1ccccc1)c1cccc2c1C(=O)N(Cc1cccc(O)c1)C2

>  <Energy>  (84) 
72.35033906285962

>  <Genealogy>  (84) 
O=C([N-]Cc1ccccc1)c1cccc2c1C(=O)N(Cc1cccc(O)c1)C2 (protonated)
O=C([N-]Cc1ccccc1)c1cccc2c1C(=O)N(Cc1cccc(O)c1)C2 (3D coordinates assigned)
O=C([N-]Cc1ccccc1)c1cccc2c1C(=O)N(Cc1cccc(O)c1)C2 (nonaromatic ring conformer: 72.35033906285962 kcal/mol)

>  <smiles>  (84) 
O=C(NCc1ccccc1)c1cccc2c1C(=O)N(Cc1cccc(O)c1)C2

>  <score_type>  (84) 
oracle

>  <origin>  (84) 
adg

>  <m_score__min__energy>  (84) 
-12.02

>  <m_primary>  (84) 
energy

$$$$
84:0
     RDKit          3D

 70 73  0  0  0  0  0  0  0  0999 V2000
   57.7210   19.8530   47.5950 C   0  0  0  0  0  0  0  0  0  0  0  0
   57.3490   21.0730   48.2240 O   0  0  0  0  0  0  0  0  0  0  0  0
   56.1180   21.6970   47.9920 C   0  0  0  0  0  0  0  0  0  0  0  0
   54.9510   21.1310   48.5060 C   0  0  0  0  0  0  0  0  0  0  0  0
   53.7370   21.7740   48.2670 C   0  0  0  0  0  0  0  0  0  0  0  0
   53.7100   22.9240   47.5470 N   0  0  0  0  0  0  0  0  0  0  0  0
   54.8580   23.4730   47.0550 C   0  0  0  0  0  0  0  0  0  0  0  0
   54.8380   24.5630   46.3440 N   0  0  0  0  0  0  0  0  0  0  0  0
   55.9380   25.1490   45.6300 C   0  0  0  0  0  0  0  0  0  0  0  0
   56.6230   26.2570   46.1640 C   0  0  0  0  0  0  0  0  0  0  0  0
   57.6770   26.8620   45.4620 C   0  0  0  0  0  0  0  0  0  0  0  0
   58.4190   28.0080   46.0510 C   0  0  0  0  0  0  0  0  0  0  0  0
   59.1290   27.8560   47.2540 C   0  0  0  0  0  0  0  0  0  0  0  0
   59.7810   28.9500   47.8440 C   0  0  0  0  0  0  0  0  0  0  0  0
   60.4930   28.7850   49.1630 C   0  0  0  0  0  0  0  0  0  0  0  0
   60.5720   30.1160   49.9240 C   0  0  0  0  0  0  0  0  0  0  0  0
   61.7440   30.9080   49.5120 N   0  0  0  0  0  0  0  0  0  0  0  0
   61.6130   32.3410   49.8270 C   0  0  0  0  0  0  0  0  0  0  0  0
   61.0630   33.1310   48.6630 C   0  0  0  0  0  0  0  0  0  0  0  0
   59.8500   33.8310   48.7920 C   0  0  0  0  0  0  0  0  0  0  0  0
   59.3360   34.5550   47.7120 C   0  0  0  0  0  0  0  0  0  0  0  0
   60.0260   34.5830   46.4960 C   0  0  0  0  0  0  0  0  0  0  0  0
   61.2300   33.8870   46.3580 C   0  0  0  0  0  0  0  0  0  0  0  0
   61.7480   33.1620   47.4370 C   0  0  0  0  0  0  0  0  0  0  0  0
   59.7000   30.2140   47.2390 C   0  0  0  0  0  0  0  0  0  0  0  0
   59.0020   30.3790   46.0320 C   0  0  0  0  0  0  0  0  0  0  0  0
   58.8780   31.6570   45.3970 N   0  0  0  0  0  0  0  0  0  0  0  0
   57.4430   32.2310   44.6090 S   0  0  0  0  0  0  0  0  0  0  0  0
   57.0170   33.8250   45.2710 C   0  0  0  0  0  0  0  0  0  0  0  0
   56.3030   31.2760   44.8400 O   0  0  0  0  0  0  0  0  0  0  0  0
   57.7000   32.3710   43.1350 O   0  0  0  0  0  0  0  0  0  0  0  0
   58.3850   29.2720   45.4360 C   0  0  0  0  0  0  0  0  0  0  0  0
   58.0390   26.3490   44.2060 C   0  0  0  0  0  0  0  0  0  0  0  0
   57.3890   25.2300   43.6840 C   0  0  0  0  0  0  0  0  0  0  0  0
   56.3700   24.5930   44.4030 C   0  0  0  0  0  0  0  0  0  0  0  0
   55.7750   23.4210   43.8210 N   0  0  0  0  0  0  0  0  0  0  0  0
   56.3840   21.8020   43.9530 S   0  0  0  0  0  0  0  0  0  0  0  0
   58.0670   21.8490   44.5220 C   0  0  0  0  0  0  0  0  0  0  0  0
   56.3330   21.1180   42.6150 O   0  0  0  0  0  0  0  0  0  0  0  0
   55.5650   21.0320   44.9540 O   0  0  0  0  0  0  0  0  0  0  0  0
   56.0450   22.8500   47.2740 N   0  0  0  0  0  0  0  0  0  0  0  0
   57.9507   19.0997   48.3630 H   0  0  0  0  0  0  0  0  0  0  0  0
   56.8909   19.4959   46.9678 H   0  0  0  0  0  0  0  0  0  0  0  0
   58.6091   20.0198   46.9678 H   0  0  0  0  0  0  0  0  0  0  0  0
   54.9878   20.1978   49.0872 H   0  0  0  0  0  0  0  0  0  0  0  0
   52.8021   21.3495   48.6617 H   0  0  0  0  0  0  0  0  0  0  0  0
   56.3277   26.6545   47.1462 H   0  0  0  0  0  0  0  0  0  0  0  0
   59.1743   26.8694   47.7384 H   0  0  0  0  0  0  0  0  0  0  0  0
   59.9465   28.0534   49.7763 H   0  0  0  0  0  0  0  0  0  0  0  0
   61.5174   28.4374   48.9637 H   0  0  0  0  0  0  0  0  0  0  0  0
   59.6599   30.6970   49.7225 H   0  0  0  0  0  0  0  0  0  0  0  0
   60.6673   29.8935   50.9970 H   0  0  0  0  0  0  0  0  0  0  0  0
   62.5960   30.5270   49.9870 H   0  0  0  0  0  0  0  0  0  0  0  0
   60.9343   32.4549   50.6851 H   0  0  0  0  0  0  0  0  0  0  0  0
   62.6159   32.7302   50.0567 H   0  0  0  0  0  0  0  0  0  0  0  0
   59.3035   33.8088   49.7464 H   0  0  0  0  0  0  0  0  0  0  0  0
   58.3882   35.1030   47.8189 H   0  0  0  0  0  0  0  0  0  0  0  0
   59.6207   35.1534   45.6473 H   0  0  0  0  0  0  0  0  0  0  0  0
   61.7709   33.9091   45.4004 H   0  0  0  0  0  0  0  0  0  0  0  0
   62.6953   32.6142   47.3247 H   0  0  0  0  0  0  0  0  0  0  0  0
   60.1858   31.0797   47.7129 H   0  0  0  0  0  0  0  0  0  0  0  0
   57.0288   33.7807   46.3700 H   0  0  0  0  0  0  0  0  0  0  0  0
   57.7470   34.5722   44.9263 H   0  0  0  0  0  0  0  0  0  0  0  0
   56.0116   34.1084   44.9263 H   0  0  0  0  0  0  0  0  0  0  0  0
   57.8666   29.3930   44.4734 H   0  0  0  0  0  0  0  0  0  0  0  0
   58.8410   26.8329   43.6292 H   0  0  0  0  0  0  0  0  0  0  0  0
   57.6804   24.8437   42.6961 H   0  0  0  0  0  0  0  0  0  0  0  0
   58.0823   21.8494   45.6219 H   0  0  0  0  0  0  0  0  0  0  0  0
   58.6053   20.9655   44.1481 H   0  0  0  0  0  0  0  0  0  0  0  0
   58.5551   22.7611   44.1481 H   0  0  0  0  0  0  0  0  0  0  0  0
  1  2  1  0
  2  3  1  0
  3  4  1  0
  4  5  2  0
  5  6  1  0
  6  7  1  0
  7  8  2  3
  8  9  1  0
  9 10  2  0
 10 11  1  0
 11 12  1  0
 12 13  2  0
 13 14  1  0
 14 15  1  0
 15 16  1  0
 16 17  1  0
 17 18  1  0
 18 19  1  0
 19 20  2  0
 20 21  1  0
 21 22  2  0
 22 23  1  0
 23 24  2  0
 14 25  2  0
 25 26  1  0
 26 27  1  0
 27 28  1  0
 28 29  1  0
 28 30  2  0
 28 31  2  0
 26 32  2  0
 11 33  2  0
 33 34  1  0
 34 35  2  0
 35 36  1  0
 36 37  1  0
 37 38  1  0
 37 39  2  0
 37 40  2  0
  7 41  1  0
 41  3  2  0
 35  9  1  0
 32 12  1  0
 24 19  1  0
  1 42  1  0
  1 43  1  0
  1 44  1  0
  4 45  1  0
  5 46  1  0
 10 47  1  0
 13 48  1  0
 15 49  1  0
 15 50  1  0
 16 51  1  0
 16 52  1  0
 17 53  1  0
 18 54  1  0
 18 55  1  0
 20 56  1  0
 21 57  1  0
 22 58  1  0
 23 59  1  0
 24 60  1  0
 25 61  1  0
 29 62  1  0
 29 63  1  0
 29 64  1  0
 32 65  1  0
 33 66  1  0
 34 67  1  0
 38 68  1  0
 38 69  1  0
 38 70  1  0
M  CHG  3   6  -1  27  -1  36  -1
M  END
>  <UniqueID>  (85) 
75

>  <SMILES>  (85) 
COc1cc[n-]c(=Nc2cc(-c3cc(CCNCc4ccccc4)cc([N-]S(C)(=O)=O)c3)ccc2[N-]S(C)(=O)=O)n1

>  <Energy>  (85) 
85.37582785508997

>  <Genealogy>  (85) 
COc1cc[n-]c(=Nc2cc(-c3cc(CCNCc4ccccc4)cc([N-]S(C)(=O)=O)c3)ccc2[N-]S(C)(=O)=O)n1 (protonated)
COc1cc[n-]c(=Nc2cc(-c3cc(CCNCc4ccccc4)cc([N-]S(C)(=O)=O)c3)ccc2[N-]S(C)(=O)=O)n1 (3D coordinates assigned)
COc1cc[n-]c(=Nc2cc(-c3cc(CCNCc4ccccc4)cc([N-]S(C)(=O)=O)c3)ccc2[N-]S(C)(=O)=O)n1 (optimized conformer: 85.37582785508997 kcal/mol)

>  <smiles>  (85) 
COc1cc[nH]c(=Nc2cc(-c3cc(CCNCc4ccccc4)cc(NS(C)(=O)=O)c3)ccc2NS(C)(=O)=O)n1

>  <score_type>  (85) 
oracle

>  <origin>  (85) 
adg

>  <m_score__min__energy>  (85) 
-14.550000000000001

>  <m_primary>  (85) 
energy

$$$$
85:0
     RDKit          3D

 48 51  0  0  0  0  0  0  0  0999 V2000
   50.1980   32.4190   48.8220 O   0  0  0  0  0  0  0  0  0  0  0  0
   50.6500   31.2730   49.0840 C   0  0  0  0  0  0  0  0  0  0  0  0
   51.6260   31.0530   50.1720 C   0  0  0  0  0  0  0  0  0  0  0  0
   52.6380   30.0980   49.9870 C   0  0  0  0  0  0  0  0  0  0  0  0
   53.5830   29.8580   50.9890 C   0  0  0  0  0  0  0  0  0  0  0  0
   53.5380   30.5800   52.1920 C   0  0  0  0  0  0  0  0  0  0  0  0
   54.4590   30.3560   53.2260 O   0  0  0  0  0  0  0  0  0  0  0  0
   55.8490   30.2480   53.0680 C   0  0  0  0  0  0  0  0  0  0  0  0
   56.6270   31.3150   52.5850 C   0  0  0  0  0  0  0  0  0  0  0  0
   58.0120   31.1740   52.4550 C   0  0  0  0  0  0  0  0  0  0  0  0
   58.6410   29.9730   52.8180 C   0  0  0  0  0  0  0  0  0  0  0  0
   60.1280   29.8080   52.6400 C   0  0  0  0  0  0  0  0  0  0  0  0
   60.7440   31.0870   52.1170 C   0  0  0  0  0  0  0  0  0  0  0  0
   61.5270   31.9010   52.9500 C   0  0  0  0  0  0  0  0  0  0  0  0
   61.7890   31.5270   54.2650 O   0  0  0  0  0  0  0  0  0  0  0  0
   62.0370   33.0620   52.4730 N   0  0  0  0  0  0  0  0  0  0  0  0
   61.8080   33.4720   51.2010 C   0  0  0  0  0  0  0  0  0  0  0  0
   62.3200   34.5540   50.8070 O   0  0  0  0  0  0  0  0  0  0  0  0
   61.0420   32.7100   50.3590 N   0  0  0  0  0  0  0  0  0  0  0  0
   60.7970   33.1550   49.0080 C   0  0  0  0  0  0  0  0  0  0  0  0
   61.8110   33.0710   48.0390 C   0  0  0  0  0  0  0  0  0  0  0  0
   61.5710   33.5010   46.7300 C   0  0  0  0  0  0  0  0  0  0  0  0
   60.3190   34.0140   46.3790 C   0  0  0  0  0  0  0  0  0  0  0  0
   59.3050   34.1000   47.3380 C   0  0  0  0  0  0  0  0  0  0  0  0
   59.5410   33.6720   48.6480 C   0  0  0  0  0  0  0  0  0  0  0  0
   60.5060   31.5280   50.8020 C   0  0  0  0  0  0  0  0  0  0  0  0
   59.7850   30.8330   50.0320 O   0  0  0  0  0  0  0  0  0  0  0  0
   57.8620   28.9160   53.3160 C   0  0  0  0  0  0  0  0  0  0  0  0
   56.4790   29.0580   53.4480 C   0  0  0  0  0  0  0  0  0  0  0  0
   52.5200   31.5170   52.3900 C   0  0  0  0  0  0  0  0  0  0  0  0
   51.5710   31.7640   51.3920 C   0  0  0  0  0  0  0  0  0  0  0  0
   50.5830   32.7140   51.6270 O   0  0  0  0  0  0  0  0  0  0  0  0
   50.3096   30.4136   48.4877 H   0  0  0  0  0  0  0  0  0  0  0  0
   52.6880   29.5330   49.0445 H   0  0  0  0  0  0  0  0  0  0  0  0
   54.3651   29.1002   50.8340 H   0  0  0  0  0  0  0  0  0  0  0  0
   56.1443   32.2640   52.3084 H   0  0  0  0  0  0  0  0  0  0  0  0
   58.6123   32.0095   52.0658 H   0  0  0  0  0  0  0  0  0  0  0  0
   60.5830   29.5571   53.6095 H   0  0  0  0  0  0  0  0  0  0  0  0
   60.3123   29.0018   51.9147 H   0  0  0  0  0  0  0  0  0  0  0  0
   61.7340   32.2020   55.0200 H   0  0  0  0  0  0  0  0  0  0  0  0
   62.7968   32.6657   48.3108 H   0  0  0  0  0  0  0  0  0  0  0  0
   62.3687   33.4354   45.9755 H   0  0  0  0  0  0  0  0  0  0  0  0
   60.1314   34.3500   45.3485 H   0  0  0  0  0  0  0  0  0  0  0  0
   58.3203   34.5049   47.0614 H   0  0  0  0  0  0  0  0  0  0  0  0
   58.7406   33.7403   49.3994 H   0  0  0  0  0  0  0  0  0  0  0  0
   58.3442   27.9702   53.6039 H   0  0  0  0  0  0  0  0  0  0  0  0
   55.8809   28.2286   53.8535 H   0  0  0  0  0  0  0  0  0  0  0  0
   52.4643   32.0665   53.3413 H   0  0  0  0  0  0  0  0  0  0  0  0
  1  2  2  0
  2  3  1  0
  3  4  2  0
  4  5  1  0
  5  6  2  0
  6  7  1  0
  7  8  1  0
  8  9  2  0
  9 10  1  0
 10 11  2  0
 11 12  1  0
 12 13  1  0
 13 14  2  0
 14 15  1  0
 14 16  1  0
 16 17  1  0
 17 18  2  0
 17 19  1  0
 19 20  1  0
 20 21  2  0
 21 22  1  0
 22 23  2  0
 23 24  1  0
 24 25  2  0
 19 26  1  0
 26 27  2  0
 11 28  1  0
 28 29  2  0
  6 30  1  0
 30 31  2  0
 31 32  1  0
 31  3  1  0
 29  8  1  0
 26 13  1  0
 25 20  1  0
  2 33  1  0
  4 34  1  0
  5 35  1  0
  9 36  1  0
 10 37  1  0
 12 38  1  0
 12 39  1  0
 15 40  1  0
 21 41  1  0
 22 42  1  0
 23 43  1  0
 24 44  1  0
 25 45  1  0
 28 46  1  0
 29 47  1  0
 30 48  1  0
M  CHG  2  16  -1  32  -1
M  END
>  <UniqueID>  (86) 
76

>  <SMILES>  (86) 
O=Cc1ccc(Oc2ccc(Cc3c(O)[n-]c(=O)n(-c4ccccc4)c3=O)cc2)cc1[O-]

>  <Energy>  (86) 
71.54399448548018

>  <Genealogy>  (86) 
O=Cc1ccc(Oc2ccc(Cc3c(O)[n-]c(=O)n(-c4ccccc4)c3=O)cc2)cc1[O-] (protonated)
O=Cc1ccc(Oc2ccc(Cc3c(O)[n-]c(=O)n(-c4ccccc4)c3=O)cc2)cc1[O-] (3D coordinates assigned)
O=Cc1ccc(Oc2ccc(Cc3c(O)[n-]c(=O)n(-c4ccccc4)c3=O)cc2)cc1[O-] (optimized conformer: 71.54399448548018 kcal/mol)

>  <smiles>  (86) 
O=Cc1ccc(Oc2ccc(Cc3c(O)[nH]c(=O)n(-c4ccccc4)c3=O)cc2)cc1O

>  <score_type>  (86) 
oracle

>  <origin>  (86) 
adg

>  <m_score__min__energy>  (86) 
-12.109999999999999

>  <m_primary>  (86) 
energy

$$$$
86:0
     RDKit          3D

 41 44  0  0  0  0  0  0  0  0999 V2000
   57.6360   33.6810   45.0050 C   0  0  0  0  0  0  0  0  0  0  0  0
   57.4020   32.2660   45.1690 N   0  0  0  0  0  0  0  0  0  0  0  0
   57.4000   31.5440   43.9300 C   0  0  0  0  0  0  0  0  0  0  0  0
   57.0020   30.1180   44.1820 C   0  0  0  0  0  0  0  0  0  0  0  0
   57.8790   29.5330   45.1940 N   0  0  0  0  0  0  0  0  0  0  0  0
   57.7990   28.1620   45.5390 C   0  0  0  0  0  0  0  0  0  0  0  0
   57.5760   27.2640   44.5180 C   0  0  0  0  0  0  0  0  0  0  0  0
   57.4860   25.9120   44.7770 C   0  0  0  0  0  0  0  0  0  0  0  0
   57.2670   25.0460   43.7510 N   0  0  0  0  0  0  0  0  0  0  0  0
   57.1760   23.7170   43.9930 C   0  0  0  0  0  0  0  0  0  0  0  0
   56.9590   22.8410   42.9940 N   0  0  0  0  0  0  0  0  0  0  0  0
   56.8690   21.5200   43.2330 C   0  0  0  0  0  0  0  0  0  0  0  0
   56.6650   20.7120   42.2830 O   0  0  0  0  0  0  0  0  0  0  0  0
   56.9970   21.0510   44.4890 N   0  0  0  0  0  0  0  0  0  0  0  0
   57.2160   21.8620   45.5470 C   0  0  0  0  0  0  0  0  0  0  0  0
   57.3360   21.4230   46.7240 O   0  0  0  0  0  0  0  0  0  0  0  0
   57.3040   23.2160   45.2700 C   0  0  0  0  0  0  0  0  0  0  0  0
   57.5300   24.0830   46.3410 C   0  0  0  0  0  0  0  0  0  0  0  0
   57.6610   23.5800   47.6450 O   0  0  0  0  0  0  0  0  0  0  0  0
   57.6210   25.4400   46.0870 C   0  0  0  0  0  0  0  0  0  0  0  0
   57.8470   26.3400   47.1340 C   0  0  0  0  0  0  0  0  0  0  0  0
   57.9290   27.6840   46.8240 C   0  0  0  0  0  0  0  0  0  0  0  0
   58.1480   28.5560   47.8340 F   0  0  0  0  0  0  0  0  0  0  0  0
   58.8410   30.3720   45.8470 C   0  0  0  0  0  0  0  0  0  0  0  0
   58.1750   31.6760   46.2130 C   0  0  0  0  0  0  0  0  0  0  0  0
   57.7147   34.1566   45.9937 H   0  0  0  0  0  0  0  0  0  0  0  0
   58.5719   33.8358   44.4482 H   0  0  0  0  0  0  0  0  0  0  0  0
   56.7997   34.1288   44.4482 H   0  0  0  0  0  0  0  0  0  0  0  0
   56.6830   32.0077   43.2366 H   0  0  0  0  0  0  0  0  0  0  0  0
   58.4071   31.5709   43.4884 H   0  0  0  0  0  0  0  0  0  0  0  0
   55.9615   30.0862   44.5374 H   0  0  0  0  0  0  0  0  0  0  0  0
   57.0910   29.5445   43.2475 H   0  0  0  0  0  0  0  0  0  0  0  0
   57.4686   27.6289   43.4859 H   0  0  0  0  0  0  0  0  0  0  0  0
   56.8530   23.1690   41.9940 H   0  0  0  0  0  0  0  0  0  0  0  0
   56.9280   20.0320   44.6700 H   0  0  0  0  0  0  0  0  0  0  0  0
   57.7670   22.5890   47.7380 H   0  0  0  0  0  0  0  0  0  0  0  0
   57.9559   25.9889   48.1708 H   0  0  0  0  0  0  0  0  0  0  0  0
   59.2082   29.8754   46.7573 H   0  0  0  0  0  0  0  0  0  0  0  0
   59.6916   30.5606   45.1755 H   0  0  0  0  0  0  0  0  0  0  0  0
   57.5097   31.4920   47.0695 H   0  0  0  0  0  0  0  0  0  0  0  0
   58.9851   32.3854   46.4377 H   0  0  0  0  0  0  0  0  0  0  0  0
  1  2  1  0
  2  3  1  0
  3  4  1  0
  4  5  1  0
  5  6  1  0
  6  7  2  0
  7  8  1  0
  8  9  2  0
  9 10  1  0
 10 11  1  0
 11 12  1  0
 12 13  2  0
 12 14  1  0
 14 15  1  0
 15 16  2  0
 15 17  1  0
 17 18  1  0
 18 19  1  0
 18 20  2  0
 20 21  1  0
 21 22  2  0
 22 23  1  0
  5 24  1  0
 24 25  1  0
 25  2  1  0
 22  6  1  0
 20  8  1  0
 17 10  2  0
  1 26  1  0
  1 27  1  0
  1 28  1  0
  3 29  1  0
  3 30  1  0
  4 31  1  0
  4 32  1  0
  7 33  1  0
 11 34  1  0
 14 35  1  0
 19 36  1  0
 21 37  1  0
 24 38  1  0
 24 39  1  0
 25 40  1  0
 25 41  1  0
M  END
>  <smiles>  (87) 
CN1CCN(c2cc3nc4[nH]c(=O)[nH]c(=O)c4c(O)c3cc2F)CC1

>  <score_type>  (87) 
oracle

>  <origin>  (87) 
adg

>  <m_score__min__energy>  (87) 
-7.8300000000000001

>  <m_primary>  (87) 
energy

$$$$
87:0
     RDKit          3D

 54 56  0  0  0  0  0  0  0  0999 V2000
   55.2980   29.3820   44.8750 O   0  0  0  0  0  0  0  0  0  0  0  0
   56.3360   30.0010   44.5210 C   0  0  0  0  0  0  0  0  0  0  0  0
   57.5830   29.2140   44.2290 C   0  0  0  0  0  0  0  0  0  0  0  0
   58.6170   29.0580   45.7270 S   0  0  0  0  0  0  0  0  0  0  0  0
   57.9590   27.4510   46.2190 C   0  0  0  0  0  0  0  0  0  0  0  0
   56.8010   26.9760   45.5900 C   0  0  0  0  0  0  0  0  0  0  0  0
   56.2940   25.7120   45.9040 C   0  0  0  0  0  0  0  0  0  0  0  0
   56.9390   24.9160   46.8520 C   0  0  0  0  0  0  0  0  0  0  0  0
   58.0830   25.3870   47.5000 C   0  0  0  0  0  0  0  0  0  0  0  0
   58.5940   26.6590   47.2010 C   0  0  0  0  0  0  0  0  0  0  0  0
   59.7940   27.1330   47.9160 C   0  0  0  0  0  0  0  0  0  0  0  0
   60.9110   26.6120   47.6570 O   0  0  0  0  0  0  0  0  0  0  0  0
   59.7170   28.1590   48.9090 N   0  0  0  0  0  0  0  0  0  0  0  0
   60.7810   29.1250   49.1690 C   0  0  0  0  0  0  0  0  0  0  0  0
   60.8060   30.2000   48.0770 C   0  0  0  0  0  0  0  0  0  0  0  0
   61.3700   31.5420   48.5710 C   0  0  0  0  0  0  0  0  0  0  0  0
   62.8490   31.5630   48.4750 N   0  0  0  0  0  0  0  0  0  0  0  0
   63.3290   31.9540   47.1270 C   0  0  0  0  0  0  0  0  0  0  0  0
   63.6140   33.4660   47.0180 C   0  0  0  0  0  0  0  0  0  0  0  0
   62.8100   34.1890   47.9260 O   0  0  0  0  0  0  0  0  0  0  0  0
   63.2070   33.9110   49.2590 C   0  0  0  0  0  0  0  0  0  0  0  0
   63.4620   32.4060   49.5180 C   0  0  0  0  0  0  0  0  0  0  0  0
   56.3240   31.4350   44.5380 N   0  0  0  0  0  0  0  0  0  0  0  0
   57.3610   32.2860   45.0420 C   0  0  0  0  0  0  0  0  0  0  0  0
   57.8010   32.1140   46.3610 C   0  0  0  0  0  0  0  0  0  0  0  0
   58.8050   32.9370   46.8810 C   0  0  0  0  0  0  0  0  0  0  0  0
   59.3490   33.9590   46.0990 C   0  0  0  0  0  0  0  0  0  0  0  0
   60.3170   34.7600   46.6090 F   0  0  0  0  0  0  0  0  0  0  0  0
   58.8840   34.1650   44.7970 C   0  0  0  0  0  0  0  0  0  0  0  0
   57.8850   33.3380   44.2710 C   0  0  0  0  0  0  0  0  0  0  0  0
   57.3020   28.2099   43.8785 H   0  0  0  0  0  0  0  0  0  0  0  0
   58.1601   29.7418   43.4555 H   0  0  0  0  0  0  0  0  0  0  0  0
   56.2878   27.6014   44.8447 H   0  0  0  0  0  0  0  0  0  0  0  0
   55.3860   25.3442   45.4037 H   0  0  0  0  0  0  0  0  0  0  0  0
   56.5457   23.9164   47.0890 H   0  0  0  0  0  0  0  0  0  0  0  0
   58.5860   24.7574   48.2487 H   0  0  0  0  0  0  0  0  0  0  0  0
   60.6060   29.6031   50.1441 H   0  0  0  0  0  0  0  0  0  0  0  0
   61.7470   28.5988   49.1735 H   0  0  0  0  0  0  0  0  0  0  0  0
   61.4309   29.8414   47.2458 H   0  0  0  0  0  0  0  0  0  0  0  0
   59.7666   30.3748   47.7622 H   0  0  0  0  0  0  0  0  0  0  0  0
   60.9577   32.3544   47.9546 H   0  0  0  0  0  0  0  0  0  0  0  0
   61.0848   31.6759   49.6249 H   0  0  0  0  0  0  0  0  0  0  0  0
   64.2561   31.4035   46.9091 H   0  0  0  0  0  0  0  0  0  0  0  0
   62.5353   31.7102   46.4055 H   0  0  0  0  0  0  0  0  0  0  0  0
   64.6739   33.6517   47.2462 H   0  0  0  0  0  0  0  0  0  0  0  0
   63.3816   33.7983   45.9955 H   0  0  0  0  0  0  0  0  0  0  0  0
   64.1340   34.4641   49.4703 H   0  0  0  0  0  0  0  0  0  0  0  0
   62.3819   34.2208   49.9172 H   0  0  0  0  0  0  0  0  0  0  0  0
   64.5469   32.2251   49.5309 H   0  0  0  0  0  0  0  0  0  0  0  0
   63.0075   32.1419   50.4843 H   0  0  0  0  0  0  0  0  0  0  0  0
   57.3553   31.3290   46.9896 H   0  0  0  0  0  0  0  0  0  0  0  0
   59.1671   32.7794   47.9077 H   0  0  0  0  0  0  0  0  0  0  0  0
   59.3035   34.9775   44.1855 H   0  0  0  0  0  0  0  0  0  0  0  0
   57.5090   33.5116   43.2519 H   0  0  0  0  0  0  0  0  0  0  0  0
  1  2  2  0
  2  3  1  0
  3  4  1  0
  4  5  1  0
  5  6  2  0
  6  7  1  0
  7  8  2  0
  8  9  1  0
  9 10  2  0
 10 11  1  0
 11 12  2  0
 11 13  1  0
 13 14  1  0
 14 15  1  0
 15 16  1  0
 16 17  1  0
 17 18  1  0
 18 19  1  0
 19 20  1  0
 20 21  1  0
 21 22  1  0
  2 23  1  0
 23 24  1  0
 24 25  2  0
 25 26  1  0
 26 27  2  0
 27 28  1  0
 27 29  1  0
 29 30  2  0
 10  5  1  0
 22 17  1  0
 30 24  1  0
  3 31  1  0
  3 32  1  0
  6 33  1  0
  7 34  1  0
  8 35  1  0
  9 36  1  0
 14 37  1  0
 14 38  1  0
 15 39  1  0
 15 40  1  0
 16 41  1  0
 16 42  1  0
 18 43  1  0
 18 44  1  0
 19 45  1  0
 19 46  1  0
 21 47  1  0
 21 48  1  0
 22 49  1  0
 22 50  1  0
 25 51  1  0
 26 52  1  0
 29 53  1  0
 30 54  1  0
M  CHG  2  13  -1  23  -1
M  END
>  <UniqueID>  (88) 
77

>  <SMILES>  (88) 
O=C(CSc1ccccc1C(=O)[N-]CCCN1CCOCC1)[N-]c1ccc(F)cc1

>  <Energy>  (88) 
67.2819351313271

>  <Genealogy>  (88) 
O=C(CSc1ccccc1C(=O)[N-]CCCN1CCOCC1)[N-]c1ccc(F)cc1 (protonated)
O=C(CSc1ccccc1C(=O)[N-]CCCN1CCOCC1)[N-]c1ccc(F)cc1 (3D coordinates assigned)
O=C(CSc1ccccc1C(=O)[N-]CCCN1CCOCC1)[N-]c1ccc(F)cc1 (nonaromatic ring conformer: 67.2819351313271 kcal/mol)

>  <smiles>  (88) 
O=C(CSc1ccccc1C(=O)NCCCN1CCOCC1)Nc1ccc(F)cc1

>  <score_type>  (88) 
oracle

>  <origin>  (88) 
adg

>  <m_score__min__energy>  (88) 
-12.220000000000001

>  <m_primary>  (88) 
energy

$$$$
88:0
     RDKit          3D

 64 67  0  0  0  0  0  0  0  0999 V2000
   57.6620   29.6210   52.8320 H   0  0  0  0  0  0  0  0  0  0  0  0
   57.9920   30.3270   53.4790 O   0  0  0  0  0  0  0  0  0  0  0  0
   58.4300   31.5700   53.0410 C   0  0  0  0  0  0  0  0  0  0  0  0
   58.5040   32.6260   53.9520 C   0  0  0  0  0  0  0  0  0  0  0  0
   58.2631   32.4547   55.0115 H   0  0  0  0  0  0  0  0  0  0  0  0
   58.8820   33.8950   53.5220 C   0  0  0  0  0  0  0  0  0  0  0  0
   58.9495   34.7206   54.2458 H   0  0  0  0  0  0  0  0  0  0  0  0
   59.1760   34.1250   52.1760 C   0  0  0  0  0  0  0  0  0  0  0  0
   59.4563   35.1352   51.8430 H   0  0  0  0  0  0  0  0  0  0  0  0
   59.1160   33.0730   51.2430 C   0  0  0  0  0  0  0  0  0  0  0  0
   59.4010   33.2770   49.8780 O   0  0  0  0  0  0  0  0  0  0  0  0
   60.3510   34.2060   49.3580 C   0  0  0  0  0  0  0  0  0  0  0  0
   59.8496   34.8581   48.6277 H   0  0  0  0  0  0  0  0  0  0  0  0
   60.7535   34.7923   50.1972 H   0  0  0  0  0  0  0  0  0  0  0  0
   61.4990   33.5050   48.6800 C   0  0  0  0  0  0  0  0  0  0  0  0
   62.2830   32.5780   49.3880 C   0  0  0  0  0  0  0  0  0  0  0  0
   62.0283   32.3286   50.4286 H   0  0  0  0  0  0  0  0  0  0  0  0
   63.3880   31.9690   48.7760 C   0  0  0  0  0  0  0  0  0  0  0  0
   63.9886   31.2332   49.3308 H   0  0  0  0  0  0  0  0  0  0  0  0
   63.7250   32.2980   47.4610 C   0  0  0  0  0  0  0  0  0  0  0  0
   64.5965   31.8279   46.9819 H   0  0  0  0  0  0  0  0  0  0  0  0
   62.9530   33.2260   46.7540 C   0  0  0  0  0  0  0  0  0  0  0  0
   63.2193   33.4867   45.7191 H   0  0  0  0  0  0  0  0  0  0  0  0
   61.8410   33.8240   47.3620 C   0  0  0  0  0  0  0  0  0  0  0  0
   61.2337   34.5484   46.7994 H   0  0  0  0  0  0  0  0  0  0  0  0
   58.7610   31.7770   51.6840 C   0  0  0  0  0  0  0  0  0  0  0  0
   58.6810   30.6740   50.7010 C   0  0  0  0  0  0  0  0  0  0  0  0
   57.7590   29.8200   50.8130 O   0  0  0  0  0  0  0  0  0  0  0  0
   59.6620   30.5610   49.5920 C   0  0  0  0  0  0  0  0  0  0  0  0
   60.1879   31.4742   49.2766 H   0  0  0  0  0  0  0  0  0  0  0  0
   59.9500   29.4170   48.9480 C   0  0  0  0  0  0  0  0  0  0  0  0
   60.5505   28.6653   49.4812 H   0  0  0  0  0  0  0  0  0  0  0  0
   59.5140   29.1010   47.5710 C   0  0  0  0  0  0  0  0  0  0  0  0
   60.3940   28.4620   46.6930 C   0  0  0  0  0  0  0  0  0  0  0  0
   61.3926   28.1616   47.0431 H   0  0  0  0  0  0  0  0  0  0  0  0
   60.0140   28.2020   45.3730 C   0  0  0  0  0  0  0  0  0  0  0  0
   60.7161   27.6979   44.6926 H   0  0  0  0  0  0  0  0  0  0  0  0
   58.7400   28.5800   44.9070 C   0  0  0  0  0  0  0  0  0  0  0  0
   58.3360   28.3490   43.5850 O   0  0  0  0  0  0  0  0  0  0  0  0
   58.1470   27.0610   43.0100 C   0  0  0  0  0  0  0  0  0  0  0  0
   58.0375   26.3146   43.8105 H   0  0  0  0  0  0  0  0  0  0  0  0
   57.2401   27.0668   42.3875 H   0  0  0  0  0  0  0  0  0  0  0  0
   59.0174   26.8060   42.3875 H   0  0  0  0  0  0  0  0  0  0  0  0
   57.8560   29.2330   45.7880 C   0  0  0  0  0  0  0  0  0  0  0  0
   56.5820   29.6570   45.3880 O   0  0  0  0  0  0  0  0  0  0  0  0
   56.2500   30.0500   44.0860 C   0  0  0  0  0  0  0  0  0  0  0  0
   55.3250   29.4730   43.4570 O   0  0  0  0  0  0  0  0  0  0  0  0
   56.9300   31.1950   43.4670 C   0  0  0  0  0  0  0  0  0  0  0  0
   56.4388   31.7263   42.6385 H   0  0  0  0  0  0  0  0  0  0  0  0
   58.1310   31.6080   43.8850 C   0  0  0  0  0  0  0  0  0  0  0  0
   59.0221   31.0972   43.4914 H   0  0  0  0  0  0  0  0  0  0  0  0
   58.3270   32.7110   44.8450 C   0  0  0  0  0  0  0  0  0  0  0  0
   59.0400   33.8470   44.4300 C   0  0  0  0  0  0  0  0  0  0  0  0
   59.4172   33.9097   43.3986 H   0  0  0  0  0  0  0  0  0  0  0  0
   59.2730   34.8990   45.3210 C   0  0  0  0  0  0  0  0  0  0  0  0
   59.8227   35.7903   44.9842 H   0  0  0  0  0  0  0  0  0  0  0  0
   58.8100   34.8230   46.6390 C   0  0  0  0  0  0  0  0  0  0  0  0
   58.9935   35.6525   47.3378 H   0  0  0  0  0  0  0  0  0  0  0  0
   58.1130   33.6880   47.0640 C   0  0  0  0  0  0  0  0  0  0  0  0
   57.7520   33.6232   48.1011 H   0  0  0  0  0  0  0  0  0  0  0  0
   57.8730   32.6350   46.1760 C   0  0  0  0  0  0  0  0  0  0  0  0
   57.3273   31.7434   46.5184 H   0  0  0  0  0  0  0  0  0  0  0  0
   58.2610   29.5180   47.0970 C   0  0  0  0  0  0  0  0  0  0  0  0
   57.5876   30.0767   47.7635 H   0  0  0  0  0  0  0  0  0  0  0  0
  1  2  1  0
  2  3  1  0
  3  4  2  0
  4  5  1  0
  4  6  1  0
  6  7  1  0
  6  8  2  0
  8  9  1  0
  8 10  1  0
 10 11  1  0
 11 12  1  0
 12 13  1  0
 12 14  1  0
 12 15  1  0
 15 16  2  0
 16 17  1  0
 16 18  1  0
 18 19  1  0
 18 20  2  0
 20 21  1  0
 20 22  1  0
 22 23  1  0
 22 24  2  0
 24 25  1  0
 10 26  2  0
 26 27  1  0
 27 28  2  0
 27 29  1  0
 29 30  1  0
 29 31  2  3
 31 32  1  0
 31 33  1  0
 33 34  2  0
 34 35  1  0
 34 36  1  0
 36 37  1  0
 36 38  2  0
 38 39  1  0
 39 40  1  0
 40 41  1  0
 40 42  1  0
 40 43  1  0
 38 44  1  0
 44 45  1  0
 45 46  1  0
 46 47  2  0
 46 48  1  0
 48 49  1  0
 48 50  2  0
 50 51  1  0
 50 52  1  0
 52 53  2  0
 53 54  1  0
 53 55  1  0
 55 56  1  0
 55 57  2  0
 57 58  1  0
 57 59  1  0
 59 60  1  0
 59 61  2  0
 61 62  1  0
 44 63  2  0
 63 64  1  0
 26  3  1  0
 63 33  1  0
 24 15  1  0
 61 52  1  0
M  END
>  <UniqueID>  (89) 
78

>  <SMILES>  (89) 
COc1ccc(C=CC(=O)c2c(O)cccc2OCc2ccccc2)cc1OC(=O)/C=C/c1ccccc1

>  <Energy>  (89) 
83.78240597906311

>  <Genealogy>  (89) 
COc1ccc(C=CC(=O)c2c(O)cccc2OCc2ccccc2)cc1OC(=O)/C=C/c1ccccc1 (cis-trans isomerization)
COc1ccc(C=CC(=O)c2c(O)cccc2OCc2ccccc2)cc1OC(=O)/C=C/c1ccccc1 (3D coordinates assigned)
COc1ccc(C=CC(=O)c2c(O)cccc2OCc2ccccc2)cc1OC(=O)/C=C/c1ccccc1 (optimized conformer: 83.78240597906311 kcal/mol)

>  <smiles>  (89) 
COc1ccc(C=CC(=O)c2c(O)cccc2OCc2ccccc2)cc1OC(=O)C=Cc1ccccc1

>  <score_type>  (89) 
oracle

>  <origin>  (89) 
adg

>  <m_score__min__energy>  (89) 
-9.9199999999999999

>  <m_primary>  (89) 
energy

$$$$
89:0
     RDKit          3D

 49 51  0  0  0  0  0  0  0  0999 V2000
   60.9456   28.8230   43.9386 H   0  0  0  0  0  0  0  0  0  0  0  0
   60.2230   28.9380   44.7600 C   0  0  0  0  0  0  0  0  0  0  0  0
   58.8590   28.7520   44.5190 C   0  0  0  0  0  0  0  0  0  0  0  0
   58.5127   28.4961   43.5068 H   0  0  0  0  0  0  0  0  0  0  0  0
   57.9260   28.8900   45.5630 C   0  0  0  0  0  0  0  0  0  0  0  0
   56.4800   28.6840   45.3160 C   0  0  0  0  0  0  0  0  0  0  0  0
   55.7760   29.6370   44.8800 O   0  0  0  0  0  0  0  0  0  0  0  0
   55.8700   27.4220   45.6240 N   0  0  0  0  0  0  0  0  0  0  0  0
   56.5390   26.1610   45.7760 C   0  0  0  0  0  0  0  0  0  0  0  0
   57.1360   25.5790   44.6540 C   0  0  0  0  0  0  0  0  0  0  0  0
   57.0932   26.0951   43.6835 H   0  0  0  0  0  0  0  0  0  0  0  0
   57.7870   24.3460   44.7560 C   0  0  0  0  0  0  0  0  0  0  0  0
   58.2590   23.9030   43.8666 H   0  0  0  0  0  0  0  0  0  0  0  0
   57.8430   23.6710   45.9800 C   0  0  0  0  0  0  0  0  0  0  0  0
   58.5180   22.4390   46.0250 O   0  0  0  0  0  0  0  0  0  0  0  0
   57.9690   21.1790   45.6350 C   0  0  0  0  0  0  0  0  0  0  0  0
   57.1540   20.9120   46.3238 H   0  0  0  0  0  0  0  0  0  0  0  0
   58.7651   20.4208   45.6718 H   0  0  0  0  0  0  0  0  0  0  0  0
   57.4210   21.2440   44.2130 C   0  0  0  0  0  0  0  0  0  0  0  0
   56.3292   21.3735   44.2464 H   0  0  0  0  0  0  0  0  0  0  0  0
   57.8751   22.0946   43.6836 H   0  0  0  0  0  0  0  0  0  0  0  0
   57.6635   20.3108   43.6836 H   0  0  0  0  0  0  0  0  0  0  0  0
   57.2160   24.2390   47.1050 C   0  0  0  0  0  0  0  0  0  0  0  0
   57.2398   23.7115   48.0700 H   0  0  0  0  0  0  0  0  0  0  0  0
   56.5630   25.4710   47.0010 C   0  0  0  0  0  0  0  0  0  0  0  0
   56.0655   25.9027   47.8820 H   0  0  0  0  0  0  0  0  0  0  0  0
   58.3890   29.2250   46.8500 C   0  0  0  0  0  0  0  0  0  0  0  0
   57.6707   29.3387   47.6753 H   0  0  0  0  0  0  0  0  0  0  0  0
   59.7580   29.4150   47.0890 C   0  0  0  0  0  0  0  0  0  0  0  0
   60.3380   29.8360   48.6990 S   0  0  0  0  0  0  0  0  0  0  0  0
   59.3420   30.7540   49.3460 O   0  0  0  0  0  0  0  0  0  0  0  0
   60.4920   28.6060   49.5520 O   0  0  0  0  0  0  0  0  0  0  0  0
   61.8690   30.6470   48.5860 N   0  0  0  0  0  0  0  0  0  0  0  0
   62.1230   31.7270   47.9030 C   0  0  0  0  0  0  0  0  0  0  0  0
   63.4530   32.0090   47.5750 C   0  0  0  0  0  0  0  0  0  0  0  0
   64.2545   31.3184   47.8763 H   0  0  0  0  0  0  0  0  0  0  0  0
   63.7590   33.1700   46.8640 C   0  0  0  0  0  0  0  0  0  0  0  0
   64.8039   33.4024   46.6106 H   0  0  0  0  0  0  0  0  0  0  0  0
   62.7370   34.0340   46.4760 C   0  0  0  0  0  0  0  0  0  0  0  0
   62.9710   34.9562   45.9238 H   0  0  0  0  0  0  0  0  0  0  0  0
   61.4100   33.7200   46.7940 C   0  0  0  0  0  0  0  0  0  0  0  0
   60.3040   34.6610   46.4100 C   0  0  0  0  0  0  0  0  0  0  0  0
   59.8321   35.0625   47.3189 H   0  0  0  0  0  0  0  0  0  0  0  0
   60.7170   35.4889   45.8149 H   0  0  0  0  0  0  0  0  0  0  0  0
   59.5530   34.1207   45.8149 H   0  0  0  0  0  0  0  0  0  0  0  0
   61.1310   32.5890   47.5070 N   0  0  0  0  0  0  0  0  0  0  0  0
   60.1330   32.3990   47.7400 H   0  0  0  0  0  0  0  0  0  0  0  0
   60.6710   29.2690   46.0390 C   0  0  0  0  0  0  0  0  0  0  0  0
   61.7456   29.4157   46.2226 H   0  0  0  0  0  0  0  0  0  0  0  0
  1  2  1  0
  2  3  2  0
  3  4  1  0
  3  5  1  0
  5  6  1  0
  6  7  2  0
  6  8  1  0
  8  9  1  0
  9 10  2  0
 10 11  1  0
 10 12  1  0
 12 13  1  0
 12 14  2  0
 14 15  1  0
 15 16  1  0
 16 17  1  0
 16 18  1  0
 16 19  1  0
 19 20  1  0
 19 21  1  0
 19 22  1  0
 14 23  1  0
 23 24  1  0
 23 25  2  0
 25 26  1  0
  5 27  2  0
 27 28  1  0
 27 29  1  0
 29 30  1  0
 30 31  2  0
 30 32  2  0
 30 33  1  0
 33 34  2  0
 34 35  1  0
 35 36  1  0
 35 37  2  0
 37 38  1  0
 37 39  1  0
 39 40  1  0
 39 41  2  0
 41 42  1  0
 42 43  1  0
 42 44  1  0
 42 45  1  0
 41 46  1  0
 46 47  1  0
 29 48  2  0
 48 49  1  0
 48  2  1  0
 25  9  1  0
 46 34  1  0
M  CHG  1   8  -1
M  END
>  <UniqueID>  (90) 
79

>  <SMILES>  (90) 
CCOc1ccc([N-]C(=O)c2cccc(S(=O)(=O)/N=c3/cccc(C)[nH]3)c2)cc1

>  <Energy>  (90) 
57.86846123349403

>  <Genealogy>  (90) 
CCOc1ccc([N-]C(=O)c2cccc(S(=O)(=O)N=c3cccc(C)[nH]3)c2)cc1 (protonated)
CCOc1ccc([N-]C(=O)c2cccc(S(=O)(=O)/N=c3/cccc(C)[nH]3)c2)cc1 (cis-trans isomerization)
CCOc1ccc([N-]C(=O)c2cccc(S(=O)(=O)/N=c3/cccc(C)[nH]3)c2)cc1 (3D coordinates assigned)
CCOc1ccc([N-]C(=O)c2cccc(S(=O)(=O)/N=c3/cccc(C)[nH]3)c2)cc1 (optimized conformer: 57.86846123349403 kcal/mol)

>  <smiles>  (90) 
CCOc1ccc(NC(=O)c2cccc(S(=O)(=O)N=c3cccc(C)[nH]3)c2)cc1

>  <score_type>  (90) 
oracle

>  <origin>  (90) 
adg

>  <m_score__min__energy>  (90) 
-10.32

>  <m_primary>  (90) 
energy

$$$$
90:0
     RDKit          3D

 62 65  0  0  0  0  0  0  0  0999 V2000
   57.1040   30.6200   44.2680 C   0  0  0  0  0  0  0  0  0  0  0  0
   57.2240   31.4120   45.4460 O   0  0  0  0  0  0  0  0  0  0  0  0
   58.4400   31.8860   45.9640 C   0  0  0  0  0  0  0  0  0  0  0  0
   58.5850   33.2650   46.1620 C   0  0  0  0  0  0  0  0  0  0  0  0
   59.7740   33.7870   46.6820 C   0  0  0  0  0  0  0  0  0  0  0  0
   60.8380   32.9320   47.0060 C   0  0  0  0  0  0  0  0  0  0  0  0
   62.3520   33.5740   47.6370 S   0  0  0  0  0  0  0  0  0  0  0  0
   63.1670   34.1980   46.5410 O   0  0  0  0  0  0  0  0  0  0  0  0
   62.0370   34.6270   48.6590 O   0  0  0  0  0  0  0  0  0  0  0  0
   63.2560   32.3010   48.3880 N   0  0  0  0  0  0  0  0  0  0  0  0
   62.8380   31.6330   49.5800 C   0  0  0  0  0  0  0  0  0  0  0  0
   63.6510   30.8850   50.1840 O   0  0  0  0  0  0  0  0  0  0  0  0
   61.4900   31.8180   50.1300 C   0  0  0  0  0  0  0  0  0  0  0  0
   61.0070   32.9970   50.5690 N   0  0  0  0  0  0  0  0  0  0  0  0
   59.8060   32.7980   51.0890 N   0  0  0  0  0  0  0  0  0  0  0  0
   59.0110   33.8490   51.7170 C   0  0  0  0  0  0  0  0  0  0  0  0
   59.5040   31.4800   51.0070 C   0  0  0  0  0  0  0  0  0  0  0  0
   58.3140   30.8440   51.6050 C   0  0  0  0  0  0  0  0  0  0  0  0
   57.0370   31.3790   51.3810 C   0  0  0  0  0  0  0  0  0  0  0  0
   55.9160   30.7940   51.9740 C   0  0  0  0  0  0  0  0  0  0  0  0
   56.0600   29.6590   52.7780 C   0  0  0  0  0  0  0  0  0  0  0  0
   57.3280   29.1100   52.9880 C   0  0  0  0  0  0  0  0  0  0  0  0
   58.4550   29.7050   52.4130 C   0  0  0  0  0  0  0  0  0  0  0  0
   60.5600   30.8220   50.3870 C   0  0  0  0  0  0  0  0  0  0  0  0
   60.7550   29.3410   50.2510 C   0  0  0  0  0  0  0  0  0  0  0  0
   59.8000   28.8230   49.3490 O   0  0  0  0  0  0  0  0  0  0  0  0
   60.3960   27.8560   48.5030 C   0  0  0  0  0  0  0  0  0  0  0  0
   59.5430   27.6220   47.2840 C   0  0  0  0  0  0  0  0  0  0  0  0
   60.0240   27.9570   46.0110 C   0  0  0  0  0  0  0  0  0  0  0  0
   59.2560   27.6990   44.8760 C   0  0  0  0  0  0  0  0  0  0  0  0
   57.9950   27.1130   45.0000 C   0  0  0  0  0  0  0  0  0  0  0  0
   57.4920   26.7720   46.2670 C   0  0  0  0  0  0  0  0  0  0  0  0
   56.1590   26.1430   46.3960 C   0  0  0  0  0  0  0  0  0  0  0  0
   55.1330   26.7140   45.9390 O   0  0  0  0  0  0  0  0  0  0  0  0
   56.0200   24.9110   47.0220 O   0  0  0  0  0  0  0  0  0  0  0  0
   58.2800   27.0220   47.4070 C   0  0  0  0  0  0  0  0  0  0  0  0
   60.7010   31.5540   46.8000 C   0  0  0  0  0  0  0  0  0  0  0  0
   59.5100   31.0290   46.2880 C   0  0  0  0  0  0  0  0  0  0  0  0
   56.9446   29.5682   44.5480 H   0  0  0  0  0  0  0  0  0  0  0  0
   56.2493   30.9747   43.6732 H   0  0  0  0  0  0  0  0  0  0  0  0
   58.0254   30.7056   43.6732 H   0  0  0  0  0  0  0  0  0  0  0  0
   57.7572   33.9429   45.9065 H   0  0  0  0  0  0  0  0  0  0  0  0
   59.8751   34.8713   46.8374 H   0  0  0  0  0  0  0  0  0  0  0  0
   61.4970   33.9210   50.5310 H   0  0  0  0  0  0  0  0  0  0  0  0
   59.0805   33.7572   52.8110 H   0  0  0  0  0  0  0  0  0  0  0  0
   59.3930   34.8327   51.4066 H   0  0  0  0  0  0  0  0  0  0  0  0
   57.9604   33.7491   51.4066 H   0  0  0  0  0  0  0  0  0  0  0  0
   56.9180   32.2622   50.7362 H   0  0  0  0  0  0  0  0  0  0  0  0
   54.9183   31.2267   51.8084 H   0  0  0  0  0  0  0  0  0  0  0  0
   55.1765   29.1989   53.2446 H   0  0  0  0  0  0  0  0  0  0  0  0
   57.4396   28.2077   53.6071 H   0  0  0  0  0  0  0  0  0  0  0  0
   59.4533   29.2800   52.5940 H   0  0  0  0  0  0  0  0  0  0  0  0
   61.7670   29.1375   49.8709 H   0  0  0  0  0  0  0  0  0  0  0  0
   60.6300   28.8622   51.2334 H   0  0  0  0  0  0  0  0  0  0  0  0
   61.3874   28.2132   48.1876 H   0  0  0  0  0  0  0  0  0  0  0  0
   60.4913   26.9103   49.0566 H   0  0  0  0  0  0  0  0  0  0  0  0
   61.0134   28.4263   45.9065 H   0  0  0  0  0  0  0  0  0  0  0  0
   59.6449   27.9580   43.8802 H   0  0  0  0  0  0  0  0  0  0  0  0
   57.3919   26.9172   44.1011 H   0  0  0  0  0  0  0  0  0  0  0  0
   57.9026   26.7447   48.4023 H   0  0  0  0  0  0  0  0  0  0  0  0
   61.5356   30.8797   47.0424 H   0  0  0  0  0  0  0  0  0  0  0  0
   59.4086   29.9440   46.1379 H   0  0  0  0  0  0  0  0  0  0  0  0
  1  2  1  0
  2  3  1  0
  3  4  2  0
  4  5  1  0
  5  6  2  0
  6  7  1  0
  7  8  2  0
  7  9  2  0
  7 10  1  0
 10 11  1  0
 11 12  2  0
 11 13  1  0
 13 14  2  0
 14 15  1  0
 15 16  1  0
 15 17  1  0
 17 18  1  0
 18 19  2  0
 19 20  1  0
 20 21  2  0
 21 22  1  0
 22 23  2  0
 17 24  2  0
 24 25  1  0
 25 26  1  0
 26 27  1  0
 27 28  1  0
 28 29  2  0
 29 30  1  0
 30 31  2  0
 31 32  1  0
 32 33  1  0
 33 34  2  0
 33 35  1  0
 32 36  2  0
  6 37  1  0
 37 38  2  0
 38  3  1  0
 24 13  1  0
 36 28  1  0
 23 18  1  0
  1 39  1  0
  1 40  1  0
  1 41  1  0
  4 42  1  0
  5 43  1  0
 14 44  1  0
 16 45  1  0
 16 46  1  0
 16 47  1  0
 19 48  1  0
 20 49  1  0
 21 50  1  0
 22 51  1  0
 23 52  1  0
 25 53  1  0
 25 54  1  0
 27 55  1  0
 27 56  1  0
 29 57  1  0
 30 58  1  0
 31 59  1  0
 36 60  1  0
 37 61  1  0
 38 62  1  0
M  CHG  3  10  -1  14   1  35  -1
M  END
>  <UniqueID>  (91) 
80

>  <SMILES>  (91) 
COc1ccc(S(=O)(=O)[N-]C(=O)c2[nH+]n(C)c(-c3ccccc3)c2COCc2cccc(C(=O)[O-])c2)cc1

>  <Energy>  (91) 
101.33796201416985

>  <Genealogy>  (91) 
COc1ccc(S(=O)(=O)[N-]C(=O)c2[nH+]n(C)c(-c3ccccc3)c2COCc2cccc(C(=O)[O-])c2)cc1 (protonated)
COc1ccc(S(=O)(=O)[N-]C(=O)c2[nH+]n(C)c(-c3ccccc3)c2COCc2cccc(C(=O)[O-])c2)cc1 (3D coordinates assigned)
COc1ccc(S(=O)(=O)[N-]C(=O)c2[nH+]n(C)c(-c3ccccc3)c2COCc2cccc(C(=O)[O-])c2)cc1 (optimized conformer: 101.33796201416985 kcal/mol)

>  <smiles>  (91) 
COc1ccc(S(=O)(=O)NC(=O)c2nn(C)c(-c3ccccc3)c2COCc2cccc(C(=O)O)c2)cc1

>  <score_type>  (91) 
oracle

>  <origin>  (91) 
adg

>  <m_score__min__energy>  (91) 
-12.130000000000001

>  <m_primary>  (91) 
energy

$$$$
91:0
     RDKit          3D

 55 59  0  0  0  0  0  0  0  0999 V2000
   52.2350   22.9790   45.4190 O   0  0  0  0  0  0  0  0  0  0  0  0
   53.4180   22.5820   45.6040 C   0  0  0  0  0  0  0  0  0  0  0  0
   54.4780   23.0580   44.7650 N   0  0  0  0  0  0  0  0  0  0  0  0
   55.5260   23.9270   45.2060 C   0  0  0  0  0  0  0  0  0  0  0  0
   56.5600   24.2590   44.3210 C   0  0  0  0  0  0  0  0  0  0  0  0
   57.6340   25.0420   44.7540 C   0  0  0  0  0  0  0  0  0  0  0  0
   57.7100   25.4590   46.0890 C   0  0  0  0  0  0  0  0  0  0  0  0
   58.8240   26.1920   46.5160 O   0  0  0  0  0  0  0  0  0  0  0  0
   59.1190   27.4860   46.0640 C   0  0  0  0  0  0  0  0  0  0  0  0
   60.4170   28.0000   46.2080 C   0  0  0  0  0  0  0  0  0  0  0  0
   60.7150   29.2930   45.7320 C   0  0  0  0  0  0  0  0  0  0  0  0
   59.7430   30.0590   45.1550 N   0  0  0  0  0  0  0  0  0  0  0  0
   58.4740   29.5870   45.0360 C   0  0  0  0  0  0  0  0  0  0  0  0
   57.3870   30.2950   44.4920 C   0  0  0  0  0  0  0  0  0  0  0  0
   57.4750   31.6690   43.9430 C   0  0  0  0  0  0  0  0  0  0  0  0
   57.8880   31.8400   42.7640 O   0  0  0  0  0  0  0  0  0  0  0  0
   57.1650   32.8250   44.7360 N   0  0  0  0  0  0  0  0  0  0  0  0
   58.0520   33.4950   45.6450 C   0  0  0  0  0  0  0  0  0  0  0  0
   58.8540   34.5780   45.2340 C   0  0  0  0  0  0  0  0  0  0  0  0
   59.7010   35.2130   46.1500 C   0  0  0  0  0  0  0  0  0  0  0  0
   59.7650   34.7610   47.4720 C   0  0  0  0  0  0  0  0  0  0  0  0
   58.9870   33.6730   47.8810 C   0  0  0  0  0  0  0  0  0  0  0  0
   58.1400   33.0370   46.9670 C   0  0  0  0  0  0  0  0  0  0  0  0
   56.1920   29.5660   44.5640 C   0  0  0  0  0  0  0  0  0  0  0  0
   56.5030   28.0600   45.2620 S   0  0  0  0  0  0  0  0  0  0  0  0
   58.1510   28.3170   45.4840 C   0  0  0  0  0  0  0  0  0  0  0  0
   56.6650   25.1410   46.9750 C   0  0  0  0  0  0  0  0  0  0  0  0
   55.5790   24.3800   46.5360 C   0  0  0  0  0  0  0  0  0  0  0  0
   53.6820   21.6050   46.6140 N   0  0  0  0  0  0  0  0  0  0  0  0
   53.7820   21.8890   48.0190 C   0  0  0  0  0  0  0  0  0  0  0  0
   54.9800   21.6060   48.6820 C   0  0  0  0  0  0  0  0  0  0  0  0
   55.0800   21.7830   50.0640 C   0  0  0  0  0  0  0  0  0  0  0  0
   53.9780   22.2250   50.7990 C   0  0  0  0  0  0  0  0  0  0  0  0
   52.7620   22.5070   50.1530 C   0  0  0  0  0  0  0  0  0  0  0  0
   51.5290   22.8910   50.9400 C   0  0  0  0  0  0  0  0  0  0  0  0
   50.8930   21.7570   51.4170 F   0  0  0  0  0  0  0  0  0  0  0  0
   51.9020   23.6810   52.0120 F   0  0  0  0  0  0  0  0  0  0  0  0
   50.6300   23.5930   50.1560 F   0  0  0  0  0  0  0  0  0  0  0  0
   52.6710   22.3240   48.7620 C   0  0  0  0  0  0  0  0  0  0  0  0
   56.5266   23.9021   43.2811 H   0  0  0  0  0  0  0  0  0  0  0  0
   58.4224   25.3317   44.0437 H   0  0  0  0  0  0  0  0  0  0  0  0
   61.1993   27.3959   46.6907 H   0  0  0  0  0  0  0  0  0  0  0  0
   61.7375   29.6875   45.8260 H   0  0  0  0  0  0  0  0  0  0  0  0
   58.8145   34.9254   44.1910 H   0  0  0  0  0  0  0  0  0  0  0  0
   60.3160   36.0671   45.8302 H   0  0  0  0  0  0  0  0  0  0  0  0
   60.4288   35.2623   48.1918 H   0  0  0  0  0  0  0  0  0  0  0  0
   59.0411   33.3176   48.9206 H   0  0  0  0  0  0  0  0  0  0  0  0
   57.5397   32.1727   47.2875 H   0  0  0  0  0  0  0  0  0  0  0  0
   55.2083   29.9187   44.2206 H   0  0  0  0  0  0  0  0  0  0  0  0
   56.7030   25.4926   48.0166 H   0  0  0  0  0  0  0  0  0  0  0  0
   54.7635   24.1346   47.2323 H   0  0  0  0  0  0  0  0  0  0  0  0
   55.8480   21.2422   48.1126 H   0  0  0  0  0  0  0  0  0  0  0  0
   56.0310   21.5733   50.5755 H   0  0  0  0  0  0  0  0  0  0  0  0
   54.0620   22.3530   51.8883 H   0  0  0  0  0  0  0  0  0  0  0  0
   51.7187   22.5237   48.2489 H   0  0  0  0  0  0  0  0  0  0  0  0
  1  2  2  0
  2  3  1  0
  3  4  1  0
  4  5  2  0
  5  6  1  0
  6  7  2  0
  7  8  1  0
  8  9  1  0
  9 10  2  0
 10 11  1  0
 11 12  2  0
 12 13  1  0
 13 14  1  0
 14 15  1  0
 15 16  2  0
 15 17  1  0
 17 18  1  0
 18 19  2  0
 19 20  1  0
 20 21  2  0
 21 22  1  0
 22 23  2  0
 14 24  2  0
 24 25  1  0
 25 26  1  0
  7 27  1  0
 27 28  2  0
  2 29  1  0
 29 30  1  0
 30 31  2  0
 31 32  1  0
 32 33  2  0
 33 34  1  0
 34 35  1  0
 35 36  1  0
 35 37  1  0
 35 38  1  0
 34 39  2  0
 28  4  1  0
 39 30  1  0
 26  9  1  0
 26 13  2  0
 23 18  1  0
  5 40  1  0
  6 41  1  0
 10 42  1  0
 11 43  1  0
 19 44  1  0
 20 45  1  0
 21 46  1  0
 22 47  1  0
 23 48  1  0
 24 49  1  0
 27 50  1  0
 28 51  1  0
 31 52  1  0
 32 53  1  0
 33 54  1  0
 39 55  1  0
M  CHG  3   3  -1  17  -1  29  -1
M  END
>  <UniqueID>  (92) 
81

>  <SMILES>  (92) 
O=C([N-]c1ccc(Oc2ccnc3c(C(=O)[N-]c4ccccc4)csc23)cc1)[N-]c1cccc(C(F)(F)F)c1

>  <Energy>  (92) 
115.90504253476442

>  <Genealogy>  (92) 
O=C([N-]c1ccc(Oc2ccnc3c(C(=O)[N-]c4ccccc4)csc23)cc1)[N-]c1cccc(C(F)(F)F)c1 (protonated)
O=C([N-]c1ccc(Oc2ccnc3c(C(=O)[N-]c4ccccc4)csc23)cc1)[N-]c1cccc(C(F)(F)F)c1 (3D coordinates assigned)
O=C([N-]c1ccc(Oc2ccnc3c(C(=O)[N-]c4ccccc4)csc23)cc1)[N-]c1cccc(C(F)(F)F)c1 (optimized conformer: 115.90504253476442 kcal/mol)

>  <smiles>  (92) 
O=C(Nc1ccc(Oc2ccnc3c(C(=O)Nc4ccccc4)csc23)cc1)Nc1cccc(C(F)(F)F)c1

>  <score_type>  (92) 
oracle

>  <origin>  (92) 
adg

>  <m_score__min__energy>  (92) 
-12.220000000000001

>  <m_primary>  (92) 
energy

$$$$
92:0
     RDKit          3D

 65 68  0  0  0  0  0  0  0  0999 V2000
   60.3238   24.3646   46.2206 H   0  0  0  0  0  0  0  0  0  0  0  0
   59.4730   25.0610   46.2550 C   0  0  0  0  0  0  0  0  0  0  0  0
   58.2120   24.5850   46.4250 N   0  0  0  0  0  0  0  0  0  0  0  0
   57.1270   25.4080   46.4740 C   0  0  0  0  0  0  0  0  0  0  0  0
   55.9200   24.9430   46.6390 N   0  0  0  0  0  0  0  0  0  0  0  0
   54.8190   24.9260   45.7120 C   0  0  0  0  0  0  0  0  0  0  0  0
   54.0890   25.9500   45.6340 O   0  0  0  0  0  0  0  0  0  0  0  0
   54.4940   23.7490   44.8400 C   0  0  0  0  0  0  0  0  0  0  0  0
   54.2542   22.8804   45.4709 H   0  0  0  0  0  0  0  0  0  0  0  0
   53.6290   23.9909   44.2049 H   0  0  0  0  0  0  0  0  0  0  0  0
   55.3605   23.5128   44.2049 H   0  0  0  0  0  0  0  0  0  0  0  0
   57.3080   26.7910   46.3410 C   0  0  0  0  0  0  0  0  0  0  0  0
   56.4419   27.4681   46.3785 H   0  0  0  0  0  0  0  0  0  0  0  0
   58.5980   27.3070   46.1600 C   0  0  0  0  0  0  0  0  0  0  0  0
   58.8110   28.7630   46.0500 C   0  0  0  0  0  0  0  0  0  0  0  0
   59.2270   29.6220   47.0580 C   0  0  0  0  0  0  0  0  0  0  0  0
   59.6640   29.2680   48.4280 C   0  0  0  0  0  0  0  0  0  0  0  0
   59.1790   29.9620   49.5510 C   0  0  0  0  0  0  0  0  0  0  0  0
   58.4617   30.7852   49.4172 H   0  0  0  0  0  0  0  0  0  0  0  0
   59.6030   29.6120   50.8360 C   0  0  0  0  0  0  0  0  0  0  0  0
   59.2272   30.1666   51.7085 H   0  0  0  0  0  0  0  0  0  0  0  0
   60.5040   28.5580   51.0140 C   0  0  0  0  0  0  0  0  0  0  0  0
   60.9130   28.2180   52.2610 F   0  0  0  0  0  0  0  0  0  0  0  0
   60.9750   27.8480   49.9060 C   0  0  0  0  0  0  0  0  0  0  0  0
   61.6778   27.0136   50.0466 H   0  0  0  0  0  0  0  0  0  0  0  0
   60.5540   28.1970   48.6190 C   0  0  0  0  0  0  0  0  0  0  0  0
   60.9215   27.6300   47.7510 H   0  0  0  0  0  0  0  0  0  0  0  0
   59.1680   30.8930   46.6110 N   0  0  0  0  0  0  0  0  0  0  0  0
   58.7290   30.7840   45.3410 C   0  0  0  0  0  0  0  0  0  0  0  0
   58.4710   32.2170   44.2900 S   0  0  0  0  0  0  0  0  0  0  0  0
   56.9720   32.7780   45.1730 C   0  0  0  0  0  0  0  0  0  0  0  0
   56.2175   33.0919   44.4367 H   0  0  0  0  0  0  0  0  0  0  0  0
   56.5931   31.9448   45.7831 H   0  0  0  0  0  0  0  0  0  0  0  0
   57.2870   33.9550   46.0990 C   0  0  0  0  0  0  0  0  0  0  0  0
   56.7691   34.8523   45.7292 H   0  0  0  0  0  0  0  0  0  0  0  0
   56.9453   33.7037   47.1139 H   0  0  0  0  0  0  0  0  0  0  0  0
   58.7920   34.2290   46.1450 C   0  0  0  0  0  0  0  0  0  0  0  0
   59.2783   33.6660   45.3347 H   0  0  0  0  0  0  0  0  0  0  0  0
   58.9388   35.3129   46.0279 H   0  0  0  0  0  0  0  0  0  0  0  0
   59.5300   33.7430   47.7080 S   0  0  0  0  0  0  0  0  0  0  0  0
   59.6660   34.9610   48.5790 O   0  0  0  0  0  0  0  0  0  0  0  0
   58.5750   32.7930   48.3750 O   0  0  0  0  0  0  0  0  0  0  0  0
   61.0830   32.9440   47.5620 N   0  0  0  0  0  0  0  0  0  0  0  0
   60.9410   32.1550   46.8870 H   0  0  0  0  0  0  0  0  0  0  0  0
   62.1020   33.8490   47.0020 C   0  0  0  0  0  0  0  0  0  0  0  0
   61.7310   34.2677   46.0549 H   0  0  0  0  0  0  0  0  0  0  0  0
   62.2954   34.6534   47.7269 H   0  0  0  0  0  0  0  0  0  0  0  0
   63.4240   33.0920   46.7380 C   0  0  0  0  0  0  0  0  0  0  0  0
   63.5123   32.8990   45.6587 H   0  0  0  0  0  0  0  0  0  0  0  0
   64.2511   33.7197   47.1013 H   0  0  0  0  0  0  0  0  0  0  0  0
   63.4820   31.8090   47.4550 N   0  0  0  0  0  0  0  0  0  0  0  0
   64.4820   31.5010   47.4900 H   0  0  0  0  0  0  0  0  0  0  0  0
   63.0030   31.9570   48.8340 C   0  0  0  0  0  0  0  0  0  0  0  0
   63.1186   30.9985   49.3612 H   0  0  0  0  0  0  0  0  0  0  0  0
   63.5941   32.7401   49.3314 H   0  0  0  0  0  0  0  0  0  0  0  0
   61.5160   32.3700   48.8540 C   0  0  0  0  0  0  0  0  0  0  0  0
   60.9038   31.4823   49.0712 H   0  0  0  0  0  0  0  0  0  0  0  0
   61.3879   33.1409   49.6282 H   0  0  0  0  0  0  0  0  0  0  0  0
   58.5030   29.5040   44.9660 N   0  0  0  0  0  0  0  0  0  0  0  0
   57.8190   29.0500   43.7550 C   0  0  0  0  0  0  0  0  0  0  0  0
   56.9324   28.4615   44.0334 H   0  0  0  0  0  0  0  0  0  0  0  0
   57.5085   29.9219   43.1605 H   0  0  0  0  0  0  0  0  0  0  0  0
   58.5019   28.4253   43.1605 H   0  0  0  0  0  0  0  0  0  0  0  0
   59.6890   26.4330   46.1240 C   0  0  0  0  0  0  0  0  0  0  0  0
   60.7089   26.8240   45.9935 H   0  0  0  0  0  0  0  0  0  0  0  0
  1  2  1  0
  2  3  1  0
  3  4  1  0
  4  5  2  0
  5  6  1  0
  6  7  2  0
  6  8  1  0
  8  9  1  0
  8 10  1  0
  8 11  1  0
  4 12  1  0
 12 13  1  0
 12 14  2  0
 14 15  1  0
 15 16  2  0
 16 17  1  0
 17 18  2  0
 18 19  1  0
 18 20  1  0
 20 21  1  0
 20 22  2  0
 22 23  1  0
 22 24  1  0
 24 25  1  0
 24 26  2  0
 26 27  1  0
 16 28  1  0
 28 29  2  0
 29 30  1  0
 30 31  1  0
 31 32  1  0
 31 33  1  0
 31 34  1  0
 34 35  1  0
 34 36  1  0
 34 37  1  0
 37 38  1  0
 37 39  1  0
 37 40  1  0
 40 41  2  0
 40 42  2  0
 40 43  1  0
 43 44  1  0
 43 45  1  0
 45 46  1  0
 45 47  1  0
 45 48  1  0
 48 49  1  0
 48 50  1  0
 48 51  1  0
 51 52  1  0
 51 53  1  0
 53 54  1  0
 53 55  1  0
 53 56  1  0
 56 57  1  0
 56 58  1  0
 29 59  1  0
 59 60  1  0
 60 61  1  0
 60 62  1  0
 60 63  1  0
 14 64  1  0
 64 65  1  0
 64  2  2  0
 59 15  1  0
 26 17  1  0
 56 43  1  0
M  CHG  2   3  -1  43   1
M  END
>  <UniqueID>  (93) 
82

>  <SMILES>  (93) 
CC(=O)/N=c1/cc(-c2c(-c3ccc(F)cc3)nc(SCCCS(=O)(=O)[NH+]3CCNCC3)n2C)cc[n-]1

>  <Energy>  (93) 
101.62464213791368

>  <Genealogy>  (93) 
CC(=O)N=c1cc(-c2c(-c3ccc(F)cc3)nc(SCCCS(=O)(=O)[NH+]3CCNCC3)n2C)cc[n-]1 (protonated)
CC(=O)/N=c1/cc(-c2c(-c3ccc(F)cc3)nc(SCCCS(=O)(=O)[NH+]3CCNCC3)n2C)cc[n-]1 (cis-trans isomerization)
CC(=O)/N=c1/cc(-c2c(-c3ccc(F)cc3)nc(SCCCS(=O)(=O)[NH+]3CCNCC3)n2C)cc[n-]1 (3D coordinates assigned)
CC(=O)/N=c1/cc(-c2c(-c3ccc(F)cc3)nc(SCCCS(=O)(=O)[NH+]3CCNCC3)n2C)cc[n-]1 (nonaromatic ring conformer: 101.62464213791368 kcal/mol)

>  <smiles>  (93) 
CC(=O)N=c1cc(-c2c(-c3ccc(F)cc3)nc(SCCCS(=O)(=O)N3CCNCC3)n2C)cc[nH]1

>  <score_type>  (93) 
oracle

>  <origin>  (93) 
adg

>  <m_score__min__energy>  (93) 
-10.210000000000001

>  <m_primary>  (93) 
energy

$$$$
93:0
     RDKit          3D

 55 58  0  0  0  0  0  0  0  0999 V2000
   52.8290   23.8570   44.9700 C   0  0  0  0  0  0  0  0  0  0  0  0
   53.9780   24.6410   45.5020 C   0  0  0  0  0  0  0  0  0  0  0  0
   55.2060   24.1400   45.8850 C   0  0  0  0  0  0  0  0  0  0  0  0
   55.9010   25.2770   46.2280 C   0  0  0  0  0  0  0  0  0  0  0  0
   57.1380   25.2980   46.6190 N   0  0  0  0  0  0  0  0  0  0  0  0
   58.4670   25.4680   45.5160 S   0  0  0  0  0  0  0  0  0  0  0  0
   59.5400   24.4820   45.8810 O   0  0  0  0  0  0  0  0  0  0  0  0
   57.9890   25.1880   44.1180 O   0  0  0  0  0  0  0  0  0  0  0  0
   59.0900   27.1130   45.5930 C   0  0  0  0  0  0  0  0  0  0  0  0
   60.1750   27.4260   46.4210 C   0  0  0  0  0  0  0  0  0  0  0  0
   60.6470   28.7400   46.4900 C   0  0  0  0  0  0  0  0  0  0  0  0
   60.0230   29.7490   45.7500 C   0  0  0  0  0  0  0  0  0  0  0  0
   58.9190   29.4550   44.9410 C   0  0  0  0  0  0  0  0  0  0  0  0
   58.2770   30.5200   44.2270 N   0  0  0  0  0  0  0  0  0  0  0  0
   57.2120   31.3470   44.7170 C   0  0  0  0  0  0  0  0  0  0  0  0
   56.0370   30.8990   44.8060 O   0  0  0  0  0  0  0  0  0  0  0  0
   57.5060   32.7520   45.1480 C   0  0  0  0  0  0  0  0  0  0  0  0
   57.7740   32.8660   46.6620 C   0  0  0  0  0  0  0  0  0  0  0  0
   59.2500   32.9280   47.0240 C   0  0  0  0  0  0  0  0  0  0  0  0
   60.0960   33.7960   46.3020 C   0  0  0  0  0  0  0  0  0  0  0  0
   61.4640   33.8510   46.5700 C   0  0  0  0  0  0  0  0  0  0  0  0
   62.0210   33.0170   47.5360 C   0  0  0  0  0  0  0  0  0  0  0  0
   61.2120   32.1200   48.2320 C   0  0  0  0  0  0  0  0  0  0  0  0
   59.8300   32.0680   47.9960 C   0  0  0  0  0  0  0  0  0  0  0  0
   58.8820   30.8040   48.8670 S   0  0  0  0  0  0  0  0  0  0  0  0
   58.6320   31.7900   50.3510 C   0  0  0  0  0  0  0  0  0  0  0  0
   59.2550   33.0410   50.4640 C   0  0  0  0  0  0  0  0  0  0  0  0
   59.0240   33.8420   51.5860 C   0  0  0  0  0  0  0  0  0  0  0  0
   58.1700   33.3990   52.5990 C   0  0  0  0  0  0  0  0  0  0  0  0
   57.5440   32.1560   52.4910 C   0  0  0  0  0  0  0  0  0  0  0  0
   57.7580   31.3570   51.3630 C   0  0  0  0  0  0  0  0  0  0  0  0
   57.0870   30.1460   51.2470 O   0  0  0  0  0  0  0  0  0  0  0  0
   58.4840   28.1220   44.8340 C   0  0  0  0  0  0  0  0  0  0  0  0
   55.1360   26.3730   46.0610 N   0  0  0  0  0  0  0  0  0  0  0  0
   53.9860   25.9490   45.6240 O   0  0  0  0  0  0  0  0  0  0  0  0
   52.2401   23.4552   45.8077 H   0  0  0  0  0  0  0  0  0  0  0  0
   52.1929   24.5103   44.3547 H   0  0  0  0  0  0  0  0  0  0  0  0
   53.2053   23.0265   44.3547 H   0  0  0  0  0  0  0  0  0  0  0  0
   55.5443   23.0936   45.9098 H   0  0  0  0  0  0  0  0  0  0  0  0
   60.6564   26.6372   47.0177 H   0  0  0  0  0  0  0  0  0  0  0  0
   61.5106   28.9805   47.1274 H   0  0  0  0  0  0  0  0  0  0  0  0
   60.4020   30.7803   45.8039 H   0  0  0  0  0  0  0  0  0  0  0  0
   58.3943   33.1079   44.6056 H   0  0  0  0  0  0  0  0  0  0  0  0
   56.6192   33.3618   44.9206 H   0  0  0  0  0  0  0  0  0  0  0  0
   57.2880   33.7809   47.0318 H   0  0  0  0  0  0  0  0  0  0  0  0
   57.3693   31.9551   47.1272 H   0  0  0  0  0  0  0  0  0  0  0  0
   59.6710   34.4384   45.5167 H   0  0  0  0  0  0  0  0  0  0  0  0
   62.1038   34.5545   46.0172 H   0  0  0  0  0  0  0  0  0  0  0  0
   63.0989   33.0659   47.7498 H   0  0  0  0  0  0  0  0  0  0  0  0
   61.6624   31.4452   48.9748 H   0  0  0  0  0  0  0  0  0  0  0  0
   59.9273   33.3930   49.6677 H   0  0  0  0  0  0  0  0  0  0  0  0
   59.5153   34.8225   51.6715 H   0  0  0  0  0  0  0  0  0  0  0  0
   57.9908   34.0299   53.4821 H   0  0  0  0  0  0  0  0  0  0  0  0
   56.8808   31.8040   53.2949 H   0  0  0  0  0  0  0  0  0  0  0  0
   57.6613   27.8698   44.1488 H   0  0  0  0  0  0  0  0  0  0  0  0
  1  2  1  0
  2  3  2  0
  3  4  1  0
  4  5  2  3
  5  6  1  0
  6  7  2  0
  6  8  2  0
  6  9  1  0
  9 10  2  0
 10 11  1  0
 11 12  2  0
 12 13  1  0
 13 14  1  0
 14 15  1  0
 15 16  2  0
 15 17  1  0
 17 18  1  0
 18 19  1  0
 19 20  2  0
 20 21  1  0
 21 22  2  0
 22 23  1  0
 23 24  2  0
 24 25  1  0
 25 26  1  0
 26 27  2  0
 27 28  1  0
 28 29  2  0
 29 30  1  0
 30 31  2  0
 31 32  1  0
 13 33  2  0
  4 34  1  0
 34 35  1  0
 35  2  1  0
 33  9  1  0
 24 19  1  0
 31 26  1  0
  1 36  1  0
  1 37  1  0
  1 38  1  0
  3 39  1  0
 10 40  1  0
 11 41  1  0
 12 42  1  0
 17 43  1  0
 17 44  1  0
 18 45  1  0
 18 46  1  0
 20 47  1  0
 21 48  1  0
 22 49  1  0
 23 50  1  0
 27 51  1  0
 28 52  1  0
 29 53  1  0
 30 54  1  0
 33 55  1  0
M  CHG  3  14  -1  32  -1  34  -1
M  END
>  <UniqueID>  (94) 
83

>  <SMILES>  (94) 
Cc1cc(=NS(=O)(=O)c2cccc([N-]C(=O)CCc3ccccc3Sc3ccccc3[O-])c2)[n-]o1

>  <Energy>  (94) 
85.67203046879277

>  <Genealogy>  (94) 
Cc1cc(=NS(=O)(=O)c2cccc([N-]C(=O)CCc3ccccc3Sc3ccccc3[O-])c2)[n-]o1 (protonated)
Cc1cc(=NS(=O)(=O)c2cccc([N-]C(=O)CCc3ccccc3Sc3ccccc3[O-])c2)[n-]o1 (3D coordinates assigned)
Cc1cc(=NS(=O)(=O)c2cccc([N-]C(=O)CCc3ccccc3Sc3ccccc3[O-])c2)[n-]o1 (optimized conformer: 85.67203046879277 kcal/mol)

>  <smiles>  (94) 
Cc1cc(=NS(=O)(=O)c2cccc(NC(=O)CCc3ccccc3Sc3ccccc3O)c2)[nH]o1

>  <score_type>  (94) 
oracle

>  <origin>  (94) 
adg

>  <m_score__min__energy>  (94) 
-16.600000000000001

>  <m_primary>  (94) 
energy

$$$$
94:0
     RDKit          3D

 63 66  0  0  0  0  0  0  0  0999 V2000
   58.7180   27.7130   44.0100 O   0  0  0  0  0  0  0  0  0  0  0  0
   57.9590   27.9200   44.9960 C   0  0  0  0  0  0  0  0  0  0  0  0
   57.0250   29.0100   44.9630 N   0  0  0  0  0  0  0  0  0  0  0  0
   57.1690   30.1520   44.1010 C   0  0  0  0  0  0  0  0  0  0  0  0
   56.7140   30.1040   42.7700 C   0  0  0  0  0  0  0  0  0  0  0  0
   56.8920   31.1990   41.9200 C   0  0  0  0  0  0  0  0  0  0  0  0
   57.5300   32.3500   42.3870 C   0  0  0  0  0  0  0  0  0  0  0  0
   57.9970   32.4060   43.7020 C   0  0  0  0  0  0  0  0  0  0  0  0
   57.8250   31.3140   44.5600 C   0  0  0  0  0  0  0  0  0  0  0  0
   58.4070   31.4430   46.2160 Cl  0  0  0  0  0  0  0  0  0  0  0  0
   58.0200   27.0470   46.1440 N   0  0  0  0  0  0  0  0  0  0  0  0
   58.7870   27.4210   47.3060 C   0  0  0  0  0  0  0  0  0  0  0  0
   58.4880   28.6030   47.9990 C   0  0  0  0  0  0  0  0  0  0  0  0
   59.2420   28.9800   49.1140 C   0  0  0  0  0  0  0  0  0  0  0  0
   60.3100   28.1740   49.5550 C   0  0  0  0  0  0  0  0  0  0  0  0
   61.1400   28.5330   50.6320 O   0  0  0  0  0  0  0  0  0  0  0  0
   60.9320   28.1710   51.9990 C   0  0  0  0  0  0  0  0  0  0  0  0
   60.8270   29.4110   52.8950 C   0  0  0  0  0  0  0  0  0  0  0  0
   59.6480   30.2230   52.5150 N   0  0  0  0  0  0  0  0  0  0  0  0
   59.9930   31.2920   51.5550 C   0  0  0  0  0  0  0  0  0  0  0  0
   59.3810   32.6570   51.9210 C   0  0  0  0  0  0  0  0  0  0  0  0
   57.8340   32.7210   51.9440 C   0  0  0  0  0  0  0  0  0  0  0  0
   57.1360   31.5870   52.7200 C   0  0  0  0  0  0  0  0  0  0  0  0
   57.1530   30.1980   52.0330 C   0  0  0  0  0  0  0  0  0  0  0  0
   58.4650   29.3980   52.1650 C   0  0  0  0  0  0  0  0  0  0  0  0
   60.5760   26.9740   48.8890 C   0  0  0  0  0  0  0  0  0  0  0  0
   59.8290   26.6020   47.7670 C   0  0  0  0  0  0  0  0  0  0  0  0
   57.2900   25.8060   46.1480 C   0  0  0  0  0  0  0  0  0  0  0  0
   57.9820   24.5910   46.2670 C   0  0  0  0  0  0  0  0  0  0  0  0
   57.2860   23.3790   46.2570 C   0  0  0  0  0  0  0  0  0  0  0  0
   55.8940   23.3730   46.1360 C   0  0  0  0  0  0  0  0  0  0  0  0
   55.1950   24.5780   46.0340 C   0  0  0  0  0  0  0  0  0  0  0  0
   55.8850   25.7950   46.0450 C   0  0  0  0  0  0  0  0  0  0  0  0
   55.1710   26.9860   45.9660 O   0  0  0  0  0  0  0  0  0  0  0  0
   56.1900   28.9580   45.5890 H   0  0  0  0  0  0  0  0  0  0  0  0
   56.2146   29.1980   42.3960 H   0  0  0  0  0  0  0  0  0  0  0  0
   56.5293   31.1541   40.8825 H   0  0  0  0  0  0  0  0  0  0  0  0
   57.6648   33.2132   41.7187 H   0  0  0  0  0  0  0  0  0  0  0  0
   58.5025   33.3130   44.0651 H   0  0  0  0  0  0  0  0  0  0  0  0
   57.6547   29.2376   47.6629 H   0  0  0  0  0  0  0  0  0  0  0  0
   59.0004   29.9100   49.6494 H   0  0  0  0  0  0  0  0  0  0  0  0
   60.0002   27.5919   52.0783 H   0  0  0  0  0  0  0  0  0  0  0  0
   61.7922   27.5729   52.3341 H   0  0  0  0  0  0  0  0  0  0  0  0
   60.7260   29.0934   53.9433 H   0  0  0  0  0  0  0  0  0  0  0  0
   61.7349   30.0195   52.7707 H   0  0  0  0  0  0  0  0  0  0  0  0
   61.0877   31.3961   51.5263 H   0  0  0  0  0  0  0  0  0  0  0  0
   59.5798   30.9999   50.5783 H   0  0  0  0  0  0  0  0  0  0  0  0
   59.7445   32.9316   52.9222 H   0  0  0  0  0  0  0  0  0  0  0  0
   59.6954   33.3471   51.1242 H   0  0  0  0  0  0  0  0  0  0  0  0
   57.5408   33.6766   52.4032 H   0  0  0  0  0  0  0  0  0  0  0  0
   57.5111   32.6152   50.8978 H   0  0  0  0  0  0  0  0  0  0  0  0
   57.6337   31.4882   53.6960 H   0  0  0  0  0  0  0  0  0  0  0  0
   56.0770   31.8763   52.7889 H   0  0  0  0  0  0  0  0  0  0  0  0
   56.3447   29.5948   52.4720 H   0  0  0  0  0  0  0  0  0  0  0  0
   57.0315   30.3959   50.9578 H   0  0  0  0  0  0  0  0  0  0  0  0
   58.3290   28.6394   52.9499 H   0  0  0  0  0  0  0  0  0  0  0  0
   58.6676   28.9579   51.1775 H   0  0  0  0  0  0  0  0  0  0  0  0
   61.3802   26.3165   49.2509 H   0  0  0  0  0  0  0  0  0  0  0  0
   60.0594   25.6626   47.2431 H   0  0  0  0  0  0  0  0  0  0  0  0
   59.0773   24.5925   46.3686 H   0  0  0  0  0  0  0  0  0  0  0  0
   57.8343   22.4294   46.3444 H   0  0  0  0  0  0  0  0  0  0  0  0
   55.3480   22.4182   46.1211 H   0  0  0  0  0  0  0  0  0  0  0  0
   54.0987   24.5701   45.9448 H   0  0  0  0  0  0  0  0  0  0  0  0
  1  2  2  0
  2  3  1  0
  3  4  1  0
  4  5  2  0
  5  6  1  0
  6  7  2  0
  7  8  1  0
  8  9  2  0
  9 10  1  0
  2 11  1  0
 11 12  1  0
 12 13  2  0
 13 14  1  0
 14 15  2  0
 15 16  1  0
 16 17  1  0
 17 18  1  0
 18 19  1  0
 19 20  1  0
 20 21  1  0
 21 22  1  0
 22 23  1  0
 23 24  1  0
 24 25  1  0
 15 26  1  0
 26 27  2  0
 11 28  1  0
 28 29  2  0
 29 30  1  0
 30 31  2  0
 31 32  1  0
 32 33  2  0
 33 34  1  0
  9  4  1  0
 27 12  1  0
 33 28  1  0
 25 19  1  0
  3 35  1  0
  5 36  1  0
  6 37  1  0
  7 38  1  0
  8 39  1  0
 13 40  1  0
 14 41  1  0
 17 42  1  0
 17 43  1  0
 18 44  1  0
 18 45  1  0
 20 46  1  0
 20 47  1  0
 21 48  1  0
 21 49  1  0
 22 50  1  0
 22 51  1  0
 23 52  1  0
 23 53  1  0
 24 54  1  0
 24 55  1  0
 25 56  1  0
 25 57  1  0
 26 58  1  0
 27 59  1  0
 29 60  1  0
 30 61  1  0
 31 62  1  0
 32 63  1  0
M  CHG  1  34  -1
M  END
>  <UniqueID>  (95) 
84

>  <SMILES>  (95) 
O=C(Nc1ccccc1Cl)N(c1ccc(OCCN2CCCCCC2)cc1)c1ccccc1[O-]

>  <Energy>  (95) 
96.44040690601074

>  <Genealogy>  (95) 
O=C(Nc1ccccc1Cl)N(c1ccc(OCCN2CCCCCC2)cc1)c1ccccc1[O-] (protonated)
O=C(Nc1ccccc1Cl)N(c1ccc(OCCN2CCCCCC2)cc1)c1ccccc1[O-] (3D coordinates assigned)
O=C(Nc1ccccc1Cl)N(c1ccc(OCCN2CCCCCC2)cc1)c1ccccc1[O-] (nonaromatic ring conformer: 96.44040690601074 kcal/mol)

>  <smiles>  (95) 
O=C(Nc1ccccc1Cl)N(c1ccc(OCCN2CCCCCC2)cc1)c1ccccc1O

>  <score_type>  (95) 
oracle

>  <origin>  (95) 
adg

>  <m_score__min__energy>  (95) 
-10.720000000000001

>  <m_primary>  (95) 
energy

$$$$
95:0
     RDKit          3D

 40 42  0  0  0  0  0  0  0  0999 V2000
   60.3510   29.9110   46.2690 C   0  0  0  0  0  0  0  0  0  0  0  0
   59.1600   30.6640   46.0730 O   0  0  0  0  0  0  0  0  0  0  0  0
   59.1010   32.0670   46.0290 C   0  0  0  0  0  0  0  0  0  0  0  0
   59.7310   32.8680   47.0050 C   0  0  0  0  0  0  0  0  0  0  0  0
   59.6480   34.2600   46.9370 C   0  0  0  0  0  0  0  0  0  0  0  0
   58.9400   34.8700   45.9020 C   0  0  0  0  0  0  0  0  0  0  0  0
   58.3120   34.0910   44.9280 C   0  0  0  0  0  0  0  0  0  0  0  0
   58.3910   32.6880   44.9810 C   0  0  0  0  0  0  0  0  0  0  0  0
   57.6890   31.8580   43.9350 C   0  0  0  0  0  0  0  0  0  0  0  0
   56.4800   31.2600   44.4900 N   0  0  0  0  0  0  0  0  0  0  0  0
   56.3300   29.8570   44.7300 C   0  0  0  0  0  0  0  0  0  0  0  0
   55.1800   29.3540   44.8470 O   0  0  0  0  0  0  0  0  0  0  0  0
   57.4990   29.0290   44.7900 N   0  0  0  0  0  0  0  0  0  0  0  0
   57.5000   27.6610   45.2380 C   0  0  0  0  0  0  0  0  0  0  0  0
   57.7690   26.6010   44.3570 C   0  0  0  0  0  0  0  0  0  0  0  0
   57.7410   25.2790   44.8110 C   0  0  0  0  0  0  0  0  0  0  0  0
   57.4300   24.9870   46.1520 C   0  0  0  0  0  0  0  0  0  0  0  0
   57.4020   23.5820   46.6350 C   0  0  0  0  0  0  0  0  0  0  0  0
   57.7690   22.4410   45.9470 C   0  0  0  0  0  0  0  0  0  0  0  0
   57.5940   21.3690   46.7410 N   0  0  0  0  0  0  0  0  0  0  0  0
   57.1280   21.7800   47.9100 N   0  0  0  0  0  0  0  0  0  0  0  0
   57.0010   23.1190   47.8750 C   0  0  0  0  0  0  0  0  0  0  0  0
   57.1390   26.0530   47.0240 C   0  0  0  0  0  0  0  0  0  0  0  0
   57.1660   27.3740   46.5680 C   0  0  0  0  0  0  0  0  0  0  0  0
   60.5372   29.7933   47.3467 H   0  0  0  0  0  0  0  0  0  0  0  0
   60.2384   28.9196   45.8059 H   0  0  0  0  0  0  0  0  0  0  0  0
   61.1983   30.4379   45.8059 H   0  0  0  0  0  0  0  0  0  0  0  0
   60.2907   32.3929   47.8242 H   0  0  0  0  0  0  0  0  0  0  0  0
   60.1423   34.8771   47.7018 H   0  0  0  0  0  0  0  0  0  0  0  0
   58.8761   35.9670   45.8527 H   0  0  0  0  0  0  0  0  0  0  0  0
   57.7527   34.5773   44.1152 H   0  0  0  0  0  0  0  0  0  0  0  0
   57.4183   32.5002   43.0839 H   0  0  0  0  0  0  0  0  0  0  0  0
   58.3644   31.0560   43.6025 H   0  0  0  0  0  0  0  0  0  0  0  0
   58.3900   29.4260   44.4140 H   0  0  0  0  0  0  0  0  0  0  0  0
   58.0032   26.8122   43.3032 H   0  0  0  0  0  0  0  0  0  0  0  0
   57.9643   24.4588   44.1129 H   0  0  0  0  0  0  0  0  0  0  0  0
   58.1448   22.4136   44.9135 H   0  0  0  0  0  0  0  0  0  0  0  0
   56.6360   23.7462   48.7017 H   0  0  0  0  0  0  0  0  0  0  0  0
   56.8879   25.8444   48.0745 H   0  0  0  0  0  0  0  0  0  0  0  0
   56.9231   28.1948   47.2589 H   0  0  0  0  0  0  0  0  0  0  0  0
  1  2  1  0
  2  3  1  0
  3  4  2  0
  4  5  1  0
  5  6  2  0
  6  7  1  0
  7  8  2  0
  8  9  1  0
  9 10  1  0
 10 11  1  0
 11 12  2  0
 11 13  1  0
 13 14  1  0
 14 15  2  0
 15 16  1  0
 16 17  2  0
 17 18  1  0
 18 19  1  0
 19 20  2  0
 20 21  1  0
 21 22  1  0
 17 23  1  0
 23 24  2  0
  8  3  1  0
 24 14  1  0
 22 18  2  0
  1 25  1  0
  1 26  1  0
  1 27  1  0
  4 28  1  0
  5 29  1  0
  6 30  1  0
  7 31  1  0
  9 32  1  0
  9 33  1  0
 13 34  1  0
 15 35  1  0
 16 36  1  0
 19 37  1  0
 22 38  1  0
 23 39  1  0
 24 40  1  0
M  CHG  2  10  -1  21  -1
M  END
>  <UniqueID>  (96) 
85

>  <SMILES>  (96) 
COc1ccccc1C[N-]C(=O)Nc1ccc(-c2cn[n-]c2)cc1

>  <Energy>  (96) 
74.68934241458156

>  <Genealogy>  (96) 
COc1ccccc1C[N-]C(=O)Nc1ccc(-c2cn[n-]c2)cc1 (protonated)
COc1ccccc1C[N-]C(=O)Nc1ccc(-c2cn[n-]c2)cc1 (3D coordinates assigned)
COc1ccccc1C[N-]C(=O)Nc1ccc(-c2cn[n-]c2)cc1 (optimized conformer: 74.68934241458156 kcal/mol)

>  <smiles>  (96) 
COc1ccccc1CNC(=O)Nc1ccc(-c2cn[nH]c2)cc1

>  <score_type>  (96) 
oracle

>  <origin>  (96) 
adg

>  <m_score__min__energy>  (96) 
-10.6

>  <m_primary>  (96) 
energy

$$$$
