0:0
     RDKit          3D

 46 48  0  0  0  0  0  0  0  0999 V2000
   56.6430   24.0840   43.4490 C   0  0  0  0  0  0  0  0  0  0  0  0
   56.1230   23.4990   44.5290 C   0  0  0  0  0  0  0  0  0  0  0  0
   55.9030   24.1760   45.7380 O   0  0  0  0  0  0  0  0  0  0  0  0
   55.9430   25.5680   45.9160 C   0  0  0  0  0  0  0  0  0  0  0  0
   54.8690   26.2220   45.9980 O   0  0  0  0  0  0  0  0  0  0  0  0
   57.2580   26.2470   46.0740 C   0  0  0  0  0  0  0  0  0  0  0  0
   58.3890   25.4660   46.3820 C   0  0  0  0  0  0  0  0  0  0  0  0
   59.6420   26.0590   46.5530 C   0  0  0  0  0  0  0  0  0  0  0  0
   59.7870   27.4370   46.4210 C   0  0  0  0  0  0  0  0  0  0  0  0
   58.6840   28.2300   46.1080 C   0  0  0  0  0  0  0  0  0  0  0  0
   57.4160   27.6500   45.9090 C   0  0  0  0  0  0  0  0  0  0  0  0
   56.2800   28.4740   45.6030 N   0  0  0  0  0  0  0  0  0  0  0  0
   56.2400   29.5570   44.6660 C   0  0  0  0  0  0  0  0  0  0  0  0
   55.1800   30.2160   44.4850 O   0  0  0  0  0  0  0  0  0  0  0  0
   57.4720   29.9140   43.9050 C   0  0  0  0  0  0  0  0  0  0  0  0
   57.4000   31.6740   43.4420 S   0  0  0  0  0  0  0  0  0  0  0  0
   58.2540   32.2200   44.9300 C   0  0  0  0  0  0  0  0  0  0  0  0
   59.1420   31.3600   45.5040 N   0  0  0  0  0  0  0  0  0  0  0  0
   59.8250   31.7220   46.6160 C   0  0  0  0  0  0  0  0  0  0  0  0
   59.6520   32.9590   47.1700 C   0  0  0  0  0  0  0  0  0  0  0  0
   58.7310   33.8410   46.6080 C   0  0  0  0  0  0  0  0  0  0  0  0
   58.5620   34.9760   47.1320 O   0  0  0  0  0  0  0  0  0  0  0  0
   58.0270   33.4610   45.4880 N   0  0  0  0  0  0  0  0  0  0  0  0
   57.0440   34.3700   44.8720 C   0  0  0  0  0  0  0  0  0  0  0  0
   60.6440   33.2700   48.6160 S   0  0  0  0  0  0  0  0  0  0  0  0
   61.0020   31.4700   48.7040 C   0  0  2  0  0  0  0  0  0  0  0  0
   62.4170   31.2350   49.2300 C   0  0  0  0  0  0  0  0  0  0  0  0
   60.7970   30.8460   47.3090 C   0  0  0  0  0  0  0  0  0  0  0  0
   56.7931   23.5028   42.5272 H   0  0  0  0  0  0  0  0  0  0  0  0
   56.9218   25.1476   43.4801 H   0  0  0  0  0  0  0  0  0  0  0  0
   55.8536   22.4342   44.4689 H   0  0  0  0  0  0  0  0  0  0  0  0
   58.2842   24.3763   46.4891 H   0  0  0  0  0  0  0  0  0  0  0  0
   60.5161   25.4356   46.7925 H   0  0  0  0  0  0  0  0  0  0  0  0
   60.7739   27.9013   46.5639 H   0  0  0  0  0  0  0  0  0  0  0  0
   58.8051   29.3194   46.0155 H   0  0  0  0  0  0  0  0  0  0  0  0
   58.3573   29.7345   44.5327 H   0  0  0  0  0  0  0  0  0  0  0  0
   57.5387   29.2954   42.9979 H   0  0  0  0  0  0  0  0  0  0  0  0
   56.4812   34.8904   45.6609 H   0  0  0  0  0  0  0  0  0  0  0  0
   57.5683   35.1084   44.2477 H   0  0  0  0  0  0  0  0  0  0  0  0
   56.3488   33.7896   44.2477 H   0  0  0  0  0  0  0  0  0  0  0  0
   60.3103   30.9832   49.4072 H   0  0  0  0  0  0  0  0  0  0  0  0
   62.4044   31.2371   50.3299 H   0  0  0  0  0  0  0  0  0  0  0  0
   62.7856   30.2633   48.8694 H   0  0  0  0  0  0  0  0  0  0  0  0
   63.0799   32.0354   48.8694 H   0  0  0  0  0  0  0  0  0  0  0  0
   61.7486   30.8180   46.7580 H   0  0  0  0  0  0  0  0  0  0  0  0
   60.4326   29.8104   47.3775 H   0  0  0  0  0  0  0  0  0  0  0  0
  1  2  2  0
  2  3  1  0
  3  4  1  0
  4  5  2  0
  4  6  1  0
  6  7  2  0
  7  8  1  0
  8  9  2  0
  9 10  1  0
 10 11  2  0
 11 12  1  0
 12 13  1  0
 13 14  2  0
 13 15  1  0
 15 16  1  0
 16 17  1  0
 17 18  2  0
 18 19  1  0
 19 20  2  0
 20 21  1  0
 21 22  2  0
 21 23  1  0
 23 24  1  0
 20 25  1  0
 25 26  1  0
 26 27  1  0
 26 28  1  0
 11  6  1  0
 23 17  1  0
 28 19  1  0
  1 29  1  0
  1 30  1  0
  2 31  1  0
  7 32  1  0
  8 33  1  0
  9 34  1  0
 10 35  1  0
 15 36  1  0
 15 37  1  0
 24 38  1  0
 24 39  1  0
 24 40  1  0
 26 41  1  1
 27 42  1  0
 27 43  1  0
 27 44  1  0
 28 45  1  0
 28 46  1  0
M  CHG  1  12  -1
M  END
>  <UniqueID>  (1) 
1

>  <SMILES>  (1) 
C=COC(=O)c1ccccc1[N-]C(=O)CSc1nc2c(c(=O)n1C)S[C@H](C)C2

>  <Energy>  (1) 
62.544033434196116

>  <Genealogy>  (1) 
C=COC(=O)c1ccccc1[N-]C(=O)CSc1nc2c(c(=O)n1C)SC(C)C2 (protonated)
C=COC(=O)c1ccccc1[N-]C(=O)CSc1nc2c(c(=O)n1C)S[C@H](C)C2 (chirality)
C=COC(=O)c1ccccc1[N-]C(=O)CSc1nc2c(c(=O)n1C)S[C@H](C)C2 (3D coordinates assigned)
C=COC(=O)c1ccccc1[N-]C(=O)CSc1nc2c(c(=O)n1C)S[C@H](C)C2 (nonaromatic ring conformer: 62.544033434196116 kcal/mol)

>  <smiles>  (1) 
C=COC(=O)c1ccccc1NC(=O)CSc1nc2c(c(=O)n1C)SC(C)C2

>  <score_type>  (1) 
oracle

>  <origin>  (1) 
adg

>  <m_score__min__energy>  (1) 
-10.92

>  <m_primary>  (1) 
energy

$$$$
1:0
     RDKit          3D

 44 47  0  0  0  0  0  0  0  0999 V2000
   60.3370   25.9610   46.3730 C   0  0  0  0  0  0  0  0  0  0  0  0
   58.8840   26.1980   46.1180 C   0  0  0  0  0  0  0  0  0  0  0  0
   57.8640   25.2560   46.3400 C   0  0  0  0  0  0  0  0  0  0  0  0
   56.3390   25.9840   46.0170 S   0  0  0  0  0  0  0  0  0  0  0  0
   57.0780   27.4350   45.6220 C   0  0  0  0  0  0  0  0  0  0  0  0
   56.6200   28.6460   45.2800 N   0  0  0  0  0  0  0  0  0  0  0  0
   57.8070   29.3260   45.1760 C   0  0  0  0  0  0  0  0  0  0  0  0
   57.8750   30.7750   44.8430 C   0  0  0  0  0  0  0  0  0  0  0  0
   57.6990   31.1370   43.4970 C   0  0  0  0  0  0  0  0  0  0  0  0
   57.7850   32.4660   43.0950 C   0  0  0  0  0  0  0  0  0  0  0  0
   58.0250   33.4620   44.0320 C   0  0  0  0  0  0  0  0  0  0  0  0
   58.1560   33.1490   45.3880 C   0  0  0  0  0  0  0  0  0  0  0  0
   58.4180   34.2190   46.3050 N   0  0  0  0  0  0  0  0  0  0  0  0
   59.6650   34.9160   46.4400 C   0  0  0  0  0  0  0  0  0  0  0  0
   59.7610   36.0690   45.9420 O   0  0  0  0  0  0  0  0  0  0  0  0
   60.8390   34.3350   47.1370 C   0  0  0  0  0  0  0  0  0  0  0  0
   61.9450   33.8440   46.4210 C   0  0  0  0  0  0  0  0  0  0  0  0
   63.0410   33.2990   47.0960 C   0  0  0  0  0  0  0  0  0  0  0  0
   63.0370   33.2200   48.4920 C   0  0  0  0  0  0  0  0  0  0  0  0
   64.4140   32.5370   49.3370 Cl  0  0  0  0  0  0  0  0  0  0  0  0
   61.9280   33.6730   49.2110 C   0  0  0  0  0  0  0  0  0  0  0  0
   60.8300   34.2170   48.5380 C   0  0  0  0  0  0  0  0  0  0  0  0
   58.1430   31.7920   45.8100 C   0  0  0  0  0  0  0  0  0  0  0  0
   58.5320   31.4430   47.2360 C   0  0  0  0  0  0  0  0  0  0  0  0
   59.9710   30.9210   47.3420 C   0  0  0  0  0  0  0  0  0  0  0  0
   59.9800   29.6170   47.8560 O   0  0  0  0  0  0  0  0  0  0  0  0
   58.8980   28.5600   45.4680 N   0  0  0  0  0  0  0  0  0  0  0  0
   58.3760   27.3850   45.7290 N   0  0  0  0  0  0  0  0  0  0  0  0
   60.5189   25.9313   47.4575 H   0  0  0  0  0  0  0  0  0  0  0  0
   60.6363   25.0022   45.9246 H   0  0  0  0  0  0  0  0  0  0  0  0
   60.9255   26.7750   45.9246 H   0  0  0  0  0  0  0  0  0  0  0  0
   58.0170   24.2174   46.6684 H   0  0  0  0  0  0  0  0  0  0  0  0
   57.4900   30.3576   42.7495 H   0  0  0  0  0  0  0  0  0  0  0  0
   57.6627   32.7280   42.0337 H   0  0  0  0  0  0  0  0  0  0  0  0
   58.1130   34.5082   43.7039 H   0  0  0  0  0  0  0  0  0  0  0  0
   61.9478   33.8891   45.3219 H   0  0  0  0  0  0  0  0  0  0  0  0
   63.9083   32.9316   46.5279 H   0  0  0  0  0  0  0  0  0  0  0  0
   61.9188   33.6015   50.3086 H   0  0  0  0  0  0  0  0  0  0  0  0
   59.9526   34.5552   49.1088 H   0  0  0  0  0  0  0  0  0  0  0  0
   58.4374   32.3452   47.8582 H   0  0  0  0  0  0  0  0  0  0  0  0
   57.8601   30.6425   47.5791 H   0  0  0  0  0  0  0  0  0  0  0  0
   60.4310   30.9201   46.3428 H   0  0  0  0  0  0  0  0  0  0  0  0
   60.5397   31.5757   48.0187 H   0  0  0  0  0  0  0  0  0  0  0  0
   59.5610   29.0370   47.1680 H   0  0  0  0  0  0  0  0  0  0  0  0
  1  2  1  0
  2  3  2  0
  3  4  1  0
  4  5  1  0
  5  6  2  0
  6  7  1  0
  7  8  1  0
  8  9  2  0
  9 10  1  0
 10 11  2  0
 11 12  1  0
 12 13  1  0
 13 14  1  0
 14 15  2  0
 14 16  1  0
 16 17  2  0
 17 18  1  0
 18 19  2  0
 19 20  1  0
 19 21  1  0
 21 22  2  0
 12 23  2  0
 23 24  1  0
 24 25  1  0
 25 26  1  0
  7 27  2  0
 27 28  1  0
 28  2  1  0
 28  5  1  0
 23  8  1  0
 22 16  1  0
  1 29  1  0
  1 30  1  0
  1 31  1  0
  3 32  1  0
  9 33  1  0
 10 34  1  0
 11 35  1  0
 17 36  1  0
 18 37  1  0
 21 38  1  0
 22 39  1  0
 24 40  1  0
 24 41  1  0
 25 42  1  0
 25 43  1  0
 26 44  1  0
M  CHG  1  13  -1
M  END
>  <UniqueID>  (2) 
2

>  <SMILES>  (2) 
Cc1csc2nc(-c3cccc([N-]C(=O)c4ccc(Cl)cc4)c3CCO)nn12

>  <Energy>  (2) 
147.56300902878596

>  <Genealogy>  (2) 
Cc1csc2nc(-c3cccc([N-]C(=O)c4ccc(Cl)cc4)c3CCO)nn12 (protonated)
Cc1csc2nc(-c3cccc([N-]C(=O)c4ccc(Cl)cc4)c3CCO)nn12 (3D coordinates assigned)
Cc1csc2nc(-c3cccc([N-]C(=O)c4ccc(Cl)cc4)c3CCO)nn12 (optimized conformer: 147.56300902878596 kcal/mol)

>  <smiles>  (2) 
Cc1csc2nc(-c3cccc(NC(=O)c4ccc(Cl)cc4)c3CCO)nn12

>  <score_type>  (2) 
oracle

>  <origin>  (2) 
adg

>  <m_score__min__energy>  (2) 
-10.109999999999999

>  <m_primary>  (2) 
energy

$$$$
2:0
     RDKit          3D

 53 56  0  0  0  0  0  0  0  0999 V2000
   56.4310   23.3730   47.6570 O   0  0  0  0  0  0  0  0  0  0  0  0
   55.6510   22.4220   47.3780 C   0  0  0  0  0  0  0  0  0  0  0  0
   55.8200   21.0970   48.0550 C   0  0  0  0  0  0  0  0  0  0  0  0
   57.0050   20.3180   47.4610 C   0  0  0  0  0  0  0  0  0  0  0  0
   57.2600   20.7270   46.0770 N   0  0  0  0  0  0  0  0  0  0  0  0
   58.2670   21.5130   45.6420 C   0  0  0  0  0  0  0  0  0  0  0  0
   58.2510   21.5010   44.2640 C   0  0  0  0  0  0  0  0  0  0  0  0
   57.2450   20.7070   43.8470 N   0  0  0  0  0  0  0  0  0  0  0  0
   56.6560   20.2480   44.9700 C   0  0  0  0  0  0  0  0  0  0  0  0
   54.6670   22.5710   46.3530 N   0  0  0  0  0  0  0  0  0  0  0  0
   54.9440   23.5330   44.9390 S   0  0  0  0  0  0  0  0  0  0  0  0
   55.4280   22.6320   43.8370 O   0  0  0  0  0  0  0  0  0  0  0  0
   53.6500   24.1700   44.5190 O   0  0  0  0  0  0  0  0  0  0  0  0
   56.1360   24.7930   45.2630 C   0  0  0  0  0  0  0  0  0  0  0  0
   57.5010   24.5350   45.0660 C   0  0  0  0  0  0  0  0  0  0  0  0
   58.4540   25.5250   45.3210 C   0  0  0  0  0  0  0  0  0  0  0  0
   58.0620   26.7890   45.7920 C   0  0  0  0  0  0  0  0  0  0  0  0
   59.0660   27.8460   46.0680 C   0  0  0  0  0  0  0  0  0  0  0  0
   59.1670   28.4140   47.3520 C   0  0  0  0  0  0  0  0  0  0  0  0
   60.0850   29.4350   47.6050 C   0  0  0  0  0  0  0  0  0  0  0  0
   60.9030   29.9120   46.5780 C   0  0  0  0  0  0  0  0  0  0  0  0
   61.7740   30.9750   46.8330 O   0  0  0  0  0  0  0  0  0  0  0  0
   61.3660   32.1990   47.3810 C   0  0  0  0  0  0  0  0  0  0  0  0
   60.2640   32.9200   46.8710 C   0  0  0  0  0  0  0  0  0  0  0  0
   59.8580   34.1090   47.4860 C   0  0  0  0  0  0  0  0  0  0  0  0
   60.5440   34.5840   48.6150 C   0  0  0  0  0  0  0  0  0  0  0  0
   61.6510   33.8840   49.1150 C   0  0  0  0  0  0  0  0  0  0  0  0
   62.0670   32.7030   48.4930 C   0  0  0  0  0  0  0  0  0  0  0  0
   60.8360   29.3320   45.3060 C   0  0  0  0  0  0  0  0  0  0  0  0
   59.9230   28.3040   45.0490 C   0  0  0  0  0  0  0  0  0  0  0  0
   56.6920   27.0400   45.9990 C   0  0  0  0  0  0  0  0  0  0  0  0
   55.7360   26.0510   45.7420 C   0  0  0  0  0  0  0  0  0  0  0  0
   54.3950   26.3270   45.9750 O   0  0  0  0  0  0  0  0  0  0  0  0
   56.0003   21.2621   49.1275 H   0  0  0  0  0  0  0  0  0  0  0  0
   54.9036   20.5079   47.9027 H   0  0  0  0  0  0  0  0  0  0  0  0
   57.9032   20.5131   48.0653 H   0  0  0  0  0  0  0  0  0  0  0  0
   56.7603   19.2456   47.4707 H   0  0  0  0  0  0  0  0  0  0  0  0
   58.9759   22.0660   46.2758 H   0  0  0  0  0  0  0  0  0  0  0  0
   58.9458   22.0498   43.6112 H   0  0  0  0  0  0  0  0  0  0  0  0
   56.9940   20.4620   42.8640 H   0  0  0  0  0  0  0  0  0  0  0  0
   55.7913   19.5681   44.9818 H   0  0  0  0  0  0  0  0  0  0  0  0
   57.8235   23.5461   44.7082 H   0  0  0  0  0  0  0  0  0  0  0  0
   59.5199   25.3126   45.1515 H   0  0  0  0  0  0  0  0  0  0  0  0
   58.5177   28.0507   48.1622 H   0  0  0  0  0  0  0  0  0  0  0  0
   60.1643   29.8645   48.6146 H   0  0  0  0  0  0  0  0  0  0  0  0
   59.7240   32.5460   45.9887 H   0  0  0  0  0  0  0  0  0  0  0  0
   59.0018   34.6714   47.0853 H   0  0  0  0  0  0  0  0  0  0  0  0
   60.2117   35.5089   49.1092 H   0  0  0  0  0  0  0  0  0  0  0  0
   62.1912   34.2632   49.9950 H   0  0  0  0  0  0  0  0  0  0  0  0
   62.9470   32.1646   48.8746 H   0  0  0  0  0  0  0  0  0  0  0  0
   61.5032   29.6856   44.5061 H   0  0  0  0  0  0  0  0  0  0  0  0
   59.8743   27.8518   44.0474 H   0  0  0  0  0  0  0  0  0  0  0  0
   56.3695   28.0251   46.3671 H   0  0  0  0  0  0  0  0  0  0  0  0
  1  2  2  0
  2  3  1  0
  3  4  1  0
  4  5  1  0
  5  6  1  0
  6  7  2  0
  7  8  1  0
  8  9  2  0
  2 10  1  0
 10 11  1  0
 11 12  2  0
 11 13  2  0
 11 14  1  0
 14 15  2  0
 15 16  1  0
 16 17  2  0
 17 18  1  0
 18 19  2  0
 19 20  1  0
 20 21  2  0
 21 22  1  0
 22 23  1  0
 23 24  2  0
 24 25  1  0
 25 26  2  0
 26 27  1  0
 27 28  2  0
 21 29  1  0
 29 30  2  0
 17 31  1  0
 31 32  2  0
 32 33  1  0
  9  5  1  0
 32 14  1  0
 30 18  1  0
 28 23  1  0
  3 34  1  0
  3 35  1  0
  4 36  1  0
  4 37  1  0
  6 38  1  0
  7 39  1  0
  8 40  1  0
  9 41  1  0
 15 42  1  0
 16 43  1  0
 19 44  1  0
 20 45  1  0
 24 46  1  0
 25 47  1  0
 26 48  1  0
 27 49  1  0
 28 50  1  0
 29 51  1  0
 30 52  1  0
 31 53  1  0
M  CHG  3   8   1  10  -1  33  -1
M  END
>  <UniqueID>  (3) 
3

>  <SMILES>  (3) 
O=C(CCn1cc[nH+]c1)[N-]S(=O)(=O)c1ccc(-c2ccc(Oc3ccccc3)cc2)cc1[O-]

>  <Energy>  (3) 
101.70515856348337

>  <Genealogy>  (3) 
O=C(CCn1cc[nH+]c1)[N-]S(=O)(=O)c1ccc(-c2ccc(Oc3ccccc3)cc2)cc1[O-] (protonated)
O=C(CCn1cc[nH+]c1)[N-]S(=O)(=O)c1ccc(-c2ccc(Oc3ccccc3)cc2)cc1[O-] (3D coordinates assigned)
O=C(CCn1cc[nH+]c1)[N-]S(=O)(=O)c1ccc(-c2ccc(Oc3ccccc3)cc2)cc1[O-] (optimized conformer: 101.70515856348337 kcal/mol)

>  <smiles>  (3) 
O=C(CCn1ccnc1)NS(=O)(=O)c1ccc(-c2ccc(Oc3ccccc3)cc2)cc1O

>  <score_type>  (3) 
oracle

>  <origin>  (3) 
adg

>  <m_score__min__energy>  (3) 
-11.949999999999999

>  <m_primary>  (3) 
energy

$$$$
3:0
     RDKit          3D

 59 62  0  0  0  0  0  0  0  0999 V2000
   57.3520   31.5330   42.1910 C   0  0  0  0  0  0  0  0  0  0  0  0
   56.7840   30.2110   42.6920 C   0  0  0  0  0  0  0  0  0  0  0  0
   56.5440   30.2480   44.4630 S   0  0  0  0  0  0  0  0  0  0  0  0
   56.0130   31.5930   44.8690 O   0  0  0  0  0  0  0  0  0  0  0  0
   55.5430   29.1980   44.8540 O   0  0  0  0  0  0  0  0  0  0  0  0
   58.0780   29.9600   45.2790 C   0  0  0  0  0  0  0  0  0  0  0  0
   58.6310   28.6710   45.3320 C   0  0  0  0  0  0  0  0  0  0  0  0
   59.8680   28.4620   45.9510 C   0  0  0  0  0  0  0  0  0  0  0  0
   60.5610   29.5370   46.5140 C   0  0  0  0  0  0  0  0  0  0  0  0
   60.0100   30.8250   46.4710 C   0  0  0  0  0  0  0  0  0  0  0  0
   60.7280   31.9540   47.0730 C   0  0  0  0  0  0  0  0  0  0  0  0
   60.8810   32.1840   48.3600 C   0  0  0  0  0  0  0  0  0  0  0  0
   60.3430   31.3560   49.4600 C   0  0  0  0  0  0  0  0  0  0  0  0
   61.1020   30.2850   49.9560 C   0  0  0  0  0  0  0  0  0  0  0  0
   60.6130   29.4980   51.0090 C   0  0  0  0  0  0  0  0  0  0  0  0
   61.4050   28.3200   51.4970 C   0  0  0  0  0  0  0  0  0  0  0  0
   59.3510   29.7720   51.5520 C   0  0  0  0  0  0  0  0  0  0  0  0
   58.5880   30.8480   51.0730 C   0  0  0  0  0  0  0  0  0  0  0  0
   57.2290   31.1250   51.6520 C   0  0  0  0  0  0  0  0  0  0  0  0
   59.0810   31.6320   50.0150 C   0  0  0  0  0  0  0  0  0  0  0  0
   58.3050   32.6690   49.5020 O   0  0  0  0  0  0  0  0  0  0  0  0
   61.6770   33.4470   48.5250 C   0  0  1  0  0  0  0  0  0  0  0  0
   62.9470   33.2010   49.3320 C   0  0  0  0  0  0  0  0  0  0  0  0
   63.2750   34.0660   50.3900 C   0  0  0  0  0  0  0  0  0  0  0  0
   64.4440   33.8680   51.1320 C   0  0  0  0  0  0  0  0  0  0  0  0
   65.3040   32.8130   50.8180 C   0  0  0  0  0  0  0  0  0  0  0  0
   66.7660   32.5660   51.7540 Cl  0  0  0  0  0  0  0  0  0  0  0  0
   64.9970   31.9540   49.7590 C   0  0  0  0  0  0  0  0  0  0  0  0
   63.8270   32.1460   49.0200 C   0  0  0  0  0  0  0  0  0  0  0  0
   61.8900   33.9410   47.1280 N   0  0  1  0  0  0  0  0  0  0  0  0
   63.2780   34.1530   46.6920 C   0  0  0  0  0  0  0  0  0  0  0  0
   61.3250   32.9570   46.3370 O   0  0  0  0  0  0  0  0  0  0  0  0
   58.7710   31.0350   45.8490 C   0  0  0  0  0  0  0  0  0  0  0  0
   57.6233   32.1645   43.0499 H   0  0  0  0  0  0  0  0  0  0  0  0
   58.2466   31.3399   41.5807 H   0  0  0  0  0  0  0  0  0  0  0  0
   56.5962   32.0490   41.5807 H   0  0  0  0  0  0  0  0  0  0  0  0
   55.8169   30.0259   42.2016 H   0  0  0  0  0  0  0  0  0  0  0  0
   57.4974   29.4090   42.4514 H   0  0  0  0  0  0  0  0  0  0  0  0
   58.0905   27.8232   44.8858 H   0  0  0  0  0  0  0  0  0  0  0  0
   60.2960   27.4496   45.9946 H   0  0  0  0  0  0  0  0  0  0  0  0
   61.5386   29.3724   46.9907 H   0  0  0  0  0  0  0  0  0  0  0  0
   62.0854   30.0615   49.5168 H   0  0  0  0  0  0  0  0  0  0  0  0
   61.4103   28.3121   52.5970 H   0  0  0  0  0  0  0  0  0  0  0  0
   60.9472   27.3912   51.1258 H   0  0  0  0  0  0  0  0  0  0  0  0
   62.4379   28.3935   51.1258 H   0  0  0  0  0  0  0  0  0  0  0  0
   58.9552   29.1390   52.3599 H   0  0  0  0  0  0  0  0  0  0  0  0
   57.2889   31.1128   52.7503 H   0  0  0  0  0  0  0  0  0  0  0  0
   56.8811   32.1125   51.3147 H   0  0  0  0  0  0  0  0  0  0  0  0
   56.5223   30.3524   51.3147 H   0  0  0  0  0  0  0  0  0  0  0  0
   61.1647   34.2204   49.1161 H   0  0  0  0  0  0  0  0  0  0  0  0
   62.6075   34.9049   50.6363 H   0  0  0  0  0  0  0  0  0  0  0  0
   64.6867   34.5446   51.9647 H   0  0  0  0  0  0  0  0  0  0  0  0
   65.6768   31.1266   49.5074 H   0  0  0  0  0  0  0  0  0  0  0  0
   63.5908   31.4674   48.1871 H   0  0  0  0  0  0  0  0  0  0  0  0
   61.3460   34.8250   46.9780 H   0  0  0  0  0  0  0  0  0  0  0  0
   63.9282   34.2523   47.5737 H   0  0  0  0  0  0  0  0  0  0  0  0
   63.6078   33.2948   46.0880 H   0  0  0  0  0  0  0  0  0  0  0  0
   63.3365   35.0705   46.0880 H   0  0  0  0  0  0  0  0  0  0  0  0
   58.3422   32.0472   45.8087 H   0  0  0  0  0  0  0  0  0  0  0  0
  1  2  1  0
  2  3  1  0
  3  4  2  0
  3  5  2  0
  3  6  1  0
  6  7  2  0
  7  8  1  0
  8  9  2  0
  9 10  1  0
 10 11  1  0
 11 12  2  0
 12 13  1  0
 13 14  2  0
 14 15  1  0
 15 16  1  0
 15 17  2  0
 17 18  1  0
 18 19  1  0
 18 20  2  0
 20 21  1  0
 12 22  1  0
 22 23  1  0
 23 24  2  0
 24 25  1  0
 25 26  2  0
 26 27  1  0
 26 28  1  0
 28 29  2  0
 22 30  1  0
 30 31  1  0
 30 32  1  0
 10 33  2  0
 33  6  1  0
 32 11  1  0
 20 13  1  0
 29 23  1  0
  1 34  1  0
  1 35  1  0
  1 36  1  0
  2 37  1  0
  2 38  1  0
  7 39  1  0
  8 40  1  0
  9 41  1  0
 14 42  1  0
 16 43  1  0
 16 44  1  0
 16 45  1  0
 17 46  1  0
 19 47  1  0
 19 48  1  0
 19 49  1  0
 22 50  1  1
 24 51  1  0
 25 52  1  0
 28 53  1  0
 29 54  1  0
 30 55  1  1
 31 56  1  0
 31 57  1  0
 31 58  1  0
 33 59  1  0
M  CHG  2  21  -1  30   1
M  END
>  <UniqueID>  (4) 
4

>  <SMILES>  (4) 
CCS(=O)(=O)c1cccc(C2=C(c3cc(C)cc(C)c3[O-])[C@@H](c3ccc(Cl)cc3)[N@@H+](C)O2)c1

>  <Energy>  (4) 
88.75605861212021

>  <Genealogy>  (4) 
CCS(=O)(=O)c1cccc(C2=C(c3cc(C)cc(C)c3[O-])C(c3ccc(Cl)cc3)[NH+](C)O2)c1 (protonated)
CCS(=O)(=O)c1cccc(C2=C(c3cc(C)cc(C)c3[O-])[C@@H](c3ccc(Cl)cc3)[N@@H+](C)O2)c1 (chirality)
CCS(=O)(=O)c1cccc(C2=C(c3cc(C)cc(C)c3[O-])[C@@H](c3ccc(Cl)cc3)[N@@H+](C)O2)c1 (3D coordinates assigned)
CCS(=O)(=O)c1cccc(C2=C(c3cc(C)cc(C)c3[O-])[C@@H](c3ccc(Cl)cc3)[N@@H+](C)O2)c1 (nonaromatic ring conformer: 88.75605861212021 kcal/mol)

>  <smiles>  (4) 
CCS(=O)(=O)c1cccc(C2=C(c3cc(C)cc(C)c3O)C(c3ccc(Cl)cc3)N(C)O2)c1

>  <score_type>  (4) 
oracle

>  <origin>  (4) 
adg

>  <m_score__min__energy>  (4) 
-9.4199999999999999

>  <m_primary>  (4) 
energy

$$$$
4:0
     RDKit          3D

 55 58  0  0  0  0  0  0  0  0999 V2000
   59.4760   30.6190   47.2980 C   0  0  0  0  0  0  0  0  0  0  0  0
   59.6100   32.0950   47.0280 C   0  0  0  0  0  0  0  0  0  0  0  0
   58.4520   32.8420   46.7410 C   0  0  0  0  0  0  0  0  0  0  0  0
   58.5340   34.2090   46.4810 C   0  0  0  0  0  0  0  0  0  0  0  0
   59.7700   34.8530   46.4980 C   0  0  0  0  0  0  0  0  0  0  0  0
   60.9310   34.1300   46.7770 C   0  0  0  0  0  0  0  0  0  0  0  0
   60.8700   32.7510   47.0520 C   0  0  0  0  0  0  0  0  0  0  0  0
   62.1650   32.0290   47.3580 C   0  0  0  0  0  0  0  0  0  0  0  0
   62.2500   31.7130   48.7350 O   0  0  0  0  0  0  0  0  0  0  0  0
   62.4380   32.8780   49.5190 C   0  0  0  0  0  0  0  0  0  0  0  0
   62.1060   32.6110   50.9910 C   0  0  0  0  0  0  0  0  0  0  0  0
   60.6630   32.4000   51.1730 N   0  0  0  0  0  0  0  0  0  0  0  0
   59.7060   33.3270   50.5530 C   0  0  0  0  0  0  0  0  0  0  0  0
   58.4510   32.5790   50.0900 C   0  0  0  0  0  0  0  0  0  0  0  0
   57.8650   31.7510   51.2100 C   0  0  0  0  0  0  0  0  0  0  0  0
   56.5220   31.5100   51.2500 N   0  0  0  0  0  0  0  0  0  0  0  0
   55.9570   30.7210   52.2130 C   0  0  0  0  0  0  0  0  0  0  0  0
   54.4900   30.4870   52.2260 C   0  0  0  0  0  0  0  0  0  0  0  0
   53.9690   29.2880   52.7380 C   0  0  0  0  0  0  0  0  0  0  0  0
   52.5910   29.0640   52.7510 C   0  0  0  0  0  0  0  0  0  0  0  0
   51.7170   30.0360   52.2600 C   0  0  0  0  0  0  0  0  0  0  0  0
   52.2150   31.2430   51.7410 C   0  0  0  0  0  0  0  0  0  0  0  0
   51.2850   32.2690   51.2160 C   0  0  0  0  0  0  0  0  0  0  0  0
   50.7030   33.0650   51.9990 O   0  0  0  0  0  0  0  0  0  0  0  0
   51.0420   32.3670   49.8500 O   0  0  0  0  0  0  0  0  0  0  0  0
   53.6050   31.4590   51.7260 C   0  0  0  0  0  0  0  0  0  0  0  0
   56.7780   30.1220   53.1810 C   0  0  0  0  0  0  0  0  0  0  0  0
   58.1540   30.3370   53.1510 C   0  0  0  0  0  0  0  0  0  0  0  0
   58.7130   31.1550   52.1620 C   0  0  0  0  0  0  0  0  0  0  0  0
   60.1640   31.4190   52.1030 C   0  0  0  0  0  0  0  0  0  0  0  0
   60.9570   30.7880   52.8560 O   0  0  0  0  0  0  0  0  0  0  0  0
   59.4602   30.4449   48.3840 H   0  0  0  0  0  0  0  0  0  0  0  0
   58.5405   30.2484   46.8536 H   0  0  0  0  0  0  0  0  0  0  0  0
   60.3295   30.0860   46.8536 H   0  0  0  0  0  0  0  0  0  0  0  0
   57.4724   32.3419   46.7217 H   0  0  0  0  0  0  0  0  0  0  0  0
   57.6205   34.7812   46.2617 H   0  0  0  0  0  0  0  0  0  0  0  0
   59.8306   35.9317   46.2914 H   0  0  0  0  0  0  0  0  0  0  0  0
   61.9038   34.6434   46.7820 H   0  0  0  0  0  0  0  0  0  0  0  0
   62.2072   31.0995   46.7712 H   0  0  0  0  0  0  0  0  0  0  0  0
   63.0065   32.6864   47.0941 H   0  0  0  0  0  0  0  0  0  0  0  0
   63.4871   33.1991   49.4397 H   0  0  0  0  0  0  0  0  0  0  0  0
   61.7644   33.6633   49.1455 H   0  0  0  0  0  0  0  0  0  0  0  0
   62.6463   31.7129   51.3249 H   0  0  0  0  0  0  0  0  0  0  0  0
   62.4110   33.4856   51.5844 H   0  0  0  0  0  0  0  0  0  0  0  0
   59.4190   34.0944   51.2870 H   0  0  0  0  0  0  0  0  0  0  0  0
   60.1820   33.7949   49.6787 H   0  0  0  0  0  0  0  0  0  0  0  0
   57.7010   33.3100   49.7537 H   0  0  0  0  0  0  0  0  0  0  0  0
   58.7307   31.9045   49.2673 H   0  0  0  0  0  0  0  0  0  0  0  0
   55.9100   31.9600   50.5320 H   0  0  0  0  0  0  0  0  0  0  0  0
   54.6511   28.5199   53.1315 H   0  0  0  0  0  0  0  0  0  0  0  0
   52.1927   28.1191   53.1492 H   0  0  0  0  0  0  0  0  0  0  0  0
   50.6321   29.8557   52.2796 H   0  0  0  0  0  0  0  0  0  0  0  0
   54.0045   32.3993   51.3183 H   0  0  0  0  0  0  0  0  0  0  0  0
   56.3362   29.4846   53.9611 H   0  0  0  0  0  0  0  0  0  0  0  0
   58.8012   29.8641   53.9043 H   0  0  0  0  0  0  0  0  0  0  0  0
  1  2  1  0
  2  3  2  0
  3  4  1  0
  4  5  2  0
  5  6  1  0
  6  7  2  0
  7  8  1  0
  8  9  1  0
  9 10  1  0
 10 11  1  0
 11 12  1  0
 12 13  1  0
 13 14  1  0
 14 15  1  0
 15 16  2  0
 16 17  1  0
 17 18  1  0
 18 19  2  0
 19 20  1  0
 20 21  2  0
 21 22  1  0
 22 23  1  0
 23 24  2  0
 23 25  1  0
 22 26  2  0
 17 27  2  0
 27 28  1  0
 28 29  2  0
 29 30  1  0
 30 31  2  0
  7  2  1  0
 30 12  1  0
 29 15  1  0
 26 18  1  0
  1 32  1  0
  1 33  1  0
  1 34  1  0
  3 35  1  0
  4 36  1  0
  5 37  1  0
  6 38  1  0
  8 39  1  0
  8 40  1  0
 10 41  1  0
 10 42  1  0
 11 43  1  0
 11 44  1  0
 13 45  1  0
 13 46  1  0
 14 47  1  0
 14 48  1  0
 16 49  1  0
 19 50  1  0
 20 51  1  0
 21 52  1  0
 26 53  1  0
 27 54  1  0
 28 55  1  0
M  CHG  2  16   1  25  -1
M  END
>  <UniqueID>  (5) 
5

>  <SMILES>  (5) 
Cc1ccccc1COCCN1CCc2[nH+]c(-c3cccc(C(=O)[O-])c3)ccc2C1=O

>  <Energy>  (5) 
67.35305133428348

>  <Genealogy>  (5) 
Cc1ccccc1COCCN1CCc2[nH+]c(-c3cccc(C(=O)[O-])c3)ccc2C1=O (protonated)
Cc1ccccc1COCCN1CCc2[nH+]c(-c3cccc(C(=O)[O-])c3)ccc2C1=O (3D coordinates assigned)
Cc1ccccc1COCCN1CCc2[nH+]c(-c3cccc(C(=O)[O-])c3)ccc2C1=O (nonaromatic ring conformer: 67.35305133428348 kcal/mol)

>  <smiles>  (5) 
Cc1ccccc1COCCN1CCc2nc(-c3cccc(C(=O)O)c3)ccc2C1=O

>  <score_type>  (5) 
oracle

>  <origin>  (5) 
adg

>  <m_score__min__energy>  (5) 
-11.470000000000001

>  <m_primary>  (5) 
energy

$$$$
5:0
     RDKit          3D

 31 32  0  0  0  0  0  0  0  0999 V2000
   58.1870   34.2260   45.0010 C   0  0  0  0  0  0  0  0  0  0  0  0
   58.4370   33.2260   46.1050 C   0  0  0  0  0  0  0  0  0  0  0  0
   58.0530   31.8710   45.9720 C   0  0  0  0  0  0  0  0  0  0  0  0
   57.3500   31.3450   44.7470 C   0  0  0  0  0  0  0  0  0  0  0  0
   57.6850   29.8930   44.5260 C   0  0  0  0  0  0  0  0  0  0  0  0
   58.7540   29.6010   43.9240 O   0  0  0  0  0  0  0  0  0  0  0  0
   56.8410   28.8340   45.0130 N   0  0  0  0  0  0  0  0  0  0  0  0
   55.4970   28.9650   44.8800 O   0  0  0  0  0  0  0  0  0  0  0  0
   57.3610   27.7060   45.7400 C   0  0  0  0  0  0  0  0  0  0  0  0
   58.7360   27.6220   46.0230 C   0  0  0  0  0  0  0  0  0  0  0  0
   59.2460   26.5390   46.7440 C   0  0  0  0  0  0  0  0  0  0  0  0
   58.3880   25.5370   47.2000 C   0  0  0  0  0  0  0  0  0  0  0  0
   57.0180   25.6150   46.9350 C   0  0  0  0  0  0  0  0  0  0  0  0
   56.5010   26.6950   46.2100 C   0  0  0  0  0  0  0  0  0  0  0  0
   55.1370   26.7450   45.9470 O   0  0  0  0  0  0  0  0  0  0  0  0
   58.2870   31.0050   46.9960 N   0  0  0  0  0  0  0  0  0  0  0  0
   58.8980   31.4060   48.1370 C   0  0  0  0  0  0  0  0  0  0  0  0
   59.1030   30.5800   49.0640 O   0  0  0  0  0  0  0  0  0  0  0  0
   59.2880   32.6960   48.2820 N   0  0  0  0  0  0  0  0  0  0  0  0
   59.0760   33.6100   47.3020 C   0  0  0  0  0  0  0  0  0  0  0  0
   59.4550   34.7970   47.4800 O   0  0  0  0  0  0  0  0  0  0  0  0
   57.9425   35.2042   45.4408 H   0  0  0  0  0  0  0  0  0  0  0  0
   59.0896   34.3189   44.3791 H   0  0  0  0  0  0  0  0  0  0  0  0
   57.3469   33.8832   44.3791 H   0  0  0  0  0  0  0  0  0  0  0  0
   56.2632   31.4489   44.8813 H   0  0  0  0  0  0  0  0  0  0  0  0
   57.6822   31.9228   43.8719 H   0  0  0  0  0  0  0  0  0  0  0  0
   55.1400   28.0420   44.9320 H   0  0  0  0  0  0  0  0  0  0  0  0
   59.4148   28.4143   45.6744 H   0  0  0  0  0  0  0  0  0  0  0  0
   60.3243   26.4762   46.9523 H   0  0  0  0  0  0  0  0  0  0  0  0
   58.7903   24.6854   47.7683 H   0  0  0  0  0  0  0  0  0  0  0  0
   56.3437   24.8250   47.2974 H   0  0  0  0  0  0  0  0  0  0  0  0
  1  2  1  0
  2  3  2  0
  3  4  1  0
  4  5  1  0
  5  6  2  0
  5  7  1  0
  7  8  1  0
  7  9  1  0
  9 10  2  0
 10 11  1  0
 11 12  2  0
 12 13  1  0
 13 14  2  0
 14 15  1  0
  3 16  1  0
 16 17  1  0
 17 18  2  0
 17 19  1  0
 19 20  1  0
 20 21  2  0
 20  2  1  0
 14  9  1  0
  1 22  1  0
  1 23  1  0
  1 24  1  0
  4 25  1  0
  4 26  1  0
  8 27  1  0
 10 28  1  0
 11 29  1  0
 12 30  1  0
 13 31  1  0
M  CHG  3  15  -1  16  -1  19  -1
M  END
>  <UniqueID>  (6) 
6

>  <SMILES>  (6) 
Cc1c(CC(=O)N(O)c2ccccc2[O-])[n-]c(=O)[n-]c1=O

>  <Energy>  (6) 
38.62539374660734

>  <Genealogy>  (6) 
Cc1c(CC(=O)N(O)c2ccccc2[O-])[n-]c(=O)[n-]c1=O (protonated)
Cc1c(CC(=O)N(O)c2ccccc2[O-])[n-]c(=O)[n-]c1=O (3D coordinates assigned)
Cc1c(CC(=O)N(O)c2ccccc2[O-])[n-]c(=O)[n-]c1=O (optimized conformer: 38.62539374660734 kcal/mol)

>  <smiles>  (6) 
Cc1c(CC(=O)N(O)c2ccccc2O)[nH]c(=O)[nH]c1=O

>  <score_type>  (6) 
oracle

>  <origin>  (6) 
adg

>  <m_score__min__energy>  (6) 
-14.890000000000001

>  <m_primary>  (6) 
energy

$$$$
6:0
     RDKit          3D

 43 45  0  0  0  0  0  0  0  0999 V2000
   55.2070   26.5970   45.7880 N   0  0  0  0  0  0  0  0  0  0  0  0
   56.6130   25.7570   46.3380 S   0  0  0  0  0  0  0  0  0  0  0  0
   57.1820   24.9380   45.2130 O   0  0  0  0  0  0  0  0  0  0  0  0
   56.2370   24.8350   47.4640 O   0  0  0  0  0  0  0  0  0  0  0  0
   57.8100   26.9210   46.8940 C   0  0  0  0  0  0  0  0  0  0  0  0
   57.7250   28.2620   46.4970 C   0  0  0  0  0  0  0  0  0  0  0  0
   58.6460   29.1970   46.9790 C   0  0  0  0  0  0  0  0  0  0  0  0
   59.6450   28.8030   47.8850 C   0  0  0  0  0  0  0  0  0  0  0  0
   60.5590   29.7640   48.4350 N   0  0  0  0  0  0  0  0  0  0  0  0
   60.5370   31.1690   48.1210 C   0  0  0  0  0  0  0  0  0  0  0  0
   59.8250   31.6690   47.0160 C   0  0  0  0  0  0  0  0  0  0  0  0
   59.7660   33.0580   46.7860 C   0  0  0  0  0  0  0  0  0  0  0  0
   59.1230   33.5810   45.7750 N   0  0  0  0  0  0  0  0  0  0  0  0
   58.5300   32.8910   44.6610 C   0  0  0  0  0  0  0  0  0  0  0  0
   58.7560   33.3690   43.3650 C   0  0  0  0  0  0  0  0  0  0  0  0
   58.1900   32.7190   42.2650 C   0  0  0  0  0  0  0  0  0  0  0  0
   57.3870   31.5920   42.4530 C   0  0  0  0  0  0  0  0  0  0  0  0
   57.1280   31.1200   43.7480 C   0  0  0  0  0  0  0  0  0  0  0  0
   56.1310   29.6920   44.0030 S   0  0  0  0  0  0  0  0  0  0  0  0
   57.0950   28.2690   43.8190 N   0  0  0  0  0  0  0  0  0  0  0  0
   55.5390   29.7140   45.3840 O   0  0  0  0  0  0  0  0  0  0  0  0
   55.0130   29.6770   42.9990 O   0  0  0  0  0  0  0  0  0  0  0  0
   57.6700   31.7940   44.8500 C   0  0  0  0  0  0  0  0  0  0  0  0
   60.4550   33.9120   47.6540 C   0  0  0  0  0  0  0  0  0  0  0  0
   61.1510   33.3820   48.7420 C   0  0  0  0  0  0  0  0  0  0  0  0
   61.1680   32.0400   48.9530 N   0  0  0  0  0  0  0  0  0  0  0  0
   59.7490   27.4560   48.2520 C   0  0  0  0  0  0  0  0  0  0  0  0
   58.8280   26.5210   47.7700 C   0  0  0  0  0  0  0  0  0  0  0  0
   55.5380   27.4400   45.2660 H   0  0  0  0  0  0  0  0  0  0  0  0
   56.9317   28.5800   45.8044 H   0  0  0  0  0  0  0  0  0  0  0  0
   58.5883   30.2444   46.6479 H   0  0  0  0  0  0  0  0  0  0  0  0
   61.1800   29.4520   49.2150 H   0  0  0  0  0  0  0  0  0  0  0  0
   59.3142   30.9759   46.3314 H   0  0  0  0  0  0  0  0  0  0  0  0
   59.3820   34.2604   43.2117 H   0  0  0  0  0  0  0  0  0  0  0  0
   58.3774   33.0959   41.2487 H   0  0  0  0  0  0  0  0  0  0  0  0
   56.9567   31.0734   41.5835 H   0  0  0  0  0  0  0  0  0  0  0  0
   56.9760   27.9470   42.8320 H   0  0  0  0  0  0  0  0  0  0  0  0
   56.6730   27.5330   44.4290 H   0  0  0  0  0  0  0  0  0  0  0  0
   57.4216   31.4634   45.8693 H   0  0  0  0  0  0  0  0  0  0  0  0
   60.4483   34.9981   47.4797 H   0  0  0  0  0  0  0  0  0  0  0  0
   61.6868   34.0525   49.4300 H   0  0  0  0  0  0  0  0  0  0  0  0
   60.5587   27.1319   48.9224 H   0  0  0  0  0  0  0  0  0  0  0  0
   58.9027   25.4681   48.0794 H   0  0  0  0  0  0  0  0  0  0  0  0
  1  2  1  0
  2  3  2  0
  2  4  2  0
  2  5  1  0
  5  6  2  0
  6  7  1  0
  7  8  2  0
  8  9  1  0
  9 10  1  0
 10 11  2  0
 11 12  1  0
 12 13  2  3
 13 14  1  0
 14 15  2  0
 15 16  1  0
 16 17  2  0
 17 18  1  0
 18 19  1  0
 19 20  1  0
 19 21  2  0
 19 22  2  0
 18 23  2  0
 12 24  1  0
 24 25  2  0
 25 26  1  0
  8 27  1  0
 27 28  2  0
 28  5  1  0
 26 10  1  0
 23 14  1  0
  1 29  1  0
  6 30  1  0
  7 31  1  0
  9 32  1  0
 11 33  1  0
 15 34  1  0
 16 35  1  0
 17 36  1  0
 20 37  1  0
 20 38  1  0
 23 39  1  0
 24 40  1  0
 25 41  1  0
 27 42  1  0
 28 43  1  0
M  CHG  2   1  -1  26  -1
M  END
>  <UniqueID>  (7) 
7

>  <SMILES>  (7) 
[NH-]S(=O)(=O)c1ccc(Nc2cc(=Nc3cccc(S(N)(=O)=O)c3)cc[n-]2)cc1

>  <Energy>  (7) 
58.3337326714829

>  <Genealogy>  (7) 
[NH-]S(=O)(=O)c1ccc(Nc2cc(=Nc3cccc(S(N)(=O)=O)c3)cc[n-]2)cc1 (protonated)
[NH-]S(=O)(=O)c1ccc(Nc2cc(=Nc3cccc(S(N)(=O)=O)c3)cc[n-]2)cc1 (3D coordinates assigned)
[NH-]S(=O)(=O)c1ccc(Nc2cc(=Nc3cccc(S(N)(=O)=O)c3)cc[n-]2)cc1 (optimized conformer: 58.3337326714829 kcal/mol)

>  <smiles>  (7) 
NS(=O)(=O)c1ccc(Nc2cc(=Nc3cccc(S(N)(=O)=O)c3)cc[nH]2)cc1

>  <score_type>  (7) 
oracle

>  <origin>  (7) 
adg

>  <m_score__min__energy>  (7) 
-12.949999999999999

>  <m_primary>  (7) 
energy

$$$$
7:0
     RDKit          3D

 34 36  0  0  0  0  0  0  0  0999 V2000
   57.4050   21.0770   49.2350 N   0  0  0  0  0  0  0  0  0  0  0  0
   56.9250   20.9810   47.5780 S   0  0  0  0  0  0  0  0  0  0  0  0
   58.0820   20.5070   46.7440 O   0  0  0  0  0  0  0  0  0  0  0  0
   55.7980   19.9960   47.4430 O   0  0  0  0  0  0  0  0  0  0  0  0
   56.4040   22.5700   47.0240 C   0  0  0  0  0  0  0  0  0  0  0  0
   55.0540   22.8100   46.7350 C   0  0  0  0  0  0  0  0  0  0  0  0
   54.6390   24.0730   46.3090 C   0  0  0  0  0  0  0  0  0  0  0  0
   55.5670   25.1110   46.1740 C   0  0  0  0  0  0  0  0  0  0  0  0
   55.1550   26.3350   45.7590 N   0  0  0  0  0  0  0  0  0  0  0  0
   56.0130   27.3800   45.6220 C   0  0  0  0  0  0  0  0  0  0  0  0
   55.5160   28.6100   45.2080 O   0  0  0  0  0  0  0  0  0  0  0  0
   57.3800   27.2180   45.9140 C   0  0  0  0  0  0  0  0  0  0  0  0
   58.3110   28.3670   45.7810 C   0  0  0  0  0  0  0  0  0  0  0  0
   58.9860   28.4940   44.7260 O   0  0  0  0  0  0  0  0  0  0  0  0
   58.5060   29.3140   46.8400 N   0  0  0  0  0  0  0  0  0  0  0  0
   58.7460   30.7210   46.6880 C   0  0  0  0  0  0  0  0  0  0  0  0
   58.0610   31.4930   45.7320 C   0  0  0  0  0  0  0  0  0  0  0  0
   58.3250   32.8600   45.6090 C   0  0  0  0  0  0  0  0  0  0  0  0
   59.2860   33.4650   46.4270 C   0  0  0  0  0  0  0  0  0  0  0  0
   59.6450   35.3320   46.2580 Br  0  0  0  0  0  0  0  0  0  0  0  0
   59.9890   32.6980   47.3610 C   0  0  0  0  0  0  0  0  0  0  0  0
   59.7250   31.3300   47.4850 C   0  0  0  0  0  0  0  0  0  0  0  0
   57.8400   25.9490   46.3240 C   0  0  0  0  0  0  0  0  0  0  0  0
   59.0690   25.7630   46.5450 O   0  0  0  0  0  0  0  0  0  0  0  0
   56.9300   24.8850   46.4690 C   0  0  0  0  0  0  0  0  0  0  0  0
   57.3380   23.6080   46.8960 C   0  0  0  0  0  0  0  0  0  0  0  0
   57.8160   22.0280   49.3780 H   0  0  0  0  0  0  0  0  0  0  0  0
   54.3181   21.9997   46.8443 H   0  0  0  0  0  0  0  0  0  0  0  0
   53.5785   24.2526   46.0787 H   0  0  0  0  0  0  0  0  0  0  0  0
   57.3142   31.0186   45.0783 H   0  0  0  0  0  0  0  0  0  0  0  0
   57.7769   33.4610   44.8685 H   0  0  0  0  0  0  0  0  0  0  0  0
   60.7503   33.1708   47.9988 H   0  0  0  0  0  0  0  0  0  0  0  0
   60.2893   30.7283   48.2127 H   0  0  0  0  0  0  0  0  0  0  0  0
   58.3965   23.4227   47.1309 H   0  0  0  0  0  0  0  0  0  0  0  0
  1  2  1  0
  2  3  2  0
  2  4  2  0
  2  5  1  0
  5  6  2  0
  6  7  1  0
  7  8  2  0
  8  9  1  0
  9 10  1  0
 10 11  1  0
 10 12  2  0
 12 13  1  0
 13 14  2  0
 13 15  1  0
 15 16  1  0
 16 17  2  0
 17 18  1  0
 18 19  2  0
 19 20  1  0
 19 21  1  0
 21 22  2  0
 12 23  1  0
 23 24  2  0
 23 25  1  0
 25 26  2  0
 26  5  1  0
 25  8  1  0
 22 16  1  0
  1 27  1  0
  6 28  1  0
  7 29  1  0
 17 30  1  0
 18 31  1  0
 21 32  1  0
 22 33  1  0
 26 34  1  0
M  CHG  4   1  -1   9  -1  11  -1  15  -1
M  END
>  <UniqueID>  (8) 
8

>  <SMILES>  (8) 
[NH-]S(=O)(=O)c1ccc2[n-]c([O-])c(C(=O)[N-]c3ccc(Br)cc3)c(=O)c2c1

>  <Energy>  (8) 
50.7001015618152

>  <Genealogy>  (8) 
[NH-]S(=O)(=O)c1ccc2[n-]c([O-])c(C(=O)[N-]c3ccc(Br)cc3)c(=O)c2c1 (protonated)
[NH-]S(=O)(=O)c1ccc2[n-]c([O-])c(C(=O)[N-]c3ccc(Br)cc3)c(=O)c2c1 (3D coordinates assigned)
[NH-]S(=O)(=O)c1ccc2[n-]c([O-])c(C(=O)[N-]c3ccc(Br)cc3)c(=O)c2c1 (optimized conformer: 50.7001015618152 kcal/mol)

>  <smiles>  (8) 
NS(=O)(=O)c1ccc2[nH]c(O)c(C(=O)Nc3ccc(Br)cc3)c(=O)c2c1

>  <score_type>  (8) 
oracle

>  <origin>  (8) 
adg

>  <m_score__min__energy>  (8) 
-14.74

>  <m_primary>  (8) 
energy

$$$$
8:0
     RDKit          3D

 40 41  0  0  0  0  0  0  0  0999 V2000
   56.9920   33.4610   46.0130 O   0  0  0  0  0  0  0  0  0  0  0  0
   57.6540   33.1530   44.9850 C   0  0  0  0  0  0  0  0  0  0  0  0
   57.3350   31.8920   44.2450 C   0  0  0  0  0  0  0  0  0  0  0  0
   56.9780   30.8310   45.1820 N   0  0  0  0  0  0  0  0  0  0  0  0
   56.4590   29.5380   44.8380 C   0  0  0  0  0  0  0  0  0  0  0  0
   55.2110   29.3710   44.8420 O   0  0  0  0  0  0  0  0  0  0  0  0
   57.3470   28.3770   44.4690 C   0  0  0  0  0  0  0  0  0  0  0  0
   58.0380   27.8770   45.6540 N   0  0  0  0  0  0  0  0  0  0  0  0
   57.6340   26.7390   46.4260 C   0  0  0  0  0  0  0  0  0  0  0  0
   57.8700   26.7270   47.6620 O   0  0  0  0  0  0  0  0  0  0  0  0
   56.9550   25.5810   45.8140 C   0  0  0  0  0  0  0  0  0  0  0  0
   57.7050   24.4510   45.4510 C   0  0  0  0  0  0  0  0  0  0  0  0
   57.0790   23.3450   44.8710 C   0  0  0  0  0  0  0  0  0  0  0  0
   55.6960   23.3510   44.6660 C   0  0  0  0  0  0  0  0  0  0  0  0
   54.9380   24.4590   45.0500 C   0  0  0  0  0  0  0  0  0  0  0  0
   55.5590   25.5720   45.6290 C   0  0  0  0  0  0  0  0  0  0  0  0
   54.7820   26.6530   46.0340 O   0  0  0  0  0  0  0  0  0  0  0  0
   58.7080   34.0010   44.5210 N   0  0  0  0  0  0  0  0  0  0  0  0
   59.2700   35.0850   45.3160 C   0  0  0  0  0  0  0  0  0  0  0  0
   59.9740   34.5210   46.5210 C   0  0  0  0  0  0  0  0  0  0  0  0
   59.3660   34.5910   47.7860 C   0  0  0  0  0  0  0  0  0  0  0  0
   59.9970   34.0330   48.9020 C   0  0  0  0  0  0  0  0  0  0  0  0
   61.2320   33.3950   48.7610 C   0  0  0  0  0  0  0  0  0  0  0  0
   61.8350   33.3070   47.5040 C   0  0  0  0  0  0  0  0  0  0  0  0
   61.2080   33.8650   46.3850 C   0  0  0  0  0  0  0  0  0  0  0  0
   56.4903   32.0745   43.5645 H   0  0  0  0  0  0  0  0  0  0  0  0
   58.2204   31.5800   43.6716 H   0  0  0  0  0  0  0  0  0  0  0  0
   56.7332   27.5718   44.0390 H   0  0  0  0  0  0  0  0  0  0  0  0
   58.0921   28.7135   43.7331 H   0  0  0  0  0  0  0  0  0  0  0  0
   58.7912   24.4365   45.6242 H   0  0  0  0  0  0  0  0  0  0  0  0
   57.6746   22.4687   44.5754 H   0  0  0  0  0  0  0  0  0  0  0  0
   55.2050   22.4828   44.2022 H   0  0  0  0  0  0  0  0  0  0  0  0
   53.8487   24.4573   44.8970 H   0  0  0  0  0  0  0  0  0  0  0  0
   59.9883   35.6515   44.7052 H   0  0  0  0  0  0  0  0  0  0  0  0
   58.4594   35.7507   45.6473 H   0  0  0  0  0  0  0  0  0  0  0  0
   58.3904   35.0865   47.8986 H   0  0  0  0  0  0  0  0  0  0  0  0
   59.5208   34.0963   49.8916 H   0  0  0  0  0  0  0  0  0  0  0  0
   61.7300   32.9615   49.6408 H   0  0  0  0  0  0  0  0  0  0  0  0
   62.8041   32.7983   47.3940 H   0  0  0  0  0  0  0  0  0  0  0  0
   61.6830   33.7897   45.3957 H   0  0  0  0  0  0  0  0  0  0  0  0
  1  2  2  0
  2  3  1  0
  3  4  1  0
  4  5  1  0
  5  6  2  0
  5  7  1  0
  7  8  1  0
  8  9  1  0
  9 10  2  0
  9 11  1  0
 11 12  2  0
 12 13  1  0
 13 14  2  0
 14 15  1  0
 15 16  2  0
 16 17  1  0
  2 18  1  0
 18 19  1  0
 19 20  1  0
 20 21  2  0
 21 22  1  0
 22 23  2  0
 23 24  1  0
 24 25  2  0
 16 11  1  0
 25 20  1  0
  3 26  1  0
  3 27  1  0
  7 28  1  0
  7 29  1  0
 12 30  1  0
 13 31  1  0
 14 32  1  0
 15 33  1  0
 19 34  1  0
 19 35  1  0
 21 36  1  0
 22 37  1  0
 23 38  1  0
 24 39  1  0
 25 40  1  0
M  CHG  4   4  -1   8  -1  17  -1  18  -1
M  END
>  <UniqueID>  (9) 
9

>  <SMILES>  (9) 
O=C(C[N-]C(=O)C[N-]C(=O)c1ccccc1[O-])[N-]Cc1ccccc1

>  <Energy>  (9) 
37.55108874249747

>  <Genealogy>  (9) 
O=C(C[N-]C(=O)C[N-]C(=O)c1ccccc1[O-])[N-]Cc1ccccc1 (protonated)
O=C(C[N-]C(=O)C[N-]C(=O)c1ccccc1[O-])[N-]Cc1ccccc1 (3D coordinates assigned)
O=C(C[N-]C(=O)C[N-]C(=O)c1ccccc1[O-])[N-]Cc1ccccc1 (optimized conformer: 37.55108874249747 kcal/mol)

>  <smiles>  (9) 
O=C(CNC(=O)CNC(=O)c1ccccc1O)NCc1ccccc1

>  <score_type>  (9) 
oracle

>  <origin>  (9) 
adg

>  <m_score__min__energy>  (9) 
-15.720000000000001

>  <m_primary>  (9) 
energy

$$$$
9:0
     RDKit          3D

 59 63  0  0  0  0  0  0  0  0999 V2000
   55.4128   28.2347   52.4855 H   0  0  0  0  0  0  0  0  0  0  0  0
   55.3610   29.2890   52.7950 C   0  0  0  0  0  0  0  0  0  0  0  0
   56.4660   29.8490   53.3080 C   0  0  0  0  0  0  0  0  0  0  0  0
   56.8883   29.4321   54.2342 H   0  0  0  0  0  0  0  0  0  0  0  0
   57.1370   31.0010   52.6800 C   0  0  0  0  0  0  0  0  0  0  0  0
   57.1510   32.2350   53.2380 N   0  0  0  0  0  0  0  0  0  0  0  0
   57.7930   33.0740   52.4320 N   0  0  0  0  0  0  0  0  0  0  0  0
   58.1960   32.3700   51.3600 C   0  0  0  0  0  0  0  0  0  0  0  0
   58.8950   32.8410   50.2530 C   0  0  0  0  0  0  0  0  0  0  0  0
   59.1964   33.8963   50.1795 H   0  0  0  0  0  0  0  0  0  0  0  0
   59.2050   31.9230   49.2280 C   0  0  0  0  0  0  0  0  0  0  0  0
   59.8540   32.3870   48.0340 N   0  0  0  0  0  0  0  0  0  0  0  0
   60.8810   32.5790   48.0780 H   0  0  0  0  0  0  0  0  0  0  0  0
   59.1510   32.7090   46.8190 C   0  0  0  0  0  0  0  0  0  0  0  0
   59.3530   33.9560   46.2100 C   0  0  0  0  0  0  0  0  0  0  0  0
   60.0679   34.6688   46.6469 H   0  0  0  0  0  0  0  0  0  0  0  0
   58.6510   34.2980   45.0510 C   0  0  0  0  0  0  0  0  0  0  0  0
   58.8108   35.2807   44.5832 H   0  0  0  0  0  0  0  0  0  0  0  0
   57.7460   33.3950   44.4840 C   0  0  0  0  0  0  0  0  0  0  0  0
   57.1942   33.6710   43.5733 H   0  0  0  0  0  0  0  0  0  0  0  0
   57.5400   32.1420   45.0710 C   0  0  0  0  0  0  0  0  0  0  0  0
   56.6060   31.2290   44.4790 N   0  0  0  0  0  0  0  0  0  0  0  0
   56.4330   29.8670   44.8920 C   0  0  0  0  0  0  0  0  0  0  0  0
   55.2850   29.3440   44.8760 O   0  0  0  0  0  0  0  0  0  0  0  0
   57.5580   29.1320   45.3890 N   0  0  0  0  0  0  0  0  0  0  0  0
   58.3980   29.6770   45.6880 H   0  0  0  0  0  0  0  0  0  0  0  0
   57.5780   27.7020   45.5470 C   0  0  0  0  0  0  0  0  0  0  0  0
   58.7750   26.9680   45.4590 C   0  0  0  0  0  0  0  0  0  0  0  0
   59.7216   27.4869   45.2477 H   0  0  0  0  0  0  0  0  0  0  0  0
   58.7660   25.5820   45.6390 C   0  0  0  0  0  0  0  0  0  0  0  0
   59.7043   25.0136   45.5587 H   0  0  0  0  0  0  0  0  0  0  0  0
   57.5730   24.9160   45.9200 C   0  0  0  0  0  0  0  0  0  0  0  0
   57.5720   23.8239   46.0512 H   0  0  0  0  0  0  0  0  0  0  0  0
   56.3710   25.6380   46.0360 C   0  0  0  0  0  0  0  0  0  0  0  0
   55.1470   25.0190   46.3320 O   0  0  0  0  0  0  0  0  0  0  0  0
   54.4890   24.0880   45.4770 C   0  0  0  0  0  0  0  0  0  0  0  0
   53.9606   23.3403   46.0867 H   0  0  0  0  0  0  0  0  0  0  0  0
   53.7658   24.6209   44.8422 H   0  0  0  0  0  0  0  0  0  0  0  0
   55.2327   23.5841   44.8422 H   0  0  0  0  0  0  0  0  0  0  0  0
   56.3860   27.0280   45.8540 C   0  0  0  0  0  0  0  0  0  0  0  0
   55.4506   27.5982   45.9532 H   0  0  0  0  0  0  0  0  0  0  0  0
   58.2170   31.8200   46.2590 C   0  0  0  0  0  0  0  0  0  0  0  0
   58.0138   30.8605   46.7572 H   0  0  0  0  0  0  0  0  0  0  0  0
   58.8760   30.5500   49.3890 C   0  0  0  0  0  0  0  0  0  0  0  0
   59.1729   29.8255   48.6164 H   0  0  0  0  0  0  0  0  0  0  0  0
   58.1750   30.1070   50.5250 C   0  0  0  0  0  0  0  0  0  0  0  0
   57.9174   29.0458   50.6576 H   0  0  0  0  0  0  0  0  0  0  0  0
   57.8180   31.0620   51.4780 C   0  0  0  0  0  0  0  0  0  0  0  0
   54.0720   30.0040   52.6190 C   0  0  0  0  0  0  0  0  0  0  0  0
   53.8930   30.7900   51.4670 C   0  0  0  0  0  0  0  0  0  0  0  0
   54.7002   30.8583   50.7229 H   0  0  0  0  0  0  0  0  0  0  0  0
   52.6990   31.4850   51.2590 C   0  0  0  0  0  0  0  0  0  0  0  0
   52.5744   32.1051   50.3590 H   0  0  0  0  0  0  0  0  0  0  0  0
   51.6640   31.3940   52.1910 C   0  0  0  0  0  0  0  0  0  0  0  0
   50.7273   31.9474   52.0287 H   0  0  0  0  0  0  0  0  0  0  0  0
   51.8180   30.6000   53.3300 C   0  0  0  0  0  0  0  0  0  0  0  0
   50.9990   30.5232   54.0603 H   0  0  0  0  0  0  0  0  0  0  0  0
   53.0120   29.9020   53.5440 C   0  0  0  0  0  0  0  0  0  0  0  0
   53.1244   29.2708   54.4378 H   0  0  0  0  0  0  0  0  0  0  0  0
  1  2  1  0
  2  3  2  0
  3  4  1  0
  3  5  1  0
  5  6  1  0
  6  7  1  0
  7  8  2  0
  8  9  1  0
  9 10  1  0
  9 11  2  0
 11 12  1  0
 12 13  1  0
 12 14  1  0
 14 15  2  0
 15 16  1  0
 15 17  1  0
 17 18  1  0
 17 19  2  0
 19 20  1  0
 19 21  1  0
 21 22  1  0
 22 23  1  0
 23 24  2  0
 23 25  1  0
 25 26  1  0
 25 27  1  0
 27 28  2  0
 28 29  1  0
 28 30  1  0
 30 31  1  0
 30 32  2  0
 32 33  1  0
 32 34  1  0
 34 35  1  0
 35 36  1  0
 36 37  1  0
 36 38  1  0
 36 39  1  0
 34 40  2  0
 40 41  1  0
 21 42  2  0
 42 43  1  0
 11 44  1  0
 44 45  1  0
 44 46  2  0
 46 47  1  0
 46 48  1  0
  2 49  1  0
 49 50  2  0
 50 51  1  0
 50 52  1  0
 52 53  1  0
 52 54  2  0
 54 55  1  0
 54 56  1  0
 56 57  1  0
 56 58  2  0
 58 59  1  0
 48  5  2  0
 58 49  1  0
 48  8  1  0
 42 14  1  0
 40 27  1  0
M  CHG  2   6  -1  22  -1
M  END
>  <UniqueID>  (10) 
10

>  <SMILES>  (10) 
COc1cccc(NC(=O)[N-]c2cccc(Nc3ccc4c(/C=C/c5ccccc5)[n-]nc4c3)c2)c1

>  <Energy>  (10) 
118.73977946331058

>  <Genealogy>  (10) 
COc1cccc(NC(=O)[N-]c2cccc(Nc3ccc4c(C=Cc5ccccc5)[n-]nc4c3)c2)c1 (protonated)
COc1cccc(NC(=O)[N-]c2cccc(Nc3ccc4c(/C=C/c5ccccc5)[n-]nc4c3)c2)c1 (cis-trans isomerization)
COc1cccc(NC(=O)[N-]c2cccc(Nc3ccc4c(/C=C/c5ccccc5)[n-]nc4c3)c2)c1 (3D coordinates assigned)
COc1cccc(NC(=O)[N-]c2cccc(Nc3ccc4c(/C=C/c5ccccc5)[n-]nc4c3)c2)c1 (optimized conformer: 118.73977946331058 kcal/mol)

>  <smiles>  (10) 
COc1cccc(NC(=O)Nc2cccc(Nc3ccc4c(C=Cc5ccccc5)[nH]nc4c3)c2)c1

>  <score_type>  (10) 
oracle

>  <origin>  (10) 
adg

>  <m_score__min__energy>  (10) 
-12.609999999999999

>  <m_primary>  (10) 
energy

$$$$
10:0
     RDKit          3D

 57 59  0  0  1  0  0  0  0  0999 V2000
   60.5720   28.9520   45.1720 C   0  0  0  0  0  0  0  0  0  0  0  0
   59.4020   29.1240   46.0850 C   0  0  0  0  0  0  0  0  0  0  0  0
   58.0880   29.3430   45.5030 C   0  0  0  0  0  0  0  0  0  0  0  0
   57.1150   28.3200   45.4330 C   0  0  0  0  0  0  0  0  0  0  0  0
   57.3600   26.9470   45.8350 C   0  0  0  0  0  0  0  0  0  0  0  0
   58.4830   26.2130   45.1990 C   0  0  0  0  0  0  0  0  0  0  0  0
   57.8930   24.8890   44.7590 C   0  0  0  0  0  0  0  0  0  0  0  0
   58.1630   23.7560   45.5090 C   0  0  0  0  0  0  0  0  0  0  0  0
   57.6190   22.5420   45.1090 C   0  0  0  0  0  0  0  0  0  0  0  0
   56.8140   22.4580   43.9720 C   0  0  0  0  0  0  0  0  0  0  0  0
   56.2970   21.2130   43.6190 O   0  0  0  0  0  0  0  0  0  0  0  0
   56.5610   23.6000   43.2410 C   0  0  0  0  0  0  0  0  0  0  0  0
   57.0930   24.8350   43.6180 C   0  0  0  0  0  0  0  0  0  0  0  0
   55.8730   28.6040   44.9280 N   0  0  0  0  0  0  0  0  0  0  0  0
   55.5340   29.8160   44.4900 C   0  0  0  0  0  0  0  0  0  0  0  0
   56.4260   30.7920   44.5420 N   0  0  0  0  0  0  0  0  0  0  0  0
   57.6760   30.5790   45.0320 C   0  0  0  0  0  0  0  0  0  0  0  0
   58.4340   31.6130   44.9900 N   0  0  0  0  0  0  0  0  0  0  0  0
   57.9880   32.8200   44.4120 C   0  0  0  0  0  0  0  0  0  0  0  0
   58.0600   33.7430   45.6790 C   0  0  0  0  0  0  0  0  0  0  0  0
   59.2930   33.5050   46.4460 C   0  0  0  0  0  0  0  0  0  0  0  0
   60.4920   33.9500   45.8920 C   0  0  0  0  0  0  0  0  0  0  0  0
   61.7020   33.8270   46.5410 C   0  0  0  0  0  0  0  0  0  0  0  0
   61.7440   33.2490   47.7760 C   0  0  0  0  0  0  0  0  0  0  0  0
   60.5690   32.7910   48.3620 C   0  0  0  0  0  0  0  0  0  0  0  0
   60.6540   32.1690   49.7080 C   0  0  0  0  0  0  0  0  0  0  0  0
   59.3510   32.9240   47.6880 C   0  0  0  0  0  0  0  0  0  0  0  0
   58.1670   32.3670   48.3570 C   0  0  0  0  0  0  0  0  0  0  0  0
   61.4862   28.8176   45.7688 H   0  0  0  0  0  0  0  0  0  0  0  0
   60.4150   28.0673   44.5375 H   0  0  0  0  0  0  0  0  0  0  0  0
   60.6763   29.8445   44.5375 H   0  0  0  0  0  0  0  0  0  0  0  0
   59.3358   28.2151   46.7010 H   0  0  0  0  0  0  0  0  0  0  0  0
   59.6164   30.0609   46.6199 H   0  0  0  0  0  0  0  0  0  0  0  0
   57.5491   26.9546   46.9186 H   0  0  0  0  0  0  0  0  0  0  0  0
   56.4619   26.4049   45.5042 H   0  0  0  0  0  0  0  0  0  0  0  0
   58.8672   26.7712   44.3325 H   0  0  0  0  0  0  0  0  0  0  0  0
   59.3289   26.0773   45.8890 H   0  0  0  0  0  0  0  0  0  0  0  0
   58.7972   23.8166   46.4057 H   0  0  0  0  0  0  0  0  0  0  0  0
   57.8254   21.6350   45.6961 H   0  0  0  0  0  0  0  0  0  0  0  0
   56.9370   20.4050   43.5930 H   0  0  0  0  0  0  0  0  0  0  0  0
   55.9279   23.5368   42.3437 H   0  0  0  0  0  0  0  0  0  0  0  0
   56.8864   25.7416   43.0302 H   0  0  0  0  0  0  0  0  0  0  0  0
   55.1410   27.8490   44.8720 H   0  0  0  0  0  0  0  0  0  0  0  0
   54.5262   30.0026   44.0906 H   0  0  0  0  0  0  0  0  0  0  0  0
   58.6584   33.1660   43.6115 H   0  0  0  0  0  0  0  0  0  0  0  0
   57.0065   32.7724   43.9176 H   0  0  0  0  0  0  0  0  0  0  0  0
   58.0355   34.7947   45.3577 H   0  0  0  0  0  0  0  0  0  0  0  0
   57.2000   33.5126   46.3250 H   0  0  0  0  0  0  0  0  0  0  0  0
   60.4720   34.4182   44.8968 H   0  0  0  0  0  0  0  0  0  0  0  0
   62.6254   34.1916   46.0673 H   0  0  0  0  0  0  0  0  0  0  0  0
   62.7025   33.1457   48.3056 H   0  0  0  0  0  0  0  0  0  0  0  0
   60.5477   32.9467   50.4787 H   0  0  0  0  0  0  0  0  0  0  0  0
   59.8487   31.4282   49.8211 H   0  0  0  0  0  0  0  0  0  0  0  0
   61.6285   31.6714   49.8211 H   0  0  0  0  0  0  0  0  0  0  0  0
   58.2988   32.4290   49.4473 H   0  0  0  0  0  0  0  0  0  0  0  0
   57.2757   32.9402   48.0622 H   0  0  0  0  0  0  0  0  0  0  0  0
   58.0403   31.3148   48.0622 H   0  0  0  0  0  0  0  0  0  0  0  0
  1  2  1  0
  2  3  1  0
  3  4  2  0
  4  5  1  0
  5  6  1  0
  6  7  1  0
  7  8  2  0
  8  9  1  0
  9 10  2  0
 10 11  1  0
 10 12  1  0
 12 13  2  0
  4 14  1  0
 14 15  1  0
 15 16  2  0
 16 17  1  0
 17 18  2  0
 18 19  1  0
 19 20  1  0
 20 21  1  0
 21 22  2  0
 22 23  1  0
 23 24  2  0
 24 25  1  0
 25 26  1  0
 25 27  2  0
 27 28  1  0
 17  3  1  0
 27 21  1  0
 13  7  1  0
  1 29  1  0
  1 30  1  0
  1 31  1  0
  2 32  1  0
  2 33  1  0
  5 34  1  0
  5 35  1  0
  6 36  1  0
  6 37  1  0
  8 38  1  0
  9 39  1  0
 11 40  1  0
 12 41  1  0
 13 42  1  0
 14 43  1  0
 15 44  1  0
 19 45  1  0
 19 46  1  0
 20 47  1  0
 20 48  1  0
 22 49  1  0
 23 50  1  0
 24 51  1  0
 26 52  1  0
 26 53  1  0
 26 54  1  0
 28 55  1  0
 28 56  1  0
 28 57  1  0
M  END
>  <smiles>  (11) 
CCc1c(CCc2ccc(O)cc2)[nH]cnc1=NCCc1cccc(C)c1C

>  <score_type>  (11) 
oracle

>  <origin>  (11) 
adg

>  <m_score__min__energy>  (11) 
-9.75

>  <m_primary>  (11) 
energy

$$$$
11:0
     RDKit          3D

 24 25  0  0  0  0  0  0  0  0999 V2000
   55.9590   21.3380   42.6470 O   0  0  0  0  0  0  0  0  0  0  0  0
   56.3600   22.3040   43.5610 C   0  0  0  0  0  0  0  0  0  0  0  0
   56.6260   23.6070   43.1310 C   0  0  0  0  0  0  0  0  0  0  0  0
   57.0290   24.5800   44.0500 C   0  0  0  0  0  0  0  0  0  0  0  0
   57.1650   24.2570   45.4110 C   0  0  0  0  0  0  0  0  0  0  0  0
   57.6310   25.2970   46.3920 C   0  0  0  0  0  0  0  0  0  0  0  0
   57.5750   26.6640   45.7700 C   0  0  0  0  0  0  0  0  0  0  0  0
   58.7360   27.2660   45.3920 N   0  0  0  0  0  0  0  0  0  0  0  0
   58.7580   28.5150   44.8530 C   0  0  0  0  0  0  0  0  0  0  0  0
   57.5670   29.2230   44.6800 C   0  0  0  0  0  0  0  0  0  0  0  0
   56.3620   28.6360   45.0680 C   0  0  0  0  0  0  0  0  0  0  0  0
   56.3570   27.3520   45.6190 C   0  0  0  0  0  0  0  0  0  0  0  0
   55.1530   26.7760   46.0110 O   0  0  0  0  0  0  0  0  0  0  0  0
   56.9040   22.9430   45.8340 C   0  0  0  0  0  0  0  0  0  0  0  0
   56.5000   21.9720   44.9120 C   0  0  0  0  0  0  0  0  0  0  0  0
   56.5180   23.8672   42.0677 H   0  0  0  0  0  0  0  0  0  0  0  0
   57.2407   25.6033   43.7064 H   0  0  0  0  0  0  0  0  0  0  0  0
   56.9814   25.2754   47.2795 H   0  0  0  0  0  0  0  0  0  0  0  0
   58.6698   25.0773   46.6794 H   0  0  0  0  0  0  0  0  0  0  0  0
   59.7148   28.9674   44.5533 H   0  0  0  0  0  0  0  0  0  0  0  0
   57.5785   30.2323   44.2427 H   0  0  0  0  0  0  0  0  0  0  0  0
   55.4167   29.1837   44.9402 H   0  0  0  0  0  0  0  0  0  0  0  0
   57.0179   22.6766   46.8952 H   0  0  0  0  0  0  0  0  0  0  0  0
   56.2922   20.9461   45.2501 H   0  0  0  0  0  0  0  0  0  0  0  0
  1  2  1  0
  2  3  2  0
  3  4  1  0
  4  5  2  0
  5  6  1  0
  6  7  1  0
  7  8  2  0
  8  9  1  0
  9 10  2  0
 10 11  1  0
 11 12  2  0
 12 13  1  0
  5 14  1  0
 14 15  2  0
 15  2  1  0
 12  7  1  0
  3 16  1  0
  4 17  1  0
  6 18  1  0
  6 19  1  0
  9 20  1  0
 10 21  1  0
 11 22  1  0
 14 23  1  0
 15 24  1  0
M  CHG  2   1  -1  13  -1
M  END
>  <UniqueID>  (12) 
11

>  <SMILES>  (12) 
[O-]c1ccc(Cc2ncccc2[O-])cc1

>  <Energy>  (12) 
24.679178043260126

>  <Genealogy>  (12) 
[O-]c1ccc(Cc2ncccc2[O-])cc1 (protonated)
[O-]c1ccc(Cc2ncccc2[O-])cc1 (3D coordinates assigned)
[O-]c1ccc(Cc2ncccc2[O-])cc1 (optimized conformer: 24.679178043260126 kcal/mol)

>  <smiles>  (12) 
Oc1ccc(Cc2ncccc2O)cc1

>  <score_type>  (12) 
oracle

>  <origin>  (12) 
adg

>  <m_score__min__energy>  (12) 
-10.539999999999999

>  <m_primary>  (12) 
energy

$$$$
12:0
     RDKit          3D

 29 30  0  0  0  0  0  0  0  0999 V2000
   55.8020   29.7170   45.9830 H   0  0  0  0  0  0  0  0  0  0  0  0
   55.8110   28.9730   45.2970 O   0  0  0  0  0  0  0  0  0  0  0  0
   56.2770   27.7020   45.6270 C   0  0  0  0  0  0  0  0  0  0  0  0
   55.4020   26.6610   45.6550 N   0  0  0  0  0  0  0  0  0  0  0  0
   55.8020   25.4160   46.0160 C   0  0  0  0  0  0  0  0  0  0  0  0
   54.7250   24.1910   46.0400 S   0  0  0  0  0  0  0  0  0  0  0  0
   57.0920   25.1920   46.3690 N   0  0  0  0  0  0  0  0  0  0  0  0
   58.0090   26.1940   46.3550 C   0  0  0  0  0  0  0  0  0  0  0  0
   59.1980   25.9450   46.6880 O   0  0  0  0  0  0  0  0  0  0  0  0
   57.6300   27.4890   45.9580 C   0  0  0  0  0  0  0  0  0  0  0  0
   58.6320   28.5820   45.9510 C   0  0  0  0  0  0  0  0  0  0  0  0
   59.4469   28.5548   46.6893 H   0  0  0  0  0  0  0  0  0  0  0  0
   58.5860   29.6010   45.0830 C   0  0  0  0  0  0  0  0  0  0  0  0
   58.6218   29.3780   44.0064 H   0  0  0  0  0  0  0  0  0  0  0  0
   58.4890   31.0140   45.5110 C   0  0  0  0  0  0  0  0  0  0  0  0
   59.5340   31.5420   46.2850 C   0  0  0  0  0  0  0  0  0  0  0  0
   60.3879   30.9035   46.5554 H   0  0  0  0  0  0  0  0  0  0  0  0
   59.5000   32.8700   46.7150 C   0  0  0  0  0  0  0  0  0  0  0  0
   60.3291   33.2757   47.3133 H   0  0  0  0  0  0  0  0  0  0  0  0
   58.4150   33.6820   46.3860 C   0  0  0  0  0  0  0  0  0  0  0  0
   58.3959   34.7317   46.7143 H   0  0  0  0  0  0  0  0  0  0  0  0
   57.3530   33.1660   45.6410 C   0  0  0  0  0  0  0  0  0  0  0  0
   56.4981   33.8111   45.3899 H   0  0  0  0  0  0  0  0  0  0  0  0
   57.3680   31.8240   45.2080 C   0  0  0  0  0  0  0  0  0  0  0  0
   56.2840   31.2670   44.5100 O   0  0  0  0  0  0  0  0  0  0  0  0
   56.3610   30.7080   43.2030 C   0  0  0  0  0  0  0  0  0  0  0  0
   56.5108   29.6208   43.2774 H   0  0  0  0  0  0  0  0  0  0  0  0
   55.4261   30.9131   42.6608 H   0  0  0  0  0  0  0  0  0  0  0  0
   57.2056   31.1582   42.6608 H   0  0  0  0  0  0  0  0  0  0  0  0
  1  2  1  0
  2  3  1  0
  3  4  1  0
  4  5  1  0
  5  6  2  0
  5  7  1  0
  7  8  1  0
  8  9  2  0
  8 10  1  0
 10 11  1  0
 11 12  1  0
 11 13  2  0
 13 14  1  0
 13 15  1  0
 15 16  2  0
 16 17  1  0
 16 18  1  0
 18 19  1  0
 18 20  2  0
 20 21  1  0
 20 22  1  0
 22 23  1  0
 22 24  2  0
 24 25  1  0
 25 26  1  0
 26 27  1  0
 26 28  1  0
 26 29  1  0
 10  3  2  0
 24 15  1  0
M  CHG  2   4  -1   7  -1
M  END
>  <UniqueID>  (13) 
12

>  <SMILES>  (13) 
COc1ccccc1/C=C/c1c(O)[n-]c(=S)[n-]c1=O

>  <Energy>  (13) 
39.57848090252819

>  <Genealogy>  (13) 
COc1ccccc1C=Cc1c(O)[n-]c(=S)[n-]c1=O (protonated)
COc1ccccc1/C=C/c1c(O)[n-]c(=S)[n-]c1=O (cis-trans isomerization)
COc1ccccc1/C=C/c1c(O)[n-]c(=S)[n-]c1=O (3D coordinates assigned)
COc1ccccc1/C=C/c1c(O)[n-]c(=S)[n-]c1=O (optimized conformer: 39.57848090252819 kcal/mol)

>  <smiles>  (13) 
COc1ccccc1C=Cc1c(O)[nH]c(=S)[nH]c1=O

>  <score_type>  (13) 
oracle

>  <origin>  (13) 
adg

>  <m_score__min__energy>  (13) 
-10.859999999999999

>  <m_primary>  (13) 
energy

$$$$
13:0
     RDKit          3D

 51 54  0  0  0  0  0  0  0  0999 V2000
   51.0180   32.3400   49.9160 N   0  0  0  0  0  0  0  0  0  0  0  0
   51.3490   32.2300   51.2980 C   0  0  0  0  0  0  0  0  0  0  0  0
   51.0170   33.1570   52.0880 O   0  0  0  0  0  0  0  0  0  0  0  0
   52.0680   31.0370   51.8050 C   0  0  0  0  0  0  0  0  0  0  0  0
   51.3720   30.0280   52.4970 C   0  0  0  0  0  0  0  0  0  0  0  0
   52.0490   28.9180   53.0000 C   0  0  0  0  0  0  0  0  0  0  0  0
   53.4290   28.8000   52.8220 C   0  0  0  0  0  0  0  0  0  0  0  0
   54.1460   29.7990   52.1400 C   0  0  0  0  0  0  0  0  0  0  0  0
   55.5710   29.7310   51.9840 N   0  0  0  0  0  0  0  0  0  0  0  0
   56.6900   30.2250   53.2170 S   0  0  0  0  0  0  0  0  0  0  0  0
   57.4470   29.0320   53.7270 O   0  0  0  0  0  0  0  0  0  0  0  0
   55.9360   30.8530   54.3550 O   0  0  0  0  0  0  0  0  0  0  0  0
   57.8190   31.3650   52.4930 C   0  0  0  0  0  0  0  0  0  0  0  0
   58.7160   30.9080   51.5190 C   0  0  0  0  0  0  0  0  0  0  0  0
   59.4670   31.8160   50.7720 C   0  0  0  0  0  0  0  0  0  0  0  0
   59.3320   33.1960   50.9950 C   0  0  0  0  0  0  0  0  0  0  0  0
   59.9660   34.1800   50.0530 C   0  0  0  0  0  0  0  0  0  0  0  0
   59.4320   33.9750   48.7080 N   0  0  0  0  0  0  0  0  0  0  0  0
   59.9590   32.9760   47.8230 C   0  0  0  0  0  0  0  0  0  0  0  0
   61.1260   32.5370   48.0050 O   0  0  0  0  0  0  0  0  0  0  0  0
   59.1370   32.4510   46.7130 C   0  0  0  0  0  0  0  0  0  0  0  0
   58.6210   33.3070   45.7230 C   0  0  0  0  0  0  0  0  0  0  0  0
   57.8630   32.7790   44.6720 C   0  0  0  0  0  0  0  0  0  0  0  0
   57.4020   33.5560   43.7930 O   0  0  0  0  0  0  0  0  0  0  0  0
   57.6310   31.3930   44.6060 C   0  0  0  0  0  0  0  0  0  0  0  0
   56.8840   30.8100   43.5650 C   0  0  0  0  0  0  0  0  0  0  0  0
   56.6790   29.4270   43.5380 C   0  0  0  0  0  0  0  0  0  0  0  0
   57.2140   28.6170   44.5450 C   0  0  0  0  0  0  0  0  0  0  0  0
   57.9590   29.1840   45.5810 C   0  0  0  0  0  0  0  0  0  0  0  0
   58.1700   30.5680   45.6190 C   0  0  0  0  0  0  0  0  0  0  0  0
   58.8980   31.1140   46.6280 N   0  0  0  0  0  0  0  0  0  0  0  0
   58.4690   33.6510   52.0060 C   0  0  0  0  0  0  0  0  0  0  0  0
   57.7200   32.7400   52.7550 C   0  0  0  0  0  0  0  0  0  0  0  0
   53.4590   30.9030   51.6200 C   0  0  0  0  0  0  0  0  0  0  0  0
   51.5030   33.0290   49.3050 H   0  0  0  0  0  0  0  0  0  0  0  0
   50.2852   30.1161   52.6421 H   0  0  0  0  0  0  0  0  0  0  0  0
   51.4955   28.1342   53.5378 H   0  0  0  0  0  0  0  0  0  0  0  0
   53.9582   27.9205   53.2176 H   0  0  0  0  0  0  0  0  0  0  0  0
   58.8288   29.8282   51.3423 H   0  0  0  0  0  0  0  0  0  0  0  0
   60.1668   31.4500   50.0063 H   0  0  0  0  0  0  0  0  0  0  0  0
   59.7410   35.2041   50.3854 H   0  0  0  0  0  0  0  0  0  0  0  0
   61.0558   34.0307   50.0432 H   0  0  0  0  0  0  0  0  0  0  0  0
   58.5730   34.5040   48.4330 H   0  0  0  0  0  0  0  0  0  0  0  0
   58.8130   34.3889   45.7750 H   0  0  0  0  0  0  0  0  0  0  0  0
   56.4608   31.4434   42.7714 H   0  0  0  0  0  0  0  0  0  0  0  0
   56.0954   28.9749   42.7226 H   0  0  0  0  0  0  0  0  0  0  0  0
   57.0473   27.5300   44.5207 H   0  0  0  0  0  0  0  0  0  0  0  0
   58.3809   28.5425   46.3687 H   0  0  0  0  0  0  0  0  0  0  0  0
   58.3827   34.7287   52.2086 H   0  0  0  0  0  0  0  0  0  0  0  0
   57.0520   33.1010   53.5509 H   0  0  0  0  0  0  0  0  0  0  0  0
   54.0105   31.6736   51.0614 H   0  0  0  0  0  0  0  0  0  0  0  0
  1  2  1  0
  2  3  2  0
  2  4  1  0
  4  5  2  0
  5  6  1  0
  6  7  2  0
  7  8  1  0
  8  9  1  0
  9 10  1  0
 10 11  2  0
 10 12  2  0
 10 13  1  0
 13 14  2  0
 14 15  1  0
 15 16  2  0
 16 17  1  0
 17 18  1  0
 18 19  1  0
 19 20  2  0
 19 21  1  0
 21 22  2  0
 22 23  1  0
 23 24  2  0
 23 25  1  0
 25 26  2  0
 26 27  1  0
 27 28  2  0
 28 29  1  0
 29 30  2  0
 30 31  1  0
 16 32  1  0
 32 33  2  0
  8 34  2  0
 34  4  1  0
 33 13  1  0
 31 21  1  0
 30 25  1  0
  1 35  1  0
  5 36  1  0
  6 37  1  0
  7 38  1  0
 14 39  1  0
 15 40  1  0
 17 41  1  0
 17 42  1  0
 18 43  1  0
 22 44  1  0
 26 45  1  0
 27 46  1  0
 28 47  1  0
 29 48  1  0
 32 49  1  0
 33 50  1  0
 34 51  1  0
M  CHG  3   1  -1   9  -1  31  -1
M  END
>  <UniqueID>  (14) 
13

>  <SMILES>  (14) 
[NH-]C(=O)c1cccc([N-]S(=O)(=O)c2ccc(CNC(=O)c3cc(=O)c4ccccc4[n-]3)cc2)c1

>  <Energy>  (14) 
59.52325819564948

>  <Genealogy>  (14) 
[NH-]C(=O)c1cccc([N-]S(=O)(=O)c2ccc(CNC(=O)c3cc(=O)c4ccccc4[n-]3)cc2)c1 (protonated)
[NH-]C(=O)c1cccc([N-]S(=O)(=O)c2ccc(CNC(=O)c3cc(=O)c4ccccc4[n-]3)cc2)c1 (3D coordinates assigned)
[NH-]C(=O)c1cccc([N-]S(=O)(=O)c2ccc(CNC(=O)c3cc(=O)c4ccccc4[n-]3)cc2)c1 (optimized conformer: 59.52325819564948 kcal/mol)

>  <smiles>  (14) 
NC(=O)c1cccc(NS(=O)(=O)c2ccc(CNC(=O)c3cc(=O)c4ccccc4[nH]3)cc2)c1

>  <score_type>  (14) 
oracle

>  <origin>  (14) 
adg

>  <m_score__min__energy>  (14) 
-15.27

>  <m_primary>  (14) 
energy

$$$$
14:0
     RDKit          3D

 51 54  0  0  0  0  0  0  0  0999 V2000
   54.0110   25.9440   46.3750 H   0  0  0  0  0  0  0  0  0  0  0  0
   54.9160   26.3030   46.1000 O   0  0  0  0  0  0  0  0  0  0  0  0
   55.9150   25.4620   45.6150 C   0  0  0  0  0  0  0  0  0  0  0  0
   57.2680   25.7150   45.6520 C   0  0  0  0  0  0  0  0  0  0  0  0
   57.9080   26.8640   46.3140 C   0  0  0  0  0  0  0  0  0  0  0  0
   58.5327   26.6541   47.1948 H   0  0  0  0  0  0  0  0  0  0  0  0
   57.7930   28.1500   45.9320 C   0  0  0  0  0  0  0  0  0  0  0  0
   56.9560   28.5540   44.9030 C   0  0  0  0  0  0  0  0  0  0  0  0
   56.3556   27.9018   44.2517 H   0  0  0  0  0  0  0  0  0  0  0  0
   57.0210   29.9310   44.8530 C   0  0  0  0  0  0  0  0  0  0  0  0
   56.2480   30.7820   43.8910 C   0  0  0  0  0  0  0  0  0  0  0  0
   55.6114   31.4828   44.4511 H   0  0  0  0  0  0  0  0  0  0  0  0
   56.9475   31.3477   43.2580 H   0  0  0  0  0  0  0  0  0  0  0  0
   55.6178   30.1399   43.2580 H   0  0  0  0  0  0  0  0  0  0  0  0
   57.8980   30.3960   45.7710 N   0  0  0  0  0  0  0  0  0  0  0  0
   58.2460   31.7760   45.9790 C   0  0  0  0  0  0  0  0  0  0  0  0
   58.5280   32.6050   44.8810 C   0  0  0  0  0  0  0  0  0  0  0  0
   58.4773   32.1986   43.8601 H   0  0  0  0  0  0  0  0  0  0  0  0
   58.8730   33.9450   45.0810 C   0  0  0  0  0  0  0  0  0  0  0  0
   59.0921   34.5904   44.2176 H   0  0  0  0  0  0  0  0  0  0  0  0
   58.9400   34.4660   46.3770 C   0  0  0  0  0  0  0  0  0  0  0  0
   59.2770   35.7650   46.5700 F   0  0  0  0  0  0  0  0  0  0  0  0
   58.6600   33.6450   47.4740 C   0  0  0  0  0  0  0  0  0  0  0  0
   58.7129   34.0542   48.4937 H   0  0  0  0  0  0  0  0  0  0  0  0
   58.3130   32.3050   47.2770 C   0  0  0  0  0  0  0  0  0  0  0  0
   58.0917   31.6632   48.1425 H   0  0  0  0  0  0  0  0  0  0  0  0
   58.4040   29.3150   46.4210 C   0  0  0  0  0  0  0  0  0  0  0  0
   59.4480   29.3880   47.2620 C   0  0  0  0  0  0  0  0  0  0  0  0
   59.8367   30.3691   47.5724 H   0  0  0  0  0  0  0  0  0  0  0  0
   59.9147   28.4667   47.6407 H   0  0  0  0  0  0  0  0  0  0  0  0
   57.9360   24.6580   45.1370 N   0  0  0  0  0  0  0  0  0  0  0  0
   56.9510   23.8100   44.7660 C   0  0  0  0  0  0  0  0  0  0  0  0
   57.1810   22.6960   44.2250 O   0  0  0  0  0  0  0  0  0  0  0  0
   55.7100   24.2640   45.0410 N   0  0  0  0  0  0  0  0  0  0  0  0
   54.4310   23.5920   44.8040 C   0  0  0  0  0  0  0  0  0  0  0  0
   54.0566   23.8635   43.8060 H   0  0  0  0  0  0  0  0  0  0  0  0
   54.5790   22.5037   44.8644 H   0  0  0  0  0  0  0  0  0  0  0  0
   53.4450   24.0040   45.8250 N   0  0  0  0  0  0  0  0  0  0  0  0
   52.1970   24.5000   45.2150 C   0  0  0  0  0  0  0  0  0  0  0  0
   51.5940   24.9944   45.9908 H   0  0  0  0  0  0  0  0  0  0  0  0
   52.4657   25.2035   44.4132 H   0  0  0  0  0  0  0  0  0  0  0  0
   51.3650   23.3540   44.5890 C   0  0  0  0  0  0  0  0  0  0  0  0
   50.3065   23.5112   44.8437 H   0  0  0  0  0  0  0  0  0  0  0  0
   51.5375   23.3809   43.5029 H   0  0  0  0  0  0  0  0  0  0  0  0
   51.7520   22.0680   45.0450 O   0  0  0  0  0  0  0  0  0  0  0  0
   51.9380   22.0850   46.4430 C   0  0  0  0  0  0  0  0  0  0  0  0
   51.0454   22.5141   46.9217 H   0  0  0  0  0  0  0  0  0  0  0  0
   52.0979   21.0545   46.7929 H   0  0  0  0  0  0  0  0  0  0  0  0
   53.1700   22.9340   46.8140 C   0  0  0  0  0  0  0  0  0  0  0  0
   52.9950   23.3984   47.7957 H   0  0  0  0  0  0  0  0  0  0  0  0
   54.0426   22.2645   46.8312 H   0  0  0  0  0  0  0  0  0  0  0  0
  1  2  1  0
  2  3  1  0
  3  4  2  0
  4  5  1  0
  5  6  1  0
  5  7  2  0
  7  8  1  0
  8  9  1  0
  8 10  2  0
 10 11  1  0
 11 12  1  0
 11 13  1  0
 11 14  1  0
 10 15  1  0
 15 16  1  0
 16 17  2  0
 17 18  1  0
 17 19  1  0
 19 20  1  0
 19 21  2  0
 21 22  1  0
 21 23  1  0
 23 24  1  0
 23 25  2  0
 25 26  1  0
 15 27  1  0
 27 28  2  0
 28 29  1  0
 28 30  1  0
  4 31  1  0
 31 32  1  0
 32 33  2  0
 32 34  1  0
 34 35  1  0
 35 36  1  0
 35 37  1  0
 35 38  1  0
 38 39  1  0
 39 40  1  0
 39 41  1  0
 39 42  1  0
 42 43  1  0
 42 44  1  0
 42 45  1  0
 45 46  1  0
 46 47  1  0
 46 48  1  0
 46 49  1  0
 49 50  1  0
 49 51  1  0
 34  3  1  0
 49 38  1  0
 27  7  1  0
 25 16  1  0
M  CHG  1  31  -1
M  END
>  <UniqueID>  (15) 
14

>  <SMILES>  (15) 
C=c1/c(=C\c2[n-]c(=O)n(CN3CCOCC3)c2O)cc(C)n1-c1ccc(F)cc1

>  <Energy>  (15) 
142.1740211092548

>  <Genealogy>  (15) 
C=c1c(=Cc2[n-]c(=O)n(CN3CCOCC3)c2O)cc(C)n1-c1ccc(F)cc1 (protonated)
C=c1/c(=C\c2[n-]c(=O)n(CN3CCOCC3)c2O)cc(C)n1-c1ccc(F)cc1 (cis-trans isomerization)
C=c1/c(=C\c2[n-]c(=O)n(CN3CCOCC3)c2O)cc(C)n1-c1ccc(F)cc1 (3D coordinates assigned)
C=c1/c(=C\c2[n-]c(=O)n(CN3CCOCC3)c2O)cc(C)n1-c1ccc(F)cc1 (nonaromatic ring conformer: 142.1740211092548 kcal/mol)

>  <smiles>  (15) 
C=c1c(=Cc2[nH]c(=O)n(CN3CCOCC3)c2O)cc(C)n1-c1ccc(F)cc1

>  <score_type>  (15) 
oracle

>  <origin>  (15) 
adg

>  <m_score__min__energy>  (15) 
-10.85

>  <m_primary>  (15) 
energy

$$$$
15:0
     RDKit          3D

 56 59  0  0  0  0  0  0  0  0999 V2000
   55.2228   31.1477   44.5007 H   0  0  0  0  0  0  0  0  0  0  0  0
   56.1490   30.5550   44.4700 C   0  0  0  0  0  0  0  0  0  0  0  0
   56.2020   29.2570   44.8710 N   0  0  0  0  0  0  0  0  0  0  0  0
   57.4480   28.7450   44.7590 C   0  0  0  0  0  0  0  0  0  0  0  0
   57.7140   27.5110   45.0760 N   0  0  0  0  0  0  0  0  0  0  0  0
   57.3380   26.8140   46.2760 C   0  0  0  0  0  0  0  0  0  0  0  0
   57.3390   27.3960   47.3920 O   0  0  0  0  0  0  0  0  0  0  0  0
   56.8850   25.4580   46.2100 N   0  0  0  0  0  0  0  0  0  0  0  0
   57.5650   24.3630   45.5790 C   0  0  0  0  0  0  0  0  0  0  0  0
   58.9090   24.0690   45.8750 C   0  0  0  0  0  0  0  0  0  0  0  0
   59.4633   24.6992   46.5860 H   0  0  0  0  0  0  0  0  0  0  0  0
   59.5420   22.9820   45.2710 C   0  0  0  0  0  0  0  0  0  0  0  0
   60.5967   22.7669   45.4974 H   0  0  0  0  0  0  0  0  0  0  0  0
   58.8420   22.1670   44.3810 C   0  0  0  0  0  0  0  0  0  0  0  0
   59.3484   21.3163   43.9015 H   0  0  0  0  0  0  0  0  0  0  0  0
   57.4980   22.4290   44.0970 C   0  0  0  0  0  0  0  0  0  0  0  0
   56.6450   21.3660   42.9830 Cl  0  0  0  0  0  0  0  0  0  0  0  0
   56.8520   23.5230   44.7020 C   0  0  0  0  0  0  0  0  0  0  0  0
   55.1580   23.8580   44.3550 Cl  0  0  0  0  0  0  0  0  0  0  0  0
   58.5380   29.8840   44.1520 S   0  0  0  0  0  0  0  0  0  0  0  0
   57.3570   31.0750   44.0180 C   0  0  0  0  0  0  0  0  0  0  0  0
   57.5970   32.4850   43.5810 C   0  0  0  0  0  0  0  0  0  0  0  0
   56.6315   32.9773   43.3928 H   0  0  0  0  0  0  0  0  0  0  0  0
   58.1992   32.4799   42.6605 H   0  0  0  0  0  0  0  0  0  0  0  0
   58.3390   33.2370   44.6520 C   0  0  0  0  0  0  0  0  0  0  0  0
   58.5770   34.6130   44.5140 C   0  0  0  0  0  0  0  0  0  0  0  0
   58.2443   35.1391   43.6070 H   0  0  0  0  0  0  0  0  0  0  0  0
   59.2350   35.3160   45.5250 C   0  0  0  0  0  0  0  0  0  0  0  0
   59.4297   36.3921   45.4063 H   0  0  0  0  0  0  0  0  0  0  0  0
   59.6470   34.6590   46.6860 C   0  0  0  0  0  0  0  0  0  0  0  0
   60.1734   35.2185   47.4733 H   0  0  0  0  0  0  0  0  0  0  0  0
   59.3930   33.2860   46.8550 C   0  0  0  0  0  0  0  0  0  0  0  0
   59.8220   32.5850   48.0870 C   0  0  0  0  0  0  0  0  0  0  0  0
   59.9790   33.2410   49.1530 O   0  0  0  0  0  0  0  0  0  0  0  0
   60.0510   31.1650   48.0920 N   0  0  0  0  0  0  0  0  0  0  0  0
   59.7080   30.3800   49.2800 C   0  0  0  0  0  0  0  0  0  0  0  0
   58.9035   30.8872   49.8327 H   0  0  0  0  0  0  0  0  0  0  0  0
   60.5969   30.2856   49.9211 H   0  0  0  0  0  0  0  0  0  0  0  0
   59.2370   28.9870   48.8640 C   0  0  0  0  0  0  0  0  0  0  0  0
   58.2470   29.0666   48.3913 H   0  0  0  0  0  0  0  0  0  0  0  0
   59.1819   28.3499   49.7590 H   0  0  0  0  0  0  0  0  0  0  0  0
   60.1810   28.3830   47.9100 N   0  0  0  0  0  0  0  0  0  0  0  0
   60.4240   26.9580   47.9570 C   0  0  0  0  0  0  0  0  0  0  0  0
   60.2380   26.3220   49.0320 O   0  0  0  0  0  0  0  0  0  0  0  0
   60.9250   26.2000   46.7640 C   0  0  0  0  0  0  0  0  0  0  0  0
   61.5024   25.3264   47.1007 H   0  0  0  0  0  0  0  0  0  0  0  0
   60.0708   25.8636   46.1581 H   0  0  0  0  0  0  0  0  0  0  0  0
   61.5693   26.8540   46.1581 H   0  0  0  0  0  0  0  0  0  0  0  0
   60.5620   29.1820   46.7330 C   0  0  0  0  0  0  0  0  0  0  0  0
   59.6960   29.2698   46.0604 H   0  0  0  0  0  0  0  0  0  0  0  0
   61.3948   28.6798   46.2190 H   0  0  0  0  0  0  0  0  0  0  0  0
   61.0150   30.5800   47.1530 C   0  0  0  0  0  0  0  0  0  0  0  0
   61.0889   31.2208   46.2620 H   0  0  0  0  0  0  0  0  0  0  0  0
   61.9959   30.5063   47.6454 H   0  0  0  0  0  0  0  0  0  0  0  0
   58.7440   32.5810   45.8270 C   0  0  0  0  0  0  0  0  0  0  0  0
   58.5510   31.5043   45.9433 H   0  0  0  0  0  0  0  0  0  0  0  0
  1  2  1  0
  2  3  1  0
  3  4  1  0
  4  5  2  0
  5  6  1  0
  6  7  2  0
  6  8  1  0
  8  9  1  0
  9 10  2  0
 10 11  1  0
 10 12  1  0
 12 13  1  0
 12 14  2  0
 14 15  1  0
 14 16  1  0
 16 17  1  0
 16 18  2  0
 18 19  1  0
  4 20  1  0
 20 21  1  0
 21 22  1  0
 22 23  1  0
 22 24  1  0
 22 25  1  0
 25 26  2  0
 26 27  1  0
 26 28  1  0
 28 29  1  0
 28 30  2  0
 30 31  1  0
 30 32  1  0
 32 33  1  0
 33 34  2  0
 33 35  1  0
 35 36  1  0
 36 37  1  0
 36 38  1  0
 36 39  1  0
 39 40  1  0
 39 41  1  0
 39 42  1  0
 42 43  1  0
 43 44  2  0
 43 45  1  0
 45 46  1  0
 45 47  1  0
 45 48  1  0
 42 49  1  0
 49 50  1  0
 49 51  1  0
 49 52  1  0
 52 53  1  0
 52 54  1  0
 32 55  2  0
 55 56  1  0
 21  2  2  0
 55 25  1  0
 18  9  1  0
 52 35  1  0
M  CHG  2   3  -1   8  -1
M  END
>  <UniqueID>  (16) 
15

>  <SMILES>  (16) 
CC(=O)N1CCN(C(=O)c2cccc(Cc3c[n-]/c(=N/C(=O)[N-]c4cccc(Cl)c4Cl)s3)c2)CC1

>  <Energy>  (16) 
99.51586847456096

>  <Genealogy>  (16) 
CC(=O)N1CCN(C(=O)c2cccc(Cc3c[n-]c(=NC(=O)[N-]c4cccc(Cl)c4Cl)s3)c2)CC1 (protonated)
CC(=O)N1CCN(C(=O)c2cccc(Cc3c[n-]/c(=N/C(=O)[N-]c4cccc(Cl)c4Cl)s3)c2)CC1 (cis-trans isomerization)
CC(=O)N1CCN(C(=O)c2cccc(Cc3c[n-]/c(=N/C(=O)[N-]c4cccc(Cl)c4Cl)s3)c2)CC1 (3D coordinates assigned)
CC(=O)N1CCN(C(=O)c2cccc(Cc3c[n-]/c(=N/C(=O)[N-]c4cccc(Cl)c4Cl)s3)c2)CC1 (nonaromatic ring conformer: 99.51586847456096 kcal/mol)

>  <smiles>  (16) 
CC(=O)N1CCN(C(=O)c2cccc(Cc3c[nH]c(=NC(=O)Nc4cccc(Cl)c4Cl)s3)c2)CC1

>  <score_type>  (16) 
oracle

>  <origin>  (16) 
adg

>  <m_score__min__energy>  (16) 
-13.289999999999999

>  <m_primary>  (16) 
energy

$$$$
16:0
     RDKit          3D

 53 55  0  0  0  0  0  0  0  0999 V2000
   58.5710   25.3920   46.1940 C   0  0  0  0  0  0  0  0  0  0  0  0
   57.8710   26.0500   45.2670 C   0  0  0  0  0  0  0  0  0  0  0  0
   56.9760   27.2010   45.6390 C   0  0  0  0  0  0  0  0  0  0  0  0
   57.5240   28.4610   45.1160 N   0  0  0  0  0  0  0  0  0  0  0  0
   58.9820   28.6340   45.0020 C   0  0  0  0  0  0  0  0  0  0  0  0
   59.5840   29.1390   46.2920 C   0  0  0  0  0  0  0  0  0  0  0  0
   60.5670   30.1460   46.2720 C   0  0  0  0  0  0  0  0  0  0  0  0
   61.1400   30.5970   47.4660 C   0  0  0  0  0  0  0  0  0  0  0  0
   60.7490   30.0400   48.6860 C   0  0  0  0  0  0  0  0  0  0  0  0
   59.7810   29.0340   48.7150 C   0  0  0  0  0  0  0  0  0  0  0  0
   59.2030   28.5810   47.5240 C   0  0  0  0  0  0  0  0  0  0  0  0
   56.6160   29.5310   44.7760 C   0  0  0  0  0  0  0  0  0  0  0  0
   55.3720   29.3450   44.8590 O   0  0  0  0  0  0  0  0  0  0  0  0
   57.1130   30.8360   44.2340 C   0  0  0  0  0  0  0  0  0  0  0  0
   56.7080   31.8960   45.1440 N   0  0  0  0  0  0  0  0  0  0  0  0
   57.3540   33.1680   45.2370 C   0  0  0  0  0  0  0  0  0  0  0  0
   57.0290   34.0980   44.4500 O   0  0  0  0  0  0  0  0  0  0  0  0
   58.3870   33.3850   46.2750 C   0  0  0  0  0  0  0  0  0  0  0  0
   59.5560   34.1090   45.9890 C   0  0  0  0  0  0  0  0  0  0  0  0
   60.5010   34.3430   46.9910 C   0  0  0  0  0  0  0  0  0  0  0  0
   60.2860   33.8710   48.2880 C   0  0  0  0  0  0  0  0  0  0  0  0
   59.1230   33.1460   48.5960 C   0  0  0  0  0  0  0  0  0  0  0  0
   58.8560   32.6850   49.9820 C   0  0  0  0  0  0  0  0  0  0  0  0
   59.3390   33.4120   51.0870 C   0  0  0  0  0  0  0  0  0  0  0  0
   59.1270   32.9510   52.3880 C   0  0  0  0  0  0  0  0  0  0  0  0
   58.4280   31.7620   52.6050 C   0  0  0  0  0  0  0  0  0  0  0  0
   57.9380   31.0270   51.5170 C   0  0  0  0  0  0  0  0  0  0  0  0
   57.2440   29.8370   51.7200 O   0  0  0  0  0  0  0  0  0  0  0  0
   58.1510   31.4880   50.2130 C   0  0  0  0  0  0  0  0  0  0  0  0
   58.1880   32.8970   47.5790 C   0  0  0  0  0  0  0  0  0  0  0  0
   59.2196   24.5533   45.9010 H   0  0  0  0  0  0  0  0  0  0  0  0
   58.4992   25.6886   47.2508 H   0  0  0  0  0  0  0  0  0  0  0  0
   57.9499   25.7455   44.2129 H   0  0  0  0  0  0  0  0  0  0  0  0
   55.9755   27.0355   45.2129 H   0  0  0  0  0  0  0  0  0  0  0  0
   56.9118   27.2656   46.7352 H   0  0  0  0  0  0  0  0  0  0  0  0
   59.4380   27.6651   44.7504 H   0  0  0  0  0  0  0  0  0  0  0  0
   59.1801   29.3771   44.2155 H   0  0  0  0  0  0  0  0  0  0  0  0
   60.8863   30.5805   45.3132 H   0  0  0  0  0  0  0  0  0  0  0  0
   61.9000   31.3919   47.4441 H   0  0  0  0  0  0  0  0  0  0  0  0
   61.2034   30.3937   49.6233 H   0  0  0  0  0  0  0  0  0  0  0  0
   59.4723   28.5968   49.6760 H   0  0  0  0  0  0  0  0  0  0  0  0
   58.4460   27.7834   47.5523 H   0  0  0  0  0  0  0  0  0  0  0  0
   58.2100   30.8122   44.1563 H   0  0  0  0  0  0  0  0  0  0  0  0
   56.6909   31.0149   43.2341 H   0  0  0  0  0  0  0  0  0  0  0  0
   59.7281   34.4931   44.9727 H   0  0  0  0  0  0  0  0  0  0  0  0
   61.4192   34.9019   46.7574 H   0  0  0  0  0  0  0  0  0  0  0  0
   61.0315   34.0681   49.0724 H   0  0  0  0  0  0  0  0  0  0  0  0
   59.8880   34.3511   50.9240 H   0  0  0  0  0  0  0  0  0  0  0  0
   59.5114   33.5257   53.2435 H   0  0  0  0  0  0  0  0  0  0  0  0
   58.2617   31.4018   53.6310 H   0  0  0  0  0  0  0  0  0  0  0  0
   57.0000   29.5180   52.6510 H   0  0  0  0  0  0  0  0  0  0  0  0
   57.7642   30.9101   49.3607 H   0  0  0  0  0  0  0  0  0  0  0  0
   57.2852   32.3108   47.8056 H   0  0  0  0  0  0  0  0  0  0  0  0
  1  2  2  0
  2  3  1  0
  3  4  1  0
  4  5  1  0
  5  6  1  0
  6  7  2  0
  7  8  1  0
  8  9  2  0
  9 10  1  0
 10 11  2  0
  4 12  1  0
 12 13  2  0
 12 14  1  0
 14 15  1  0
 15 16  1  0
 16 17  2  0
 16 18  1  0
 18 19  2  0
 19 20  1  0
 20 21  2  0
 21 22  1  0
 22 23  1  0
 23 24  2  0
 24 25  1  0
 25 26  2  0
 26 27  1  0
 27 28  1  0
 27 29  2  0
 22 30  2  0
 11  6  1  0
 30 18  1  0
 29 23  1  0
  1 31  1  0
  1 32  1  0
  2 33  1  0
  3 34  1  0
  3 35  1  0
  5 36  1  0
  5 37  1  0
  7 38  1  0
  8 39  1  0
  9 40  1  0
 10 41  1  0
 11 42  1  0
 14 43  1  0
 14 44  1  0
 19 45  1  0
 20 46  1  0
 21 47  1  0
 24 48  1  0
 25 49  1  0
 26 50  1  0
 28 51  1  0
 29 52  1  0
 30 53  1  0
M  CHG  1  15  -1
M  END
>  <UniqueID>  (17) 
16

>  <SMILES>  (17) 
C=CCN(Cc1ccccc1)C(=O)C[N-]C(=O)c1cccc(-c2cccc(O)c2)c1

>  <Energy>  (17) 
47.975296657193525

>  <Genealogy>  (17) 
C=CCN(Cc1ccccc1)C(=O)C[N-]C(=O)c1cccc(-c2cccc(O)c2)c1 (protonated)
C=CCN(Cc1ccccc1)C(=O)C[N-]C(=O)c1cccc(-c2cccc(O)c2)c1 (3D coordinates assigned)
C=CCN(Cc1ccccc1)C(=O)C[N-]C(=O)c1cccc(-c2cccc(O)c2)c1 (optimized conformer: 47.975296657193525 kcal/mol)

>  <smiles>  (17) 
C=CCN(Cc1ccccc1)C(=O)CNC(=O)c1cccc(-c2cccc(O)c2)c1

>  <score_type>  (17) 
oracle

>  <origin>  (17) 
adg

>  <m_score__min__energy>  (17) 
-10.91

>  <m_primary>  (17) 
energy

$$$$
17:0
     RDKit          3D

 36 38  0  0  0  0  0  0  0  0999 V2000
   55.2832   28.9174   44.2338 H   0  0  0  0  0  0  0  0  0  0  0  0
   55.8490   29.7490   44.6790 C   0  0  0  0  0  0  0  0  0  0  0  0
   55.4114   30.7577   44.7098 H   0  0  0  0  0  0  0  0  0  0  0  0
   57.0670   29.5340   45.1820 C   0  0  0  0  0  0  0  0  0  0  0  0
   57.7890   30.5330   45.7360 N   0  0  0  0  0  0  0  0  0  0  0  0
   58.9020   30.0180   46.2350 N   0  0  0  0  0  0  0  0  0  0  0  0
   59.9110   30.8080   46.8940 C   0  0  0  0  0  0  0  0  0  0  0  0
   60.3580   32.0250   46.3470 C   0  0  0  0  0  0  0  0  0  0  0  0
   59.9272   32.3909   45.4033 H   0  0  0  0  0  0  0  0  0  0  0  0
   61.3460   32.7720   46.9950 C   0  0  0  0  0  0  0  0  0  0  0  0
   61.6811   33.7270   46.5642 H   0  0  0  0  0  0  0  0  0  0  0  0
   61.9110   32.3100   48.1900 C   0  0  0  0  0  0  0  0  0  0  0  0
   63.1440   33.2610   49.0140 S   0  0  0  0  0  0  0  0  0  0  0  0
   63.5380   32.5820   50.2950 O   0  0  0  0  0  0  0  0  0  0  0  0
   62.6020   34.6250   49.3380 O   0  0  0  0  0  0  0  0  0  0  0  0
   64.5300   33.4190   47.9940 N   0  0  0  0  0  0  0  0  0  0  0  0
   65.3660   33.1900   48.5780 H   0  0  0  0  0  0  0  0  0  0  0  0
   64.4590   32.6760   47.2640 H   0  0  0  0  0  0  0  0  0  0  0  0
   61.4750   31.0960   48.7360 C   0  0  0  0  0  0  0  0  0  0  0  0
   61.9110   30.7307   49.6775 H   0  0  0  0  0  0  0  0  0  0  0  0
   60.4880   30.3470   48.0890 C   0  0  0  0  0  0  0  0  0  0  0  0
   60.1605   29.3890   48.5190 H   0  0  0  0  0  0  0  0  0  0  0  0
   58.9120   28.6910   45.9940 C   0  0  0  0  0  0  0  0  0  0  0  0
   59.8600   27.9170   46.3010 O   0  0  0  0  0  0  0  0  0  0  0  0
   57.7660   28.3240   45.3110 C   0  0  0  0  0  0  0  0  0  0  0  0
   57.4840   27.0740   44.8920 C   0  0  0  0  0  0  0  0  0  0  0  0
   57.5025   26.8873   43.8081 H   0  0  0  0  0  0  0  0  0  0  0  0
   57.1530   25.9380   45.7700 C   0  0  0  0  0  0  0  0  0  0  0  0
   55.8510   25.7600   46.2690 C   0  0  0  0  0  0  0  0  0  0  0  0
   54.8480   26.6770   45.9750 O   0  0  0  0  0  0  0  0  0  0  0  0
   55.5650   24.6820   47.0420 N   0  0  0  0  0  0  0  0  0  0  0  0
   56.5140   23.7560   47.3330 C   0  0  0  0  0  0  0  0  0  0  0  0
   56.1390   22.4720   48.2670 S   0  0  0  0  0  0  0  0  0  0  0  0
   57.7720   23.8920   46.8410 N   0  0  0  0  0  0  0  0  0  0  0  0
   58.1100   24.9540   46.0630 C   0  0  0  0  0  0  0  0  0  0  0  0
   59.2840   25.0450   45.6170 O   0  0  0  0  0  0  0  0  0  0  0  0
  1  2  1  0
  2  3  1  0
  2  4  2  0
  4  5  1  0
  5  6  1  0
  6  7  1  0
  7  8  2  0
  8  9  1  0
  8 10  1  0
 10 11  1  0
 10 12  2  0
 12 13  1  0
 13 14  2  0
 13 15  2  0
 13 16  1  0
 16 17  1  0
 16 18  1  0
 12 19  1  0
 19 20  1  0
 19 21  2  0
 21 22  1  0
  6 23  1  0
 23 24  2  0
 23 25  1  0
 25 26  2  0
 26 27  1  0
 26 28  1  0
 28 29  2  0
 29 30  1  0
 29 31  1  0
 31 32  1  0
 32 33  2  0
 32 34  1  0
 34 35  1  0
 35 36  2  0
 25  4  1  0
 35 28  1  0
 21  7  1  0
M  CHG  4   5  -1  30  -1  31  -1  34  -1
M  END
>  <UniqueID>  (18) 
17

>  <SMILES>  (18) 
C=c1[n-]n(-c2ccc(S(N)(=O)=O)cc2)c(=O)/c1=C/c1c([O-])[n-]c(=S)[n-]c1=O

>  <Energy>  (18) 
89.27229104405544

>  <Genealogy>  (18) 
C=c1[n-]n(-c2ccc(S(N)(=O)=O)cc2)c(=O)c1=Cc1c([O-])[n-]c(=S)[n-]c1=O (protonated)
C=c1[n-]n(-c2ccc(S(N)(=O)=O)cc2)c(=O)/c1=C/c1c([O-])[n-]c(=S)[n-]c1=O (cis-trans isomerization)
C=c1[n-]n(-c2ccc(S(N)(=O)=O)cc2)c(=O)/c1=C/c1c([O-])[n-]c(=S)[n-]c1=O (3D coordinates assigned)
C=c1[n-]n(-c2ccc(S(N)(=O)=O)cc2)c(=O)/c1=C/c1c([O-])[n-]c(=S)[n-]c1=O (optimized conformer: 89.27229104405544 kcal/mol)

>  <smiles>  (18) 
C=c1[nH]n(-c2ccc(S(N)(=O)=O)cc2)c(=O)c1=Cc1c(O)[nH]c(=S)[nH]c1=O

>  <score_type>  (18) 
oracle

>  <origin>  (18) 
adg

>  <m_score__min__energy>  (18) 
-16.530000000000001

>  <m_primary>  (18) 
energy

$$$$
18:0
     RDKit          3D

 52 54  0  0  0  0  0  0  0  0999 V2000
   54.1547   30.0983   44.1640 H   0  0  0  0  0  0  0  0  0  0  0  0
   55.2100   29.8680   44.3720 C   0  0  0  0  0  0  0  0  0  0  0  0
   55.5490   28.6540   44.8720 N   0  0  0  0  0  0  0  0  0  0  0  0
   56.8390   28.3260   45.1460 C   0  0  0  0  0  0  0  0  0  0  0  0
   57.1360   27.0600   45.6600 C   0  0  0  0  0  0  0  0  0  0  0  0
   56.3254   26.3372   45.8345 H   0  0  0  0  0  0  0  0  0  0  0  0
   58.4630   26.7050   45.9550 C   0  0  0  0  0  0  0  0  0  0  0  0
   58.8000   25.4400   46.4590 O   0  0  0  0  0  0  0  0  0  0  0  0
   58.6990   24.2320   45.7540 C   0  0  0  0  0  0  0  0  0  0  0  0
   57.4790   23.9060   45.1470 C   0  0  0  0  0  0  0  0  0  0  0  0
   56.6219   24.5890   45.2414 H   0  0  0  0  0  0  0  0  0  0  0  0
   57.3440   22.7180   44.4220 C   0  0  0  0  0  0  0  0  0  0  0  0
   56.3800   22.4647   43.9567 H   0  0  0  0  0  0  0  0  0  0  0  0
   58.4330   21.8520   44.2880 C   0  0  0  0  0  0  0  0  0  0  0  0
   58.3245   20.9147   43.7226 H   0  0  0  0  0  0  0  0  0  0  0  0
   59.6600   22.1780   44.8730 C   0  0  0  0  0  0  0  0  0  0  0  0
   60.5190   21.5000   44.7614 H   0  0  0  0  0  0  0  0  0  0  0  0
   59.7970   23.3650   45.6000 C   0  0  0  0  0  0  0  0  0  0  0  0
   60.7660   23.6218   46.0529 H   0  0  0  0  0  0  0  0  0  0  0  0
   59.4910   27.6180   45.6970 C   0  0  0  0  0  0  0  0  0  0  0  0
   60.5342   27.3353   45.9014 H   0  0  0  0  0  0  0  0  0  0  0  0
   59.2060   28.8860   45.1820 C   0  0  0  0  0  0  0  0  0  0  0  0
   60.0246   29.5959   44.9927 H   0  0  0  0  0  0  0  0  0  0  0  0
   57.8760   29.2600   44.9040 C   0  0  0  0  0  0  0  0  0  0  0  0
   57.5470   30.5320   44.3800 C   0  0  0  0  0  0  0  0  0  0  0  0
   58.4990   31.3980   44.1510 N   0  0  0  0  0  0  0  0  0  0  0  0
   58.4060   32.8610   44.1600 C   0  0  0  0  0  0  0  0  0  0  0  0
   58.1197   33.2082   43.1563 H   0  0  0  0  0  0  0  0  0  0  0  0
   59.3858   33.2699   44.4479 H   0  0  0  0  0  0  0  0  0  0  0  0
   57.3610   33.3460   45.1740 C   0  0  0  0  0  0  0  0  0  0  0  0
   56.4155   32.8140   44.9923 H   0  0  0  0  0  0  0  0  0  0  0  0
   57.2369   34.4311   45.0431 H   0  0  0  0  0  0  0  0  0  0  0  0
   57.8050   33.0890   46.6210 C   0  0  0  0  0  0  0  0  0  0  0  0
   57.2903   32.1966   47.0066 H   0  0  0  0  0  0  0  0  0  0  0  0
   57.5492   33.9635   47.2372 H   0  0  0  0  0  0  0  0  0  0  0  0
   59.2680   32.8710   46.6720 N   0  0  0  0  0  0  0  0  0  0  0  0
   60.0010   34.0770   47.1310 C   0  0  0  0  0  0  0  0  0  0  0  0
   61.0785   33.8934   47.0077 H   0  0  0  0  0  0  0  0  0  0  0  0
   59.7137   34.2411   48.1801 H   0  0  0  0  0  0  0  0  0  0  0  0
   59.6410   35.3610   46.3690 C   0  0  0  0  0  0  0  0  0  0  0  0
   59.4161   36.1630   47.0875 H   0  0  0  0  0  0  0  0  0  0  0  0
   60.4893   35.6623   45.7369 H   0  0  0  0  0  0  0  0  0  0  0  0
   58.7597   35.1774   45.7369 H   0  0  0  0  0  0  0  0  0  0  0  0
   59.6110   31.6370   47.4200 C   0  0  0  0  0  0  0  0  0  0  0  0
   59.5132   31.8348   48.4976 H   0  0  0  0  0  0  0  0  0  0  0  0
   58.9227   30.8406   47.1008 H   0  0  0  0  0  0  0  0  0  0  0  0
   61.0380   31.1770   47.1290 C   0  0  0  0  0  0  0  0  0  0  0  0
   61.5687   31.0059   48.0772 H   0  0  0  0  0  0  0  0  0  0  0  0
   61.0110   30.2420   46.5501 H   0  0  0  0  0  0  0  0  0  0  0  0
   61.5621   31.9517   46.5501 H   0  0  0  0  0  0  0  0  0  0  0  0
   56.1910   30.8260   44.1200 C   0  0  0  0  0  0  0  0  0  0  0  0
   55.9085   31.8105   43.7188 H   0  0  0  0  0  0  0  0  0  0  0  0
  1  2  1  0
  2  3  1  0
  3  4  1  0
  4  5  2  0
  5  6  1  0
  5  7  1  0
  7  8  1  0
  8  9  1  0
  9 10  2  0
 10 11  1  0
 10 12  1  0
 12 13  1  0
 12 14  2  0
 14 15  1  0
 14 16  1  0
 16 17  1  0
 16 18  2  0
 18 19  1  0
  7 20  2  0
 20 21  1  0
 20 22  1  0
 22 23  1  0
 22 24  2  0
 24 25  1  0
 25 26  2  0
 26 27  1  0
 27 28  1  0
 27 29  1  0
 27 30  1  0
 30 31  1  0
 30 32  1  0
 30 33  1  0
 33 34  1  0
 33 35  1  0
 33 36  1  0
 36 37  1  0
 37 38  1  0
 37 39  1  0
 37 40  1  0
 40 41  1  0
 40 42  1  0
 40 43  1  0
 36 44  1  0
 44 45  1  0
 44 46  1  0
 44 47  1  0
 47 48  1  0
 47 49  1  0
 47 50  1  0
 25 51  1  0
 51 52  1  0
 51  2  2  0
 24  4  1  0
 18  9  1  0
M  CHG  1   3  -1
M  END
>  <UniqueID>  (19) 
18

>  <SMILES>  (19) 
CCN(CC)CCC/N=c1\cc[n-]c2cc(Oc3ccccc3)ccc12

>  <Energy>  (19) 
65.58949948059416

>  <Genealogy>  (19) 
CCN(CC)CCCN=c1cc[n-]c2cc(Oc3ccccc3)ccc12 (protonated)
CCN(CC)CCC/N=c1\cc[n-]c2cc(Oc3ccccc3)ccc12 (cis-trans isomerization)
CCN(CC)CCC/N=c1\cc[n-]c2cc(Oc3ccccc3)ccc12 (3D coordinates assigned)
CCN(CC)CCC/N=c1\cc[n-]c2cc(Oc3ccccc3)ccc12 (optimized conformer: 65.58949948059416 kcal/mol)

>  <smiles>  (19) 
CCN(CC)CCCN=c1cc[nH]c2cc(Oc3ccccc3)ccc12

>  <score_type>  (19) 
oracle

>  <origin>  (19) 
adg

>  <m_score__min__energy>  (19) 
-9.0299999999999994

>  <m_primary>  (19) 
energy

$$$$
19:0
     RDKit          3D

 40 41  0  0  0  0  0  0  0  0999 V2000
   55.1610   26.6060   45.9450 N   0  0  0  0  0  0  0  0  0  0  0  0
   56.8610   26.9350   45.9060 S   0  0  0  0  0  0  0  0  0  0  0  0
   57.4470   26.6190   47.2530 O   0  0  0  0  0  0  0  0  0  0  0  0
   57.5090   26.0780   44.8570 O   0  0  0  0  0  0  0  0  0  0  0  0
   57.1590   28.6290   45.5220 C   0  0  0  0  0  0  0  0  0  0  0  0
   56.5990   29.2180   44.3790 C   0  0  0  0  0  0  0  0  0  0  0  0
   56.9010   30.5450   44.0550 C   0  0  0  0  0  0  0  0  0  0  0  0
   57.7610   31.2960   44.8690 C   0  0  0  0  0  0  0  0  0  0  0  0
   58.1500   32.9670   44.4580 S   0  0  0  0  0  0  0  0  0  0  0  0
   58.3480   33.0820   42.9710 O   0  0  0  0  0  0  0  0  0  0  0  0
   56.9840   33.8340   44.8440 O   0  0  0  0  0  0  0  0  0  0  0  0
   59.5780   33.5600   45.2670 N   0  0  0  0  0  0  0  0  0  0  0  0
   59.3090   34.7280   46.1170 C   0  0  0  0  0  0  0  0  0  0  0  0
   59.2840   34.3830   47.6290 C   0  0  0  0  0  0  0  0  0  0  0  0
   59.5660   32.9660   47.9420 N   0  0  0  0  0  0  0  0  0  0  0  0
   58.7320   32.4350   49.0420 C   0  0  0  0  0  0  0  0  0  0  0  0
   59.3020   31.1120   49.5750 C   0  0  0  0  0  0  0  0  0  0  0  0
   60.0080   30.4360   48.5550 O   0  0  0  0  0  0  0  0  0  0  0  0
   61.1970   31.1390   48.2210 C   0  0  0  0  0  0  0  0  0  0  0  0
   60.9960   32.6660   48.1230 C   0  0  0  0  0  0  0  0  0  0  0  0
   58.3100   30.7100   46.0210 C   0  0  0  0  0  0  0  0  0  0  0  0
   58.0140   29.3800   46.3390 C   0  0  0  0  0  0  0  0  0  0  0  0
   54.7770   27.0790   46.7930 H   0  0  0  0  0  0  0  0  0  0  0  0
   55.9217   28.6360   43.7367 H   0  0  0  0  0  0  0  0  0  0  0  0
   56.4612   31.0020   43.1563 H   0  0  0  0  0  0  0  0  0  0  0  0
   59.9490   32.7880   45.8640 H   0  0  0  0  0  0  0  0  0  0  0  0
   60.0943   35.4779   45.9413 H   0  0  0  0  0  0  0  0  0  0  0  0
   58.3120   35.1078   45.8492 H   0  0  0  0  0  0  0  0  0  0  0  0
   60.0390   35.0028   48.1348 H   0  0  0  0  0  0  0  0  0  0  0  0
   58.2594   34.5810   47.9769 H   0  0  0  0  0  0  0  0  0  0  0  0
   58.7043   33.1702   49.8597 H   0  0  0  0  0  0  0  0  0  0  0  0
   57.7187   32.2500   48.6559 H   0  0  0  0  0  0  0  0  0  0  0  0
   59.9851   31.3219   50.4113 H   0  0  0  0  0  0  0  0  0  0  0  0
   58.4717   30.4766   49.9170 H   0  0  0  0  0  0  0  0  0  0  0  0
   61.9521   30.9351   48.9944 H   0  0  0  0  0  0  0  0  0  0  0  0
   61.5153   30.7878   47.2283 H   0  0  0  0  0  0  0  0  0  0  0  0
   61.3558   33.1425   49.0468 H   0  0  0  0  0  0  0  0  0  0  0  0
   61.5620   33.0542   47.2634 H   0  0  0  0  0  0  0  0  0  0  0  0
   58.9730   31.2968   46.6737 H   0  0  0  0  0  0  0  0  0  0  0  0
   58.4554   28.9212   47.2361 H   0  0  0  0  0  0  0  0  0  0  0  0
  1  2  1  0
  2  3  2  0
  2  4  2  0
  2  5  1  0
  5  6  2  0
  6  7  1  0
  7  8  2  0
  8  9  1  0
  9 10  2  0
  9 11  2  0
  9 12  1  0
 12 13  1  0
 13 14  1  0
 14 15  1  0
 15 16  1  0
 16 17  1  0
 17 18  1  0
 18 19  1  0
 19 20  1  0
  8 21  1  0
 21 22  2  0
 22  5  1  0
 20 15  1  0
  1 23  1  0
  6 24  1  0
  7 25  1  0
 12 26  1  0
 13 27  1  0
 13 28  1  0
 14 29  1  0
 14 30  1  0
 16 31  1  0
 16 32  1  0
 17 33  1  0
 17 34  1  0
 19 35  1  0
 19 36  1  0
 20 37  1  0
 20 38  1  0
 21 39  1  0
 22 40  1  0
M  CHG  1   1  -1
M  END
>  <UniqueID>  (20) 
19

>  <SMILES>  (20) 
[NH-]S(=O)(=O)c1ccc(S(=O)(=O)NCCN2CCOCC2)cc1

>  <Energy>  (20) 
54.16053819419886

>  <Genealogy>  (20) 
[NH-]S(=O)(=O)c1ccc(S(=O)(=O)NCCN2CCOCC2)cc1 (protonated)
[NH-]S(=O)(=O)c1ccc(S(=O)(=O)NCCN2CCOCC2)cc1 (3D coordinates assigned)
[NH-]S(=O)(=O)c1ccc(S(=O)(=O)NCCN2CCOCC2)cc1 (nonaromatic ring conformer: 54.16053819419886 kcal/mol)

>  <smiles>  (20) 
NS(=O)(=O)c1ccc(S(=O)(=O)NCCN2CCOCC2)cc1

>  <score_type>  (20) 
oracle

>  <origin>  (20) 
adg

>  <m_score__min__energy>  (20) 
-10.23

>  <m_primary>  (20) 
energy

$$$$
20:0
     RDKit          3D

 38 39  0  0  0  0  0  0  0  0999 V2000
   58.8800   32.6110   55.2930 C   0  0  0  0  0  0  0  0  0  0  0  0
   58.7200   32.8770   53.9040 O   0  0  0  0  0  0  0  0  0  0  0  0
   58.1400   31.9620   53.0220 C   0  0  0  0  0  0  0  0  0  0  0  0
   56.9760   31.2900   53.3950 C   0  0  0  0  0  0  0  0  0  0  0  0
   56.4080   30.3810   52.4950 C   0  0  0  0  0  0  0  0  0  0  0  0
   55.1810   29.6020   52.8630 C   0  0  0  0  0  0  0  0  0  0  0  0
   53.9460   30.3930   52.5320 C   0  0  0  0  0  0  0  0  0  0  0  0
   53.0000   30.6800   53.5290 C   0  0  0  0  0  0  0  0  0  0  0  0
   51.8690   31.4460   53.2280 C   0  0  0  0  0  0  0  0  0  0  0  0
   51.6810   31.9400   51.9330 C   0  0  0  0  0  0  0  0  0  0  0  0
   50.5570   32.7000   51.6350 O   0  0  0  0  0  0  0  0  0  0  0  0
   52.6260   31.6680   50.9380 C   0  0  0  0  0  0  0  0  0  0  0  0
   53.7570   30.9030   51.2360 C   0  0  0  0  0  0  0  0  0  0  0  0
   57.0080   30.1640   51.2940 N   0  0  0  0  0  0  0  0  0  0  0  0
   58.1410   30.8230   50.9400 C   0  0  0  0  0  0  0  0  0  0  0  0
   58.7150   30.5650   49.6880 O   0  0  0  0  0  0  0  0  0  0  0  0
   59.1200   29.3050   49.2200 C   0  0  0  0  0  0  0  0  0  0  0  0
   58.4910   28.7300   48.2880 O   0  0  0  0  0  0  0  0  0  0  0  0
   60.2630   28.6640   49.8110 N   0  0  0  0  0  0  0  0  0  0  0  0
   60.9850   29.3390   50.8920 C   0  0  0  0  0  0  0  0  0  0  0  0
   60.6930   27.3480   49.3280 C   0  0  0  0  0  0  0  0  0  0  0  0
   58.6960   31.7160   51.8040 N   0  0  0  0  0  0  0  0  0  0  0  0
   58.3995   33.4098   55.8770 H   0  0  0  0  0  0  0  0  0  0  0  0
   58.4124   31.6459   55.5377 H   0  0  0  0  0  0  0  0  0  0  0  0
   59.9517   32.5718   55.5377 H   0  0  0  0  0  0  0  0  0  0  0  0
   56.5138   31.4708   54.3767 H   0  0  0  0  0  0  0  0  0  0  0  0
   55.1686   28.6565   52.3010 H   0  0  0  0  0  0  0  0  0  0  0  0
   55.1968   29.3960   53.9434 H   0  0  0  0  0  0  0  0  0  0  0  0
   53.1489   30.3010   54.5508 H   0  0  0  0  0  0  0  0  0  0  0  0
   51.1264   31.6602   54.0108 H   0  0  0  0  0  0  0  0  0  0  0  0
   52.4787   32.0568   49.9196 H   0  0  0  0  0  0  0  0  0  0  0  0
   54.5023   30.6992   50.4531 H   0  0  0  0  0  0  0  0  0  0  0  0
   60.6066   28.9853   51.8624 H   0  0  0  0  0  0  0  0  0  0  0  0
   62.0587   29.1132   50.8127 H   0  0  0  0  0  0  0  0  0  0  0  0
   60.8319   30.4254   50.8127 H   0  0  0  0  0  0  0  0  0  0  0  0
   60.9066   26.6942   50.1864 H   0  0  0  0  0  0  0  0  0  0  0  0
   59.8937   26.9023   48.7176 H   0  0  0  0  0  0  0  0  0  0  0  0
   61.6012   27.4602   48.7176 H   0  0  0  0  0  0  0  0  0  0  0  0
  1  2  1  0
  2  3  1  0
  3  4  2  0
  4  5  1  0
  5  6  1  0
  6  7  1  0
  7  8  2  0
  8  9  1  0
  9 10  2  0
 10 11  1  0
 10 12  1  0
 12 13  2  0
  5 14  2  0
 14 15  1  0
 15 16  1  0
 16 17  1  0
 17 18  2  0
 17 19  1  0
 19 20  1  0
 19 21  1  0
 15 22  2  0
 22  3  1  0
 13  7  1  0
  1 23  1  0
  1 24  1  0
  1 25  1  0
  4 26  1  0
  6 27  1  0
  6 28  1  0
  8 29  1  0
  9 30  1  0
 12 31  1  0
 13 32  1  0
 20 33  1  0
 20 34  1  0
 20 35  1  0
 21 36  1  0
 21 37  1  0
 21 38  1  0
M  CHG  1  11  -1
M  END
>  <UniqueID>  (21) 
20

>  <SMILES>  (21) 
COc1cc(Cc2ccc([O-])cc2)nc(OC(=O)N(C)C)n1

>  <Energy>  (21) 
32.73068458274809

>  <Genealogy>  (21) 
COc1cc(Cc2ccc([O-])cc2)nc(OC(=O)N(C)C)n1 (protonated)
COc1cc(Cc2ccc([O-])cc2)nc(OC(=O)N(C)C)n1 (3D coordinates assigned)
COc1cc(Cc2ccc([O-])cc2)nc(OC(=O)N(C)C)n1 (optimized conformer: 32.73068458274809 kcal/mol)

>  <smiles>  (21) 
COc1cc(Cc2ccc(O)cc2)nc(OC(=O)N(C)C)n1

>  <score_type>  (21) 
oracle

>  <origin>  (21) 
adg

>  <m_score__min__energy>  (21) 
-10.08

>  <m_primary>  (21) 
energy

$$$$
21:0
     RDKit          3D

 32 33  0  0  0  0  0  0  0  0999 V2000
   55.4690   29.6930   44.8190 O   0  0  0  0  0  0  0  0  0  0  0  0
   56.6940   29.8990   45.0250 C   0  0  0  0  0  0  0  0  0  0  0  0
   57.5180   28.7960   45.6390 C   0  0  0  0  0  0  0  0  0  0  0  0
   57.4030   27.4880   44.8460 C   0  0  0  0  0  0  0  0  0  0  0  0
   57.2450   26.2900   45.7560 C   0  0  0  0  0  0  0  0  0  0  0  0
   55.9880   25.9300   46.2730 C   0  0  0  0  0  0  0  0  0  0  0  0
   54.8580   26.6900   45.9940 O   0  0  0  0  0  0  0  0  0  0  0  0
   55.8660   24.8260   47.0550 N   0  0  0  0  0  0  0  0  0  0  0  0
   56.9400   24.0510   47.3480 C   0  0  0  0  0  0  0  0  0  0  0  0
   56.8020   23.0330   48.0740 O   0  0  0  0  0  0  0  0  0  0  0  0
   58.1630   24.3700   46.8540 N   0  0  0  0  0  0  0  0  0  0  0  0
   58.3410   25.4620   46.0670 C   0  0  0  0  0  0  0  0  0  0  0  0
   59.4900   25.7190   45.6190 O   0  0  0  0  0  0  0  0  0  0  0  0
   57.2550   31.1570   44.6270 N   0  0  0  0  0  0  0  0  0  0  0  0
   56.9330   32.4670   45.1880 C   0  0  0  0  0  0  0  0  0  0  0  0
   58.1800   33.1880   45.6260 C   0  0  0  0  0  0  0  0  0  0  0  0
   58.3670   34.5410   45.2970 C   0  0  0  0  0  0  0  0  0  0  0  0
   59.5350   35.2060   45.6870 C   0  0  0  0  0  0  0  0  0  0  0  0
   60.5260   34.5240   46.3990 C   0  0  0  0  0  0  0  0  0  0  0  0
   60.3540   33.1730   46.7170 C   0  0  0  0  0  0  0  0  0  0  0  0
   61.7110   32.2390   47.6830 Br  0  0  0  0  0  0  0  0  0  0  0  0
   59.1890   32.5040   46.3260 C   0  0  0  0  0  0  0  0  0  0  0  0
   58.5725   29.1085   45.6588 H   0  0  0  0  0  0  0  0  0  0  0  0
   57.1399   28.6131   46.6557 H   0  0  0  0  0  0  0  0  0  0  0  0
   56.5272   27.5495   44.1833 H   0  0  0  0  0  0  0  0  0  0  0  0
   58.3291   27.3572   44.2671 H   0  0  0  0  0  0  0  0  0  0  0  0
   56.4191   33.0689   44.4241 H   0  0  0  0  0  0  0  0  0  0  0  0
   56.2853   32.3228   46.0653 H   0  0  0  0  0  0  0  0  0  0  0  0
   57.5927   35.0795   44.7309 H   0  0  0  0  0  0  0  0  0  0  0  0
   59.6735   36.2672   45.4328 H   0  0  0  0  0  0  0  0  0  0  0  0
   61.4410   35.0499   46.7091 H   0  0  0  0  0  0  0  0  0  0  0  0
   59.0621   31.4383   46.5674 H   0  0  0  0  0  0  0  0  0  0  0  0
  1  2  2  0
  2  3  1  0
  3  4  1  0
  4  5  1  0
  5  6  2  0
  6  7  1  0
  6  8  1  0
  8  9  1  0
  9 10  2  0
  9 11  1  0
 11 12  1  0
 12 13  2  0
  2 14  1  0
 14 15  1  0
 15 16  1  0
 16 17  2  0
 17 18  1  0
 18 19  2  0
 19 20  1  0
 20 21  1  0
 20 22  2  0
 12  5  1  0
 22 16  1  0
  3 23  1  0
  3 24  1  0
  4 25  1  0
  4 26  1  0
 15 27  1  0
 15 28  1  0
 17 29  1  0
 18 30  1  0
 19 31  1  0
 22 32  1  0
M  CHG  4   7  -1   8  -1  11  -1  14  -1
M  END
>  <UniqueID>  (22) 
21

>  <SMILES>  (22) 
O=C(CCc1c([O-])[n-]c(=O)[n-]c1=O)[N-]Cc1cccc(Br)c1

>  <Energy>  (22) 
29.412437390317887

>  <Genealogy>  (22) 
O=C(CCc1c([O-])[n-]c(=O)[n-]c1=O)[N-]Cc1cccc(Br)c1 (protonated)
O=C(CCc1c([O-])[n-]c(=O)[n-]c1=O)[N-]Cc1cccc(Br)c1 (3D coordinates assigned)
O=C(CCc1c([O-])[n-]c(=O)[n-]c1=O)[N-]Cc1cccc(Br)c1 (optimized conformer: 29.412437390317887 kcal/mol)

>  <smiles>  (22) 
O=C(CCc1c(O)[nH]c(=O)[nH]c1=O)NCc1cccc(Br)c1

>  <score_type>  (22) 
oracle

>  <origin>  (22) 
adg

>  <m_score__min__energy>  (22) 
-17.039999999999999

>  <m_primary>  (22) 
energy

$$$$
22:0
     RDKit          3D

 49 51  0  0  0  0  0  0  0  0999 V2000
   61.2850   31.1660   47.2070 C   0  0  0  0  0  0  0  0  0  0  0  0
   61.4420   32.4330   47.9410 N   0  0  0  0  0  0  0  0  0  0  0  0
   62.1760   33.4020   47.1210 C   0  0  0  0  0  0  0  0  0  0  0  0
   59.8660   33.0770   48.3350 S   0  0  0  0  0  0  0  0  0  0  0  0
   60.0000   34.4480   48.9380 O   0  0  0  0  0  0  0  0  0  0  0  0
   59.1770   32.1820   49.3290 O   0  0  0  0  0  0  0  0  0  0  0  0
   58.8890   33.1550   46.8710 C   0  0  0  0  0  0  0  0  0  0  0  0
   58.9090   34.2970   46.0600 C   0  0  0  0  0  0  0  0  0  0  0  0
   58.1830   34.3210   44.8680 C   0  0  0  0  0  0  0  0  0  0  0  0
   57.4300   33.2100   44.4780 C   0  0  0  0  0  0  0  0  0  0  0  0
   57.3820   32.0630   45.2980 C   0  0  0  0  0  0  0  0  0  0  0  0
   56.6520   30.8710   44.9520 N   0  0  0  0  0  0  0  0  0  0  0  0
   57.1040   29.6720   44.3070 C   0  0  0  0  0  0  0  0  0  0  0  0
   56.6550   29.3360   43.1820 O   0  0  0  0  0  0  0  0  0  0  0  0
   58.0720   28.7870   44.9930 C   0  0  0  0  0  0  0  0  0  0  0  0
   59.4450   29.0740   44.8740 C   0  0  0  0  0  0  0  0  0  0  0  0
   60.4040   28.2190   45.4210 C   0  0  0  0  0  0  0  0  0  0  0  0
   60.0090   27.0640   46.0910 C   0  0  0  0  0  0  0  0  0  0  0  0
   58.6530   26.7730   46.2430 C   0  0  0  0  0  0  0  0  0  0  0  0
   57.6740   27.6380   45.7320 C   0  0  0  0  0  0  0  0  0  0  0  0
   56.3000   27.3150   46.0060 N   0  0  0  0  0  0  0  0  0  0  0  0
   55.6930   26.0150   45.9930 C   0  0  0  0  0  0  0  0  0  0  0  0
   54.4360   25.9390   45.9650 O   0  0  0  0  0  0  0  0  0  0  0  0
   56.4740   24.7640   46.0250 C   0  0  0  0  0  0  0  0  0  0  0  0
   56.7090   24.0930   47.1620 C   0  0  0  0  0  0  0  0  0  0  0  0
   57.3970   22.8740   47.1210 O   0  0  0  0  0  0  0  0  0  0  0  0
   57.6480   22.1970   45.8870 C   0  0  0  0  0  0  0  0  0  0  0  0
   57.9700   23.2200   44.7980 C   0  0  0  0  0  0  0  0  0  0  0  0
   57.0000   24.2690   44.8230 O   0  0  0  0  0  0  0  0  0  0  0  0
   58.1240   32.0490   46.4870 C   0  0  0  0  0  0  0  0  0  0  0  0
   61.1823   30.3376   47.9233 H   0  0  0  0  0  0  0  0  0  0  0  0
   60.3864   31.2175   46.5747 H   0  0  0  0  0  0  0  0  0  0  0  0
   62.1690   30.9966   46.5747 H   0  0  0  0  0  0  0  0  0  0  0  0
   62.7097   34.1066   47.7757 H   0  0  0  0  0  0  0  0  0  0  0  0
   62.9004   32.8708   46.4861 H   0  0  0  0  0  0  0  0  0  0  0  0
   61.4685   33.9555   46.4861 H   0  0  0  0  0  0  0  0  0  0  0  0
   59.4974   35.1757   46.3628 H   0  0  0  0  0  0  0  0  0  0  0  0
   58.2036   35.2186   44.2325 H   0  0  0  0  0  0  0  0  0  0  0  0
   56.8734   33.2300   43.5294 H   0  0  0  0  0  0  0  0  0  0  0  0
   59.7663   29.9827   44.3438 H   0  0  0  0  0  0  0  0  0  0  0  0
   61.4731   28.4583   45.3225 H   0  0  0  0  0  0  0  0  0  0  0  0
   60.7669   26.3802   46.5009 H   0  0  0  0  0  0  0  0  0  0  0  0
   58.3485   25.8561   46.7688 H   0  0  0  0  0  0  0  0  0  0  0  0
   56.3624   24.4989   48.1239 H   0  0  0  0  0  0  0  0  0  0  0  0
   58.5009   21.5136   46.0112 H   0  0  0  0  0  0  0  0  0  0  0  0
   56.7557   21.6229   45.5969 H   0  0  0  0  0  0  0  0  0  0  0  0
   58.9701   23.6420   44.9764 H   0  0  0  0  0  0  0  0  0  0  0  0
   57.9484   22.7261   43.8153 H   0  0  0  0  0  0  0  0  0  0  0  0
   58.1043   31.1550   47.1275 H   0  0  0  0  0  0  0  0  0  0  0  0
  1  2  1  0
  2  3  1  0
  2  4  1  0
  4  5  2  0
  4  6  2  0
  4  7  1  0
  7  8  2  0
  8  9  1  0
  9 10  2  0
 10 11  1  0
 11 12  1  0
 12 13  1  0
 13 14  2  0
 13 15  1  0
 15 16  2  0
 16 17  1  0
 17 18  2  0
 18 19  1  0
 19 20  2  0
 20 21  1  0
 21 22  1  0
 22 23  2  0
 22 24  1  0
 24 25  2  0
 25 26  1  0
 26 27  1  0
 27 28  1  0
 28 29  1  0
 11 30  2  0
 30  7  1  0
 20 15  1  0
 29 24  1  0
  1 31  1  0
  1 32  1  0
  1 33  1  0
  3 34  1  0
  3 35  1  0
  3 36  1  0
  8 37  1  0
  9 38  1  0
 10 39  1  0
 16 40  1  0
 17 41  1  0
 18 42  1  0
 19 43  1  0
 25 44  1  0
 27 45  1  0
 27 46  1  0
 28 47  1  0
 28 48  1  0
 30 49  1  0
M  CHG  2  12  -1  21  -1
M  END
>  <UniqueID>  (23) 
22

>  <SMILES>  (23) 
CN(C)S(=O)(=O)c1cccc([N-]C(=O)c2ccccc2[N-]C(=O)C2=COCCO2)c1

>  <Energy>  (23) 
63.59401643756

>  <Genealogy>  (23) 
CN(C)S(=O)(=O)c1cccc([N-]C(=O)c2ccccc2[N-]C(=O)C2=COCCO2)c1 (protonated)
CN(C)S(=O)(=O)c1cccc([N-]C(=O)c2ccccc2[N-]C(=O)C2=COCCO2)c1 (3D coordinates assigned)
CN(C)S(=O)(=O)c1cccc([N-]C(=O)c2ccccc2[N-]C(=O)C2=COCCO2)c1 (nonaromatic ring conformer: 63.59401643756 kcal/mol)

>  <smiles>  (23) 
CN(C)S(=O)(=O)c1cccc(NC(=O)c2ccccc2NC(=O)C2=COCCO2)c1

>  <score_type>  (23) 
oracle

>  <origin>  (23) 
adg

>  <m_score__min__energy>  (23) 
-12.76

>  <m_primary>  (23) 
energy

$$$$
23:0
     RDKit          3D

 39 41  0  0  0  0  0  0  0  0999 V2000
   57.1800   34.6630   44.8670 N   0  0  0  0  0  0  0  0  0  0  0  0
   58.5710   34.5980   45.1750 C   0  0  0  0  0  0  0  0  0  0  0  0
   59.3120   35.5740   44.8760 O   0  0  0  0  0  0  0  0  0  0  0  0
   59.1410   33.4010   45.8390 C   0  0  0  0  0  0  0  0  0  0  0  0
   60.3490   33.4910   46.5530 C   0  0  0  0  0  0  0  0  0  0  0  0
   60.8990   32.3640   47.1860 C   0  0  0  0  0  0  0  0  0  0  0  0
   62.1780   32.4700   47.9330 C   0  0  0  0  0  0  0  0  0  0  0  0
   63.1660   33.3890   47.5340 C   0  0  0  0  0  0  0  0  0  0  0  0
   64.3690   33.4900   48.2410 C   0  0  0  0  0  0  0  0  0  0  0  0
   64.5980   32.6740   49.3510 C   0  0  0  0  0  0  0  0  0  0  0  0
   63.6260   31.7570   49.7570 C   0  0  0  0  0  0  0  0  0  0  0  0
   62.4220   31.6540   49.0550 C   0  0  0  0  0  0  0  0  0  0  0  0
   60.2260   31.1340   47.0980 C   0  0  0  0  0  0  0  0  0  0  0  0
   59.0190   31.0220   46.3910 C   0  0  0  0  0  0  0  0  0  0  0  0
   58.3140   29.7180   46.3070 C   0  0  0  0  0  0  0  0  0  0  0  0
   58.6780   28.6530   47.1520 C   0  0  0  0  0  0  0  0  0  0  0  0
   58.0140   27.4260   47.0730 C   0  0  0  0  0  0  0  0  0  0  0  0
   56.9810   27.2400   46.1470 C   0  0  0  0  0  0  0  0  0  0  0  0
   56.1370   25.6980   46.0610 S   0  0  0  0  0  0  0  0  0  0  0  0
   54.4660   25.9730   45.7130 N   0  0  0  0  0  0  0  0  0  0  0  0
   56.2650   24.9730   47.3710 O   0  0  0  0  0  0  0  0  0  0  0  0
   56.7380   24.8460   44.9770 O   0  0  0  0  0  0  0  0  0  0  0  0
   56.6080   28.2970   45.3070 C   0  0  0  0  0  0  0  0  0  0  0  0
   57.2700   29.5260   45.3840 C   0  0  0  0  0  0  0  0  0  0  0  0
   58.4840   32.1610   45.7640 C   0  0  0  0  0  0  0  0  0  0  0  0
   56.4830   34.9550   45.5890 H   0  0  0  0  0  0  0  0  0  0  0  0
   60.8706   34.4574   46.6168 H   0  0  0  0  0  0  0  0  0  0  0  0
   62.9912   34.0330   46.6595 H   0  0  0  0  0  0  0  0  0  0  0  0
   65.1349   34.2125   47.9225 H   0  0  0  0  0  0  0  0  0  0  0  0
   65.5445   32.7536   49.9058 H   0  0  0  0  0  0  0  0  0  0  0  0
   63.8085   31.1146   50.6311 H   0  0  0  0  0  0  0  0  0  0  0  0
   61.6598   30.9309   49.3808 H   0  0  0  0  0  0  0  0  0  0  0  0
   60.6509   30.2466   47.5900 H   0  0  0  0  0  0  0  0  0  0  0  0
   59.4914   28.7875   47.8802 H   0  0  0  0  0  0  0  0  0  0  0  0
   58.3045   26.6024   47.7417 H   0  0  0  0  0  0  0  0  0  0  0  0
   54.1370   26.7140   46.3710 H   0  0  0  0  0  0  0  0  0  0  0  0
   55.7907   28.1595   44.5837 H   0  0  0  0  0  0  0  0  0  0  0  0
   56.9722   30.3491   44.7178 H   0  0  0  0  0  0  0  0  0  0  0  0
   57.5387   32.0805   45.2074 H   0  0  0  0  0  0  0  0  0  0  0  0
  1  2  1  0
  2  3  2  0
  2  4  1  0
  4  5  2  0
  5  6  1  0
  6  7  1  0
  7  8  2  0
  8  9  1  0
  9 10  2  0
 10 11  1  0
 11 12  2  0
  6 13  2  0
 13 14  1  0
 14 15  1  0
 15 16  2  0
 16 17  1  0
 17 18  2  0
 18 19  1  0
 19 20  1  0
 19 21  2  0
 19 22  2  0
 18 23  1  0
 23 24  2  0
 14 25  2  0
 25  4  1  0
 12  7  1  0
 24 15  1  0
  1 26  1  0
  5 27  1  0
  8 28  1  0
  9 29  1  0
 10 30  1  0
 11 31  1  0
 12 32  1  0
 13 33  1  0
 16 34  1  0
 17 35  1  0
 20 36  1  0
 23 37  1  0
 24 38  1  0
 25 39  1  0
M  CHG  2   1  -1  20  -1
M  END
>  <UniqueID>  (24) 
23

>  <SMILES>  (24) 
[NH-]C(=O)c1cc(-c2ccccc2)cc(-c2ccc(S([NH-])(=O)=O)cc2)c1

>  <Energy>  (24) 
52.47969785401406

>  <Genealogy>  (24) 
[NH-]C(=O)c1cc(-c2ccccc2)cc(-c2ccc(S([NH-])(=O)=O)cc2)c1 (protonated)
[NH-]C(=O)c1cc(-c2ccccc2)cc(-c2ccc(S([NH-])(=O)=O)cc2)c1 (3D coordinates assigned)
[NH-]C(=O)c1cc(-c2ccccc2)cc(-c2ccc(S([NH-])(=O)=O)cc2)c1 (optimized conformer: 52.47969785401406 kcal/mol)

>  <smiles>  (24) 
NC(=O)c1cc(-c2ccccc2)cc(-c2ccc(S(N)(=O)=O)cc2)c1

>  <score_type>  (24) 
oracle

>  <origin>  (24) 
adg

>  <m_score__min__energy>  (24) 
-12.140000000000001

>  <m_primary>  (24) 
energy

$$$$
24:0
     RDKit          3D

 61 64  0  0  1  0  0  0  0  0999 V2000
   62.8080   29.3330   52.2140 C   0  0  0  0  0  0  0  0  0  0  0  0
   62.4350   30.4620   51.4900 O   0  0  0  0  0  0  0  0  0  0  0  0
   63.2760   31.3150   50.8050 C   0  0  0  0  0  0  0  0  0  0  0  0
   64.6560   31.2610   50.8710 C   0  0  0  0  0  0  0  0  0  0  0  0
   65.4680   32.1340   50.1620 C   0  0  0  0  0  0  0  0  0  0  0  0
   64.8500   33.0950   49.3560 C   0  0  0  0  0  0  0  0  0  0  0  0
   63.4720   33.1810   49.2620 C   0  0  0  0  0  0  0  0  0  0  0  0
   62.7100   32.2840   49.9940 C   0  0  0  0  0  0  0  0  0  0  0  0
   61.3120   32.4260   49.9620 N   0  0  0  0  0  0  0  0  0  0  0  0
   60.4010   33.7150   49.3460 S   0  0  0  0  0  0  0  0  0  0  0  0
   59.4170   34.2460   50.3720 O   0  0  0  0  0  0  0  0  0  0  0  0
   61.4000   34.8320   49.0030 O   0  0  0  0  0  0  0  0  0  0  0  0
   59.5170   33.2910   47.9100 C   0  0  0  0  0  0  0  0  0  0  0  0
   59.6050   32.0080   47.4390 C   0  0  0  0  0  0  0  0  0  0  0  0
   58.9390   31.6680   46.2960 C   0  0  0  0  0  0  0  0  0  0  0  0
   58.1590   32.5470   45.5580 C   0  0  0  0  0  0  0  0  0  0  0  0
   57.5060   32.1340   44.3050 C   0  0  0  0  0  0  0  0  0  0  0  0
   57.8050   32.6260   43.1890 O   0  0  0  0  0  0  0  0  0  0  0  0
   56.4950   31.1190   44.4490 N   0  0  0  0  0  0  0  0  0  0  0  0
   56.8370   29.8710   44.6310 C   0  0  0  0  0  0  0  0  0  0  0  0
   57.6270   29.1350   43.8300 N   0  0  0  0  0  0  0  0  0  0  0  0
   57.7280   27.9430   44.3590 N   0  0  0  0  0  0  0  0  0  0  0  0
   56.9930   27.9120   45.5100 C   0  0  0  0  0  0  0  0  0  0  0  0
   56.9020   26.6970   46.3490 C   0  0  0  0  0  0  0  0  0  0  0  0
   56.6040   25.4900   45.5360 C   0  0  0  0  0  0  0  0  0  0  0  0
   57.6350   24.9920   44.7570 C   0  0  0  0  0  0  0  0  0  0  0  0
   57.4130   23.8700   43.9840 C   0  0  0  0  0  0  0  0  0  0  0  0
   56.1990   23.2250   43.9550 C   0  0  0  0  0  0  0  0  0  0  0  0
   55.8980   22.1120   43.2150 O   0  0  0  0  0  0  0  0  0  0  0  0
   56.7750   21.0360   43.0260 C   0  0  0  0  0  0  0  0  0  0  0  0
   55.1650   23.7520   44.7570 C   0  0  0  0  0  0  0  0  0  0  0  0
   53.9330   23.1120   44.7450 O   0  0  0  0  0  0  0  0  0  0  0  0
   52.7990   23.8280   45.1820 C   0  0  0  0  0  0  0  0  0  0  0  0
   55.3710   24.8710   45.5370 C   0  0  0  0  0  0  0  0  0  0  0  0
   56.4860   29.0900   45.6190 O   0  0  0  0  0  0  0  0  0  0  0  0
   58.0700   33.8440   46.0410 C   0  0  0  0  0  0  0  0  0  0  0  0
   58.7490   34.1800   47.1990 C   0  0  0  0  0  0  0  0  0  0  0  0
   62.7370   29.5478   53.2905 H   0  0  0  0  0  0  0  0  0  0  0  0
   62.1380   28.4978   51.9618 H   0  0  0  0  0  0  0  0  0  0  0  0
   63.8437   29.0613   51.9618 H   0  0  0  0  0  0  0  0  0  0  0  0
   65.1269   30.4983   51.5087 H   0  0  0  0  0  0  0  0  0  0  0  0
   66.5641   32.0722   50.2317 H   0  0  0  0  0  0  0  0  0  0  0  0
   65.4730   33.7983   48.7839 H   0  0  0  0  0  0  0  0  0  0  0  0
   62.9949   33.9398   48.6244 H   0  0  0  0  0  0  0  0  0  0  0  0
   60.7690   31.6140   50.3860 H   0  0  0  0  0  0  0  0  0  0  0  0
   60.2059   31.2590   47.9757 H   0  0  0  0  0  0  0  0  0  0  0  0
   59.0265   30.6317   45.9378 H   0  0  0  0  0  0  0  0  0  0  0  0
   58.0960   29.4100   42.9370 H   0  0  0  0  0  0  0  0  0  0  0  0
   57.8605   26.5495   46.8682 H   0  0  0  0  0  0  0  0  0  0  0  0
   56.0819   26.8373   47.0685 H   0  0  0  0  0  0  0  0  0  0  0  0
   58.6186   25.4844   44.7542 H   0  0  0  0  0  0  0  0  0  0  0  0
   58.2367   23.4780   43.3693 H   0  0  0  0  0  0  0  0  0  0  0  0
   57.0929   20.6459   44.0041 H   0  0  0  0  0  0  0  0  0  0  0  0
   56.2642   20.2412   42.4627 H   0  0  0  0  0  0  0  0  0  0  0  0
   57.6565   21.3760   42.4627 H   0  0  0  0  0  0  0  0  0  0  0  0
   52.7759   23.8426   46.2817 H   0  0  0  0  0  0  0  0  0  0  0  0
   52.8479   24.8593   44.8026 H   0  0  0  0  0  0  0  0  0  0  0  0
   51.8889   23.3405   44.8026 H   0  0  0  0  0  0  0  0  0  0  0  0
   54.5546   25.2686   46.1579 H   0  0  0  0  0  0  0  0  0  0  0  0
   57.4674   34.5959   45.5104 H   0  0  0  0  0  0  0  0  0  0  0  0
   58.6694   35.2128   47.5692 H   0  0  0  0  0  0  0  0  0  0  0  0
  1  2  1  0
  2  3  1  0
  3  4  2  0
  4  5  1  0
  5  6  2  0
  6  7  1  0
  7  8  2  0
  8  9  1  0
  9 10  1  0
 10 11  2  0
 10 12  2  0
 10 13  1  0
 13 14  2  0
 14 15  1  0
 15 16  2  0
 16 17  1  0
 17 18  2  0
 17 19  1  0
 19 20  2  0
 20 21  1  0
 21 22  1  0
 22 23  2  0
 23 24  1  0
 24 25  1  0
 25 26  2  0
 26 27  1  0
 27 28  2  0
 28 29  1  0
 29 30  1  0
 28 31  1  0
 31 32  1  0
 32 33  1  0
 31 34  2  0
 23 35  1  0
 16 36  1  0
 36 37  2  0
  8  3  1  0
 37 13  1  0
 35 20  1  0
 34 25  1  0
  1 38  1  0
  1 39  1  0
  1 40  1  0
  4 41  1  0
  5 42  1  0
  6 43  1  0
  7 44  1  0
  9 45  1  0
 14 46  1  0
 15 47  1  0
 21 48  1  0
 24 49  1  0
 24 50  1  0
 26 51  1  0
 27 52  1  0
 30 53  1  0
 30 54  1  0
 30 55  1  0
 33 56  1  0
 33 57  1  0
 33 58  1  0
 34 59  1  0
 36 60  1  0
 37 61  1  0
M  END
>  <smiles>  (25) 
COc1ccccc1NS(=O)(=O)c1ccc(C(=O)N=c2[nH]nc(Cc3ccc(OC)c(OC)c3)o2)cc1

>  <score_type>  (25) 
oracle

>  <origin>  (25) 
adg

>  <m_score__min__energy>  (25) 
-10.289999999999999

>  <m_primary>  (25) 
energy

$$$$
25:0
     RDKit          3D

 40 41  0  0  0  0  0  0  0  0999 V2000
   55.1540   29.2020   44.8320 N   0  0  0  0  0  0  0  0  0  0  0  0
   56.4600   30.1750   44.2530 S   0  0  0  0  0  0  0  0  0  0  0  0
   56.4710   30.1230   42.7510 O   0  0  0  0  0  0  0  0  0  0  0  0
   56.2680   31.5960   44.7020 O   0  0  0  0  0  0  0  0  0  0  0  0
   57.9820   29.5600   44.8880 C   0  0  0  0  0  0  0  0  0  0  0  0
   58.5160   28.3610   44.4030 C   0  0  0  0  0  0  0  0  0  0  0  0
   59.7230   27.8760   44.9100 C   0  0  0  0  0  0  0  0  0  0  0  0
   60.3970   28.5820   45.9110 C   0  0  0  0  0  0  0  0  0  0  0  0
   59.8720   29.7850   46.4160 C   0  0  0  0  0  0  0  0  0  0  0  0
   60.5900   30.5060   47.4980 C   0  0  0  0  0  0  0  0  0  0  0  0
   59.9730   30.7880   48.5630 O   0  0  0  0  0  0  0  0  0  0  0  0
   61.9620   30.9110   47.3490 N   0  0  0  0  0  0  0  0  0  0  0  0
   62.6770   31.6400   48.3960 C   0  0  0  0  0  0  0  0  0  0  0  0
   63.5400   32.7410   47.7810 C   0  0  0  0  0  0  0  0  0  0  0  0
   62.5250   33.8040   46.6880 S   0  0  0  0  0  0  0  0  0  0  0  0
   61.0590   33.9190   47.7740 C   0  0  0  0  0  0  0  0  0  0  0  0
   59.7880   33.9480   46.9640 C   0  0  0  0  0  0  0  0  0  0  0  0
   59.8000   34.4990   45.6700 C   0  0  0  0  0  0  0  0  0  0  0  0
   58.6250   34.5660   44.9170 C   0  0  0  0  0  0  0  0  0  0  0  0
   57.4250   34.0920   45.4520 C   0  0  0  0  0  0  0  0  0  0  0  0
   57.4010   33.5380   46.7330 C   0  0  0  0  0  0  0  0  0  0  0  0
   58.5750   33.4630   47.4900 C   0  0  0  0  0  0  0  0  0  0  0  0
   58.5220   32.9240   48.7350 F   0  0  0  0  0  0  0  0  0  0  0  0
   58.6660   30.2770   45.8770 C   0  0  0  0  0  0  0  0  0  0  0  0
   55.5100   28.2230   44.9000 H   0  0  0  0  0  0  0  0  0  0  0  0
   57.9839   27.7996   43.6209 H   0  0  0  0  0  0  0  0  0  0  0  0
   60.1443   26.9371   44.5214 H   0  0  0  0  0  0  0  0  0  0  0  0
   61.3466   28.1930   46.3072 H   0  0  0  0  0  0  0  0  0  0  0  0
   62.4190   30.8630   46.4120 H   0  0  0  0  0  0  0  0  0  0  0  0
   61.9487   32.0922   49.0853 H   0  0  0  0  0  0  0  0  0  0  0  0
   63.3263   30.9387   48.9406 H   0  0  0  0  0  0  0  0  0  0  0  0
   63.9731   33.3547   48.5846 H   0  0  0  0  0  0  0  0  0  0  0  0
   64.3425   32.2786   47.1875 H   0  0  0  0  0  0  0  0  0  0  0  0
   61.0386   33.0471   48.4444 H   0  0  0  0  0  0  0  0  0  0  0  0
   61.1256   34.8504   48.3554 H   0  0  0  0  0  0  0  0  0  0  0  0
   60.7415   34.8800   45.2476 H   0  0  0  0  0  0  0  0  0  0  0  0
   58.6450   34.9920   43.9030 H   0  0  0  0  0  0  0  0  0  0  0  0
   56.4980   34.1553   44.8633 H   0  0  0  0  0  0  0  0  0  0  0  0
   56.4557   33.1591   47.1487 H   0  0  0  0  0  0  0  0  0  0  0  0
   58.2585   31.2333   46.2368 H   0  0  0  0  0  0  0  0  0  0  0  0
  1  2  1  0
  2  3  2  0
  2  4  2  0
  2  5  1  0
  5  6  2  0
  6  7  1  0
  7  8  2  0
  8  9  1  0
  9 10  1  0
 10 11  2  0
 10 12  1  0
 12 13  1  0
 13 14  1  0
 14 15  1  0
 15 16  1  0
 16 17  1  0
 17 18  2  0
 18 19  1  0
 19 20  2  0
 20 21  1  0
 21 22  2  0
 22 23  1  0
  9 24  2  0
 24  5  1  0
 22 17  1  0
  1 25  1  0
  6 26  1  0
  7 27  1  0
  8 28  1  0
 12 29  1  0
 13 30  1  0
 13 31  1  0
 14 32  1  0
 14 33  1  0
 16 34  1  0
 16 35  1  0
 18 36  1  0
 19 37  1  0
 20 38  1  0
 21 39  1  0
 24 40  1  0
M  CHG  1   1  -1
M  END
>  <UniqueID>  (26) 
24

>  <SMILES>  (26) 
[NH-]S(=O)(=O)c1cccc(C(=O)NCCSCc2ccccc2F)c1

>  <Energy>  (26) 
31.73095988991101

>  <Genealogy>  (26) 
[NH-]S(=O)(=O)c1cccc(C(=O)NCCSCc2ccccc2F)c1 (protonated)
[NH-]S(=O)(=O)c1cccc(C(=O)NCCSCc2ccccc2F)c1 (3D coordinates assigned)
[NH-]S(=O)(=O)c1cccc(C(=O)NCCSCc2ccccc2F)c1 (optimized conformer: 31.73095988991101 kcal/mol)

>  <smiles>  (26) 
NS(=O)(=O)c1cccc(C(=O)NCCSCc2ccccc2F)c1

>  <score_type>  (26) 
oracle

>  <origin>  (26) 
adg

>  <m_score__min__energy>  (26) 
-12.02

>  <m_primary>  (26) 
energy

$$$$
26:0
     RDKit          3D

 44 46  0  0  0  0  0  0  0  0999 V2000
   56.2170   23.7680   43.0320 C   0  0  0  0  0  0  0  0  0  0  0  0
   56.7700   22.2190   43.7130 S   0  0  0  0  0  0  0  0  0  0  0  0
   57.3680   21.3740   42.6210 O   0  0  0  0  0  0  0  0  0  0  0  0
   55.5890   21.4970   44.3060 O   0  0  0  0  0  0  0  0  0  0  0  0
   57.9800   22.5000   44.9960 C   0  0  0  0  0  0  0  0  0  0  0  0
   57.7110   21.6010   46.2150 C   0  0  0  0  0  0  0  0  0  0  0  0
   57.1400   22.3070   47.3830 N   0  0  0  0  0  0  0  0  0  0  0  0
   55.7480   21.9420   47.7530 C   0  0  0  0  0  0  0  0  0  0  0  0
   54.6610   22.7000   46.9550 C   0  0  0  0  0  0  0  0  0  0  0  0
   55.0930   24.0950   46.6360 C   0  0  0  0  0  0  0  0  0  0  0  0
   54.3850   24.9950   45.9250 N   0  0  0  0  0  0  0  0  0  0  0  0
   55.1670   26.0420   45.6960 N   0  0  0  0  0  0  0  0  0  0  0  0
   56.3730   25.8120   46.2590 C   0  0  0  0  0  0  0  0  0  0  0  0
   57.5260   26.7180   46.1180 C   0  0  0  0  0  0  0  0  0  0  0  0
   58.6890   26.2310   46.1260 O   0  0  0  0  0  0  0  0  0  0  0  0
   57.3500   28.1320   45.9410 N   0  0  0  0  0  0  0  0  0  0  0  0
   56.3610   28.6550   44.9980 C   0  0  0  0  0  0  0  0  0  0  0  0
   56.9320   29.8940   44.2970 C   0  0  0  0  0  0  0  0  0  0  0  0
   57.4000   30.8370   45.2450 O   0  0  0  0  0  0  0  0  0  0  0  0
   58.5000   30.2950   45.9560 C   0  0  0  0  0  0  0  0  0  0  0  0
   58.0720   29.0810   46.7900 C   0  0  0  0  0  0  0  0  0  0  0  0
   56.3580   24.5650   46.8540 C   0  0  0  0  0  0  0  0  0  0  0  0
   57.4490   23.7500   47.4750 C   0  0  0  0  0  0  0  0  0  0  0  0
   55.9697   24.4607   43.8499 H   0  0  0  0  0  0  0  0  0  0  0  0
   57.0156   24.2022   42.4126 H   0  0  0  0  0  0  0  0  0  0  0  0
   55.3239   23.5983   42.4126 H   0  0  0  0  0  0  0  0  0  0  0  0
   58.9820   22.2785   44.6000 H   0  0  0  0  0  0  0  0  0  0  0  0
   57.9148   23.5508   45.3147 H   0  0  0  0  0  0  0  0  0  0  0  0
   57.0064   20.8125   45.9118 H   0  0  0  0  0  0  0  0  0  0  0  0
   58.6867   21.2059   46.5342 H   0  0  0  0  0  0  0  0  0  0  0  0
   55.6158   20.8641   47.5781 H   0  0  0  0  0  0  0  0  0  0  0  0
   55.6177   22.2212   48.8090 H   0  0  0  0  0  0  0  0  0  0  0  0
   54.4659   22.1619   46.0156 H   0  0  0  0  0  0  0  0  0  0  0  0
   53.7512   22.7513   47.5712 H   0  0  0  0  0  0  0  0  0  0  0  0
   56.1253   27.8851   44.2485 H   0  0  0  0  0  0  0  0  0  0  0  0
   55.4444   28.9293   45.5408 H   0  0  0  0  0  0  0  0  0  0  0  0
   57.7670   29.5891   43.6490 H   0  0  0  0  0  0  0  0  0  0  0  0
   56.1346   30.3603   43.6997 H   0  0  0  0  0  0  0  0  0  0  0  0
   59.2737   29.9838   45.2387 H   0  0  0  0  0  0  0  0  0  0  0  0
   58.8919   31.0661   46.6356 H   0  0  0  0  0  0  0  0  0  0  0  0
   58.9637   28.5921   47.2093 H   0  0  0  0  0  0  0  0  0  0  0  0
   57.4152   29.4127   47.6077 H   0  0  0  0  0  0  0  0  0  0  0  0
   58.3940   23.9512   46.9492 H   0  0  0  0  0  0  0  0  0  0  0  0
   57.5366   24.0261   48.5362 H   0  0  0  0  0  0  0  0  0  0  0  0
  1  2  1  0
  2  3  2  0
  2  4  2  0
  2  5  1  0
  5  6  1  0
  6  7  1  0
  7  8  1  0
  8  9  1  0
  9 10  1  0
 10 11  2  0
 11 12  1  0
 12 13  1  0
 13 14  1  0
 14 15  2  0
 14 16  1  0
 16 17  1  0
 17 18  1  0
 18 19  1  0
 19 20  1  0
 20 21  1  0
 13 22  2  0
 22 23  1  0
 23  7  1  0
 22 10  1  0
 21 16  1  0
  1 24  1  0
  1 25  1  0
  1 26  1  0
  5 27  1  0
  5 28  1  0
  6 29  1  0
  6 30  1  0
  8 31  1  0
  8 32  1  0
  9 33  1  0
  9 34  1  0
 17 35  1  0
 17 36  1  0
 18 37  1  0
 18 38  1  0
 20 39  1  0
 20 40  1  0
 21 41  1  0
 21 42  1  0
 23 43  1  0
 23 44  1  0
M  CHG  1  12  -1
M  END
>  <UniqueID>  (27) 
25

>  <SMILES>  (27) 
CS(=O)(=O)CCN1CCc2n[n-]c(C(=O)N3CCOCC3)c2C1

>  <Energy>  (27) 
84.5129766004728

>  <Genealogy>  (27) 
CS(=O)(=O)CCN1CCc2n[n-]c(C(=O)N3CCOCC3)c2C1 (protonated)
CS(=O)(=O)CCN1CCc2n[n-]c(C(=O)N3CCOCC3)c2C1 (3D coordinates assigned)
CS(=O)(=O)CCN1CCc2n[n-]c(C(=O)N3CCOCC3)c2C1 (nonaromatic ring conformer: 84.5129766004728 kcal/mol)

>  <smiles>  (27) 
CS(=O)(=O)CCN1CCc2n[nH]c(C(=O)N3CCOCC3)c2C1

>  <score_type>  (27) 
oracle

>  <origin>  (27) 
adg

>  <m_score__min__energy>  (27) 
-10.16

>  <m_primary>  (27) 
energy

$$$$
27:0
     RDKit          3D

 55 58  0  0  0  0  0  0  0  0999 V2000
   58.1630   25.6430   47.1900 C   0  0  0  0  0  0  0  0  0  0  0  0
   58.4330   27.0160   46.6440 C   0  0  0  0  0  0  0  0  0  0  0  0
   59.6970   27.5930   46.7880 C   0  0  0  0  0  0  0  0  0  0  0  0
   59.9350   28.8770   46.3040 C   0  0  0  0  0  0  0  0  0  0  0  0
   58.8970   29.5900   45.6930 C   0  0  0  0  0  0  0  0  0  0  0  0
   59.1340   30.8410   45.2250 N   0  0  0  0  0  0  0  0  0  0  0  0
   58.1430   31.5510   44.6350 C   0  0  0  0  0  0  0  0  0  0  0  0
   58.4660   33.2010   44.0210 S   0  0  0  0  0  0  0  0  0  0  0  0
   57.4230   34.0320   45.2640 C   0  0  0  0  0  0  0  0  0  0  0  0
   57.8610   33.6580   46.6440 C   0  0  0  0  0  0  0  0  0  0  0  0
   57.0390   33.1270   47.4410 O   0  0  0  0  0  0  0  0  0  0  0  0
   59.2110   33.9080   47.0510 N   0  0  0  0  0  0  0  0  0  0  0  0
   60.0710   32.9000   47.5990 C   0  0  0  0  0  0  0  0  0  0  0  0
   59.5310   31.9780   48.5010 C   0  0  0  0  0  0  0  0  0  0  0  0
   60.3200   30.9440   49.0220 C   0  0  0  0  0  0  0  0  0  0  0  0
   59.6020   29.7410   50.0930 S   0  0  0  0  0  0  0  0  0  0  0  0
   58.2600   29.3300   49.5510 O   0  0  0  0  0  0  0  0  0  0  0  0
   60.4890   28.5270   50.1040 O   0  0  0  0  0  0  0  0  0  0  0  0
   59.4480   30.3390   51.7360 N   0  0  0  0  0  0  0  0  0  0  0  0
   58.9190   29.2990   52.6450 C   0  0  0  0  0  0  0  0  0  0  0  0
   57.3790   29.3350   52.7580 C   0  0  0  0  0  0  0  0  0  0  0  0
   56.8040   29.9560   51.6290 O   0  0  0  0  0  0  0  0  0  0  0  0
   57.1500   31.3290   51.5980 C   0  0  0  0  0  0  0  0  0  0  0  0
   58.6580   31.5780   51.8250 C   0  0  0  0  0  0  0  0  0  0  0  0
   61.6660   30.8450   48.6490 C   0  0  0  0  0  0  0  0  0  0  0  0
   62.2230   31.7840   47.7800 C   0  0  0  0  0  0  0  0  0  0  0  0
   61.4440   32.8320   47.2660 C   0  0  0  0  0  0  0  0  0  0  0  0
   62.0920   33.8470   46.3600 C   0  0  0  0  0  0  0  0  0  0  0  0
   56.9060   31.0160   44.5230 N   0  0  0  0  0  0  0  0  0  0  0  0
   56.6480   29.7680   44.9820 C   0  0  0  0  0  0  0  0  0  0  0  0
   55.4820   29.3020   44.8560 O   0  0  0  0  0  0  0  0  0  0  0  0
   57.6450   29.0310   45.5720 N   0  0  0  0  0  0  0  0  0  0  0  0
   57.4080   27.7610   46.0390 C   0  0  0  0  0  0  0  0  0  0  0  0
   58.1698   25.6777   48.2894 H   0  0  0  0  0  0  0  0  0  0  0  0
   57.1795   25.2962   46.8402 H   0  0  0  0  0  0  0  0  0  0  0  0
   58.9420   24.9496   46.8402 H   0  0  0  0  0  0  0  0  0  0  0  0
   60.5041   27.0334   47.2835 H   0  0  0  0  0  0  0  0  0  0  0  0
   60.9334   29.3284   46.4014 H   0  0  0  0  0  0  0  0  0  0  0  0
   57.5083   35.1216   45.1392 H   0  0  0  0  0  0  0  0  0  0  0  0
   56.3787   33.7167   45.1227 H   0  0  0  0  0  0  0  0  0  0  0  0
   58.4772   32.0653   48.8043 H   0  0  0  0  0  0  0  0  0  0  0  0
   59.2212   28.3121   52.2647 H   0  0  0  0  0  0  0  0  0  0  0  0
   59.3307   29.4918   53.6466 H   0  0  0  0  0  0  0  0  0  0  0  0
   56.9997   28.3053   52.8345 H   0  0  0  0  0  0  0  0  0  0  0  0
   57.1065   29.9133   53.6531 H   0  0  0  0  0  0  0  0  0  0  0  0
   56.8713   31.7384   50.6158 H   0  0  0  0  0  0  0  0  0  0  0  0
   56.6083   31.8229   52.4181 H   0  0  0  0  0  0  0  0  0  0  0  0
   59.0189   32.2833   51.0620 H   0  0  0  0  0  0  0  0  0  0  0  0
   58.7831   31.9850   52.8392 H   0  0  0  0  0  0  0  0  0  0  0  0
   62.2856   30.0253   49.0418 H   0  0  0  0  0  0  0  0  0  0  0  0
   63.2823   31.7020   47.4953 H   0  0  0  0  0  0  0  0  0  0  0  0
   62.5852   34.6195   46.9683 H   0  0  0  0  0  0  0  0  0  0  0  0
   62.8389   33.3479   45.7252 H   0  0  0  0  0  0  0  0  0  0  0  0
   61.3249   34.3145   45.7252 H   0  0  0  0  0  0  0  0  0  0  0  0
   56.4041   27.3228   45.9379 H   0  0  0  0  0  0  0  0  0  0  0  0
  1  2  1  0
  2  3  1  0
  3  4  2  0
  4  5  1  0
  5  6  2  0
  6  7  1  0
  7  8  1  0
  8  9  1  0
  9 10  1  0
 10 11  2  0
 10 12  1  0
 12 13  1  0
 13 14  2  0
 14 15  1  0
 15 16  1  0
 16 17  2  0
 16 18  2  0
 16 19  1  0
 19 20  1  0
 20 21  1  0
 21 22  1  0
 22 23  1  0
 23 24  1  0
 15 25  2  0
 25 26  1  0
 26 27  2  0
 27 28  1  0
  7 29  2  0
 29 30  1  0
 30 31  2  0
 30 32  1  0
 32 33  1  0
 33  2  2  0
 32  5  1  0
 27 13  1  0
 24 19  1  0
  1 34  1  0
  1 35  1  0
  1 36  1  0
  3 37  1  0
  4 38  1  0
  9 39  1  0
  9 40  1  0
 14 41  1  0
 20 42  1  0
 20 43  1  0
 21 44  1  0
 21 45  1  0
 23 46  1  0
 23 47  1  0
 24 48  1  0
 24 49  1  0
 25 50  1  0
 26 51  1  0
 28 52  1  0
 28 53  1  0
 28 54  1  0
 33 55  1  0
M  CHG  1  12  -1
M  END
>  <UniqueID>  (28) 
26

>  <SMILES>  (28) 
Cc1ccc2nc(SCC(=O)[N-]c3cc(S(=O)(=O)N4CCOCC4)ccc3C)nc(=O)n2c1

>  <Energy>  (28) 
74.59590335499327

>  <Genealogy>  (28) 
Cc1ccc2nc(SCC(=O)[N-]c3cc(S(=O)(=O)N4CCOCC4)ccc3C)nc(=O)n2c1 (protonated)
Cc1ccc2nc(SCC(=O)[N-]c3cc(S(=O)(=O)N4CCOCC4)ccc3C)nc(=O)n2c1 (3D coordinates assigned)
Cc1ccc2nc(SCC(=O)[N-]c3cc(S(=O)(=O)N4CCOCC4)ccc3C)nc(=O)n2c1 (nonaromatic ring conformer: 74.59590335499327 kcal/mol)

>  <smiles>  (28) 
Cc1ccc2nc(SCC(=O)Nc3cc(S(=O)(=O)N4CCOCC4)ccc3C)nc(=O)n2c1

>  <score_type>  (28) 
oracle

>  <origin>  (28) 
adg

>  <m_score__min__energy>  (28) 
-11.720000000000001

>  <m_primary>  (28) 
energy

$$$$
28:0
     RDKit          3D

 42 44  0  0  0  0  0  0  0  0999 V2000
   57.7610   31.9300   42.5040 O   0  0  0  0  0  0  0  0  0  0  0  0
   57.7730   32.1660   43.7420 C   0  0  0  0  0  0  0  0  0  0  0  0
   56.7850   31.4840   44.6530 C   0  0  0  0  0  0  0  0  0  0  0  0
   57.2560   30.1580   45.0550 N   0  0  0  0  0  0  0  0  0  0  0  0
   56.5160   29.0260   45.1280 C   0  0  0  0  0  0  0  0  0  0  0  0
   55.1510   28.9610   44.8710 O   0  0  0  0  0  0  0  0  0  0  0  0
   57.3180   27.9620   45.4810 C   0  0  0  0  0  0  0  0  0  0  0  0
   57.0230   26.6150   45.6770 C   0  0  0  0  0  0  0  0  0  0  0  0
   58.0820   25.7570   46.0290 C   0  0  0  0  0  0  0  0  0  0  0  0
   59.3950   26.2610   46.1720 C   0  0  0  0  0  0  0  0  0  0  0  0
   59.6630   27.6270   45.9640 C   0  0  0  0  0  0  0  0  0  0  0  0
   58.5950   28.4530   45.6200 C   0  0  0  0  0  0  0  0  0  0  0  0
   58.5320   29.8080   45.3450 C   0  0  0  0  0  0  0  0  0  0  0  0
   59.6020   30.6990   45.3480 O   0  0  0  0  0  0  0  0  0  0  0  0
   58.7310   33.0970   44.2560 N   0  0  0  0  0  0  0  0  0  0  0  0
   58.3810   34.3870   44.8380 C   0  0  0  0  0  0  0  0  0  0  0  0
   58.5120   34.3180   46.3610 C   0  0  0  0  0  0  0  0  0  0  0  0
   59.1700   33.0640   46.7860 N   0  0  0  0  0  0  0  0  0  0  0  0
   60.5650   33.3290   47.1830 C   0  0  0  0  0  0  0  0  0  0  0  0
   61.2690   32.0120   47.5750 C   0  0  0  0  0  0  0  0  0  0  0  0
   60.3610   30.9380   47.7430 O   0  0  0  0  0  0  0  0  0  0  0  0
   59.3010   31.3370   48.5850 C   0  0  0  0  0  0  0  0  0  0  0  0
   58.4390   32.4160   47.9010 C   0  0  0  0  0  0  0  0  0  0  0  0
   56.6426   32.1010   45.5524 H   0  0  0  0  0  0  0  0  0  0  0  0
   55.8372   31.3640   44.1077 H   0  0  0  0  0  0  0  0  0  0  0  0
   55.9974   26.2346   45.5607 H   0  0  0  0  0  0  0  0  0  0  0  0
   57.8865   24.6871   46.1939 H   0  0  0  0  0  0  0  0  0  0  0  0
   60.2137   25.5802   46.4480 H   0  0  0  0  0  0  0  0  0  0  0  0
   60.6815   28.0290   46.0695 H   0  0  0  0  0  0  0  0  0  0  0  0
   59.5100   31.6310   45.7330 H   0  0  0  0  0  0  0  0  0  0  0  0
   59.0587   35.1604   44.4473 H   0  0  0  0  0  0  0  0  0  0  0  0
   57.3432   34.6370   44.5725 H   0  0  0  0  0  0  0  0  0  0  0  0
   59.1108   35.1728   46.7085 H   0  0  0  0  0  0  0  0  0  0  0  0
   57.5032   34.3470   46.7985 H   0  0  0  0  0  0  0  0  0  0  0  0
   61.1009   33.7902   46.3403 H   0  0  0  0  0  0  0  0  0  0  0  0
   60.5683   34.0082   48.0482 H   0  0  0  0  0  0  0  0  0  0  0  0
   61.9859   31.7468   46.7840 H   0  0  0  0  0  0  0  0  0  0  0  0
   61.7717   32.1772   48.5394 H   0  0  0  0  0  0  0  0  0  0  0  0
   58.6724   30.4635   48.8130 H   0  0  0  0  0  0  0  0  0  0  0  0
   59.7228   31.7555   49.5107 H   0  0  0  0  0  0  0  0  0  0  0  0
   57.5256   31.9474   47.5059 H   0  0  0  0  0  0  0  0  0  0  0  0
   58.1909   33.1857   48.6467 H   0  0  0  0  0  0  0  0  0  0  0  0
  1  2  2  0
  2  3  1  0
  3  4  1  0
  4  5  1  0
  5  6  1  0
  5  7  2  0
  7  8  1  0
  8  9  2  0
  9 10  1  0
 10 11  2  0
 11 12  1  0
 12 13  2  0
 13 14  1  0
  2 15  1  0
 15 16  1  0
 16 17  1  0
 17 18  1  0
 18 19  1  0
 19 20  1  0
 20 21  1  0
 21 22  1  0
 22 23  1  0
 13  4  1  0
 23 18  1  0
 12  7  1  0
  3 24  1  0
  3 25  1  0
  8 26  1  0
  9 27  1  0
 10 28  1  0
 11 29  1  0
 14 30  1  0
 16 31  1  0
 16 32  1  0
 17 33  1  0
 17 34  1  0
 19 35  1  0
 19 36  1  0
 20 37  1  0
 20 38  1  0
 22 39  1  0
 22 40  1  0
 23 41  1  0
 23 42  1  0
M  CHG  2   6  -1  15  -1
M  END
>  <UniqueID>  (29) 
27

>  <SMILES>  (29) 
O=C(Cn1c([O-])c2ccccc2c1O)[N-]CCN1CCOCC1

>  <Energy>  (29) 
84.62214811733317

>  <Genealogy>  (29) 
O=C(Cn1c([O-])c2ccccc2c1O)[N-]CCN1CCOCC1 (protonated)
O=C(Cn1c([O-])c2ccccc2c1O)[N-]CCN1CCOCC1 (3D coordinates assigned)
O=C(Cn1c([O-])c2ccccc2c1O)[N-]CCN1CCOCC1 (nonaromatic ring conformer: 84.62214811733317 kcal/mol)

>  <smiles>  (29) 
O=C(Cn1c(O)c2ccccc2c1O)NCCN1CCOCC1

>  <score_type>  (29) 
oracle

>  <origin>  (29) 
adg

>  <m_score__min__energy>  (29) 
-11.460000000000001

>  <m_primary>  (29) 
energy

$$$$
29:0
     RDKit          3D

 28 29  0  0  0  0  0  0  0  0999 V2000
   57.0099   27.2293   47.4386 H   0  0  0  0  0  0  0  0  0  0  0  0
   57.0820   27.0810   46.3510 C   0  0  0  0  0  0  0  0  0  0  0  0
   57.5120   28.1200   45.6080 C   0  0  0  0  0  0  0  0  0  0  0  0
   58.8290   28.0460   45.0250 C   0  0  0  0  0  0  0  0  0  0  0  0
   59.8860   27.9870   44.5570 N   0  0  0  0  0  0  0  0  0  0  0  0
   56.6910   29.3180   45.3180 C   0  0  0  0  0  0  0  0  0  0  0  0
   55.5180   29.1690   44.8790 O   0  0  0  0  0  0  0  0  0  0  0  0
   57.2000   30.6290   45.6150 N   0  0  0  0  0  0  0  0  0  0  0  0
   57.6100   31.5220   44.7630 C   0  0  0  0  0  0  0  0  0  0  0  0
   58.1010   32.7140   45.1600 N   0  0  0  0  0  0  0  0  0  0  0  0
   58.5090   33.4680   44.1050 C   0  0  0  0  0  0  0  0  0  0  0  0
   58.9352   34.4744   44.2296 H   0  0  0  0  0  0  0  0  0  0  0  0
   58.3490   32.8760   42.8570 C   0  0  0  0  0  0  0  0  0  0  0  0
   58.6164   33.3256   41.8894 H   0  0  0  0  0  0  0  0  0  0  0  0
   57.6750   31.3520   43.0860 S   0  0  0  0  0  0  0  0  0  0  0  0
   56.6990   25.7540   45.8140 C   0  0  0  0  0  0  0  0  0  0  0  0
   55.3470   25.4310   45.6260 C   0  0  0  0  0  0  0  0  0  0  0  0
   54.3490   26.3380   45.9670 O   0  0  0  0  0  0  0  0  0  0  0  0
   55.0000   24.2210   45.1160 N   0  0  0  0  0  0  0  0  0  0  0  0
   55.9270   23.2900   44.7680 C   0  0  0  0  0  0  0  0  0  0  0  0
   55.5450   22.1820   44.3030 O   0  0  0  0  0  0  0  0  0  0  0  0
   57.2950   23.5670   44.9240 C   0  0  0  0  0  0  0  0  0  0  0  0
   58.3400   22.5630   44.5260 C   0  0  0  0  0  0  0  0  0  0  0  0
   58.7930   22.1278   45.4290 H   0  0  0  0  0  0  0  0  0  0  0  0
   57.8737   21.7655   43.9289 H   0  0  0  0  0  0  0  0  0  0  0  0
   59.1182   23.0608   43.9289 H   0  0  0  0  0  0  0  0  0  0  0  0
   57.6730   24.8220   45.4210 C   0  0  0  0  0  0  0  0  0  0  0  0
   58.7395   25.0784   45.5037 H   0  0  0  0  0  0  0  0  0  0  0  0
  1  2  1  0
  2  3  2  3
  3  4  1  0
  4  5  3  0
  3  6  1  0
  6  7  2  0
  6  8  1  0
  8  9  2  0
  9 10  1  0
 10 11  1  0
 11 12  1  0
 11 13  2  0
 13 14  1  0
 13 15  1  0
  2 16  1  0
 16 17  2  0
 17 18  1  0
 17 19  1  0
 19 20  1  0
 20 21  2  0
 20 22  1  0
 22 23  1  0
 23 24  1  0
 23 25  1  0
 23 26  1  0
 22 27  2  0
 27 28  1  0
 15  9  1  0
 27 16  1  0
M  CHG  3  10  -1  18  -1  19  -1
M  END
>  <UniqueID>  (30) 
28

>  <SMILES>  (30) 
Cc1cc(C=C(C#N)C(=O)/N=c2/[n-]ccs2)c([O-])[n-]c1=O

>  <Energy>  (30) 
70.3713419948466

>  <Genealogy>  (30) 
Cc1cc(C=C(C#N)C(=O)N=c2[n-]ccs2)c([O-])[n-]c1=O (protonated)
Cc1cc(C=C(C#N)C(=O)/N=c2/[n-]ccs2)c([O-])[n-]c1=O (cis-trans isomerization)
Cc1cc(C=C(C#N)C(=O)/N=c2/[n-]ccs2)c([O-])[n-]c1=O (3D coordinates assigned)
Cc1cc(C=C(C#N)C(=O)/N=c2/[n-]ccs2)c([O-])[n-]c1=O (optimized conformer: 70.3713419948466 kcal/mol)

>  <smiles>  (30) 
Cc1cc(C=C(C#N)C(=O)N=c2[nH]ccs2)c(O)[nH]c1=O

>  <score_type>  (30) 
oracle

>  <origin>  (30) 
adg

>  <m_score__min__energy>  (30) 
-13.869999999999999

>  <m_primary>  (30) 
energy

$$$$
30:0
     RDKit          3D

 34 36  0  0  0  0  0  0  0  0999 V2000
   63.6840   32.2230   48.5120 N   0  0  0  0  0  0  0  0  0  0  0  0
   62.9080   33.7430   48.2380 S   0  0  0  0  0  0  0  0  0  0  0  0
   62.7310   34.4560   49.5490 O   0  0  0  0  0  0  0  0  0  0  0  0
   63.7630   34.5920   47.3390 O   0  0  0  0  0  0  0  0  0  0  0  0
   61.3400   33.4770   47.4810 C   0  0  0  0  0  0  0  0  0  0  0  0
   60.3380   34.4710   47.5450 C   0  0  0  0  0  0  0  0  0  0  0  0
   59.0790   34.2560   46.9590 C   0  0  0  0  0  0  0  0  0  0  0  0
   58.8350   33.0410   46.3180 C   0  0  0  0  0  0  0  0  0  0  0  0
   57.6620   32.7100   45.7220 N   0  0  0  0  0  0  0  0  0  0  0  0
   57.7300   31.4620   45.1950 C   0  0  0  0  0  0  0  0  0  0  0  0
   56.7520   30.8800   44.5680 N   0  0  0  0  0  0  0  0  0  0  0  0
   56.3560   29.5070   44.7040 C   0  0  0  0  0  0  0  0  0  0  0  0
   55.1480   29.1890   44.8820 O   0  0  0  0  0  0  0  0  0  0  0  0
   57.4000   28.4400   44.6820 C   0  0  0  0  0  0  0  0  0  0  0  0
   57.4240   27.5870   46.2900 S   0  0  0  0  0  0  0  0  0  0  0  0
   56.4470   26.2080   45.7010 C   0  0  0  0  0  0  0  0  0  0  0  0
   57.0180   25.2610   44.9120 N   0  0  0  0  0  0  0  0  0  0  0  0
   56.2920   24.2060   44.4540 C   0  0  0  0  0  0  0  0  0  0  0  0
   56.8410   23.3370   43.7250 O   0  0  0  0  0  0  0  0  0  0  0  0
   54.9440   24.0900   44.7950 C   0  0  0  0  0  0  0  0  0  0  0  0
   54.3760   25.0740   45.6040 C   0  0  0  0  0  0  0  0  0  0  0  0
   55.1350   26.1120   46.0410 N   0  0  0  0  0  0  0  0  0  0  0  0
   59.2310   30.7240   45.4470 S   0  0  0  0  0  0  0  0  0  0  0  0
   59.8200   32.0670   46.2650 C   0  0  0  0  0  0  0  0  0  0  0  0
   61.0760   32.2550   46.8360 C   0  0  0  0  0  0  0  0  0  0  0  0
   64.5090   32.1820   47.8730 H   0  0  0  0  0  0  0  0  0  0  0  0
   64.0570   32.2440   49.4880 H   0  0  0  0  0  0  0  0  0  0  0  0
   60.5452   35.4217   48.0581 H   0  0  0  0  0  0  0  0  0  0  0  0
   58.3001   35.0314   47.0048 H   0  0  0  0  0  0  0  0  0  0  0  0
   57.1693   27.7167   43.8860 H   0  0  0  0  0  0  0  0  0  0  0  0
   58.3844   28.8920   44.4904 H   0  0  0  0  0  0  0  0  0  0  0  0
   54.3432   23.2422   44.4342 H   0  0  0  0  0  0  0  0  0  0  0  0
   53.3151   25.0094   45.8876 H   0  0  0  0  0  0  0  0  0  0  0  0
   61.8425   31.4678   46.7840 H   0  0  0  0  0  0  0  0  0  0  0  0
  1  2  1  0
  2  3  2  0
  2  4  2  0
  2  5  1  0
  5  6  2  0
  6  7  1  0
  7  8  2  0
  8  9  1  0
  9 10  1  0
 10 11  2  3
 11 12  1  0
 12 13  2  0
 12 14  1  0
 14 15  1  0
 15 16  1  0
 16 17  2  0
 17 18  1  0
 18 19  2  0
 18 20  1  0
 20 21  2  0
 21 22  1  0
 10 23  1  0
 23 24  1  0
 24 25  2  0
 25  5  1  0
 24  8  1  0
 22 16  1  0
  1 26  1  0
  1 27  1  0
  6 28  1  0
  7 29  1  0
 14 30  1  0
 14 31  1  0
 20 32  1  0
 21 33  1  0
 25 34  1  0
M  CHG  2   9  -1  22  -1
M  END
>  <UniqueID>  (31) 
29

>  <SMILES>  (31) 
NS(=O)(=O)c1ccc2[n-]c(=NC(=O)CSc3nc(=O)cc[n-]3)sc2c1

>  <Energy>  (31) 
67.7151195196276

>  <Genealogy>  (31) 
NS(=O)(=O)c1ccc2[n-]c(=NC(=O)CSc3nc(=O)cc[n-]3)sc2c1 (protonated)
NS(=O)(=O)c1ccc2[n-]c(=NC(=O)CSc3nc(=O)cc[n-]3)sc2c1 (3D coordinates assigned)
NS(=O)(=O)c1ccc2[n-]c(=NC(=O)CSc3nc(=O)cc[n-]3)sc2c1 (optimized conformer: 67.7151195196276 kcal/mol)

>  <smiles>  (31) 
NS(=O)(=O)c1ccc2[nH]c(=NC(=O)CSc3nc(=O)cc[nH]3)sc2c1

>  <score_type>  (31) 
oracle

>  <origin>  (31) 
adg

>  <m_score__min__energy>  (31) 
-11.91

>  <m_primary>  (31) 
energy

$$$$
31:0
     RDKit          3D

 42 44  0  0  0  0  0  0  0  0999 V2000
   55.8940   28.2950   45.2360 O   0  0  0  0  0  0  0  0  0  0  0  0
   56.6340   29.2380   44.8500 C   0  0  0  0  0  0  0  0  0  0  0  0
   56.0260   30.3960   44.1170 C   0  0  0  0  0  0  0  0  0  0  0  0
   56.5060   31.6320   44.6430 O   0  0  0  0  0  0  0  0  0  0  0  0
   57.8060   32.1050   44.4270 C   0  0  0  0  0  0  0  0  0  0  0  0
   58.5080   31.6460   43.4860 O   0  0  0  0  0  0  0  0  0  0  0  0
   58.3550   33.1410   45.3070 C   0  0  0  0  0  0  0  0  0  0  0  0
   59.2920   34.1010   44.9460 C   0  0  0  0  0  0  0  0  0  0  0  0
   59.6210   34.9700   45.9930 C   0  0  0  0  0  0  0  0  0  0  0  0
   58.9460   34.7000   47.1760 C   0  0  0  0  0  0  0  0  0  0  0  0
   57.9390   33.3780   46.9190 S   0  0  0  0  0  0  0  0  0  0  0  0
   58.0330   29.2510   45.1720 N   0  0  0  0  0  0  0  0  0  0  0  0
   58.7350   28.1310   45.7400 C   0  0  0  0  0  0  0  0  0  0  0  0
   58.5300   26.8300   45.2460 C   0  0  0  0  0  0  0  0  0  0  0  0
   59.2590   25.7550   45.7580 C   0  0  0  0  0  0  0  0  0  0  0  0
   60.2110   25.9660   46.7560 C   0  0  0  0  0  0  0  0  0  0  0  0
   60.4380   27.2540   47.2430 C   0  0  0  0  0  0  0  0  0  0  0  0
   59.7070   28.3420   46.7410 C   0  0  0  0  0  0  0  0  0  0  0  0
   59.9410   29.6600   47.2620 N   0  0  0  0  0  0  0  0  0  0  0  0
   58.9830   30.2690   48.1860 C   0  0  0  0  0  0  0  0  0  0  0  0
   59.7240   31.2310   49.1190 C   0  0  0  0  0  0  0  0  0  0  0  0
   60.4950   32.1580   48.3750 O   0  0  0  0  0  0  0  0  0  0  0  0
   61.5210   31.4800   47.6730 C   0  0  0  0  0  0  0  0  0  0  0  0
   60.9290   30.5330   46.6250 C   0  0  0  0  0  0  0  0  0  0  0  0
   56.2918   30.3291   43.0517 H   0  0  0  0  0  0  0  0  0  0  0  0
   54.9335   30.3590   44.2401 H   0  0  0  0  0  0  0  0  0  0  0  0
   59.7308   34.1712   43.9397 H   0  0  0  0  0  0  0  0  0  0  0  0
   60.3465   35.7902   45.8883 H   0  0  0  0  0  0  0  0  0  0  0  0
   59.0518   35.2556   48.1195 H   0  0  0  0  0  0  0  0  0  0  0  0
   58.5480   30.1520   45.0590 H   0  0  0  0  0  0  0  0  0  0  0  0
   57.7899   26.6583   44.4505 H   0  0  0  0  0  0  0  0  0  0  0  0
   59.0825   24.7395   45.3738 H   0  0  0  0  0  0  0  0  0  0  0  0
   60.7827   25.1170   47.1590 H   0  0  0  0  0  0  0  0  0  0  0  0
   61.1943   27.4175   48.0249 H   0  0  0  0  0  0  0  0  0  0  0  0
   58.2227   30.8225   47.6155 H   0  0  0  0  0  0  0  0  0  0  0  0
   58.4921   29.4837   48.7795 H   0  0  0  0  0  0  0  0  0  0  0  0
   58.9905   31.7789   49.7288 H   0  0  0  0  0  0  0  0  0  0  0  0
   60.3982   30.6482   49.7639 H   0  0  0  0  0  0  0  0  0  0  0  0
   62.1627   32.2185   47.1702 H   0  0  0  0  0  0  0  0  0  0  0  0
   62.1080   30.8885   48.3911 H   0  0  0  0  0  0  0  0  0  0  0  0
   60.4428   31.1205   45.8323 H   0  0  0  0  0  0  0  0  0  0  0  0
   61.7316   29.9216   46.1868 H   0  0  0  0  0  0  0  0  0  0  0  0
  1  2  2  0
  2  3  1  0
  3  4  1  0
  4  5  1  0
  5  6  2  0
  5  7  1  0
  7  8  2  0
  8  9  1  0
  9 10  2  0
 10 11  1  0
  2 12  1  0
 12 13  1  0
 13 14  2  0
 14 15  1  0
 15 16  2  0
 16 17  1  0
 17 18  2  0
 18 19  1  0
 19 20  1  0
 20 21  1  0
 21 22  1  0
 22 23  1  0
 23 24  1  0
 11  7  1  0
 18 13  1  0
 24 19  1  0
  3 25  1  0
  3 26  1  0
  8 27  1  0
  9 28  1  0
 10 29  1  0
 12 30  1  0
 14 31  1  0
 15 32  1  0
 16 33  1  0
 17 34  1  0
 20 35  1  0
 20 36  1  0
 21 37  1  0
 21 38  1  0
 23 39  1  0
 23 40  1  0
 24 41  1  0
 24 42  1  0
M  END
>  <UniqueID>  (32) 
30

>  <SMILES>  (32) 
O=C(COC(=O)c1cccs1)Nc1ccccc1N1CCOCC1

>  <Energy>  (32) 
74.20926187083658

>  <Genealogy>  (32) 
O=C(COC(=O)c1cccs1)Nc1ccccc1N1CCOCC1 (3D coordinates assigned)
O=C(COC(=O)c1cccs1)Nc1ccccc1N1CCOCC1 (nonaromatic ring conformer: 74.20926187083658 kcal/mol)

>  <smiles>  (32) 
O=C(COC(=O)c1cccs1)Nc1ccccc1N1CCOCC1

>  <score_type>  (32) 
oracle

>  <origin>  (32) 
adg

>  <m_score__min__energy>  (32) 
-7.1500000000000004

>  <m_primary>  (32) 
energy

$$$$
32:0
     RDKit          3D

 27 28  0  0  0  0  0  0  0  0999 V2000
   59.5070   29.6920   48.3570 O   0  0  0  0  0  0  0  0  0  0  0  0
   59.7000   29.9610   47.1420 C   0  0  0  0  0  0  0  0  0  0  0  0
   60.6280   29.1590   46.3960 N   0  0  0  0  0  0  0  0  0  0  0  0
   60.4020   27.7880   45.9420 C   0  0  0  0  0  0  0  0  0  0  0  0
   58.9320   27.4600   45.9420 C   0  0  0  0  0  0  0  0  0  0  0  0
   58.4840   26.1830   46.3170 C   0  0  0  0  0  0  0  0  0  0  0  0
   57.1170   25.8940   46.3390 C   0  0  0  0  0  0  0  0  0  0  0  0
   56.1860   26.8740   45.9820 C   0  0  0  0  0  0  0  0  0  0  0  0
   54.8280   26.5780   46.0070 O   0  0  0  0  0  0  0  0  0  0  0  0
   56.6220   28.1500   45.6010 C   0  0  0  0  0  0  0  0  0  0  0  0
   55.6890   29.1210   45.2460 O   0  0  0  0  0  0  0  0  0  0  0  0
   57.9930   28.4400   45.5800 C   0  0  0  0  0  0  0  0  0  0  0  0
   59.0000   31.1120   46.5490 C   0  0  0  0  0  0  0  0  0  0  0  0
   59.6440   32.3400   46.3590 C   0  0  0  0  0  0  0  0  0  0  0  0
   58.9360   33.3990   45.7930 C   0  0  0  0  0  0  0  0  0  0  0  0
   57.6080   33.2020   45.4140 C   0  0  0  0  0  0  0  0  0  0  0  0
   56.9460   34.1420   44.9030 O   0  0  0  0  0  0  0  0  0  0  0  0
   57.0340   31.9850   45.5940 N   0  0  0  0  0  0  0  0  0  0  0  0
   57.7100   30.9710   46.1400 N   0  0  0  0  0  0  0  0  0  0  0  0
   60.7964   27.6765   44.9212 H   0  0  0  0  0  0  0  0  0  0  0  0
   60.9168   27.0999   46.6286 H   0  0  0  0  0  0  0  0  0  0  0  0
   59.2123   25.4068   46.5946 H   0  0  0  0  0  0  0  0  0  0  0  0
   56.7726   24.8930   46.6379 H   0  0  0  0  0  0  0  0  0  0  0  0
   55.7480   30.0690   45.6010 H   0  0  0  0  0  0  0  0  0  0  0  0
   58.3357   29.4408   45.2783 H   0  0  0  0  0  0  0  0  0  0  0  0
   60.6963   32.4679   46.6528 H   0  0  0  0  0  0  0  0  0  0  0  0
   59.4180   34.3769   45.6472 H   0  0  0  0  0  0  0  0  0  0  0  0
  1  2  2  0
  2  3  1  0
  3  4  1  0
  4  5  1  0
  5  6  2  0
  6  7  1  0
  7  8  2  0
  8  9  1  0
  8 10  1  0
 10 11  1  0
 10 12  2  0
  2 13  1  0
 13 14  1  0
 14 15  2  0
 15 16  1  0
 16 17  2  0
 16 18  1  0
 18 19  1  0
 12  5  1  0
 19 13  2  0
  4 20  1  0
  4 21  1  0
  6 22  1  0
  7 23  1  0
 11 24  1  0
 12 25  1  0
 14 26  1  0
 15 27  1  0
M  CHG  3   3  -1   9  -1  18  -1
M  END
>  <UniqueID>  (33) 
31

>  <SMILES>  (33) 
O=C([N-]Cc1ccc([O-])c(O)c1)c1ccc(=O)[n-]n1

>  <Energy>  (33) 
31.398268629856283

>  <Genealogy>  (33) 
O=C([N-]Cc1ccc([O-])c(O)c1)c1ccc(=O)[n-]n1 (protonated)
O=C([N-]Cc1ccc([O-])c(O)c1)c1ccc(=O)[n-]n1 (3D coordinates assigned)
O=C([N-]Cc1ccc([O-])c(O)c1)c1ccc(=O)[n-]n1 (optimized conformer: 31.398268629856283 kcal/mol)

>  <smiles>  (33) 
O=C(NCc1ccc(O)c(O)c1)c1ccc(=O)[nH]n1

>  <score_type>  (33) 
oracle

>  <origin>  (33) 
adg

>  <m_score__min__energy>  (33) 
-12.66

>  <m_primary>  (33) 
energy

$$$$
33:0
     RDKit          3D

 41 43  0  0  0  0  0  0  0  0999 V2000
   63.4200   32.9670   48.1570 C   0  0  0  0  0  0  0  0  0  0  0  0
   62.1440   33.4640   48.5460 O   0  0  0  0  0  0  0  0  0  0  0  0
   61.0300   33.5390   47.6980 C   0  0  0  0  0  0  0  0  0  0  0  0
   61.0880   34.1370   46.4260 C   0  0  0  0  0  0  0  0  0  0  0  0
   59.9490   34.1880   45.6160 C   0  0  0  0  0  0  0  0  0  0  0  0
   58.7310   33.6440   46.0600 C   0  0  0  0  0  0  0  0  0  0  0  0
   57.5230   33.6930   45.2020 C   0  0  0  0  0  0  0  0  0  0  0  0
   57.2960   34.7150   44.4980 O   0  0  0  0  0  0  0  0  0  0  0  0
   56.6160   32.5780   45.1810 N   0  0  0  0  0  0  0  0  0  0  0  0
   56.9140   31.3510   44.8740 C   0  0  0  0  0  0  0  0  0  0  0  0
   56.0240   30.3330   44.8350 N   0  0  0  0  0  0  0  0  0  0  0  0
   56.5820   29.1690   44.5090 N   0  0  0  0  0  0  0  0  0  0  0  0
   57.9110   29.2620   44.2940 C   0  0  0  0  0  0  0  0  0  0  0  0
   58.9410   27.8660   43.8500 S   0  0  0  0  0  0  0  0  0  0  0  0
   60.2690   28.2660   45.0440 C   0  0  0  0  0  0  0  0  0  0  0  0
   59.7610   28.2910   46.4620 C   0  0  0  0  0  0  0  0  0  0  0  0
   60.0160   29.2870   47.1890 O   0  0  0  0  0  0  0  0  0  0  0  0
   59.1580   27.1380   47.0650 N   0  0  0  0  0  0  0  0  0  0  0  0
   58.1240   26.3260   46.4980 C   0  0  0  0  0  0  0  0  0  0  0  0
   58.4460   25.0500   46.0150 C   0  0  0  0  0  0  0  0  0  0  0  0
   57.4480   24.2220   45.4910 C   0  0  0  0  0  0  0  0  0  0  0  0
   56.1190   24.6550   45.4680 C   0  0  0  0  0  0  0  0  0  0  0  0
   55.7840   25.9120   45.9800 C   0  0  0  0  0  0  0  0  0  0  0  0
   54.4610   26.3350   45.9790 O   0  0  0  0  0  0  0  0  0  0  0  0
   56.7830   26.7420   46.5000 C   0  0  0  0  0  0  0  0  0  0  0  0
   58.4710   30.8390   44.4930 S   0  0  0  0  0  0  0  0  0  0  0  0
   58.6780   33.0490   47.3330 C   0  0  0  0  0  0  0  0  0  0  0  0
   59.8190   32.9970   48.1410 C   0  0  0  0  0  0  0  0  0  0  0  0
   64.0127   32.7361   49.0544 H   0  0  0  0  0  0  0  0  0  0  0  0
   63.2907   32.0535   47.5580 H   0  0  0  0  0  0  0  0  0  0  0  0
   63.9426   33.7273   47.5580 H   0  0  0  0  0  0  0  0  0  0  0  0
   62.0345   34.5669   46.0664 H   0  0  0  0  0  0  0  0  0  0  0  0
   60.0066   34.6578   44.6230 H   0  0  0  0  0  0  0  0  0  0  0  0
   61.0605   27.5064   44.9632 H   0  0  0  0  0  0  0  0  0  0  0  0
   60.6543   29.2676   44.8023 H   0  0  0  0  0  0  0  0  0  0  0  0
   59.4878   24.6985   46.0482 H   0  0  0  0  0  0  0  0  0  0  0  0
   57.7091   23.2289   45.0965 H   0  0  0  0  0  0  0  0  0  0  0  0
   55.3366   24.0065   45.0469 H   0  0  0  0  0  0  0  0  0  0  0  0
   56.5163   27.7261   46.9128 H   0  0  0  0  0  0  0  0  0  0  0  0
   57.7320   32.6211   47.6964 H   0  0  0  0  0  0  0  0  0  0  0  0
   59.7633   32.5257   49.1334 H   0  0  0  0  0  0  0  0  0  0  0  0
  1  2  1  0
  2  3  1  0
  3  4  2  0
  4  5  1  0
  5  6  2  0
  6  7  1  0
  7  8  2  0
  7  9  1  0
  9 10  2  3
 10 11  1  0
 11 12  1  0
 12 13  2  0
 13 14  1  0
 14 15  1  0
 15 16  1  0
 16 17  2  0
 16 18  1  0
 18 19  1  0
 19 20  2  0
 20 21  1  0
 21 22  2  0
 22 23  1  0
 23 24  1  0
 23 25  2  0
 13 26  1  0
  6 27  1  0
 27 28  2  0
 28  3  1  0
 26 10  1  0
 25 19  1  0
  1 29  1  0
  1 30  1  0
  1 31  1  0
  4 32  1  0
  5 33  1  0
 15 34  1  0
 15 35  1  0
 20 36  1  0
 21 37  1  0
 22 38  1  0
 25 39  1  0
 27 40  1  0
 28 41  1  0
M  CHG  3  11  -1  18  -1  24  -1
M  END
>  <UniqueID>  (34) 
32

>  <SMILES>  (34) 
COc1ccc(C(=O)N=c2[n-]nc(SCC(=O)[N-]c3cccc([O-])c3)s2)cc1

>  <Energy>  (34) 
81.00968591791224

>  <Genealogy>  (34) 
COc1ccc(C(=O)N=c2[n-]nc(SCC(=O)[N-]c3cccc([O-])c3)s2)cc1 (protonated)
COc1ccc(C(=O)N=c2[n-]nc(SCC(=O)[N-]c3cccc([O-])c3)s2)cc1 (3D coordinates assigned)
COc1ccc(C(=O)N=c2[n-]nc(SCC(=O)[N-]c3cccc([O-])c3)s2)cc1 (optimized conformer: 81.00968591791224 kcal/mol)

>  <smiles>  (34) 
COc1ccc(C(=O)N=c2[nH]nc(SCC(=O)Nc3cccc(O)c3)s2)cc1

>  <score_type>  (34) 
oracle

>  <origin>  (34) 
adg

>  <m_score__min__energy>  (34) 
-14.59

>  <m_primary>  (34) 
energy

$$$$
34:0
     RDKit          3D

 53 55  0  0  0  0  0  0  0  0999 V2000
   57.2790   32.7130   40.3720 C   0  0  0  0  0  0  0  0  0  0  0  0
   57.9830   32.4740   41.5870 O   0  0  0  0  0  0  0  0  0  0  0  0
   57.5360   31.6180   42.6040 C   0  0  0  0  0  0  0  0  0  0  0  0
   57.9430   31.7600   43.9440 C   0  0  0  0  0  0  0  0  0  0  0  0
   57.4830   30.8690   44.9180 C   0  0  0  0  0  0  0  0  0  0  0  0
   56.6430   29.8020   44.5600 C   0  0  0  0  0  0  0  0  0  0  0  0
   56.1860   28.8440   45.5250 N   0  0  0  0  0  0  0  0  0  0  0  0
   56.4790   27.4380   45.5660 C   0  0  0  0  0  0  0  0  0  0  0  0
   55.5830   26.6510   45.9680 O   0  0  0  0  0  0  0  0  0  0  0  0
   57.8010   26.8560   45.1260 C   0  0  0  0  0  0  0  0  0  0  0  0
   58.9360   27.4740   45.8400 N   0  0  0  0  0  0  0  0  0  0  0  0
   58.5760   27.9580   47.1990 C   0  0  0  0  0  0  0  0  0  0  0  0
   58.7930   29.4700   47.3990 C   0  0  0  0  0  0  0  0  0  0  0  0
   60.1310   29.9210   46.9480 N   0  0  0  0  0  0  0  0  0  0  0  0
   61.1000   30.1990   48.0320 C   0  0  0  0  0  0  0  0  0  0  0  0
   61.8950   31.4740   47.8330 C   0  0  0  0  0  0  0  0  0  0  0  0
   61.4300   32.4680   46.9550 C   0  0  0  0  0  0  0  0  0  0  0  0
   62.1570   33.6470   46.7750 C   0  0  0  0  0  0  0  0  0  0  0  0
   63.3490   33.8490   47.4720 C   0  0  0  0  0  0  0  0  0  0  0  0
   63.8240   32.8790   48.3620 C   0  0  0  0  0  0  0  0  0  0  0  0
   65.0310   33.1260   49.0320 O   0  0  0  0  0  0  0  0  0  0  0  0
   65.5280   32.3380   50.1080 C   0  0  0  0  0  0  0  0  0  0  0  0
   63.0820   31.6980   48.5530 C   0  0  0  0  0  0  0  0  0  0  0  0
   60.6970   29.1810   45.8000 C   0  0  0  0  0  0  0  0  0  0  0  0
   59.6030   28.4820   44.9950 C   0  0  0  0  0  0  0  0  0  0  0  0
   56.2080   29.6860   43.2350 C   0  0  0  0  0  0  0  0  0  0  0  0
   56.6520   30.5890   42.2650 C   0  0  0  0  0  0  0  0  0  0  0  0
   56.2601   33.0589   40.6005 H   0  0  0  0  0  0  0  0  0  0  0  0
   57.8053   33.4828   39.7886 H   0  0  0  0  0  0  0  0  0  0  0  0
   57.2279   31.7819   39.7886 H   0  0  0  0  0  0  0  0  0  0  0  0
   58.6256   32.5752   44.2258 H   0  0  0  0  0  0  0  0  0  0  0  0
   57.7800   31.0041   45.9685 H   0  0  0  0  0  0  0  0  0  0  0  0
   57.7992   25.7747   45.3282 H   0  0  0  0  0  0  0  0  0  0  0  0
   57.9226   27.0566   44.0513 H   0  0  0  0  0  0  0  0  0  0  0  0
   57.5139   27.7337   47.3768 H   0  0  0  0  0  0  0  0  0  0  0  0
   59.2401   27.4427   47.9086 H   0  0  0  0  0  0  0  0  0  0  0  0
   58.0270   30.0140   46.8269 H   0  0  0  0  0  0  0  0  0  0  0  0
   58.7190   29.6763   48.4769 H   0  0  0  0  0  0  0  0  0  0  0  0
   60.5463   30.2803   48.9790 H   0  0  0  0  0  0  0  0  0  0  0  0
   61.8224   29.3695   48.0350 H   0  0  0  0  0  0  0  0  0  0  0  0
   60.4885   32.3167   46.4066 H   0  0  0  0  0  0  0  0  0  0  0  0
   61.7891   34.4181   46.0822 H   0  0  0  0  0  0  0  0  0  0  0  0
   63.9194   34.7773   47.3208 H   0  0  0  0  0  0  0  0  0  0  0  0
   65.2378   32.7982   51.0640 H   0  0  0  0  0  0  0  0  0  0  0  0
   65.1055   31.3243   50.0458 H   0  0  0  0  0  0  0  0  0  0  0  0
   66.6248   32.2826   50.0458 H   0  0  0  0  0  0  0  0  0  0  0  0
   63.4339   30.9435   49.2720 H   0  0  0  0  0  0  0  0  0  0  0  0
   61.2276   29.8876   45.1449 H   0  0  0  0  0  0  0  0  0  0  0  0
   61.3858   28.4154   46.1866 H   0  0  0  0  0  0  0  0  0  0  0  0
   58.8645   29.2246   44.6587 H   0  0  0  0  0  0  0  0  0  0  0  0
   60.0515   27.9875   44.1208 H   0  0  0  0  0  0  0  0  0  0  0  0
   55.5133   28.8802   42.9556 H   0  0  0  0  0  0  0  0  0  0  0  0
   56.3032   30.4894   41.2265 H   0  0  0  0  0  0  0  0  0  0  0  0
  1  2  1  0
  2  3  1  0
  3  4  2  0
  4  5  1  0
  5  6  2  0
  6  7  1  0
  7  8  1  0
  8  9  2  0
  8 10  1  0
 10 11  1  0
 11 12  1  0
 12 13  1  0
 13 14  1  0
 14 15  1  0
 15 16  1  0
 16 17  2  0
 17 18  1  0
 18 19  2  0
 19 20  1  0
 20 21  1  0
 21 22  1  0
 20 23  2  0
 14 24  1  0
 24 25  1  0
  6 26  1  0
 26 27  2  0
 27  3  1  0
 25 11  1  0
 23 16  1  0
  1 28  1  0
  1 29  1  0
  1 30  1  0
  4 31  1  0
  5 32  1  0
 10 33  1  0
 10 34  1  0
 12 35  1  0
 12 36  1  0
 13 37  1  0
 13 38  1  0
 15 39  1  0
 15 40  1  0
 17 41  1  0
 18 42  1  0
 19 43  1  0
 22 44  1  0
 22 45  1  0
 22 46  1  0
 23 47  1  0
 24 48  1  0
 24 49  1  0
 25 50  1  0
 25 51  1  0
 26 52  1  0
 27 53  1  0
M  CHG  1   7  -1
M  END
>  <UniqueID>  (35) 
33

>  <SMILES>  (35) 
COc1ccc([N-]C(=O)CN2CCN(Cc3cccc(OC)c3)CC2)cc1

>  <Energy>  (35) 
68.8975575876457

>  <Genealogy>  (35) 
COc1ccc([N-]C(=O)CN2CCN(Cc3cccc(OC)c3)CC2)cc1 (protonated)
COc1ccc([N-]C(=O)CN2CCN(Cc3cccc(OC)c3)CC2)cc1 (3D coordinates assigned)
COc1ccc([N-]C(=O)CN2CCN(Cc3cccc(OC)c3)CC2)cc1 (nonaromatic ring conformer: 68.8975575876457 kcal/mol)

>  <smiles>  (35) 
COc1ccc(NC(=O)CN2CCN(Cc3cccc(OC)c3)CC2)cc1

>  <score_type>  (35) 
oracle

>  <origin>  (35) 
adg

>  <m_score__min__energy>  (35) 
-9.7100000000000009

>  <m_primary>  (35) 
energy

$$$$
35:0
     RDKit          3D

 62 66  0  0  0  0  0  0  0  0999 V2000
   55.9371   29.6883   44.0401 H   0  0  0  0  0  0  0  0  0  0  0  0
   56.5270   29.0670   44.7300 C   0  0  0  0  0  0  0  0  0  0  0  0
   55.9860   27.9410   45.2600 N   0  0  0  0  0  0  0  0  0  0  0  0
   56.6580   27.1530   46.1460 C   0  0  0  0  0  0  0  0  0  0  0  0
   56.0750   26.0390   46.4960 N   0  0  0  0  0  0  0  0  0  0  0  0
   55.3130   25.0910   45.7290 C   0  0  0  0  0  0  0  0  0  0  0  0
   54.0620   25.1910   45.6270 O   0  0  0  0  0  0  0  0  0  0  0  0
   56.0430   24.0100   45.0110 C   0  0  0  0  0  0  0  0  0  0  0  0
   55.7100   23.7460   43.6660 C   0  0  0  0  0  0  0  0  0  0  0  0
   54.9093   24.3232   43.1804 H   0  0  0  0  0  0  0  0  0  0  0  0
   56.3850   22.7610   42.9450 C   0  0  0  0  0  0  0  0  0  0  0  0
   56.1277   22.5803   41.8909 H   0  0  0  0  0  0  0  0  0  0  0  0
   57.3840   22.0050   43.5550 C   0  0  0  0  0  0  0  0  0  0  0  0
   57.9257   21.2413   42.9777 H   0  0  0  0  0  0  0  0  0  0  0  0
   57.6960   22.2160   44.8930 C   0  0  0  0  0  0  0  0  0  0  0  0
   58.4583   21.5891   45.3787 H   0  0  0  0  0  0  0  0  0  0  0  0
   57.0470   23.2240   45.6350 C   0  0  0  0  0  0  0  0  0  0  0  0
   57.3090   23.3720   47.0430 N   0  0  0  0  0  0  0  0  0  0  0  0
   56.6290   22.6950   48.1130 C   0  0  0  0  0  0  0  0  0  0  0  0
   57.2460   21.8700   48.8400 O   0  0  0  0  0  0  0  0  0  0  0  0
   55.1820   22.9800   48.4190 C   0  0  0  0  0  0  0  0  0  0  0  0
   55.3618   23.9739   48.8547 H   0  0  0  0  0  0  0  0  0  0  0  0
   54.1210   22.4470   47.4670 C   0  0  0  0  0  0  0  0  0  0  0  0
   53.1750   22.9931   47.3372 H   0  0  0  0  0  0  0  0  0  0  0  0
   54.1032   22.1622   46.4047 H   0  0  0  0  0  0  0  0  0  0  0  0
   54.4030   21.7170   48.7680 C   0  0  0  0  0  0  0  0  0  0  0  0
   53.6617   21.7350   49.5805 H   0  0  0  0  0  0  0  0  0  0  0  0
   54.6742   20.6857   49.0381 H   0  0  0  0  0  0  0  0  0  0  0  0
   57.9610   27.5440   46.5800 C   0  0  0  0  0  0  0  0  0  0  0  0
   58.4948   26.9616   47.3454 H   0  0  0  0  0  0  0  0  0  0  0  0
   58.5520   28.6930   46.0080 C   0  0  0  0  0  0  0  0  0  0  0  0
   59.8270   29.1860   46.3540 O   0  0  0  0  0  0  0  0  0  0  0  0
   60.1530   30.4210   46.9330 C   0  0  0  0  0  0  0  0  0  0  0  0
   59.1880   31.3270   47.4050 C   0  0  0  0  0  0  0  0  0  0  0  0
   58.1186   31.0837   47.3198 H   0  0  0  0  0  0  0  0  0  0  0  0
   59.5860   32.5420   47.9850 C   0  0  0  0  0  0  0  0  0  0  0  0
   58.8265   33.2652   48.3171 H   0  0  0  0  0  0  0  0  0  0  0  0
   60.9500   32.8380   48.1430 C   0  0  0  0  0  0  0  0  0  0  0  0
   61.3820   34.0860   48.7040 N   0  0  0  0  0  0  0  0  0  0  0  0
   62.0240   34.2210   49.9730 C   0  0  0  0  0  0  0  0  0  0  0  0
   62.9480   35.0630   50.1040 O   0  0  0  0  0  0  0  0  0  0  0  0
   61.6700   33.3910   51.0810 N   0  0  0  0  0  0  0  0  0  0  0  0
   60.4130   32.7130   51.2490 C   0  0  0  0  0  0  0  0  0  0  0  0
   59.2370   33.4320   51.5430 C   0  0  0  0  0  0  0  0  0  0  0  0
   59.2846   34.5199   51.6985 H   0  0  0  0  0  0  0  0  0  0  0  0
   58.0080   32.7670   51.6380 C   0  0  0  0  0  0  0  0  0  0  0  0
   57.0895   33.3369   51.8422 H   0  0  0  0  0  0  0  0  0  0  0  0
   57.9470   31.3830   51.4740 C   0  0  0  0  0  0  0  0  0  0  0  0
   56.9798   30.8636   51.5432 H   0  0  0  0  0  0  0  0  0  0  0  0
   59.1130   30.6560   51.2220 C   0  0  0  0  0  0  0  0  0  0  0  0
   59.0595   29.5644   51.0977 H   0  0  0  0  0  0  0  0  0  0  0  0
   60.3560   31.3100   51.1260 C   0  0  0  0  0  0  0  0  0  0  0  0
   61.6070   30.5230   50.8460 C   0  0  0  0  0  0  0  0  0  0  0  0
   62.0753   30.2284   51.7967 H   0  0  0  0  0  0  0  0  0  0  0  0
   61.3520   29.6223   50.2683 H   0  0  0  0  0  0  0  0  0  0  0  0
   62.3085   31.1428   50.2683 H   0  0  0  0  0  0  0  0  0  0  0  0
   61.9060   31.9020   47.7380 C   0  0  0  0  0  0  0  0  0  0  0  0
   63.2210   32.1810   47.8800 F   0  0  0  0  0  0  0  0  0  0  0  0
   61.5090   30.7120   47.1230 C   0  0  0  0  0  0  0  0  0  0  0  0
   62.2712   29.9950   46.7840 H   0  0  0  0  0  0  0  0  0  0  0  0
   57.8240   29.4350   45.0580 C   0  0  0  0  0  0  0  0  0  0  0  0
   58.2849   30.3089   44.5745 H   0  0  0  0  0  0  0  0  0  0  0  0
  1  2  1  0
  2  3  1  0
  3  4  1  0
  4  5  2  0
  5  6  1  0
  6  7  2  0
  6  8  1  0
  8  9  2  0
  9 10  1  0
  9 11  1  0
 11 12  1  0
 11 13  2  0
 13 14  1  0
 13 15  1  0
 15 16  1  0
 15 17  2  0
 17 18  1  0
 18 19  1  0
 19 20  2  0
 19 21  1  0
 21 22  1  0
 21 23  1  0
 23 24  1  0
 23 25  1  0
 23 26  1  0
 26 27  1  0
 26 28  1  0
  4 29  1  0
 29 30  1  0
 29 31  2  0
 31 32  1  0
 32 33  1  0
 33 34  2  0
 34 35  1  0
 34 36  1  0
 36 37  1  0
 36 38  2  0
 38 39  1  0
 39 40  1  0
 40 41  2  0
 40 42  1  0
 42 43  1  0
 43 44  2  0
 44 45  1  0
 44 46  1  0
 46 47  1  0
 46 48  2  0
 48 49  1  0
 48 50  1  0
 50 51  1  0
 50 52  2  0
 52 53  1  0
 53 54  1  0
 53 55  1  0
 53 56  1  0
 38 57  1  0
 57 58  1  0
 57 59  2  0
 59 60  1  0
 31 61  1  0
 61 62  1  0
 61  2  2  0
 17  8  1  0
 26 21  1  0
 59 33  1  0
 52 43  1  0
M  CHG  4   3  -1  18  -1  39  -1  42  -1
M  END
>  <UniqueID>  (36) 
34

>  <SMILES>  (36) 
Cc1ccccc1[N-]C(=O)[N-]c1ccc(Oc2cc[n-]/c(=N/C(=O)c3ccccc3[N-]C(=O)C3CC3)c2)cc1F

>  <Energy>  (36) 
363.0240363545327

>  <Genealogy>  (36) 
Cc1ccccc1[N-]C(=O)[N-]c1ccc(Oc2cc[n-]c(=NC(=O)c3ccccc3[N-]C(=O)C3CC3)c2)cc1F (protonated)
Cc1ccccc1[N-]C(=O)[N-]c1ccc(Oc2cc[n-]/c(=N/C(=O)c3ccccc3[N-]C(=O)C3CC3)c2)cc1F (cis-trans isomerization)
Cc1ccccc1[N-]C(=O)[N-]c1ccc(Oc2cc[n-]/c(=N/C(=O)c3ccccc3[N-]C(=O)C3CC3)c2)cc1F (3D coordinates assigned)
Cc1ccccc1[N-]C(=O)[N-]c1ccc(Oc2cc[n-]/c(=N/C(=O)c3ccccc3[N-]C(=O)C3CC3)c2)cc1F (nonaromatic ring conformer: 363.0240363545327 kcal/mol)

>  <smiles>  (36) 
Cc1ccccc1NC(=O)Nc1ccc(Oc2cc[nH]c(=NC(=O)c3ccccc3NC(=O)C3CC3)c2)cc1F

>  <score_type>  (36) 
oracle

>  <origin>  (36) 
adg

>  <m_score__min__energy>  (36) 
-15.470000000000001

>  <m_primary>  (36) 
energy

$$$$
36:0
     RDKit          3D

 32 33  0  0  0  0  0  0  0  0999 V2000
   60.4960   31.5220   47.8580 C   0  0  0  0  0  0  0  0  0  0  0  0
   59.3330   31.7840   48.8080 C   0  0  0  0  0  0  0  0  0  0  0  0
   58.4390   32.7530   48.2610 O   0  0  0  0  0  0  0  0  0  0  0  0
   58.7190   33.6320   47.1970 C   0  0  0  0  0  0  0  0  0  0  0  0
   59.5020   34.7900   47.3860 C   0  0  0  0  0  0  0  0  0  0  0  0
   59.7790   35.6430   46.3180 C   0  0  0  0  0  0  0  0  0  0  0  0
   59.2840   35.3570   45.0490 C   0  0  0  0  0  0  0  0  0  0  0  0
   58.5100   34.2150   44.8400 C   0  0  0  0  0  0  0  0  0  0  0  0
   58.2160   33.3400   45.9050 C   0  0  0  0  0  0  0  0  0  0  0  0
   57.3840   32.1380   45.6350 C   0  0  0  0  0  0  0  0  0  0  0  0
   56.3660   32.2150   44.8950 O   0  0  0  0  0  0  0  0  0  0  0  0
   57.7760   30.8960   46.1600 O   0  0  0  0  0  0  0  0  0  0  0  0
   58.1180   29.7630   45.4030 C   0  0  0  0  0  0  0  0  0  0  0  0
   59.4460   29.3220   45.2710 C   0  0  0  0  0  0  0  0  0  0  0  0
   59.7330   28.1990   44.4960 C   0  0  0  0  0  0  0  0  0  0  0  0
   58.6950   27.5300   43.8480 C   0  0  0  0  0  0  0  0  0  0  0  0
   57.4150   27.9760   43.9660 N   0  0  0  0  0  0  0  0  0  0  0  0
   57.1080   29.0710   44.7180 C   0  0  0  0  0  0  0  0  0  0  0  0
   55.9110   29.4580   44.8010 O   0  0  0  0  0  0  0  0  0  0  0  0
   61.4063   31.3169   48.4406 H   0  0  0  0  0  0  0  0  0  0  0  0
   60.2631   30.6538   47.2240 H   0  0  0  0  0  0  0  0  0  0  0  0
   60.6579   32.4062   47.2240 H   0  0  0  0  0  0  0  0  0  0  0  0
   58.7867   30.8443   48.9768 H   0  0  0  0  0  0  0  0  0  0  0  0
   59.7335   32.1703   49.7569 H   0  0  0  0  0  0  0  0  0  0  0  0
   59.8980   35.0225   48.3856 H   0  0  0  0  0  0  0  0  0  0  0  0
   60.3899   36.5435   46.4789 H   0  0  0  0  0  0  0  0  0  0  0  0
   59.5034   36.0326   44.2091 H   0  0  0  0  0  0  0  0  0  0  0  0
   58.1252   33.9953   43.8332 H   0  0  0  0  0  0  0  0  0  0  0  0
   60.2584   29.8625   45.7788 H   0  0  0  0  0  0  0  0  0  0  0  0
   60.7693   27.8438   44.3966 H   0  0  0  0  0  0  0  0  0  0  0  0
   58.9117   26.6394   43.2399 H   0  0  0  0  0  0  0  0  0  0  0  0
   56.6540   27.4640   43.4650 H   0  0  0  0  0  0  0  0  0  0  0  0
  1  2  1  0
  2  3  1  0
  3  4  1  0
  4  5  2  0
  5  6  1  0
  6  7  2  0
  7  8  1  0
  8  9  2  0
  9 10  1  0
 10 11  2  0
 10 12  1  0
 12 13  1  0
 13 14  2  0
 14 15  1  0
 15 16  2  0
 16 17  1  0
 17 18  1  0
 18 19  2  0
  9  4  1  0
 18 13  1  0
  1 20  1  0
  1 21  1  0
  1 22  1  0
  2 23  1  0
  2 24  1  0
  5 25  1  0
  6 26  1  0
  7 27  1  0
  8 28  1  0
 14 29  1  0
 15 30  1  0
 16 31  1  0
 17 32  1  0
M  END
>  <UniqueID>  (37) 
35

>  <SMILES>  (37) 
CCOc1ccccc1C(=O)Oc1ccc[nH]c1=O

>  <Energy>  (37) 
38.15502958589948

>  <Genealogy>  (37) 
CCOc1ccccc1C(=O)Oc1ccc[nH]c1=O (3D coordinates assigned)
CCOc1ccccc1C(=O)Oc1ccc[nH]c1=O (optimized conformer: 38.15502958589948 kcal/mol)

>  <smiles>  (37) 
CCOc1ccccc1C(=O)Oc1ccc[nH]c1=O

>  <score_type>  (37) 
oracle

>  <origin>  (37) 
adg

>  <m_score__min__energy>  (37) 
-7.0999999999999996

>  <m_primary>  (37) 
energy

$$$$
37:0
     RDKit          3D

 57 60  0  0  0  0  0  0  0  0999 V2000
   55.0224   22.4195   46.4394 H   0  0  0  0  0  0  0  0  0  0  0  0
   55.2380   23.4860   46.2780 C   0  0  0  0  0  0  0  0  0  0  0  0
   54.2380   24.3470   45.8160 C   0  0  0  0  0  0  0  0  0  0  0  0
   52.8730   23.8230   45.5010 C   0  0  0  0  0  0  0  0  0  0  0  0
   52.3345   23.6163   46.4376 H   0  0  0  0  0  0  0  0  0  0  0  0
   52.3184   24.5722   44.9169 H   0  0  0  0  0  0  0  0  0  0  0  0
   52.9622   22.8952   44.9169 H   0  0  0  0  0  0  0  0  0  0  0  0
   54.5200   25.6630   45.6160 N   0  0  0  0  0  0  0  0  0  0  0  0
   55.7460   26.1990   45.8700 C   0  0  0  0  0  0  0  0  0  0  0  0
   55.9190   27.4710   45.6420 N   0  0  0  0  0  0  0  0  0  0  0  0
   57.1310   28.1760   45.3210 C   0  0  0  0  0  0  0  0  0  0  0  0
   57.2430   28.7840   44.2210 O   0  0  0  0  0  0  0  0  0  0  0  0
   58.2900   28.1090   46.2420 C   0  0  0  0  0  0  0  0  0  0  0  0
   59.3470   27.2110   45.9990 C   0  0  0  0  0  0  0  0  0  0  0  0
   59.3144   26.5542   45.1172 H   0  0  0  0  0  0  0  0  0  0  0  0
   60.4370   27.1490   46.8710 C   0  0  0  0  0  0  0  0  0  0  0  0
   61.2587   26.4454   46.6719 H   0  0  0  0  0  0  0  0  0  0  0  0
   60.4870   27.9760   47.9930 C   0  0  0  0  0  0  0  0  0  0  0  0
   61.3470   27.9210   48.6767 H   0  0  0  0  0  0  0  0  0  0  0  0
   59.4460   28.8760   48.2520 C   0  0  0  0  0  0  0  0  0  0  0  0
   59.5140   29.9360   49.6620 S   0  0  0  0  0  0  0  0  0  0  0  0
   60.4870   29.3720   50.6620 O   0  0  0  0  0  0  0  0  0  0  0  0
   58.1580   29.9840   50.3090 O   0  0  0  0  0  0  0  0  0  0  0  0
   60.0030   31.5550   49.2270 N   0  0  0  0  0  0  0  0  0  0  0  0
   60.9870   31.5220   48.1390 C   0  0  0  0  0  0  0  0  0  0  0  0
   61.9284   31.0924   48.5122 H   0  0  0  0  0  0  0  0  0  0  0  0
   60.5953   30.9052   47.3168 H   0  0  0  0  0  0  0  0  0  0  0  0
   61.2480   32.9500   47.6200 C   0  0  0  0  0  0  0  0  0  0  0  0
   62.2954   33.0155   47.2905 H   0  0  0  0  0  0  0  0  0  0  0  0
   60.5417   33.1310   46.7963 H   0  0  0  0  0  0  0  0  0  0  0  0
   61.0090   34.0010   48.6430 N   0  0  0  0  0  0  0  0  0  0  0  0
   59.6490   34.5810   48.5530 C   0  0  0  0  0  0  0  0  0  0  0  0
   59.0359   34.1902   49.3785 H   0  0  0  0  0  0  0  0  0  0  0  0
   59.7300   35.6761   48.6181 H   0  0  0  0  0  0  0  0  0  0  0  0
   58.9960   34.2250   47.2430 C   0  0  0  0  0  0  0  0  0  0  0  0
   58.0350   33.2030   47.1780 C   0  0  0  0  0  0  0  0  0  0  0  0
   57.7667   32.6444   48.0868 H   0  0  0  0  0  0  0  0  0  0  0  0
   57.4180   32.8930   45.9620 C   0  0  0  0  0  0  0  0  0  0  0  0
   56.6669   32.0907   45.9157 H   0  0  0  0  0  0  0  0  0  0  0  0
   57.7550   33.6020   44.8050 C   0  0  0  0  0  0  0  0  0  0  0  0
   57.2700   33.3563   43.8488 H   0  0  0  0  0  0  0  0  0  0  0  0
   58.7080   34.6230   44.8630 C   0  0  0  0  0  0  0  0  0  0  0  0
   58.9713   35.1810   43.9523 H   0  0  0  0  0  0  0  0  0  0  0  0
   59.3270   34.9360   46.0770 C   0  0  0  0  0  0  0  0  0  0  0  0
   60.0753   35.7412   46.1195 H   0  0  0  0  0  0  0  0  0  0  0  0
   61.3450   33.5220   50.0030 C   0  0  0  0  0  0  0  0  0  0  0  0
   62.4178   33.2812   50.0371 H   0  0  0  0  0  0  0  0  0  0  0  0
   61.0871   34.3223   50.7122 H   0  0  0  0  0  0  0  0  0  0  0  0
   60.5420   32.2640   50.4030 C   0  0  0  0  0  0  0  0  0  0  0  0
   61.2037   31.5816   50.9566 H   0  0  0  0  0  0  0  0  0  0  0  0
   59.6931   32.5862   51.0239 H   0  0  0  0  0  0  0  0  0  0  0  0
   58.3500   28.9370   47.3790 C   0  0  0  0  0  0  0  0  0  0  0  0
   57.5287   29.6392   47.5849 H   0  0  0  0  0  0  0  0  0  0  0  0
   56.7770   25.3490   46.3290 C   0  0  0  0  0  0  0  0  0  0  0  0
   57.7814   25.7524   46.5249 H   0  0  0  0  0  0  0  0  0  0  0  0
   56.5120   23.9940   46.5320 C   0  0  0  0  0  0  0  0  0  0  0  0
   57.3083   23.3262   46.8925 H   0  0  0  0  0  0  0  0  0  0  0  0
  1  2  1  0
  2  3  2  0
  3  4  1  0
  4  5  1  0
  4  6  1  0
  4  7  1  0
  3  8  1  0
  8  9  1  0
  9 10  2  0
 10 11  1  0
 11 12  2  0
 11 13  1  0
 13 14  2  0
 14 15  1  0
 14 16  1  0
 16 17  1  0
 16 18  2  0
 18 19  1  0
 18 20  1  0
 20 21  1  0
 21 22  2  0
 21 23  2  0
 21 24  1  0
 24 25  1  0
 25 26  1  0
 25 27  1  0
 25 28  1  0
 28 29  1  0
 28 30  1  0
 28 31  1  0
 31 32  1  0
 32 33  1  0
 32 34  1  0
 32 35  1  0
 35 36  2  0
 36 37  1  0
 36 38  1  0
 38 39  1  0
 38 40  2  0
 40 41  1  0
 40 42  1  0
 42 43  1  0
 42 44  2  0
 44 45  1  0
 31 46  1  0
 46 47  1  0
 46 48  1  0
 46 49  1  0
 49 50  1  0
 49 51  1  0
 20 52  2  0
 52 53  1  0
  9 54  1  0
 54 55  1  0
 54 56  2  0
 56 57  1  0
 56  2  1  0
 52 13  1  0
 49 24  1  0
 44 35  1  0
M  CHG  1   8  -1
M  END
>  <UniqueID>  (38) 
36

>  <SMILES>  (38) 
Cc1ccc/c(=N\C(=O)c2cccc(S(=O)(=O)N3CCN(Cc4ccccc4)CC3)c2)[n-]1

>  <Energy>  (38) 
77.59938366164018

>  <Genealogy>  (38) 
Cc1cccc(=NC(=O)c2cccc(S(=O)(=O)N3CCN(Cc4ccccc4)CC3)c2)[n-]1 (protonated)
Cc1ccc/c(=N\C(=O)c2cccc(S(=O)(=O)N3CCN(Cc4ccccc4)CC3)c2)[n-]1 (cis-trans isomerization)
Cc1ccc/c(=N\C(=O)c2cccc(S(=O)(=O)N3CCN(Cc4ccccc4)CC3)c2)[n-]1 (3D coordinates assigned)
Cc1ccc/c(=N\C(=O)c2cccc(S(=O)(=O)N3CCN(Cc4ccccc4)CC3)c2)[n-]1 (nonaromatic ring conformer: 77.59938366164018 kcal/mol)

>  <smiles>  (38) 
Cc1cccc(=NC(=O)c2cccc(S(=O)(=O)N3CCN(Cc4ccccc4)CC3)c2)[nH]1

>  <score_type>  (38) 
oracle

>  <origin>  (38) 
adg

>  <m_score__min__energy>  (38) 
-12.31

>  <m_primary>  (38) 
energy

$$$$
38:0
     RDKit          3D

 41 44  0  0  0  0  0  0  0  0999 V2000
   55.9210   28.6980   44.9040 N   0  0  0  0  0  0  0  0  0  0  0  0
   56.6980   29.6940   45.1790 C   0  0  0  0  0  0  0  0  0  0  0  0
   56.5630   30.9170   44.5890 N   0  0  0  0  0  0  0  0  0  0  0  0
   57.5260   31.7180   45.0930 C   0  0  0  0  0  0  0  0  0  0  0  0
   57.7490   33.0210   44.8790 N   0  0  0  0  0  0  0  0  0  0  0  0
   58.7780   33.3280   45.7170 C   0  0  0  0  0  0  0  0  0  0  0  0
   59.1880   32.1980   46.4390 C   0  0  0  0  0  0  0  0  0  0  0  0
   60.1870   32.1370   47.5500 C   0  0  0  0  0  0  0  0  0  0  0  0
   59.5890   32.6920   48.8020 C   0  0  0  0  0  0  0  0  0  0  0  0
   58.9440   33.7730   48.7590 O   0  0  0  0  0  0  0  0  0  0  0  0
   59.6660   31.9290   50.0130 N   0  0  0  0  0  0  0  0  0  0  0  0
   58.5630   31.4580   50.7990 C   0  0  0  0  0  0  0  0  0  0  0  0
   58.5420   30.1130   51.1880 C   0  0  0  0  0  0  0  0  0  0  0  0
   57.4880   29.6140   51.9570 C   0  0  0  0  0  0  0  0  0  0  0  0
   56.4360   30.4520   52.3410 C   0  0  0  0  0  0  0  0  0  0  0  0
   55.3600   29.9140   53.1170 N   0  0  0  0  0  0  0  0  0  0  0  0
   53.9720   29.9390   52.7550 C   0  0  0  0  0  0  0  0  0  0  0  0
   53.3730   28.8440   52.5840 O   0  0  0  0  0  0  0  0  0  0  0  0
   53.2270   31.2250   52.5080 C   0  0  0  0  0  0  0  0  0  0  0  0
   52.4160   31.1540   51.2470 C   0  0  0  0  0  0  0  0  0  0  0  0
   52.5840   29.9830   50.0460 S   0  0  0  0  0  0  0  0  0  0  0  0
   51.3590   30.6500   49.1090 C   0  0  0  0  0  0  0  0  0  0  0  0
   50.9800   30.1860   48.0030 O   0  0  0  0  0  0  0  0  0  0  0  0
   50.8160   31.7500   49.6700 N   0  0  0  0  0  0  0  0  0  0  0  0
   51.4060   32.0330   50.8600 C   0  0  0  0  0  0  0  0  0  0  0  0
   51.0180   33.1250   51.6270 O   0  0  0  0  0  0  0  0  0  0  0  0
   56.4820   31.8140   52.0060 C   0  0  0  0  0  0  0  0  0  0  0  0
   57.5370   32.3150   51.2370 C   0  0  0  0  0  0  0  0  0  0  0  0
   58.3490   31.2010   46.0090 C   0  0  0  0  0  0  0  0  0  0  0  0
   57.9700   29.6020   46.3270 S   0  0  0  0  0  0  0  0  0  0  0  0
   56.2830   27.8490   44.4150 H   0  0  0  0  0  0  0  0  0  0  0  0
   57.2280   33.6650   44.2440 H   0  0  0  0  0  0  0  0  0  0  0  0
   59.2268   34.3275   45.8142 H   0  0  0  0  0  0  0  0  0  0  0  0
   60.4813   31.0907   47.7189 H   0  0  0  0  0  0  0  0  0  0  0  0
   61.0707   32.7319   47.2758 H   0  0  0  0  0  0  0  0  0  0  0  0
   59.3616   29.4444   50.8858 H   0  0  0  0  0  0  0  0  0  0  0  0
   57.4853   28.5571   52.2620 H   0  0  0  0  0  0  0  0  0  0  0  0
   52.5537   31.4173   53.3563 H   0  0  0  0  0  0  0  0  0  0  0  0
   53.9622   32.0363   52.4018 H   0  0  0  0  0  0  0  0  0  0  0  0
   55.6852   32.4900   52.3496 H   0  0  0  0  0  0  0  0  0  0  0  0
   57.5647   33.3827   50.9737 H   0  0  0  0  0  0  0  0  0  0  0  0
  1  2  2  3
  2  3  1  0
  3  4  1  0
  4  5  1  0
  5  6  1  0
  6  7  2  0
  7  8  1  0
  8  9  1  0
  9 10  2  0
  9 11  1  0
 11 12  1  0
 12 13  2  0
 13 14  1  0
 14 15  2  0
 15 16  1  0
 16 17  1  0
 17 18  2  0
 17 19  1  0
 19 20  1  0
 20 21  1  0
 21 22  1  0
 22 23  2  0
 22 24  1  0
 24 25  1  0
 25 26  1  0
 15 27  1  0
 27 28  2  0
  7 29  1  0
 29 30  1  0
 30  2  1  0
 29  4  2  0
 28 12  1  0
 25 20  2  0
  1 31  1  0
  5 32  1  0
  6 33  1  0
  8 34  1  0
  8 35  1  0
 13 36  1  0
 14 37  1  0
 19 38  1  0
 19 39  1  0
 27 40  1  0
 28 41  1  0
M  CHG  5   3  -1  11  -1  16  -1  24  -1  26  -1
M  END
>  <UniqueID>  (39) 
37

>  <SMILES>  (39) 
N=c1[n-]c2[nH]cc(CC(=O)[N-]c3ccc([N-]C(=O)Cc4sc(=O)[n-]c4[O-])cc3)c2s1

>  <Energy>  (39) 
157.93383235673392

>  <Genealogy>  (39) 
N=c1[n-]c2[nH]cc(CC(=O)[N-]c3ccc([N-]C(=O)Cc4sc(=O)[n-]c4[O-])cc3)c2s1 (protonated)
N=c1[n-]c2[nH]cc(CC(=O)[N-]c3ccc([N-]C(=O)Cc4sc(=O)[n-]c4[O-])cc3)c2s1 (3D coordinates assigned)
N=c1[n-]c2[nH]cc(CC(=O)[N-]c3ccc([N-]C(=O)Cc4sc(=O)[n-]c4[O-])cc3)c2s1 (optimized conformer: 157.93383235673392 kcal/mol)

>  <smiles>  (39) 
N=c1[nH]c2[nH]cc(CC(=O)Nc3ccc(NC(=O)Cc4sc(=O)[nH]c4O)cc3)c2s1

>  <score_type>  (39) 
oracle

>  <origin>  (39) 
adg

>  <m_score__min__energy>  (39) 
-19.829999999999998

>  <m_primary>  (39) 
energy

$$$$
39:0
     RDKit          3D

 59 62  0  0  0  0  0  0  0  0999 V2000
   58.6280   25.9780   47.9640 O   0  0  0  0  0  0  0  0  0  0  0  0
   58.7820   27.0750   47.3660 C   0  0  0  0  0  0  0  0  0  0  0  0
   58.3610   27.1860   45.9990 N   0  0  0  0  0  0  0  0  0  0  0  0
   57.0560   27.6710   45.5530 C   0  0  0  0  0  0  0  0  0  0  0  0
   57.2020   28.9410   44.7560 C   0  0  0  0  0  0  0  0  0  0  0  0
   58.3620   29.7230   44.8810 C   0  0  0  0  0  0  0  0  0  0  0  0
   58.5260   30.8740   44.1020 C   0  0  0  0  0  0  0  0  0  0  0  0
   57.5300   31.2560   43.1980 C   0  0  0  0  0  0  0  0  0  0  0  0
   57.6960   32.3650   42.4340 F   0  0  0  0  0  0  0  0  0  0  0  0
   56.3650   30.4920   43.0790 C   0  0  0  0  0  0  0  0  0  0  0  0
   56.1980   29.3400   43.8570 C   0  0  0  0  0  0  0  0  0  0  0  0
   59.3340   28.2230   48.1070 C   0  0  0  0  0  0  0  0  0  0  0  0
   60.3970   28.0290   49.0020 C   0  0  0  0  0  0  0  0  0  0  0  0
   60.8970   29.1020   49.7440 C   0  0  0  0  0  0  0  0  0  0  0  0
   60.3470   30.3810   49.5910 C   0  0  0  0  0  0  0  0  0  0  0  0
   60.9990   31.7270   50.5220 S   0  0  0  0  0  0  0  0  0  0  0  0
   61.0190   31.3270   51.9720 O   0  0  0  0  0  0  0  0  0  0  0  0
   60.0940   32.9210   50.3820 O   0  0  0  0  0  0  0  0  0  0  0  0
   62.6340   32.1170   50.0130 N   0  0  0  0  0  0  0  0  0  0  0  0
   62.8650   33.5830   49.9860 C   0  0  0  0  0  0  0  0  0  0  0  0
   62.6650   34.2080   48.5890 C   0  0  0  0  0  0  0  0  0  0  0  0
   61.6920   33.4200   47.8160 N   0  0  0  0  0  0  0  0  0  0  0  0
   61.3040   34.1180   46.5770 C   0  0  0  0  0  0  0  0  0  0  0  0
   59.8300   33.9410   46.3170 C   0  0  0  0  0  0  0  0  0  0  0  0
   58.9850   33.4250   47.3130 C   0  0  0  0  0  0  0  0  0  0  0  0
   57.6130   33.3030   47.0760 C   0  0  0  0  0  0  0  0  0  0  0  0
   57.0750   33.7030   45.8480 C   0  0  0  0  0  0  0  0  0  0  0  0
   57.9090   34.2250   44.8560 C   0  0  0  0  0  0  0  0  0  0  0  0
   59.2820   34.3450   45.0880 C   0  0  0  0  0  0  0  0  0  0  0  0
   62.2240   32.0680   47.5310 C   0  0  0  0  0  0  0  0  0  0  0  0
   62.9940   31.4760   48.7320 C   0  0  0  0  0  0  0  0  0  0  0  0
   59.3030   30.5840   48.6750 C   0  0  0  0  0  0  0  0  0  0  0  0
   58.8000   29.5090   47.9360 C   0  0  0  0  0  0  0  0  0  0  0  0
   56.5813   26.9032   44.9244 H   0  0  0  0  0  0  0  0  0  0  0  0
   56.4356   27.8786   46.4373 H   0  0  0  0  0  0  0  0  0  0  0  0
   59.1456   29.4292   45.5949 H   0  0  0  0  0  0  0  0  0  0  0  0
   59.4394   31.4788   44.2010 H   0  0  0  0  0  0  0  0  0  0  0  0
   55.5784   30.7965   42.3730 H   0  0  0  0  0  0  0  0  0  0  0  0
   55.2775   28.7449   43.7643 H   0  0  0  0  0  0  0  0  0  0  0  0
   60.8384   27.0283   49.1199 H   0  0  0  0  0  0  0  0  0  0  0  0
   61.7249   28.9419   50.4503 H   0  0  0  0  0  0  0  0  0  0  0  0
   63.2620   31.7100   50.7460 H   0  0  0  0  0  0  0  0  0  0  0  0
   62.1626   34.0599   50.6854 H   0  0  0  0  0  0  0  0  0  0  0  0
   63.9138   33.7524   50.2711 H   0  0  0  0  0  0  0  0  0  0  0  0
   62.2927   35.2370   48.7009 H   0  0  0  0  0  0  0  0  0  0  0  0
   63.6274   34.2135   48.0564 H   0  0  0  0  0  0  0  0  0  0  0  0
   61.5284   35.1900   46.6789 H   0  0  0  0  0  0  0  0  0  0  0  0
   61.8696   33.6932   45.7346 H   0  0  0  0  0  0  0  0  0  0  0  0
   59.4040   33.1161   48.2820 H   0  0  0  0  0  0  0  0  0  0  0  0
   56.9553   32.8919   47.8560 H   0  0  0  0  0  0  0  0  0  0  0  0
   55.9949   33.6065   45.6634 H   0  0  0  0  0  0  0  0  0  0  0  0
   57.4847   34.5417   43.8918 H   0  0  0  0  0  0  0  0  0  0  0  0
   59.9360   34.7573   44.3055 H   0  0  0  0  0  0  0  0  0  0  0  0
   61.3838   31.4016   47.2862 H   0  0  0  0  0  0  0  0  0  0  0  0
   62.9272   32.1535   46.6895 H   0  0  0  0  0  0  0  0  0  0  0  0
   62.7672   30.4018   48.8002 H   0  0  0  0  0  0  0  0  0  0  0  0
   64.0655   31.6560   48.5605 H   0  0  0  0  0  0  0  0  0  0  0  0
   58.8800   31.5902   48.5384 H   0  0  0  0  0  0  0  0  0  0  0  0
   57.9827   29.6721   47.2180 H   0  0  0  0  0  0  0  0  0  0  0  0
  1  2  2  0
  2  3  1  0
  3  4  1  0
  4  5  1  0
  5  6  2  0
  6  7  1  0
  7  8  2  0
  8  9  1  0
  8 10  1  0
 10 11  2  0
  2 12  1  0
 12 13  2  0
 13 14  1  0
 14 15  2  0
 15 16  1  0
 16 17  2  0
 16 18  2  0
 16 19  1  0
 19 20  1  0
 20 21  1  0
 21 22  1  0
 22 23  1  0
 23 24  1  0
 24 25  2  0
 25 26  1  0
 26 27  2  0
 27 28  1  0
 28 29  2  0
 22 30  1  0
 30 31  1  0
 15 32  1  0
 32 33  2  0
 11  5  1  0
 33 12  1  0
 31 19  1  0
 29 24  1  0
  4 34  1  0
  4 35  1  0
  6 36  1  0
  7 37  1  0
 10 38  1  0
 11 39  1  0
 13 40  1  0
 14 41  1  0
 19 42  1  0
 20 43  1  0
 20 44  1  0
 21 45  1  0
 21 46  1  0
 23 47  1  0
 23 48  1  0
 25 49  1  0
 26 50  1  0
 27 51  1  0
 28 52  1  0
 29 53  1  0
 30 54  1  0
 30 55  1  0
 31 56  1  0
 31 57  1  0
 32 58  1  0
 33 59  1  0
M  CHG  2   3  -1  19   1
M  END
>  <UniqueID>  (40) 
38

>  <SMILES>  (40) 
O=C([N-]Cc1ccc(F)cc1)c1ccc(S(=O)(=O)[NH+]2CCN(Cc3ccccc3)CC2)cc1

>  <Energy>  (40) 
72.83875774105468

>  <Genealogy>  (40) 
O=C([N-]Cc1ccc(F)cc1)c1ccc(S(=O)(=O)[NH+]2CCN(Cc3ccccc3)CC2)cc1 (protonated)
O=C([N-]Cc1ccc(F)cc1)c1ccc(S(=O)(=O)[NH+]2CCN(Cc3ccccc3)CC2)cc1 (3D coordinates assigned)
O=C([N-]Cc1ccc(F)cc1)c1ccc(S(=O)(=O)[NH+]2CCN(Cc3ccccc3)CC2)cc1 (nonaromatic ring conformer: 72.83875774105468 kcal/mol)

>  <smiles>  (40) 
O=C(NCc1ccc(F)cc1)c1ccc(S(=O)(=O)N2CCN(Cc3ccccc3)CC2)cc1

>  <score_type>  (40) 
oracle

>  <origin>  (40) 
adg

>  <m_score__min__energy>  (40) 
-9.1300000000000008

>  <m_primary>  (40) 
energy

$$$$
40:0
     RDKit          3D

 52 53  0  0  0  0  0  0  0  0999 V2000
   56.6240   29.8880   54.3970 O   0  0  0  0  0  0  0  0  0  0  0  0
   55.8190   30.1150   53.4520 C   0  0  0  0  0  0  0  0  0  0  0  0
   56.1010   31.2540   52.4910 C   0  0  0  0  0  0  0  0  0  0  0  0
   56.9530   30.7880   51.2920 C   0  0  0  0  0  0  0  0  0  0  0  0
   58.1650   31.7070   50.9930 C   0  0  0  0  0  0  0  0  0  0  0  0
   59.1480   31.1870   49.9210 C   0  0  0  0  0  0  0  0  0  0  0  0
   60.6300   31.4040   50.2900 C   0  0  0  0  0  0  0  0  0  0  0  0
   60.8250   31.7950   51.7690 C   0  0  0  0  0  0  0  0  0  0  0  0
   61.4470   33.1960   51.9140 C   0  0  0  0  0  0  0  0  0  0  0  0
   62.6820   33.3450   51.0640 C   0  0  0  0  0  0  0  0  0  0  0  0
   62.7910   34.2030   50.0380 C   0  0  0  0  0  0  0  0  0  0  0  0
   62.0540   34.0730   48.7590 C   0  0  0  0  0  0  0  0  0  0  0  0
   62.7260   33.7670   47.5620 C   0  0  0  0  0  0  0  0  0  0  0  0
   64.1020   33.5450   47.5620 O   0  0  0  0  0  0  0  0  0  0  0  0
   62.0290   33.6900   46.3960 N   0  0  0  0  0  0  0  0  0  0  0  0
   60.6890   33.9140   46.3610 C   0  0  0  0  0  0  0  0  0  0  0  0
   60.0670   33.8470   45.2670 O   0  0  0  0  0  0  0  0  0  0  0  0
   60.0210   34.2210   47.5050 N   0  0  0  0  0  0  0  0  0  0  0  0
   60.6720   34.3080   48.6980 C   0  0  0  0  0  0  0  0  0  0  0  0
   60.0230   34.5760   49.7440 O   0  0  0  0  0  0  0  0  0  0  0  0
   54.6300   29.3150   53.3690 N   0  0  0  0  0  0  0  0  0  0  0  0
   53.7090   29.2400   52.2350 C   0  0  0  0  0  0  0  0  0  0  0  0
   52.7340   30.3930   52.2620 C   0  0  0  0  0  0  0  0  0  0  0  0
   52.2300   30.8640   53.4890 C   0  0  0  0  0  0  0  0  0  0  0  0
   51.3420   31.9500   53.5200 C   0  0  0  0  0  0  0  0  0  0  0  0
   50.9460   32.5700   52.3270 C   0  0  0  0  0  0  0  0  0  0  0  0
   50.0690   33.6520   52.3650 O   0  0  0  0  0  0  0  0  0  0  0  0
   51.4300   32.0930   51.0990 C   0  0  0  0  0  0  0  0  0  0  0  0
   51.0360   32.7000   49.9100 O   0  0  0  0  0  0  0  0  0  0  0  0
   52.3130   31.0040   51.0680 C   0  0  0  0  0  0  0  0  0  0  0  0
   55.1455   31.6505   52.1172 H   0  0  0  0  0  0  0  0  0  0  0  0
   56.6634   32.0292   53.0320 H   0  0  0  0  0  0  0  0  0  0  0  0
   57.3287   29.7764   51.5055 H   0  0  0  0  0  0  0  0  0  0  0  0
   56.3023   30.8162   50.4055 H   0  0  0  0  0  0  0  0  0  0  0  0
   57.7773   32.6789   50.6538 H   0  0  0  0  0  0  0  0  0  0  0  0
   58.7406   31.7601   51.9289 H   0  0  0  0  0  0  0  0  0  0  0  0
   58.9770   30.1089   49.7851 H   0  0  0  0  0  0  0  0  0  0  0  0
   58.9561   31.7584   49.0008 H   0  0  0  0  0  0  0  0  0  0  0  0
   61.1807   30.4715   50.0972 H   0  0  0  0  0  0  0  0  0  0  0  0
   61.0070   32.2343   49.6748 H   0  0  0  0  0  0  0  0  0  0  0  0
   59.8464   31.7864   52.2714 H   0  0  0  0  0  0  0  0  0  0  0  0
   61.5115   31.0676   52.2268 H   0  0  0  0  0  0  0  0  0  0  0  0
   60.7073   33.9488   51.6040 H   0  0  0  0  0  0  0  0  0  0  0  0
   61.7343   33.3377   52.9663 H   0  0  0  0  0  0  0  0  0  0  0  0
   63.5491   32.7104   51.2993 H   0  0  0  0  0  0  0  0  0  0  0  0
   63.4721   35.0590   50.1540 H   0  0  0  0  0  0  0  0  0  0  0  0
   64.4980   32.7320   47.1060 H   0  0  0  0  0  0  0  0  0  0  0  0
   54.2853   29.2763   51.2988 H   0  0  0  0  0  0  0  0  0  0  0  0
   53.1446   28.2980   52.2995 H   0  0  0  0  0  0  0  0  0  0  0  0
   52.5337   30.3784   54.4281 H   0  0  0  0  0  0  0  0  0  0  0  0
   50.9557   32.3156   54.4829 H   0  0  0  0  0  0  0  0  0  0  0  0
   52.6789   30.6251   50.1023 H   0  0  0  0  0  0  0  0  0  0  0  0
  1  2  2  0
  2  3  1  0
  3  4  1  0
  4  5  1  0
  5  6  1  0
  6  7  1  0
  7  8  1  0
  8  9  1  0
  9 10  1  0
 10 11  2  3
 11 12  1  0
 12 13  2  0
 13 14  1  0
 13 15  1  0
 15 16  1  0
 16 17  2  0
 16 18  1  0
 18 19  1  0
 19 20  2  0
  2 21  1  0
 21 22  1  0
 22 23  1  0
 23 24  2  0
 24 25  1  0
 25 26  2  0
 26 27  1  0
 26 28  1  0
 28 29  1  0
 28 30  2  0
 19 12  1  0
 30 23  1  0
  3 31  1  0
  3 32  1  0
  4 33  1  0
  4 34  1  0
  5 35  1  0
  5 36  1  0
  6 37  1  0
  6 38  1  0
  7 39  1  0
  7 40  1  0
  8 41  1  0
  8 42  1  0
  9 43  1  0
  9 44  1  0
 10 45  1  0
 11 46  1  0
 14 47  1  0
 22 48  1  0
 22 49  1  0
 24 50  1  0
 25 51  1  0
 30 52  1  0
M  CHG  5  15  -1  18  -1  21  -1  27  -1  29  -1
M  END
>  <UniqueID>  (41) 
39

>  <SMILES>  (41) 
O=C(CCCCCCCC=Cc1c(O)[n-]c(=O)[n-]c1=O)[N-]Cc1ccc([O-])c([O-])c1

>  <Energy>  (41) 
48.01256478511236

>  <Genealogy>  (41) 
O=C(CCCCCCCC=Cc1c(O)[n-]c(=O)[n-]c1=O)[N-]Cc1ccc([O-])c([O-])c1 (protonated)
O=C(CCCCCCCC=Cc1c(O)[n-]c(=O)[n-]c1=O)[N-]Cc1ccc([O-])c([O-])c1 (3D coordinates assigned)
O=C(CCCCCCCC=Cc1c(O)[n-]c(=O)[n-]c1=O)[N-]Cc1ccc([O-])c([O-])c1 (optimized conformer: 48.01256478511236 kcal/mol)

>  <smiles>  (41) 
O=C(CCCCCCCC=Cc1c(O)[nH]c(=O)[nH]c1=O)NCc1ccc(O)c(O)c1

>  <score_type>  (41) 
oracle

>  <origin>  (41) 
adg

>  <m_score__min__energy>  (41) 
-21.420000000000002

>  <m_primary>  (41) 
energy

$$$$
41:0
     RDKit          3D

 58 61  0  0  0  0  0  0  0  0999 V2000
   58.6610   33.0560   51.7330 C   0  0  0  0  0  0  0  0  0  0  0  0
   57.4410   32.3130   52.2790 C   0  0  0  0  0  0  0  0  0  0  0  0
   57.7530   31.4980   53.5430 C   0  0  0  0  0  0  0  0  0  0  0  0
   57.8530   29.7410   53.2240 S   0  0  0  0  0  0  0  0  0  0  0  0
   57.8020   28.9930   54.5270 O   0  0  0  0  0  0  0  0  0  0  0  0
   56.6850   29.3370   52.3680 O   0  0  0  0  0  0  0  0  0  0  0  0
   59.3400   29.3840   52.4080 N   0  0  0  0  0  0  0  0  0  0  0  0
   59.6030   29.6650   51.0280 C   0  0  0  0  0  0  0  0  0  0  0  0
   60.9210   29.9190   50.6330 C   0  0  0  0  0  0  0  0  0  0  0  0
   61.2050   30.2920   49.3170 C   0  0  0  0  0  0  0  0  0  0  0  0
   60.1720   30.4190   48.3820 C   0  0  0  0  0  0  0  0  0  0  0  0
   60.4730   30.9010   47.1020 O   0  0  0  0  0  0  0  0  0  0  0  0
   59.9600   32.0890   46.5550 C   0  0  0  0  0  0  0  0  0  0  0  0
   58.9660   32.2070   45.5820 C   0  0  0  0  0  0  0  0  0  0  0  0
   58.1410   31.1380   44.9800 C   0  0  0  0  0  0  0  0  0  0  0  0
   57.4390   31.3800   43.7880 C   0  0  0  0  0  0  0  0  0  0  0  0
   56.7070   30.3560   43.1830 C   0  0  0  0  0  0  0  0  0  0  0  0
   56.6580   29.0870   43.7650 C   0  0  0  0  0  0  0  0  0  0  0  0
   57.3330   28.8390   44.9680 C   0  0  0  0  0  0  0  0  0  0  0  0
   57.2630   27.2530   45.7290 S   0  0  0  0  0  0  0  0  0  0  0  0
   55.6120   26.8050   45.9760 N   0  0  0  0  0  0  0  0  0  0  0  0
   57.9790   27.2940   47.0480 O   0  0  0  0  0  0  0  0  0  0  0  0
   57.9210   26.2240   44.8520 O   0  0  0  0  0  0  0  0  0  0  0  0
   58.0650   29.8680   45.5770 C   0  0  0  0  0  0  0  0  0  0  0  0
   58.8450   33.5590   45.3080 C   0  0  0  0  0  0  0  0  0  0  0  0
   59.7370   34.1960   46.1450 C   0  0  0  0  0  0  0  0  0  0  0  0
   59.9000   35.5760   46.2180 O   0  0  0  0  0  0  0  0  0  0  0  0
   60.4100   33.3110   46.9090 N   0  0  0  0  0  0  0  0  0  0  0  0
   61.4220   33.6060   47.8890 C   0  0  0  0  0  0  0  0  0  0  0  0
   62.7840   33.5440   47.5450 C   0  0  0  0  0  0  0  0  0  0  0  0
   63.7670   33.8340   48.4960 C   0  0  0  0  0  0  0  0  0  0  0  0
   63.4000   34.1890   49.7970 C   0  0  0  0  0  0  0  0  0  0  0  0
   62.0490   34.2550   50.1480 C   0  0  0  0  0  0  0  0  0  0  0  0
   61.0630   33.9640   49.2000 C   0  0  0  0  0  0  0  0  0  0  0  0
   58.8630   30.0690   48.7510 C   0  0  0  0  0  0  0  0  0  0  0  0
   58.5760   29.7070   50.0700 C   0  0  0  0  0  0  0  0  0  0  0  0
   59.2698   33.4267   52.5708 H   0  0  0  0  0  0  0  0  0  0  0  0
   59.2626   32.3708   51.1177 H   0  0  0  0  0  0  0  0  0  0  0  0
   58.3282   33.9049   51.1177 H   0  0  0  0  0  0  0  0  0  0  0  0
   56.6605   33.0497   52.5203 H   0  0  0  0  0  0  0  0  0  0  0  0
   57.1113   31.6058   51.5036 H   0  0  0  0  0  0  0  0  0  0  0  0
   58.7165   31.8369   53.9514 H   0  0  0  0  0  0  0  0  0  0  0  0
   56.9300   31.6602   54.2546 H   0  0  0  0  0  0  0  0  0  0  0  0
   61.7384   29.8244   51.3630 H   0  0  0  0  0  0  0  0  0  0  0  0
   62.2446   30.4866   49.0148 H   0  0  0  0  0  0  0  0  0  0  0  0
   57.4658   32.3794   43.3293 H   0  0  0  0  0  0  0  0  0  0  0  0
   56.1669   30.5495   42.2445 H   0  0  0  0  0  0  0  0  0  0  0  0
   56.0888   28.2812   43.2784 H   0  0  0  0  0  0  0  0  0  0  0  0
   55.1050   26.9970   45.0830 H   0  0  0  0  0  0  0  0  0  0  0  0
   58.5835   29.6800   46.5288 H   0  0  0  0  0  0  0  0  0  0  0  0
   58.1746   34.0287   44.5732 H   0  0  0  0  0  0  0  0  0  0  0  0
   63.0777   33.2658   46.5221 H   0  0  0  0  0  0  0  0  0  0  0  0
   64.8305   33.7827   48.2199 H   0  0  0  0  0  0  0  0  0  0  0  0
   64.1744   34.4164   50.5444 H   0  0  0  0  0  0  0  0  0  0  0  0
   61.7607   34.5363   51.1716 H   0  0  0  0  0  0  0  0  0  0  0  0
   60.0009   34.0155   49.4817 H   0  0  0  0  0  0  0  0  0  0  0  0
   58.0604   30.0798   47.9989 H   0  0  0  0  0  0  0  0  0  0  0  0
   57.5449   29.4547   50.3585 H   0  0  0  0  0  0  0  0  0  0  0  0
  1  2  1  0
  2  3  1  0
  3  4  1  0
  4  5  2  0
  4  6  2  0
  4  7  1  0
  7  8  1  0
  8  9  2  0
  9 10  1  0
 10 11  2  0
 11 12  1  0
 12 13  1  0
 13 14  2  0
 14 15  1  0
 15 16  2  0
 16 17  1  0
 17 18  2  0
 18 19  1  0
 19 20  1  0
 20 21  1  0
 20 22  2  0
 20 23  2  0
 19 24  2  0
 14 25  1  0
 25 26  2  0
 26 27  1  0
 26 28  1  0
 28 29  1  0
 29 30  2  0
 30 31  1  0
 31 32  2  0
 32 33  1  0
 33 34  2  0
 11 35  1  0
 35 36  2  0
 36  8  1  0
 28 13  1  0
 34 29  1  0
 24 15  1  0
  1 37  1  0
  1 38  1  0
  1 39  1  0
  2 40  1  0
  2 41  1  0
  3 42  1  0
  3 43  1  0
  9 44  1  0
 10 45  1  0
 16 46  1  0
 17 47  1  0
 18 48  1  0
 21 49  1  0
 24 50  1  0
 25 51  1  0
 30 52  1  0
 31 53  1  0
 32 54  1  0
 33 55  1  0
 34 56  1  0
 35 57  1  0
 36 58  1  0
M  CHG  3   7  -1  21  -1  27  -1
M  END
>  <UniqueID>  (42) 
40

>  <SMILES>  (42) 
CCCS(=O)(=O)[N-]c1ccc(Oc2c(-c3cccc(S([NH-])(=O)=O)c3)cc([O-])n2-c2ccccc2)cc1

>  <Energy>  (42) 
97.47620014699424

>  <Genealogy>  (42) 
CCCS(=O)(=O)[N-]c1ccc(Oc2c(-c3cccc(S([NH-])(=O)=O)c3)cc([O-])n2-c2ccccc2)cc1 (protonated)
CCCS(=O)(=O)[N-]c1ccc(Oc2c(-c3cccc(S([NH-])(=O)=O)c3)cc([O-])n2-c2ccccc2)cc1 (3D coordinates assigned)
CCCS(=O)(=O)[N-]c1ccc(Oc2c(-c3cccc(S([NH-])(=O)=O)c3)cc([O-])n2-c2ccccc2)cc1 (optimized conformer: 97.47620014699424 kcal/mol)

>  <smiles>  (42) 
CCCS(=O)(=O)Nc1ccc(Oc2c(-c3cccc(S(N)(=O)=O)c3)cc(O)n2-c2ccccc2)cc1

>  <score_type>  (42) 
oracle

>  <origin>  (42) 
adg

>  <m_score__min__energy>  (42) 
-14.859999999999999

>  <m_primary>  (42) 
energy

$$$$
42:0
     RDKit          3D

 31 32  0  0  1  0  0  0  0  0999 V2000
   58.0490   32.3910   42.5500 C   0  0  0  0  0  0  0  0  0  0  0  0
   57.8150   31.1840   43.4050 C   0  0  0  0  0  0  0  0  0  0  0  0
   56.5320   30.7960   43.7320 C   0  0  0  0  0  0  0  0  0  0  0  0
   56.4100   29.6550   44.5350 C   0  0  0  0  0  0  0  0  0  0  0  0
   55.2660   29.2370   44.8790 O   0  0  0  0  0  0  0  0  0  0  0  0
   57.5200   28.9870   44.9540 N   0  0  0  0  0  0  0  0  0  0  0  0
   58.7490   29.4090   44.6040 C   0  0  0  0  0  0  0  0  0  0  0  0
   60.2460   28.5820   45.1150 S   0  0  0  0  0  0  0  0  0  0  0  0
   60.0390   27.6250   46.6090 C   0  0  0  0  0  0  0  0  0  0  0  0
   58.6270   27.1640   46.7780 C   0  0  0  0  0  0  0  0  0  0  0  0
   57.8480   27.6620   47.6330 O   0  0  0  0  0  0  0  0  0  0  0  0
   58.2050   26.1040   45.8960 N   0  0  0  0  0  0  0  0  0  0  0  0
   56.9200   25.8920   45.8530 C   0  0  0  0  0  0  0  0  0  0  0  0
   56.3160   24.6720   45.5410 C   0  0  0  0  0  0  0  0  0  0  0  0
   54.9460   24.9280   45.6200 C   0  0  0  0  0  0  0  0  0  0  0  0
   53.9390   23.8680   45.3540 C   0  0  0  0  0  0  0  0  0  0  0  0
   54.7630   26.1890   45.9510 O   0  0  0  0  0  0  0  0  0  0  0  0
   55.9170   26.7570   46.0880 N   0  0  0  0  0  0  0  0  0  0  0  0
   58.8840   30.5030   43.8330 N   0  0  0  0  0  0  0  0  0  0  0  0
   58.2190   33.2678   43.1921 H   0  0  0  0  0  0  0  0  0  0  0  0
   58.9317   32.2249   41.9149 H   0  0  0  0  0  0  0  0  0  0  0  0
   57.1682   32.5668   41.9149 H   0  0  0  0  0  0  0  0  0  0  0  0
   55.6513   31.3535   43.3805 H   0  0  0  0  0  0  0  0  0  0  0  0
   57.4250   28.1320   45.5550 H   0  0  0  0  0  0  0  0  0  0  0  0
   60.6983   26.7456   46.5635 H   0  0  0  0  0  0  0  0  0  0  0  0
   60.2958   28.2657   47.4655 H   0  0  0  0  0  0  0  0  0  0  0  0
   56.8096   23.7217   45.2893 H   0  0  0  0  0  0  0  0  0  0  0  0
   53.5627   23.4719   46.3087 H   0  0  0  0  0  0  0  0  0  0  0  0
   53.1033   24.2923   44.7782 H   0  0  0  0  0  0  0  0  0  0  0  0
   54.4056   23.0552   44.7782 H   0  0  0  0  0  0  0  0  0  0  0  0
   56.0410   27.7730   46.3510 H   0  0  0  0  0  0  0  0  0  0  0  0
  1  2  1  0
  2  3  2  0
  3  4  1  0
  4  5  2  0
  4  6  1  0
  6  7  1  0
  7  8  1  0
  8  9  1  0
  9 10  1  0
 10 11  2  0
 10 12  1  0
 12 13  2  0
 13 14  1  0
 14 15  2  0
 15 16  1  0
 15 17  1  0
 17 18  1  0
  7 19  2  0
 19  2  1  0
 18 13  1  0
  1 20  1  0
  1 21  1  0
  1 22  1  0
  3 23  1  0
  6 24  1  0
  9 25  1  0
  9 26  1  0
 14 27  1  0
 16 28  1  0
 16 29  1  0
 16 30  1  0
 18 31  1  0
M  END
>  <smiles>  (43) 
Cc1cc(=O)[nH]c(SCC(=O)N=c2cc(C)o[nH]2)n1

>  <score_type>  (43) 
oracle

>  <origin>  (43) 
adg

>  <m_score__min__energy>  (43) 
-6.8300000000000001

>  <m_primary>  (43) 
energy

$$$$
43:0
     RDKit          3D

 46 48  0  0  0  0  0  0  0  0999 V2000
   55.8554   18.5250   44.7432 H   0  0  0  0  0  0  0  0  0  0  0  0
   55.9560   19.6090   44.9010 C   0  0  0  0  0  0  0  0  0  0  0  0
   55.7740   20.1410   46.1370 N   0  0  0  0  0  0  0  0  0  0  0  0
   55.8940   21.4770   46.3550 C   0  0  0  0  0  0  0  0  0  0  0  0
   55.7345   21.8904   47.3618 H   0  0  0  0  0  0  0  0  0  0  0  0
   56.2230   22.3260   45.2860 C   0  0  0  0  0  0  0  0  0  0  0  0
   56.3410   23.7870   45.4870 C   0  0  0  0  0  0  0  0  0  0  0  0
   55.2370   24.6050   45.8360 C   0  0  0  0  0  0  0  0  0  0  0  0
   53.8280   24.0800   45.9530 C   0  0  0  0  0  0  0  0  0  0  0  0
   53.2061   24.8309   46.4623 H   0  0  0  0  0  0  0  0  0  0  0  0
   53.8514   23.1425   46.5280 H   0  0  0  0  0  0  0  0  0  0  0  0
   53.2330   23.7900   44.5780 C   0  0  0  0  0  0  0  0  0  0  0  0
   52.2500   23.3109   44.6975 H   0  0  0  0  0  0  0  0  0  0  0  0
   53.1165   24.7324   44.0227 H   0  0  0  0  0  0  0  0  0  0  0  0
   53.9035   23.1177   44.0227 H   0  0  0  0  0  0  0  0  0  0  0  0
   55.4250   25.9440   45.9910 N   0  0  0  0  0  0  0  0  0  0  0  0
   56.6360   26.5450   45.8330 C   0  0  0  0  0  0  0  0  0  0  0  0
   56.7840   27.8250   46.0140 N   0  0  0  0  0  0  0  0  0  0  0  0
   57.1840   28.7860   45.0250 C   0  0  0  0  0  0  0  0  0  0  0  0
   58.3870   29.1600   44.9960 O   0  0  0  0  0  0  0  0  0  0  0  0
   56.2600   29.2720   44.0370 N   0  0  0  0  0  0  0  0  0  0  0  0
   55.3440   28.7890   43.9040 H   0  0  0  0  0  0  0  0  0  0  0  0
   56.5980   30.3570   43.1190 C   0  0  0  0  0  0  0  0  0  0  0  0
   57.3689   30.0100   42.4152 H   0  0  0  0  0  0  0  0  0  0  0  0
   55.6932   30.6557   42.5694 H   0  0  0  0  0  0  0  0  0  0  0  0
   57.1190   31.5390   43.8800 C   0  0  0  0  0  0  0  0  0  0  0  0
   56.6870   31.7680   45.1500 N   0  0  0  0  0  0  0  0  0  0  0  0
   57.1450   32.8140   45.8880 C   0  0  0  0  0  0  0  0  0  0  0  0
   56.7709   32.9667   46.9111 H   0  0  0  0  0  0  0  0  0  0  0  0
   58.0890   33.6970   45.3540 C   0  0  0  0  0  0  0  0  0  0  0  0
   58.5370   34.7650   46.1450 O   0  0  0  0  0  0  0  0  0  0  0  0
   59.3060   34.6140   47.3350 C   0  0  0  0  0  0  0  0  0  0  0  0
   58.6540   34.7420   48.2116 H   0  0  0  0  0  0  0  0  0  0  0  0
   59.7558   33.6104   47.3560 H   0  0  0  0  0  0  0  0  0  0  0  0
   60.1019   35.3730   47.3560 H   0  0  0  0  0  0  0  0  0  0  0  0
   58.5520   33.4760   44.0450 C   0  0  0  0  0  0  0  0  0  0  0  0
   59.2958   34.1549   43.6024 H   0  0  0  0  0  0  0  0  0  0  0  0
   58.0670   32.3940   43.3070 C   0  0  0  0  0  0  0  0  0  0  0  0
   58.4275   32.2153   42.2832 H   0  0  0  0  0  0  0  0  0  0  0  0
   57.7470   25.7680   45.5040 C   0  0  0  0  0  0  0  0  0  0  0  0
   58.7354   26.2364   45.3874 H   0  0  0  0  0  0  0  0  0  0  0  0
   57.5960   24.3940   45.3240 C   0  0  0  0  0  0  0  0  0  0  0  0
   58.4675   23.7804   45.0520 H   0  0  0  0  0  0  0  0  0  0  0  0
   56.3940   21.7850   44.0480 N   0  0  0  0  0  0  0  0  0  0  0  0
   56.2720   20.4500   43.8320 C   0  0  0  0  0  0  0  0  0  0  0  0
   56.4207   20.0349   42.8243 H   0  0  0  0  0  0  0  0  0  0  0  0
  1  2  1  0
  2  3  2  0
  3  4  1  0
  4  5  1  0
  4  6  2  0
  6  7  1  0
  7  8  2  0
  8  9  1  0
  9 10  1  0
  9 11  1  0
  9 12  1  0
 12 13  1  0
 12 14  1  0
 12 15  1  0
  8 16  1  0
 16 17  1  0
 17 18  2  0
 18 19  1  0
 19 20  2  0
 19 21  1  0
 21 22  1  0
 21 23  1  0
 23 24  1  0
 23 25  1  0
 23 26  1  0
 26 27  2  0
 27 28  1  0
 28 29  1  0
 28 30  2  0
 30 31  1  0
 31 32  1  0
 32 33  1  0
 32 34  1  0
 32 35  1  0
 30 36  1  0
 36 37  1  0
 36 38  2  0
 38 39  1  0
 17 40  1  0
 40 41  1  0
 40 42  2  0
 42 43  1  0
  6 44  1  0
 44 45  2  0
 45 46  1  0
 45  2  1  0
 42  7  1  0
 38 26  1  0
M  CHG  1  16  -1
M  END
>  <UniqueID>  (44) 
41

>  <SMILES>  (44) 
CCc1[n-]/c(=N\C(=O)NCc2ccc(OC)cn2)ccc1-c1cnccn1

>  <Energy>  (44) 
56.564883102878746

>  <Genealogy>  (44) 
CCc1[n-]c(=NC(=O)NCc2ccc(OC)cn2)ccc1-c1cnccn1 (protonated)
CCc1[n-]/c(=N\C(=O)NCc2ccc(OC)cn2)ccc1-c1cnccn1 (cis-trans isomerization)
CCc1[n-]/c(=N\C(=O)NCc2ccc(OC)cn2)ccc1-c1cnccn1 (3D coordinates assigned)
CCc1[n-]/c(=N\C(=O)NCc2ccc(OC)cn2)ccc1-c1cnccn1 (optimized conformer: 56.564883102878746 kcal/mol)

>  <smiles>  (44) 
CCc1[nH]c(=NC(=O)NCc2ccc(OC)cn2)ccc1-c1cnccn1

>  <score_type>  (44) 
oracle

>  <origin>  (44) 
adg

>  <m_score__min__energy>  (44) 
-8.7100000000000009

>  <m_primary>  (44) 
energy

$$$$
44:0
     RDKit          3D

 50 52  0  0  0  0  0  0  0  0999 V2000
   56.5890   29.4330   53.2880 C   0  0  0  0  0  0  0  0  0  0  0  0
   56.4770   30.0170   51.9410 N   0  0  0  0  0  0  0  0  0  0  0  0
   57.8170   30.2380   51.3430 C   0  0  0  0  0  0  0  0  0  0  0  0
   57.9310   31.6880   50.8730 C   0  0  0  0  0  0  0  0  0  0  0  0
   59.0750   31.8590   50.0360 O   0  0  0  0  0  0  0  0  0  0  0  0
   59.0000   32.1870   48.6750 C   0  0  0  0  0  0  0  0  0  0  0  0
   58.6200   31.2430   47.7720 N   0  0  0  0  0  0  0  0  0  0  0  0
   58.5170   31.5130   46.4470 C   0  0  0  0  0  0  0  0  0  0  0  0
   58.1110   30.4330   45.5230 C   0  0  0  0  0  0  0  0  0  0  0  0
   57.5540   30.6130   44.2670 C   0  0  0  0  0  0  0  0  0  0  0  0
   57.3420   29.3530   43.7470 C   0  0  0  0  0  0  0  0  0  0  0  0
   57.7320   28.4220   44.6380 N   0  0  0  0  0  0  0  0  0  0  0  0
   57.7400   26.9800   44.4230 C   0  0  0  0  0  0  0  0  0  0  0  0
   58.2160   29.0640   45.7170 C   0  0  0  0  0  0  0  0  0  0  0  0
   58.7930   32.8070   45.9970 C   0  0  0  0  0  0  0  0  0  0  0  0
   59.1780   33.7770   46.9250 C   0  0  0  0  0  0  0  0  0  0  0  0
   59.4070   34.9500   46.5210 O   0  0  0  0  0  0  0  0  0  0  0  0
   59.3020   33.4550   48.2540 N   0  0  0  0  0  0  0  0  0  0  0  0
   59.6840   34.4790   49.2390 C   0  0  0  0  0  0  0  0  0  0  0  0
   55.6760   31.2580   51.9910 C   0  0  0  0  0  0  0  0  0  0  0  0
   54.2060   30.9460   51.8920 C   0  0  0  0  0  0  0  0  0  0  0  0
   53.7330   29.6430   52.1240 C   0  0  0  0  0  0  0  0  0  0  0  0
   52.3630   29.3710   52.0610 C   0  0  0  0  0  0  0  0  0  0  0  0
   51.4570   30.3950   51.7720 C   0  0  0  0  0  0  0  0  0  0  0  0
   51.9190   31.6950   51.5430 C   0  0  0  0  0  0  0  0  0  0  0  0
   51.0170   32.7130   51.2580 O   0  0  0  0  0  0  0  0  0  0  0  0
   53.2900   31.9710   51.6040 C   0  0  0  0  0  0  0  0  0  0  0  0
   56.4382   30.2193   54.0423 H   0  0  0  0  0  0  0  0  0  0  0  0
   55.8242   28.6525   53.4140 H   0  0  0  0  0  0  0  0  0  0  0  0
   57.5883   28.9908   53.4140 H   0  0  0  0  0  0  0  0  0  0  0  0
   58.5928   30.0342   52.0957 H   0  0  0  0  0  0  0  0  0  0  0  0
   57.9524   29.5624   50.4856 H   0  0  0  0  0  0  0  0  0  0  0  0
   57.0265   31.9564   50.3075 H   0  0  0  0  0  0  0  0  0  0  0  0
   58.0372   32.3379   51.7541 H   0  0  0  0  0  0  0  0  0  0  0  0
   57.3257   31.5726   43.7801 H   0  0  0  0  0  0  0  0  0  0  0  0
   56.9183   29.1409   42.7543 H   0  0  0  0  0  0  0  0  0  0  0  0
   57.7429   26.4644   45.3947 H   0  0  0  0  0  0  0  0  0  0  0  0
   56.8435   26.6888   43.8561 H   0  0  0  0  0  0  0  0  0  0  0  0
   58.6397   26.6988   43.8561 H   0  0  0  0  0  0  0  0  0  0  0  0
   58.6302   28.5786   46.6130 H   0  0  0  0  0  0  0  0  0  0  0  0
   58.7084   33.0574   44.9292 H   0  0  0  0  0  0  0  0  0  0  0  0
   59.5365   34.0837   50.2549 H   0  0  0  0  0  0  0  0  0  0  0  0
   60.7420   34.7455   49.0993 H   0  0  0  0  0  0  0  0  0  0  0  0
   59.0590   35.3734   49.0993 H   0  0  0  0  0  0  0  0  0  0  0  0
   55.8721   31.7765   52.9411 H   0  0  0  0  0  0  0  0  0  0  0  0
   55.9602   31.8973   51.1422 H   0  0  0  0  0  0  0  0  0  0  0  0
   54.4426   28.8350   52.3558 H   0  0  0  0  0  0  0  0  0  0  0  0
   51.9976   28.3489   52.2393 H   0  0  0  0  0  0  0  0  0  0  0  0
   50.3796   30.1783   51.7246 H   0  0  0  0  0  0  0  0  0  0  0  0
   53.6513   32.9946   51.4257 H   0  0  0  0  0  0  0  0  0  0  0  0
  1  2  1  0
  2  3  1  0
  3  4  1  0
  4  5  1  0
  5  6  1  0
  6  7  2  0
  7  8  1  0
  8  9  1  0
  9 10  1  0
 10 11  2  0
 11 12  1  0
 12 13  1  0
 12 14  1  0
  8 15  2  0
 15 16  1  0
 16 17  2  0
 16 18  1  0
 18 19  1  0
  2 20  1  0
 20 21  1  0
 21 22  2  0
 22 23  1  0
 23 24  2  0
 24 25  1  0
 25 26  1  0
 25 27  2  0
 18  6  1  0
 27 21  1  0
 14  9  2  0
  1 28  1  0
  1 29  1  0
  1 30  1  0
  3 31  1  0
  3 32  1  0
  4 33  1  0
  4 34  1  0
 10 35  1  0
 11 36  1  0
 13 37  1  0
 13 38  1  0
 13 39  1  0
 14 40  1  0
 15 41  1  0
 19 42  1  0
 19 43  1  0
 19 44  1  0
 20 45  1  0
 20 46  1  0
 22 47  1  0
 23 48  1  0
 24 49  1  0
 27 50  1  0
M  CHG  1  26  -1
M  END
>  <UniqueID>  (45) 
42

>  <SMILES>  (45) 
CN(CCOc1nc(-c2ccn(C)c2)cc(=O)n1C)Cc1cccc([O-])c1

>  <Energy>  (45) 
78.97700495952216

>  <Genealogy>  (45) 
CN(CCOc1nc(-c2ccn(C)c2)cc(=O)n1C)Cc1cccc([O-])c1 (protonated)
CN(CCOc1nc(-c2ccn(C)c2)cc(=O)n1C)Cc1cccc([O-])c1 (3D coordinates assigned)
CN(CCOc1nc(-c2ccn(C)c2)cc(=O)n1C)Cc1cccc([O-])c1 (optimized conformer: 78.97700495952216 kcal/mol)

>  <smiles>  (45) 
CN(CCOc1nc(-c2ccn(C)c2)cc(=O)n1C)Cc1cccc(O)c1

>  <score_type>  (45) 
oracle

>  <origin>  (45) 
adg

>  <m_score__min__energy>  (45) 
-11.619999999999999

>  <m_primary>  (45) 
energy

$$$$
45:0
     RDKit          3D

 63 66  0  0  0  0  0  0  0  0999 V2000
   59.2860   29.3650   50.8250 C   0  0  0  0  0  0  0  0  0  0  0  0
   59.8100   30.2370   49.7590 N   0  0  0  0  0  0  0  0  0  0  0  0
   59.0370   30.0150   48.5110 C   0  0  0  0  0  0  0  0  0  0  0  0
   58.5240   28.5710   48.3860 C   0  0  0  0  0  0  0  0  0  0  0  0
   59.4180   27.6840   47.4900 C   0  0  0  0  0  0  0  0  0  0  0  0
   58.7200   27.3380   46.2410 N   0  0  0  0  0  0  0  0  0  0  0  0
   59.0320   28.0880   45.0130 C   0  0  0  0  0  0  0  0  0  0  0  0
   58.5060   29.5030   45.0940 C   0  0  0  0  0  0  0  0  0  0  0  0
   59.3600   30.5460   45.4910 C   0  0  0  0  0  0  0  0  0  0  0  0
   58.8680   31.8490   45.6200 C   0  0  0  0  0  0  0  0  0  0  0  0
   59.6990   32.9050   46.0270 C   0  0  0  0  0  0  0  0  0  0  0  0
   59.1750   34.1950   46.1590 C   0  0  0  0  0  0  0  0  0  0  0  0
   57.8250   34.4370   45.8840 C   0  0  0  0  0  0  0  0  0  0  0  0
   56.9900   33.3900   45.4780 C   0  0  0  0  0  0  0  0  0  0  0  0
   57.5060   32.0960   45.3460 C   0  0  0  0  0  0  0  0  0  0  0  0
   56.6960   31.0740   44.9630 N   0  0  0  0  0  0  0  0  0  0  0  0
   57.1530   29.8010   44.8330 C   0  0  0  0  0  0  0  0  0  0  0  0
   56.3520   28.8940   44.4830 O   0  0  0  0  0  0  0  0  0  0  0  0
   57.9360   26.1270   46.1960 C   0  0  0  0  0  0  0  0  0  0  0  0
   58.2610   25.1560   46.9310 O   0  0  0  0  0  0  0  0  0  0  0  0
   56.7940   26.0140   45.3270 N   0  0  0  0  0  0  0  0  0  0  0  0
   55.8510   24.9300   45.3770 C   0  0  0  0  0  0  0  0  0  0  0  0
   54.4960   25.2090   45.6160 C   0  0  0  0  0  0  0  0  0  0  0  0
   53.5630   24.1700   45.6980 C   0  0  0  0  0  0  0  0  0  0  0  0
   53.9780   22.8430   45.5590 C   0  0  0  0  0  0  0  0  0  0  0  0
   53.0510   21.8130   45.6460 O   0  0  0  0  0  0  0  0  0  0  0  0
   55.3270   22.5530   45.3420 C   0  0  0  0  0  0  0  0  0  0  0  0
   56.2640   23.5890   45.2610 C   0  0  0  0  0  0  0  0  0  0  0  0
   61.2640   30.0020   49.5730 C   0  0  0  0  0  0  0  0  0  0  0  0
   61.9250   31.2210   48.9850 C   0  0  0  0  0  0  0  0  0  0  0  0
   62.4100   31.2040   47.6650 C   0  0  0  0  0  0  0  0  0  0  0  0
   63.0220   32.3390   47.1240 C   0  0  0  0  0  0  0  0  0  0  0  0
   63.1700   33.4930   47.8990 C   0  0  0  0  0  0  0  0  0  0  0  0
   63.7690   34.5900   47.3760 F   0  0  0  0  0  0  0  0  0  0  0  0
   62.7080   33.5110   49.2180 C   0  0  0  0  0  0  0  0  0  0  0  0
   62.0940   32.3780   49.7630 C   0  0  0  0  0  0  0  0  0  0  0  0
   59.5421   29.7911   51.8063 H   0  0  0  0  0  0  0  0  0  0  0  0
   58.1925   29.2891   50.7323 H   0  0  0  0  0  0  0  0  0  0  0  0
   59.7322   28.3639   50.7323 H   0  0  0  0  0  0  0  0  0  0  0  0
   58.1746   30.6977   48.5039 H   0  0  0  0  0  0  0  0  0  0  0  0
   59.7102   30.2055   47.6622 H   0  0  0  0  0  0  0  0  0  0  0  0
   58.4845   28.1256   49.3910 H   0  0  0  0  0  0  0  0  0  0  0  0
   57.5308   28.6160   47.9153 H   0  0  0  0  0  0  0  0  0  0  0  0
   60.3420   28.2297   47.2483 H   0  0  0  0  0  0  0  0  0  0  0  0
   59.6541   26.7567   48.0325 H   0  0  0  0  0  0  0  0  0  0  0  0
   60.1231   28.1171   44.8767 H   0  0  0  0  0  0  0  0  0  0  0  0
   58.5507   27.5834   44.1623 H   0  0  0  0  0  0  0  0  0  0  0  0
   60.4193   30.3370   45.7011 H   0  0  0  0  0  0  0  0  0  0  0  0
   60.7615   32.7179   46.2419 H   0  0  0  0  0  0  0  0  0  0  0  0
   59.8262   35.0214   46.4799 H   0  0  0  0  0  0  0  0  0  0  0  0
   57.4183   35.4538   45.9872 H   0  0  0  0  0  0  0  0  0  0  0  0
   55.9289   33.5840   45.2628 H   0  0  0  0  0  0  0  0  0  0  0  0
   56.6460   26.7300   44.5850 H   0  0  0  0  0  0  0  0  0  0  0  0
   54.1660   26.2510   45.7395 H   0  0  0  0  0  0  0  0  0  0  0  0
   52.5011   24.3979   45.8722 H   0  0  0  0  0  0  0  0  0  0  0  0
   55.6534   21.5081   45.2346 H   0  0  0  0  0  0  0  0  0  0  0  0
   57.3276   23.3548   45.1061 H   0  0  0  0  0  0  0  0  0  0  0  0
   61.7217   29.7767   50.5475 H   0  0  0  0  0  0  0  0  0  0  0  0
   61.4021   29.1556   48.8841 H   0  0  0  0  0  0  0  0  0  0  0  0
   62.3075   30.2940   47.0555 H   0  0  0  0  0  0  0  0  0  0  0  0
   63.3876   32.3237   46.0867 H   0  0  0  0  0  0  0  0  0  0  0  0
   62.8274   34.4179   49.8290 H   0  0  0  0  0  0  0  0  0  0  0  0
   61.7422   32.3935   50.8051 H   0  0  0  0  0  0  0  0  0  0  0  0
  1  2  1  0
  2  3  1  0
  3  4  1  0
  4  5  1  0
  5  6  1  0
  6  7  1  0
  7  8  1  0
  8  9  2  0
  9 10  1  0
 10 11  2  0
 11 12  1  0
 12 13  2  0
 13 14  1  0
 14 15  2  0
 15 16  1  0
 16 17  1  0
 17 18  2  0
  6 19  1  0
 19 20  2  0
 19 21  1  0
 21 22  1  0
 22 23  2  0
 23 24  1  0
 24 25  2  0
 25 26  1  0
 25 27  1  0
 27 28  2  0
  2 29  1  0
 29 30  1  0
 30 31  2  0
 31 32  1  0
 32 33  2  0
 33 34  1  0
 33 35  1  0
 35 36  2  0
 17  8  1  0
 28 22  1  0
 36 30  1  0
 15 10  1  0
  1 37  1  0
  1 38  1  0
  1 39  1  0
  3 40  1  0
  3 41  1  0
  4 42  1  0
  4 43  1  0
  5 44  1  0
  5 45  1  0
  7 46  1  0
  7 47  1  0
  9 48  1  0
 11 49  1  0
 12 50  1  0
 13 51  1  0
 14 52  1  0
 21 53  1  0
 23 54  1  0
 24 55  1  0
 27 56  1  0
 28 57  1  0
 29 58  1  0
 29 59  1  0
 31 60  1  0
 32 61  1  0
 35 62  1  0
 36 63  1  0
M  CHG  2  16  -1  26  -1
M  END
>  <UniqueID>  (46) 
43

>  <SMILES>  (46) 
CN(CCCN(Cc1cc2ccccc2[n-]c1=O)C(=O)Nc1ccc([O-])cc1)Cc1ccc(F)cc1

>  <Energy>  (46) 
74.71842801294795

>  <Genealogy>  (46) 
CN(CCCN(Cc1cc2ccccc2[n-]c1=O)C(=O)Nc1ccc([O-])cc1)Cc1ccc(F)cc1 (protonated)
CN(CCCN(Cc1cc2ccccc2[n-]c1=O)C(=O)Nc1ccc([O-])cc1)Cc1ccc(F)cc1 (3D coordinates assigned)
CN(CCCN(Cc1cc2ccccc2[n-]c1=O)C(=O)Nc1ccc([O-])cc1)Cc1ccc(F)cc1 (optimized conformer: 74.71842801294795 kcal/mol)

>  <smiles>  (46) 
CN(CCCN(Cc1cc2ccccc2[nH]c1=O)C(=O)Nc1ccc(O)cc1)Cc1ccc(F)cc1

>  <score_type>  (46) 
oracle

>  <origin>  (46) 
adg

>  <m_score__min__energy>  (46) 
-12.09

>  <m_primary>  (46) 
energy

$$$$
46:0
     RDKit          3D

 46 48  0  0  0  0  0  0  0  0999 V2000
   55.4110   28.9880   44.5620 O   0  0  0  0  0  0  0  0  0  0  0  0
   56.5930   28.9740   44.9930 C   0  0  0  0  0  0  0  0  0  0  0  0
   57.4270   27.7380   44.8070 C   0  0  0  0  0  0  0  0  0  0  0  0
   59.1080   28.1850   44.2480 S   0  0  0  0  0  0  0  0  0  0  0  0
   59.6970   28.6910   45.8680 C   0  0  0  0  0  0  0  0  0  0  0  0
   59.2180   28.0540   47.0220 C   0  0  0  0  0  0  0  0  0  0  0  0
   59.6750   28.4520   48.2830 C   0  0  0  0  0  0  0  0  0  0  0  0
   60.6020   29.4930   48.3950 C   0  0  0  0  0  0  0  0  0  0  0  0
   61.0730   30.1390   47.2460 C   0  0  0  0  0  0  0  0  0  0  0  0
   60.6180   29.7400   45.9840 C   0  0  0  0  0  0  0  0  0  0  0  0
   57.0630   30.0900   45.7580 N   0  0  0  0  0  0  0  0  0  0  0  0
   57.6890   31.2650   45.2270 C   0  0  0  0  0  0  0  0  0  0  0  0
   57.5580   31.6180   43.8740 C   0  0  0  0  0  0  0  0  0  0  0  0
   58.1380   32.7950   43.3940 C   0  0  0  0  0  0  0  0  0  0  0  0
   58.8380   33.6370   44.2630 C   0  0  0  0  0  0  0  0  0  0  0  0
   58.9560   33.3050   45.6190 C   0  0  0  0  0  0  0  0  0  0  0  0
   59.7940   34.3810   46.7350 S   0  0  0  0  0  0  0  0  0  0  0  0
   60.1530   35.6480   46.0090 O   0  0  0  0  0  0  0  0  0  0  0  0
   58.8850   34.7310   47.8830 O   0  0  0  0  0  0  0  0  0  0  0  0
   61.2430   33.6090   47.3280 N   0  0  0  0  0  0  0  0  0  0  0  0
   62.3520   33.8100   46.3740 C   0  0  0  0  0  0  0  0  0  0  0  0
   63.7090   33.4230   47.0000 C   0  0  0  0  0  0  0  0  0  0  0  0
   63.5280   32.6820   48.1900 O   0  0  0  0  0  0  0  0  0  0  0  0
   62.9070   33.4960   49.1700 C   0  0  0  0  0  0  0  0  0  0  0  0
   61.5960   34.1370   48.6580 C   0  0  0  0  0  0  0  0  0  0  0  0
   58.3690   32.1260   46.0980 C   0  0  0  0  0  0  0  0  0  0  0  0
   57.4941   27.1983   45.7632 H   0  0  0  0  0  0  0  0  0  0  0  0
   56.9550   27.0993   44.0459 H   0  0  0  0  0  0  0  0  0  0  0  0
   58.4824   27.2408   46.9356 H   0  0  0  0  0  0  0  0  0  0  0  0
   59.3049   27.9458   49.1868 H   0  0  0  0  0  0  0  0  0  0  0  0
   60.9614   29.8045   49.3869 H   0  0  0  0  0  0  0  0  0  0  0  0
   61.8002   30.9596   47.3348 H   0  0  0  0  0  0  0  0  0  0  0  0
   60.9844   30.2512   45.0815 H   0  0  0  0  0  0  0  0  0  0  0  0
   56.9965   30.9652   43.1894 H   0  0  0  0  0  0  0  0  0  0  0  0
   58.0436   33.0595   42.3305 H   0  0  0  0  0  0  0  0  0  0  0  0
   59.2967   34.5613   43.8817 H   0  0  0  0  0  0  0  0  0  0  0  0
   61.0410   32.5860   47.4090 H   0  0  0  0  0  0  0  0  0  0  0  0
   62.1770   33.1865   45.4849 H   0  0  0  0  0  0  0  0  0  0  0  0
   62.3868   34.8753   46.1022 H   0  0  0  0  0  0  0  0  0  0  0  0
   64.2759   32.8141   46.2804 H   0  0  0  0  0  0  0  0  0  0  0  0
   64.2572   34.3452   47.2428 H   0  0  0  0  0  0  0  0  0  0  0  0
   62.6777   32.8770   50.0499 H   0  0  0  0  0  0  0  0  0  0  0  0
   63.6032   34.3099   49.4207 H   0  0  0  0  0  0  0  0  0  0  0  0
   60.7834   33.9102   49.3639 H   0  0  0  0  0  0  0  0  0  0  0  0
   61.7410   35.2246   48.5798 H   0  0  0  0  0  0  0  0  0  0  0  0
   58.4428   31.8747   47.1664 H   0  0  0  0  0  0  0  0  0  0  0  0
  1  2  2  0
  2  3  1  0
  3  4  1  0
  4  5  1  0
  5  6  2  0
  6  7  1  0
  7  8  2  0
  8  9  1  0
  9 10  2  0
  2 11  1  0
 11 12  1  0
 12 13  2  0
 13 14  1  0
 14 15  2  0
 15 16  1  0
 16 17  1  0
 17 18  2  0
 17 19  2  0
 17 20  1  0
 20 21  1  0
 21 22  1  0
 22 23  1  0
 23 24  1  0
 24 25  1  0
 16 26  2  0
 10  5  1  0
 26 12  1  0
 25 20  1  0
  3 27  1  0
  3 28  1  0
  6 29  1  0
  7 30  1  0
  8 31  1  0
  9 32  1  0
 10 33  1  0
 13 34  1  0
 14 35  1  0
 15 36  1  0
 20 37  1  0
 21 38  1  0
 21 39  1  0
 22 40  1  0
 22 41  1  0
 24 42  1  0
 24 43  1  0
 25 44  1  0
 25 45  1  0
 26 46  1  0
M  CHG  2  11  -1  20   1
M  END
>  <UniqueID>  (47) 
44

>  <SMILES>  (47) 
O=C(CSc1ccccc1)[N-]c1cccc(S(=O)(=O)[NH+]2CCOCC2)c1

>  <Energy>  (47) 
56.15459167847642

>  <Genealogy>  (47) 
O=C(CSc1ccccc1)[N-]c1cccc(S(=O)(=O)[NH+]2CCOCC2)c1 (protonated)
O=C(CSc1ccccc1)[N-]c1cccc(S(=O)(=O)[NH+]2CCOCC2)c1 (3D coordinates assigned)
O=C(CSc1ccccc1)[N-]c1cccc(S(=O)(=O)[NH+]2CCOCC2)c1 (nonaromatic ring conformer: 56.15459167847642 kcal/mol)

>  <smiles>  (47) 
O=C(CSc1ccccc1)Nc1cccc(S(=O)(=O)N2CCOCC2)c1

>  <score_type>  (47) 
oracle

>  <origin>  (47) 
adg

>  <m_score__min__energy>  (47) 
-9.9800000000000004

>  <m_primary>  (47) 
energy

$$$$
47:0
     RDKit          3D

 65 70  0  0  0  0  0  0  0  0999 V2000
   60.4460   31.9930   51.9540 O   0  0  0  0  0  0  0  0  0  0  0  0
   60.9230   31.4460   50.9190 C   0  0  0  0  0  0  0  0  0  0  0  0
   61.0570   30.0240   50.8640 N   0  0  0  0  0  0  0  0  0  0  0  0
   60.4880   29.3030   49.9440 C   0  0  0  0  0  0  0  0  0  0  0  0
   61.0880   28.2210   49.4000 N   0  0  0  0  0  0  0  0  0  0  0  0
   60.2990   27.6540   48.4480 C   0  0  0  0  0  0  0  0  0  0  0  0
   59.0630   28.2610   48.2630 C   0  0  0  0  0  0  0  0  0  0  0  0
   58.9530   29.5900   49.2790 S   0  0  0  0  0  0  0  0  0  0  0  0
   58.0630   27.8530   47.2260 C   0  0  0  0  0  0  0  0  0  0  0  0
   58.3210   26.3970   46.7330 C   0  0  1  0  0  0  0  0  0  0  0  0
   57.5200   26.0440   45.5230 N   0  0  0  0  0  0  0  0  0  0  0  0
   57.4990   27.1440   44.5200 C   0  0  0  0  0  0  0  0  0  0  0  0
   58.2300   26.7830   43.2120 C   0  0  0  0  0  0  0  0  0  0  0  0
   57.7380   25.6080   42.5870 O   0  0  0  0  0  0  0  0  0  0  0  0
   57.2910   24.6210   43.5070 C   0  0  0  0  0  0  0  0  0  0  0  0
   57.9020   24.7530   44.9100 C   0  0  0  0  0  0  0  0  0  0  0  0
   59.8420   26.2460   46.4290 C   0  0  0  0  0  0  0  0  0  0  0  0
   60.6920   26.4160   47.6990 C   0  0  0  0  0  0  0  0  0  0  0  0
   61.2730   32.2600   49.7520 C   0  0  0  0  0  0  0  0  0  0  0  0
   62.6140   32.5090   49.4360 C   0  0  0  0  0  0  0  0  0  0  0  0
   62.9360   33.3080   48.3360 C   0  0  0  0  0  0  0  0  0  0  0  0
   61.9230   33.8260   47.5240 C   0  0  0  0  0  0  0  0  0  0  0  0
   60.5730   33.5250   47.7930 C   0  0  0  0  0  0  0  0  0  0  0  0
   59.4480   34.0290   46.9070 C   0  0  1  0  0  0  0  0  0  0  0  0
   59.7650   35.4150   46.3450 C   0  0  0  0  0  0  0  0  0  0  0  0
   59.2310   35.4020   44.9160 C   0  0  0  0  0  0  0  0  0  0  0  0
   59.2150   33.9390   44.4990 C   0  0  0  0  0  0  0  0  0  0  0  0
   59.2190   33.1780   45.7400 N   0  0  0  0  0  0  0  0  0  0  0  0
   59.0370   31.7470   45.7600 C   0  0  0  0  0  0  0  0  0  0  0  0
   59.8450   31.0320   46.4130 O   0  0  0  0  0  0  0  0  0  0  0  0
   57.9160   31.0860   45.0660 C   0  0  0  0  0  0  0  0  0  0  0  0
   57.6500   31.2110   43.7120 C   0  0  0  0  0  0  0  0  0  0  0  0
   56.5550   30.4180   43.4590 C   0  0  0  0  0  0  0  0  0  0  0  0
   56.2200   29.8530   44.6690 C   0  0  0  0  0  0  0  0  0  0  0  0
   55.1460   28.9920   44.8620 O   0  0  0  0  0  0  0  0  0  0  0  0
   57.0430   30.2450   45.6610 N   0  0  0  0  0  0  0  0  0  0  0  0
   60.2570   32.7740   48.9350 C   0  0  0  0  0  0  0  0  0  0  0  0
   57.0535   27.9112   47.6591 H   0  0  0  0  0  0  0  0  0  0  0  0
   58.1571   28.5327   46.3662 H   0  0  0  0  0  0  0  0  0  0  0  0
   58.0051   25.7045   47.5271 H   0  0  0  0  0  0  0  0  0  0  0  0
   56.4515   27.3808   44.2819 H   0  0  0  0  0  0  0  0  0  0  0  0
   58.0245   28.0026   44.9635 H   0  0  0  0  0  0  0  0  0  0  0  0
   58.1188   27.6221   42.5095 H   0  0  0  0  0  0  0  0  0  0  0  0
   59.2807   26.5905   43.4746 H   0  0  0  0  0  0  0  0  0  0  0  0
   56.1976   24.7016   43.5968 H   0  0  0  0  0  0  0  0  0  0  0  0
   57.6125   23.6468   43.1100 H   0  0  0  0  0  0  0  0  0  0  0  0
   57.5372   23.9302   45.5424 H   0  0  0  0  0  0  0  0  0  0  0  0
   58.9979   24.7100   44.8258 H   0  0  0  0  0  0  0  0  0  0  0  0
   60.0245   25.2461   46.0083 H   0  0  0  0  0  0  0  0  0  0  0  0
   60.1299   27.0311   45.7143 H   0  0  0  0  0  0  0  0  0  0  0  0
   60.5460   25.5408   48.3492 H   0  0  0  0  0  0  0  0  0  0  0  0
   61.7479   26.5057   47.4041 H   0  0  0  0  0  0  0  0  0  0  0  0
   63.4142   32.0755   50.0539 H   0  0  0  0  0  0  0  0  0  0  0  0
   63.9891   33.5299   48.1085 H   0  0  0  0  0  0  0  0  0  0  0  0
   62.1808   34.4714   46.6713 H   0  0  0  0  0  0  0  0  0  0  0  0
   58.5617   34.0372   47.5585 H   0  0  0  0  0  0  0  0  0  0  0  0
   59.2631   36.1947   46.9368 H   0  0  0  0  0  0  0  0  0  0  0  0
   60.8424   35.6343   46.3781 H   0  0  0  0  0  0  0  0  0  0  0  0
   58.2150   35.8222   44.8818 H   0  0  0  0  0  0  0  0  0  0  0  0
   59.8533   36.0104   44.2432 H   0  0  0  0  0  0  0  0  0  0  0  0
   58.3100   33.7161   43.9149 H   0  0  0  0  0  0  0  0  0  0  0  0
   60.0775   33.6872   43.8644 H   0  0  0  0  0  0  0  0  0  0  0  0
   58.2040   31.8224   42.9845 H   0  0  0  0  0  0  0  0  0  0  0  0
   56.0522   30.2669   42.4924 H   0  0  0  0  0  0  0  0  0  0  0  0
   59.2037   32.5872   49.1911 H   0  0  0  0  0  0  0  0  0  0  0  0
  1  2  2  0
  2  3  1  0
  3  4  2  3
  4  5  1  0
  5  6  1  0
  6  7  2  0
  7  8  1  0
  7  9  1  0
  9 10  1  0
 10 11  1  0
 11 12  1  0
 12 13  1  0
 13 14  1  0
 14 15  1  0
 15 16  1  0
 10 17  1  0
 17 18  1  0
  2 19  1  0
 19 20  2  0
 20 21  1  0
 21 22  2  0
 22 23  1  0
 23 24  1  0
 24 25  1  0
 25 26  1  0
 26 27  1  0
 27 28  1  0
 28 29  1  0
 29 30  2  0
 29 31  1  0
 31 32  2  0
 32 33  1  0
 33 34  2  0
 34 35  1  0
 34 36  1  0
 23 37  2  0
  8  4  1  0
 16 11  1  0
 37 19  1  0
 18  6  1  0
 28 24  1  0
 36 31  1  0
  9 38  1  0
  9 39  1  0
 10 40  1  1
 12 41  1  0
 12 42  1  0
 13 43  1  0
 13 44  1  0
 15 45  1  0
 15 46  1  0
 16 47  1  0
 16 48  1  0
 17 49  1  0
 17 50  1  0
 18 51  1  0
 18 52  1  0
 20 53  1  0
 21 54  1  0
 22 55  1  0
 24 56  1  1
 25 57  1  0
 25 58  1  0
 26 59  1  0
 26 60  1  0
 27 61  1  0
 27 62  1  0
 32 63  1  0
 33 64  1  0
 37 65  1  0
M  CHG  3   5  -1  35  -1  36  -1
M  END
>  <UniqueID>  (48) 
45

>  <SMILES>  (48) 
O=C(N=c1[n-]c2c(s1)C[C@@H](N1CCOCC1)CC2)c1cccc([C@H]2CCCN2C(=O)c2ccc([O-])[n-]2)c1

>  <Energy>  (48) 
161.7859676725104

>  <Genealogy>  (48) 
O=C(N=c1[n-]c2c(s1)CC(N1CCOCC1)CC2)c1cccc(C2CCCN2C(=O)c2ccc([O-])[n-]2)c1 (protonated)
O=C(N=c1[n-]c2c(s1)C[C@@H](N1CCOCC1)CC2)c1cccc([C@H]2CCCN2C(=O)c2ccc([O-])[n-]2)c1 (chirality)
O=C(N=c1[n-]c2c(s1)C[C@@H](N1CCOCC1)CC2)c1cccc([C@H]2CCCN2C(=O)c2ccc([O-])[n-]2)c1 (3D coordinates assigned)
O=C(N=c1[n-]c2c(s1)C[C@@H](N1CCOCC1)CC2)c1cccc([C@H]2CCCN2C(=O)c2ccc([O-])[n-]2)c1 (nonaromatic ring conformer: 161.7859676725104 kcal/mol)

>  <smiles>  (48) 
O=C(N=c1[nH]c2c(s1)CC(N1CCOCC1)CC2)c1cccc(C2CCCN2C(=O)c2ccc(O)[nH]2)c1

>  <score_type>  (48) 
oracle

>  <origin>  (48) 
adg

>  <m_score__min__energy>  (48) 
-17.34

>  <m_primary>  (48) 
energy

$$$$
48:0
     RDKit          3D

 22 23  0  0  0  0  0  0  0  0999 V2000
   51.1540   30.4570   48.2810 O   0  0  0  0  0  0  0  0  0  0  0  0
   51.2410   30.9190   49.4490 C   0  0  0  0  0  0  0  0  0  0  0  0
   50.9730   32.2090   49.7410 N   0  0  0  0  0  0  0  0  0  0  0  0
   51.1850   32.2610   51.0660 C   0  0  0  0  0  0  0  0  0  0  0  0
   51.0190   33.4080   51.8310 O   0  0  0  0  0  0  0  0  0  0  0  0
   51.5780   31.0290   51.5330 C   0  0  0  0  0  0  0  0  0  0  0  0
   51.8700   30.6590   52.9570 C   0  0  0  0  0  0  0  0  0  0  0  0
   53.1890   29.9310   53.0580 C   0  0  0  0  0  0  0  0  0  0  0  0
   53.2450   28.7190   53.7690 C   0  0  0  0  0  0  0  0  0  0  0  0
   54.4440   28.0080   53.8730 C   0  0  0  0  0  0  0  0  0  0  0  0
   54.5020   26.3670   54.8480 Br  0  0  0  0  0  0  0  0  0  0  0  0
   55.6000   28.4970   53.2600 C   0  0  0  0  0  0  0  0  0  0  0  0
   55.5570   29.6910   52.5400 C   0  0  0  0  0  0  0  0  0  0  0  0
   54.3630   30.4120   52.4250 C   0  0  0  0  0  0  0  0  0  0  0  0
   54.3770   31.5900   51.6750 O   0  0  0  0  0  0  0  0  0  0  0  0
   51.6070   30.1610   50.5050 N   0  0  0  0  0  0  0  0  0  0  0  0
   51.9146   31.5738   53.5662 H   0  0  0  0  0  0  0  0  0  0  0  0
   51.0710   29.9969   53.3220 H   0  0  0  0  0  0  0  0  0  0  0  0
   52.3360   28.3265   54.2482 H   0  0  0  0  0  0  0  0  0  0  0  0
   56.5448   27.9402   53.3451 H   0  0  0  0  0  0  0  0  0  0  0  0
   56.4704   30.0695   52.0579 H   0  0  0  0  0  0  0  0  0  0  0  0
   53.6210   31.8700   51.0660 H   0  0  0  0  0  0  0  0  0  0  0  0
  1  2  2  0
  2  3  1  0
  3  4  1  0
  4  5  1  0
  4  6  2  0
  6  7  1  0
  7  8  1  0
  8  9  2  0
  9 10  1  0
 10 11  1  0
 10 12  2  0
 12 13  1  0
 13 14  2  0
 14 15  1  0
  6 16  1  0
 16  2  1  0
 14  8  1  0
  7 17  1  0
  7 18  1  0
  9 19  1  0
 12 20  1  0
 13 21  1  0
 15 22  1  0
M  CHG  3   3  -1   5  -1  16  -1
M  END
>  <UniqueID>  (49) 
46

>  <SMILES>  (49) 
O=c1[n-]c([O-])c(Cc2cc(Br)ccc2O)[n-]1

>  <Energy>  (49) 
52.155321541892434

>  <Genealogy>  (49) 
O=c1[n-]c([O-])c(Cc2cc(Br)ccc2O)[n-]1 (protonated)
O=c1[n-]c([O-])c(Cc2cc(Br)ccc2O)[n-]1 (3D coordinates assigned)
O=c1[n-]c([O-])c(Cc2cc(Br)ccc2O)[n-]1 (optimized conformer: 52.155321541892434 kcal/mol)

>  <smiles>  (49) 
O=c1[nH]c(O)c(Cc2cc(Br)ccc2O)[nH]1

>  <score_type>  (49) 
oracle

>  <origin>  (49) 
adg

>  <m_score__min__energy>  (49) 
-15.17

>  <m_primary>  (49) 
energy

$$$$
49:0
     RDKit          3D

 61 63  0  0  0  0  0  0  0  0999 V2000
   57.1980   30.5910   44.0700 C   0  0  0  0  0  0  0  0  0  0  0  0
   57.0900   31.3680   45.2550 O   0  0  0  0  0  0  0  0  0  0  0  0
   57.8100   32.5430   45.5070 C   0  0  0  0  0  0  0  0  0  0  0  0
   57.8620   33.5950   44.5690 C   0  0  0  0  0  0  0  0  0  0  0  0
   58.5880   34.7550   44.8480 C   0  0  0  0  0  0  0  0  0  0  0  0
   59.2660   34.8840   46.0600 C   0  0  0  0  0  0  0  0  0  0  0  0
   59.2240   33.8510   46.9960 C   0  0  0  0  0  0  0  0  0  0  0  0
   58.4960   32.6780   46.7330 C   0  0  0  0  0  0  0  0  0  0  0  0
   58.4960   31.5710   47.7580 C   0  0  0  0  0  0  0  0  0  0  0  0
   58.8320   30.2950   47.1260 N   0  0  0  0  0  0  0  0  0  0  0  0
   60.0530   30.1020   46.3950 C   0  0  0  0  0  0  0  0  0  0  0  0
   60.9160   31.0150   46.3660 O   0  0  0  0  0  0  0  0  0  0  0  0
   60.3520   28.7840   45.7300 C   0  0  0  0  0  0  0  0  0  0  0  0
   60.2600   27.6740   46.6970 N   0  0  0  0  0  0  0  0  0  0  0  0
   61.0950   26.4840   46.4820 C   0  0  0  0  0  0  0  0  0  0  0  0
   59.4960   27.7530   47.9250 C   0  0  0  0  0  0  0  0  0  0  0  0
   58.2900   27.3980   47.9170 O   0  0  0  0  0  0  0  0  0  0  0  0
   60.0690   28.1880   49.2160 C   0  0  0  0  0  0  0  0  0  0  0  0
   60.7840   27.2600   49.9950 C   0  0  0  0  0  0  0  0  0  0  0  0
   61.2970   27.6350   51.2420 C   0  0  0  0  0  0  0  0  0  0  0  0
   61.0870   28.9320   51.7290 C   0  0  0  0  0  0  0  0  0  0  0  0
   60.3530   29.8550   50.9740 C   0  0  0  0  0  0  0  0  0  0  0  0
   60.0070   31.4530   51.6150 S   0  0  0  0  0  0  0  0  0  0  0  0
   59.5760   31.3140   53.0470 O   0  0  0  0  0  0  0  0  0  0  0  0
   58.9120   32.1240   50.8360 O   0  0  0  0  0  0  0  0  0  0  0  0
   61.4450   32.3970   51.5190 N   0  0  0  0  0  0  0  0  0  0  0  0
   62.1010   32.5810   50.2680 C   0  0  0  0  0  0  0  0  0  0  0  0
   61.5650   33.4580   49.3170 C   0  0  0  0  0  0  0  0  0  0  0  0
   62.1650   33.5840   48.0620 C   0  0  0  0  0  0  0  0  0  0  0  0
   63.2990   32.8320   47.7490 C   0  0  0  0  0  0  0  0  0  0  0  0
   63.8380   31.9520   48.6910 C   0  0  0  0  0  0  0  0  0  0  0  0
   63.2360   31.8150   49.9590 C   0  0  0  0  0  0  0  0  0  0  0  0
   63.7170   30.9120   50.9160 O   0  0  0  0  0  0  0  0  0  0  0  0
   65.0900   30.7430   51.2450 C   0  0  0  0  0  0  0  0  0  0  0  0
   59.8330   29.4800   49.7260 C   0  0  0  0  0  0  0  0  0  0  0  0
   57.3449   29.5340   44.3367 H   0  0  0  0  0  0  0  0  0  0  0  0
   56.2767   30.6951   43.4780 H   0  0  0  0  0  0  0  0  0  0  0  0
   58.0559   30.9424   43.4780 H   0  0  0  0  0  0  0  0  0  0  0  0
   57.3276   33.5013   43.6121 H   0  0  0  0  0  0  0  0  0  0  0  0
   58.6252   35.5694   44.1096 H   0  0  0  0  0  0  0  0  0  0  0  0
   59.8339   35.8006   46.2776 H   0  0  0  0  0  0  0  0  0  0  0  0
   59.7652   33.9552   47.9480 H   0  0  0  0  0  0  0  0  0  0  0  0
   59.2392   31.7973   48.5367 H   0  0  0  0  0  0  0  0  0  0  0  0
   57.4936   31.4965   48.2047 H   0  0  0  0  0  0  0  0  0  0  0  0
   58.1170   29.5290   47.1450 H   0  0  0  0  0  0  0  0  0  0  0  0
   59.6272   28.6168   44.9197 H   0  0  0  0  0  0  0  0  0  0  0  0
   61.3757   28.8169   45.3289 H   0  0  0  0  0  0  0  0  0  0  0  0
   61.3905   26.0629   47.4543 H   0  0  0  0  0  0  0  0  0  0  0  0
   60.5246   25.7333   45.9154 H   0  0  0  0  0  0  0  0  0  0  0  0
   61.9950   26.7651   45.9154 H   0  0  0  0  0  0  0  0  0  0  0  0
   60.9403   26.2367   49.6229 H   0  0  0  0  0  0  0  0  0  0  0  0
   61.8666   26.9096   51.8414 H   0  0  0  0  0  0  0  0  0  0  0  0
   61.4993   29.2255   52.7057 H   0  0  0  0  0  0  0  0  0  0  0  0
   60.6694   34.0490   49.5589 H   0  0  0  0  0  0  0  0  0  0  0  0
   61.7434   34.2769   47.3189 H   0  0  0  0  0  0  0  0  0  0  0  0
   63.7687   32.9325   46.7594 H   0  0  0  0  0  0  0  0  0  0  0  0
   64.7343   31.3645   48.4429 H   0  0  0  0  0  0  0  0  0  0  0  0
   65.2059   30.7287   52.3388 H   0  0  0  0  0  0  0  0  0  0  0  0
   65.4534   29.7933   50.8254 H   0  0  0  0  0  0  0  0  0  0  0  0
   65.6728   31.5762   50.8254 H   0  0  0  0  0  0  0  0  0  0  0  0
   59.2381   30.1983   49.1428 H   0  0  0  0  0  0  0  0  0  0  0  0
  1  2  1  0
  2  3  1  0
  3  4  2  0
  4  5  1  0
  5  6  2  0
  6  7  1  0
  7  8  2  0
  8  9  1  0
  9 10  1  0
 10 11  1  0
 11 12  2  0
 11 13  1  0
 13 14  1  0
 14 15  1  0
 14 16  1  0
 16 17  2  0
 16 18  1  0
 18 19  2  0
 19 20  1  0
 20 21  2  0
 21 22  1  0
 22 23  1  0
 23 24  2  0
 23 25  2  0
 23 26  1  0
 26 27  1  0
 27 28  2  0
 28 29  1  0
 29 30  2  0
 30 31  1  0
 31 32  2  0
 32 33  1  0
 33 34  1  0
 22 35  2  0
  8  3  1  0
 35 18  1  0
 32 27  1  0
  1 36  1  0
  1 37  1  0
  1 38  1  0
  4 39  1  0
  5 40  1  0
  6 41  1  0
  7 42  1  0
  9 43  1  0
  9 44  1  0
 10 45  1  0
 13 46  1  0
 13 47  1  0
 15 48  1  0
 15 49  1  0
 15 50  1  0
 19 51  1  0
 20 52  1  0
 21 53  1  0
 28 54  1  0
 29 55  1  0
 30 56  1  0
 31 57  1  0
 34 58  1  0
 34 59  1  0
 34 60  1  0
 35 61  1  0
M  CHG  1  26  -1
M  END
>  <UniqueID>  (50) 
47

>  <SMILES>  (50) 
COc1ccccc1CNC(=O)CN(C)C(=O)c1cccc(S(=O)(=O)[N-]c2ccccc2OC)c1

>  <Energy>  (50) 
66.71905024216227

>  <Genealogy>  (50) 
COc1ccccc1CNC(=O)CN(C)C(=O)c1cccc(S(=O)(=O)[N-]c2ccccc2OC)c1 (protonated)
COc1ccccc1CNC(=O)CN(C)C(=O)c1cccc(S(=O)(=O)[N-]c2ccccc2OC)c1 (3D coordinates assigned)
COc1ccccc1CNC(=O)CN(C)C(=O)c1cccc(S(=O)(=O)[N-]c2ccccc2OC)c1 (optimized conformer: 66.71905024216227 kcal/mol)

>  <smiles>  (50) 
COc1ccccc1CNC(=O)CN(C)C(=O)c1cccc(S(=O)(=O)Nc2ccccc2OC)c1

>  <score_type>  (50) 
oracle

>  <origin>  (50) 
adg

>  <m_score__min__energy>  (50) 
-10.44

>  <m_primary>  (50) 
energy

$$$$
50:0
     RDKit          3D

 34 35  0  0  0  0  0  0  0  0999 V2000
   58.1250   26.6510   42.7620 C   0  0  0  0  0  0  0  0  0  0  0  0
   57.7480   25.5200   43.7110 C   0  0  0  0  0  0  0  0  0  0  0  0
   57.0700   24.4820   43.0070 O   0  0  0  0  0  0  0  0  0  0  0  0
   56.3420   23.4680   43.6410 C   0  0  0  0  0  0  0  0  0  0  0  0
   55.6930   22.6270   42.9600 O   0  0  0  0  0  0  0  0  0  0  0  0
   56.3470   23.3610   45.1090 C   0  0  0  0  0  0  0  0  0  0  0  0
   57.0430   22.4330   45.7880 N   0  0  0  0  0  0  0  0  0  0  0  0
   56.8580   22.7460   47.0850 C   0  0  0  0  0  0  0  0  0  0  0  0
   57.3740   22.0950   48.0290 O   0  0  0  0  0  0  0  0  0  0  0  0
   56.0760   23.8270   47.2800 N   0  0  0  0  0  0  0  0  0  0  0  0
   55.7530   24.2140   46.0280 C   0  0  0  0  0  0  0  0  0  0  0  0
   54.8780   25.3620   45.7430 C   0  0  0  0  0  0  0  0  0  0  0  0
   53.7250   25.1590   45.2780 O   0  0  0  0  0  0  0  0  0  0  0  0
   55.3010   26.7080   45.9920 N   0  0  0  0  0  0  0  0  0  0  0  0
   56.6850   27.1120   46.2210 C   0  0  0  0  0  0  0  0  0  0  0  0
   57.0000   28.3630   45.4440 C   0  0  0  0  0  0  0  0  0  0  0  0
   58.3280   28.8070   45.3370 C   0  0  0  0  0  0  0  0  0  0  0  0
   58.6230   29.9900   44.6510 C   0  0  0  0  0  0  0  0  0  0  0  0
   57.5930   30.7390   44.0740 C   0  0  0  0  0  0  0  0  0  0  0  0
   56.2700   30.3030   44.1740 C   0  0  0  0  0  0  0  0  0  0  0  0
   55.9730   29.1170   44.8520 C   0  0  0  0  0  0  0  0  0  0  0  0
   58.4200   27.5359   43.3451 H   0  0  0  0  0  0  0  0  0  0  0  0
   58.9656   26.3328   42.1279 H   0  0  0  0  0  0  0  0  0  0  0  0
   57.2615   26.9008   42.1279 H   0  0  0  0  0  0  0  0  0  0  0  0
   58.6614   25.1109   44.1674 H   0  0  0  0  0  0  0  0  0  0  0  0
   57.0798   25.9169   44.4895 H   0  0  0  0  0  0  0  0  0  0  0  0
   57.6240   21.6570   45.4010 H   0  0  0  0  0  0  0  0  0  0  0  0
   56.8341   27.3040   47.2938 H   0  0  0  0  0  0  0  0  0  0  0  0
   57.3533   26.3051   45.8860 H   0  0  0  0  0  0  0  0  0  0  0  0
   59.1396   28.2222   45.7945 H   0  0  0  0  0  0  0  0  0  0  0  0
   59.6653   30.3309   44.5656 H   0  0  0  0  0  0  0  0  0  0  0  0
   57.8249   31.6727   43.5407 H   0  0  0  0  0  0  0  0  0  0  0  0
   55.4610   30.8932   43.7189 H   0  0  0  0  0  0  0  0  0  0  0  0
   54.9306   28.7727   44.9223 H   0  0  0  0  0  0  0  0  0  0  0  0
  1  2  1  0
  2  3  1  0
  3  4  1  0
  4  5  2  0
  4  6  1  0
  6  7  1  0
  7  8  1  0
  8  9  2  0
  8 10  1  0
 10 11  1  0
 11 12  1  0
 12 13  2  0
 12 14  1  0
 14 15  1  0
 15 16  1  0
 16 17  2  0
 17 18  1  0
 18 19  2  0
 19 20  1  0
 20 21  2  0
 11  6  2  0
 21 16  1  0
  1 22  1  0
  1 23  1  0
  1 24  1  0
  2 25  1  0
  2 26  1  0
  7 27  1  0
 15 28  1  0
 15 29  1  0
 17 30  1  0
 18 31  1  0
 19 32  1  0
 20 33  1  0
 21 34  1  0
M  CHG  2  10  -1  14  -1
M  END
>  <UniqueID>  (51) 
48

>  <SMILES>  (51) 
CCOC(=O)c1[nH]c(=O)[n-]c1C(=O)[N-]Cc1ccccc1

>  <Energy>  (51) 
60.12383825251331

>  <Genealogy>  (51) 
CCOC(=O)c1[nH]c(=O)[n-]c1C(=O)[N-]Cc1ccccc1 (protonated)
CCOC(=O)c1[nH]c(=O)[n-]c1C(=O)[N-]Cc1ccccc1 (3D coordinates assigned)
CCOC(=O)c1[nH]c(=O)[n-]c1C(=O)[N-]Cc1ccccc1 (optimized conformer: 60.12383825251331 kcal/mol)

>  <smiles>  (51) 
CCOC(=O)c1[nH]c(=O)[nH]c1C(=O)NCc1ccccc1

>  <score_type>  (51) 
oracle

>  <origin>  (51) 
adg

>  <m_score__min__energy>  (51) 
-10

>  <m_primary>  (51) 
energy

$$$$
51:0
     RDKit          3D

 43 44  0  0  0  0  0  0  0  0999 V2000
   62.8570   33.7540   46.7200 C   0  0  0  0  0  0  0  0  0  0  0  0
   63.3890   32.7260   47.3840 C   0  0  0  0  0  0  0  0  0  0  0  0
   62.6140   31.4580   47.5960 C   0  0  0  0  0  0  0  0  0  0  0  0
   61.2530   31.6090   47.0740 N   0  0  0  0  0  0  0  0  0  0  0  0
   60.2740   30.7650   47.2800 C   0  0  0  0  0  0  0  0  0  0  0  0
   60.3290   29.4240   46.7700 N   0  0  0  0  0  0  0  0  0  0  0  0
   60.1320   29.1160   45.3540 C   0  0  0  0  0  0  0  0  0  0  0  0
   58.7400   29.4830   44.9140 C   0  0  0  0  0  0  0  0  0  0  0  0
   58.5210   30.6020   44.0930 C   0  0  0  0  0  0  0  0  0  0  0  0
   57.2290   30.9180   43.6640 C   0  0  0  0  0  0  0  0  0  0  0  0
   56.1460   30.1270   44.0590 C   0  0  0  0  0  0  0  0  0  0  0  0
   56.3540   29.0230   44.8900 C   0  0  0  0  0  0  0  0  0  0  0  0
   57.6460   28.6990   45.3150 C   0  0  0  0  0  0  0  0  0  0  0  0
   59.1520   31.1200   48.1110 N   0  0  0  0  0  0  0  0  0  0  0  0
   58.7490   32.4900   48.4360 C   0  0  0  0  0  0  0  0  0  0  0  0
   58.7460   33.3450   47.1980 C   0  0  0  0  0  0  0  0  0  0  0  0
   57.8270   33.1070   46.1610 C   0  0  0  0  0  0  0  0  0  0  0  0
   57.8270   33.9160   45.0210 C   0  0  0  0  0  0  0  0  0  0  0  0
   58.7490   34.9590   44.9020 C   0  0  0  0  0  0  0  0  0  0  0  0
   59.6720   35.1960   45.9250 C   0  0  0  0  0  0  0  0  0  0  0  0
   59.6630   34.4010   47.0750 C   0  0  0  0  0  0  0  0  0  0  0  0
   63.4398   34.6754   46.5743 H   0  0  0  0  0  0  0  0  0  0  0  0
   61.8356   33.6800   46.3184 H   0  0  0  0  0  0  0  0  0  0  0  0
   64.4111   32.8090   47.7821 H   0  0  0  0  0  0  0  0  0  0  0  0
   63.1160   30.6321   47.0707 H   0  0  0  0  0  0  0  0  0  0  0  0
   62.5654   31.2404   48.6732 H   0  0  0  0  0  0  0  0  0  0  0  0
   61.0900   32.4720   46.5150 H   0  0  0  0  0  0  0  0  0  0  0  0
   60.1790   28.6470   47.4530 H   0  0  0  0  0  0  0  0  0  0  0  0
   60.8603   29.6844   44.7569 H   0  0  0  0  0  0  0  0  0  0  0  0
   60.2744   28.0354   45.2059 H   0  0  0  0  0  0  0  0  0  0  0  0
   59.3695   31.2316   43.7868 H   0  0  0  0  0  0  0  0  0  0  0  0
   57.0639   31.7904   43.0146 H   0  0  0  0  0  0  0  0  0  0  0  0
   55.1305   30.3736   43.7157 H   0  0  0  0  0  0  0  0  0  0  0  0
   55.5001   28.4080   45.2102 H   0  0  0  0  0  0  0  0  0  0  0  0
   57.8062   27.8268   45.9659 H   0  0  0  0  0  0  0  0  0  0  0  0
   58.5090   30.3520   48.4070 H   0  0  0  0  0  0  0  0  0  0  0  0
   57.7382   32.4770   48.8696 H   0  0  0  0  0  0  0  0  0  0  0  0
   59.4651   32.9103   49.1574 H   0  0  0  0  0  0  0  0  0  0  0  0
   57.1054   32.2812   46.2470 H   0  0  0  0  0  0  0  0  0  0  0  0
   57.1000   33.7312   44.2164 H   0  0  0  0  0  0  0  0  0  0  0  0
   58.7487   35.5936   44.0035 H   0  0  0  0  0  0  0  0  0  0  0  0
   60.4062   36.0090   45.8249 H   0  0  0  0  0  0  0  0  0  0  0  0
   60.3772   34.6037   47.8867 H   0  0  0  0  0  0  0  0  0  0  0  0
  1  2  2  0
  2  3  1  0
  3  4  1  0
  4  5  2  3
  5  6  1  0
  6  7  1  0
  7  8  1  0
  8  9  2  0
  9 10  1  0
 10 11  2  0
 11 12  1  0
 12 13  2  0
  5 14  1  0
 14 15  1  0
 15 16  1  0
 16 17  2  0
 17 18  1  0
 18 19  2  0
 19 20  1  0
 20 21  2  0
 13  8  1  0
 21 16  1  0
  1 22  1  0
  1 23  1  0
  2 24  1  0
  3 25  1  0
  3 26  1  0
  4 27  1  0
  6 28  1  0
  7 29  1  0
  7 30  1  0
  9 31  1  0
 10 32  1  0
 11 33  1  0
 12 34  1  0
 13 35  1  0
 14 36  1  0
 15 37  1  0
 15 38  1  0
 17 39  1  0
 18 40  1  0
 19 41  1  0
 20 42  1  0
 21 43  1  0
M  CHG  1   4   1
M  END
>  <UniqueID>  (52) 
49

>  <SMILES>  (52) 
C=CC[NH+]=C(NCc1ccccc1)NCc1ccccc1

>  <Energy>  (52) 
39.27241156051759

>  <Genealogy>  (52) 
C=CC[NH+]=C(NCc1ccccc1)NCc1ccccc1 (protonated)
C=CC[NH+]=C(NCc1ccccc1)NCc1ccccc1 (3D coordinates assigned)
C=CC[NH+]=C(NCc1ccccc1)NCc1ccccc1 (optimized conformer: 39.27241156051759 kcal/mol)

>  <smiles>  (52) 
C=CCN=C(NCc1ccccc1)NCc1ccccc1

>  <score_type>  (52) 
oracle

>  <origin>  (52) 
adg

>  <m_score__min__energy>  (52) 
-5.2699999999999996

>  <m_primary>  (52) 
energy

$$$$
52:0
     RDKit          3D

 57 59  0  0  0  0  0  0  0  0999 V2000
   55.3810   21.4070   50.1550 C   0  0  0  0  0  0  0  0  0  0  0  0
   55.0620   20.7570   48.8080 C   0  0  0  0  0  0  0  0  0  0  0  0
   55.0550   21.7620   47.7360 N   0  0  0  0  0  0  0  0  0  0  0  0
   53.8030   22.4710   47.4190 C   0  0  0  0  0  0  0  0  0  0  0  0
   53.0140   21.7370   46.3330 C   0  0  0  0  0  0  0  0  0  0  0  0
   56.2920   22.1390   47.1000 C   0  0  0  0  0  0  0  0  0  0  0  0
   57.3810   22.0390   47.7320 O   0  0  0  0  0  0  0  0  0  0  0  0
   56.3200   22.6200   45.7040 C   0  0  0  0  0  0  0  0  0  0  0  0
   56.5540   21.6750   44.6910 C   0  0  0  0  0  0  0  0  0  0  0  0
   56.6420   22.0720   43.3550 C   0  0  0  0  0  0  0  0  0  0  0  0
   56.5070   23.4170   43.0160 C   0  0  0  0  0  0  0  0  0  0  0  0
   56.2760   24.3700   44.0120 C   0  0  0  0  0  0  0  0  0  0  0  0
   56.1730   23.9920   45.3660 C   0  0  0  0  0  0  0  0  0  0  0  0
   55.8480   25.0370   46.3740 C   0  0  0  0  0  0  0  0  0  0  0  0
   55.6840   24.7320   47.5860 O   0  0  0  0  0  0  0  0  0  0  0  0
   55.7170   26.4040   45.9610 N   0  0  0  0  0  0  0  0  0  0  0  0
   56.7930   27.2710   45.5620 C   0  0  0  0  0  0  0  0  0  0  0  0
   58.1370   26.8780   45.6930 C   0  0  0  0  0  0  0  0  0  0  0  0
   59.1650   27.7640   45.3660 C   0  0  0  0  0  0  0  0  0  0  0  0
   58.8660   29.0520   44.9200 C   0  0  0  0  0  0  0  0  0  0  0  0
   57.5300   29.4670   44.7970 C   0  0  0  0  0  0  0  0  0  0  0  0
   57.2010   31.1260   44.2880 S   0  0  0  0  0  0  0  0  0  0  0  0
   55.8930   31.6020   44.8640 O   0  0  0  0  0  0  0  0  0  0  0  0
   57.0890   31.1490   42.7850 O   0  0  0  0  0  0  0  0  0  0  0  0
   58.5300   32.1450   44.8180 N   0  0  0  0  0  0  0  0  0  0  0  0
   58.8010   31.9980   46.2640 C   0  0  0  0  0  0  0  0  0  0  0  0
   58.0910   33.0750   47.1130 C   0  0  0  0  0  0  0  0  0  0  0  0
   56.9060   33.5020   46.4770 O   0  0  0  0  0  0  0  0  0  0  0  0
   57.2190   34.2220   45.2940 C   0  0  0  0  0  0  0  0  0  0  0  0
   58.3280   33.5560   44.4470 C   0  0  0  0  0  0  0  0  0  0  0  0
   56.4920   28.5730   45.1280 C   0  0  0  0  0  0  0  0  0  0  0  0
   55.1590   28.9660   45.0330 O   0  0  0  0  0  0  0  0  0  0  0  0
   55.0550   20.7428   50.9690 H   0  0  0  0  0  0  0  0  0  0  0  0
   56.4650   21.5772   50.2325 H   0  0  0  0  0  0  0  0  0  0  0  0
   54.8524   22.3686   50.2325 H   0  0  0  0  0  0  0  0  0  0  0  0
   55.8241   19.9959   48.5847 H   0  0  0  0  0  0  0  0  0  0  0  0
   54.0660   20.2937   48.8655 H   0  0  0  0  0  0  0  0  0  0  0  0
   53.1872   22.5366   48.3281 H   0  0  0  0  0  0  0  0  0  0  0  0
   54.0547   23.4759   47.0491 H   0  0  0  0  0  0  0  0  0  0  0  0
   52.2859   21.0597   46.8032 H   0  0  0  0  0  0  0  0  0  0  0  0
   52.4827   22.4694   45.7075 H   0  0  0  0  0  0  0  0  0  0  0  0
   53.7062   21.1542   45.7075 H   0  0  0  0  0  0  0  0  0  0  0  0
   56.6689   20.6128   44.9526 H   0  0  0  0  0  0  0  0  0  0  0  0
   56.8180   21.3224   42.5695 H   0  0  0  0  0  0  0  0  0  0  0  0
   56.5823   23.7288   41.9638 H   0  0  0  0  0  0  0  0  0  0  0  0
   56.1732   25.4297   43.7354 H   0  0  0  0  0  0  0  0  0  0  0  0
   58.3793   25.8678   46.0548 H   0  0  0  0  0  0  0  0  0  0  0  0
   60.2138   27.4459   45.4602 H   0  0  0  0  0  0  0  0  0  0  0  0
   59.6805   29.7454   44.6636 H   0  0  0  0  0  0  0  0  0  0  0  0
   58.4523   31.0066   46.5889 H   0  0  0  0  0  0  0  0  0  0  0  0
   59.8843   32.1158   46.4139 H   0  0  0  0  0  0  0  0  0  0  0  0
   57.8418   32.6536   48.0981 H   0  0  0  0  0  0  0  0  0  0  0  0
   58.7636   33.9376   47.2294 H   0  0  0  0  0  0  0  0  0  0  0  0
   56.3092   34.2975   44.6804 H   0  0  0  0  0  0  0  0  0  0  0  0
   57.5941   35.2088   45.6032 H   0  0  0  0  0  0  0  0  0  0  0  0
   58.0440   33.6074   43.3855 H   0  0  0  0  0  0  0  0  0  0  0  0
   59.2687   34.0952   44.6325 H   0  0  0  0  0  0  0  0  0  0  0  0
  1  2  1  0
  2  3  1  0
  3  4  1  0
  4  5  1  0
  3  6  1  0
  6  7  2  0
  6  8  1  0
  8  9  2  0
  9 10  1  0
 10 11  2  0
 11 12  1  0
 12 13  2  0
 13 14  1  0
 14 15  2  0
 14 16  1  0
 16 17  1  0
 17 18  2  0
 18 19  1  0
 19 20  2  0
 20 21  1  0
 21 22  1  0
 22 23  2  0
 22 24  2  0
 22 25  1  0
 25 26  1  0
 26 27  1  0
 27 28  1  0
 28 29  1  0
 29 30  1  0
 21 31  2  0
 31 32  1  0
 13  8  1  0
 31 17  1  0
 30 25  1  0
  1 33  1  0
  1 34  1  0
  1 35  1  0
  2 36  1  0
  2 37  1  0
  4 38  1  0
  4 39  1  0
  5 40  1  0
  5 41  1  0
  5 42  1  0
  9 43  1  0
 10 44  1  0
 11 45  1  0
 12 46  1  0
 18 47  1  0
 19 48  1  0
 20 49  1  0
 26 50  1  0
 26 51  1  0
 27 52  1  0
 27 53  1  0
 29 54  1  0
 29 55  1  0
 30 56  1  0
 30 57  1  0
M  CHG  2  16  -1  32  -1
M  END
>  <UniqueID>  (53) 
50

>  <SMILES>  (53) 
CCN(CC)C(=O)c1ccccc1C(=O)[N-]c1cccc(S(=O)(=O)N2CCOCC2)c1[O-]

>  <Energy>  (53) 
79.32239576889411

>  <Genealogy>  (53) 
CCN(CC)C(=O)c1ccccc1C(=O)[N-]c1cccc(S(=O)(=O)N2CCOCC2)c1[O-] (protonated)
CCN(CC)C(=O)c1ccccc1C(=O)[N-]c1cccc(S(=O)(=O)N2CCOCC2)c1[O-] (3D coordinates assigned)
CCN(CC)C(=O)c1ccccc1C(=O)[N-]c1cccc(S(=O)(=O)N2CCOCC2)c1[O-] (nonaromatic ring conformer: 79.32239576889411 kcal/mol)

>  <smiles>  (53) 
CCN(CC)C(=O)c1ccccc1C(=O)Nc1cccc(S(=O)(=O)N2CCOCC2)c1O

>  <score_type>  (53) 
oracle

>  <origin>  (53) 
adg

>  <m_score__min__energy>  (53) 
-15.199999999999999

>  <m_primary>  (53) 
energy

$$$$
53:0
     RDKit          3D

 55 59  0  0  0  0  0  0  0  0999 V2000
   52.5330   20.3960   46.1860 C   0  0  0  0  0  0  0  0  0  0  0  0
   53.0630   22.0690   46.5440 S   0  0  0  0  0  0  0  0  0  0  0  0
   52.1570   22.6860   47.5820 O   0  0  0  0  0  0  0  0  0  0  0  0
   52.9710   22.8730   45.2750 O   0  0  0  0  0  0  0  0  0  0  0  0
   54.7040   22.1290   47.1050 N   0  0  0  0  0  0  0  0  0  0  0  0
   55.5810   23.2500   46.9290 C   0  0  0  0  0  0  0  0  0  0  0  0
   55.1260   24.4540   46.3730 C   0  0  0  0  0  0  0  0  0  0  0  0
   55.9910   25.5450   46.2350 C   0  0  0  0  0  0  0  0  0  0  0  0
   55.5230   26.7180   45.7360 N   0  0  0  0  0  0  0  0  0  0  0  0
   56.3170   27.8090   45.5960 C   0  0  0  0  0  0  0  0  0  0  0  0
   57.6750   27.7520   45.9480 C   0  0  0  0  0  0  0  0  0  0  0  0
   58.5050   28.9650   45.8000 C   0  0  0  0  0  0  0  0  0  0  0  0
   58.1840   29.8230   44.9340 O   0  0  0  0  0  0  0  0  0  0  0  0
   59.6920   29.1500   46.5920 N   0  0  0  0  0  0  0  0  0  0  0  0
   60.5980   30.2840   46.3950 C   0  0  0  0  0  0  0  0  0  0  0  0
   59.9610   31.6300   46.8350 C   0  0  2  0  0  0  0  0  0  0  0  0
   58.9120   31.4060   47.9650 C   0  0  0  0  0  0  0  0  0  0  0  0
   58.2610   32.7540   48.3610 C   0  0  1  0  0  0  0  0  0  0  0  0
   59.3520   33.7290   48.8610 C   0  0  0  0  0  0  0  0  0  0  0  0
   60.3860   33.9720   47.7370 C   0  0  2  0  0  0  0  0  0  0  0  0
   59.6780   34.5800   46.5070 C   0  0  0  0  0  0  0  0  0  0  0  0
   58.5860   33.6070   46.0070 C   0  0  2  0  0  0  0  0  0  0  0  0
   57.5530   33.3650   47.1310 C   0  0  0  0  0  0  0  0  0  0  0  0
   59.2390   32.2650   45.6100 C   0  0  0  0  0  0  0  0  0  0  0  0
   61.0420   32.6290   47.3430 C   0  0  0  0  0  0  0  0  0  0  0  0
   58.1930   26.5500   46.4730 C   0  0  0  0  0  0  0  0  0  0  0  0
   59.4020   26.4820   46.8310 O   0  0  0  0  0  0  0  0  0  0  0  0
   57.3440   25.4340   46.6280 C   0  0  0  0  0  0  0  0  0  0  0  0
   57.7990   24.2220   47.1810 C   0  0  0  0  0  0  0  0  0  0  0  0
   56.9190   23.1450   47.3440 C   0  0  0  0  0  0  0  0  0  0  0  0
   57.3830   21.9600   47.9070 O   0  0  0  0  0  0  0  0  0  0  0  0
   52.3619   19.8559   47.1289 H   0  0  0  0  0  0  0  0  0  0  0  0
   51.5996   20.4236   45.6046 H   0  0  0  0  0  0  0  0  0  0  0  0
   53.3120   19.8811   45.6046 H   0  0  0  0  0  0  0  0  0  0  0  0
   54.0805   24.5416   46.0426 H   0  0  0  0  0  0  0  0  0  0  0  0
   55.8937   28.7454   45.2037 H   0  0  0  0  0  0  0  0  0  0  0  0
   59.9750   28.4060   47.2690 H   0  0  0  0  0  0  0  0  0  0  0  0
   61.5105   30.1146   46.9855 H   0  0  0  0  0  0  0  0  0  0  0  0
   60.8223   30.3530   45.3203 H   0  0  0  0  0  0  0  0  0  0  0  0
   58.1329   30.7169   47.6069 H   0  0  0  0  0  0  0  0  0  0  0  0
   59.4155   30.9772   48.8440 H   0  0  0  0  0  0  0  0  0  0  0  0
   57.5267   32.5831   49.1620 H   0  0  0  0  0  0  0  0  0  0  0  0
   58.8869   34.6850   49.1434 H   0  0  0  0  0  0  0  0  0  0  0  0
   59.8584   33.2932   49.7349 H   0  0  0  0  0  0  0  0  0  0  0  0
   61.1594   34.6678   48.0944 H   0  0  0  0  0  0  0  0  0  0  0  0
   59.2152   35.5379   46.7868 H   0  0  0  0  0  0  0  0  0  0  0  0
   60.4136   34.7477   45.7066 H   0  0  0  0  0  0  0  0  0  0  0  0
   58.0787   34.0428   45.1337 H   0  0  0  0  0  0  0  0  0  0  0  0
   57.0881   34.3211   47.4134 H   0  0  0  0  0  0  0  0  0  0  0  0
   56.7782   32.6712   46.7727 H   0  0  0  0  0  0  0  0  0  0  0  0
   58.4610   31.5756   45.2503 H   0  0  0  0  0  0  0  0  0  0  0  0
   59.9776   32.4484   44.8158 H   0  0  0  0  0  0  0  0  0  0  0  0
   61.7780   32.8047   46.5446 H   0  0  0  0  0  0  0  0  0  0  0  0
   61.5397   32.2006   48.2255 H   0  0  0  0  0  0  0  0  0  0  0  0
   58.8508   24.1205   47.4865 H   0  0  0  0  0  0  0  0  0  0  0  0
  1  2  1  0
  2  3  2  0
  2  4  2  0
  2  5  1  0
  5  6  1  0
  6  7  2  0
  7  8  1  0
  8  9  1  0
  9 10  1  0
 10 11  2  0
 11 12  1  0
 12 13  2  0
 12 14  1  0
 14 15  1  0
 16 15  1  6
 16 17  1  0
 17 18  1  0
 18 19  1  0
 19 20  1  0
 20 21  1  0
 21 22  1  0
 22 23  1  0
 22 24  1  0
 20 25  1  0
 11 26  1  0
 26 27  2  0
 26 28  1  0
 28 29  1  0
 29 30  2  0
 30 31  1  0
 30  6  1  0
 28  8  2  0
 24 16  1  0
 25 16  1  0
 23 18  1  0
  1 32  1  0
  1 33  1  0
  1 34  1  0
  7 35  1  0
 10 36  1  0
 14 37  1  0
 15 38  1  0
 15 39  1  0
 17 40  1  0
 17 41  1  0
 18 42  1  1
 19 43  1  0
 19 44  1  0
 20 45  1  1
 21 46  1  0
 21 47  1  0
 22 48  1  6
 23 49  1  0
 23 50  1  0
 24 51  1  0
 24 52  1  0
 25 53  1  0
 25 54  1  0
 29 55  1  0
M  CHG  3   5  -1   9  -1  31  -1
M  END
>  <UniqueID>  (54) 
51

>  <SMILES>  (54) 
CS(=O)(=O)[N-]c1cc2[n-]cc(C(=O)NCC34CC5CC(CC(C5)C3)C4)c(=O)c2cc1[O-]

>  <Energy>  (54) 
67.274921077739

>  <Genealogy>  (54) 
CS(=O)(=O)[N-]c1cc2[n-]cc(C(=O)NCC34CC5CC(CC(C5)C3)C4)c(=O)c2cc1[O-] (protonated)
CS(=O)(=O)[N-]c1cc2[n-]cc(C(=O)NCC34CC5CC(CC(C5)C3)C4)c(=O)c2cc1[O-] (3D coordinates assigned)
CS(=O)(=O)[N-]c1cc2[n-]cc(C(=O)NCC34CC5CC(CC(C5)C3)C4)c(=O)c2cc1[O-] (nonaromatic ring conformer: 67.274921077739 kcal/mol)

>  <smiles>  (54) 
CS(=O)(=O)Nc1cc2[nH]cc(C(=O)NCC34CC5CC(CC(C5)C3)C4)c(=O)c2cc1O

>  <score_type>  (54) 
oracle

>  <origin>  (54) 
adg

>  <m_score__min__energy>  (54) 
-14.43

>  <m_primary>  (54) 
energy

$$$$
54:0
     RDKit          3D

 43 47  0  0  0  0  0  0  0  0999 V2000
   54.7640   27.4650   46.3810 H   0  0  0  0  0  0  0  0  0  0  0  0
   54.9600   26.5640   45.9630 O   0  0  0  0  0  0  0  0  0  0  0  0
   55.9960   25.7560   46.4240 C   0  0  0  0  0  0  0  0  0  0  0  0
   55.7950   24.6430   47.1490 N   0  0  0  0  0  0  0  0  0  0  0  0
   57.0450   24.1630   47.3120 C   0  0  0  0  0  0  0  0  0  0  0  0
   57.2860   23.1030   47.9480 O   0  0  0  0  0  0  0  0  0  0  0  0
   58.0170   24.9020   46.7360 N   0  0  0  0  0  0  0  0  0  0  0  0
   57.3450   25.9300   46.1920 C   0  0  0  0  0  0  0  0  0  0  0  0
   57.9870   26.9820   45.3890 C   0  0  0  0  0  0  0  0  0  0  0  0
   58.8323   26.6972   44.7454 H   0  0  0  0  0  0  0  0  0  0  0  0
   57.6040   28.2680   45.3940 C   0  0  0  0  0  0  0  0  0  0  0  0
   56.5170   28.8020   44.7090 C   0  0  0  0  0  0  0  0  0  0  0  0
   55.8200   28.2254   44.0830 H   0  0  0  0  0  0  0  0  0  0  0  0
   56.4440   30.1370   44.9270 N   0  0  0  0  0  0  0  0  0  0  0  0
   57.4550   30.4590   45.7200 N   0  0  0  0  0  0  0  0  0  0  0  0
   57.8140   31.6860   46.1950 C   0  0  0  0  0  0  0  0  0  0  0  0
   57.1420   32.7750   45.9470 N   0  0  0  0  0  0  0  0  0  0  0  0
   57.5580   33.8740   45.0810 C   0  0  0  0  0  0  0  0  0  0  0  0
   56.5579   34.1952   44.7544 H   0  0  0  0  0  0  0  0  0  0  0  0
   58.8900   33.6050   44.4060 C   0  0  0  0  0  0  0  0  0  0  0  0
   59.3938   32.6377   44.5489 H   0  0  0  0  0  0  0  0  0  0  0  0
   59.2599   33.6444   43.3708 H   0  0  0  0  0  0  0  0  0  0  0  0
   58.8050   34.5960   45.5570 C   0  0  0  0  0  0  0  0  0  0  0  0
   59.2473   34.3455   46.5325 H   0  0  0  0  0  0  0  0  0  0  0  0
   59.0879   35.6494   45.6996 H   0  0  0  0  0  0  0  0  0  0  0  0
   58.9290   31.7640   46.9710 N   0  0  0  0  0  0  0  0  0  0  0  0
   59.6660   30.6470   47.2610 C   0  0  0  0  0  0  0  0  0  0  0  0
   60.8150   30.7340   48.0550 O   0  0  0  0  0  0  0  0  0  0  0  0
   61.6710   31.8410   48.0560 C   0  0  0  0  0  0  0  0  0  0  0  0
   62.9690   31.6730   47.5570 C   0  0  0  0  0  0  0  0  0  0  0  0
   63.3023   30.6777   47.2278 H   0  0  0  0  0  0  0  0  0  0  0  0
   63.8430   32.7580   47.4740 C   0  0  0  0  0  0  0  0  0  0  0  0
   64.8577   32.6178   47.0730 H   0  0  0  0  0  0  0  0  0  0  0  0
   63.4290   34.0210   47.9000 C   0  0  0  0  0  0  0  0  0  0  0  0
   64.1119   34.8794   47.8175 H   0  0  0  0  0  0  0  0  0  0  0  0
   62.1490   34.1970   48.4310 C   0  0  0  0  0  0  0  0  0  0  0  0
   61.8315   35.1946   48.7685 H   0  0  0  0  0  0  0  0  0  0  0  0
   61.2630   33.1110   48.5380 C   0  0  0  0  0  0  0  0  0  0  0  0
   59.9880   33.3010   49.1750 N   0  0  0  0  0  0  0  0  0  0  0  0
   59.5600   32.4670   50.0000 O   0  0  0  0  0  0  0  0  0  0  0  0
   59.3000   34.4810   49.0080 O   0  0  0  0  0  0  0  0  0  0  0  0
   59.2900   29.4350   46.7670 N   0  0  0  0  0  0  0  0  0  0  0  0
   58.1700   29.3670   46.0110 C   0  0  0  0  0  0  0  0  0  0  0  0
  1  2  1  0
  2  3  1  0
  3  4  1  0
  4  5  1  0
  5  6  2  0
  5  7  1  0
  7  8  1  0
  8  9  1  0
  9 10  1  0
  9 11  2  3
 11 12  1  0
 12 13  1  0
 12 14  2  0
 14 15  1  0
 15 16  1  0
 16 17  2  0
 17 18  1  0
 18 19  1  0
 18 20  1  0
 20 21  1  0
 20 22  1  0
 20 23  1  0
 23 24  1  0
 23 25  1  0
 16 26  1  0
 26 27  2  0
 27 28  1  0
 28 29  1  0
 29 30  2  0
 30 31  1  0
 30 32  1  0
 32 33  1  0
 32 34  2  0
 34 35  1  0
 34 36  1  0
 36 37  1  0
 36 38  2  0
 38 39  1  0
 39 40  2  0
 39 41  1  0
 27 42  1  0
 42 43  2  0
  8  3  2  0
 43 11  1  0
 43 15  1  0
 23 18  1  0
 38 29  1  0
M  CHG  4   4  -1   7  -1  39   1  41  -1
M  END
>  <UniqueID>  (55) 
52

>  <SMILES>  (55) 
O=c1[n-]c(O)c(C=c2cnn3/c(=N\C4CC4)nc(Oc4ccccc4[N+](=O)[O-])nc23)[n-]1

>  <Energy>  (55) 
400.17653953212414

>  <Genealogy>  (55) 
O=c1[n-]c(O)c(C=c2cnn3c(=NC4CC4)nc(Oc4ccccc4[N+](=O)[O-])nc23)[n-]1 (protonated)
O=c1[n-]c(O)c(C=c2cnn3/c(=N\C4CC4)nc(Oc4ccccc4[N+](=O)[O-])nc23)[n-]1 (cis-trans isomerization)
O=c1[n-]c(O)c(C=c2cnn3/c(=N\C4CC4)nc(Oc4ccccc4[N+](=O)[O-])nc23)[n-]1 (3D coordinates assigned)
O=c1[n-]c(O)c(C=c2cnn3/c(=N\C4CC4)nc(Oc4ccccc4[N+](=O)[O-])nc23)[n-]1 (nonaromatic ring conformer: 400.17653953212414 kcal/mol)

>  <smiles>  (55) 
O=c1[nH]c(O)c(C=c2cnn3c(=NC4CC4)nc(Oc4ccccc4[N+](=O)[O-])nc23)[nH]1

>  <score_type>  (55) 
oracle

>  <origin>  (55) 
adg

>  <m_score__min__energy>  (55) 
-13.699999999999999

>  <m_primary>  (55) 
energy

$$$$
55:0
     RDKit          3D

 50 53  0  0  0  0  0  0  0  0999 V2000
   59.9280   34.2400   48.9080 C   0  0  0  0  0  0  0  0  0  0  0  0
   59.3910   33.4560   50.0570 C   0  0  0  0  0  0  0  0  0  0  0  0
   58.8630   32.2170   49.9290 N   0  0  0  0  0  0  0  0  0  0  0  0
   58.3900   31.7570   51.1160 C   0  0  0  0  0  0  0  0  0  0  0  0
   58.4920   32.6420   52.1690 C   0  0  0  0  0  0  0  0  0  0  0  0
   59.2490   34.0430   51.6340 S   0  0  0  0  0  0  0  0  0  0  0  0
   58.0790   32.3110   53.5590 C   0  0  0  0  0  0  0  0  0  0  0  0
   57.1430   31.0890   53.5550 C   0  0  0  0  0  0  0  0  0  0  0  0
   57.6820   29.9950   52.7020 N   0  0  0  0  0  0  0  0  0  0  0  0
   56.8820   28.7380   52.8350 C   0  0  2  0  0  0  0  0  0  0  0  0
   55.4490   28.9790   53.4010 C   0  0  0  0  0  0  0  0  0  0  0  0
   54.4530   29.1000   52.3370 N   0  0  0  0  0  0  0  0  0  0  0  0
   54.1400   30.3490   51.7040 C   0  0  0  0  0  0  0  0  0  0  0  0
   54.8790   31.3550   51.8810 O   0  0  0  0  0  0  0  0  0  0  0  0
   52.9100   30.4700   50.8610 C   0  0  0  0  0  0  0  0  0  0  0  0
   51.8550   31.2280   51.6100 C   0  0  0  0  0  0  0  0  0  0  0  0
   51.5860   31.1470   52.9590 C   0  0  0  0  0  0  0  0  0  0  0  0
   50.6110   32.0940   53.2110 C   0  0  0  0  0  0  0  0  0  0  0  0
   50.2770   32.7630   52.0880 N   0  0  0  0  0  0  0  0  0  0  0  0
   51.0470   32.2310   51.1210 C   0  0  0  0  0  0  0  0  0  0  0  0
   51.0250   32.6670   49.8020 O   0  0  0  0  0  0  0  0  0  0  0  0
   57.5770   27.7560   53.7660 C   0  0  0  0  0  0  0  0  0  0  0  0
   58.9540   27.8730   54.0250 C   0  0  0  0  0  0  0  0  0  0  0  0
   59.5940   26.9600   54.8700 C   0  0  0  0  0  0  0  0  0  0  0  0
   58.8670   25.9210   55.4580 C   0  0  0  0  0  0  0  0  0  0  0  0
   57.5000   25.7900   55.2000 C   0  0  0  0  0  0  0  0  0  0  0  0
   56.8560   26.6990   54.3550 C   0  0  0  0  0  0  0  0  0  0  0  0
   57.7010   30.4360   51.2760 C   0  0  0  0  0  0  0  0  0  0  0  0
   60.5117   35.0921   49.2864 H   0  0  0  0  0  0  0  0  0  0  0  0
   60.5752   33.5956   48.2950 H   0  0  0  0  0  0  0  0  0  0  0  0
   59.0933   34.6107   48.2950 H   0  0  0  0  0  0  0  0  0  0  0  0
   58.9720   32.0835   54.1596 H   0  0  0  0  0  0  0  0  0  0  0  0
   57.5468   33.1712   53.9913 H   0  0  0  0  0  0  0  0  0  0  0  0
   57.0334   30.7188   54.5850 H   0  0  0  0  0  0  0  0  0  0  0  0
   56.1701   31.3994   53.1462 H   0  0  0  0  0  0  0  0  0  0  0  0
   56.7982   28.3357   51.8146 H   0  0  0  0  0  0  0  0  0  0  0  0
   55.1759   28.1327   54.0485 H   0  0  0  0  0  0  0  0  0  0  0  0
   55.4607   29.9236   53.9646 H   0  0  0  0  0  0  0  0  0  0  0  0
   53.9740   28.2360   51.9960 H   0  0  0  0  0  0  0  0  0  0  0  0
   53.1549   31.0058   49.9321 H   0  0  0  0  0  0  0  0  0  0  0  0
   52.5338   29.4648   50.6201 H   0  0  0  0  0  0  0  0  0  0  0  0
   52.0523   30.4671   53.6872 H   0  0  0  0  0  0  0  0  0  0  0  0
   50.1650   32.2783   54.1995 H   0  0  0  0  0  0  0  0  0  0  0  0
   59.5310   28.6865   53.5609 H   0  0  0  0  0  0  0  0  0  0  0  0
   60.6707   27.0599   55.0719 H   0  0  0  0  0  0  0  0  0  0  0  0
   59.3715   25.2059   56.1244 H   0  0  0  0  0  0  0  0  0  0  0  0
   56.9298   24.9707   55.6622 H   0  0  0  0  0  0  0  0  0  0  0  0
   55.7811   26.5881   54.1492 H   0  0  0  0  0  0  0  0  0  0  0  0
   58.2315   29.6818   50.6762 H   0  0  0  0  0  0  0  0  0  0  0  0
   56.6606   30.5474   50.9365 H   0  0  0  0  0  0  0  0  0  0  0  0
  1  2  1  0
  2  3  2  0
  3  4  1  0
  4  5  2  0
  5  6  1  0
  5  7  1  0
  7  8  1  0
  8  9  1  0
  9 10  1  0
 10 11  1  0
 11 12  1  0
 12 13  1  0
 13 14  2  0
 13 15  1  0
 15 16  1  0
 16 17  1  0
 17 18  2  0
 18 19  1  0
 19 20  1  0
 20 21  1  0
 10 22  1  0
 22 23  2  0
 23 24  1  0
 24 25  2  0
 25 26  1  0
 26 27  2  0
  9 28  1  0
  6  2  1  0
 20 16  2  0
 27 22  1  0
 28  4  1  0
  1 29  1  0
  1 30  1  0
  1 31  1  0
  7 32  1  0
  7 33  1  0
  8 34  1  0
  8 35  1  0
 10 36  1  6
 11 37  1  0
 11 38  1  0
 12 39  1  0
 15 40  1  0
 15 41  1  0
 17 42  1  0
 18 43  1  0
 23 44  1  0
 24 45  1  0
 25 46  1  0
 26 47  1  0
 27 48  1  0
 28 49  1  0
 28 50  1  0
M  CHG  2  19  -1  21  -1
M  END
>  <UniqueID>  (56) 
53

>  <SMILES>  (56) 
Cc1nc2c(s1)CCN([C@H](CNC(=O)Cc1cc[n-]c1[O-])c1ccccc1)C2

>  <Energy>  (56) 
109.4067335990265

>  <Genealogy>  (56) 
Cc1nc2c(s1)CCN(C(CNC(=O)Cc1cc[n-]c1[O-])c1ccccc1)C2 (protonated)
Cc1nc2c(s1)CCN([C@H](CNC(=O)Cc1cc[n-]c1[O-])c1ccccc1)C2 (chirality)
Cc1nc2c(s1)CCN([C@H](CNC(=O)Cc1cc[n-]c1[O-])c1ccccc1)C2 (3D coordinates assigned)
Cc1nc2c(s1)CCN([C@H](CNC(=O)Cc1cc[n-]c1[O-])c1ccccc1)C2 (nonaromatic ring conformer: 109.4067335990265 kcal/mol)

>  <smiles>  (56) 
Cc1nc2c(s1)CCN(C(CNC(=O)Cc1cc[nH]c1O)c1ccccc1)C2

>  <score_type>  (56) 
oracle

>  <origin>  (56) 
adg

>  <m_score__min__energy>  (56) 
-16

>  <m_primary>  (56) 
energy

$$$$
56:0
     RDKit          3D

 46 48  0  0  0  0  0  0  0  0999 V2000
   55.5780   30.0920   43.7420 C   0  0  0  0  0  0  0  0  0  0  0  0
   56.1160   29.6560   44.9860 O   0  0  0  0  0  0  0  0  0  0  0  0
   57.3170   28.9430   45.1310 C   0  0  0  0  0  0  0  0  0  0  0  0
   57.4000   27.5680   44.8340 C   0  0  0  0  0  0  0  0  0  0  0  0
   58.5980   26.8750   45.0160 C   0  0  0  0  0  0  0  0  0  0  0  0
   59.7250   27.5400   45.4960 C   0  0  0  0  0  0  0  0  0  0  0  0
   59.6600   28.9030   45.7890 C   0  0  0  0  0  0  0  0  0  0  0  0
   58.4640   29.6190   45.6030 C   0  0  0  0  0  0  0  0  0  0  0  0
   58.4220   31.0300   45.8980 N   0  0  0  0  0  0  0  0  0  0  0  0
   58.8060   31.5170   47.2270 C   0  0  0  0  0  0  0  0  0  0  0  0
   58.1210   32.8590   47.5100 C   0  0  0  0  0  0  0  0  0  0  0  0
   58.3610   33.8840   46.4550 N   0  0  0  0  0  0  0  0  0  0  0  0
   59.2560   34.9620   46.9240 C   0  0  0  0  0  0  0  0  0  0  0  0
   60.5760   34.3840   47.4160 C   0  0  0  0  0  0  0  0  0  0  0  0
   61.5670   34.1630   46.4520 C   0  0  0  0  0  0  0  0  0  0  0  0
   62.8060   33.6880   46.8490 C   0  0  0  0  0  0  0  0  0  0  0  0
   63.7100   33.4920   45.9930 O   0  0  0  0  0  0  0  0  0  0  0  0
   63.0460   33.4470   48.1590 N   0  0  0  0  0  0  0  0  0  0  0  0
   62.0840   33.6370   49.1060 C   0  0  0  0  0  0  0  0  0  0  0  0
   62.4980   33.3520   50.6770 S   0  0  0  0  0  0  0  0  0  0  0  0
   60.8210   34.0700   48.7400 N   0  0  0  0  0  0  0  0  0  0  0  0
   59.7380   34.2190   49.7350 C   0  0  0  0  0  0  0  0  0  0  0  0
   58.8410   33.3390   45.1640 C   0  0  0  0  0  0  0  0  0  0  0  0
   58.1720   32.0030   44.8270 C   0  0  0  0  0  0  0  0  0  0  0  0
   54.7354   30.7748   43.9261 H   0  0  0  0  0  0  0  0  0  0  0  0
   56.3569   30.6168   43.1694 H   0  0  0  0  0  0  0  0  0  0  0  0
   55.2260   29.2212   43.1694 H   0  0  0  0  0  0  0  0  0  0  0  0
   56.5141   27.0368   44.4559 H   0  0  0  0  0  0  0  0  0  0  0  0
   58.6527   25.8020   44.7801 H   0  0  0  0  0  0  0  0  0  0  0  0
   60.6662   26.9902   45.6440 H   0  0  0  0  0  0  0  0  0  0  0  0
   60.5524   29.4219   46.1689 H   0  0  0  0  0  0  0  0  0  0  0  0
   58.4987   30.7834   47.9869 H   0  0  0  0  0  0  0  0  0  0  0  0
   59.8970   31.6534   47.2610 H   0  0  0  0  0  0  0  0  0  0  0  0
   57.0373   32.6870   47.5880 H   0  0  0  0  0  0  0  0  0  0  0  0
   58.5501   33.2502   48.4443 H   0  0  0  0  0  0  0  0  0  0  0  0
   59.4521   35.6564   46.0937 H   0  0  0  0  0  0  0  0  0  0  0  0
   58.7684   35.4924   47.7552 H   0  0  0  0  0  0  0  0  0  0  0  0
   61.3636   34.3646   45.3899 H   0  0  0  0  0  0  0  0  0  0  0  0
   63.9950   33.1090   48.4420 H   0  0  0  0  0  0  0  0  0  0  0  0
   60.1609   34.1608   50.7488 H   0  0  0  0  0  0  0  0  0  0  0  0
   59.2460   35.1933   49.5983 H   0  0  0  0  0  0  0  0  0  0  0  0
   59.0012   33.4138   49.5983 H   0  0  0  0  0  0  0  0  0  0  0  0
   58.6148   34.0618   44.3662 H   0  0  0  0  0  0  0  0  0  0  0  0
   59.9244   33.1678   45.2467 H   0  0  0  0  0  0  0  0  0  0  0  0
   57.0879   32.1556   44.7197 H   0  0  0  0  0  0  0  0  0  0  0  0
   58.5904   31.6179   43.8854 H   0  0  0  0  0  0  0  0  0  0  0  0
  1  2  1  0
  2  3  1  0
  3  4  2  0
  4  5  1  0
  5  6  2  0
  6  7  1  0
  7  8  2  0
  8  9  1  0
  9 10  1  0
 10 11  1  0
 11 12  1  0
 12 13  1  0
 13 14  1  0
 14 15  2  0
 15 16  1  0
 16 17  2  0
 16 18  1  0
 18 19  1  0
 19 20  2  0
 19 21  1  0
 21 22  1  0
 12 23  1  0
 23 24  1  0
  8  3  1  0
 24  9  1  0
 21 14  1  0
  1 25  1  0
  1 26  1  0
  1 27  1  0
  4 28  1  0
  5 29  1  0
  6 30  1  0
  7 31  1  0
 10 32  1  0
 10 33  1  0
 11 34  1  0
 11 35  1  0
 13 36  1  0
 13 37  1  0
 15 38  1  0
 18 39  1  0
 22 40  1  0
 22 41  1  0
 22 42  1  0
 23 43  1  0
 23 44  1  0
 24 45  1  0
 24 46  1  0
M  END
>  <UniqueID>  (57) 
54

>  <SMILES>  (57) 
COc1ccccc1N1CCN(Cc2cc(=O)[nH]c(=S)n2C)CC1

>  <Energy>  (57) 
68.70279153945245

>  <Genealogy>  (57) 
COc1ccccc1N1CCN(Cc2cc(=O)[nH]c(=S)n2C)CC1 (3D coordinates assigned)
COc1ccccc1N1CCN(Cc2cc(=O)[nH]c(=S)n2C)CC1 (nonaromatic ring conformer: 68.70279153945245 kcal/mol)

>  <smiles>  (57) 
COc1ccccc1N1CCN(Cc2cc(=O)[nH]c(=S)n2C)CC1

>  <score_type>  (57) 
oracle

>  <origin>  (57) 
adg

>  <m_score__min__energy>  (57) 
-7.6699999999999999

>  <m_primary>  (57) 
energy

$$$$
57:0
     RDKit          3D

 49 52  0  0  1  0  0  0  0  0999 V2000
   63.2900   30.8480   50.5350 C   0  0  0  0  0  0  0  0  0  0  0  0
   62.7150   31.8710   49.6100 C   0  0  0  0  0  0  0  0  0  0  0  0
   63.2780   32.2270   48.3960 C   0  0  0  0  0  0  0  0  0  0  0  0
   62.4340   33.1950   47.8710 C   0  0  0  0  0  0  0  0  0  0  0  0
   62.6930   33.8410   46.5600 C   0  0  0  0  0  0  0  0  0  0  0  0
   61.4150   33.4090   48.7350 N   0  0  0  0  0  0  0  0  0  0  0  0
   60.3100   34.3480   48.5530 C   0  0  0  0  0  0  0  0  0  0  0  0
   59.7340   34.3060   47.2050 C   0  0  0  0  0  0  0  0  0  0  0  0
   59.7850   35.3310   46.2870 C   0  0  0  0  0  0  0  0  0  0  0  0
   59.2250   35.2160   45.0430 C   0  0  0  0  0  0  0  0  0  0  0  0
   58.5890   34.0590   44.6800 C   0  0  0  0  0  0  0  0  0  0  0  0
   58.5120   33.0010   45.5710 C   0  0  0  0  0  0  0  0  0  0  0  0
   57.8460   31.7740   45.2140 C   0  0  0  0  0  0  0  0  0  0  0  0
   56.6060   31.7880   44.9030 O   0  0  0  0  0  0  0  0  0  0  0  0
   58.4880   30.4980   45.1800 N   0  0  0  0  0  0  0  0  0  0  0  0
   57.8110   29.3890   45.2560 C   0  0  0  0  0  0  0  0  0  0  0  0
   58.3180   28.1060   45.1250 C   0  0  0  0  0  0  0  0  0  0  0  0
   57.2440   27.2530   45.2760 C   0  0  0  0  0  0  0  0  0  0  0  0
   57.2930   25.7940   45.2100 C   0  0  0  0  0  0  0  0  0  0  0  0
   57.3410   25.0380   46.3870 C   0  0  0  0  0  0  0  0  0  0  0  0
   57.3900   23.6530   46.3130 C   0  0  0  0  0  0  0  0  0  0  0  0
   57.3900   23.0640   45.0650 C   0  0  0  0  0  0  0  0  0  0  0  0
   57.3430   23.7750   43.8850 C   0  0  0  0  0  0  0  0  0  0  0  0
   57.2960   25.1540   43.9870 C   0  0  0  0  0  0  0  0  0  0  0  0
   56.1340   27.9900   45.4900 N   0  0  0  0  0  0  0  0  0  0  0  0
   56.4710   29.2700   45.4790 N   0  0  0  0  0  0  0  0  0  0  0  0
   59.0810   33.1300   46.8200 C   0  0  0  0  0  0  0  0  0  0  0  0
   61.6070   32.6020   49.7690 N   0  0  0  0  0  0  0  0  0  0  0  0
   63.1165   31.1566   51.5765 H   0  0  0  0  0  0  0  0  0  0  0  0
   62.8054   29.8771   50.3547 H   0  0  0  0  0  0  0  0  0  0  0  0
   64.3713   30.7572   50.3547 H   0  0  0  0  0  0  0  0  0  0  0  0
   64.1980   31.8276   47.9443 H   0  0  0  0  0  0  0  0  0  0  0  0
   63.0979   34.8508   46.7224 H   0  0  0  0  0  0  0  0  0  0  0  0
   63.4202   33.2412   45.9930 H   0  0  0  0  0  0  0  0  0  0  0  0
   61.7529   33.9097   45.9930 H   0  0  0  0  0  0  0  0  0  0  0  0
   59.5202   34.1038   49.2787 H   0  0  0  0  0  0  0  0  0  0  0  0
   60.7120   35.3604   48.7060 H   0  0  0  0  0  0  0  0  0  0  0  0
   60.2901   36.2690   46.5610 H   0  0  0  0  0  0  0  0  0  0  0  0
   59.2861   36.0546   44.3338 H   0  0  0  0  0  0  0  0  0  0  0  0
   58.1389   33.9696   43.6803 H   0  0  0  0  0  0  0  0  0  0  0  0
   59.3649   27.8245   44.9384 H   0  0  0  0  0  0  0  0  0  0  0  0
   57.3399   25.5393   47.3661 H   0  0  0  0  0  0  0  0  0  0  0  0
   57.4279   23.0404   47.2258 H   0  0  0  0  0  0  0  0  0  0  0  0
   57.4297   21.9662   45.0087 H   0  0  0  0  0  0  0  0  0  0  0  0
   57.3429   23.2696   42.9080 H   0  0  0  0  0  0  0  0  0  0  0  0
   57.2600   25.7572   43.0678 H   0  0  0  0  0  0  0  0  0  0  0  0
   55.1470   27.6600   45.6460 H   0  0  0  0  0  0  0  0  0  0  0  0
   55.7870   30.0700   45.6240 H   0  0  0  0  0  0  0  0  0  0  0  0
   59.0204   32.2909   47.5287 H   0  0  0  0  0  0  0  0  0  0  0  0
  1  2  1  0
  2  3  1  0
  3  4  2  0
  4  5  1  0
  4  6  1  0
  6  7  1  0
  7  8  1  0
  8  9  2  0
  9 10  1  0
 10 11  2  0
 11 12  1  0
 12 13  1  0
 13 14  2  0
 13 15  1  0
 15 16  2  0
 16 17  1  0
 17 18  2  0
 18 19  1  0
 19 20  2  0
 20 21  1  0
 21 22  2  0
 22 23  1  0
 23 24  2  0
 18 25  1  0
 25 26  1  0
 12 27  2  0
  6 28  1  0
 28  2  2  0
 27  8  1  0
 26 16  1  0
 24 19  1  0
  1 29  1  0
  1 30  1  0
  1 31  1  0
  3 32  1  0
  5 33  1  0
  5 34  1  0
  5 35  1  0
  7 36  1  0
  7 37  1  0
  9 38  1  0
 10 39  1  0
 11 40  1  0
 17 41  1  0
 20 42  1  0
 21 43  1  0
 22 44  1  0
 23 45  1  0
 24 46  1  0
 25 47  1  0
 26 48  1  0
 27 49  1  0
M  END
>  <smiles>  (58) 
Cc1cc(C)n(Cc2cccc(C(=O)N=c3cc(-c4ccccc4)[nH][nH]3)c2)n1

>  <score_type>  (58) 
oracle

>  <origin>  (58) 
adg

>  <m_score__min__energy>  (58) 
-9.8000000000000007

>  <m_primary>  (58) 
energy

$$$$
58:0
     RDKit          3D

 46 48  0  0  0  0  0  0  0  0999 V2000
   62.7557   31.0536   47.8218 H   0  0  0  0  0  0  0  0  0  0  0  0
   61.9350   31.6960   47.4700 C   0  0  0  0  0  0  0  0  0  0  0  0
   60.6620   31.1570   47.2760 C   0  0  0  0  0  0  0  0  0  0  0  0
   60.4789   30.0941   47.4920 H   0  0  0  0  0  0  0  0  0  0  0  0
   59.6130   31.9660   46.8060 C   0  0  0  0  0  0  0  0  0  0  0  0
   58.2940   31.4170   46.6630 N   0  0  0  0  0  0  0  0  0  0  0  0
   57.9210   30.3610   45.9880 C   0  0  0  0  0  0  0  0  0  0  0  0
   57.3640   30.5650   44.7290 C   0  0  0  0  0  0  0  0  0  0  0  0
   57.2684   31.5852   44.3289 H   0  0  0  0  0  0  0  0  0  0  0  0
   56.9280   29.4790   43.9760 C   0  0  0  0  0  0  0  0  0  0  0  0
   56.2600   29.7010   42.6510 C   0  0  0  0  0  0  0  0  0  0  0  0
   55.2276   30.0441   42.8138 H   0  0  0  0  0  0  0  0  0  0  0  0
   56.8146   30.4631   42.0839 H   0  0  0  0  0  0  0  0  0  0  0  0
   56.2481   28.7585   42.0839 H   0  0  0  0  0  0  0  0  0  0  0  0
   57.0440   28.2230   44.4850 N   0  0  0  0  0  0  0  0  0  0  0  0
   56.6680   27.4290   43.9180 H   0  0  0  0  0  0  0  0  0  0  0  0
   57.6300   27.9830   45.6690 N   0  0  0  0  0  0  0  0  0  0  0  0
   57.7230   26.5850   46.1550 C   0  0  1  0  0  0  0  0  0  0  0  0
   58.4393   26.4894   46.9844 H   0  0  0  0  0  0  0  0  0  0  0  0
   56.3650   26.1580   46.7480 C   0  0  0  0  0  0  0  0  0  0  0  0
   56.1737   26.7319   47.6667 H   0  0  0  0  0  0  0  0  0  0  0  0
   56.3963   25.0822   46.9752 H   0  0  0  0  0  0  0  0  0  0  0  0
   55.3260   26.4020   45.8210 O   0  0  0  0  0  0  0  0  0  0  0  0
   54.6020   25.2130   45.6050 C   0  0  0  0  0  0  0  0  0  0  0  0
   54.3309   24.7677   46.5736 H   0  0  0  0  0  0  0  0  0  0  0  0
   53.6878   25.4385   45.0364 H   0  0  0  0  0  0  0  0  0  0  0  0
   55.2220   24.5043   45.0364 H   0  0  0  0  0  0  0  0  0  0  0  0
   58.3060   25.6670   45.0420 C   0  0  0  0  0  0  0  0  0  0  0  0
   59.2258   26.2640   44.9553 H   0  0  0  0  0  0  0  0  0  0  0  0
   57.9020   24.2020   45.1740 C   0  0  0  0  0  0  0  0  0  0  0  0
   58.6499   23.4102   45.0201 H   0  0  0  0  0  0  0  0  0  0  0  0
   57.4211   23.5974   45.9571 H   0  0  0  0  0  0  0  0  0  0  0  0
   57.4050   25.0140   43.9930 C   0  0  0  0  0  0  0  0  0  0  0  0
   57.7935   24.8113   42.9841 H   0  0  0  0  0  0  0  0  0  0  0  0
   56.4167   25.2416   43.5671 H   0  0  0  0  0  0  0  0  0  0  0  0
   58.0750   29.0280   46.4470 C   0  0  0  0  0  0  0  0  0  0  0  0
   58.6380   28.7950   47.5510 O   0  0  0  0  0  0  0  0  0  0  0  0
   59.8380   33.3380   46.5810 C   0  0  0  0  0  0  0  0  0  0  0  0
   58.7180   34.2260   46.1120 C   0  0  0  0  0  0  0  0  0  0  0  0
   58.1916   34.6433   46.9831 H   0  0  0  0  0  0  0  0  0  0  0  0
   59.1297   35.0458   45.5050 H   0  0  0  0  0  0  0  0  0  0  0  0
   58.0137   33.6382   45.5050 H   0  0  0  0  0  0  0  0  0  0  0  0
   61.1240   33.8700   46.7780 C   0  0  0  0  0  0  0  0  0  0  0  0
   61.3103   34.9368   46.5851 H   0  0  0  0  0  0  0  0  0  0  0  0
   62.1680   33.0500   47.2180 C   0  0  0  0  0  0  0  0  0  0  0  0
   63.7690   33.7240   47.4630 Cl  0  0  0  0  0  0  0  0  0  0  0  0
  1  2  1  0
  2  3  2  0
  3  4  1  0
  3  5  1  0
  5  6  1  0
  6  7  2  0
  7  8  1  0
  8  9  1  0
  8 10  2  0
 10 11  1  0
 11 12  1  0
 11 13  1  0
 11 14  1  0
 10 15  1  0
 15 16  1  0
 15 17  1  0
 17 18  1  0
 18 19  1  1
 18 20  1  0
 20 21  1  0
 20 22  1  0
 20 23  1  0
 23 24  1  0
 24 25  1  0
 24 26  1  0
 24 27  1  0
 18 28  1  0
 28 29  1  0
 28 30  1  0
 30 31  1  0
 30 32  1  0
 30 33  1  0
 33 34  1  0
 33 35  1  0
 17 36  1  0
 36 37  2  0
  5 38  2  0
 38 39  1  0
 39 40  1  0
 39 41  1  0
 39 42  1  0
 38 43  1  0
 43 44  1  0
 43 45  2  0
 45 46  1  0
 45  2  1  0
 36  7  1  0
 33 28  1  0
M  END
>  <UniqueID>  (59) 
55

>  <SMILES>  (59) 
COC[C@@H](C1CC1)n1[nH]c(C)c/c(=N/c2ccc(Cl)cc2C)c1=O

>  <Energy>  (59) 
330.07400083083746

>  <Genealogy>  (59) 
COC[C@@H](C1CC1)n1[nH]c(C)cc(=Nc2ccc(Cl)cc2C)c1=O (chirality)
COC[C@@H](C1CC1)n1[nH]c(C)c/c(=N/c2ccc(Cl)cc2C)c1=O (cis-trans isomerization)
COC[C@@H](C1CC1)n1[nH]c(C)c/c(=N/c2ccc(Cl)cc2C)c1=O (3D coordinates assigned)
COC[C@@H](C1CC1)n1[nH]c(C)c/c(=N/c2ccc(Cl)cc2C)c1=O (nonaromatic ring conformer: 330.07400083083746 kcal/mol)

>  <smiles>  (59) 
COCC(C1CC1)n1[nH]c(C)cc(=Nc2ccc(Cl)cc2C)c1=O

>  <score_type>  (59) 
oracle

>  <origin>  (59) 
adg

>  <m_score__min__energy>  (59) 
-8.2200000000000006

>  <m_primary>  (59) 
energy

$$$$
59:0
     RDKit          3D

 47 50  0  0  0  0  0  0  0  0999 V2000
   56.9850   31.8640   51.1400 O   0  0  0  0  0  0  0  0  0  0  0  0
   57.2900   30.6580   51.3510 C   0  0  0  0  0  0  0  0  0  0  0  0
   58.6050   30.1190   50.8710 C   0  0  0  0  0  0  0  0  0  0  0  0
   58.7260   30.2650   49.4240 N   0  0  0  0  0  0  0  0  0  0  0  0
   59.4000   31.3550   48.7850 C   0  0  0  0  0  0  0  0  0  0  0  0
   60.5090   31.7400   49.2380 O   0  0  0  0  0  0  0  0  0  0  0  0
   58.8480   32.0060   47.5830 C   0  0  0  0  0  0  0  0  0  0  0  0
   57.9060   33.0340   47.7440 C   0  0  0  0  0  0  0  0  0  0  0  0
   57.3820   33.6910   46.6290 C   0  0  0  0  0  0  0  0  0  0  0  0
   57.7900   33.3250   45.3450 C   0  0  0  0  0  0  0  0  0  0  0  0
   58.7150   32.2930   45.1720 C   0  0  0  0  0  0  0  0  0  0  0  0
   59.2390   31.6180   46.2820 C   0  0  0  0  0  0  0  0  0  0  0  0
   60.3770   30.2500   46.0000 S   0  0  0  0  0  0  0  0  0  0  0  0
   59.0900   29.0080   46.1340 C   0  0  0  0  0  0  0  0  0  0  0  0
   59.1080   28.0890   47.1870 C   0  0  0  0  0  0  0  0  0  0  0  0
   58.1050   27.1210   47.2920 C   0  0  0  0  0  0  0  0  0  0  0  0
   57.0720   27.0570   46.3380 C   0  0  0  0  0  0  0  0  0  0  0  0
   56.0400   26.0600   46.4480 N   0  0  0  0  0  0  0  0  0  0  0  0
   56.2850   24.9420   46.9470 O   0  0  0  0  0  0  0  0  0  0  0  0
   54.7640   26.3220   46.0040 O   0  0  0  0  0  0  0  0  0  0  0  0
   57.0690   27.9810   45.2760 C   0  0  0  0  0  0  0  0  0  0  0  0
   58.0740   28.9470   45.1750 C   0  0  0  0  0  0  0  0  0  0  0  0
   56.3850   29.7870   52.0480 N   0  0  0  0  0  0  0  0  0  0  0  0
   55.0250   30.1240   52.3750 C   0  0  0  0  0  0  0  0  0  0  0  0
   54.3620   29.4000   53.3990 C   0  0  0  0  0  0  0  0  0  0  0  0
   53.0250   29.6840   53.7320 C   0  0  0  0  0  0  0  0  0  0  0  0
   52.3770   30.6840   53.0140 C   0  0  0  0  0  0  0  0  0  0  0  0
   51.1130   31.1080   53.1560 N   0  0  0  0  0  0  0  0  0  0  0  0
   51.0270   32.0670   52.2000 C   0  0  0  0  0  0  0  0  0  0  0  0
   49.9740   32.7270   52.0010 O   0  0  0  0  0  0  0  0  0  0  0  0
   52.1570   32.2640   51.4730 N   0  0  0  0  0  0  0  0  0  0  0  0
   52.9980   31.3710   52.0160 C   0  0  0  0  0  0  0  0  0  0  0  0
   54.3200   31.1200   51.6570 C   0  0  0  0  0  0  0  0  0  0  0  0
   59.4214   30.6716   51.3590 H   0  0  0  0  0  0  0  0  0  0  0  0
   58.6623   29.0501   51.1243 H   0  0  0  0  0  0  0  0  0  0  0  0
   57.5790   33.3235   48.7536 H   0  0  0  0  0  0  0  0  0  0  0  0
   56.6467   34.4981   46.7624 H   0  0  0  0  0  0  0  0  0  0  0  0
   57.3824   33.8501   44.4685 H   0  0  0  0  0  0  0  0  0  0  0  0
   59.0339   32.0086   44.1584 H   0  0  0  0  0  0  0  0  0  0  0  0
   59.9136   28.1276   47.9350 H   0  0  0  0  0  0  0  0  0  0  0  0
   58.1231   26.4041   48.1261 H   0  0  0  0  0  0  0  0  0  0  0  0
   56.2703   27.9425   44.5206 H   0  0  0  0  0  0  0  0  0  0  0  0
   58.0658   29.6615   44.3386 H   0  0  0  0  0  0  0  0  0  0  0  0
   56.7660   28.8860   52.4150 H   0  0  0  0  0  0  0  0  0  0  0  0
   54.8998   28.6069   53.9392 H   0  0  0  0  0  0  0  0  0  0  0  0
   52.5094   29.1340   54.5330 H   0  0  0  0  0  0  0  0  0  0  0  0
   54.8016   31.6784   50.8407 H   0  0  0  0  0  0  0  0  0  0  0  0
  1  2  2  0
  2  3  1  0
  3  4  1  0
  4  5  1  0
  5  6  2  0
  5  7  1  0
  7  8  2  0
  8  9  1  0
  9 10  2  0
 10 11  1  0
 11 12  2  0
 12 13  1  0
 13 14  1  0
 14 15  2  0
 15 16  1  0
 16 17  2  0
 17 18  1  0
 18 19  2  0
 18 20  1  0
 17 21  1  0
 21 22  2  0
  2 23  1  0
 23 24  1  0
 24 25  2  0
 25 26  1  0
 26 27  2  0
 27 28  1  0
 28 29  1  0
 29 30  2  0
 29 31  1  0
 31 32  1  0
 32 33  2  0
 12  7  1  0
 22 14  1  0
 33 24  1  0
 32 27  1  0
  3 34  1  0
  3 35  1  0
  8 36  1  0
  9 37  1  0
 10 38  1  0
 11 39  1  0
 15 40  1  0
 16 41  1  0
 21 42  1  0
 22 43  1  0
 23 44  1  0
 25 45  1  0
 26 46  1  0
 33 47  1  0
M  CHG  5   4  -1  18   1  20  -1  28  -1  31  -1
M  END
>  <UniqueID>  (60) 
56

>  <SMILES>  (60) 
O=C(C[N-]C(=O)c1ccccc1Sc1ccc([N+](=O)[O-])cc1)Nc1ccc2[n-]c(=O)[n-]c2c1

>  <Energy>  (60) 
92.11336745611652

>  <Genealogy>  (60) 
O=C(C[N-]C(=O)c1ccccc1Sc1ccc([N+](=O)[O-])cc1)Nc1ccc2[n-]c(=O)[n-]c2c1 (protonated)
O=C(C[N-]C(=O)c1ccccc1Sc1ccc([N+](=O)[O-])cc1)Nc1ccc2[n-]c(=O)[n-]c2c1 (3D coordinates assigned)
O=C(C[N-]C(=O)c1ccccc1Sc1ccc([N+](=O)[O-])cc1)Nc1ccc2[n-]c(=O)[n-]c2c1 (optimized conformer: 92.11336745611652 kcal/mol)

>  <smiles>  (60) 
O=C(CNC(=O)c1ccccc1Sc1ccc([N+](=O)[O-])cc1)Nc1ccc2[nH]c(=O)[nH]c2c1

>  <score_type>  (60) 
oracle

>  <origin>  (60) 
adg

>  <m_score__min__energy>  (60) 
-14.619999999999999

>  <m_primary>  (60) 
energy

$$$$
60:0
     RDKit          3D

 45 48  0  0  0  0  0  0  0  0999 V2000
   59.9310   27.9980   49.1350 O   0  0  0  0  0  0  0  0  0  0  0  0
   60.2770   28.8220   48.2460 C   0  0  0  0  0  0  0  0  0  0  0  0
   61.2870   29.8770   48.5760 C   0  0  0  0  0  0  0  0  0  0  0  0
   60.5670   31.1470   49.6760 S   0  0  0  0  0  0  0  0  0  0  0  0
   59.9320   32.1950   48.3500 C   0  0  0  0  0  0  0  0  0  0  0  0
   59.1700   31.5990   47.3980 N   0  0  0  0  0  0  0  0  0  0  0  0
   58.6830   32.2880   46.3400 C   0  0  0  0  0  0  0  0  0  0  0  0
   57.9130   31.6330   45.3710 C   0  0  0  0  0  0  0  0  0  0  0  0
   57.4370   32.3370   44.2640 C   0  0  0  0  0  0  0  0  0  0  0  0
   57.7190   33.6990   44.1250 C   0  0  0  0  0  0  0  0  0  0  0  0
   58.4790   34.3620   45.0930 C   0  0  0  0  0  0  0  0  0  0  0  0
   58.9670   33.6580   46.2110 C   0  0  0  0  0  0  0  0  0  0  0  0
   59.7280   34.2770   47.2190 C   0  0  0  0  0  0  0  0  0  0  0  0
   59.9850   35.5110   47.1300 O   0  0  0  0  0  0  0  0  0  0  0  0
   60.1870   33.5460   48.2910 N   0  0  0  0  0  0  0  0  0  0  0  0
   60.9460   34.2190   49.3670 C   0  0  0  0  0  0  0  0  0  0  0  0
   62.3720   33.7620   49.3930 C   0  0  0  0  0  0  0  0  0  0  0  0
   63.1640   33.4550   48.2920 C   0  0  0  0  0  0  0  0  0  0  0  0
   64.4750   33.1040   48.6360 C   0  0  0  0  0  0  0  0  0  0  0  0
   64.7250   33.1510   50.0010 C   0  0  0  0  0  0  0  0  0  0  0  0
   63.3130   33.6280   50.7810 S   0  0  0  0  0  0  0  0  0  0  0  0
   59.7200   28.7520   46.9230 N   0  0  0  0  0  0  0  0  0  0  0  0
   58.4840   28.0970   46.5860 C   0  0  0  0  0  0  0  0  0  0  0  0
   57.6240   28.7000   45.6540 C   0  0  0  0  0  0  0  0  0  0  0  0
   56.3950   28.1120   45.3390 C   0  0  0  0  0  0  0  0  0  0  0  0
   56.0060   26.9250   45.9630 C   0  0  0  0  0  0  0  0  0  0  0  0
   54.7820   26.3440   45.6520 O   0  0  0  0  0  0  0  0  0  0  0  0
   56.8440   26.3260   46.9070 C   0  0  0  0  0  0  0  0  0  0  0  0
   58.0740   26.9100   47.2240 C   0  0  0  0  0  0  0  0  0  0  0  0
   62.1455   29.4088   49.0798 H   0  0  0  0  0  0  0  0  0  0  0  0
   61.6075   30.3615   47.6419 H   0  0  0  0  0  0  0  0  0  0  0  0
   57.6832   30.5631   45.4824 H   0  0  0  0  0  0  0  0  0  0  0  0
   56.8389   31.8193   43.4996 H   0  0  0  0  0  0  0  0  0  0  0  0
   57.3418   34.2507   43.2513 H   0  0  0  0  0  0  0  0  0  0  0  0
   58.6961   35.4346   44.9814 H   0  0  0  0  0  0  0  0  0  0  0  0
   60.9207   35.3056   49.1980 H   0  0  0  0  0  0  0  0  0  0  0  0
   60.4818   33.9649   50.3313 H   0  0  0  0  0  0  0  0  0  0  0  0
   62.7974   33.4849   47.2553 H   0  0  0  0  0  0  0  0  0  0  0  0
   65.2355   32.8179   47.8945 H   0  0  0  0  0  0  0  0  0  0  0  0
   65.6826   32.9164   50.4889 H   0  0  0  0  0  0  0  0  0  0  0  0
   60.2510   29.2150   46.1510 H   0  0  0  0  0  0  0  0  0  0  0  0
   57.9192   29.6417   45.1682 H   0  0  0  0  0  0  0  0  0  0  0  0
   55.7336   28.5853   44.5984 H   0  0  0  0  0  0  0  0  0  0  0  0
   56.5354   25.3932   47.4017 H   0  0  0  0  0  0  0  0  0  0  0  0
   58.7252   26.4400   47.9757 H   0  0  0  0  0  0  0  0  0  0  0  0
  1  2  2  0
  2  3  1  0
  3  4  1  0
  4  5  1  0
  5  6  2  0
  6  7  1  0
  7  8  2  0
  8  9  1  0
  9 10  2  0
 10 11  1  0
 11 12  2  0
 12 13  1  0
 13 14  2  0
 13 15  1  0
 15 16  1  0
 16 17  1  0
 17 18  2  0
 18 19  1  0
 19 20  2  0
 20 21  1  0
  2 22  1  0
 22 23  1  0
 23 24  2  0
 24 25  1  0
 25 26  2  0
 26 27  1  0
 26 28  1  0
 28 29  2  0
 15  5  1  0
 21 17  1  0
 29 23  1  0
 12  7  1  0
  3 30  1  0
  3 31  1  0
  8 32  1  0
  9 33  1  0
 10 34  1  0
 11 35  1  0
 16 36  1  0
 16 37  1  0
 18 38  1  0
 19 39  1  0
 20 40  1  0
 22 41  1  0
 24 42  1  0
 25 43  1  0
 28 44  1  0
 29 45  1  0
M  CHG  1  27  -1
M  END
>  <UniqueID>  (61) 
57

>  <SMILES>  (61) 
O=C(CSc1nc2ccccc2c(=O)n1Cc1cccs1)Nc1ccc([O-])cc1

>  <Energy>  (61) 
77.69315312043561

>  <Genealogy>  (61) 
O=C(CSc1nc2ccccc2c(=O)n1Cc1cccs1)Nc1ccc([O-])cc1 (protonated)
O=C(CSc1nc2ccccc2c(=O)n1Cc1cccs1)Nc1ccc([O-])cc1 (3D coordinates assigned)
O=C(CSc1nc2ccccc2c(=O)n1Cc1cccs1)Nc1ccc([O-])cc1 (optimized conformer: 77.69315312043561 kcal/mol)

>  <smiles>  (61) 
O=C(CSc1nc2ccccc2c(=O)n1Cc1cccs1)Nc1ccc(O)cc1

>  <score_type>  (61) 
oracle

>  <origin>  (61) 
adg

>  <m_score__min__energy>  (61) 
-12.130000000000001

>  <m_primary>  (61) 
energy

$$$$
61:0
     RDKit          3D

 46 49  0  0  0  0  0  0  0  0999 V2000
   59.5500   30.3000   55.1000 C   0  0  0  0  0  0  0  0  0  0  0  0
   58.4530   31.1690   54.5690 C   0  0  0  0  0  0  0  0  0  0  0  0
   57.7710   31.8540   55.3780 O   0  0  0  0  0  0  0  0  0  0  0  0
   58.1720   31.2260   53.1180 C   0  0  0  0  0  0  0  0  0  0  0  0
   58.6590   32.4810   52.0970 S   0  0  0  0  0  0  0  0  0  0  0  0
   57.9780   31.7790   50.7380 C   0  0  0  0  0  0  0  0  0  0  0  0
   58.0060   32.3220   49.5560 N   0  0  0  0  0  0  0  0  0  0  0  0
   58.5750   31.7410   48.3710 C   0  0  0  0  0  0  0  0  0  0  0  0
   58.8890   30.5230   48.3940 O   0  0  0  0  0  0  0  0  0  0  0  0
   58.7220   32.5090   47.1120 C   0  0  0  0  0  0  0  0  0  0  0  0
   58.2540   31.9380   45.9160 C   0  0  0  0  0  0  0  0  0  0  0  0
   58.2970   32.6570   44.7180 C   0  0  0  0  0  0  0  0  0  0  0  0
   57.6860   31.9150   43.2050 S   0  0  0  0  0  0  0  0  0  0  0  0
   56.9610   30.5330   44.0770 C   0  0  0  0  0  0  0  0  0  0  0  0
   57.6350   29.4070   44.3760 N   0  0  0  0  0  0  0  0  0  0  0  0
   56.6900   28.6830   45.0080 C   0  0  0  0  0  0  0  0  0  0  0  0
   55.5140   29.3330   45.0840 N   0  0  0  0  0  0  0  0  0  0  0  0
   55.6840   30.5030   44.4950 N   0  0  0  0  0  0  0  0  0  0  0  0
   58.7980   33.9600   44.7050 C   0  0  0  0  0  0  0  0  0  0  0  0
   59.2750   34.5370   45.8830 C   0  0  0  0  0  0  0  0  0  0  0  0
   59.2710   33.8140   47.0850 C   0  0  0  0  0  0  0  0  0  0  0  0
   59.8890   34.6250   48.5720 S   0  0  0  0  0  0  0  0  0  0  0  0
   61.5270   33.8910   48.4530 C   0  0  0  0  0  0  0  0  0  0  0  0
   62.1340   33.7000   47.2040 C   0  0  0  0  0  0  0  0  0  0  0  0
   63.4060   33.1240   47.1220 C   0  0  0  0  0  0  0  0  0  0  0  0
   64.0720   32.7280   48.2850 C   0  0  0  0  0  0  0  0  0  0  0  0
   63.4620   32.8990   49.5320 C   0  0  0  0  0  0  0  0  0  0  0  0
   62.1900   33.4730   49.6150 C   0  0  0  0  0  0  0  0  0  0  0  0
   57.3650   30.6090   51.0230 N   0  0  0  0  0  0  0  0  0  0  0  0
   57.4720   30.2890   52.3410 C   0  0  0  0  0  0  0  0  0  0  0  0
   56.8700   29.0260   52.8710 C   0  0  0  0  0  0  0  0  0  0  0  0
   59.5303   30.3156   56.1997 H   0  0  0  0  0  0  0  0  0  0  0  0
   59.4052   29.2689   54.7453 H   0  0  0  0  0  0  0  0  0  0  0  0
   60.5206   30.6769   54.7453 H   0  0  0  0  0  0  0  0  0  0  0  0
   57.8498   30.9150   45.9228 H   0  0  0  0  0  0  0  0  0  0  0  0
   56.8605   27.6755   45.4153 H   0  0  0  0  0  0  0  0  0  0  0  0
   58.8168   34.5323   43.7658 H   0  0  0  0  0  0  0  0  0  0  0  0
   59.6576   35.5682   45.8686 H   0  0  0  0  0  0  0  0  0  0  0  0
   61.6089   34.0037   46.2864 H   0  0  0  0  0  0  0  0  0  0  0  0
   63.8827   32.9825   46.1408 H   0  0  0  0  0  0  0  0  0  0  0  0
   65.0754   32.2821   48.2198 H   0  0  0  0  0  0  0  0  0  0  0  0
   63.9831   32.5818   50.4473 H   0  0  0  0  0  0  0  0  0  0  0  0
   61.7077   33.5971   50.5958 H   0  0  0  0  0  0  0  0  0  0  0  0
   56.8805   29.0481   53.9707 H   0  0  0  0  0  0  0  0  0  0  0  0
   55.8327   28.9371   52.5160 H   0  0  0  0  0  0  0  0  0  0  0  0
   57.4542   28.1642   52.5160 H   0  0  0  0  0  0  0  0  0  0  0  0
  1  2  1  0
  2  3  2  0
  2  4  1  0
  4  5  1  0
  5  6  1  0
  6  7  2  3
  7  8  1  0
  8  9  2  0
  8 10  1  0
 10 11  2  0
 11 12  1  0
 12 13  1  0
 13 14  1  0
 14 15  1  0
 15 16  2  0
 16 17  1  0
 17 18  1  0
 12 19  2  0
 19 20  1  0
 20 21  2  0
 21 22  1  0
 22 23  1  0
 23 24  2  0
 24 25  1  0
 25 26  2  0
 26 27  1  0
 27 28  2  0
  6 29  1  0
 29 30  1  0
 30 31  1  0
 30  4  2  0
 21 10  1  0
 28 23  1  0
 18 14  2  0
  1 32  1  0
  1 33  1  0
  1 34  1  0
 11 35  1  0
 16 36  1  0
 19 37  1  0
 20 38  1  0
 24 39  1  0
 25 40  1  0
 26 41  1  0
 27 42  1  0
 28 43  1  0
 31 44  1  0
 31 45  1  0
 31 46  1  0
M  CHG  2  17  -1  29  -1
M  END
>  <UniqueID>  (62) 
58

>  <SMILES>  (62) 
CC(=O)c1sc(=NC(=O)c2cc(Sc3nc[n-]n3)ccc2Sc2ccccc2)[n-]c1C

>  <Energy>  (62) 
112.0344559881928

>  <Genealogy>  (62) 
CC(=O)c1sc(=NC(=O)c2cc(Sc3nc[n-]n3)ccc2Sc2ccccc2)[n-]c1C (protonated)
CC(=O)c1sc(=NC(=O)c2cc(Sc3nc[n-]n3)ccc2Sc2ccccc2)[n-]c1C (3D coordinates assigned)
CC(=O)c1sc(=NC(=O)c2cc(Sc3nc[n-]n3)ccc2Sc2ccccc2)[n-]c1C (optimized conformer: 112.0344559881928 kcal/mol)

>  <smiles>  (62) 
CC(=O)c1sc(=NC(=O)c2cc(Sc3nc[nH]n3)ccc2Sc2ccccc2)[nH]c1C

>  <score_type>  (62) 
oracle

>  <origin>  (62) 
adg

>  <m_score__min__energy>  (62) 
-13.34

>  <m_primary>  (62) 
energy

$$$$
62:0
     RDKit          3D

 65 68  0  0  0  0  0  0  0  0999 V2000
   55.5350   26.7630   45.9940 N   0  0  0  0  0  0  0  0  0  0  0  0
   56.6970   27.8980   45.4080 S   0  0  0  0  0  0  0  0  0  0  0  0
   57.4340   28.4950   46.5730 O   0  0  0  0  0  0  0  0  0  0  0  0
   57.6600   27.1880   44.4990 O   0  0  0  0  0  0  0  0  0  0  0  0
   55.8750   29.1520   44.5340 N   0  0  0  0  0  0  0  0  0  0  0  0
   56.5040   30.3140   43.9760 C   0  0  0  0  0  0  0  0  0  0  0  0
   56.7490   30.4400   42.5970 C   0  0  0  0  0  0  0  0  0  0  0  0
   57.3740   31.5840   42.1000 C   0  0  0  0  0  0  0  0  0  0  0  0
   57.7630   32.6090   42.9650 C   0  0  0  0  0  0  0  0  0  0  0  0
   57.5250   32.5040   44.3480 C   0  0  0  0  0  0  0  0  0  0  0  0
   57.9860   33.5570   45.2880 C   0  0  0  0  0  0  0  0  0  0  0  0
   57.2010   34.4950   45.6040 O   0  0  0  0  0  0  0  0  0  0  0  0
   59.3040   33.5270   45.8560 N   0  0  0  0  0  0  0  0  0  0  0  0
   59.6000   34.1200   47.1640 C   0  0  1  0  0  0  0  0  0  0  0  0
   58.8290   33.3750   48.2690 C   0  0  0  0  0  0  0  0  0  0  0  0
   59.4170   32.0080   48.5050 C   0  0  0  0  0  0  0  0  0  0  0  0
   59.3700   31.0270   47.5020 C   0  0  0  0  0  0  0  0  0  0  0  0
   59.8670   29.7430   47.7500 C   0  0  0  0  0  0  0  0  0  0  0  0
   60.4100   29.4310   48.9970 C   0  0  0  0  0  0  0  0  0  0  0  0
   60.4600   30.4020   50.0020 C   0  0  0  0  0  0  0  0  0  0  0  0
   59.9660   31.6860   49.7590 C   0  0  0  0  0  0  0  0  0  0  0  0
   61.0860   34.0910   47.4450 C   0  0  0  0  0  0  0  0  0  0  0  0
   61.8910   33.7490   46.5370 O   0  0  0  0  0  0  0  0  0  0  0  0
   61.6000   34.3450   48.7600 N   0  0  0  0  0  0  0  0  0  0  0  0
   62.8180   33.7820   49.2640 C   0  0  0  0  0  0  0  0  0  0  0  0
   63.4270   34.3050   50.4140 C   0  0  0  0  0  0  0  0  0  0  0  0
   64.5530   33.6800   50.9580 C   0  0  0  0  0  0  0  0  0  0  0  0
   65.0830   32.5260   50.3570 C   0  0  0  0  0  0  0  0  0  0  0  0
   66.2370   31.8310   50.9680 C   0  0  0  0  0  0  0  0  0  0  0  0
   67.3310   32.4470   51.0910 O   0  0  0  0  0  0  0  0  0  0  0  0
   66.1410   30.4620   51.4010 N   0  0  0  0  0  0  0  0  0  0  0  0
   65.0040   30.0280   52.2290 C   0  0  0  0  0  0  0  0  0  0  0  0
   64.7290   28.5130   52.0800 C   0  0  0  0  0  0  0  0  0  0  0  0
   65.6860   27.8330   51.2860 O   0  0  0  0  0  0  0  0  0  0  0  0
   66.9880   28.1690   51.7130 C   0  0  0  0  0  0  0  0  0  0  0  0
   67.3160   29.5940   51.2660 C   0  0  0  0  0  0  0  0  0  0  0  0
   64.5080   32.0470   49.1670 C   0  0  0  0  0  0  0  0  0  0  0  0
   63.3850   32.6760   48.6230 C   0  0  0  0  0  0  0  0  0  0  0  0
   56.8880   31.3480   44.8400 C   0  0  0  0  0  0  0  0  0  0  0  0
   54.7850   26.6960   45.2680 H   0  0  0  0  0  0  0  0  0  0  0  0
   56.4476   29.6359   41.9096 H   0  0  0  0  0  0  0  0  0  0  0  0
   57.5615   31.6792   41.0203 H   0  0  0  0  0  0  0  0  0  0  0  0
   58.2589   33.5046   42.5625 H   0  0  0  0  0  0  0  0  0  0  0  0
   60.0840   33.0860   45.3210 H   0  0  0  0  0  0  0  0  0  0  0  0
   59.2759   35.1711   47.1507 H   0  0  0  0  0  0  0  0  0  0  0  0
   58.8834   33.9565   49.2011 H   0  0  0  0  0  0  0  0  0  0  0  0
   57.7827   33.2579   47.9504 H   0  0  0  0  0  0  0  0  0  0  0  0
   58.9412   31.2686   46.5183 H   0  0  0  0  0  0  0  0  0  0  0  0
   59.8297   28.9779   46.9605 H   0  0  0  0  0  0  0  0  0  0  0  0
   60.7991   28.4203   49.1896 H   0  0  0  0  0  0  0  0  0  0  0  0
   60.8885   30.1547   50.9844 H   0  0  0  0  0  0  0  0  0  0  0  0
   60.0066   32.4479   50.5514 H   0  0  0  0  0  0  0  0  0  0  0  0
   63.0178   35.2089   50.8890 H   0  0  0  0  0  0  0  0  0  0  0  0
   65.0262   34.0937   51.8608 H   0  0  0  0  0  0  0  0  0  0  0  0
   65.2275   30.2471   53.2835 H   0  0  0  0  0  0  0  0  0  0  0  0
   64.1092   30.5723   51.8927 H   0  0  0  0  0  0  0  0  0  0  0  0
   64.7262   28.0608   53.0828 H   0  0  0  0  0  0  0  0  0  0  0  0
   63.7597   28.4121   51.5698 H   0  0  0  0  0  0  0  0  0  0  0  0
   67.0423   28.1066   52.8099 H   0  0  0  0  0  0  0  0  0  0  0  0
   67.7122   27.4689   51.2710 H   0  0  0  0  0  0  0  0  0  0  0  0
   68.1311   29.9897   51.8897 H   0  0  0  0  0  0  0  0  0  0  0  0
   67.6208   29.5724   50.2093 H   0  0  0  0  0  0  0  0  0  0  0  0
   64.9442   31.1728   48.6616 H   0  0  0  0  0  0  0  0  0  0  0  0
   62.9455   32.2999   47.6874 H   0  0  0  0  0  0  0  0  0  0  0  0
   56.6892   31.2557   45.9179 H   0  0  0  0  0  0  0  0  0  0  0  0
  1  2  1  0
  2  3  2  0
  2  4  2  0
  2  5  1  0
  5  6  1  0
  6  7  2  0
  7  8  1  0
  8  9  2  0
  9 10  1  0
 10 11  1  0
 11 12  2  0
 11 13  1  0
 13 14  1  0
 14 15  1  0
 15 16  1  0
 16 17  2  0
 17 18  1  0
 18 19  2  0
 19 20  1  0
 20 21  2  0
 14 22  1  0
 22 23  2  0
 22 24  1  0
 24 25  1  0
 25 26  2  0
 26 27  1  0
 27 28  2  0
 28 29  1  0
 29 30  2  0
 29 31  1  0
 31 32  1  0
 32 33  1  0
 33 34  1  0
 34 35  1  0
 35 36  1  0
 28 37  1  0
 37 38  2  0
 10 39  2  0
 39  6  1  0
 21 16  1  0
 38 25  1  0
 36 31  1  0
  1 40  1  0
  7 41  1  0
  8 42  1  0
  9 43  1  0
 13 44  1  0
 14 45  1  6
 15 46  1  0
 15 47  1  0
 17 48  1  0
 18 49  1  0
 19 50  1  0
 20 51  1  0
 21 52  1  0
 26 53  1  0
 27 54  1  0
 32 55  1  0
 32 56  1  0
 33 57  1  0
 33 58  1  0
 35 59  1  0
 35 60  1  0
 36 61  1  0
 36 62  1  0
 37 63  1  0
 38 64  1  0
 39 65  1  0
M  CHG  3   1  -1   5  -1  24  -1
M  END
>  <UniqueID>  (63) 
59

>  <SMILES>  (63) 
[NH-]S(=O)(=O)[N-]c1cccc(C(=O)N[C@@H](Cc2ccccc2)C(=O)[N-]c2ccc(C(=O)N3CCOCC3)cc2)c1

>  <Energy>  (63) 
84.00809907810482

>  <Genealogy>  (63) 
[NH-]S(=O)(=O)[N-]c1cccc(C(=O)NC(Cc2ccccc2)C(=O)[N-]c2ccc(C(=O)N3CCOCC3)cc2)c1 (protonated)
[NH-]S(=O)(=O)[N-]c1cccc(C(=O)N[C@@H](Cc2ccccc2)C(=O)[N-]c2ccc(C(=O)N3CCOCC3)cc2)c1 (chirality)
[NH-]S(=O)(=O)[N-]c1cccc(C(=O)N[C@@H](Cc2ccccc2)C(=O)[N-]c2ccc(C(=O)N3CCOCC3)cc2)c1 (3D coordinates assigned)
[NH-]S(=O)(=O)[N-]c1cccc(C(=O)N[C@@H](Cc2ccccc2)C(=O)[N-]c2ccc(C(=O)N3CCOCC3)cc2)c1 (nonaromatic ring conformer: 84.00809907810482 kcal/mol)

>  <smiles>  (63) 
NS(=O)(=O)Nc1cccc(C(=O)NC(Cc2ccccc2)C(=O)Nc2ccc(C(=O)N3CCOCC3)cc2)c1

>  <score_type>  (63) 
oracle

>  <origin>  (63) 
adg

>  <m_score__min__energy>  (63) 
-15.380000000000001

>  <m_primary>  (63) 
energy

$$$$
63:0
     RDKit          3D

 30 31  0  0  0  0  0  0  0  0999 V2000
   59.4418   23.0643   45.6555 H   0  0  0  0  0  0  0  0  0  0  0  0
   58.7520   23.9010   45.4710 C   0  0  0  0  0  0  0  0  0  0  0  0
   57.9086   23.7755   44.7761 H   0  0  0  0  0  0  0  0  0  0  0  0
   58.9380   25.0660   46.0890 C   0  0  0  0  0  0  0  0  0  0  0  0
   59.7887   25.1661   46.7791 H   0  0  0  0  0  0  0  0  0  0  0  0
   58.0500   26.2300   45.8870 C   0  0  0  0  0  0  0  0  0  0  0  0
   58.3920   27.5700   45.7190 C   0  0  0  0  0  0  0  0  0  0  0  0
   59.7680   28.1680   45.7830 C   0  0  0  0  0  0  0  0  0  0  0  0
   60.0634   28.2964   46.8348 H   0  0  0  0  0  0  0  0  0  0  0  0
   60.4822   27.4991   45.2806 H   0  0  0  0  0  0  0  0  0  0  0  0
   59.7663   29.1465   45.2806 H   0  0  0  0  0  0  0  0  0  0  0  0
   57.1920   28.2570   45.5360 C   0  0  0  0  0  0  0  0  0  0  0  0
   57.0170   29.6990   45.2630 C   0  0  0  0  0  0  0  0  0  0  0  0
   56.0710   30.0910   44.5300 O   0  0  0  0  0  0  0  0  0  0  0  0
   57.9620   30.6300   45.8140 N   0  0  0  0  0  0  0  0  0  0  0  0
   57.9960   31.9250   45.6840 C   0  0  0  0  0  0  0  0  0  0  0  0
   59.1480   32.8850   46.4410 S   0  0  0  0  0  0  0  0  0  0  0  0
   58.5140   34.3190   45.8300 C   0  0  0  0  0  0  0  0  0  0  0  0
   58.9077   35.3295   46.0142 H   0  0  0  0  0  0  0  0  0  0  0  0
   57.4060   34.0040   45.0520 C   0  0  0  0  0  0  0  0  0  0  0  0
   56.8069   34.7699   44.5377 H   0  0  0  0  0  0  0  0  0  0  0  0
   57.1190   32.6770   44.9750 N   0  0  0  0  0  0  0  0  0  0  0  0
   56.2890   32.3270   44.4500 H   0  0  0  0  0  0  0  0  0  0  0  0
   56.1550   27.4010   45.6280 N   0  0  0  0  0  0  0  0  0  0  0  0
   55.1410   27.6370   45.5330 H   0  0  0  0  0  0  0  0  0  0  0  0
   56.6670   26.1750   45.8480 C   0  0  0  0  0  0  0  0  0  0  0  0
   55.8310   24.9430   45.9940 C   0  0  0  0  0  0  0  0  0  0  0  0
   55.6829   24.7248   47.0619 H   0  0  0  0  0  0  0  0  0  0  0  0
   54.8545   25.1035   45.5137 H   0  0  0  0  0  0  0  0  0  0  0  0
   56.3409   24.0949   45.5137 H   0  0  0  0  0  0  0  0  0  0  0  0
  1  2  1  0
  2  3  1  0
  2  4  2  0
  4  5  1  0
  4  6  1  0
  6  7  1  0
  7  8  1  0
  8  9  1  0
  8 10  1  0
  8 11  1  0
  7 12  2  0
 12 13  1  0
 13 14  2  0
 13 15  1  0
 15 16  2  0
 16 17  1  0
 17 18  1  0
 18 19  1  0
 18 20  2  0
 20 21  1  0
 20 22  1  0
 22 23  1  0
 12 24  1  0
 24 25  1  0
 24 26  1  0
 26 27  1  0
 27 28  1  0
 27 29  1  0
 27 30  1  0
 26  6  2  0
 22 16  1  0
M  END
>  <UniqueID>  (64) 
60

>  <SMILES>  (64) 
C=Cc1c(C)[nH]c(C(=O)/N=c2\[nH]ccs2)c1C

>  <Energy>  (64) 
92.22071272985892

>  <Genealogy>  (64) 
C=Cc1c(C)[nH]c(C(=O)/N=c2\[nH]ccs2)c1C (cis-trans isomerization)
C=Cc1c(C)[nH]c(C(=O)/N=c2\[nH]ccs2)c1C (3D coordinates assigned)
C=Cc1c(C)[nH]c(C(=O)/N=c2\[nH]ccs2)c1C (optimized conformer: 92.22071272985892 kcal/mol)

>  <smiles>  (64) 
C=Cc1c(C)[nH]c(C(=O)N=c2[nH]ccs2)c1C

>  <score_type>  (64) 
oracle

>  <origin>  (64) 
adg

>  <m_score__min__energy>  (64) 
-6.9900000000000002

>  <m_primary>  (64) 
energy

$$$$
64:0
     RDKit          3D

 62 64  0  0  0  0  0  0  0  0999 V2000
   51.3320   23.6020   44.3400 C   0  0  0  0  0  0  0  0  0  0  0  0
   52.5420   23.0150   44.8900 N   0  0  0  0  0  0  0  0  0  0  0  0
   53.4480   23.7080   45.7560 C   0  0  0  0  0  0  0  0  0  0  0  0
   53.6000   24.9510   45.6100 O   0  0  0  0  0  0  0  0  0  0  0  0
   54.1610   23.0000   46.8770 C   0  0  0  0  0  0  0  0  0  0  0  0
   55.4770   23.5180   47.0650 O   0  0  0  0  0  0  0  0  0  0  0  0
   56.6180   23.1410   46.3350 C   0  0  0  0  0  0  0  0  0  0  0  0
   56.6780   21.9210   45.6310 C   0  0  0  0  0  0  0  0  0  0  0  0
   57.8360   21.5580   44.9400 C   0  0  0  0  0  0  0  0  0  0  0  0
   58.9410   22.4070   44.9320 C   0  0  0  0  0  0  0  0  0  0  0  0
   58.8950   23.6260   45.6130 C   0  0  0  0  0  0  0  0  0  0  0  0
   57.7420   24.0000   46.3230 C   0  0  0  0  0  0  0  0  0  0  0  0
   57.7300   25.3170   47.0590 C   0  0  0  0  0  0  0  0  0  0  0  0
   57.8640   26.4550   46.1500 N   0  0  0  0  0  0  0  0  0  0  0  0
   56.7980   27.3520   45.8040 C   0  0  0  0  0  0  0  0  0  0  0  0
   55.6060   26.9860   45.9750 O   0  0  0  0  0  0  0  0  0  0  0  0
   57.0660   28.6750   45.2270 C   0  0  0  0  0  0  0  0  0  0  0  0
   56.0760   29.3420   44.4920 C   0  0  0  0  0  0  0  0  0  0  0  0
   56.3130   30.6320   44.0060 C   0  0  0  0  0  0  0  0  0  0  0  0
   57.5510   31.2570   44.2310 C   0  0  0  0  0  0  0  0  0  0  0  0
   57.7780   32.6810   43.8170 C   0  0  0  0  0  0  0  0  0  0  0  0
   57.2540   33.5250   44.8210 O   0  0  0  0  0  0  0  0  0  0  0  0
   58.3020   34.2470   45.4300 C   0  0  0  0  0  0  0  0  0  0  0  0
   58.6130   33.6350   46.7680 C   0  0  0  0  0  0  0  0  0  0  0  0
   57.6780   33.0940   47.4200 O   0  0  0  0  0  0  0  0  0  0  0  0
   59.9570   33.6110   47.2920 N   0  0  0  0  0  0  0  0  0  0  0  0
   60.1750   33.3490   48.7230 C   0  0  0  0  0  0  0  0  0  0  0  0
   61.3980   34.1250   49.2240 C   0  0  0  0  0  0  0  0  0  0  0  0
   62.6700   33.8430   48.3970 C   0  0  0  0  0  0  0  0  0  0  0  0
   62.3890   33.1940   47.0320 C   0  0  0  0  0  0  0  0  0  0  0  0
   61.1130   33.7510   46.3900 C   0  0  0  0  0  0  0  0  0  0  0  0
   58.5510   30.5700   44.9350 C   0  0  0  0  0  0  0  0  0  0  0  0
   58.3130   29.2840   45.4230 C   0  0  0  0  0  0  0  0  0  0  0  0
   50.6735   23.9215   45.1611 H   0  0  0  0  0  0  0  0  0  0  0  0
   51.5953   24.4725   43.7212 H   0  0  0  0  0  0  0  0  0  0  0  0
   50.8112   22.8564   43.7212 H   0  0  0  0  0  0  0  0  0  0  0  0
   53.5877   23.1328   47.8064 H   0  0  0  0  0  0  0  0  0  0  0  0
   54.2418   21.9340   46.6178 H   0  0  0  0  0  0  0  0  0  0  0  0
   55.8063   21.2501   45.6260 H   0  0  0  0  0  0  0  0  0  0  0  0
   57.8760   20.6000   44.4009 H   0  0  0  0  0  0  0  0  0  0  0  0
   59.8519   22.1166   44.3880 H   0  0  0  0  0  0  0  0  0  0  0  0
   59.7666   24.2968   45.5931 H   0  0  0  0  0  0  0  0  0  0  0  0
   56.7800   25.4094   47.6058 H   0  0  0  0  0  0  0  0  0  0  0  0
   58.5884   25.3292   47.7468 H   0  0  0  0  0  0  0  0  0  0  0  0
   55.1115   28.8502   44.2972 H   0  0  0  0  0  0  0  0  0  0  0  0
   55.5270   31.1592   43.4454 H   0  0  0  0  0  0  0  0  0  0  0  0
   58.8559   32.8669   43.7004 H   0  0  0  0  0  0  0  0  0  0  0  0
   57.2792   32.8801   42.8570 H   0  0  0  0  0  0  0  0  0  0  0  0
   59.1962   34.2071   44.7906 H   0  0  0  0  0  0  0  0  0  0  0  0
   57.9980   35.2955   45.5653 H   0  0  0  0  0  0  0  0  0  0  0  0
   59.2869   33.6657   49.2896 H   0  0  0  0  0  0  0  0  0  0  0  0
   60.3494   32.2726   48.8678 H   0  0  0  0  0  0  0  0  0  0  0  0
   61.1765   35.2012   49.1708 H   0  0  0  0  0  0  0  0  0  0  0  0
   61.5962   33.7976   50.2553 H   0  0  0  0  0  0  0  0  0  0  0  0
   63.1922   34.7962   48.2273 H   0  0  0  0  0  0  0  0  0  0  0  0
   63.2762   33.1288   48.9736 H   0  0  0  0  0  0  0  0  0  0  0  0
   63.2395   33.3900   46.3625 H   0  0  0  0  0  0  0  0  0  0  0  0
   62.2504   32.1140   47.1883 H   0  0  0  0  0  0  0  0  0  0  0  0
   61.2623   34.8165   46.1611 H   0  0  0  0  0  0  0  0  0  0  0  0
   60.9085   33.1815   45.4714 H   0  0  0  0  0  0  0  0  0  0  0  0
   59.5277   31.0471   45.1034 H   0  0  0  0  0  0  0  0  0  0  0  0
   59.1066   28.7469   45.9631 H   0  0  0  0  0  0  0  0  0  0  0  0
  1  2  1  0
  2  3  1  0
  3  4  2  0
  3  5  1  0
  5  6  1  0
  6  7  1  0
  7  8  2  0
  8  9  1  0
  9 10  2  0
 10 11  1  0
 11 12  2  0
 12 13  1  0
 13 14  1  0
 14 15  1  0
 15 16  2  0
 15 17  1  0
 17 18  2  0
 18 19  1  0
 19 20  2  0
 20 21  1  0
 21 22  1  0
 22 23  1  0
 23 24  1  0
 24 25  2  0
 24 26  1  0
 26 27  1  0
 27 28  1  0
 28 29  1  0
 29 30  1  0
 30 31  1  0
 20 32  1  0
 32 33  2  0
 12  7  1  0
 33 17  1  0
 31 26  1  0
  1 34  1  0
  1 35  1  0
  1 36  1  0
  5 37  1  0
  5 38  1  0
  8 39  1  0
  9 40  1  0
 10 41  1  0
 11 42  1  0
 13 43  1  0
 13 44  1  0
 18 45  1  0
 19 46  1  0
 21 47  1  0
 21 48  1  0
 23 49  1  0
 23 50  1  0
 27 51  1  0
 27 52  1  0
 28 53  1  0
 28 54  1  0
 29 55  1  0
 29 56  1  0
 30 57  1  0
 30 58  1  0
 31 59  1  0
 31 60  1  0
 32 61  1  0
 33 62  1  0
M  CHG  2   2  -1  14  -1
M  END
>  <UniqueID>  (65) 
61

>  <SMILES>  (65) 
C[N-]C(=O)COc1ccccc1C[N-]C(=O)c1ccc(COCC(=O)N2CCCCC2)cc1

>  <Energy>  (65) 
62.202601819483974

>  <Genealogy>  (65) 
C[N-]C(=O)COc1ccccc1C[N-]C(=O)c1ccc(COCC(=O)N2CCCCC2)cc1 (protonated)
C[N-]C(=O)COc1ccccc1C[N-]C(=O)c1ccc(COCC(=O)N2CCCCC2)cc1 (3D coordinates assigned)
C[N-]C(=O)COc1ccccc1C[N-]C(=O)c1ccc(COCC(=O)N2CCCCC2)cc1 (nonaromatic ring conformer: 62.202601819483974 kcal/mol)

>  <smiles>  (65) 
CNC(=O)COc1ccccc1CNC(=O)c1ccc(COCC(=O)N2CCCCC2)cc1

>  <score_type>  (65) 
oracle

>  <origin>  (65) 
adg

>  <m_score__min__energy>  (65) 
-12.619999999999999

>  <m_primary>  (65) 
energy

$$$$
65:0
     RDKit          3D

 41 43  0  0  0  0  0  0  0  0999 V2000
   54.7640   28.5870   44.5230 H   0  0  0  0  0  0  0  0  0  0  0  0
   55.5910   28.7460   45.0840 O   0  0  0  0  0  0  0  0  0  0  0  0
   56.3630   27.6950   45.5790 C   0  0  0  0  0  0  0  0  0  0  0  0
   57.7530   27.8460   45.6540 C   0  0  0  0  0  0  0  0  0  0  0  0
   58.2170   28.7926   45.3398 H   0  0  0  0  0  0  0  0  0  0  0  0
   58.5570   26.8010   46.1260 C   0  0  0  0  0  0  0  0  0  0  0  0
   59.9770   27.0020   46.2240 N   0  0  0  0  0  0  0  0  0  0  0  0
   60.5830   28.1240   46.1110 N   0  0  0  0  0  0  0  0  0  0  0  0
   60.4290   29.2540   46.9830 C   0  0  0  0  0  0  0  0  0  0  0  0
   60.6220   30.5680   46.5200 C   0  0  0  0  0  0  0  0  0  0  0  0
   60.9226   30.7431   45.4765 H   0  0  0  0  0  0  0  0  0  0  0  0
   60.4330   31.6520   47.3820 C   0  0  0  0  0  0  0  0  0  0  0  0
   60.6086   32.6762   47.0211 H   0  0  0  0  0  0  0  0  0  0  0  0
   60.0210   31.4390   48.7030 C   0  0  0  0  0  0  0  0  0  0  0  0
   59.7720   32.8020   49.7890 S   0  0  0  0  0  0  0  0  0  0  0  0
   59.7130   34.0510   48.9570 O   0  0  0  0  0  0  0  0  0  0  0  0
   60.9070   32.9360   50.7640 O   0  0  0  0  0  0  0  0  0  0  0  0
   58.2690   32.6530   50.6460 N   0  0  0  0  0  0  0  0  0  0  0  0
   57.8570   31.7160   51.4530 C   0  0  0  0  0  0  0  0  0  0  0  0
   57.3310   30.6050   50.9950 O   0  0  0  0  0  0  0  0  0  0  0  0
   56.9840   29.8080   51.9630 N   0  0  0  0  0  0  0  0  0  0  0  0
   57.2980   30.4260   53.1160 C   0  0  0  0  0  0  0  0  0  0  0  0
   57.0260   29.8380   54.4630 C   0  0  0  0  0  0  0  0  0  0  0  0
   57.3517   30.5420   55.2429 H   0  0  0  0  0  0  0  0  0  0  0  0
   55.9479   29.6467   54.5687 H   0  0  0  0  0  0  0  0  0  0  0  0
   57.5782   28.8926   54.5687 H   0  0  0  0  0  0  0  0  0  0  0  0
   57.8730   31.6600   52.8500 C   0  0  0  0  0  0  0  0  0  0  0  0
   58.2690   32.6800   53.8760 C   0  0  0  0  0  0  0  0  0  0  0  0
   58.1091   32.2680   54.8833 H   0  0  0  0  0  0  0  0  0  0  0  0
   59.3314   32.9349   53.7485 H   0  0  0  0  0  0  0  0  0  0  0  0
   57.6569   33.5850   53.7485 H   0  0  0  0  0  0  0  0  0  0  0  0
   59.7990   30.1320   49.1580 C   0  0  0  0  0  0  0  0  0  0  0  0
   59.4738   29.9595   50.1946 H   0  0  0  0  0  0  0  0  0  0  0  0
   59.9900   29.0470   48.2970 C   0  0  0  0  0  0  0  0  0  0  0  0
   59.7944   28.0249   48.6536 H   0  0  0  0  0  0  0  0  0  0  0  0
   57.9530   25.6180   46.5810 C   0  0  0  0  0  0  0  0  0  0  0  0
   58.5735   24.8111   46.9980 H   0  0  0  0  0  0  0  0  0  0  0  0
   56.5660   25.4620   46.5060 C   0  0  0  0  0  0  0  0  0  0  0  0
   56.1002   24.5245   46.8438 H   0  0  0  0  0  0  0  0  0  0  0  0
   55.7700   26.4940   46.0030 C   0  0  0  0  0  0  0  0  0  0  0  0
   54.3920   26.3240   45.9330 O   0  0  0  0  0  0  0  0  0  0  0  0
  1  2  1  0
  2  3  1  0
  3  4  2  0
  4  5  1  0
  4  6  1  0
  6  7  1  0
  7  8  2  0
  8  9  1  0
  9 10  2  0
 10 11  1  0
 10 12  1  0
 12 13  1  0
 12 14  2  0
 14 15  1  0
 15 16  2  0
 15 17  2  0
 15 18  1  0
 18 19  2  3
 19 20  1  0
 20 21  1  0
 21 22  1  0
 22 23  1  0
 23 24  1  0
 23 25  1  0
 23 26  1  0
 22 27  2  0
 27 28  1  0
 28 29  1  0
 28 30  1  0
 28 31  1  0
 14 32  1  0
 32 33  1  0
 32 34  2  0
 34 35  1  0
  6 36  2  0
 36 37  1  0
 36 38  1  0
 38 39  1  0
 38 40  2  0
 40 41  1  0
 40  3  1  0
 34  9  1  0
 27 19  1  0
M  CHG  2  21  -1  41  -1
M  END
>  <UniqueID>  (66) 
62

>  <SMILES>  (66) 
Cc1[n-]oc(=NS(=O)(=O)c2ccc(/N=N\c3ccc([O-])c(O)c3)cc2)c1C

>  <Energy>  (66) 
96.03311602046112

>  <Genealogy>  (66) 
Cc1[n-]oc(=NS(=O)(=O)c2ccc(N=Nc3ccc([O-])c(O)c3)cc2)c1C (protonated)
Cc1[n-]oc(=NS(=O)(=O)c2ccc(/N=N\c3ccc([O-])c(O)c3)cc2)c1C (cis-trans isomerization)
Cc1[n-]oc(=NS(=O)(=O)c2ccc(/N=N\c3ccc([O-])c(O)c3)cc2)c1C (3D coordinates assigned)
Cc1[n-]oc(=NS(=O)(=O)c2ccc(/N=N\c3ccc([O-])c(O)c3)cc2)c1C (optimized conformer: 96.03311602046112 kcal/mol)

>  <smiles>  (66) 
Cc1[nH]oc(=NS(=O)(=O)c2ccc(N=Nc3ccc(O)c(O)c3)cc2)c1C

>  <score_type>  (66) 
oracle

>  <origin>  (66) 
adg

>  <m_score__min__energy>  (66) 
-13.289999999999999

>  <m_primary>  (66) 
energy

$$$$
66:0
     RDKit          3D

 28 29  0  0  0  0  0  0  0  0999 V2000
   60.7550   27.3600   47.9640 C   0  0  0  0  0  0  0  0  0  0  0  0
   60.0230   28.4230   47.1840 C   0  0  0  0  0  0  0  0  0  0  0  0
   60.2470   29.7600   47.5250 C   0  0  0  0  0  0  0  0  0  0  0  0
   59.5370   30.7770   46.9040 C   0  0  0  0  0  0  0  0  0  0  0  0
   58.6670   30.4950   45.8430 C   0  0  0  0  0  0  0  0  0  0  0  0
   58.5450   29.1580   45.3600 C   0  0  0  0  0  0  0  0  0  0  0  0
   59.0740   28.1020   46.1760 C   0  0  0  0  0  0  0  0  0  0  0  0
   58.5310   26.6900   46.1200 C   0  0  0  0  0  0  0  0  0  0  0  0
   58.0080   28.9870   44.0080 N   0  0  1  0  0  0  0  0  0  0  0  0
   58.0170   27.6590   43.3760 C   0  0  0  0  0  0  0  0  0  0  0  0
   56.4300   29.6950   43.9490 S   0  0  0  0  0  0  0  0  0  0  0  0
   55.9110   29.7100   42.5380 O   0  0  0  0  0  0  0  0  0  0  0  0
   55.4780   28.9570   44.8500 O   0  0  0  0  0  0  0  0  0  0  0  0
   56.6580   31.3050   44.5080 N   0  0  0  0  0  0  0  0  0  0  0  0
   57.8180   31.5950   45.2930 C   0  0  0  0  0  0  0  0  0  0  0  0
   58.0800   32.7970   45.5650 O   0  0  0  0  0  0  0  0  0  0  0  0
   60.6287   27.5433   49.0412 H   0  0  0  0  0  0  0  0  0  0  0  0
   60.3454   26.3713   47.7099 H   0  0  0  0  0  0  0  0  0  0  0  0
   61.8248   27.3900   47.7099 H   0  0  0  0  0  0  0  0  0  0  0  0
   60.9938   30.0081   48.2936 H   0  0  0  0  0  0  0  0  0  0  0  0
   59.6583   31.8148   47.2480 H   0  0  0  0  0  0  0  0  0  0  0  0
   58.3857   26.3122   47.1428 H   0  0  0  0  0  0  0  0  0  0  0  0
   57.5681   26.6883   45.5882 H   0  0  0  0  0  0  0  0  0  0  0  0
   59.2447   26.0435   45.5882 H   0  0  0  0  0  0  0  0  0  0  0  0
   58.6070   29.5830   43.3890 H   0  0  0  0  0  0  0  0  0  0  0  0
   58.0223   26.8823   44.1549 H   0  0  0  0  0  0  0  0  0  0  0  0
   57.1196   27.5447   42.7502 H   0  0  0  0  0  0  0  0  0  0  0  0
   58.9159   27.5568   42.7502 H   0  0  0  0  0  0  0  0  0  0  0  0
  1  2  1  0
  2  3  2  0
  3  4  1  0
  4  5  2  0
  5  6  1  0
  6  7  2  0
  7  8  1  0
  6  9  1  0
  9 10  1  0
  9 11  1  0
 11 12  2  0
 11 13  2  0
 11 14  1  0
 14 15  1  0
 15 16  2  0
  7  2  1  0
 15  5  1  0
  1 17  1  0
  1 18  1  0
  1 19  1  0
  3 20  1  0
  4 21  1  0
  8 22  1  0
  8 23  1  0
  8 24  1  0
  9 25  1  6
 10 26  1  0
 10 27  1  0
 10 28  1  0
M  CHG  2   9   1  14  -1
M  END
>  <UniqueID>  (67) 
63

>  <SMILES>  (67) 
Cc1ccc2c(c1C)[N@@H+](C)S(=O)(=O)[N-]C2=O

>  <Energy>  (67) 
58.243847137078845

>  <Genealogy>  (67) 
Cc1ccc2c(c1C)[NH+](C)S(=O)(=O)[N-]C2=O (protonated)
Cc1ccc2c(c1C)[N@@H+](C)S(=O)(=O)[N-]C2=O (chirality)
Cc1ccc2c(c1C)[N@@H+](C)S(=O)(=O)[N-]C2=O (3D coordinates assigned)
Cc1ccc2c(c1C)[N@@H+](C)S(=O)(=O)[N-]C2=O (nonaromatic ring conformer: 58.243847137078845 kcal/mol)

>  <smiles>  (67) 
Cc1ccc2c(c1C)N(C)S(=O)(=O)NC2=O

>  <score_type>  (67) 
oracle

>  <origin>  (67) 
adg

>  <m_score__min__energy>  (67) 
-6.96

>  <m_primary>  (67) 
energy

$$$$
67:0
     RDKit          3D

 66 71  0  0  1  0  0  0  0  0999 V2000
   59.6150   25.2890   46.3050 O   0  0  0  0  0  0  0  0  0  0  0  0
   58.6640   25.3640   45.4630 C   0  0  0  0  0  0  0  0  0  0  0  0
   58.2190   26.7100   45.1270 C   0  0  0  0  0  0  0  0  0  0  0  0
   58.2730   27.8080   45.9640 C   0  0  0  0  0  0  0  0  0  0  0  0
   57.7670   28.9280   45.3270 C   0  0  0  0  0  0  0  0  0  0  0  0
   57.5860   30.2510   45.6750 C   0  0  0  0  0  0  0  0  0  0  0  0
   57.0340   31.1430   44.7660 C   0  0  0  0  0  0  0  0  0  0  0  0
   56.8730   32.4940   45.1780 N   0  0  0  0  0  0  0  0  0  0  0  0
   57.8590   33.2420   45.4870 C   0  0  0  0  0  0  0  0  0  0  0  0
   58.5620   33.0640   46.6240 N   0  0  0  0  0  0  0  0  0  0  0  0
   59.5980   33.8610   46.9370 C   0  0  0  0  0  0  0  0  0  0  0  0
   60.3310   33.6380   48.1740 C   0  0  0  0  0  0  0  0  0  0  0  0
   61.7280   33.6820   48.0690 C   0  0  0  0  0  0  0  0  0  0  0  0
   62.4460   33.4790   49.2270 C   0  0  0  0  0  0  0  0  0  0  0  0
   61.8330   33.2380   50.4550 C   0  0  0  0  0  0  0  0  0  0  0  0
   60.4570   33.1960   50.5600 C   0  0  0  0  0  0  0  0  0  0  0  0
   59.8350   32.9640   51.8130 N   0  0  0  0  0  0  0  0  0  0  0  0
   60.2160   33.7400   52.9970 C   0  0  0  0  0  0  0  0  0  0  0  0
   58.9260   34.1730   53.7160 C   0  0  0  0  0  0  0  0  0  0  0  0
   58.3200   33.0040   54.1590 O   0  0  0  0  0  0  0  0  0  0  0  0
   57.7670   32.3860   53.0480 C   0  0  0  0  0  0  0  0  0  0  0  0
   58.8050   31.9650   52.0290 C   0  0  0  0  0  0  0  0  0  0  0  0
   59.7490   33.4010   49.3880 C   0  0  0  0  0  0  0  0  0  0  0  0
   59.8990   34.8600   46.0370 C   0  0  0  0  0  0  0  0  0  0  0  0
   59.2000   35.0670   44.8660 C   0  0  0  0  0  0  0  0  0  0  0  0
   58.1740   34.2350   44.6150 N   0  0  0  0  0  0  0  0  0  0  0  0
   56.6590   30.7070   43.4970 C   0  0  0  0  0  0  0  0  0  0  0  0
   56.8430   29.3810   43.1580 C   0  0  0  0  0  0  0  0  0  0  0  0
   57.3980   28.4700   44.0590 C   0  0  0  0  0  0  0  0  0  0  0  0
   57.6770   27.1460   43.9660 N   0  0  0  0  0  0  0  0  0  0  0  0
   58.0980   24.1870   44.9040 N   0  0  0  0  0  0  0  0  0  0  0  0
   57.0150   24.1970   43.9430 C   0  0  0  0  0  0  0  0  0  0  0  0
   56.3520   22.8170   44.0140 C   0  0  0  0  0  0  0  0  0  0  0  0
   57.3530   21.8330   43.4360 C   0  0  0  0  0  0  0  0  0  0  0  0
   58.7080   21.9890   44.0970 C   0  0  0  0  0  0  0  0  0  0  0  0
   58.6230   22.8990   45.3080 C   0  0  0  0  0  0  0  0  0  0  0  0
   58.6633   27.7941   46.9923 H   0  0  0  0  0  0  0  0  0  0  0  0
   57.8801   30.5998   46.6759 H   0  0  0  0  0  0  0  0  0  0  0  0
   62.2276   33.8698   47.1071 H   0  0  0  0  0  0  0  0  0  0  0  0
   63.5446   33.5082   49.1806 H   0  0  0  0  0  0  0  0  0  0  0  0
   62.4521   33.0795   51.3503 H   0  0  0  0  0  0  0  0  0  0  0  0
   60.8279   33.1201   53.6688 H   0  0  0  0  0  0  0  0  0  0  0  0
   60.8046   34.6216   52.7034 H   0  0  0  0  0  0  0  0  0  0  0  0
   59.1650   34.8257   54.5686 H   0  0  0  0  0  0  0  0  0  0  0  0
   58.2633   34.7396   53.0453 H   0  0  0  0  0  0  0  0  0  0  0  0
   57.2189   31.4921   53.3803 H   0  0  0  0  0  0  0  0  0  0  0  0
   57.1037   33.1159   52.5608 H   0  0  0  0  0  0  0  0  0  0  0  0
   59.2844   31.0396   52.3808 H   0  0  0  0  0  0  0  0  0  0  0  0
   58.2828   31.8229   51.0714 H   0  0  0  0  0  0  0  0  0  0  0  0
   58.6505   33.3713   49.4367 H   0  0  0  0  0  0  0  0  0  0  0  0
   60.7423   35.5286   46.2646 H   0  0  0  0  0  0  0  0  0  0  0  0
   59.4694   35.8751   44.1700 H   0  0  0  0  0  0  0  0  0  0  0  0
   57.6320   34.3660   43.7440 H   0  0  0  0  0  0  0  0  0  0  0  0
   56.2215   31.4107   42.7736 H   0  0  0  0  0  0  0  0  0  0  0  0
   56.5460   29.0351   42.1569 H   0  0  0  0  0  0  0  0  0  0  0  0
   57.4850   26.5780   43.0980 H   0  0  0  0  0  0  0  0  0  0  0  0
   56.2874   24.9810   44.1997 H   0  0  0  0  0  0  0  0  0  0  0  0
   57.3870   24.4061   42.9291 H   0  0  0  0  0  0  0  0  0  0  0  0
   56.1227   22.5579   45.0582 H   0  0  0  0  0  0  0  0  0  0  0  0
   55.4051   22.7992   43.4544 H   0  0  0  0  0  0  0  0  0  0  0  0
   56.9876   20.8087   43.6010 H   0  0  0  0  0  0  0  0  0  0  0  0
   57.4617   22.0334   42.3599 H   0  0  0  0  0  0  0  0  0  0  0  0
   59.0685   20.9997   44.4155 H   0  0  0  0  0  0  0  0  0  0  0  0
   59.4017   22.4376   43.3707 H   0  0  0  0  0  0  0  0  0  0  0  0
   57.9564   22.4498   46.0589 H   0  0  0  0  0  0  0  0  0  0  0  0
   59.6255   23.0296   45.7414 H   0  0  0  0  0  0  0  0  0  0  0  0
  1  2  2  0
  2  3  1  0
  3  4  2  0
  4  5  1  0
  5  6  2  0
  6  7  1  0
  7  8  1  0
  8  9  2  0
  9 10  1  0
 10 11  2  0
 11 12  1  0
 12 13  2  0
 13 14  1  0
 14 15  2  0
 15 16  1  0
 16 17  1  0
 17 18  1  0
 18 19  1  0
 19 20  1  0
 20 21  1  0
 21 22  1  0
 16 23  2  0
 11 24  1  0
 24 25  2  0
 25 26  1  0
  7 27  2  0
 27 28  1  0
 28 29  2  0
 29 30  1  0
  2 31  1  0
 31 32  1  0
 32 33  1  0
 33 34  1  0
 34 35  1  0
 35 36  1  0
 30  3  1  0
 36 31  1  0
 29  5  1  0
 26  9  1  0
 23 12  1  0
 22 17  1  0
  4 37  1  0
  6 38  1  0
 13 39  1  0
 14 40  1  0
 15 41  1  0
 18 42  1  0
 18 43  1  0
 19 44  1  0
 19 45  1  0
 21 46  1  0
 21 47  1  0
 22 48  1  0
 22 49  1  0
 23 50  1  0
 24 51  1  0
 25 52  1  0
 26 53  1  0
 27 54  1  0
 28 55  1  0
 30 56  1  0
 32 57  1  0
 32 58  1  0
 33 59  1  0
 33 60  1  0
 34 61  1  0
 34 62  1  0
 35 63  1  0
 35 64  1  0
 36 65  1  0
 36 66  1  0
M  END
>  <smiles>  (68) 
O=C(c1cc2cc(N=c3nc(-c4cccc(N5CCOCC5)c4)cc[nH]3)ccc2[nH]1)N1CCCCC1

>  <score_type>  (68) 
oracle

>  <origin>  (68) 
adg

>  <m_score__min__energy>  (68) 
-10.27

>  <m_primary>  (68) 
energy

$$$$
68:0
     RDKit          3D

 37 38  0  0  0  0  0  0  0  0999 V2000
   60.2330   31.3884   47.0116 H   0  0  0  0  0  0  0  0  0  0  0  0
   59.4320   31.8800   46.4400 C   0  0  0  0  0  0  0  0  0  0  0  0
   58.5440   31.1100   45.6830 C   0  0  0  0  0  0  0  0  0  0  0  0
   58.6350   30.0138   45.6816 H   0  0  0  0  0  0  0  0  0  0  0  0
   57.5360   31.7280   44.9240 C   0  0  0  0  0  0  0  0  0  0  0  0
   56.5850   30.9040   44.1370 C   0  0  0  0  0  0  0  0  0  0  0  0
   55.5730   30.3090   44.6960 N   0  0  0  0  0  0  0  0  0  0  0  0
   55.5180   28.9450   44.8770 O   0  0  0  0  0  0  0  0  0  0  0  0
   56.6780   28.2270   45.2620 C   0  0  0  0  0  0  0  0  0  0  0  0
   56.7385   28.1895   46.3597 H   0  0  0  0  0  0  0  0  0  0  0  0
   56.6251   27.2035   44.8625 H   0  0  0  0  0  0  0  0  0  0  0  0
   57.5705   28.7308   44.8625 H   0  0  0  0  0  0  0  0  0  0  0  0
   56.7210   30.8290   42.6460 C   0  0  0  0  0  0  0  0  0  0  0  0
   57.6575   30.3125   42.3888 H   0  0  0  0  0  0  0  0  0  0  0  0
   55.8689   30.2732   42.2276 H   0  0  0  0  0  0  0  0  0  0  0  0
   56.7363   31.8462   42.2276 H   0  0  0  0  0  0  0  0  0  0  0  0
   57.4270   33.1290   44.9440 C   0  0  0  0  0  0  0  0  0  0  0  0
   56.6372   33.6244   44.3602 H   0  0  0  0  0  0  0  0  0  0  0  0
   58.3170   33.8970   45.7020 C   0  0  0  0  0  0  0  0  0  0  0  0
   58.2388   34.9942   45.6910 H   0  0  0  0  0  0  0  0  0  0  0  0
   59.3060   33.2780   46.4740 C   0  0  0  0  0  0  0  0  0  0  0  0
   60.2400   34.0940   47.1990 N   0  0  0  0  0  0  0  0  0  0  0  0
   61.5020   33.8480   47.4250 C   0  0  0  0  0  0  0  0  0  0  0  0
   62.4220   33.5760   46.3960 C   0  0  0  0  0  0  0  0  0  0  0  0
   62.0935   33.5729   45.3462 H   0  0  0  0  0  0  0  0  0  0  0  0
   63.7550   33.3100   46.7160 C   0  0  0  0  0  0  0  0  0  0  0  0
   64.4804   33.1068   45.9145 H   0  0  0  0  0  0  0  0  0  0  0  0
   64.1600   33.3010   48.0130 N   0  0  0  0  0  0  0  0  0  0  0  0
   65.1630   33.0980   48.2260 H   0  0  0  0  0  0  0  0  0  0  0  0
   63.2980   33.5400   49.0390 C   0  0  0  0  0  0  0  0  0  0  0  0
   63.7900   33.5040   50.3520 O   0  0  0  0  0  0  0  0  0  0  0  0
   64.7890   32.5990   50.8150 C   0  0  0  0  0  0  0  0  0  0  0  0
   64.7963   32.5924   51.9150 H   0  0  0  0  0  0  0  0  0  0  0  0
   64.5678   31.5875   50.4437 H   0  0  0  0  0  0  0  0  0  0  0  0
   65.7738   32.9187   50.4437 H   0  0  0  0  0  0  0  0  0  0  0  0
   61.9460   33.8110   48.7540 C   0  0  0  0  0  0  0  0  0  0  0  0
   61.2374   33.9939   49.5752 H   0  0  0  0  0  0  0  0  0  0  0  0
  1  2  1  0
  2  3  2  0
  3  4  1  0
  3  5  1  0
  5  6  1  0
  6  7  2  0
  7  8  1  0
  8  9  1  0
  9 10  1  0
  9 11  1  0
  9 12  1  0
  6 13  1  0
 13 14  1  0
 13 15  1  0
 13 16  1  0
  5 17  2  0
 17 18  1  0
 17 19  1  0
 19 20  1  0
 19 21  2  0
 21 22  1  0
 22 23  2  0
 23 24  1  0
 24 25  1  0
 24 26  2  0
 26 27  1  0
 26 28  1  0
 28 29  1  0
 28 30  1  0
 30 31  1  0
 31 32  1  0
 32 33  1  0
 32 34  1  0
 32 35  1  0
 30 36  2  0
 36 37  1  0
 21  2  1  0
 36 23  1  0
M  END
>  <UniqueID>  (69) 
64

>  <SMILES>  (69) 
CO/N=C(/C)c1ccc(/N=c2\cc[nH]c(OC)c2)cc1

>  <Energy>  (69) 
46.48548570854103

>  <Genealogy>  (69) 
CO/N=C(/C)c1ccc(/N=c2\cc[nH]c(OC)c2)cc1 (cis-trans isomerization)
CO/N=C(/C)c1ccc(/N=c2\cc[nH]c(OC)c2)cc1 (3D coordinates assigned)
CO/N=C(/C)c1ccc(/N=c2\cc[nH]c(OC)c2)cc1 (optimized conformer: 46.48548570854103 kcal/mol)

>  <smiles>  (69) 
CON=C(C)c1ccc(N=c2cc[nH]c(OC)c2)cc1

>  <score_type>  (69) 
oracle

>  <origin>  (69) 
adg

>  <m_score__min__energy>  (69) 
-7.3700000000000001

>  <m_primary>  (69) 
energy

$$$$
69:0
     RDKit          3D

 33 35  0  0  0  0  0  0  0  0999 V2000
   55.4720   30.1980   44.5820 O   0  0  0  0  0  0  0  0  0  0  0  0
   56.3080   29.2800   44.7960 C   0  0  0  0  0  0  0  0  0  0  0  0
   55.8960   28.0040   45.2440 N   0  0  0  0  0  0  0  0  0  0  0  0
   57.0890   27.1900   45.2790 C   0  0  0  0  0  0  0  0  0  0  0  0
   58.2420   28.1980   45.2040 C   0  0  0  0  0  0  0  0  0  0  0  0
   57.7110   29.3950   44.5100 N   0  0  2  0  0  0  0  0  0  0  0  0
   58.2900   30.6850   44.8920 C   0  0  0  0  0  0  0  0  0  0  0  0
   59.1200   30.7560   46.0330 C   0  0  0  0  0  0  0  0  0  0  0  0
   59.6580   31.9700   46.4660 C   0  0  0  0  0  0  0  0  0  0  0  0
   59.3470   33.1560   45.7960 C   0  0  0  0  0  0  0  0  0  0  0  0
   60.0140   34.6870   46.3490 S   0  0  0  0  0  0  0  0  0  0  0  0
   59.6390   35.7750   45.3830 O   0  0  0  0  0  0  0  0  0  0  0  0
   59.4630   35.0050   47.7110 O   0  0  0  0  0  0  0  0  0  0  0  0
   61.7180   34.5710   46.4250 O   0  0  0  0  0  0  0  0  0  0  0  0
   62.4030   33.8160   47.3830 C   0  0  0  0  0  0  0  0  0  0  0  0
   63.1680   32.6680   47.1080 C   0  0  0  0  0  0  0  0  0  0  0  0
   63.7430   32.1070   48.2400 C   0  0  0  0  0  0  0  0  0  0  0  0
   63.2990   33.0360   49.5690 S   0  0  0  0  0  0  0  0  0  0  0  0
   62.3750   34.1580   48.7280 C   0  0  0  0  0  0  0  0  0  0  0  0
   58.4620   33.1240   44.7160 C   0  0  0  0  0  0  0  0  0  0  0  0
   57.9200   31.9110   44.2800 C   0  0  0  0  0  0  0  0  0  0  0  0
   57.1381   26.6116   46.2133 H   0  0  0  0  0  0  0  0  0  0  0  0
   57.1199   26.4566   44.4598 H   0  0  0  0  0  0  0  0  0  0  0  0
   58.5800   28.4645   46.2163 H   0  0  0  0  0  0  0  0  0  0  0  0
   59.1041   27.7765   44.6662 H   0  0  0  0  0  0  0  0  0  0  0  0
   57.8410   29.2640   43.4790 H   0  0  0  0  0  0  0  0  0  0  0  0
   59.3472   29.8362   46.5919 H   0  0  0  0  0  0  0  0  0  0  0  0
   60.3289   31.9925   47.3375 H   0  0  0  0  0  0  0  0  0  0  0  0
   63.2977   32.2558   46.0964 H   0  0  0  0  0  0  0  0  0  0  0  0
   64.3791   31.2099   48.2634 H   0  0  0  0  0  0  0  0  0  0  0  0
   61.8411   35.0141   49.1662 H   0  0  0  0  0  0  0  0  0  0  0  0
   58.1896   34.0592   44.2050 H   0  0  0  0  0  0  0  0  0  0  0  0
   57.1968   31.9069   43.4512 H   0  0  0  0  0  0  0  0  0  0  0  0
  1  2  2  0
  2  3  1  0
  3  4  1  0
  4  5  1  0
  5  6  1  0
  6  7  1  0
  7  8  2  0
  8  9  1  0
  9 10  2  0
 10 11  1  0
 11 12  2  0
 11 13  2  0
 11 14  1  0
 14 15  1  0
 15 16  1  0
 16 17  2  0
 17 18  1  0
 18 19  1  0
 10 20  1  0
 20 21  2  0
  6  2  1  0
 21  7  1  0
 19 15  2  0
  4 22  1  0
  4 23  1  0
  5 24  1  0
  5 25  1  0
  6 26  1  6
  8 27  1  0
  9 28  1  0
 16 29  1  0
 17 30  1  0
 19 31  1  0
 20 32  1  0
 21 33  1  0
M  CHG  2   3  -1   6   1
M  END
>  <UniqueID>  (70) 
65

>  <SMILES>  (70) 
O=C1[N-]CC[N@@H+]1c1ccc(S(=O)(=O)Oc2ccsc2)cc1

>  <Energy>  (70) 
83.19015457917746

>  <Genealogy>  (70) 
O=C1[N-]CC[NH+]1c1ccc(S(=O)(=O)Oc2ccsc2)cc1 (protonated)
O=C1[N-]CC[N@@H+]1c1ccc(S(=O)(=O)Oc2ccsc2)cc1 (chirality)
O=C1[N-]CC[N@@H+]1c1ccc(S(=O)(=O)Oc2ccsc2)cc1 (3D coordinates assigned)
O=C1[N-]CC[N@@H+]1c1ccc(S(=O)(=O)Oc2ccsc2)cc1 (nonaromatic ring conformer: 83.19015457917746 kcal/mol)

>  <smiles>  (70) 
O=C1NCCN1c1ccc(S(=O)(=O)Oc2ccsc2)cc1

>  <score_type>  (70) 
oracle

>  <origin>  (70) 
adg

>  <m_score__min__energy>  (70) 
-7.9900000000000002

>  <m_primary>  (70) 
energy

$$$$
70:0
     RDKit          3D

 42 44  0  0  0  0  0  0  0  0999 V2000
   56.1720   26.3990   46.3980 O   0  0  0  0  0  0  0  0  0  0  0  0
   57.0980   27.0010   45.7930 C   0  0  0  0  0  0  0  0  0  0  0  0
   57.6730   26.3730   44.5560 C   0  0  0  0  0  0  0  0  0  0  0  0
   58.2960   27.3800   43.5910 C   0  0  0  0  0  0  0  0  0  0  0  0
   57.3900   28.5950   43.3800 C   0  0  0  0  0  0  0  0  0  0  0  0
   57.6930   29.6930   44.3730 C   0  0  0  0  0  0  0  0  0  0  0  0
   57.8320   31.0030   43.8760 C   0  0  0  0  0  0  0  0  0  0  0  0
   58.1590   32.0700   44.7220 C   0  0  0  0  0  0  0  0  0  0  0  0
   58.3510   33.4590   44.1630 C   0  0  0  0  0  0  0  0  0  0  0  0
   58.2810   34.5470   45.2480 C   0  0  0  0  0  0  0  0  0  0  0  0
   59.6420   35.1760   45.5980 C   0  0  0  0  0  0  0  0  0  0  0  0
   60.3180   34.4950   46.7620 C   0  0  0  0  0  0  0  0  0  0  0  0
   61.5450   33.8320   46.5840 C   0  0  0  0  0  0  0  0  0  0  0  0
   62.1660   33.1960   47.6640 C   0  0  0  0  0  0  0  0  0  0  0  0
   61.5740   33.2230   48.9280 C   0  0  0  0  0  0  0  0  0  0  0  0
   60.3620   33.8930   49.1180 C   0  0  0  0  0  0  0  0  0  0  0  0
   59.7370   34.5300   48.0420 C   0  0  0  0  0  0  0  0  0  0  0  0
   58.3180   31.8330   46.0900 C   0  0  0  0  0  0  0  0  0  0  0  0
   58.1610   30.5470   46.6040 C   0  0  0  0  0  0  0  0  0  0  0  0
   57.8410   29.4610   45.7700 C   0  0  0  0  0  0  0  0  0  0  0  0
   57.6730   28.1680   46.3950 N   0  0  0  0  0  0  0  0  0  0  0  0
   58.4499   25.6557   44.8593 H   0  0  0  0  0  0  0  0  0  0  0  0
   56.8409   25.8890   44.0238 H   0  0  0  0  0  0  0  0  0  0  0  0
   59.2582   27.7196   44.0019 H   0  0  0  0  0  0  0  0  0  0  0  0
   58.4362   26.8833   42.6196 H   0  0  0  0  0  0  0  0  0  0  0  0
   57.5431   28.9821   42.3618 H   0  0  0  0  0  0  0  0  0  0  0  0
   56.3473   28.2766   43.5262 H   0  0  0  0  0  0  0  0  0  0  0  0
   57.6809   31.1919   42.8029 H   0  0  0  0  0  0  0  0  0  0  0  0
   59.3359   33.5099   43.6758 H   0  0  0  0  0  0  0  0  0  0  0  0
   57.5356   33.6469   43.4490 H   0  0  0  0  0  0  0  0  0  0  0  0
   57.6126   35.3455   44.8935 H   0  0  0  0  0  0  0  0  0  0  0  0
   57.9132   34.0589   46.1626 H   0  0  0  0  0  0  0  0  0  0  0  0
   60.2990   35.1041   44.7187 H   0  0  0  0  0  0  0  0  0  0  0  0
   59.4595   36.2218   45.8862 H   0  0  0  0  0  0  0  0  0  0  0  0
   62.0186   33.8134   45.5913 H   0  0  0  0  0  0  0  0  0  0  0  0
   63.1228   32.6735   47.5171 H   0  0  0  0  0  0  0  0  0  0  0  0
   62.0613   32.7170   49.7745 H   0  0  0  0  0  0  0  0  0  0  0  0
   59.8994   33.9190   50.1156 H   0  0  0  0  0  0  0  0  0  0  0  0
   58.7863   35.0611   48.1974 H   0  0  0  0  0  0  0  0  0  0  0  0
   58.5682   32.6653   46.7643 H   0  0  0  0  0  0  0  0  0  0  0  0
   58.2900   30.3783   47.6833 H   0  0  0  0  0  0  0  0  0  0  0  0
   57.7530   28.1300   47.4370 H   0  0  0  0  0  0  0  0  0  0  0  0
  1  2  2  0
  2  3  1  0
  3  4  1  0
  4  5  1  0
  5  6  1  0
  6  7  2  0
  7  8  1  0
  8  9  1  0
  9 10  1  0
 10 11  1  0
 11 12  1  0
 12 13  2  0
 13 14  1  0
 14 15  2  0
 15 16  1  0
 16 17  2  0
  8 18  2  0
 18 19  1  0
 19 20  2  0
 20 21  1  0
 21  2  1  0
 20  6  1  0
 17 12  1  0
  3 22  1  0
  3 23  1  0
  4 24  1  0
  4 25  1  0
  5 26  1  0
  5 27  1  0
  7 28  1  0
  9 29  1  0
  9 30  1  0
 10 31  1  0
 10 32  1  0
 11 33  1  0
 11 34  1  0
 13 35  1  0
 14 36  1  0
 15 37  1  0
 16 38  1  0
 17 39  1  0
 18 40  1  0
 19 41  1  0
 21 42  1  0
M  END
>  <UniqueID>  (71) 
66

>  <SMILES>  (71) 
O=C1CCCc2cc(CCCc3ccccc3)ccc2N1

>  <Energy>  (71) 
49.75741093854226

>  <Genealogy>  (71) 
O=C1CCCc2cc(CCCc3ccccc3)ccc2N1 (3D coordinates assigned)
O=C1CCCc2cc(CCCc3ccccc3)ccc2N1 (nonaromatic ring conformer: 49.75741093854226 kcal/mol)

>  <smiles>  (71) 
O=C1CCCc2cc(CCCc3ccccc3)ccc2N1

>  <score_type>  (71) 
oracle

>  <origin>  (71) 
adg

>  <m_score__min__energy>  (71) 
-6.5300000000000002

>  <m_primary>  (71) 
energy

$$$$
71:0
     RDKit          3D

 38 39  0  0  0  0  0  0  0  0999 V2000
   58.9310   33.8090   44.1130 N   0  0  0  0  0  0  0  0  0  0  0  0
   57.6810   33.5860   45.2840 S   0  0  0  0  0  0  0  0  0  0  0  0
   57.0060   32.2630   45.0570 O   0  0  0  0  0  0  0  0  0  0  0  0
   56.6630   34.6830   45.1390 O   0  0  0  0  0  0  0  0  0  0  0  0
   58.3850   33.6140   46.8980 C   0  0  0  0  0  0  0  0  0  0  0  0
   59.4190   34.5060   47.2120 C   0  0  0  0  0  0  0  0  0  0  0  0
   59.9860   34.5000   48.4880 C   0  0  0  0  0  0  0  0  0  0  0  0
   59.5220   33.6080   49.4580 C   0  0  0  0  0  0  0  0  0  0  0  0
   58.4730   32.7240   49.1650 C   0  0  0  0  0  0  0  0  0  0  0  0
   58.0180   31.8120   50.1800 N   0  0  0  0  0  0  0  0  0  0  0  0
   58.7720   30.6790   50.6410 C   0  0  0  0  0  0  0  0  0  0  0  0
   59.8650   30.3670   50.0970 O   0  0  0  0  0  0  0  0  0  0  0  0
   58.2080   29.7980   51.7140 C   0  0  0  0  0  0  0  0  0  0  0  0
   56.7870   29.7690   51.6230 O   0  0  0  0  0  0  0  0  0  0  0  0
   55.9610   30.7060   52.2520 C   0  0  0  0  0  0  0  0  0  0  0  0
   56.4260   31.8050   52.6600 O   0  0  0  0  0  0  0  0  0  0  0  0
   54.5200   30.3740   52.4920 C   0  0  0  0  0  0  0  0  0  0  0  0
   53.6190   31.5950   52.2650 C   0  0  0  0  0  0  0  0  0  0  0  0
   52.6380   31.3620   51.1540 C   0  0  0  0  0  0  0  0  0  0  0  0
   52.7260   30.3520   50.2710 N   0  0  0  0  0  0  0  0  0  0  0  0
   51.6130   30.4980   49.5200 C   0  0  0  0  0  0  0  0  0  0  0  0
   51.3350   29.7280   48.5640 O   0  0  0  0  0  0  0  0  0  0  0  0
   50.8190   31.5310   49.8770 N   0  0  0  0  0  0  0  0  0  0  0  0
   51.4800   32.0620   50.9180 C   0  0  0  0  0  0  0  0  0  0  0  0
   51.0310   33.1610   51.6400 O   0  0  0  0  0  0  0  0  0  0  0  0
   57.9230   32.7170   47.8710 C   0  0  0  0  0  0  0  0  0  0  0  0
   59.4860   34.6430   44.4110 H   0  0  0  0  0  0  0  0  0  0  0  0
   59.7847   35.2122   46.4520 H   0  0  0  0  0  0  0  0  0  0  0  0
   60.7999   35.1992   48.7301 H   0  0  0  0  0  0  0  0  0  0  0  0
   59.9819   33.5988   50.4572 H   0  0  0  0  0  0  0  0  0  0  0  0
   57.0280   31.8970   50.5040 H   0  0  0  0  0  0  0  0  0  0  0  0
   58.6018   28.7781   51.5924 H   0  0  0  0  0  0  0  0  0  0  0  0
   58.4990   30.1953   52.6976 H   0  0  0  0  0  0  0  0  0  0  0  0
   54.2175   29.5727   51.8017 H   0  0  0  0  0  0  0  0  0  0  0  0
   54.4086   30.0511   53.5376 H   0  0  0  0  0  0  0  0  0  0  0  0
   53.0648   31.8062   53.1914 H   0  0  0  0  0  0  0  0  0  0  0  0
   54.2581   32.4455   51.9853 H   0  0  0  0  0  0  0  0  0  0  0  0
   57.1248   32.0028   47.6205 H   0  0  0  0  0  0  0  0  0  0  0  0
  1  2  1  0
  2  3  2  0
  2  4  2  0
  2  5  1  0
  5  6  2  0
  6  7  1  0
  7  8  2  0
  8  9  1  0
  9 10  1  0
 10 11  1  0
 11 12  2  0
 11 13  1  0
 13 14  1  0
 14 15  1  0
 15 16  2  0
 15 17  1  0
 17 18  1  0
 18 19  1  0
 19 20  1  0
 20 21  1  0
 21 22  2  0
 21 23  1  0
 23 24  1  0
 24 25  1  0
  9 26  2  0
 26  5  1  0
 24 19  2  0
  1 27  1  0
  6 28  1  0
  7 29  1  0
  8 30  1  0
 10 31  1  0
 13 32  1  0
 13 33  1  0
 17 34  1  0
 17 35  1  0
 18 36  1  0
 18 37  1  0
 26 38  1  0
M  CHG  4   1  -1  20  -1  23  -1  25  -1
M  END
>  <UniqueID>  (72) 
67

>  <SMILES>  (72) 
[NH-]S(=O)(=O)c1cccc(NC(=O)COC(=O)CCc2[n-]c(=O)[n-]c2[O-])c1

>  <Energy>  (72) 
61.516774637854475

>  <Genealogy>  (72) 
[NH-]S(=O)(=O)c1cccc(NC(=O)COC(=O)CCc2[n-]c(=O)[n-]c2[O-])c1 (protonated)
[NH-]S(=O)(=O)c1cccc(NC(=O)COC(=O)CCc2[n-]c(=O)[n-]c2[O-])c1 (3D coordinates assigned)
[NH-]S(=O)(=O)c1cccc(NC(=O)COC(=O)CCc2[n-]c(=O)[n-]c2[O-])c1 (optimized conformer: 61.516774637854475 kcal/mol)

>  <smiles>  (72) 
NS(=O)(=O)c1cccc(NC(=O)COC(=O)CCc2[nH]c(=O)[nH]c2O)c1

>  <score_type>  (72) 
oracle

>  <origin>  (72) 
adg

>  <m_score__min__energy>  (72) 
-19.629999999999999

>  <m_primary>  (72) 
energy

$$$$
72:0
     RDKit          3D

 40 42  0  0  0  0  0  0  0  0999 V2000
   57.3673   28.9618   42.6926 H   0  0  0  0  0  0  0  0  0  0  0  0
   57.0140   29.7410   43.3840 C   0  0  0  0  0  0  0  0  0  0  0  0
   56.1450   29.3190   44.4940 C   0  0  0  0  0  0  0  0  0  0  0  0
   55.1480   30.0270   44.7950 O   0  0  0  0  0  0  0  0  0  0  0  0
   56.5060   28.1960   45.3080 N   0  0  0  0  0  0  0  0  0  0  0  0
   57.6770   28.0840   46.1300 C   0  0  0  0  0  0  0  0  0  0  0  0
   58.3920   29.2320   46.5210 C   0  0  0  0  0  0  0  0  0  0  0  0
   58.0960   30.2186   46.1350 H   0  0  0  0  0  0  0  0  0  0  0  0
   59.4760   29.1250   47.3970 C   0  0  0  0  0  0  0  0  0  0  0  0
   60.0392   30.0248   47.6854 H   0  0  0  0  0  0  0  0  0  0  0  0
   59.8450   27.8810   47.9060 C   0  0  0  0  0  0  0  0  0  0  0  0
   60.6990   27.8008   48.5946 H   0  0  0  0  0  0  0  0  0  0  0  0
   59.1320   26.7360   47.5430 C   0  0  0  0  0  0  0  0  0  0  0  0
   59.4173   25.7592   47.9608 H   0  0  0  0  0  0  0  0  0  0  0  0
   58.0520   26.8240   46.6470 C   0  0  0  0  0  0  0  0  0  0  0  0
   57.3400   25.5880   46.2540 C   0  0  0  0  0  0  0  0  0  0  0  0
   57.4220   24.5640   46.9860 O   0  0  0  0  0  0  0  0  0  0  0  0
   56.6020   25.5340   45.0230 N   0  0  0  0  0  0  0  0  0  0  0  0
   56.7430   26.2840   44.3100 H   0  0  0  0  0  0  0  0  0  0  0  0
   55.6510   24.4690   44.7250 C   0  0  0  0  0  0  0  0  0  0  0  0
   55.1476   24.1584   45.6524 H   0  0  0  0  0  0  0  0  0  0  0  0
   54.9053   24.8377   44.0053 H   0  0  0  0  0  0  0  0  0  0  0  0
   56.3720   23.2990   44.1350 C   0  0  0  0  0  0  0  0  0  0  0  0
   55.8270   22.4510   43.2950 O   0  0  0  0  0  0  0  0  0  0  0  0
   56.7150   21.5300   43.0000 C   0  0  0  0  0  0  0  0  0  0  0  0
   56.5469   20.6853   42.3157 H   0  0  0  0  0  0  0  0  0  0  0  0
   57.8920   21.7810   43.6780 C   0  0  0  0  0  0  0  0  0  0  0  0
   58.8184   21.1893   43.6370 H   0  0  0  0  0  0  0  0  0  0  0  0
   57.6700   22.9230   44.4160 C   0  0  0  0  0  0  0  0  0  0  0  0
   58.3786   23.4290   45.0882 H   0  0  0  0  0  0  0  0  0  0  0  0
   57.4090   31.0000   43.1490 C   0  0  0  0  0  0  0  0  0  0  0  0
   57.6405   31.2685   42.1077 H   0  0  0  0  0  0  0  0  0  0  0  0
   57.5600   32.0580   44.1690 C   0  0  0  0  0  0  0  0  0  0  0  0
   56.8840   32.0680   45.2940 O   0  0  0  0  0  0  0  0  0  0  0  0
   57.2070   33.1450   45.9710 C   0  0  0  0  0  0  0  0  0  0  0  0
   56.8067   33.4159   46.9591 H   0  0  0  0  0  0  0  0  0  0  0  0
   58.1250   33.8860   45.2550 C   0  0  0  0  0  0  0  0  0  0  0  0
   58.5855   34.8383   45.5569 H   0  0  0  0  0  0  0  0  0  0  0  0
   58.3480   33.1930   44.0870 C   0  0  0  0  0  0  0  0  0  0  0  0
   59.0139   33.4812   43.2603 H   0  0  0  0  0  0  0  0  0  0  0  0
  1  2  1  0
  2  3  1  0
  3  4  2  0
  3  5  1  0
  5  6  1  0
  6  7  2  0
  7  8  1  0
  7  9  1  0
  9 10  1  0
  9 11  2  0
 11 12  1  0
 11 13  1  0
 13 14  1  0
 13 15  2  0
 15 16  1  0
 16 17  2  0
 16 18  1  0
 18 19  1  0
 18 20  1  0
 20 21  1  0
 20 22  1  0
 20 23  1  0
 23 24  1  0
 24 25  1  0
 25 26  1  0
 25 27  2  0
 27 28  1  0
 27 29  1  0
 29 30  1  0
  2 31  2  0
 31 32  1  0
 31 33  1  0
 33 34  1  0
 34 35  1  0
 35 36  1  0
 35 37  2  0
 37 38  1  0
 37 39  1  0
 39 40  1  0
 15  6  1  0
 29 23  2  0
 39 33  2  0
M  CHG  1   5  -1
M  END
>  <UniqueID>  (73) 
68

>  <SMILES>  (73) 
O=C(/C=C\c1ccco1)[N-]c1ccccc1C(=O)NCc1ccco1

>  <Energy>  (73) 
101.71219333441537

>  <Genealogy>  (73) 
O=C(C=Cc1ccco1)[N-]c1ccccc1C(=O)NCc1ccco1 (protonated)
O=C(/C=C\c1ccco1)[N-]c1ccccc1C(=O)NCc1ccco1 (cis-trans isomerization)
O=C(/C=C\c1ccco1)[N-]c1ccccc1C(=O)NCc1ccco1 (3D coordinates assigned)
O=C(/C=C\c1ccco1)[N-]c1ccccc1C(=O)NCc1ccco1 (optimized conformer: 101.71219333441537 kcal/mol)

>  <smiles>  (73) 
O=C(C=Cc1ccco1)Nc1ccccc1C(=O)NCc1ccco1

>  <score_type>  (73) 
oracle

>  <origin>  (73) 
adg

>  <m_score__min__energy>  (73) 
-9.8499999999999996

>  <m_primary>  (73) 
energy

$$$$
73:0
     RDKit          3D

 69 73  0  0  0  0  0  0  0  0999 V2000
   56.3020   21.9180   48.0860 C   0  0  0  0  0  0  0  0  0  0  0  0
   57.2780   22.3890   47.1640 O   0  0  0  0  0  0  0  0  0  0  0  0
   57.0590   22.5660   45.7870 C   0  0  0  0  0  0  0  0  0  0  0  0
   57.4910   21.6130   44.8420 C   0  0  0  0  0  0  0  0  0  0  0  0
   57.2620   21.8140   43.4800 C   0  0  0  0  0  0  0  0  0  0  0  0
   56.6020   22.9620   43.0410 C   0  0  0  0  0  0  0  0  0  0  0  0
   56.1700   23.9160   43.9650 C   0  0  0  0  0  0  0  0  0  0  0  0
   56.3910   23.7280   45.3390 C   0  0  0  0  0  0  0  0  0  0  0  0
   55.9320   24.7960   46.3020 C   0  0  0  0  0  0  0  0  0  0  0  0
   56.1900   26.1250   45.7510 N   0  0  0  0  0  0  0  0  0  0  0  0
   57.4460   26.8020   45.9250 C   0  0  0  0  0  0  0  0  0  0  0  0
   58.4000   26.2070   46.4970 O   0  0  0  0  0  0  0  0  0  0  0  0
   57.6500   28.1810   45.4220 C   0  0  0  0  0  0  0  0  0  0  0  0
   58.4740   29.0940   46.1050 C   0  0  0  0  0  0  0  0  0  0  0  0
   58.6510   30.3910   45.6180 C   0  0  0  0  0  0  0  0  0  0  0  0
   58.0140   30.8000   44.4370 C   0  0  0  0  0  0  0  0  0  0  0  0
   58.1740   32.2100   43.9460 C   0  0  0  0  0  0  0  0  0  0  0  0
   57.0400   33.3060   44.8580 S   0  0  0  0  0  0  0  0  0  0  0  0
   58.3430   34.0300   45.8570 C   0  0  0  0  0  0  0  0  0  0  0  0
   59.2240   34.9250   45.3770 N   0  0  0  0  0  0  0  0  0  0  0  0
   60.0460   35.2260   46.3700 N   0  0  0  0  0  0  0  0  0  0  0  0
   59.6670   34.4980   47.4380 C   0  0  0  0  0  0  0  0  0  0  0  0
   60.3510   34.5980   48.7760 C   0  0  0  0  0  0  0  0  0  0  0  0
   61.6820   33.8920   48.7470 C   0  0  0  0  0  0  0  0  0  0  0  0
   62.2970   33.5950   47.5190 C   0  0  0  0  0  0  0  0  0  0  0  0
   63.5220   32.9220   47.4880 C   0  0  0  0  0  0  0  0  0  0  0  0
   64.1370   32.5330   48.6800 C   0  0  0  0  0  0  0  0  0  0  0  0
   63.5280   32.8110   49.9060 C   0  0  0  0  0  0  0  0  0  0  0  0
   62.3020   33.4850   49.9430 C   0  0  0  0  0  0  0  0  0  0  0  0
   61.7190   33.7400   51.1420 F   0  0  0  0  0  0  0  0  0  0  0  0
   58.5870   33.7340   47.1500 N   0  0  0  0  0  0  0  0  0  0  0  0
   57.8620   32.7800   47.9980 C   0  0  0  0  0  0  0  0  0  0  0  0
   58.8190   31.8720   48.7240 C   0  0  0  0  0  0  0  0  0  0  0  0
   59.9440   31.3470   48.0640 C   0  0  0  0  0  0  0  0  0  0  0  0
   60.8460   30.5250   48.7500 C   0  0  0  0  0  0  0  0  0  0  0  0
   60.6280   30.2150   50.0960 C   0  0  0  0  0  0  0  0  0  0  0  0
   61.5250   29.4010   50.7770 O   0  0  0  0  0  0  0  0  0  0  0  0
   59.5100   30.7290   50.7590 C   0  0  0  0  0  0  0  0  0  0  0  0
   58.6090   31.5550   50.0780 C   0  0  0  0  0  0  0  0  0  0  0  0
   57.1970   29.8920   43.7480 C   0  0  0  0  0  0  0  0  0  0  0  0
   57.0230   28.5910   44.2320 C   0  0  0  0  0  0  0  0  0  0  0  0
   56.6557   22.0887   49.1135 H   0  0  0  0  0  0  0  0  0  0  0  0
   55.3575   22.4595   47.9286 H   0  0  0  0  0  0  0  0  0  0  0  0
   56.1382   20.8417   47.9286 H   0  0  0  0  0  0  0  0  0  0  0  0
   58.0119   20.7052   45.1804 H   0  0  0  0  0  0  0  0  0  0  0  0
   57.6030   21.0648   42.7503 H   0  0  0  0  0  0  0  0  0  0  0  0
   56.4218   23.1158   41.9668 H   0  0  0  0  0  0  0  0  0  0  0  0
   55.6529   24.8212   43.6140 H   0  0  0  0  0  0  0  0  0  0  0  0
   54.8529   24.6818   46.4823 H   0  0  0  0  0  0  0  0  0  0  0  0
   56.4868   24.6875   47.2456 H   0  0  0  0  0  0  0  0  0  0  0  0
   55.4460   26.5540   45.1580 H   0  0  0  0  0  0  0  0  0  0  0  0
   58.9828   28.7840   47.0297 H   0  0  0  0  0  0  0  0  0  0  0  0
   59.2943   31.0966   46.1642 H   0  0  0  0  0  0  0  0  0  0  0  0
   59.2110   32.5389   44.1085 H   0  0  0  0  0  0  0  0  0  0  0  0
   57.9387   32.2522   42.8723 H   0  0  0  0  0  0  0  0  0  0  0  0
   60.5098   35.6583   49.0222 H   0  0  0  0  0  0  0  0  0  0  0  0
   59.7140   34.1215   49.5357 H   0  0  0  0  0  0  0  0  0  0  0  0
   61.8123   33.8934   46.5777 H   0  0  0  0  0  0  0  0  0  0  0  0
   64.0019   32.6986   46.5238 H   0  0  0  0  0  0  0  0  0  0  0  0
   65.1026   32.0068   48.6534 H   0  0  0  0  0  0  0  0  0  0  0  0
   64.0125   32.4999   50.8433 H   0  0  0  0  0  0  0  0  0  0  0  0
   57.2634   33.3356   48.7348 H   0  0  0  0  0  0  0  0  0  0  0  0
   57.2107   32.1657   47.3589 H   0  0  0  0  0  0  0  0  0  0  0  0
   60.1162   31.5833   47.0036 H   0  0  0  0  0  0  0  0  0  0  0  0
   61.7275   30.1224   48.2295 H   0  0  0  0  0  0  0  0  0  0  0  0
   59.3383   30.4838   51.8175 H   0  0  0  0  0  0  0  0  0  0  0  0
   57.7316   31.9586   50.6046 H   0  0  0  0  0  0  0  0  0  0  0  0
   56.6906   30.2042   42.8227 H   0  0  0  0  0  0  0  0  0  0  0  0
   56.3903   27.8827   43.6769 H   0  0  0  0  0  0  0  0  0  0  0  0
  1  2  1  0
  2  3  1  0
  3  4  2  0
  4  5  1  0
  5  6  2  0
  6  7  1  0
  7  8  2  0
  8  9  1  0
  9 10  1  0
 10 11  1  0
 11 12  2  0
 11 13  1  0
 13 14  2  0
 14 15  1  0
 15 16  2  0
 16 17  1  0
 17 18  1  0
 18 19  1  0
 19 20  2  0
 20 21  1  0
 21 22  2  0
 22 23  1  0
 23 24  1  0
 24 25  2  0
 25 26  1  0
 26 27  2  0
 27 28  1  0
 28 29  2  0
 29 30  1  0
 22 31  1  0
 31 32  1  0
 32 33  1  0
 33 34  2  0
 34 35  1  0
 35 36  2  0
 36 37  1  0
 36 38  1  0
 38 39  2  0
 16 40  1  0
 40 41  2  0
  8  3  1  0
 41 13  1  0
 31 19  1  0
 39 33  1  0
 29 24  1  0
  1 42  1  0
  1 43  1  0
  1 44  1  0
  4 45  1  0
  5 46  1  0
  6 47  1  0
  7 48  1  0
  9 49  1  0
  9 50  1  0
 10 51  1  0
 14 52  1  0
 15 53  1  0
 17 54  1  0
 17 55  1  0
 23 56  1  0
 23 57  1  0
 25 58  1  0
 26 59  1  0
 27 60  1  0
 28 61  1  0
 32 62  1  0
 32 63  1  0
 34 64  1  0
 35 65  1  0
 38 66  1  0
 39 67  1  0
 40 68  1  0
 41 69  1  0
M  CHG  1  37  -1
M  END
>  <UniqueID>  (74) 
69

>  <SMILES>  (74) 
COc1ccccc1CNC(=O)c1ccc(CSc2nnc(Cc3ccccc3F)n2Cc2ccc([O-])cc2)cc1

>  <Energy>  (74) 
104.16674933427129

>  <Genealogy>  (74) 
COc1ccccc1CNC(=O)c1ccc(CSc2nnc(Cc3ccccc3F)n2Cc2ccc([O-])cc2)cc1 (protonated)
COc1ccccc1CNC(=O)c1ccc(CSc2nnc(Cc3ccccc3F)n2Cc2ccc([O-])cc2)cc1 (3D coordinates assigned)
COc1ccccc1CNC(=O)c1ccc(CSc2nnc(Cc3ccccc3F)n2Cc2ccc([O-])cc2)cc1 (optimized conformer: 104.16674933427129 kcal/mol)

>  <smiles>  (74) 
COc1ccccc1CNC(=O)c1ccc(CSc2nnc(Cc3ccccc3F)n2Cc2ccc(O)cc2)cc1

>  <score_type>  (74) 
oracle

>  <origin>  (74) 
adg

>  <m_score__min__energy>  (74) 
-12.07

>  <m_primary>  (74) 
energy

$$$$
74:0
     RDKit          3D

 44 47  0  0  0  0  0  0  0  0999 V2000
   58.7130   23.2310   45.5630 N   0  0  0  0  0  0  0  0  0  0  0  0
   58.0660   24.1880   45.6320 C   0  0  0  0  0  0  0  0  0  0  0  0
   57.2630   25.3770   45.7160 C   0  0  0  0  0  0  0  0  0  0  0  0
   55.9260   25.4250   46.0180 C   0  0  0  0  0  0  0  0  0  0  0  0
   55.5260   26.7080   46.0000 N   0  0  0  0  0  0  0  0  0  0  0  0
   56.6450   27.3960   45.6840 C   0  0  0  0  0  0  0  0  0  0  0  0
   56.6700   28.8610   45.5480 C   0  0  0  0  0  0  0  0  0  0  0  0
   55.7020   29.4430   44.9900 O   0  0  0  0  0  0  0  0  0  0  0  0
   57.7680   29.6210   46.0810 N   0  0  0  0  0  0  0  0  0  0  0  0
   58.0000   31.0110   45.7880 C   0  0  0  0  0  0  0  0  0  0  0  0
   57.7590   31.5450   44.5170 C   0  0  0  0  0  0  0  0  0  0  0  0
   58.0270   32.8880   44.2640 C   0  0  0  0  0  0  0  0  0  0  0  0
   58.5480   33.6930   45.2790 C   0  0  0  0  0  0  0  0  0  0  0  0
   58.7910   34.9060   45.0320 O   0  0  0  0  0  0  0  0  0  0  0  0
   58.7960   33.1660   46.5230 N   0  0  0  0  0  0  0  0  0  0  0  0
   59.3870   33.9910   47.5900 C   0  0  0  0  0  0  0  0  0  0  0  0
   60.8870   33.8560   47.5820 C   0  0  0  0  0  0  0  0  0  0  0  0
   61.5870   33.8540   46.3670 C   0  0  0  0  0  0  0  0  0  0  0  0
   62.9800   33.7640   46.3580 C   0  0  0  0  0  0  0  0  0  0  0  0
   63.6870   33.6850   47.5600 C   0  0  0  0  0  0  0  0  0  0  0  0
   63.0050   33.6970   48.7900 C   0  0  0  0  0  0  0  0  0  0  0  0
   63.7550   33.6250   50.0700 C   0  0  0  0  0  0  0  0  0  0  0  0
   64.9920   32.9670   50.1520 C   0  0  0  0  0  0  0  0  0  0  0  0
   65.6600   32.9130   51.3330 N   0  0  0  0  0  0  0  0  0  0  0  0
   65.1520   33.4920   52.4520 C   0  0  0  0  0  0  0  0  0  0  0  0
   63.9580   34.1360   52.4000 N   0  0  0  0  0  0  0  0  0  0  0  0
   63.2540   34.2130   51.2410 C   0  0  0  0  0  0  0  0  0  0  0  0
   61.6000   33.7850   48.7890 C   0  0  0  0  0  0  0  0  0  0  0  0
   58.5430   31.8430   46.7750 C   0  0  0  0  0  0  0  0  0  0  0  0
   57.7320   26.6160   45.5000 N   0  0  0  0  0  0  0  0  0  0  0  0
   55.2869   24.5572   46.2384 H   0  0  0  0  0  0  0  0  0  0  0  0
   58.3840   29.1630   46.7890 H   0  0  0  0  0  0  0  0  0  0  0  0
   57.3580   30.9041   43.7180 H   0  0  0  0  0  0  0  0  0  0  0  0
   57.8291   33.3128   43.2688 H   0  0  0  0  0  0  0  0  0  0  0  0
   59.1162   35.0446   47.4267 H   0  0  0  0  0  0  0  0  0  0  0  0
   59.0013   33.6502   48.5622 H   0  0  0  0  0  0  0  0  0  0  0  0
   61.0363   33.9236   45.4173 H   0  0  0  0  0  0  0  0  0  0  0  0
   63.5226   33.7553   45.4012 H   0  0  0  0  0  0  0  0  0  0  0  0
   64.7845   33.6129   47.5445 H   0  0  0  0  0  0  0  0  0  0  0  0
   65.4217   32.4936   49.2569 H   0  0  0  0  0  0  0  0  0  0  0  0
   65.7078   33.4391   53.3998 H   0  0  0  0  0  0  0  0  0  0  0  0
   62.2877   34.7382   51.2205 H   0  0  0  0  0  0  0  0  0  0  0  0
   61.0550   33.7983   49.7444 H   0  0  0  0  0  0  0  0  0  0  0  0
   58.7700   31.4280   47.7681 H   0  0  0  0  0  0  0  0  0  0  0  0
  1  2  3  0
  2  3  1  0
  3  4  2  0
  4  5  1  0
  5  6  1  0
  6  7  1  0
  7  8  2  0
  7  9  1  0
  9 10  1  0
 10 11  1  0
 11 12  2  0
 12 13  1  0
 13 14  2  0
 13 15  1  0
 15 16  1  0
 16 17  1  0
 17 18  2  0
 18 19  1  0
 19 20  2  0
 20 21  1  0
 21 22  1  0
 22 23  2  0
 23 24  1  0
 24 25  2  0
 25 26  1  0
 26 27  2  0
 21 28  2  0
 15 29  1  0
  6 30  2  0
 30  3  1  0
 29 10  2  0
 28 17  1  0
 27 22  1  0
  4 31  1  0
  9 32  1  0
 11 33  1  0
 12 34  1  0
 16 35  1  0
 16 36  1  0
 18 37  1  0
 19 38  1  0
 20 39  1  0
 23 40  1  0
 25 41  1  0
 27 42  1  0
 28 43  1  0
 29 44  1  0
M  CHG  1   5  -1
M  END
>  <UniqueID>  (75) 
70

>  <SMILES>  (75) 
N#Cc1c[n-]c(C(=O)Nc2ccc(=O)n(Cc3cccc(-c4cncnc4)c3)c2)n1

>  <Energy>  (75) 
85.87944006979777

>  <Genealogy>  (75) 
N#Cc1c[n-]c(C(=O)Nc2ccc(=O)n(Cc3cccc(-c4cncnc4)c3)c2)n1 (protonated)
N#Cc1c[n-]c(C(=O)Nc2ccc(=O)n(Cc3cccc(-c4cncnc4)c3)c2)n1 (3D coordinates assigned)
N#Cc1c[n-]c(C(=O)Nc2ccc(=O)n(Cc3cccc(-c4cncnc4)c3)c2)n1 (optimized conformer: 85.87944006979777 kcal/mol)

>  <smiles>  (75) 
N#Cc1c[nH]c(C(=O)Nc2ccc(=O)n(Cc3cccc(-c4cncnc4)c3)c2)n1

>  <score_type>  (75) 
oracle

>  <origin>  (75) 
adg

>  <m_score__min__energy>  (75) 
-10.359999999999999

>  <m_primary>  (75) 
energy

$$$$
75:0
     RDKit          3D

 52 55  0  0  0  0  0  0  0  0999 V2000
   53.4990   24.7260   45.3950 O   0  0  0  0  0  0  0  0  0  0  0  0
   54.7530   24.6910   45.5170 C   0  0  0  0  0  0  0  0  0  0  0  0
   55.4310   25.6380   46.3560 N   0  0  0  0  0  0  0  0  0  0  0  0
   56.7510   26.1670   46.1720 C   0  0  0  0  0  0  0  0  0  0  0  0
   57.7890   25.2800   45.8630 C   0  0  0  0  0  0  0  0  0  0  0  0
   59.0840   25.7540   45.6490 C   0  0  0  0  0  0  0  0  0  0  0  0
   59.3560   27.1220   45.7440 C   0  0  0  0  0  0  0  0  0  0  0  0
   58.3280   28.0270   46.0560 C   0  0  0  0  0  0  0  0  0  0  0  0
   58.5840   29.4370   46.1560 N   0  0  0  0  0  0  0  0  0  0  0  0
   57.7390   30.4380   45.5660 C   0  0  0  0  0  0  0  0  0  0  0  0
   56.7320   30.1020   44.8860 O   0  0  0  0  0  0  0  0  0  0  0  0
   58.0560   31.8720   45.7280 C   0  0  0  0  0  0  0  0  0  0  0  0
   57.5090   32.8010   44.8250 C   0  0  0  0  0  0  0  0  0  0  0  0
   57.8670   34.1480   44.8900 C   0  0  0  0  0  0  0  0  0  0  0  0
   58.7810   34.5830   45.8510 C   0  0  0  0  0  0  0  0  0  0  0  0
   59.3220   33.6770   46.7630 C   0  0  0  0  0  0  0  0  0  0  0  0
   58.9500   32.3270   46.7280 C   0  0  0  0  0  0  0  0  0  0  0  0
   59.4500   31.4570   47.7490 N   0  0  0  0  0  0  0  0  0  0  0  0
   60.9770   30.6410   47.6200 S   0  0  0  0  0  0  0  0  0  0  0  0
   61.1880   30.2040   46.1970 O   0  0  0  0  0  0  0  0  0  0  0  0
   60.9740   29.4300   48.5100 O   0  0  0  0  0  0  0  0  0  0  0  0
   62.2900   31.7290   48.0700 C   0  0  0  0  0  0  0  0  0  0  0  0
   62.9430   31.5540   49.2960 C   0  0  0  0  0  0  0  0  0  0  0  0
   64.0090   32.3870   49.6500 C   0  0  0  0  0  0  0  0  0  0  0  0
   64.4220   33.4020   48.7830 C   0  0  0  0  0  0  0  0  0  0  0  0
   63.7680   33.5880   47.5610 C   0  0  0  0  0  0  0  0  0  0  0  0
   62.7030   32.7550   47.2040 C   0  0  0  0  0  0  0  0  0  0  0  0
   57.0210   27.5480   46.2330 C   0  0  0  0  0  0  0  0  0  0  0  0
   55.5140   23.6260   44.8370 C   0  0  0  0  0  0  0  0  0  0  0  0
   55.8520   23.7260   43.4770 C   0  0  0  0  0  0  0  0  0  0  0  0
   56.5860   22.7010   42.8760 C   0  0  0  0  0  0  0  0  0  0  0  0
   56.9720   21.5900   43.6260 C   0  0  0  0  0  0  0  0  0  0  0  0
   56.6150   21.5170   44.9730 C   0  0  0  0  0  0  0  0  0  0  0  0
   55.9050   22.5290   45.5440 N   0  0  0  0  0  0  0  0  0  0  0  0
   57.5825   24.2021   45.7884 H   0  0  0  0  0  0  0  0  0  0  0  0
   59.8928   25.0495   45.4050 H   0  0  0  0  0  0  0  0  0  0  0  0
   60.3783   27.4909   45.5739 H   0  0  0  0  0  0  0  0  0  0  0  0
   59.5200   29.7380   46.5110 H   0  0  0  0  0  0  0  0  0  0  0  0
   56.7931   32.4630   44.0613 H   0  0  0  0  0  0  0  0  0  0  0  0
   57.4285   34.8678   44.1832 H   0  0  0  0  0  0  0  0  0  0  0  0
   59.0752   35.6423   45.8892 H   0  0  0  0  0  0  0  0  0  0  0  0
   60.0457   34.0249   47.5148 H   0  0  0  0  0  0  0  0  0  0  0  0
   62.6166   30.7591   49.9827 H   0  0  0  0  0  0  0  0  0  0  0  0
   64.5229   32.2431   50.6119 H   0  0  0  0  0  0  0  0  0  0  0  0
   65.2620   34.0551   49.0619 H   0  0  0  0  0  0  0  0  0  0  0  0
   64.0913   34.3896   46.8806 H   0  0  0  0  0  0  0  0  0  0  0  0
   62.1878   32.9034   46.2435 H   0  0  0  0  0  0  0  0  0  0  0  0
   56.2009   28.2566   46.4209 H   0  0  0  0  0  0  0  0  0  0  0  0
   55.5414   24.6035   42.8909 H   0  0  0  0  0  0  0  0  0  0  0  0
   56.8593   22.7697   41.8127 H   0  0  0  0  0  0  0  0  0  0  0  0
   57.5520   20.7796   43.1603 H   0  0  0  0  0  0  0  0  0  0  0  0
   56.9069   20.6426   45.5732 H   0  0  0  0  0  0  0  0  0  0  0  0
  1  2  2  0
  2  3  1  0
  3  4  1  0
  4  5  2  0
  5  6  1  0
  6  7  2  0
  7  8  1  0
  8  9  1  0
  9 10  1  0
 10 11  2  0
 10 12  1  0
 12 13  2  0
 13 14  1  0
 14 15  2  0
 15 16  1  0
 16 17  2  0
 17 18  1  0
 18 19  1  0
 19 20  2  0
 19 21  2  0
 19 22  1  0
 22 23  2  0
 23 24  1  0
 24 25  2  0
 25 26  1  0
 26 27  2  0
  8 28  2  0
  2 29  1  0
 29 30  2  0
 30 31  1  0
 31 32  2  0
 32 33  1  0
 33 34  2  0
 28  4  1  0
 34 29  1  0
 17 12  1  0
 27 22  1  0
  5 35  1  0
  6 36  1  0
  7 37  1  0
  9 38  1  0
 13 39  1  0
 14 40  1  0
 15 41  1  0
 16 42  1  0
 23 43  1  0
 24 44  1  0
 25 45  1  0
 26 46  1  0
 27 47  1  0
 28 48  1  0
 30 49  1  0
 31 50  1  0
 32 51  1  0
 33 52  1  0
M  CHG  2   3  -1  18  -1
M  END
>  <UniqueID>  (76) 
71

>  <SMILES>  (76) 
O=C([N-]c1cccc(NC(=O)c2ccccc2[N-]S(=O)(=O)c2ccccc2)c1)c1ccccn1

>  <Energy>  (76) 
74.47851161807895

>  <Genealogy>  (76) 
O=C([N-]c1cccc(NC(=O)c2ccccc2[N-]S(=O)(=O)c2ccccc2)c1)c1ccccn1 (protonated)
O=C([N-]c1cccc(NC(=O)c2ccccc2[N-]S(=O)(=O)c2ccccc2)c1)c1ccccn1 (3D coordinates assigned)
O=C([N-]c1cccc(NC(=O)c2ccccc2[N-]S(=O)(=O)c2ccccc2)c1)c1ccccn1 (optimized conformer: 74.47851161807895 kcal/mol)

>  <smiles>  (76) 
O=C(Nc1cccc(NC(=O)c2ccccc2NS(=O)(=O)c2ccccc2)c1)c1ccccn1

>  <score_type>  (76) 
oracle

>  <origin>  (76) 
adg

>  <m_score__min__energy>  (76) 
-12.77

>  <m_primary>  (76) 
energy

$$$$
76:0
     RDKit          3D

 55 59  0  0  0  0  0  0  0  0999 V2000
   59.7240   35.3090   47.2190 O   0  0  0  0  0  0  0  0  0  0  0  0
   59.7840   34.0590   47.0730 C   0  0  0  0  0  0  0  0  0  0  0  0
   60.3930   33.1650   47.9230 C   0  0  0  0  0  0  0  0  0  0  0  0
   61.0870   33.3010   49.1070 C   0  0  0  0  0  0  0  0  0  0  0  0
   61.2680   34.4440   49.6080 O   0  0  0  0  0  0  0  0  0  0  0  0
   61.5720   32.1640   49.7090 N   0  0  0  0  0  0  0  0  0  0  0  0
   62.2930   32.2620   50.9950 C   0  0  0  0  0  0  0  0  0  0  0  0
   63.7810   32.1910   50.7690 C   0  0  0  0  0  0  0  0  0  0  0  0
   64.5550   31.2130   51.4170 C   0  0  0  0  0  0  0  0  0  0  0  0
   65.9410   31.1730   51.2320 C   0  0  0  0  0  0  0  0  0  0  0  0
   66.5640   32.1090   50.4030 C   0  0  0  0  0  0  0  0  0  0  0  0
   65.8030   33.0850   49.7560 C   0  0  0  0  0  0  0  0  0  0  0  0
   64.4170   33.1300   49.9390 C   0  0  0  0  0  0  0  0  0  0  0  0
   61.3500   30.9190   49.1370 C   0  0  0  0  0  0  0  0  0  0  0  0
   61.8150   29.8920   49.7040 O   0  0  0  0  0  0  0  0  0  0  0  0
   60.6290   30.7860   47.9580 N   0  0  0  0  0  0  0  0  0  0  0  0
   60.3670   29.4540   47.3500 C   0  0  0  0  0  0  0  0  0  0  0  0
   58.8860   29.0660   47.4170 C   0  0  0  0  0  0  0  0  0  0  0  0
   58.5840   28.3730   46.0990 C   0  0  0  0  0  0  0  0  0  0  0  0
   59.5450   28.9750   45.0880 C   0  0  0  0  0  0  0  0  0  0  0  0
   60.7890   29.3760   45.8720 C   0  0  0  0  0  0  0  0  0  0  0  0
   60.1770   31.9380   47.3700 C   0  0  0  0  0  0  0  0  0  0  0  0
   59.4700   32.0770   46.2230 N   0  0  0  0  0  0  0  0  0  0  0  0
   59.2410   33.3740   46.0440 N   0  0  0  0  0  0  0  0  0  0  0  0
   58.4330   33.9230   44.9560 C   0  0  0  0  0  0  0  0  0  0  0  0
   57.7950   32.8050   44.1820 C   0  0  0  0  0  0  0  0  0  0  0  0
   56.9990   31.8520   44.8380 C   0  0  0  0  0  0  0  0  0  0  0  0
   56.4410   30.7880   44.1220 C   0  0  0  0  0  0  0  0  0  0  0  0
   56.6840   30.6610   42.7520 C   0  0  0  0  0  0  0  0  0  0  0  0
   57.4890   31.5970   42.0960 C   0  0  0  0  0  0  0  0  0  0  0  0
   58.0470   32.6630   42.8070 C   0  0  0  0  0  0  0  0  0  0  0  0
   62.0449   33.2187   51.4778 H   0  0  0  0  0  0  0  0  0  0  0  0
   61.9893   31.4238   51.6394 H   0  0  0  0  0  0  0  0  0  0  0  0
   64.0687   30.4757   52.0726 H   0  0  0  0  0  0  0  0  0  0  0  0
   66.5410   30.4036   51.7399 H   0  0  0  0  0  0  0  0  0  0  0  0
   67.6542   32.0773   50.2598 H   0  0  0  0  0  0  0  0  0  0  0  0
   66.2945   33.8197   49.1013 H   0  0  0  0  0  0  0  0  0  0  0  0
   63.8223   33.9036   49.4311 H   0  0  0  0  0  0  0  0  0  0  0  0
   60.9741   28.7580   47.9475 H   0  0  0  0  0  0  0  0  0  0  0  0
   58.7061   28.3826   48.2600 H   0  0  0  0  0  0  0  0  0  0  0  0
   58.2422   29.9444   47.5714 H   0  0  0  0  0  0  0  0  0  0  0  0
   58.7507   27.2894   46.1885 H   0  0  0  0  0  0  0  0  0  0  0  0
   57.5358   28.5146   45.7969 H   0  0  0  0  0  0  0  0  0  0  0  0
   59.8022   28.2332   44.3175 H   0  0  0  0  0  0  0  0  0  0  0  0
   59.0981   29.8393   44.5748 H   0  0  0  0  0  0  0  0  0  0  0  0
   61.5797   28.6225   45.7417 H   0  0  0  0  0  0  0  0  0  0  0  0
   61.1877   30.3391   45.5205 H   0  0  0  0  0  0  0  0  0  0  0  0
   59.1340   31.3400   45.5670 H   0  0  0  0  0  0  0  0  0  0  0  0
   57.6490   34.5713   45.3745 H   0  0  0  0  0  0  0  0  0  0  0  0
   59.0781   34.5081   44.2840 H   0  0  0  0  0  0  0  0  0  0  0  0
   56.8138   31.9427   45.9185 H   0  0  0  0  0  0  0  0  0  0  0  0
   55.8097   30.0499   44.6384 H   0  0  0  0  0  0  0  0  0  0  0  0
   56.2422   29.8250   42.1899 H   0  0  0  0  0  0  0  0  0  0  0  0
   57.6836   31.4943   41.0182 H   0  0  0  0  0  0  0  0  0  0  0  0
   58.6856   33.3933   42.2884 H   0  0  0  0  0  0  0  0  0  0  0  0
  1  2  2  0
  2  3  1  0
  3  4  1  0
  4  5  2  0
  4  6  1  0
  6  7  1  0
  7  8  1  0
  8  9  2  0
  9 10  1  0
 10 11  2  0
 11 12  1  0
 12 13  2  0
  6 14  1  0
 14 15  2  0
 14 16  1  0
 16 17  1  0
 17 18  1  0
 18 19  1  0
 19 20  1  0
 20 21  1  0
 16 22  1  0
 22 23  1  0
 23 24  1  0
 24 25  1  0
 25 26  1  0
 26 27  2  0
 27 28  1  0
 28 29  2  0
 29 30  1  0
 30 31  2  0
 24  2  1  0
 31 26  1  0
 22  3  2  0
 13  8  1  0
 21 17  1  0
  7 32  1  0
  7 33  1  0
  9 34  1  0
 10 35  1  0
 11 36  1  0
 12 37  1  0
 13 38  1  0
 17 39  1  0
 18 40  1  0
 18 41  1  0
 19 42  1  0
 19 43  1  0
 20 44  1  0
 20 45  1  0
 21 46  1  0
 21 47  1  0
 23 48  1  0
 25 49  1  0
 25 50  1  0
 27 51  1  0
 28 52  1  0
 29 53  1  0
 30 54  1  0
 31 55  1  0
M  END
>  <UniqueID>  (77) 
72

>  <SMILES>  (77) 
O=c1c2c(=O)n(Cc3ccccc3)c(=O)n(C3CCCC3)c2[nH]n1Cc1ccccc1

>  <Energy>  (77) 
112.92922379506543

>  <Genealogy>  (77) 
O=c1c2c(=O)n(Cc3ccccc3)c(=O)n(C3CCCC3)c2[nH]n1Cc1ccccc1 (3D coordinates assigned)
O=c1c2c(=O)n(Cc3ccccc3)c(=O)n(C3CCCC3)c2[nH]n1Cc1ccccc1 (nonaromatic ring conformer: 112.92922379506543 kcal/mol)

>  <smiles>  (77) 
O=c1c2c(=O)n(Cc3ccccc3)c(=O)n(C3CCCC3)c2[nH]n1Cc1ccccc1

>  <score_type>  (77) 
oracle

>  <origin>  (77) 
adg

>  <m_score__min__energy>  (77) 
-9.1400000000000006

>  <m_primary>  (77) 
energy

$$$$
77:0
     RDKit          3D

 61 64  0  0  0  0  0  0  0  0999 V2000
   55.9200   21.7750   42.7930 O   0  0  0  0  0  0  0  0  0  0  0  0
   55.9510   22.4770   43.8400 C   0  0  0  0  0  0  0  0  0  0  0  0
   57.2700   22.7580   44.5120 C   0  0  0  0  0  0  0  0  0  0  0  0
   57.6000   24.2290   44.4850 C   0  0  0  0  0  0  0  0  0  0  0  0
   57.3610   24.9890   43.3280 C   0  0  0  0  0  0  0  0  0  0  0  0
   57.7720   26.3230   43.2650 C   0  0  0  0  0  0  0  0  0  0  0  0
   58.4310   26.9140   44.3530 C   0  0  0  0  0  0  0  0  0  0  0  0
   58.8570   28.2830   44.2990 N   0  0  0  0  0  0  0  0  0  0  0  0
   57.9880   29.3730   44.6410 C   0  0  0  0  0  0  0  0  0  0  0  0
   56.8020   29.1430   44.9990 O   0  0  0  0  0  0  0  0  0  0  0  0
   58.5060   30.7130   44.6740 N   0  0  0  0  0  0  0  0  0  0  0  0
   57.7100   31.8420   45.0700 C   0  0  0  0  0  0  0  0  0  0  0  0
   56.4640   31.8210   44.8680 O   0  0  0  0  0  0  0  0  0  0  0  0
   58.3270   33.0500   45.6860 C   0  0  0  0  0  0  0  0  0  0  0  0
   58.4920   33.1220   47.0850 C   0  0  0  0  0  0  0  0  0  0  0  0
   59.0750   34.2460   47.6780 C   0  0  0  0  0  0  0  0  0  0  0  0
   59.5040   35.3120   46.8840 C   0  0  0  0  0  0  0  0  0  0  0  0
   59.3600   35.2490   45.4950 C   0  0  0  0  0  0  0  0  0  0  0  0
   58.7840   34.1250   44.8950 C   0  0  0  0  0  0  0  0  0  0  0  0
   58.6870   26.1490   45.4990 C   0  0  0  0  0  0  0  0  0  0  0  0
   58.2540   24.8230   45.5740 C   0  0  0  0  0  0  0  0  0  0  0  0
   54.7270   22.9600   44.4000 N   0  0  0  0  0  0  0  0  0  0  0  0
   54.2890   22.5970   45.7150 C   0  0  0  0  0  0  0  0  0  0  0  0
   52.9280   22.6250   46.0590 C   0  0  0  0  0  0  0  0  0  0  0  0
   52.5290   22.3460   47.3670 C   0  0  0  0  0  0  0  0  0  0  0  0
   53.4830   22.0450   48.3410 C   0  0  0  0  0  0  0  0  0  0  0  0
   54.8500   22.0160   48.0150 C   0  0  0  0  0  0  0  0  0  0  0  0
   55.8500   21.7200   49.0730 C   0  0  0  0  0  0  0  0  0  0  0  0
   57.0270   22.1570   48.9310 O   0  0  0  0  0  0  0  0  0  0  0  0
   55.4930   20.9700   50.2620 N   0  0  0  0  0  0  0  0  0  0  0  0
   54.8730   21.8310   51.2740 C   0  0  0  0  0  0  0  0  0  0  0  0
   55.1400   21.1810   52.6220 C   0  0  0  0  0  0  0  0  0  0  0  0
   56.3490   20.2820   52.4060 C   0  0  0  0  0  0  0  0  0  0  0  0
   56.6570   20.3510   50.9150 C   0  0  0  0  0  0  0  0  0  0  0  0
   55.2420   22.2650   46.6870 C   0  0  0  0  0  0  0  0  0  0  0  0
   57.2171   22.4224   45.5582 H   0  0  0  0  0  0  0  0  0  0  0  0
   58.0577   22.2169   43.9673 H   0  0  0  0  0  0  0  0  0  0  0  0
   56.8485   24.5323   42.4685 H   0  0  0  0  0  0  0  0  0  0  0  0
   57.5777   26.9129   42.3571 H   0  0  0  0  0  0  0  0  0  0  0  0
   59.8810   28.4780   44.2190 H   0  0  0  0  0  0  0  0  0  0  0  0
   59.5050   30.8600   44.4140 H   0  0  0  0  0  0  0  0  0  0  0  0
   58.1585   32.2851   47.7161 H   0  0  0  0  0  0  0  0  0  0  0  0
   59.1959   34.2908   48.7704 H   0  0  0  0  0  0  0  0  0  0  0  0
   59.9547   36.2001   47.3512 H   0  0  0  0  0  0  0  0  0  0  0  0
   59.7015   36.0879   44.8708 H   0  0  0  0  0  0  0  0  0  0  0  0
   58.6867   34.0787   43.8003 H   0  0  0  0  0  0  0  0  0  0  0  0
   59.2319   26.5951   46.3440 H   0  0  0  0  0  0  0  0  0  0  0  0
   58.4269   24.2419   46.4918 H   0  0  0  0  0  0  0  0  0  0  0  0
   52.1742   22.8675   45.2955 H   0  0  0  0  0  0  0  0  0  0  0  0
   51.4613   22.3633   47.6309 H   0  0  0  0  0  0  0  0  0  0  0  0
   53.1625   21.8290   49.3709 H   0  0  0  0  0  0  0  0  0  0  0  0
   54.8270   20.1980   50.0190 H   0  0  0  0  0  0  0  0  0  0  0  0
   55.3196   22.8358   51.2423 H   0  0  0  0  0  0  0  0  0  0  0  0
   53.7934   21.9400   51.0937 H   0  0  0  0  0  0  0  0  0  0  0  0
   55.3602   21.9460   53.3811 H   0  0  0  0  0  0  0  0  0  0  0  0
   54.2686   20.6145   52.9823 H   0  0  0  0  0  0  0  0  0  0  0  0
   57.2063   20.6458   52.9914 H   0  0  0  0  0  0  0  0  0  0  0  0
   56.1493   19.2502   52.7307 H   0  0  0  0  0  0  0  0  0  0  0  0
   57.5555   20.9619   50.7430 H   0  0  0  0  0  0  0  0  0  0  0  0
   56.8473   19.3472   50.5073 H   0  0  0  0  0  0  0  0  0  0  0  0
   56.3044   22.1986   46.4097 H   0  0  0  0  0  0  0  0  0  0  0  0
  1  2  2  0
  2  3  1  0
  3  4  1  0
  4  5  2  0
  5  6  1  0
  6  7  2  0
  7  8  1  0
  8  9  1  0
  9 10  2  0
  9 11  1  0
 11 12  1  0
 12 13  2  0
 12 14  1  0
 14 15  2  0
 15 16  1  0
 16 17  2  0
 17 18  1  0
 18 19  2  0
  7 20  1  0
 20 21  2  0
  2 22  1  0
 22 23  1  0
 23 24  2  0
 24 25  1  0
 25 26  2  0
 26 27  1  0
 27 28  1  0
 28 29  2  0
 28 30  1  0
 30 31  1  0
 31 32  1  0
 32 33  1  0
 33 34  1  0
 27 35  2  0
 21  4  1  0
 35 23  1  0
 19 14  1  0
 34 30  1  0
  3 36  1  0
  3 37  1  0
  5 38  1  0
  6 39  1  0
  8 40  1  0
 11 41  1  0
 15 42  1  0
 16 43  1  0
 17 44  1  0
 18 45  1  0
 19 46  1  0
 20 47  1  0
 21 48  1  0
 24 49  1  0
 25 50  1  0
 26 51  1  0
 30 52  1  0
 31 53  1  0
 31 54  1  0
 32 55  1  0
 32 56  1  0
 33 57  1  0
 33 58  1  0
 34 59  1  0
 34 60  1  0
 35 61  1  0
M  CHG  2  22  -1  30   1
M  END
>  <UniqueID>  (78) 
73

>  <SMILES>  (78) 
O=C(Cc1ccc(NC(=O)NC(=O)c2ccccc2)cc1)[N-]c1cccc(C(=O)[NH+]2CCCC2)c1

>  <Energy>  (78) 
84.1451207547086

>  <Genealogy>  (78) 
O=C(Cc1ccc(NC(=O)NC(=O)c2ccccc2)cc1)[N-]c1cccc(C(=O)[NH+]2CCCC2)c1 (protonated)
O=C(Cc1ccc(NC(=O)NC(=O)c2ccccc2)cc1)[N-]c1cccc(C(=O)[NH+]2CCCC2)c1 (3D coordinates assigned)
O=C(Cc1ccc(NC(=O)NC(=O)c2ccccc2)cc1)[N-]c1cccc(C(=O)[NH+]2CCCC2)c1 (nonaromatic ring conformer: 84.1451207547086 kcal/mol)

>  <smiles>  (78) 
O=C(Cc1ccc(NC(=O)NC(=O)c2ccccc2)cc1)Nc1cccc(C(=O)N2CCCC2)c1

>  <score_type>  (78) 
oracle

>  <origin>  (78) 
adg

>  <m_score__min__energy>  (78) 
-9.9199999999999999

>  <m_primary>  (78) 
energy

$$$$
78:0
     RDKit          3D

 61 64  0  0  0  0  0  0  0  0999 V2000
   55.3069   24.5337   46.3202 H   0  0  0  0  0  0  0  0  0  0  0  0
   56.0910   25.2990   46.4180 C   0  0  0  0  0  0  0  0  0  0  0  0
   56.1510   26.3270   45.5320 N   0  0  0  0  0  0  0  0  0  0  0  0
   57.0910   27.3090   45.6160 C   0  0  0  0  0  0  0  0  0  0  0  0
   57.1500   28.2530   44.7200 N   0  0  0  0  0  0  0  0  0  0  0  0
   56.2390   29.3460   44.5140 C   0  0  0  0  0  0  0  0  0  0  0  0
   55.1610   29.3500   45.1680 O   0  0  0  0  0  0  0  0  0  0  0  0
   56.4180   30.3560   43.4070 C   0  0  0  0  0  0  0  0  0  0  0  0
   55.4282   30.6611   43.0366 H   0  0  0  0  0  0  0  0  0  0  0  0
   57.0071   29.8901   42.6033 H   0  0  0  0  0  0  0  0  0  0  0  0
   57.1560   31.5730   43.8930 C   0  0  0  0  0  0  0  0  0  0  0  0
   57.2670   31.9670   45.2110 C   0  0  0  0  0  0  0  0  0  0  0  0
   56.8128   31.4995   46.0971 H   0  0  0  0  0  0  0  0  0  0  0  0
   58.0800   33.0840   45.1620 C   0  0  0  0  0  0  0  0  0  0  0  0
   58.5770   33.8580   46.3430 C   0  0  0  0  0  0  0  0  0  0  0  0
   59.0881   33.1722   47.0347 H   0  0  0  0  0  0  0  0  0  0  0  0
   57.7186   34.3332   46.8403 H   0  0  0  0  0  0  0  0  0  0  0  0
   59.5520   34.9450   45.9050 C   0  0  0  0  0  0  0  0  0  0  0  0
   59.9855   35.4283   46.7930 H   0  0  0  0  0  0  0  0  0  0  0  0
   60.3556   34.4958   45.3030 H   0  0  0  0  0  0  0  0  0  0  0  0
   59.0184   35.6952   45.3030 H   0  0  0  0  0  0  0  0  0  0  0  0
   58.4550   33.3300   43.8920 N   0  0  0  0  0  0  0  0  0  0  0  0
   57.8820   32.4150   43.1270 N   0  0  0  0  0  0  0  0  0  0  0  0
   58.0690   32.3420   41.6820 C   0  0  0  0  0  0  0  0  0  0  0  0
   59.0729   31.9501   41.4615 H   0  0  0  0  0  0  0  0  0  0  0  0
   57.3109   31.6738   41.2475 H   0  0  0  0  0  0  0  0  0  0  0  0
   57.9642   33.3471   41.2475 H   0  0  0  0  0  0  0  0  0  0  0  0
   58.0580   27.2560   46.6450 C   0  0  0  0  0  0  0  0  0  0  0  0
   59.0890   28.2590   46.7660 N   0  0  0  0  0  0  0  0  0  0  0  0
   60.2650   28.2270   45.8800 C   0  0  0  0  0  0  0  0  0  0  0  0
   61.0581   27.6288   46.3523 H   0  0  0  0  0  0  0  0  0  0  0  0
   59.9743   27.7789   44.9184 H   0  0  0  0  0  0  0  0  0  0  0  0
   60.7850   29.6450   45.6290 C   0  0  0  0  0  0  0  0  0  0  0  0
   61.6822   29.5866   44.9952 H   0  0  0  0  0  0  0  0  0  0  0  0
   59.9845   30.2167   45.1367 H   0  0  0  0  0  0  0  0  0  0  0  0
   61.1510   30.3750   46.9470 C   0  0  0  0  0  0  0  0  0  0  0  0
   62.1852   30.0861   47.1856 H   0  0  0  0  0  0  0  0  0  0  0  0
   61.1000   31.9090   46.7710 C   0  0  0  0  0  0  0  0  0  0  0  0
   61.5195   32.1678   45.7876 H   0  0  0  0  0  0  0  0  0  0  0  0
   60.0496   32.2255   46.8513 H   0  0  0  0  0  0  0  0  0  0  0  0
   61.8860   32.6270   47.8400 C   0  0  0  0  0  0  0  0  0  0  0  0
   61.2470   33.5440   48.6910 C   0  0  0  0  0  0  0  0  0  0  0  0
   60.1755   33.7563   48.5611 H   0  0  0  0  0  0  0  0  0  0  0  0
   61.9660   34.1880   49.7020 C   0  0  0  0  0  0  0  0  0  0  0  0
   61.4609   34.9087   50.3620 H   0  0  0  0  0  0  0  0  0  0  0  0
   63.3260   33.9170   49.8750 C   0  0  0  0  0  0  0  0  0  0  0  0
   63.8909   34.4241   50.6711 H   0  0  0  0  0  0  0  0  0  0  0  0
   63.9690   33.0010   49.0360 C   0  0  0  0  0  0  0  0  0  0  0  0
   65.2880   32.7360   49.2080 F   0  0  0  0  0  0  0  0  0  0  0  0
   63.2530   32.3550   48.0220 C   0  0  0  0  0  0  0  0  0  0  0  0
   63.7610   31.6328   47.3660 H   0  0  0  0  0  0  0  0  0  0  0  0
   60.2680   29.9270   48.1450 C   0  0  0  0  0  0  0  0  0  0  0  0
   60.7999   29.1404   48.7004 H   0  0  0  0  0  0  0  0  0  0  0  0
   60.0831   30.8112   48.7727 H   0  0  0  0  0  0  0  0  0  0  0  0
   58.9080   29.3800   47.7000 C   0  0  0  0  0  0  0  0  0  0  0  0
   58.3512   29.0309   48.5821 H   0  0  0  0  0  0  0  0  0  0  0  0
   58.3489   30.1806   47.1936 H   0  0  0  0  0  0  0  0  0  0  0  0
   58.0090   26.1910   47.5600 C   0  0  0  0  0  0  0  0  0  0  0  0
   58.7536   26.1283   48.3672 H   0  0  0  0  0  0  0  0  0  0  0  0
   57.0220   25.2140   47.4500 C   0  0  0  0  0  0  0  0  0  0  0  0
   56.9786   24.3842   48.1708 H   0  0  0  0  0  0  0  0  0  0  0  0
  1  2  1  0
  2  3  1  0
  3  4  1  0
  4  5  2  0
  5  6  1  0
  6  7  2  0
  6  8  1  0
  8  9  1  0
  8 10  1  0
  8 11  1  0
 11 12  2  0
 12 13  1  0
 12 14  1  0
 14 15  1  0
 15 16  1  0
 15 17  1  0
 15 18  1  0
 18 19  1  0
 18 20  1  0
 18 21  1  0
 14 22  2  0
 22 23  1  0
 23 24  1  0
 24 25  1  0
 24 26  1  0
 24 27  1  0
  4 28  1  0
 28 29  1  0
 29 30  1  0
 30 31  1  0
 30 32  1  0
 30 33  1  0
 33 34  1  0
 33 35  1  0
 33 36  1  0
 36 37  1  0
 36 38  1  0
 38 39  1  0
 38 40  1  0
 38 41  1  0
 41 42  2  0
 42 43  1  0
 42 44  1  0
 44 45  1  0
 44 46  2  0
 46 47  1  0
 46 48  1  0
 48 49  1  0
 48 50  2  0
 50 51  1  0
 36 52  1  0
 52 53  1  0
 52 54  1  0
 52 55  1  0
 55 56  1  0
 55 57  1  0
 28 58  2  0
 58 59  1  0
 58 60  1  0
 60 61  1  0
 60  2  2  0
 23 11  1  0
 55 29  1  0
 50 41  1  0
M  CHG  1   3  -1
M  END
>  <UniqueID>  (79) 
74

>  <SMILES>  (79) 
CCc1cc(CC(=O)/N=c2\[n-]cccc2N2CCC(Cc3cccc(F)c3)CC2)n(C)n1

>  <Energy>  (79) 
100.11559666780718

>  <Genealogy>  (79) 
CCc1cc(CC(=O)N=c2[n-]cccc2N2CCC(Cc3cccc(F)c3)CC2)n(C)n1 (protonated)
CCc1cc(CC(=O)/N=c2\[n-]cccc2N2CCC(Cc3cccc(F)c3)CC2)n(C)n1 (cis-trans isomerization)
CCc1cc(CC(=O)/N=c2\[n-]cccc2N2CCC(Cc3cccc(F)c3)CC2)n(C)n1 (3D coordinates assigned)
CCc1cc(CC(=O)/N=c2\[n-]cccc2N2CCC(Cc3cccc(F)c3)CC2)n(C)n1 (nonaromatic ring conformer: 100.11559666780718 kcal/mol)

>  <smiles>  (79) 
CCc1cc(CC(=O)N=c2[nH]cccc2N2CCC(Cc3cccc(F)c3)CC2)n(C)n1

>  <score_type>  (79) 
oracle

>  <origin>  (79) 
adg

>  <m_score__min__energy>  (79) 
-11.609999999999999

>  <m_primary>  (79) 
energy

$$$$
79:0
     RDKit          3D

 29 30  0  0  0  0  0  0  0  0999 V2000
   55.1610   29.4640   44.7210 N   0  0  0  0  0  0  0  0  0  0  0  0
   56.8860   29.3870   44.7160 S   0  0  0  0  0  0  0  0  0  0  0  0
   57.3970   29.7180   43.3420 O   0  0  0  0  0  0  0  0  0  0  0  0
   57.4380   30.3900   45.6900 O   0  0  0  0  0  0  0  0  0  0  0  0
   57.4050   27.7660   45.1700 C   0  0  0  0  0  0  0  0  0  0  0  0
   57.4300   27.3880   46.5200 C   0  0  0  0  0  0  0  0  0  0  0  0
   57.8290   26.0990   46.8810 C   0  0  0  0  0  0  0  0  0  0  0  0
   58.2220   25.1770   45.8960 C   0  0  0  0  0  0  0  0  0  0  0  0
   58.6060   23.8380   46.2320 N   0  0  0  0  0  0  0  0  0  0  0  0
   58.8600   22.7730   45.3060 C   0  0  0  0  0  0  0  0  0  0  0  0
   60.0050   22.2470   45.2870 O   0  0  0  0  0  0  0  0  0  0  0  0
   57.7810   22.2090   44.4250 C   0  0  0  0  0  0  0  0  0  0  0  0
   56.4370   22.4110   45.0560 C   0  0  0  0  0  0  0  0  0  0  0  0
   55.3060   22.6310   44.3620 N   0  0  0  0  0  0  0  0  0  0  0  0
   54.3610   22.7040   45.3220 C   0  0  0  0  0  0  0  0  0  0  0  0
   53.1460   22.9100   45.0640 O   0  0  0  0  0  0  0  0  0  0  0  0
   54.8170   22.5340   46.5820 N   0  0  0  0  0  0  0  0  0  0  0  0
   56.1330   22.3440   46.3980 C   0  0  0  0  0  0  0  0  0  0  0  0
   57.0270   22.1100   47.4400 O   0  0  0  0  0  0  0  0  0  0  0  0
   58.1630   25.5480   44.5470 C   0  0  0  0  0  0  0  0  0  0  0  0
   57.7640   26.8370   44.1850 C   0  0  0  0  0  0  0  0  0  0  0  0
   54.8530   29.3220   45.7100 H   0  0  0  0  0  0  0  0  0  0  0  0
   57.1346   28.1085   47.2969 H   0  0  0  0  0  0  0  0  0  0  0  0
   57.8356   25.8044   47.9408 H   0  0  0  0  0  0  0  0  0  0  0  0
   57.8048   22.7186   43.4504 H   0  0  0  0  0  0  0  0  0  0  0  0
   57.9552   21.1312   44.2906 H   0  0  0  0  0  0  0  0  0  0  0  0
   57.9180   22.5900   47.4900 H   0  0  0  0  0  0  0  0  0  0  0  0
   58.4325   24.8201   43.7676 H   0  0  0  0  0  0  0  0  0  0  0  0
   57.7317   27.1232   43.1234 H   0  0  0  0  0  0  0  0  0  0  0  0
  1  2  1  0
  2  3  2  0
  2  4  2  0
  2  5  1  0
  5  6  2  0
  6  7  1  0
  7  8  2  0
  8  9  1  0
  9 10  1  0
 10 11  2  0
 10 12  1  0
 12 13  1  0
 13 14  1  0
 14 15  1  0
 15 16  2  0
 15 17  1  0
 17 18  1  0
 18 19  1  0
  8 20  1  0
 20 21  2  0
 21  5  1  0
 18 13  2  0
  1 22  1  0
  6 23  1  0
  7 24  1  0
 12 25  1  0
 12 26  1  0
 19 27  1  0
 20 28  1  0
 21 29  1  0
M  CHG  4   1  -1   9  -1  14  -1  17  -1
M  END
>  <UniqueID>  (80) 
75

>  <SMILES>  (80) 
[NH-]S(=O)(=O)c1ccc([N-]C(=O)Cc2[n-]c(=O)[n-]c2O)cc1

>  <Energy>  (80) 
61.07931757121869

>  <Genealogy>  (80) 
[NH-]S(=O)(=O)c1ccc([N-]C(=O)Cc2[n-]c(=O)[n-]c2O)cc1 (protonated)
[NH-]S(=O)(=O)c1ccc([N-]C(=O)Cc2[n-]c(=O)[n-]c2O)cc1 (3D coordinates assigned)
[NH-]S(=O)(=O)c1ccc([N-]C(=O)Cc2[n-]c(=O)[n-]c2O)cc1 (optimized conformer: 61.07931757121869 kcal/mol)

>  <smiles>  (80) 
NS(=O)(=O)c1ccc(NC(=O)Cc2[nH]c(=O)[nH]c2O)cc1

>  <score_type>  (80) 
oracle

>  <origin>  (80) 
adg

>  <m_score__min__energy>  (80) 
-13.369999999999999

>  <m_primary>  (80) 
energy

$$$$
80:0
     RDKit          3D

 38 41  0  0  0  0  0  0  0  0999 V2000
   57.7880   32.7540   47.2050 O   0  0  0  0  0  0  0  0  0  0  0  0
   58.6490   32.4520   46.3330 C   0  0  0  0  0  0  0  0  0  0  0  0
   60.0850   32.4500   46.7090 C   0  0  0  0  0  0  0  0  0  0  0  0
   60.9210   33.5020   46.3050 C   0  0  0  0  0  0  0  0  0  0  0  0
   62.2650   33.5120   46.6730 C   0  0  0  0  0  0  0  0  0  0  0  0
   62.7680   32.4680   47.4450 C   0  0  0  0  0  0  0  0  0  0  0  0
   61.9540   31.4550   47.8430 N   0  0  0  0  0  0  0  0  0  0  0  0
   60.6270   31.4260   47.5130 C   0  0  0  0  0  0  0  0  0  0  0  0
   59.8130   30.3570   47.9150 O   0  0  0  0  0  0  0  0  0  0  0  0
   59.3980   29.3030   47.0890 C   0  0  0  0  0  0  0  0  0  0  0  0
   59.8930   29.1420   45.7820 C   0  0  0  0  0  0  0  0  0  0  0  0
   59.4670   28.0670   44.9960 C   0  0  0  0  0  0  0  0  0  0  0  0
   58.5550   27.1390   45.5110 C   0  0  0  0  0  0  0  0  0  0  0  0
   58.0230   25.7910   44.5240 Cl  0  0  0  0  0  0  0  0  0  0  0  0
   58.0750   27.2850   46.8160 C   0  0  0  0  0  0  0  0  0  0  0  0
   58.5010   28.3600   47.6040 C   0  0  0  0  0  0  0  0  0  0  0  0
   58.1950   32.1420   44.9580 C   0  0  0  0  0  0  0  0  0  0  0  0
   58.5300   32.9970   43.8840 C   0  0  0  0  0  0  0  0  0  0  0  0
   58.0980   32.7130   42.5710 C   0  0  0  0  0  0  0  0  0  0  0  0
   57.3130   31.5790   42.3080 C   0  0  0  0  0  0  0  0  0  0  0  0
   56.9790   30.7590   43.3810 C   0  0  0  0  0  0  0  0  0  0  0  0
   56.2080   29.6220   43.4210 C   0  0  0  0  0  0  0  0  0  0  0  0
   56.1990   29.2640   44.7600 C   0  0  0  0  0  0  0  0  0  0  0  0
   55.5280   28.1610   45.2690 O   0  0  0  0  0  0  0  0  0  0  0  0
   56.9160   30.1120   45.5330 N   0  0  0  0  0  0  0  0  0  0  0  0
   57.3960   31.0230   44.6620 C   0  0  0  0  0  0  0  0  0  0  0  0
   60.5138   34.3221   45.6954 H   0  0  0  0  0  0  0  0  0  0  0  0
   62.9217   34.3360   46.3570 H   0  0  0  0  0  0  0  0  0  0  0  0
   63.8293   32.4631   47.7341 H   0  0  0  0  0  0  0  0  0  0  0  0
   62.3740   30.6710   48.3910 H   0  0  0  0  0  0  0  0  0  0  0  0
   60.6174   29.8641   45.3772 H   0  0  0  0  0  0  0  0  0  0  0  0
   59.8494   27.9506   43.9712 H   0  0  0  0  0  0  0  0  0  0  0  0
   57.3615   26.5538   47.2238 H   0  0  0  0  0  0  0  0  0  0  0  0
   58.1289   28.4645   48.6339 H   0  0  0  0  0  0  0  0  0  0  0  0
   59.1354   33.8956   44.0739 H   0  0  0  0  0  0  0  0  0  0  0  0
   58.3785   33.3855   41.7469 H   0  0  0  0  0  0  0  0  0  0  0  0
   56.9735   31.3468   41.2878 H   0  0  0  0  0  0  0  0  0  0  0  0
   55.7115   29.1125   42.5820 H   0  0  0  0  0  0  0  0  0  0  0  0
  1  2  2  0
  2  3  1  0
  3  4  2  0
  4  5  1  0
  5  6  2  0
  6  7  1  0
  7  8  2  0
  8  9  1  0
  9 10  1  0
 10 11  2  0
 11 12  1  0
 12 13  2  0
 13 14  1  0
 13 15  1  0
 15 16  2  0
  2 17  1  0
 17 18  2  0
 18 19  1  0
 19 20  2  0
 20 21  1  0
 21 22  1  0
 22 23  2  0
 23 24  1  0
 23 25  1  0
 25 26  1  0
  8  3  1  0
 16 10  1  0
 26 17  1  0
 26 21  2  0
  4 27  1  0
  5 28  1  0
  6 29  1  0
  7 30  1  0
 11 31  1  0
 12 32  1  0
 15 33  1  0
 16 34  1  0
 18 35  1  0
 19 36  1  0
 20 37  1  0
 22 38  1  0
M  CHG  3   7   1  24  -1  25  -1
M  END
>  <UniqueID>  (81) 
76

>  <SMILES>  (81) 
O=C(c1ccc[nH+]c1Oc1ccc(Cl)cc1)c1cccc2cc([O-])[n-]c12

>  <Energy>  (81) 
88.23038160160893

>  <Genealogy>  (81) 
O=C(c1ccc[nH+]c1Oc1ccc(Cl)cc1)c1cccc2cc([O-])[n-]c12 (protonated)
O=C(c1ccc[nH+]c1Oc1ccc(Cl)cc1)c1cccc2cc([O-])[n-]c12 (3D coordinates assigned)
O=C(c1ccc[nH+]c1Oc1ccc(Cl)cc1)c1cccc2cc([O-])[n-]c12 (optimized conformer: 88.23038160160893 kcal/mol)

>  <smiles>  (81) 
O=C(c1cccnc1Oc1ccc(Cl)cc1)c1cccc2cc(O)[nH]c12

>  <score_type>  (81) 
oracle

>  <origin>  (81) 
adg

>  <m_score__min__energy>  (81) 
-12.4

>  <m_primary>  (81) 
energy

$$$$
81:0
     RDKit          3D

 59 62  0  0  0  0  0  0  0  0999 V2000
   59.6870   26.0640   47.6990 O   0  0  0  0  0  0  0  0  0  0  0  0
   59.2690   27.0750   47.0740 C   0  0  0  0  0  0  0  0  0  0  0  0
   60.2150   27.8940   46.2980 C   0  0  0  0  0  0  0  0  0  0  0  0
   59.9870   29.1650   45.9260 C   0  0  0  0  0  0  0  0  0  0  0  0
   59.7630   30.2830   46.8660 C   0  0  0  0  0  0  0  0  0  0  0  0
   58.8850   31.3320   46.5500 C   0  0  0  0  0  0  0  0  0  0  0  0
   58.6610   32.3670   47.4590 C   0  0  0  0  0  0  0  0  0  0  0  0
   59.3020   32.3630   48.7090 C   0  0  0  0  0  0  0  0  0  0  0  0
   59.1170   33.4160   49.6640 N   0  0  0  0  0  0  0  0  0  0  0  0
   59.3060   33.2540   51.3790 S   0  0  0  0  0  0  0  0  0  0  0  0
   60.7360   32.9060   51.6880 O   0  0  0  0  0  0  0  0  0  0  0  0
   58.9780   34.5570   52.0480 O   0  0  0  0  0  0  0  0  0  0  0  0
   58.2660   31.9620   51.9630 C   0  0  0  0  0  0  0  0  0  0  0  0
   58.7710   30.9420   52.7780 C   0  0  0  0  0  0  0  0  0  0  0  0
   57.9270   29.9350   53.2420 C   0  0  0  0  0  0  0  0  0  0  0  0
   56.5760   29.9310   52.8920 C   0  0  0  0  0  0  0  0  0  0  0  0
   56.0600   30.9470   52.0690 C   0  0  0  0  0  0  0  0  0  0  0  0
   54.7170   30.9870   51.6790 O   0  0  0  0  0  0  0  0  0  0  0  0
   53.8040   29.9020   51.8220 C   0  0  0  0  0  0  0  0  0  0  0  0
   52.4950   30.2290   51.1100 C   0  0  0  0  0  0  0  0  0  0  0  0
   51.6770   31.1970   51.9080 C   0  0  0  0  0  0  0  0  0  0  0  0
   51.4740   31.1460   53.5810 S   0  0  0  0  0  0  0  0  0  0  0  0
   50.5610   32.5570   53.5940 C   0  0  0  0  0  0  0  0  0  0  0  0
   50.0690   33.0730   54.6330 O   0  0  0  0  0  0  0  0  0  0  0  0
   50.4050   33.0880   52.3650 N   0  0  0  0  0  0  0  0  0  0  0  0
   51.0350   32.3330   51.4250 C   0  0  0  0  0  0  0  0  0  0  0  0
   51.0340   32.6910   50.0830 O   0  0  0  0  0  0  0  0  0  0  0  0
   56.9110   31.9610   51.6170 C   0  0  0  0  0  0  0  0  0  0  0  0
   60.1500   31.2970   49.0390 C   0  0  0  0  0  0  0  0  0  0  0  0
   60.3670   30.2580   48.1300 C   0  0  0  0  0  0  0  0  0  0  0  0
   57.8850   27.4250   47.1610 N   0  0  0  0  0  0  0  0  0  0  0  0
   56.9840   27.4780   46.0160 C   0  0  0  0  0  0  0  0  0  0  0  0
   56.8450   26.1100   45.4130 C   0  0  0  0  0  0  0  0  0  0  0  0
   57.4860   25.7960   44.2060 C   0  0  0  0  0  0  0  0  0  0  0  0
   57.4180   24.5020   43.6970 C   0  0  0  0  0  0  0  0  0  0  0  0
   56.7100   23.5120   44.3900 C   0  0  0  0  0  0  0  0  0  0  0  0
   56.6510   21.8800   43.7590 Cl  0  0  0  0  0  0  0  0  0  0  0  0
   56.0620   23.8200   45.5880 C   0  0  0  0  0  0  0  0  0  0  0  0
   56.1320   25.1120   46.1010 C   0  0  0  0  0  0  0  0  0  0  0  0
   61.1706   27.4356   46.0036 H   0  0  0  0  0  0  0  0  0  0  0  0
   59.9657   29.3883   44.8491 H   0  0  0  0  0  0  0  0  0  0  0  0
   58.3696   31.3381   45.5783 H   0  0  0  0  0  0  0  0  0  0  0  0
   57.9796   33.1894   47.1956 H   0  0  0  0  0  0  0  0  0  0  0  0
   59.8361   30.9354   53.0527 H   0  0  0  0  0  0  0  0  0  0  0  0
   58.3275   29.1393   53.8873 H   0  0  0  0  0  0  0  0  0  0  0  0
   55.9149   29.1327   53.2602 H   0  0  0  0  0  0  0  0  0  0  0  0
   54.2429   28.9951   51.3805 H   0  0  0  0  0  0  0  0  0  0  0  0
   53.6036   29.7351   52.8906 H   0  0  0  0  0  0  0  0  0  0  0  0
   52.7203   30.6719   50.1286 H   0  0  0  0  0  0  0  0  0  0  0  0
   51.9195   29.2992   50.9904 H   0  0  0  0  0  0  0  0  0  0  0  0
   56.5104   32.7657   50.9830 H   0  0  0  0  0  0  0  0  0  0  0  0
   60.6479   31.2781   50.0197 H   0  0  0  0  0  0  0  0  0  0  0  0
   61.0163   29.4149   48.4087 H   0  0  0  0  0  0  0  0  0  0  0  0
   55.9965   27.8340   46.3448 H   0  0  0  0  0  0  0  0  0  0  0  0
   57.3948   28.1664   45.2628 H   0  0  0  0  0  0  0  0  0  0  0  0
   58.0428   26.5725   43.6611 H   0  0  0  0  0  0  0  0  0  0  0  0
   57.9207   24.2569   42.7498 H   0  0  0  0  0  0  0  0  0  0  0  0
   55.4976   23.0434   46.1250 H   0  0  0  0  0  0  0  0  0  0  0  0
   55.6276   25.3534   47.0483 H   0  0  0  0  0  0  0  0  0  0  0  0
  1  2  2  0
  2  3  1  0
  3  4  2  3
  4  5  1  0
  5  6  2  0
  6  7  1  0
  7  8  2  0
  8  9  1  0
  9 10  1  0
 10 11  2  0
 10 12  2  0
 10 13  1  0
 13 14  2  0
 14 15  1  0
 15 16  2  0
 16 17  1  0
 17 18  1  0
 18 19  1  0
 19 20  1  0
 20 21  1  0
 21 22  1  0
 22 23  1  0
 23 24  2  0
 23 25  1  0
 25 26  1  0
 26 27  1  0
 17 28  2  0
  8 29  1  0
 29 30  2  0
  2 31  1  0
 31 32  1  0
 32 33  1  0
 33 34  2  0
 34 35  1  0
 35 36  2  0
 36 37  1  0
 36 38  1  0
 38 39  2  0
 30  5  1  0
 39 33  1  0
 28 13  1  0
 26 21  2  0
  3 40  1  0
  4 41  1  0
  6 42  1  0
  7 43  1  0
 14 44  1  0
 15 45  1  0
 16 46  1  0
 19 47  1  0
 19 48  1  0
 20 49  1  0
 20 50  1  0
 28 51  1  0
 29 52  1  0
 30 53  1  0
 32 54  1  0
 32 55  1  0
 34 56  1  0
 35 57  1  0
 38 58  1  0
 39 59  1  0
M  CHG  4   9  -1  25  -1  27  -1  31  -1
M  END
>  <UniqueID>  (82) 
77

>  <SMILES>  (82) 
O=C(C=Cc1ccc([N-]S(=O)(=O)c2cccc(OCCc3sc(=O)[n-]c3[O-])c2)cc1)[N-]Cc1ccc(Cl)cc1

>  <Energy>  (82) 
97.49458485785776

>  <Genealogy>  (82) 
O=C(C=Cc1ccc([N-]S(=O)(=O)c2cccc(OCCc3sc(=O)[n-]c3[O-])c2)cc1)[N-]Cc1ccc(Cl)cc1 (protonated)
O=C(C=Cc1ccc([N-]S(=O)(=O)c2cccc(OCCc3sc(=O)[n-]c3[O-])c2)cc1)[N-]Cc1ccc(Cl)cc1 (3D coordinates assigned)
O=C(C=Cc1ccc([N-]S(=O)(=O)c2cccc(OCCc3sc(=O)[n-]c3[O-])c2)cc1)[N-]Cc1ccc(Cl)cc1 (optimized conformer: 97.49458485785776 kcal/mol)

>  <smiles>  (82) 
O=C(C=Cc1ccc(NS(=O)(=O)c2cccc(OCCc3sc(=O)[nH]c3O)c2)cc1)NCc1ccc(Cl)cc1

>  <score_type>  (82) 
oracle

>  <origin>  (82) 
adg

>  <m_score__min__energy>  (82) 
-20.93

>  <m_primary>  (82) 
energy

$$$$
82:0
     RDKit          3D

 62 65  0  0  0  0  0  0  0  0999 V2000
   63.4060   34.0730   50.1080 C   0  0  0  0  0  0  0  0  0  0  0  0
   62.5270   34.3580   49.1420 C   0  0  0  0  0  0  0  0  0  0  0  0
   62.4070   33.5110   47.9070 C   0  0  0  0  0  0  0  0  0  0  0  0
   63.3250   31.9410   48.0790 S   0  0  0  0  0  0  0  0  0  0  0  0
   61.8520   30.8920   48.0670 C   0  0  0  0  0  0  0  0  0  0  0  0
   61.3310   30.5480   46.8580 N   0  0  0  0  0  0  0  0  0  0  0  0
   60.2330   29.7560   46.7560 C   0  0  0  0  0  0  0  0  0  0  0  0
   59.7090   29.4270   45.4960 C   0  0  0  0  0  0  0  0  0  0  0  0
   58.5770   28.5950   45.3880 C   0  0  0  0  0  0  0  0  0  0  0  0
   58.0140   28.2340   44.1520 O   0  0  0  0  0  0  0  0  0  0  0  0
   57.0450   28.9910   43.4250 C   0  0  0  0  0  0  0  0  0  0  0  0
   56.2250   29.8500   44.3400 C   0  0  0  0  0  0  0  0  0  0  0  0
   55.1840   29.3730   44.8670 O   0  0  0  0  0  0  0  0  0  0  0  0
   56.6390   31.1880   44.6440 N   0  0  0  0  0  0  0  0  0  0  0  0
   57.7540   31.8610   43.9900 C   0  0  0  0  0  0  0  0  0  0  0  0
   57.7500   33.3600   44.3030 C   0  0  0  0  0  0  0  0  0  0  0  0
   58.3310   33.6410   45.6620 C   0  0  0  0  0  0  0  0  0  0  0  0
   58.0160   32.8110   46.7510 C   0  0  0  0  0  0  0  0  0  0  0  0
   58.5290   33.0910   48.0200 C   0  0  0  0  0  0  0  0  0  0  0  0
   59.3540   34.2020   48.2150 C   0  0  0  0  0  0  0  0  0  0  0  0
   59.6600   35.0390   47.1400 C   0  0  0  0  0  0  0  0  0  0  0  0
   59.1450   34.7660   45.8700 C   0  0  0  0  0  0  0  0  0  0  0  0
   57.9800   28.1020   46.5520 C   0  0  0  0  0  0  0  0  0  0  0  0
   58.4920   28.4310   47.8100 C   0  0  0  0  0  0  0  0  0  0  0  0
   59.6210   29.2630   47.9210 C   0  0  0  0  0  0  0  0  0  0  0  0
   60.1690   29.6170   49.1650 C   0  0  0  0  0  0  0  0  0  0  0  0
   59.6360   29.1790   50.2240 O   0  0  0  0  0  0  0  0  0  0  0  0
   61.2810   30.4250   49.2290 N   0  0  0  0  0  0  0  0  0  0  0  0
   61.8830   30.7520   50.5420 C   0  0  0  0  0  0  0  0  0  0  0  0
   61.0740   31.8070   51.2650 C   0  0  0  0  0  0  0  0  0  0  0  0
   59.7940   32.1550   50.7960 C   0  0  0  0  0  0  0  0  0  0  0  0
   59.0450   33.1420   51.4450 C   0  0  0  0  0  0  0  0  0  0  0  0
   59.5700   33.7980   52.5590 C   0  0  0  0  0  0  0  0  0  0  0  0
   60.8460   33.4720   53.0260 C   0  0  0  0  0  0  0  0  0  0  0  0
   61.6020   32.4870   52.3810 C   0  0  0  0  0  0  0  0  0  0  0  0
   62.8450   32.2040   52.8460 F   0  0  0  0  0  0  0  0  0  0  0  0
   63.4694   34.7131   51.0003 H   0  0  0  0  0  0  0  0  0  0  0  0
   64.0659   33.1984   50.0106 H   0  0  0  0  0  0  0  0  0  0  0  0
   61.8741   35.2361   49.2544 H   0  0  0  0  0  0  0  0  0  0  0  0
   61.3449   33.2863   47.7297 H   0  0  0  0  0  0  0  0  0  0  0  0
   62.8357   34.0703   47.0623 H   0  0  0  0  0  0  0  0  0  0  0  0
   61.7940   30.9050   45.9900 H   0  0  0  0  0  0  0  0  0  0  0  0
   60.1855   29.8215   44.5864 H   0  0  0  0  0  0  0  0  0  0  0  0
   57.5641   29.6344   42.6994 H   0  0  0  0  0  0  0  0  0  0  0  0
   56.3710   28.2895   42.9115 H   0  0  0  0  0  0  0  0  0  0  0  0
   58.6978   31.4218   44.3455 H   0  0  0  0  0  0  0  0  0  0  0  0
   57.6534   31.7298   42.9025 H   0  0  0  0  0  0  0  0  0  0  0  0
   58.3473   33.8854   43.5433 H   0  0  0  0  0  0  0  0  0  0  0  0
   56.7078   33.7117   44.2938 H   0  0  0  0  0  0  0  0  0  0  0  0
   57.3633   31.9378   46.6040 H   0  0  0  0  0  0  0  0  0  0  0  0
   58.2828   32.4351   48.8680 H   0  0  0  0  0  0  0  0  0  0  0  0
   59.7617   34.4168   49.2138 H   0  0  0  0  0  0  0  0  0  0  0  0
   60.3076   35.9149   47.2932 H   0  0  0  0  0  0  0  0  0  0  0  0
   59.3784   35.4357   45.0291 H   0  0  0  0  0  0  0  0  0  0  0  0
   57.0983   27.4485   46.4769 H   0  0  0  0  0  0  0  0  0  0  0  0
   58.0102   28.0377   48.7173 H   0  0  0  0  0  0  0  0  0  0  0  0
   61.9179   29.8413   51.1580 H   0  0  0  0  0  0  0  0  0  0  0  0
   62.8969   31.1440   50.3735 H   0  0  0  0  0  0  0  0  0  0  0  0
   59.3794   31.6473   49.9127 H   0  0  0  0  0  0  0  0  0  0  0  0
   58.0414   33.4012   51.0769 H   0  0  0  0  0  0  0  0  0  0  0  0
   58.9790   34.5723   53.0699 H   0  0  0  0  0  0  0  0  0  0  0  0
   61.2576   33.9916   53.9038 H   0  0  0  0  0  0  0  0  0  0  0  0
  1  2  2  0
  2  3  1  0
  3  4  1  0
  4  5  1  0
  5  6  2  0
  6  7  1  0
  7  8  2  0
  8  9  1  0
  9 10  1  0
 10 11  1  0
 11 12  1  0
 12 13  2  0
 12 14  1  0
 14 15  1  0
 15 16  1  0
 16 17  1  0
 17 18  2  0
 18 19  1  0
 19 20  2  0
 20 21  1  0
 21 22  2  0
  9 23  2  0
 23 24  1  0
 24 25  2  0
 25 26  1  0
 26 27  2  0
 26 28  1  0
 28 29  1  0
 29 30  1  0
 30 31  2  0
 31 32  1  0
 32 33  2  0
 33 34  1  0
 34 35  2  0
 35 36  1  0
 28  5  1  0
 35 30  1  0
 25  7  1  0
 22 17  1  0
  1 37  1  0
  1 38  1  0
  2 39  1  0
  3 40  1  0
  3 41  1  0
  6 42  1  0
  8 43  1  0
 11 44  1  0
 11 45  1  0
 15 46  1  0
 15 47  1  0
 16 48  1  0
 16 49  1  0
 18 50  1  0
 19 51  1  0
 20 52  1  0
 21 53  1  0
 22 54  1  0
 23 55  1  0
 24 56  1  0
 29 57  1  0
 29 58  1  0
 31 59  1  0
 32 60  1  0
 33 61  1  0
 34 62  1  0
M  CHG  2   6   1  14  -1
M  END
>  <UniqueID>  (83) 
78

>  <SMILES>  (83) 
C=CCSc1[nH+]c2cc(OCC(=O)[N-]CCc3ccccc3)ccc2c(=O)n1Cc1ccccc1F

>  <Energy>  (83) 
62.41816693651883

>  <Genealogy>  (83) 
C=CCSc1[nH+]c2cc(OCC(=O)[N-]CCc3ccccc3)ccc2c(=O)n1Cc1ccccc1F (protonated)
C=CCSc1[nH+]c2cc(OCC(=O)[N-]CCc3ccccc3)ccc2c(=O)n1Cc1ccccc1F (3D coordinates assigned)
C=CCSc1[nH+]c2cc(OCC(=O)[N-]CCc3ccccc3)ccc2c(=O)n1Cc1ccccc1F (optimized conformer: 62.41816693651883 kcal/mol)

>  <smiles>  (83) 
C=CCSc1nc2cc(OCC(=O)NCCc3ccccc3)ccc2c(=O)n1Cc1ccccc1F

>  <score_type>  (83) 
oracle

>  <origin>  (83) 
adg

>  <m_score__min__energy>  (83) 
-9.6899999999999995

>  <m_primary>  (83) 
energy

$$$$
83:0
     RDKit          3D

 81 86  0  0  0  0  0  0  0  0999 V2000
   59.2690   33.8280   54.1060 C   0  0  0  0  0  0  0  0  0  0  0  0
   59.6300   32.4170   54.1620 N   0  0  0  0  0  0  0  0  0  0  0  0
   58.9950   31.5070   55.0690 C   0  0  0  0  0  0  0  0  0  0  0  0
   58.1020   31.9220   55.8580 O   0  0  0  0  0  0  0  0  0  0  0  0
   59.3410   30.0470   55.0490 C   0  0  0  0  0  0  0  0  0  0  0  0
   60.1270   29.7190   53.8650 N   0  0  0  0  0  0  0  0  0  0  0  0
   59.6800   29.1160   52.7550 C   0  0  0  0  0  0  0  0  0  0  0  0
   60.7520   29.0560   51.8930 C   0  0  0  0  0  0  0  0  0  0  0  0
   60.7400   28.5470   50.4860 C   0  0  0  0  0  0  0  0  0  0  0  0
   60.1290   29.4830   49.5940 O   0  0  0  0  0  0  0  0  0  0  0  0
   59.6370   29.1810   48.3100 C   0  0  0  0  0  0  0  0  0  0  0  0
   59.8770   27.9310   47.7070 C   0  0  0  0  0  0  0  0  0  0  0  0
   59.3820   27.6430   46.4390 C   0  0  0  0  0  0  0  0  0  0  0  0
   58.6340   28.5930   45.7470 C   0  0  0  0  0  0  0  0  0  0  0  0
   58.3700   29.8290   46.3360 C   0  0  0  0  0  0  0  0  0  0  0  0
   58.8830   30.1530   47.6100 C   0  0  0  0  0  0  0  0  0  0  0  0
   58.5210   31.4780   48.2700 C   0  0  2  0  0  0  0  0  0  0  0  0
   59.2630   32.6010   47.5880 C   0  0  0  0  0  0  0  0  0  0  0  0
   60.3790   33.1270   48.0570 C   0  0  0  0  0  0  0  0  0  0  0  0
   60.9170   34.2250   47.1850 C   0  0  0  0  0  0  0  0  0  0  0  0
   59.9030   34.3260   46.0300 C   0  0  0  0  0  0  0  0  0  0  0  0
   58.9110   33.2640   46.3520 C   0  0  0  0  0  0  0  0  0  0  0  0
   57.9040   32.9950   45.6460 O   0  0  0  0  0  0  0  0  0  0  0  0
   60.9200   32.7410   49.3280 N   0  0  0  0  0  0  0  0  0  0  0  0
   62.2810   33.0560   49.6710 C   0  0  0  0  0  0  0  0  0  0  0  0
   63.3320   32.7090   48.8110 C   0  0  0  0  0  0  0  0  0  0  0  0
   64.6530   32.9960   49.1650 C   0  0  0  0  0  0  0  0  0  0  0  0
   64.9380   33.6290   50.3800 C   0  0  0  0  0  0  0  0  0  0  0  0
   66.2640   33.8750   50.7190 O   0  0  0  0  0  0  0  0  0  0  0  0
   63.8910   34.0060   51.2480 C   0  0  0  0  0  0  0  0  0  0  0  0
   64.2010   34.6540   52.5730 C   0  0  0  0  0  0  0  0  0  0  0  0
   64.5180   35.9840   52.3620 F   0  0  0  0  0  0  0  0  0  0  0  0
   65.2650   34.0340   53.2110 F   0  0  0  0  0  0  0  0  0  0  0  0
   63.1000   34.5820   53.4070 F   0  0  0  0  0  0  0  0  0  0  0  0
   62.5640   33.7060   50.8840 C   0  0  0  0  0  0  0  0  0  0  0  0
   60.0870   31.9550   50.2040 C   0  0  0  0  0  0  0  0  0  0  0  0
   60.4950   31.6640   51.3610 O   0  0  0  0  0  0  0  0  0  0  0  0
   58.8110   31.4570   49.7240 N   0  0  0  0  0  0  0  0  0  0  0  0
   57.8390   30.8980   50.6330 C   0  0  0  0  0  0  0  0  0  0  0  0
   57.7800   29.6500   50.8020 O   0  0  0  0  0  0  0  0  0  0  0  0
   56.9140   31.7480   51.3210 N   0  0  0  0  0  0  0  0  0  0  0  0
   56.3520   31.4460   52.6300 C   0  0  0  0  0  0  0  0  0  0  0  0
   55.0090   30.7860   52.4770 C   0  0  0  0  0  0  0  0  0  0  0  0
   54.7930   29.4840   52.9490 C   0  0  0  0  0  0  0  0  0  0  0  0
   53.5600   28.8600   52.7490 C   0  0  0  0  0  0  0  0  0  0  0  0
   52.5360   29.5300   52.0750 C   0  0  0  0  0  0  0  0  0  0  0  0
   52.7340   30.8360   51.5950 C   0  0  0  0  0  0  0  0  0  0  0  0
   51.6520   31.5450   50.8670 C   0  0  0  0  0  0  0  0  0  0  0  0
   51.0290   32.6990   51.4380 N   0  0  0  0  0  0  0  0  0  0  0  0
   51.2660   31.1330   49.7380 O   0  0  0  0  0  0  0  0  0  0  0  0
   53.9770   31.4590   51.8090 C   0  0  0  0  0  0  0  0  0  0  0  0
   61.8120   29.6390   52.4920 N   0  0  0  0  0  0  0  0  0  0  0  0
   61.4020   30.0310   53.6910 N   0  0  0  0  0  0  0  0  0  0  0  0
   59.1683   34.2216   55.1282 H   0  0  0  0  0  0  0  0  0  0  0  0
   60.0532   34.3863   53.5737 H   0  0  0  0  0  0  0  0  0  0  0  0
   58.3130   33.9410   53.5737 H   0  0  0  0  0  0  0  0  0  0  0  0
   60.3540   32.0610   53.4990 H   0  0  0  0  0  0  0  0  0  0  0  0
   59.9243   29.8019   55.9488 H   0  0  0  0  0  0  0  0  0  0  0  0
   58.4089   29.4632   55.0273 H   0  0  0  0  0  0  0  0  0  0  0  0
   58.6616   28.7438   52.5697 H   0  0  0  0  0  0  0  0  0  0  0  0
   61.7759   28.3686   50.1619 H   0  0  0  0  0  0  0  0  0  0  0  0
   60.1554   27.6155   50.4615 H   0  0  0  0  0  0  0  0  0  0  0  0
   60.4636   27.1723   48.2457 H   0  0  0  0  0  0  0  0  0  0  0  0
   59.5818   26.6627   45.9817 H   0  0  0  0  0  0  0  0  0  0  0  0
   58.2531   28.3689   44.7397 H   0  0  0  0  0  0  0  0  0  0  0  0
   57.7518   30.5634   45.7988 H   0  0  0  0  0  0  0  0  0  0  0  0
   57.4389   31.6411   48.1583 H   0  0  0  0  0  0  0  0  0  0  0  0
   60.9703   35.1729   47.7406 H   0  0  0  0  0  0  0  0  0  0  0  0
   61.9377   34.0182   46.8309 H   0  0  0  0  0  0  0  0  0  0  0  0
   59.4265   35.3172   46.0094 H   0  0  0  0  0  0  0  0  0  0  0  0
   60.3643   34.1984   45.0396 H   0  0  0  0  0  0  0  0  0  0  0  0
   63.1164   32.2095   47.8550 H   0  0  0  0  0  0  0  0  0  0  0  0
   65.4733   32.7228   48.4849 H   0  0  0  0  0  0  0  0  0  0  0  0
   61.7396   33.9838   51.5572 H   0  0  0  0  0  0  0  0  0  0  0  0
   57.0305   30.7690   53.1697 H   0  0  0  0  0  0  0  0  0  0  0  0
   56.2304   32.3825   53.1940 H   0  0  0  0  0  0  0  0  0  0  0  0
   55.5972   28.9522   53.4786 H   0  0  0  0  0  0  0  0  0  0  0  0
   53.3946   27.8388   53.1229 H   0  0  0  0  0  0  0  0  0  0  0  0
   51.5678   29.0318   51.9189 H   0  0  0  0  0  0  0  0  0  0  0  0
   50.0010   32.7230   51.6210 H   0  0  0  0  0  0  0  0  0  0  0  0
   54.1407   32.4852   51.4482 H   0  0  0  0  0  0  0  0  0  0  0  0
  1  2  1  0
  2  3  1  0
  3  4  2  0
  3  5  1  0
  5  6  1  0
  6  7  1  0
  7  8  2  0
  8  9  1  0
  9 10  1  0
 10 11  1  0
 11 12  2  0
 12 13  1  0
 13 14  2  0
 14 15  1  0
 15 16  2  0
 16 17  1  0
 17 18  1  0
 18 19  2  0
 19 20  1  0
 20 21  1  0
 21 22  1  0
 22 23  2  0
 19 24  1  0
 24 25  1  0
 25 26  2  0
 26 27  1  0
 27 28  2  0
 28 29  1  0
 28 30  1  0
 30 31  1  0
 31 32  1  0
 31 33  1  0
 31 34  1  0
 30 35  2  0
 24 36  1  0
 36 37  2  0
 36 38  1  0
 38 39  1  0
 39 40  2  0
 39 41  1  0
 41 42  1  0
 42 43  1  0
 43 44  2  0
 44 45  1  0
 45 46  2  0
 46 47  1  0
 47 48  1  0
 48 49  1  0
 48 50  2  0
 47 51  2  0
  8 52  1  0
 52 53  2  0
 53  6  1  0
 16 11  1  0
 38 17  1  0
 51 43  1  0
 22 18  1  0
 35 25  1  0
  1 54  1  0
  1 55  1  0
  1 56  1  0
  2 57  1  0
  5 58  1  0
  5 59  1  0
  7 60  1  0
  9 61  1  0
  9 62  1  0
 12 63  1  0
 13 64  1  0
 14 65  1  0
 15 66  1  0
 17 67  1  1
 20 68  1  0
 20 69  1  0
 21 70  1  0
 21 71  1  0
 26 72  1  0
 27 73  1  0
 35 74  1  0
 42 75  1  0
 42 76  1  0
 44 77  1  0
 45 78  1  0
 46 79  1  0
 49 80  1  0
 51 81  1  0
M  CHG  3  29  -1  41  -1  49  -1
M  END
>  <UniqueID>  (84) 
79

>  <SMILES>  (84) 
CNC(=O)Cn1cc(COc2ccccc2[C@@H]2C3=C(CCC3=O)N(c3ccc([O-])c(C(F)(F)F)c3)C(=O)N2C(=O)[N-]Cc2cccc(C([NH-])=O)c2)nn1

>  <Energy>  (84) 
139.16133827235674

>  <Genealogy>  (84) 
CNC(=O)Cn1cc(COc2ccccc2C2C3=C(CCC3=O)N(c3ccc([O-])c(C(F)(F)F)c3)C(=O)N2C(=O)[N-]Cc2cccc(C([NH-])=O)c2)nn1 (protonated)
CNC(=O)Cn1cc(COc2ccccc2[C@@H]2C3=C(CCC3=O)N(c3ccc([O-])c(C(F)(F)F)c3)C(=O)N2C(=O)[N-]Cc2cccc(C([NH-])=O)c2)nn1 (chirality)
CNC(=O)Cn1cc(COc2ccccc2[C@@H]2C3=C(CCC3=O)N(c3ccc([O-])c(C(F)(F)F)c3)C(=O)N2C(=O)[N-]Cc2cccc(C([NH-])=O)c2)nn1 (3D coordinates assigned)
CNC(=O)Cn1cc(COc2ccccc2[C@@H]2C3=C(CCC3=O)N(c3ccc([O-])c(C(F)(F)F)c3)C(=O)N2C(=O)[N-]Cc2cccc(C([NH-])=O)c2)nn1 (nonaromatic ring conformer: 139.16133827235674 kcal/mol)

>  <smiles>  (84) 
CNC(=O)Cn1cc(COc2ccccc2C2C3=C(CCC3=O)N(c3ccc(O)c(C(F)(F)F)c3)C(=O)N2C(=O)NCc2cccc(C(N)=O)c2)nn1

>  <score_type>  (84) 
oracle

>  <origin>  (84) 
adg

>  <m_score__min__energy>  (84) 
-15.74

>  <m_primary>  (84) 
energy

$$$$
84:0
     RDKit          3D

 39 40  0  0  0  0  0  0  0  0999 V2000
   55.4070   24.5380   47.0360 H   0  0  0  0  0  0  0  0  0  0  0  0
   56.4120   24.6520   46.9690 O   0  0  0  0  0  0  0  0  0  0  0  0
   56.9790   25.8080   46.4350 C   0  0  0  0  0  0  0  0  0  0  0  0
   58.3700   25.9520   46.3670 C   0  0  0  0  0  0  0  0  0  0  0  0
   59.0226   25.1475   46.7369 H   0  0  0  0  0  0  0  0  0  0  0  0
   58.9330   27.1140   45.8310 C   0  0  0  0  0  0  0  0  0  0  0  0
   60.0269   27.2152   45.7744 H   0  0  0  0  0  0  0  0  0  0  0  0
   58.1090   28.1560   45.3630 C   0  0  0  0  0  0  0  0  0  0  0  0
   58.6550   29.4040   44.7750 C   0  0  0  0  0  0  0  0  0  0  0  0
   59.7473   29.5315   44.7522 H   0  0  0  0  0  0  0  0  0  0  0  0
   57.8940   30.3850   44.2700 C   0  0  0  0  0  0  0  0  0  0  0  0
   57.2664   30.1757   43.3912 H   0  0  0  0  0  0  0  0  0  0  0  0
   57.8740   31.7330   44.8570 C   0  0  0  0  0  0  0  0  0  0  0  0
   57.4250   32.6930   44.1740 O   0  0  0  0  0  0  0  0  0  0  0  0
   58.3080   31.9390   46.1750 O   0  0  0  0  0  0  0  0  0  0  0  0
   59.6440   32.1430   46.5450 C   0  0  0  0  0  0  0  0  0  0  0  0
   60.2070   33.4130   46.3590 C   0  0  0  0  0  0  0  0  0  0  0  0
   59.2550   34.7150   45.6610 Cl  0  0  0  0  0  0  0  0  0  0  0  0
   61.5380   33.6540   46.7070 C   0  0  0  0  0  0  0  0  0  0  0  0
   61.9719   34.6524   46.5488 H   0  0  0  0  0  0  0  0  0  0  0  0
   62.3240   32.6330   47.2560 C   0  0  0  0  0  0  0  0  0  0  0  0
   63.7290   32.9100   47.6100 C   0  0  0  0  0  0  0  0  0  0  0  0
   64.5298   32.3120   47.1505 H   0  0  0  0  0  0  0  0  0  0  0  0
   64.0280   33.8190   48.4290 O   0  0  0  0  0  0  0  0  0  0  0  0
   61.7560   31.3660   47.4710 C   0  0  0  0  0  0  0  0  0  0  0  0
   62.3678   30.5614   47.9050 H   0  0  0  0  0  0  0  0  0  0  0  0
   60.4100   31.1160   47.1360 C   0  0  0  0  0  0  0  0  0  0  0  0
   59.7940   29.8760   47.3910 O   0  0  0  0  0  0  0  0  0  0  0  0
   58.8750   29.5990   48.4470 C   0  0  0  0  0  0  0  0  0  0  0  0
   59.1246   28.6264   48.8962 H   0  0  0  0  0  0  0  0  0  0  0  0
   57.8566   29.5794   48.0316 H   0  0  0  0  0  0  0  0  0  0  0  0
   58.9430   30.6780   49.5220 C   0  0  0  0  0  0  0  0  0  0  0  0
   58.9134   30.2077   50.5159 H   0  0  0  0  0  0  0  0  0  0  0  0
   59.8787   31.2459   49.4128 H   0  0  0  0  0  0  0  0  0  0  0  0
   58.0860   31.3589   49.4128 H   0  0  0  0  0  0  0  0  0  0  0  0
   56.7140   27.9950   45.4210 C   0  0  0  0  0  0  0  0  0  0  0  0
   56.0576   28.7914   45.0404 H   0  0  0  0  0  0  0  0  0  0  0  0
   56.1520   26.8320   45.9580 C   0  0  0  0  0  0  0  0  0  0  0  0
   54.7710   26.6950   46.0160 O   0  0  0  0  0  0  0  0  0  0  0  0
  1  2  1  0
  2  3  1  0
  3  4  2  0
  4  5  1  0
  4  6  1  0
  6  7  1  0
  6  8  2  0
  8  9  1  0
  9 10  1  0
  9 11  2  0
 11 12  1  0
 11 13  1  0
 13 14  2  0
 13 15  1  0
 15 16  1  0
 16 17  2  0
 17 18  1  0
 17 19  1  0
 19 20  1  0
 19 21  2  0
 21 22  1  0
 22 23  1  0
 22 24  2  0
 21 25  1  0
 25 26  1  0
 25 27  2  0
 27 28  1  0
 28 29  1  0
 29 30  1  0
 29 31  1  0
 29 32  1  0
 32 33  1  0
 32 34  1  0
 32 35  1  0
  8 36  1  0
 36 37  1  0
 36 38  2  0
 38 39  1  0
 38  3  1  0
 27 16  1  0
M  CHG  1  39  -1
M  END
>  <UniqueID>  (85) 
80

>  <SMILES>  (85) 
CCOc1cc(C=O)cc(Cl)c1OC(=O)/C=C/c1ccc(O)c([O-])c1

>  <Energy>  (85) 
44.658389257251834

>  <Genealogy>  (85) 
CCOc1cc(C=O)cc(Cl)c1OC(=O)C=Cc1ccc(O)c([O-])c1 (protonated)
CCOc1cc(C=O)cc(Cl)c1OC(=O)/C=C/c1ccc(O)c([O-])c1 (cis-trans isomerization)
CCOc1cc(C=O)cc(Cl)c1OC(=O)/C=C/c1ccc(O)c([O-])c1 (3D coordinates assigned)
CCOc1cc(C=O)cc(Cl)c1OC(=O)/C=C/c1ccc(O)c([O-])c1 (optimized conformer: 44.658389257251834 kcal/mol)

>  <smiles>  (85) 
CCOc1cc(C=O)cc(Cl)c1OC(=O)C=Cc1ccc(O)c(O)c1

>  <score_type>  (85) 
oracle

>  <origin>  (85) 
adg

>  <m_score__min__energy>  (85) 
-11.890000000000001

>  <m_primary>  (85) 
energy

$$$$
85:0
     RDKit          3D

 50 53  0  0  0  0  0  0  0  0999 V2000
   59.5290   33.2430   49.4860 C   0  0  0  0  0  0  0  0  0  0  0  0
   58.7660   32.6540   48.4380 O   0  0  0  0  0  0  0  0  0  0  0  0
   58.7500   33.1100   47.1080 C   0  0  0  0  0  0  0  0  0  0  0  0
   59.2140   34.3930   46.7560 C   0  0  0  0  0  0  0  0  0  0  0  0
   59.1950   34.8110   45.4240 C   0  0  0  0  0  0  0  0  0  0  0  0
   58.7200   33.9560   44.4280 C   0  0  0  0  0  0  0  0  0  0  0  0
   58.2570   32.6830   44.7620 C   0  0  0  0  0  0  0  0  0  0  0  0
   58.2570   32.2550   46.1010 C   0  0  0  0  0  0  0  0  0  0  0  0
   57.7780   30.8710   46.4410 C   0  0  0  0  0  0  0  0  0  0  0  0
   57.3490   30.1930   45.2240 N   0  0  0  0  0  0  0  0  0  0  0  0
   56.8240   28.8620   45.2030 C   0  0  0  0  0  0  0  0  0  0  0  0
   55.6000   28.6870   44.9660 O   0  0  0  0  0  0  0  0  0  0  0  0
   57.6870   27.6940   45.4320 C   0  0  0  0  0  0  0  0  0  0  0  0
   59.0650   27.6280   45.3410 C   0  0  0  0  0  0  0  0  0  0  0  0
   60.0060   28.7640   45.0620 C   0  0  0  0  0  0  0  0  0  0  0  0
   60.4200   29.3950   46.3110 N   0  0  0  0  0  0  0  0  0  0  0  0
   60.2660   28.9040   47.5510 C   0  0  0  0  0  0  0  0  0  0  0  0
   60.8170   29.7230   48.4680 N   0  0  0  0  0  0  0  0  0  0  0  0
   61.3120   30.7230   47.7050 C   0  0  0  0  0  0  0  0  0  0  0  0
   61.0820   30.5330   46.3910 N   0  0  0  0  0  0  0  0  0  0  0  0
   59.4690   26.3890   45.6840 N   0  0  0  0  0  0  0  0  0  0  0  0
   58.4000   25.6970   45.9570 O   0  0  0  0  0  0  0  0  0  0  0  0
   57.3140   26.4220   45.8260 C   0  0  0  0  0  0  0  0  0  0  0  0
   55.9550   25.9120   46.0570 C   0  0  0  0  0  0  0  0  0  0  0  0
   55.0050   26.7100   46.2730 O   0  0  0  0  0  0  0  0  0  0  0  0
   55.7360   24.4960   46.0760 N   0  0  0  0  0  0  0  0  0  0  0  0
   56.2160   23.5450   45.1140 C   0  0  0  0  0  0  0  0  0  0  0  0
   55.8250   23.6870   43.7760 C   0  0  0  0  0  0  0  0  0  0  0  0
   56.2560   22.7710   42.8110 C   0  0  0  0  0  0  0  0  0  0  0  0
   57.0680   21.6950   43.1800 C   0  0  0  0  0  0  0  0  0  0  0  0
   57.4420   21.5290   44.5170 C   0  0  0  0  0  0  0  0  0  0  0  0
   57.0150   22.4450   45.4840 C   0  0  0  0  0  0  0  0  0  0  0  0
   59.1212   32.9282   50.4579 H   0  0  0  0  0  0  0  0  0  0  0  0
   60.5764   32.9169   49.4048 H   0  0  0  0  0  0  0  0  0  0  0  0
   59.4788   34.3389   49.4048 H   0  0  0  0  0  0  0  0  0  0  0  0
   59.5937   35.0697   47.5357 H   0  0  0  0  0  0  0  0  0  0  0  0
   59.5550   35.8160   45.1589 H   0  0  0  0  0  0  0  0  0  0  0  0
   58.7107   34.2863   43.3788 H   0  0  0  0  0  0  0  0  0  0  0  0
   57.8898   32.0103   43.9729 H   0  0  0  0  0  0  0  0  0  0  0  0
   58.5969   30.3038   46.9076 H   0  0  0  0  0  0  0  0  0  0  0  0
   56.9325   30.9372   47.1415 H   0  0  0  0  0  0  0  0  0  0  0  0
   60.8934   28.3801   44.5375 H   0  0  0  0  0  0  0  0  0  0  0  0
   59.4928   29.5094   44.4367 H   0  0  0  0  0  0  0  0  0  0  0  0
   59.7571   27.9578   47.7872 H   0  0  0  0  0  0  0  0  0  0  0  0
   61.8439   31.5956   48.1119 H   0  0  0  0  0  0  0  0  0  0  0  0
   55.1748   24.5244   43.4827 H   0  0  0  0  0  0  0  0  0  0  0  0
   55.9556   22.8976   41.7604 H   0  0  0  0  0  0  0  0  0  0  0  0
   57.4126   20.9792   42.4191 H   0  0  0  0  0  0  0  0  0  0  0  0
   58.0731   20.6766   44.8089 H   0  0  0  0  0  0  0  0  0  0  0  0
   57.3038   22.3062   46.5363 H   0  0  0  0  0  0  0  0  0  0  0  0
  1  2  1  0
  2  3  1  0
  3  4  2  0
  4  5  1  0
  5  6  2  0
  6  7  1  0
  7  8  2  0
  8  9  1  0
  9 10  1  0
 10 11  1  0
 11 12  2  0
 11 13  1  0
 13 14  1  0
 14 15  1  0
 15 16  1  0
 16 17  1  0
 17 18  2  0
 18 19  1  0
 19 20  2  0
 14 21  2  0
 21 22  1  0
 22 23  1  0
 23 24  1  0
 24 25  2  0
 24 26  1  0
 26 27  1  0
 27 28  2  0
 28 29  1  0
 29 30  2  0
 30 31  1  0
 31 32  2  0
  8  3  1  0
 23 13  2  0
 32 27  1  0
 20 16  1  0
  1 33  1  0
  1 34  1  0
  1 35  1  0
  4 36  1  0
  5 37  1  0
  6 38  1  0
  7 39  1  0
  9 40  1  0
  9 41  1  0
 15 42  1  0
 15 43  1  0
 17 44  1  0
 19 45  1  0
 28 46  1  0
 29 47  1  0
 30 48  1  0
 31 49  1  0
 32 50  1  0
M  CHG  2  10  -1  26  -1
M  END
>  <UniqueID>  (86) 
81

>  <SMILES>  (86) 
COc1ccccc1C[N-]C(=O)c1c(Cn2cncn2)noc1C(=O)[N-]c1ccccc1

>  <Energy>  (86) 
122.9034107025188

>  <Genealogy>  (86) 
COc1ccccc1C[N-]C(=O)c1c(Cn2cncn2)noc1C(=O)[N-]c1ccccc1 (protonated)
COc1ccccc1C[N-]C(=O)c1c(Cn2cncn2)noc1C(=O)[N-]c1ccccc1 (3D coordinates assigned)
COc1ccccc1C[N-]C(=O)c1c(Cn2cncn2)noc1C(=O)[N-]c1ccccc1 (optimized conformer: 122.9034107025188 kcal/mol)

>  <smiles>  (86) 
COc1ccccc1CNC(=O)c1c(Cn2cncn2)noc1C(=O)Nc1ccccc1

>  <score_type>  (86) 
oracle

>  <origin>  (86) 
adg

>  <m_score__min__energy>  (86) 
-11.52

>  <m_primary>  (86) 
energy

$$$$
86:0
     RDKit          3D

 34 35  0  0  0  0  0  0  0  0999 V2000
   58.6999   32.4649   48.0955 H   0  0  0  0  0  0  0  0  0  0  0  0
   58.4820   32.8130   47.0750 C   0  0  0  0  0  0  0  0  0  0  0  0
   57.7830   32.0190   46.2220 N   0  0  0  0  0  0  0  0  0  0  0  0
   57.4980   32.3870   44.9430 C   0  0  0  0  0  0  0  0  0  0  0  0
   56.8100   31.5590   44.2060 N   0  0  0  0  0  0  0  0  0  0  0  0
   56.4060   30.2100   44.4890 C   0  0  0  0  0  0  0  0  0  0  0  0
   55.1880   29.8850   44.5350 O   0  0  0  0  0  0  0  0  0  0  0  0
   57.4530   29.1600   44.6870 C   0  0  0  0  0  0  0  0  0  0  0  0
   58.0201   29.0341   43.7529 H   0  0  0  0  0  0  0  0  0  0  0  0
   58.1239   29.4764   45.4993 H   0  0  0  0  0  0  0  0  0  0  0  0
   56.8390   27.8850   45.0520 N   0  0  0  0  0  0  0  0  0  0  0  0
   55.7980   27.7880   45.0280 H   0  0  0  0  0  0  0  0  0  0  0  0
   57.6300   26.7820   45.5190 C   0  0  0  0  0  0  0  0  0  0  0  0
   58.8530   26.9550   45.7770 O   0  0  0  0  0  0  0  0  0  0  0  0
   57.0230   25.4510   45.7440 C   0  0  0  0  0  0  0  0  0  0  0  0
   57.8370   24.3050   45.6920 C   0  0  0  0  0  0  0  0  0  0  0  0
   58.9111   24.4080   45.4781 H   0  0  0  0  0  0  0  0  0  0  0  0
   57.2920   23.0360   45.9100 C   0  0  0  0  0  0  0  0  0  0  0  0
   57.9384   22.1467   45.8752 H   0  0  0  0  0  0  0  0  0  0  0  0
   55.9270   22.8970   46.1720 C   0  0  0  0  0  0  0  0  0  0  0  0
   55.5005   21.8988   46.3501 H   0  0  0  0  0  0  0  0  0  0  0  0
   55.1040   24.0230   46.2080 C   0  0  0  0  0  0  0  0  0  0  0  0
   54.0291   23.9095   46.4123 H   0  0  0  0  0  0  0  0  0  0  0  0
   55.6410   25.2980   45.9850 C   0  0  0  0  0  0  0  0  0  0  0  0
   54.7850   26.3940   45.9780 O   0  0  0  0  0  0  0  0  0  0  0  0
   57.9280   33.6520   44.4890 C   0  0  0  0  0  0  0  0  0  0  0  0
   57.6942   33.9823   43.4661 H   0  0  0  0  0  0  0  0  0  0  0  0
   58.6520   34.4810   45.3470 C   0  0  0  0  0  0  0  0  0  0  0  0
   59.0093   35.4589   44.9919 H   0  0  0  0  0  0  0  0  0  0  0  0
   58.9250   34.0730   46.6570 C   0  0  0  0  0  0  0  0  0  0  0  0
   59.7310   34.9430   47.5760 C   0  0  0  0  0  0  0  0  0  0  0  0
   59.4963   34.6896   48.6204 H   0  0  0  0  0  0  0  0  0  0  0  0
   60.8027   34.7782   47.3907 H   0  0  0  0  0  0  0  0  0  0  0  0
   59.4850   35.9990   47.3907 H   0  0  0  0  0  0  0  0  0  0  0  0
  1  2  1  0
  2  3  1  0
  3  4  1  0
  4  5  2  0
  5  6  1  0
  6  7  2  0
  6  8  1  0
  8  9  1  0
  8 10  1  0
  8 11  1  0
 11 12  1  0
 11 13  1  0
 13 14  2  0
 13 15  1  0
 15 16  2  0
 16 17  1  0
 16 18  1  0
 18 19  1  0
 18 20  2  0
 20 21  1  0
 20 22  1  0
 22 23  1  0
 22 24  2  0
 24 25  1  0
  4 26  1  0
 26 27  1  0
 26 28  2  0
 28 29  1  0
 28 30  1  0
 30 31  1  0
 31 32  1  0
 31 33  1  0
 31 34  1  0
 30  2  2  0
 24 15  1  0
M  CHG  2   3  -1  25  -1
M  END
>  <UniqueID>  (87) 
82

>  <SMILES>  (87) 
Cc1cc/c(=N\C(=O)CNC(=O)c2ccccc2[O-])[n-]c1

>  <Energy>  (87) 
43.66492134710858

>  <Genealogy>  (87) 
Cc1ccc(=NC(=O)CNC(=O)c2ccccc2[O-])[n-]c1 (protonated)
Cc1cc/c(=N\C(=O)CNC(=O)c2ccccc2[O-])[n-]c1 (cis-trans isomerization)
Cc1cc/c(=N\C(=O)CNC(=O)c2ccccc2[O-])[n-]c1 (3D coordinates assigned)
Cc1cc/c(=N\C(=O)CNC(=O)c2ccccc2[O-])[n-]c1 (optimized conformer: 43.66492134710858 kcal/mol)

>  <smiles>  (87) 
Cc1ccc(=NC(=O)CNC(=O)c2ccccc2O)[nH]c1

>  <score_type>  (87) 
oracle

>  <origin>  (87) 
adg

>  <m_score__min__energy>  (87) 
-12.359999999999999

>  <m_primary>  (87) 
energy

$$$$
87:0
     RDKit          3D

 60 64  0  0  0  0  0  0  0  0999 V2000
   57.0450   24.5020   42.8500 O   0  0  0  0  0  0  0  0  0  0  0  0
   57.3620   25.1220   43.8980 C   0  0  0  0  0  0  0  0  0  0  0  0
   56.9150   24.5840   45.2290 C   0  0  0  0  0  0  0  0  0  0  0  0
   55.4250   24.4280   45.2750 C   0  0  0  0  0  0  0  0  0  0  0  0
   54.7740   23.2950   44.9580 N   0  0  0  0  0  0  0  0  0  0  0  0
   53.4750   23.6220   45.1360 C   0  0  0  0  0  0  0  0  0  0  0  0
   52.5360   22.8070   44.9360 O   0  0  0  0  0  0  0  0  0  0  0  0
   53.2590   24.8920   45.5430 N   0  0  0  0  0  0  0  0  0  0  0  0
   54.5050   25.3890   45.6230 C   0  0  0  0  0  0  0  0  0  0  0  0
   54.7930   26.6930   46.0020 O   0  0  0  0  0  0  0  0  0  0  0  0
   58.1160   26.3360   43.7810 N   0  0  0  0  0  0  0  0  0  0  0  0
   58.2140   27.3470   44.8270 C   0  0  0  0  0  0  0  0  0  0  0  0
   57.0190   28.2970   44.7410 C   0  0  0  0  0  0  0  0  0  0  0  0
   57.4010   29.7230   45.0200 C   0  0  0  0  0  0  0  0  0  0  0  0
   58.5030   30.0800   45.7340 N   0  0  0  0  0  0  0  0  0  0  0  0
   58.4300   31.4160   45.7340 C   0  0  0  0  0  0  0  0  0  0  0  0
   59.3090   32.3130   46.3310 C   0  0  0  0  0  0  0  0  0  0  0  0
   59.0390   33.6960   46.2080 C   0  0  0  0  0  0  0  0  0  0  0  0
   59.9490   34.6900   46.8250 C   0  0  0  0  0  0  0  0  0  0  0  0
   59.6970   35.9230   46.7440 O   0  0  0  0  0  0  0  0  0  0  0  0
   61.1320   34.2590   47.5100 N   0  0  0  0  0  0  0  0  0  0  0  0
   61.2830   34.5170   48.9420 C   0  0  0  0  0  0  0  0  0  0  0  0
   61.9210   33.3020   49.6110 C   0  0  0  0  0  0  0  0  0  0  0  0
   63.1110   32.8790   48.8590 N   0  0  0  0  0  0  0  0  0  0  0  0
   64.3060   32.4690   49.5440 C   0  0  0  0  0  0  0  0  0  0  0  0
   65.4220   32.8930   49.1370 O   0  0  0  0  0  0  0  0  0  0  0  0
   64.2560   31.5740   50.7220 C   0  0  0  0  0  0  0  0  0  0  0  0
   63.2300   30.6200   50.8560 C   0  0  0  0  0  0  0  0  0  0  0  0
   63.1980   29.7660   51.9620 C   0  0  0  0  0  0  0  0  0  0  0  0
   64.1920   29.8480   52.9410 C   0  0  0  0  0  0  0  0  0  0  0  0
   65.2230   30.7810   52.8090 C   0  0  0  0  0  0  0  0  0  0  0  0
   65.2610   31.6360   51.7030 C   0  0  0  0  0  0  0  0  0  0  0  0
   62.9940   32.6610   47.4130 C   0  0  0  0  0  0  0  0  0  0  0  0
   62.3130   33.8570   46.7440 C   0  0  0  0  0  0  0  0  0  0  0  0
   57.8800   34.1180   45.4990 C   0  0  0  0  0  0  0  0  0  0  0  0
   57.0160   33.1770   44.9090 C   0  0  0  0  0  0  0  0  0  0  0  0
   57.3310   31.8290   45.0500 C   0  0  0  0  0  0  0  0  0  0  0  0
   56.6530   30.7710   44.5820 N   0  0  0  0  0  0  0  0  0  0  0  0
   57.3843   23.6032   45.3960 H   0  0  0  0  0  0  0  0  0  0  0  0
   57.2162   25.2951   46.0123 H   0  0  0  0  0  0  0  0  0  0  0  0
   58.2199   26.8553   45.8110 H   0  0  0  0  0  0  0  0  0  0  0  0
   59.1439   27.9193   44.6937 H   0  0  0  0  0  0  0  0  0  0  0  0
   56.5919   28.2370   43.7291 H   0  0  0  0  0  0  0  0  0  0  0  0
   56.2896   27.9892   45.5047 H   0  0  0  0  0  0  0  0  0  0  0  0
   60.1906   31.9566   46.8840 H   0  0  0  0  0  0  0  0  0  0  0  0
   61.9254   35.3975   49.0907 H   0  0  0  0  0  0  0  0  0  0  0  0
   60.2953   34.7058   49.3878 H   0  0  0  0  0  0  0  0  0  0  0  0
   62.2139   33.5641   50.6384 H   0  0  0  0  0  0  0  0  0  0  0  0
   61.1937   32.4769   49.6285 H   0  0  0  0  0  0  0  0  0  0  0  0
   62.4484   30.5460   50.0855 H   0  0  0  0  0  0  0  0  0  0  0  0
   62.3887   29.0278   52.0621 H   0  0  0  0  0  0  0  0  0  0  0  0
   64.1625   29.1791   53.8138 H   0  0  0  0  0  0  0  0  0  0  0  0
   66.0076   30.8435   53.5775 H   0  0  0  0  0  0  0  0  0  0  0  0
   66.0818   32.3610   51.6001 H   0  0  0  0  0  0  0  0  0  0  0  0
   63.9985   32.5300   46.9842 H   0  0  0  0  0  0  0  0  0  0  0  0
   62.3862   31.7613   47.2369 H   0  0  0  0  0  0  0  0  0  0  0  0
   63.0199   34.6985   46.6975 H   0  0  0  0  0  0  0  0  0  0  0  0
   62.0022   33.5715   45.7282 H   0  0  0  0  0  0  0  0  0  0  0  0
   57.6569   35.1915   45.4111 H   0  0  0  0  0  0  0  0  0  0  0  0
   56.1212   33.4965   44.3547 H   0  0  0  0  0  0  0  0  0  0  0  0
  1  2  2  0
  2  3  1  0
  3  4  1  0
  4  5  1  0
  5  6  1  0
  6  7  2  0
  6  8  1  0
  8  9  1  0
  9 10  1  0
  2 11  1  0
 11 12  1  0
 12 13  1  0
 13 14  1  0
 14 15  2  0
 15 16  1  0
 16 17  2  0
 17 18  1  0
 18 19  1  0
 19 20  2  0
 19 21  1  0
 21 22  1  0
 22 23  1  0
 23 24  1  0
 24 25  1  0
 25 26  2  0
 25 27  1  0
 27 28  2  0
 28 29  1  0
 29 30  2  0
 30 31  1  0
 31 32  2  0
 24 33  1  0
 33 34  1  0
 18 35  2  0
 35 36  1  0
 36 37  2  0
 37 38  1  0
  9  4  2  0
 38 14  1  0
 37 16  1  0
 34 21  1  0
 32 27  1  0
  3 39  1  0
  3 40  1  0
 12 41  1  0
 12 42  1  0
 13 43  1  0
 13 44  1  0
 17 45  1  0
 22 46  1  0
 22 47  1  0
 23 48  1  0
 23 49  1  0
 28 50  1  0
 29 51  1  0
 30 52  1  0
 31 53  1  0
 32 54  1  0
 33 55  1  0
 33 56  1  0
 34 57  1  0
 34 58  1  0
 35 59  1  0
 36 60  1  0
M  CHG  5   5  -1   8  -1  10  -1  11  -1  38  -1
M  END
>  <UniqueID>  (88) 
83

>  <SMILES>  (88) 
O=C(Cc1[n-]c(=O)[n-]c1[O-])[N-]CCc1nc2cc(C(=O)N3CCN(C(=O)c4ccccc4)CC3)ccc2[n-]1

>  <Energy>  (88) 
132.9425211410242

>  <Genealogy>  (88) 
O=C(Cc1[n-]c(=O)[n-]c1[O-])[N-]CCc1nc2cc(C(=O)N3CCN(C(=O)c4ccccc4)CC3)ccc2[n-]1 (protonated)
O=C(Cc1[n-]c(=O)[n-]c1[O-])[N-]CCc1nc2cc(C(=O)N3CCN(C(=O)c4ccccc4)CC3)ccc2[n-]1 (3D coordinates assigned)
O=C(Cc1[n-]c(=O)[n-]c1[O-])[N-]CCc1nc2cc(C(=O)N3CCN(C(=O)c4ccccc4)CC3)ccc2[n-]1 (nonaromatic ring conformer: 132.9425211410242 kcal/mol)

>  <smiles>  (88) 
O=C(Cc1[nH]c(=O)[nH]c1O)NCCc1nc2cc(C(=O)N3CCN(C(=O)c4ccccc4)CC3)ccc2[nH]1

>  <score_type>  (88) 
oracle

>  <origin>  (88) 
adg

>  <m_score__min__energy>  (88) 
-21.550000000000001

>  <m_primary>  (88) 
energy

$$$$
88:0
     RDKit          3D

 61 64  0  0  0  0  0  0  0  0999 V2000
   53.1370   22.4940   46.6430 C   0  0  0  0  0  0  0  0  0  0  0  0
   54.1640   23.6170   45.7150 S   0  0  0  0  0  0  0  0  0  0  0  0
   54.4530   23.0570   44.3510 O   0  0  0  0  0  0  0  0  0  0  0  0
   53.4180   24.9130   45.5640 O   0  0  0  0  0  0  0  0  0  0  0  0
   55.6450   23.9280   46.5670 N   0  0  0  0  0  0  0  0  0  0  0  0
   56.6370   24.9010   46.2030 C   0  0  0  0  0  0  0  0  0  0  0  0
   57.9670   24.4730   46.1070 C   0  0  0  0  0  0  0  0  0  0  0  0
   58.9790   25.3690   45.7740 C   0  0  0  0  0  0  0  0  0  0  0  0
   58.6740   26.7050   45.5270 C   0  0  0  0  0  0  0  0  0  0  0  0
   57.3510   27.1720   45.6300 C   0  0  0  0  0  0  0  0  0  0  0  0
   57.0730   28.5930   45.3070 C   0  0  0  0  0  0  0  0  0  0  0  0
   57.8740   29.6740   45.6290 C   0  0  0  0  0  0  0  0  0  0  0  0
   57.2140   30.7490   45.0690 C   0  0  0  0  0  0  0  0  0  0  0  0
   57.6560   32.1570   45.1300 C   0  0  0  0  0  0  0  0  0  0  0  0
   57.5390   32.8720   44.1000 O   0  0  0  0  0  0  0  0  0  0  0  0
   58.2250   32.7470   46.3050 N   0  0  0  0  0  0  0  0  0  0  0  0
   59.5650   32.5250   46.8460 C   0  0  1  0  0  0  0  0  0  0  0  0
   60.0240   33.7920   47.5880 C   0  0  0  0  0  0  0  0  0  0  0  0
   61.4710   33.6950   48.0050 C   0  0  0  0  0  0  0  0  0  0  0  0
   62.4490   33.2940   47.0740 C   0  0  0  0  0  0  0  0  0  0  0  0
   63.7810   33.1470   47.4710 C   0  0  0  0  0  0  0  0  0  0  0  0
   64.1450   33.3890   48.8000 C   0  0  0  0  0  0  0  0  0  0  0  0
   63.1770   33.7710   49.7330 C   0  0  0  0  0  0  0  0  0  0  0  0
   61.8450   33.9240   49.3400 C   0  0  0  0  0  0  0  0  0  0  0  0
   59.6060   31.3290   47.7740 C   0  0  0  0  0  0  0  0  0  0  0  0
   60.0550   30.2390   47.3220 O   0  0  0  0  0  0  0  0  0  0  0  0
   59.3030   31.4330   49.1800 N   0  0  0  0  0  0  0  0  0  0  0  0
   58.0790   32.0970   49.6440 C   0  0  0  0  0  0  0  0  0  0  0  0
   57.7180   31.6420   51.0650 C   0  0  0  0  0  0  0  0  0  0  0  0
   57.9510   30.1970   51.2090 N   0  0  0  0  0  0  0  0  0  0  0  0
   59.3800   29.8490   51.0890 C   0  0  0  0  0  0  0  0  0  0  0  0
   60.1810   30.7940   50.1660 C   0  0  0  0  0  0  0  0  0  0  0  0
   56.1330   30.3110   44.4670 O   0  0  0  0  0  0  0  0  0  0  0  0
   56.0190   29.0200   44.5820 N   0  0  0  0  0  0  0  0  0  0  0  0
   56.3270   26.2680   46.0150 C   0  0  0  0  0  0  0  0  0  0  0  0
   55.0280   26.7070   46.2770 O   0  0  0  0  0  0  0  0  0  0  0  0
   53.2901   22.6614   47.7193 H   0  0  0  0  0  0  0  0  0  0  0  0
   52.0808   22.6699   46.3912 H   0  0  0  0  0  0  0  0  0  0  0  0
   53.4063   21.4576   46.3912 H   0  0  0  0  0  0  0  0  0  0  0  0
   58.2145   23.4181   46.2967 H   0  0  0  0  0  0  0  0  0  0  0  0
   60.0204   25.0213   45.7059 H   0  0  0  0  0  0  0  0  0  0  0  0
   59.4768   27.4033   45.2481 H   0  0  0  0  0  0  0  0  0  0  0  0
   58.8156   29.6762   46.1977 H   0  0  0  0  0  0  0  0  0  0  0  0
   60.2467   32.3109   46.0097 H   0  0  0  0  0  0  0  0  0  0  0  0
   59.9010   34.6598   46.9234 H   0  0  0  0  0  0  0  0  0  0  0  0
   59.4103   33.9027   48.4942 H   0  0  0  0  0  0  0  0  0  0  0  0
   62.1633   33.0958   46.0304 H   0  0  0  0  0  0  0  0  0  0  0  0
   64.5428   32.8412   46.7388 H   0  0  0  0  0  0  0  0  0  0  0  0
   65.1943   33.2785   49.1110 H   0  0  0  0  0  0  0  0  0  0  0  0
   63.4645   33.9516   50.7793 H   0  0  0  0  0  0  0  0  0  0  0  0
   61.0867   34.2247   50.0780 H   0  0  0  0  0  0  0  0  0  0  0  0
   58.2365   33.1857   49.6429 H   0  0  0  0  0  0  0  0  0  0  0  0
   57.2541   31.8292   48.9674 H   0  0  0  0  0  0  0  0  0  0  0  0
   58.3420   32.1849   51.7901 H   0  0  0  0  0  0  0  0  0  0  0  0
   56.6550   31.8550   51.2514 H   0  0  0  0  0  0  0  0  0  0  0  0
   57.4220   29.6990   50.4530 H   0  0  0  0  0  0  0  0  0  0  0  0
   59.8296   29.8823   52.0924 H   0  0  0  0  0  0  0  0  0  0  0  0
   59.4269   28.8472   50.6371 H   0  0  0  0  0  0  0  0  0  0  0  0
   60.6618   31.5719   50.7773 H   0  0  0  0  0  0  0  0  0  0  0  0
   60.9382   30.2026   49.6304 H   0  0  0  0  0  0  0  0  0  0  0  0
   54.2360   26.0900   46.3820 H   0  0  0  0  0  0  0  0  0  0  0  0
  1  2  1  0
  2  3  2  0
  2  4  2  0
  2  5  1  0
  5  6  1  0
  6  7  2  0
  7  8  1  0
  8  9  2  0
  9 10  1  0
 10 11  1  0
 11 12  1  0
 12 13  2  0
 13 14  1  0
 14 15  2  0
 14 16  1  0
 16 17  1  0
 17 18  1  0
 18 19  1  0
 19 20  2  0
 20 21  1  0
 21 22  2  0
 22 23  1  0
 23 24  2  0
 17 25  1  0
 25 26  2  0
 25 27  1  0
 27 28  1  0
 28 29  1  0
 29 30  1  0
 30 31  1  0
 31 32  1  0
 13 33  1  0
 33 34  1  0
 10 35  2  0
 35 36  1  0
 35  6  1  0
 34 11  2  0
 24 19  1  0
 32 27  1  0
  1 37  1  0
  1 38  1  0
  1 39  1  0
  7 40  1  0
  8 41  1  0
  9 42  1  0
 12 43  1  0
 17 44  1  6
 18 45  1  0
 18 46  1  0
 20 47  1  0
 21 48  1  0
 22 49  1  0
 23 50  1  0
 24 51  1  0
 28 52  1  0
 28 53  1  0
 29 54  1  0
 29 55  1  0
 30 56  1  0
 31 57  1  0
 31 58  1  0
 32 59  1  0
 32 60  1  0
 36 61  1  0
M  CHG  2   5  -1  16  -1
M  END
>  <UniqueID>  (89) 
84

>  <SMILES>  (89) 
CS(=O)(=O)[N-]c1cccc(-c2cc(C(=O)[N-][C@@H](Cc3ccccc3)C(=O)N3CCNCC3)on2)c1O

>  <Energy>  (89) 
107.65778543121273

>  <Genealogy>  (89) 
CS(=O)(=O)[N-]c1cccc(-c2cc(C(=O)[N-]C(Cc3ccccc3)C(=O)N3CCNCC3)on2)c1O (protonated)
CS(=O)(=O)[N-]c1cccc(-c2cc(C(=O)[N-][C@@H](Cc3ccccc3)C(=O)N3CCNCC3)on2)c1O (chirality)
CS(=O)(=O)[N-]c1cccc(-c2cc(C(=O)[N-][C@@H](Cc3ccccc3)C(=O)N3CCNCC3)on2)c1O (3D coordinates assigned)
CS(=O)(=O)[N-]c1cccc(-c2cc(C(=O)[N-][C@@H](Cc3ccccc3)C(=O)N3CCNCC3)on2)c1O (nonaromatic ring conformer: 107.65778543121273 kcal/mol)

>  <smiles>  (89) 
CS(=O)(=O)Nc1cccc(-c2cc(C(=O)NC(Cc3ccccc3)C(=O)N3CCNCC3)on2)c1O

>  <score_type>  (89) 
oracle

>  <origin>  (89) 
adg

>  <m_score__min__energy>  (89) 
-13.640000000000001

>  <m_primary>  (89) 
energy

$$$$
89:0
     RDKit          3D

 27 28  0  0  0  0  0  0  0  0999 V2000
   59.8747   33.0352   46.4941 H   0  0  0  0  0  0  0  0  0  0  0  0
   59.1450   32.3980   45.9730 C   0  0  0  0  0  0  0  0  0  0  0  0
   58.1880   32.9750   45.1390 C   0  0  0  0  0  0  0  0  0  0  0  0
   58.1714   34.0651   44.9925 H   0  0  0  0  0  0  0  0  0  0  0  0
   57.2510   32.1690   44.4900 C   0  0  0  0  0  0  0  0  0  0  0  0
   56.5013   32.6305   43.8305 H   0  0  0  0  0  0  0  0  0  0  0  0
   57.2540   30.7750   44.6690 C   0  0  0  0  0  0  0  0  0  0  0  0
   56.2180   29.9920   44.0500 N   0  0  0  0  0  0  0  0  0  0  0  0
   56.3740   29.5370   42.8980 O   0  0  0  0  0  0  0  0  0  0  0  0
   55.1490   29.5540   44.7970 O   0  0  0  0  0  0  0  0  0  0  0  0
   58.2480   30.1850   45.4940 C   0  0  0  0  0  0  0  0  0  0  0  0
   58.3830   28.7140   45.6390 C   0  0  0  0  0  0  0  0  0  0  0  0
   59.5300   28.1940   45.6310 O   0  0  0  0  0  0  0  0  0  0  0  0
   57.2530   27.8800   45.9370 N   0  0  0  0  0  0  0  0  0  0  0  0
   57.1970   26.5770   45.9050 C   0  0  0  0  0  0  0  0  0  0  0  0
   55.9380   25.9550   45.9370 C   0  0  0  0  0  0  0  0  0  0  0  0
   54.7730   26.7130   45.9950 O   0  0  0  0  0  0  0  0  0  0  0  0
   55.8560   24.5620   45.9010 C   0  0  0  0  0  0  0  0  0  0  0  0
   54.8734   24.0677   45.9169 H   0  0  0  0  0  0  0  0  0  0  0  0
   57.0190   23.7990   45.8450 C   0  0  0  0  0  0  0  0  0  0  0  0
   56.9619   22.7011   45.8082 H   0  0  0  0  0  0  0  0  0  0  0  0
   58.2580   24.4410   45.8360 C   0  0  0  0  0  0  0  0  0  0  0  0
   59.1825   23.8461   45.7988 H   0  0  0  0  0  0  0  0  0  0  0  0
   58.3280   25.8010   45.8730 N   0  0  0  0  0  0  0  0  0  0  0  0
   59.2800   26.2240   45.9160 H   0  0  0  0  0  0  0  0  0  0  0  0
   59.1790   31.0140   46.1480 C   0  0  0  0  0  0  0  0  0  0  0  0
   59.9407   30.5664   46.8034 H   0  0  0  0  0  0  0  0  0  0  0  0
  1  2  1  0
  2  3  2  0
  3  4  1  0
  3  5  1  0
  5  6  1  0
  5  7  2  0
  7  8  1  0
  8  9  2  0
  8 10  1  0
  7 11  1  0
 11 12  1  0
 12 13  2  0
 12 14  1  0
 14 15  2  0
 15 16  1  0
 16 17  1  0
 16 18  2  0
 18 19  1  0
 18 20  1  0
 20 21  1  0
 20 22  2  0
 22 23  1  0
 22 24  1  0
 24 25  1  0
 11 26  2  0
 26 27  1  0
 26  2  1  0
 24 15  1  0
M  CHG  3   8   1  10  -1  17  -1
M  END
>  <UniqueID>  (90) 
85

>  <SMILES>  (90) 
O=C(/N=c1\[nH]cccc1[O-])c1ccccc1[N+](=O)[O-]

>  <Energy>  (90) 
45.15662699406958

>  <Genealogy>  (90) 
O=C(N=c1[nH]cccc1[O-])c1ccccc1[N+](=O)[O-] (protonated)
O=C(/N=c1\[nH]cccc1[O-])c1ccccc1[N+](=O)[O-] (cis-trans isomerization)
O=C(/N=c1\[nH]cccc1[O-])c1ccccc1[N+](=O)[O-] (3D coordinates assigned)
O=C(/N=c1\[nH]cccc1[O-])c1ccccc1[N+](=O)[O-] (optimized conformer: 45.15662699406958 kcal/mol)

>  <smiles>  (90) 
O=C(N=c1[nH]cccc1O)c1ccccc1[N+](=O)[O-]

>  <score_type>  (90) 
oracle

>  <origin>  (90) 
adg

>  <m_score__min__energy>  (90) 
-10.630000000000001

>  <m_primary>  (90) 
energy

$$$$
90:0
     RDKit          3D

 43 45  0  0  0  0  0  0  0  0999 V2000
   54.5910   23.9730   44.8060 C   0  0  0  0  0  0  0  0  0  0  0  0
   55.7980   23.1420   44.4520 C   0  0  0  0  0  0  0  0  0  0  0  0
   55.9230   22.6720   43.1310 C   0  0  0  0  0  0  0  0  0  0  0  0
   57.0000   21.8680   42.7610 C   0  0  0  0  0  0  0  0  0  0  0  0
   57.9670   21.5200   43.6990 C   0  0  0  0  0  0  0  0  0  0  0  0
   57.8700   21.9870   45.0110 C   0  0  0  0  0  0  0  0  0  0  0  0
   56.7990   22.8110   45.4070 C   0  0  0  0  0  0  0  0  0  0  0  0
   56.7740   23.3050   46.8090 C   0  0  0  0  0  0  0  0  0  0  0  0
   57.1150   22.5510   47.7610 O   0  0  0  0  0  0  0  0  0  0  0  0
   56.3680   24.6530   47.0780 N   0  0  0  0  0  0  0  0  0  0  0  0
   56.9760   25.8350   46.5360 C   0  0  0  0  0  0  0  0  0  0  0  0
   56.1650   26.8520   46.0210 C   0  0  0  0  0  0  0  0  0  0  0  0
   54.7830   26.7080   46.0060 O   0  0  0  0  0  0  0  0  0  0  0  0
   56.7250   27.9860   45.5260 N   0  0  0  0  0  0  0  0  0  0  0  0
   58.0710   28.1610   45.5340 C   0  0  0  0  0  0  0  0  0  0  0  0
   58.7850   29.6620   44.8660 S   0  0  0  0  0  0  0  0  0  0  0  0
   57.3880   30.0140   43.7440 C   0  0  0  0  0  0  0  0  0  0  0  0
   56.2400   30.6170   44.4890 C   0  0  0  0  0  0  0  0  0  0  0  0
   55.2230   29.9130   44.7380 O   0  0  0  0  0  0  0  0  0  0  0  0
   56.2750   32.0050   44.8420 N   0  0  0  0  0  0  0  0  0  0  0  0
   57.4140   32.7200   45.3440 C   0  0  0  0  0  0  0  0  0  0  0  0
   58.2000   33.4530   44.4460 C   0  0  0  0  0  0  0  0  0  0  0  0
   59.3200   34.1570   44.8990 C   0  0  0  0  0  0  0  0  0  0  0  0
   59.6700   34.1200   46.2510 C   0  0  0  0  0  0  0  0  0  0  0  0
   58.9090   33.3670   47.1500 C   0  0  0  0  0  0  0  0  0  0  0  0
   59.2760   33.3060   48.4900 O   0  0  0  0  0  0  0  0  0  0  0  0
   57.7860   32.6650   46.7010 C   0  0  0  0  0  0  0  0  0  0  0  0
   58.8780   27.2060   46.0640 N   0  0  0  0  0  0  0  0  0  0  0  0
   58.3650   26.0570   46.5720 C   0  0  0  0  0  0  0  0  0  0  0  0
   59.1440   25.2170   47.0980 O   0  0  0  0  0  0  0  0  0  0  0  0
   54.4980   24.0370   45.9002 H   0  0  0  0  0  0  0  0  0  0  0  0
   54.7065   24.9839   44.3881 H   0  0  0  0  0  0  0  0  0  0  0  0
   53.6878   23.5044   44.3881 H   0  0  0  0  0  0  0  0  0  0  0  0
   55.1630   22.9419   42.3830 H   0  0  0  0  0  0  0  0  0  0  0  0
   57.0856   21.5079   41.7252 H   0  0  0  0  0  0  0  0  0  0  0  0
   58.8093   20.8759   43.4063 H   0  0  0  0  0  0  0  0  0  0  0  0
   58.6402   21.7077   45.7450 H   0  0  0  0  0  0  0  0  0  0  0  0
   57.7203   30.7166   42.9655 H   0  0  0  0  0  0  0  0  0  0  0  0
   57.0543   29.0679   43.2928 H   0  0  0  0  0  0  0  0  0  0  0  0
   57.9349   33.4750   43.3787 H   0  0  0  0  0  0  0  0  0  0  0  0
   59.9260   34.7404   44.1902 H   0  0  0  0  0  0  0  0  0  0  0  0
   60.5446   34.6835   46.6082 H   0  0  0  0  0  0  0  0  0  0  0  0
   57.1921   32.0687   47.4093 H   0  0  0  0  0  0  0  0  0  0  0  0
  1  2  1  0
  2  3  2  0
  3  4  1  0
  4  5  2  0
  5  6  1  0
  6  7  2  0
  7  8  1  0
  8  9  2  0
  8 10  1  0
 10 11  1  0
 11 12  2  0
 12 13  1  0
 12 14  1  0
 14 15  1  0
 15 16  1  0
 16 17  1  0
 17 18  1  0
 18 19  2  0
 18 20  1  0
 20 21  1  0
 21 22  2  0
 22 23  1  0
 23 24  2  0
 24 25  1  0
 25 26  1  0
 25 27  2  0
 15 28  2  0
 28 29  1  0
 29 30  2  0
  7  2  1  0
 29 11  1  0
 27 21  1  0
  1 31  1  0
  1 32  1  0
  1 33  1  0
  3 34  1  0
  4 35  1  0
  5 36  1  0
  6 37  1  0
 17 38  1  0
 17 39  1  0
 22 40  1  0
 23 41  1  0
 24 42  1  0
 27 43  1  0
M  CHG  5  10  -1  13  -1  14  -1  20  -1  26  -1
M  END
>  <UniqueID>  (91) 
86

>  <SMILES>  (91) 
Cc1ccccc1C(=O)[N-]c1c([O-])[n-]c(SCC(=O)[N-]c2cccc([O-])c2)nc1=O

>  <Energy>  (91) 
56.06992502199873

>  <Genealogy>  (91) 
Cc1ccccc1C(=O)[N-]c1c([O-])[n-]c(SCC(=O)[N-]c2cccc([O-])c2)nc1=O (protonated)
Cc1ccccc1C(=O)[N-]c1c([O-])[n-]c(SCC(=O)[N-]c2cccc([O-])c2)nc1=O (3D coordinates assigned)
Cc1ccccc1C(=O)[N-]c1c([O-])[n-]c(SCC(=O)[N-]c2cccc([O-])c2)nc1=O (optimized conformer: 56.06992502199873 kcal/mol)

>  <smiles>  (91) 
Cc1ccccc1C(=O)Nc1c(O)[nH]c(SCC(=O)Nc2cccc(O)c2)nc1=O

>  <score_type>  (91) 
oracle

>  <origin>  (91) 
adg

>  <m_score__min__energy>  (91) 
-19.02

>  <m_primary>  (91) 
energy

$$$$
91:0
     RDKit          3D

 46 48  0  0  0  0  0  0  0  0999 V2000
   60.4552   29.1348   45.1008 H   0  0  0  0  0  0  0  0  0  0  0  0
   59.6340   29.6140   45.6540 C   0  0  0  0  0  0  0  0  0  0  0  0
   60.0030   30.6160   46.6740 C   0  0  0  0  0  0  0  0  0  0  0  0
   60.6260   31.6630   46.3520 O   0  0  0  0  0  0  0  0  0  0  0  0
   59.6670   30.3380   48.0440 N   0  0  0  0  0  0  0  0  0  0  0  0
   60.2930   29.6400   48.9560 C   0  0  0  0  0  0  0  0  0  0  0  0
   60.0190   28.2780   49.2070 C   0  0  0  0  0  0  0  0  0  0  0  0
   59.2505   27.7528   48.6208 H   0  0  0  0  0  0  0  0  0  0  0  0
   60.7260   27.6000   50.2010 C   0  0  0  0  0  0  0  0  0  0  0  0
   60.5047   26.5421   50.4056 H   0  0  0  0  0  0  0  0  0  0  0  0
   61.6850   28.2400   50.9160 N   0  0  0  0  0  0  0  0  0  0  0  0
   61.9870   29.5440   50.6950 C   0  0  0  0  0  0  0  0  0  0  0  0
   62.7721   30.0322   51.2911 H   0  0  0  0  0  0  0  0  0  0  0  0
   61.3040   30.2730   49.7110 C   0  0  0  0  0  0  0  0  0  0  0  0
   61.7250   31.9720   49.4380 S   0  0  0  0  0  0  0  0  0  0  0  0
   62.4430   32.0950   48.1240 O   0  0  0  0  0  0  0  0  0  0  0  0
   62.6210   32.4730   50.5360 O   0  0  0  0  0  0  0  0  0  0  0  0
   60.2890   32.9370   49.4010 N   0  0  0  0  0  0  0  0  0  0  0  0
   60.5380   34.0070   48.6000 O   0  0  0  0  0  0  0  0  0  0  0  0
   59.2910   34.5830   48.2950 C   0  0  0  0  0  0  0  0  0  0  0  0
   58.5521   34.2576   49.0421 H   0  0  0  0  0  0  0  0  0  0  0  0
   59.3976   35.6777   48.3099 H   0  0  0  0  0  0  0  0  0  0  0  0
   58.8240   34.1650   46.9260 C   0  0  0  0  0  0  0  0  0  0  0  0
   59.4950   34.6190   45.7780 C   0  0  0  0  0  0  0  0  0  0  0  0
   60.3774   35.2680   45.8791 H   0  0  0  0  0  0  0  0  0  0  0  0
   59.0440   34.2480   44.5070 C   0  0  0  0  0  0  0  0  0  0  0  0
   59.5782   34.5976   43.6112 H   0  0  0  0  0  0  0  0  0  0  0  0
   57.9160   33.4340   44.3730 C   0  0  0  0  0  0  0  0  0  0  0  0
   57.5644   33.1414   43.3726 H   0  0  0  0  0  0  0  0  0  0  0  0
   57.2350   32.9920   45.5100 C   0  0  0  0  0  0  0  0  0  0  0  0
   56.3450   32.3543   45.4036 H   0  0  0  0  0  0  0  0  0  0  0  0
   57.6830   33.3590   46.7840 C   0  0  0  0  0  0  0  0  0  0  0  0
   57.1398   33.0151   47.6766 H   0  0  0  0  0  0  0  0  0  0  0  0
   58.3840   29.2370   45.3430 C   0  0  0  0  0  0  0  0  0  0  0  0
   57.7742   29.9390   44.7554 H   0  0  0  0  0  0  0  0  0  0  0  0
   57.7630   27.9530   45.7280 C   0  0  0  0  0  0  0  0  0  0  0  0
   58.5910   26.8840   46.1000 C   0  0  0  0  0  0  0  0  0  0  0  0
   59.6825   27.0186   46.1220 H   0  0  0  0  0  0  0  0  0  0  0  0
   58.0350   25.6480   46.4430 C   0  0  0  0  0  0  0  0  0  0  0  0
   58.6889   24.8184   46.7499 H   0  0  0  0  0  0  0  0  0  0  0  0
   56.6520   25.4640   46.3970 C   0  0  0  0  0  0  0  0  0  0  0  0
   56.2172   24.4925   46.6748 H   0  0  0  0  0  0  0  0  0  0  0  0
   55.8190   26.5140   45.9980 C   0  0  0  0  0  0  0  0  0  0  0  0
   54.4430   26.3190   45.9400 O   0  0  0  0  0  0  0  0  0  0  0  0
   56.3680   27.7550   45.6540 C   0  0  0  0  0  0  0  0  0  0  0  0
   55.5300   28.7800   45.2270 O   0  0  0  0  0  0  0  0  0  0  0  0
  1  2  1  0
  2  3  1  0
  3  4  2  0
  3  5  1  0
  5  6  2  0
  6  7  1  0
  7  8  1  0
  7  9  2  0
  9 10  1  0
  9 11  1  0
 11 12  1  0
 12 13  1  0
 12 14  2  0
 14 15  1  0
 15 16  2  0
 15 17  2  0
 15 18  1  0
 18 19  1  0
 19 20  1  0
 20 21  1  0
 20 22  1  0
 20 23  1  0
 23 24  2  0
 24 25  1  0
 24 26  1  0
 26 27  1  0
 26 28  2  0
 28 29  1  0
 28 30  1  0
 30 31  1  0
 30 32  2  0
 32 33  1  0
  2 34  2  3
 34 35  1  0
 34 36  1  0
 36 37  2  0
 37 38  1  0
 37 39  1  0
 39 40  1  0
 39 41  2  0
 41 42  1  0
 41 43  1  0
 43 44  1  0
 43 45  2  0
 45 46  1  0
 14  6  1  0
 32 23  1  0
 45 36  1  0
M  CHG  4  11  -1  18  -1  44  -1  46  -1
M  END
>  <UniqueID>  (92) 
87

>  <SMILES>  (92) 
O=C(C=Cc1cccc([O-])c1[O-])/N=c1\cc[n-]cc1S(=O)(=O)[N-]OCc1ccccc1

>  <Energy>  (92) 
63.27245747290762

>  <Genealogy>  (92) 
O=C(C=Cc1cccc([O-])c1[O-])N=c1cc[n-]cc1S(=O)(=O)[N-]OCc1ccccc1 (protonated)
O=C(C=Cc1cccc([O-])c1[O-])/N=c1\cc[n-]cc1S(=O)(=O)[N-]OCc1ccccc1 (cis-trans isomerization)
O=C(C=Cc1cccc([O-])c1[O-])/N=c1\cc[n-]cc1S(=O)(=O)[N-]OCc1ccccc1 (3D coordinates assigned)
O=C(C=Cc1cccc([O-])c1[O-])/N=c1\cc[n-]cc1S(=O)(=O)[N-]OCc1ccccc1 (optimized conformer: 63.27245747290762 kcal/mol)

>  <smiles>  (92) 
O=C(C=Cc1cccc(O)c1O)N=c1cc[nH]cc1S(=O)(=O)NOCc1ccccc1

>  <score_type>  (92) 
oracle

>  <origin>  (92) 
adg

>  <m_score__min__energy>  (92) 
-17.98

>  <m_primary>  (92) 
energy

$$$$
92:0
     RDKit          3D

 63 66  0  0  0  0  0  0  0  0999 V2000
   60.2790   26.9300   46.9330 C   0  0  0  0  0  0  0  0  0  0  0  0
   58.9850   27.2800   46.2600 C   0  0  0  0  0  0  0  0  0  0  0  0
   58.0550   26.4120   45.6960 C   0  0  0  0  0  0  0  0  0  0  0  0
   58.1700   24.9450   45.6030 C   0  0  0  0  0  0  0  0  0  0  0  0
   58.1880   24.4060   44.4670 O   0  0  0  0  0  0  0  0  0  0  0  0
   58.2480   24.1040   46.7620 N   0  0  0  0  0  0  0  0  0  0  0  0
   56.9130   23.4510   47.6610 S   0  0  0  0  0  0  0  0  0  0  0  0
   55.8180   24.4790   47.6920 O   0  0  0  0  0  0  0  0  0  0  0  0
   57.3310   23.1620   49.0740 O   0  0  0  0  0  0  0  0  0  0  0  0
   56.2710   21.9680   46.8980 C   0  0  0  0  0  0  0  0  0  0  0  0
   56.2600   22.1110   45.4010 C   0  0  0  0  0  0  0  0  0  0  0  0
   57.0920   21.3060   44.6050 C   0  0  0  0  0  0  0  0  0  0  0  0
   57.1200   21.4750   43.2180 C   0  0  0  0  0  0  0  0  0  0  0  0
   56.3220   22.4510   42.6150 C   0  0  0  0  0  0  0  0  0  0  0  0
   55.4930   23.2580   43.4000 C   0  0  0  0  0  0  0  0  0  0  0  0
   55.4620   23.0910   44.7880 C   0  0  0  0  0  0  0  0  0  0  0  0
   57.0450   27.1150   45.1490 N   0  0  0  0  0  0  0  0  0  0  0  0
   57.2900   28.4200   45.3790 C   0  0  0  0  0  0  0  0  0  0  0  0
   56.4240   29.5120   44.8860 C   0  0  0  0  0  0  0  0  0  0  0  0
   55.1740   29.3590   44.8690 O   0  0  0  0  0  0  0  0  0  0  0  0
   56.9970   30.7890   44.4340 C   0  0  0  0  0  0  0  0  0  0  0  0
   57.6600   30.8340   43.3630 O   0  0  0  0  0  0  0  0  0  0  0  0
   56.7440   31.9840   45.1830 N   0  0  0  0  0  0  0  0  0  0  0  0
   57.7150   32.9790   45.5400 C   0  0  0  0  0  0  0  0  0  0  0  0
   58.2910   33.7530   44.5240 C   0  0  0  0  0  0  0  0  0  0  0  0
   59.2070   34.7610   44.8360 C   0  0  0  0  0  0  0  0  0  0  0  0
   59.5350   35.0240   46.1700 C   0  0  0  0  0  0  0  0  0  0  0  0
   58.9370   34.2900   47.2010 C   0  0  0  0  0  0  0  0  0  0  0  0
   59.2850   34.5950   48.5600 N   0  0  0  0  0  0  0  0  0  0  0  0
   60.2080   33.8730   49.3890 C   0  0  0  0  0  0  0  0  0  0  0  0
   59.8480   33.5560   50.5530 O   0  0  0  0  0  0  0  0  0  0  0  0
   61.5520   33.4680   48.9110 C   0  0  0  0  0  0  0  0  0  0  0  0
   61.7610   33.1080   47.5680 C   0  0  0  0  0  0  0  0  0  0  0  0
   63.0380   32.7580   47.1210 C   0  0  0  0  0  0  0  0  0  0  0  0
   64.1150   32.7530   48.0100 C   0  0  0  0  0  0  0  0  0  0  0  0
   63.9150   33.0880   49.3510 C   0  0  0  0  0  0  0  0  0  0  0  0
   65.3840   33.0510   50.5720 Br  0  0  0  0  0  0  0  0  0  0  0  0
   62.6380   33.4400   49.8030 C   0  0  0  0  0  0  0  0  0  0  0  0
   58.0430   33.2520   46.8800 C   0  0  0  0  0  0  0  0  0  0  0  0
   58.4860   28.5610   46.0700 C   0  0  0  0  0  0  0  0  0  0  0  0
   59.1490   29.8470   46.4660 C   0  0  0  0  0  0  0  0  0  0  0  0
   60.1461   26.9659   48.0244 H   0  0  0  0  0  0  0  0  0  0  0  0
   60.5854   25.9167   46.6341 H   0  0  0  0  0  0  0  0  0  0  0  0
   61.0544   27.6507   46.6341 H   0  0  0  0  0  0  0  0  0  0  0  0
   56.9057   21.1136   47.1758 H   0  0  0  0  0  0  0  0  0  0  0  0
   55.2413   21.8037   47.2482 H   0  0  0  0  0  0  0  0  0  0  0  0
   57.7245   20.5390   45.0758 H   0  0  0  0  0  0  0  0  0  0  0  0
   57.7710   20.8390   42.6002 H   0  0  0  0  0  0  0  0  0  0  0  0
   56.3461   22.5842   41.5234 H   0  0  0  0  0  0  0  0  0  0  0  0
   54.8642   24.0255   42.9250 H   0  0  0  0  0  0  0  0  0  0  0  0
   54.8101   23.7296   45.4022 H   0  0  0  0  0  0  0  0  0  0  0  0
   56.2740   26.7270   44.5620 H   0  0  0  0  0  0  0  0  0  0  0  0
   58.0205   33.5660   43.4743 H   0  0  0  0  0  0  0  0  0  0  0  0
   59.6712   35.3491   44.0306 H   0  0  0  0  0  0  0  0  0  0  0  0
   60.2656   35.8106   46.4098 H   0  0  0  0  0  0  0  0  0  0  0  0
   60.9147   33.1018   46.8653 H   0  0  0  0  0  0  0  0  0  0  0  0
   63.1951   32.4859   46.0668 H   0  0  0  0  0  0  0  0  0  0  0  0
   65.1208   32.4852   47.6541 H   0  0  0  0  0  0  0  0  0  0  0  0
   62.4835   33.6960   50.8616 H   0  0  0  0  0  0  0  0  0  0  0  0
   57.5967   32.6487   47.6843 H   0  0  0  0  0  0  0  0  0  0  0  0
   59.1856   29.9180   47.5631 H   0  0  0  0  0  0  0  0  0  0  0  0
   60.1721   29.8715   46.0626 H   0  0  0  0  0  0  0  0  0  0  0  0
   58.5755   30.6946   46.0626 H   0  0  0  0  0  0  0  0  0  0  0  0
  1  2  1  0
  2  3  2  0
  3  4  1  0
  4  5  2  0
  4  6  1  0
  6  7  1  0
  7  8  2  0
  7  9  2  0
  7 10  1  0
 10 11  1  0
 11 12  2  0
 12 13  1  0
 13 14  2  0
 14 15  1  0
 15 16  2  0
  3 17  1  0
 17 18  1  0
 18 19  1  0
 19 20  2  0
 19 21  1  0
 21 22  2  0
 21 23  1  0
 23 24  1  0
 24 25  2  0
 25 26  1  0
 26 27  2  0
 27 28  1  0
 28 29  1  0
 29 30  1  0
 30 31  2  0
 30 32  1  0
 32 33  2  0
 33 34  1  0
 34 35  2  0
 35 36  1  0
 36 37  1  0
 36 38  2  0
 28 39  2  0
 18 40  2  0
 40 41  1  0
 40  2  1  0
 16 11  1  0
 39 24  1  0
 38 32  1  0
  1 42  1  0
  1 43  1  0
  1 44  1  0
 10 45  1  0
 10 46  1  0
 12 47  1  0
 13 48  1  0
 14 49  1  0
 15 50  1  0
 16 51  1  0
 17 52  1  0
 25 53  1  0
 26 54  1  0
 27 55  1  0
 33 56  1  0
 34 57  1  0
 35 58  1  0
 38 59  1  0
 39 60  1  0
 41 61  1  0
 41 62  1  0
 41 63  1  0
M  CHG  3   6  -1  23  -1  29  -1
M  END
>  <UniqueID>  (93) 
88

>  <SMILES>  (93) 
Cc1c(C(=O)[N-]S(=O)(=O)Cc2ccccc2)[nH]c(C(=O)C(=O)[N-]c2cccc([N-]C(=O)c3cccc(Br)c3)c2)c1C

>  <Energy>  (93) 
102.1495221763121

>  <Genealogy>  (93) 
Cc1c(C(=O)[N-]S(=O)(=O)Cc2ccccc2)[nH]c(C(=O)C(=O)[N-]c2cccc([N-]C(=O)c3cccc(Br)c3)c2)c1C (protonated)
Cc1c(C(=O)[N-]S(=O)(=O)Cc2ccccc2)[nH]c(C(=O)C(=O)[N-]c2cccc([N-]C(=O)c3cccc(Br)c3)c2)c1C (3D coordinates assigned)
Cc1c(C(=O)[N-]S(=O)(=O)Cc2ccccc2)[nH]c(C(=O)C(=O)[N-]c2cccc([N-]C(=O)c3cccc(Br)c3)c2)c1C (optimized conformer: 102.1495221763121 kcal/mol)

>  <smiles>  (93) 
Cc1c(C(=O)NS(=O)(=O)Cc2ccccc2)[nH]c(C(=O)C(=O)Nc2cccc(NC(=O)c3cccc(Br)c3)c2)c1C

>  <score_type>  (93) 
oracle

>  <origin>  (93) 
adg

>  <m_score__min__energy>  (93) 
-15.74

>  <m_primary>  (93) 
energy

$$$$
93:0
     RDKit          3D

 66 70  0  0  0  0  0  0  0  0999 V2000
   55.1520   29.7020   44.8210 N   0  0  0  0  0  0  0  0  0  0  0  0
   56.3710   29.0350   44.4910 C   0  0  0  0  0  0  0  0  0  0  0  0
   56.7980   29.1040   43.3080 O   0  0  0  0  0  0  0  0  0  0  0  0
   57.1250   28.2860   45.5320 C   0  0  0  0  0  0  0  0  0  0  0  0
   58.3450   28.8030   46.0050 C   0  0  0  0  0  0  0  0  0  0  0  0
   59.0820   28.1440   47.0020 C   0  0  0  0  0  0  0  0  0  0  0  0
   60.3880   28.7090   47.5570 C   0  0  0  0  0  0  0  0  0  0  0  0
   60.8210   28.0300   48.8720 C   0  0  0  0  0  0  0  0  0  0  0  0
   60.2520   28.7130   50.1250 C   0  0  0  0  0  0  0  0  0  0  0  0
   60.5390   30.1610   50.1530 N   0  0  0  0  0  0  0  0  0  0  0  0
   61.9760   30.4540   50.3710 C   0  0  0  0  0  0  0  0  0  0  0  0
   62.2610   31.9610   50.3030 C   0  0  0  0  0  0  0  0  0  0  0  0
   62.6520   32.4130   48.9260 C   0  0  0  0  0  0  0  0  0  0  0  0
   63.4290   31.7100   48.2230 O   0  0  0  0  0  0  0  0  0  0  0  0
   62.0800   33.6110   48.3940 N   0  0  0  0  0  0  0  0  0  0  0  0
   61.8960   33.8380   46.9690 C   0  0  0  0  0  0  0  0  0  0  0  0
   60.4280   33.8440   46.6550 C   0  0  0  0  0  0  0  0  0  0  0  0
   59.9960   34.0700   45.3370 C   0  0  0  0  0  0  0  0  0  0  0  0
   58.6330   34.0180   45.0220 C   0  0  0  0  0  0  0  0  0  0  0  0
   57.6950   33.7280   46.0160 C   0  0  0  0  0  0  0  0  0  0  0  0
   56.3740   33.6750   45.7090 F   0  0  0  0  0  0  0  0  0  0  0  0
   58.1180   33.5030   47.3330 C   0  0  0  0  0  0  0  0  0  0  0  0
   59.4800   33.5510   47.6520 C   0  0  0  0  0  0  0  0  0  0  0  0
   59.9640   30.8480   48.9770 C   0  0  0  0  0  0  0  0  0  0  0  0
   60.4180   30.2540   47.6290 C   0  0  0  0  0  0  0  0  0  0  0  0
   58.5870   26.9340   47.5130 C   0  0  0  0  0  0  0  0  0  0  0  0
   57.3960   26.3810   47.0360 C   0  0  0  0  0  0  0  0  0  0  0  0
   56.9630   25.1280   47.5840 N   0  0  0  0  0  0  0  0  0  0  0  0
   56.8610   24.0290   46.8970 C   0  0  0  0  0  0  0  0  0  0  0  0
   56.5310   24.0030   45.5760 N   0  0  0  0  0  0  0  0  0  0  0  0
   56.5630   22.6910   45.3020 C   0  0  0  0  0  0  0  0  0  0  0  0
   56.3210   22.0690   44.0790 C   0  0  0  0  0  0  0  0  0  0  0  0
   56.4370   20.6660   44.0250 C   0  0  0  0  0  0  0  0  0  0  0  0
   56.7890   19.9320   45.1810 C   0  0  0  0  0  0  0  0  0  0  0  0
   57.0290   20.5960   46.3990 C   0  0  0  0  0  0  0  0  0  0  0  0
   56.9030   21.9830   46.4160 C   0  0  0  0  0  0  0  0  0  0  0  0
   57.1020   22.8120   47.4530 N   0  0  0  0  0  0  0  0  0  0  0  0
   56.6340   27.0750   46.0710 C   0  0  0  0  0  0  0  0  0  0  0  0
   55.3850   26.5960   45.6670 O   0  0  0  0  0  0  0  0  0  0  0  0
   54.5420   29.3540   45.5940 H   0  0  0  0  0  0  0  0  0  0  0  0
   58.7298   29.7439   45.5846 H   0  0  0  0  0  0  0  0  0  0  0  0
   61.1566   28.4479   46.8146 H   0  0  0  0  0  0  0  0  0  0  0  0
   60.4752   26.9859   48.8561 H   0  0  0  0  0  0  0  0  0  0  0  0
   61.9170   28.1030   48.9307 H   0  0  0  0  0  0  0  0  0  0  0  0
   59.1617   28.5681   50.1426 H   0  0  0  0  0  0  0  0  0  0  0  0
   60.7320   28.2577   51.0038 H   0  0  0  0  0  0  0  0  0  0  0  0
   62.2706   30.0792   51.3623 H   0  0  0  0  0  0  0  0  0  0  0  0
   62.5531   29.9580   49.5767 H   0  0  0  0  0  0  0  0  0  0  0  0
   61.3550   32.5050   50.6084 H   0  0  0  0  0  0  0  0  0  0  0  0
   63.1062   32.1709   50.9751 H   0  0  0  0  0  0  0  0  0  0  0  0
   62.3355   34.8074   46.6912 H   0  0  0  0  0  0  0  0  0  0  0  0
   62.3920   33.0375   46.4005 H   0  0  0  0  0  0  0  0  0  0  0  0
   60.7321   34.2887   44.5494 H   0  0  0  0  0  0  0  0  0  0  0  0
   58.3001   34.2057   43.9905 H   0  0  0  0  0  0  0  0  0  0  0  0
   57.3779   33.2882   48.1179 H   0  0  0  0  0  0  0  0  0  0  0  0
   59.8095   33.3593   48.6838 H   0  0  0  0  0  0  0  0  0  0  0  0
   58.8678   30.7782   49.0357 H   0  0  0  0  0  0  0  0  0  0  0  0
   60.3205   31.8882   49.0063 H   0  0  0  0  0  0  0  0  0  0  0  0
   59.7565   30.6460   46.8424 H   0  0  0  0  0  0  0  0  0  0  0  0
   61.4697   30.5493   47.4994 H   0  0  0  0  0  0  0  0  0  0  0  0
   59.1467   26.4119   48.3030 H   0  0  0  0  0  0  0  0  0  0  0  0
   56.0490   22.6527   43.1872 H   0  0  0  0  0  0  0  0  0  0  0  0
   56.2526   20.1383   43.0776 H   0  0  0  0  0  0  0  0  0  0  0  0
   56.8758   18.8367   45.1285 H   0  0  0  0  0  0  0  0  0  0  0  0
   57.3064   20.0387   47.3059 H   0  0  0  0  0  0  0  0  0  0  0  0
   55.2570   25.7190   45.1790 H   0  0  0  0  0  0  0  0  0  0  0  0
  1  2  1  0
  2  3  2  0
  2  4  1  0
  4  5  2  0
  5  6  1  0
  6  7  1  0
  7  8  1  0
  8  9  1  0
  9 10  1  0
 10 11  1  0
 11 12  1  0
 12 13  1  0
 13 14  2  0
 13 15  1  0
 15 16  1  0
 16 17  1  0
 17 18  2  0
 18 19  1  0
 19 20  2  0
 20 21  1  0
 20 22  1  0
 22 23  2  0
 10 24  1  0
 24 25  1  0
  6 26  2  0
 26 27  1  0
 27 28  1  0
 28 29  2  3
 29 30  1  0
 30 31  1  0
 31 32  2  0
 32 33  1  0
 33 34  2  0
 34 35  1  0
 35 36  2  0
 36 37  1  0
 27 38  2  0
 38 39  1  0
 38  4  1  0
 25  7  1  0
 37 29  1  0
 23 17  1  0
 36 31  1  0
  1 40  1  0
  5 41  1  0
  7 42  1  0
  8 43  1  0
  8 44  1  0
  9 45  1  0
  9 46  1  0
 11 47  1  0
 11 48  1  0
 12 49  1  0
 12 50  1  0
 16 51  1  0
 16 52  1  0
 18 53  1  0
 19 54  1  0
 22 55  1  0
 23 56  1  0
 24 57  1  0
 24 58  1  0
 25 59  1  0
 25 60  1  0
 26 61  1  0
 32 62  1  0
 33 63  1  0
 34 64  1  0
 35 65  1  0
 39 66  1  0
M  CHG  4   1  -1  15  -1  30  -1  37  -1
M  END
>  <UniqueID>  (94) 
89

>  <SMILES>  (94) 
[NH-]C(=O)c1cc(C2CCN(CCC(=O)[N-]Cc3ccc(F)cc3)CC2)cc(N=c2[n-]c3ccccc3[n-]2)c1O

>  <Energy>  (94) 
120.91787485089868

>  <Genealogy>  (94) 
[NH-]C(=O)c1cc(C2CCN(CCC(=O)[N-]Cc3ccc(F)cc3)CC2)cc(N=c2[n-]c3ccccc3[n-]2)c1O (protonated)
[NH-]C(=O)c1cc(C2CCN(CCC(=O)[N-]Cc3ccc(F)cc3)CC2)cc(N=c2[n-]c3ccccc3[n-]2)c1O (3D coordinates assigned)
[NH-]C(=O)c1cc(C2CCN(CCC(=O)[N-]Cc3ccc(F)cc3)CC2)cc(N=c2[n-]c3ccccc3[n-]2)c1O (nonaromatic ring conformer: 120.91787485089868 kcal/mol)

>  <smiles>  (94) 
NC(=O)c1cc(C2CCN(CCC(=O)NCc3ccc(F)cc3)CC2)cc(N=c2[nH]c3ccccc3[nH]2)c1O

>  <score_type>  (94) 
oracle

>  <origin>  (94) 
adg

>  <m_score__min__energy>  (94) 
-16.199999999999999

>  <m_primary>  (94) 
energy

$$$$
94:0
     RDKit          3D

 40 42  0  0  0  0  0  0  0  0999 V2000
   59.9990   34.5730   48.5020 C   0  0  0  0  0  0  0  0  0  0  0  0
   59.5010   34.8140   47.1900 O   0  0  0  0  0  0  0  0  0  0  0  0
   58.8810   33.8430   46.3880 C   0  0  0  0  0  0  0  0  0  0  0  0
   58.4000   34.1270   45.0950 C   0  0  0  0  0  0  0  0  0  0  0  0
   57.7870   33.1250   44.3360 C   0  0  0  0  0  0  0  0  0  0  0  0
   57.6440   31.8320   44.8580 C   0  0  0  0  0  0  0  0  0  0  0  0
   56.8560   30.5700   43.9170 S   0  0  0  0  0  0  0  0  0  0  0  0
   56.5230   31.1170   42.5580 O   0  0  0  0  0  0  0  0  0  0  0  0
   55.5870   30.1190   44.5860 O   0  0  0  0  0  0  0  0  0  0  0  0
   57.9200   29.2100   43.7430 N   0  0  0  0  0  0  0  0  0  0  0  0
   58.4250   28.4470   44.8530 C   0  0  0  0  0  0  0  0  0  0  0  0
   59.7560   28.5700   45.2930 C   0  0  0  0  0  0  0  0  0  0  0  0
   60.2200   27.7990   46.3620 C   0  0  0  0  0  0  0  0  0  0  0  0
   59.3640   26.9050   47.0070 C   0  0  0  0  0  0  0  0  0  0  0  0
   58.0280   26.7830   46.5960 C   0  0  0  0  0  0  0  0  0  0  0  0
   57.1200   25.7870   47.2600 C   0  0  0  0  0  0  0  0  0  0  0  0
   56.4210   24.9600   46.2260 C   0  0  0  0  0  0  0  0  0  0  0  0
   57.0600   23.5850   45.4900 S   0  0  0  0  0  0  0  0  0  0  0  0
   55.7310   23.4110   44.4760 C   0  0  0  0  0  0  0  0  0  0  0  0
   55.6010   22.4890   43.6290 O   0  0  0  0  0  0  0  0  0  0  0  0
   54.8040   24.3760   44.6600 N   0  0  0  0  0  0  0  0  0  0  0  0
   55.1940   25.2430   45.6310 C   0  0  0  0  0  0  0  0  0  0  0  0
   54.4100   26.3330   45.9900 O   0  0  0  0  0  0  0  0  0  0  0  0
   57.5680   27.5550   45.5150 C   0  0  0  0  0  0  0  0  0  0  0  0
   58.1270   31.5480   46.1410 C   0  0  0  0  0  0  0  0  0  0  0  0
   58.7390   32.5490   46.9010 C   0  0  0  0  0  0  0  0  0  0  0  0
   59.2671   34.9272   49.2428 H   0  0  0  0  0  0  0  0  0  0  0  0
   60.1661   33.4944   48.6384 H   0  0  0  0  0  0  0  0  0  0  0  0
   60.9486   35.1113   48.6384 H   0  0  0  0  0  0  0  0  0  0  0  0
   58.5069   35.1404   44.6808 H   0  0  0  0  0  0  0  0  0  0  0  0
   57.4158   33.3524   43.3258 H   0  0  0  0  0  0  0  0  0  0  0  0
   58.2940   29.0220   42.7870 H   0  0  0  0  0  0  0  0  0  0  0  0
   60.4346   29.2767   44.7929 H   0  0  0  0  0  0  0  0  0  0  0  0
   61.2634   27.8970   46.6963 H   0  0  0  0  0  0  0  0  0  0  0  0
   59.7384   26.2934   47.8412 H   0  0  0  0  0  0  0  0  0  0  0  0
   57.7150   25.1294   47.9108 H   0  0  0  0  0  0  0  0  0  0  0  0
   56.3701   26.3256   47.8579 H   0  0  0  0  0  0  0  0  0  0  0  0
   56.5234   27.4585   45.1841 H   0  0  0  0  0  0  0  0  0  0  0  0
   58.0245   30.5331   46.5527 H   0  0  0  0  0  0  0  0  0  0  0  0
   59.1117   32.3177   47.9098 H   0  0  0  0  0  0  0  0  0  0  0  0
  1  2  1  0
  2  3  1  0
  3  4  2  0
  4  5  1  0
  5  6  2  0
  6  7  1  0
  7  8  2  0
  7  9  2  0
  7 10  1  0
 10 11  1  0
 11 12  2  0
 12 13  1  0
 13 14  2  0
 14 15  1  0
 15 16  1  0
 16 17  1  0
 17 18  1  0
 18 19  1  0
 19 20  2  0
 19 21  1  0
 21 22  1  0
 22 23  1  0
 15 24  2  0
  6 25  1  0
 25 26  2  0
 26  3  1  0
 24 11  1  0
 22 17  2  0
  1 27  1  0
  1 28  1  0
  1 29  1  0
  4 30  1  0
  5 31  1  0
 10 32  1  0
 12 33  1  0
 13 34  1  0
 14 35  1  0
 16 36  1  0
 16 37  1  0
 24 38  1  0
 25 39  1  0
 26 40  1  0
M  CHG  2  21  -1  23  -1
M  END
>  <UniqueID>  (95) 
90

>  <SMILES>  (95) 
COc1ccc(S(=O)(=O)Nc2cccc(Cc3sc(=O)[n-]c3[O-])c2)cc1

>  <Energy>  (95) 
73.31790539314295

>  <Genealogy>  (95) 
COc1ccc(S(=O)(=O)Nc2cccc(Cc3sc(=O)[n-]c3[O-])c2)cc1 (protonated)
COc1ccc(S(=O)(=O)Nc2cccc(Cc3sc(=O)[n-]c3[O-])c2)cc1 (3D coordinates assigned)
COc1ccc(S(=O)(=O)Nc2cccc(Cc3sc(=O)[n-]c3[O-])c2)cc1 (optimized conformer: 73.31790539314295 kcal/mol)

>  <smiles>  (95) 
COc1ccc(S(=O)(=O)Nc2cccc(Cc3sc(=O)[nH]c3O)c2)cc1

>  <score_type>  (95) 
oracle

>  <origin>  (95) 
adg

>  <m_score__min__energy>  (95) 
-14.800000000000001

>  <m_primary>  (95) 
energy

$$$$
