0:0
     RDKit          3D

 34 34  0  0  0  0  0  0  0  0999 V2000
   56.3060   26.6420   44.8760 H   0  0  0  0  0  0  0  0  0  0  0  0
   56.8670   27.2700   45.4380 O   0  0  0  0  0  0  0  0  0  0  0  0
   57.1390   28.5780   45.0370 C   0  0  0  0  0  0  0  0  0  0  0  0
   58.4560   29.0480   45.0930 C   0  0  0  0  0  0  0  0  0  0  0  0
   59.2589   28.3856   45.4488 H   0  0  0  0  0  0  0  0  0  0  0  0
   58.7560   30.3550   44.6990 C   0  0  0  0  0  0  0  0  0  0  0  0
   59.7965   30.7105   44.7288 H   0  0  0  0  0  0  0  0  0  0  0  0
   57.7370   31.2150   44.2660 C   0  0  0  0  0  0  0  0  0  0  0  0
   58.0860   32.5770   43.8070 C   0  0  0  0  0  0  0  0  0  0  0  0
   58.6616   32.6633   42.8736 H   0  0  0  0  0  0  0  0  0  0  0  0
   57.7580   33.7160   44.4360 C   0  0  0  0  0  0  0  0  0  0  0  0
   56.9024   34.2806   44.0369 H   0  0  0  0  0  0  0  0  0  0  0  0
   58.4430   34.2780   45.6150 C   0  0  0  0  0  0  0  0  0  0  0  0
   59.4720   34.9990   45.4880 O   0  0  0  0  0  0  0  0  0  0  0  0
   57.8970   34.0500   46.8800 O   0  0  0  0  0  0  0  0  0  0  0  0
   57.7670   32.7470   47.4380 C   0  0  0  0  0  0  0  0  0  0  0  0
   57.2064   32.1038   46.7437 H   0  0  0  0  0  0  0  0  0  0  0  0
   57.2271   32.8071   48.3945 H   0  0  0  0  0  0  0  0  0  0  0  0
   59.1270   32.1710   47.6650 C   0  0  0  0  0  0  0  0  0  0  0  0
   59.2410   30.9440   47.9370 O   0  0  0  0  0  0  0  0  0  0  0  0
   60.2880   33.0060   47.5330 N   0  0  0  0  0  0  0  0  0  0  0  0
   60.1430   34.0080   47.2750 H   0  0  0  0  0  0  0  0  0  0  0  0
   61.6350   32.5510   47.7330 C   0  0  0  0  0  0  0  0  0  0  0  0
   61.8660   31.3540   48.0570 O   0  0  0  0  0  0  0  0  0  0  0  0
   62.7240   33.4660   47.5630 N   0  0  0  0  0  0  0  0  0  0  0  0
   62.5240   34.4560   47.2940 H   0  0  0  0  0  0  0  0  0  0  0  0
   64.1100   33.0570   47.7540 C   0  0  0  0  0  0  0  0  0  0  0  0
   64.3283   32.9926   48.8302 H   0  0  0  0  0  0  0  0  0  0  0  0
   64.2696   32.0735   47.2880 H   0  0  0  0  0  0  0  0  0  0  0  0
   64.7780   33.7963   47.2880 H   0  0  0  0  0  0  0  0  0  0  0  0
   56.4200   30.7330   44.1800 C   0  0  0  0  0  0  0  0  0  0  0  0
   55.6213   31.3880   43.8018 H   0  0  0  0  0  0  0  0  0  0  0  0
   56.1190   29.4240   44.5730 C   0  0  0  0  0  0  0  0  0  0  0  0
   54.8070   28.9710   44.4960 O   0  0  0  0  0  0  0  0  0  0  0  0
  1  2  1  0
  2  3  1  0
  3  4  2  0
  4  5  1  0
  4  6  1  0
  6  7  1  0
  6  8  2  0
  8  9  1  0
  9 10  1  0
  9 11  2  0
 11 12  1  0
 11 13  1  0
 13 14  2  0
 13 15  1  0
 15 16  1  0
 16 17  1  0
 16 18  1  0
 16 19  1  0
 19 20  2  0
 19 21  1  0
 21 22  1  0
 21 23  1  0
 23 24  2  0
 23 25  1  0
 25 26  1  0
 25 27  1  0
 27 28  1  0
 27 29  1  0
 27 30  1  0
  8 31  1  0
 31 32  1  0
 31 33  2  0
 33 34  1  0
 33  3  1  0
M  CHG  1  34  -1
M  END
>  <UniqueID>  (1) 
1

>  <SMILES>  (1) 
CNC(=O)NC(=O)COC(=O)/C=C\c1ccc(O)c([O-])c1

>  <Energy>  (1) 
32.88239336035409

>  <Genealogy>  (1) 
CNC(=O)NC(=O)COC(=O)C=Cc1ccc(O)c([O-])c1 (protonated)
CNC(=O)NC(=O)COC(=O)/C=C\c1ccc(O)c([O-])c1 (cis-trans isomerization)
CNC(=O)NC(=O)COC(=O)/C=C\c1ccc(O)c([O-])c1 (3D coordinates assigned)
CNC(=O)NC(=O)COC(=O)/C=C\c1ccc(O)c([O-])c1 (optimized conformer: 32.88239336035409 kcal/mol)

>  <smiles>  (1) 
CNC(=O)NC(=O)COC(=O)C=Cc1ccc(O)c(O)c1

>  <score_type>  (1) 
oracle

>  <origin>  (1) 
adg

>  <m_score__min__energy>  (1) 
-10.35

>  <m_primary>  (1) 
energy

$$$$
1:0
     RDKit          3D

 46 48  0  0  0  0  0  0  0  0999 V2000
   58.7346   28.3412   49.6069 H   0  0  0  0  0  0  0  0  0  0  0  0
   58.5490   28.2560   48.5260 C   0  0  0  0  0  0  0  0  0  0  0  0
   57.6952   27.6674   48.1593 H   0  0  0  0  0  0  0  0  0  0  0  0
   59.3640   28.8700   47.6550 C   0  0  0  0  0  0  0  0  0  0  0  0
   59.2610   28.8570   46.2530 C   0  0  0  0  0  0  0  0  0  0  0  0
   58.5070   28.1040   45.4290 C   0  0  0  0  0  0  0  0  0  0  0  0
   58.7636   28.1173   44.3594 H   0  0  0  0  0  0  0  0  0  0  0  0
   57.3690   27.2650   45.8380 C   0  0  0  0  0  0  0  0  0  0  0  0
   57.4760   26.0160   46.3280 N   0  0  0  0  0  0  0  0  0  0  0  0
   56.1910   25.6090   46.4260 C   0  0  0  0  0  0  0  0  0  0  0  0
   55.8710   24.4740   46.8660 O   0  0  0  0  0  0  0  0  0  0  0  0
   55.2780   26.5090   46.0030 N   0  0  0  0  0  0  0  0  0  0  0  0
   56.0420   27.5450   45.6210 C   0  0  0  0  0  0  0  0  0  0  0  0
   55.5370   28.7200   45.0800 O   0  0  0  0  0  0  0  0  0  0  0  0
   60.1550   29.8060   45.7910 C   0  0  0  0  0  0  0  0  0  0  0  0
   60.3099   30.1043   44.7436 H   0  0  0  0  0  0  0  0  0  0  0  0
   60.8150   30.3070   46.8930 C   0  0  0  0  0  0  0  0  0  0  0  0
   61.8870   31.3550   46.8320 C   0  0  0  0  0  0  0  0  0  0  0  0
   62.1791   31.6406   47.8533 H   0  0  0  0  0  0  0  0  0  0  0  0
   62.7618   30.9541   46.2990 H   0  0  0  0  0  0  0  0  0  0  0  0
   61.5060   32.2386   46.2990 H   0  0  0  0  0  0  0  0  0  0  0  0
   60.3420   29.7410   48.0280 N   0  0  0  0  0  0  0  0  0  0  0  0
   60.8100   30.0250   49.3960 C   0  0  0  0  0  0  0  0  0  0  0  0
   61.1890   29.0955   49.8459 H   0  0  0  0  0  0  0  0  0  0  0  0
   61.6062   30.7821   49.3420 H   0  0  0  0  0  0  0  0  0  0  0  0
   59.6750   30.5750   50.2660 C   0  0  0  0  0  0  0  0  0  0  0  0
   58.8601   29.8370   50.3005 H   0  0  0  0  0  0  0  0  0  0  0  0
   60.0712   30.7646   51.2745 H   0  0  0  0  0  0  0  0  0  0  0  0
   59.1430   31.8650   49.7160 C   0  0  0  0  0  0  0  0  0  0  0  0
   57.9100   32.1140   49.8020 O   0  0  0  0  0  0  0  0  0  0  0  0
   60.0400   32.8240   49.1420 N   0  0  0  0  0  0  0  0  0  0  0  0
   61.0630   32.6130   49.1220 H   0  0  0  0  0  0  0  0  0  0  0  0
   59.5830   34.1050   48.6090 C   0  0  0  0  0  0  0  0  0  0  0  0
   58.7914   34.5066   49.2587 H   0  0  0  0  0  0  0  0  0  0  0  0
   60.4332   34.8022   48.5755 H   0  0  0  0  0  0  0  0  0  0  0  0
   59.0400   33.9280   47.2160 C   0  0  0  0  0  0  0  0  0  0  0  0
   59.5940   34.6360   46.1360 C   0  0  0  0  0  0  0  0  0  0  0  0
   60.4407   35.3179   46.3037 H   0  0  0  0  0  0  0  0  0  0  0  0
   59.0720   34.4760   44.8490 C   0  0  0  0  0  0  0  0  0  0  0  0
   59.5100   35.0307   44.0061 H   0  0  0  0  0  0  0  0  0  0  0  0
   57.9940   33.6120   44.6310 C   0  0  0  0  0  0  0  0  0  0  0  0
   57.4880   33.4610   43.3820 F   0  0  0  0  0  0  0  0  0  0  0  0
   57.4370   32.9070   45.7010 C   0  0  0  0  0  0  0  0  0  0  0  0
   56.5884   32.2284   45.5294 H   0  0  0  0  0  0  0  0  0  0  0  0
   57.9570   33.0630   46.9900 C   0  0  0  0  0  0  0  0  0  0  0  0
   57.5160   32.5061   47.8299 H   0  0  0  0  0  0  0  0  0  0  0  0
  1  2  1  0
  2  3  1  0
  2  4  2  0
  4  5  1  0
  5  6  2  0
  6  7  1  0
  6  8  1  0
  8  9  1  0
  9 10  1  0
 10 11  2  0
 10 12  1  0
 12 13  1  0
 13 14  1  0
  5 15  1  0
 15 16  1  0
 15 17  2  0
 17 18  1  0
 18 19  1  0
 18 20  1  0
 18 21  1  0
 17 22  1  0
 22 23  1  0
 23 24  1  0
 23 25  1  0
 23 26  1  0
 26 27  1  0
 26 28  1  0
 26 29  1  0
 29 30  2  0
 29 31  1  0
 31 32  1  0
 31 33  1  0
 33 34  1  0
 33 35  1  0
 33 36  1  0
 36 37  2  0
 37 38  1  0
 37 39  1  0
 39 40  1  0
 39 41  2  0
 41 42  1  0
 41 43  1  0
 43 44  1  0
 43 45  2  0
 45 46  1  0
 22  4  1  0
 45 36  1  0
 13  8  2  0
M  CHG  3   9  -1  12  -1  14  -1
M  END
>  <UniqueID>  (2) 
2

>  <SMILES>  (2) 
C=c1/c(=C\c2[n-]c(=O)[n-]c2[O-])cc(C)n1CCC(=O)NCc1ccc(F)cc1

>  <Energy>  (2) 
109.48870409403511

>  <Genealogy>  (2) 
C=c1c(=Cc2[n-]c(=O)[n-]c2[O-])cc(C)n1CCC(=O)NCc1ccc(F)cc1 (protonated)
C=c1/c(=C\c2[n-]c(=O)[n-]c2[O-])cc(C)n1CCC(=O)NCc1ccc(F)cc1 (cis-trans isomerization)
C=c1/c(=C\c2[n-]c(=O)[n-]c2[O-])cc(C)n1CCC(=O)NCc1ccc(F)cc1 (3D coordinates assigned)
C=c1/c(=C\c2[n-]c(=O)[n-]c2[O-])cc(C)n1CCC(=O)NCc1ccc(F)cc1 (optimized conformer: 109.48870409403511 kcal/mol)

>  <smiles>  (2) 
C=c1c(=Cc2[nH]c(=O)[nH]c2O)cc(C)n1CCC(=O)NCc1ccc(F)cc1

>  <score_type>  (2) 
oracle

>  <origin>  (2) 
adg

>  <m_score__min__energy>  (2) 
-16.32

>  <m_primary>  (2) 
energy

$$$$
2:0
     RDKit          3D

 40 43  0  0  0  0  0  0  0  0999 V2000
   56.9106   31.6787   52.0595 H   0  0  0  0  0  0  0  0  0  0  0  0
   55.8250   31.6530   52.2350 C   0  0  0  0  0  0  0  0  0  0  0  0
   55.2267   32.5683   52.1156 H   0  0  0  0  0  0  0  0  0  0  0  0
   55.2300   30.5040   52.5950 C   0  0  0  0  0  0  0  0  0  0  0  0
   53.8640   30.3030   52.8550 C   0  0  0  0  0  0  0  0  0  0  0  0
   52.7960   31.0920   52.6290 C   0  0  0  0  0  0  0  0  0  0  0  0
   52.4599   31.7316   53.4584 H   0  0  0  0  0  0  0  0  0  0  0  0
   52.0400   31.1730   51.3700 C   0  0  0  0  0  0  0  0  0  0  0  0
   52.1330   30.2580   50.3880 N   0  0  0  0  0  0  0  0  0  0  0  0
   51.3850   30.7890   49.3970 C   0  0  0  0  0  0  0  0  0  0  0  0
   51.2110   30.2080   48.2940 O   0  0  0  0  0  0  0  0  0  0  0  0
   50.8480   31.9960   49.6740 N   0  0  0  0  0  0  0  0  0  0  0  0
   51.2850   32.2320   50.9210 C   0  0  0  0  0  0  0  0  0  0  0  0
   51.0210   33.4020   51.6220 O   0  0  0  0  0  0  0  0  0  0  0  0
   53.7600   29.0460   53.4280 C   0  0  0  0  0  0  0  0  0  0  0  0
   52.8424   28.5730   53.8079 H   0  0  0  0  0  0  0  0  0  0  0  0
   55.0270   28.5010   53.4310 C   0  0  0  0  0  0  0  0  0  0  0  0
   55.3610   27.1340   53.9480 C   0  0  0  0  0  0  0  0  0  0  0  0
   55.3578   27.1471   55.0479 H   0  0  0  0  0  0  0  0  0  0  0  0
   54.6127   26.4128   53.5877 H   0  0  0  0  0  0  0  0  0  0  0  0
   56.3576   26.8391   53.5877 H   0  0  0  0  0  0  0  0  0  0  0  0
   55.9200   29.3810   52.9270 N   0  0  0  0  0  0  0  0  0  0  0  0
   57.3360   29.1590   52.8010 C   0  0  0  0  0  0  0  0  0  0  0  0
   58.0100   29.5690   51.6430 C   0  0  0  0  0  0  0  0  0  0  0  0
   57.4577   30.0666   50.8322 H   0  0  0  0  0  0  0  0  0  0  0  0
   59.3950   29.3440   51.5170 C   0  0  0  0  0  0  0  0  0  0  0  0
   60.2130   29.7590   50.3060 C   0  0  0  0  0  0  0  0  0  0  0  0
   60.8932   30.3862   50.9009 H   0  0  0  0  0  0  0  0  0  0  0  0
   59.4690   29.9250   48.9890 C   0  0  0  0  0  0  0  0  0  0  0  0
   58.3794   29.7788   48.9507 H   0  0  0  0  0  0  0  0  0  0  0  0
   59.3884   30.7234   48.2366 H   0  0  0  0  0  0  0  0  0  0  0  0
   60.3910   28.7300   49.1970 C   0  0  0  0  0  0  0  0  0  0  0  0
   59.9673   27.7211   49.3093 H   0  0  0  0  0  0  0  0  0  0  0  0
   61.2519   28.3081   48.6577 H   0  0  0  0  0  0  0  0  0  0  0  0
   60.0630   28.7000   52.5680 C   0  0  0  0  0  0  0  0  0  0  0  0
   61.1438   28.5082   52.4965 H   0  0  0  0  0  0  0  0  0  0  0  0
   59.3580   28.3020   53.7050 C   0  0  0  0  0  0  0  0  0  0  0  0
   59.8854   27.7968   54.5276 H   0  0  0  0  0  0  0  0  0  0  0  0
   58.0230   28.5360   53.8000 N   0  0  0  0  0  0  0  0  0  0  0  0
   57.5220   28.2410   54.6680 H   0  0  0  0  0  0  0  0  0  0  0  0
  1  2  1  0
  2  3  1  0
  2  4  2  0
  4  5  1  0
  5  6  2  0
  6  7  1  0
  6  8  1  0
  8  9  1  0
  9 10  1  0
 10 11  2  0
 10 12  1  0
 12 13  1  0
 13 14  1  0
  5 15  1  0
 15 16  1  0
 15 17  2  0
 17 18  1  0
 18 19  1  0
 18 20  1  0
 18 21  1  0
 17 22  1  0
 22 23  1  0
 23 24  2  0
 24 25  1  0
 24 26  1  0
 26 27  1  0
 27 28  1  0
 27 29  1  0
 29 30  1  0
 29 31  1  0
 29 32  1  0
 32 33  1  0
 32 34  1  0
 26 35  2  0
 35 36  1  0
 35 37  1  0
 37 38  1  0
 37 39  2  0
 39 40  1  0
 22  4  1  0
 39 23  1  0
 13  8  2  0
 32 27  1  0
M  CHG  4   9  -1  12  -1  14  -1  39   1
M  END
>  <UniqueID>  (3) 
3

>  <SMILES>  (3) 
C=c1/c(=C\c2[n-]c(=O)[n-]c2[O-])cc(C)n1-c1cc(C2CC2)cc[nH+]1

>  <Energy>  (3) 
385.7945519098059

>  <Genealogy>  (3) 
C=c1c(=Cc2[n-]c(=O)[n-]c2[O-])cc(C)n1-c1cc(C2CC2)cc[nH+]1 (protonated)
C=c1/c(=C\c2[n-]c(=O)[n-]c2[O-])cc(C)n1-c1cc(C2CC2)cc[nH+]1 (cis-trans isomerization)
C=c1/c(=C\c2[n-]c(=O)[n-]c2[O-])cc(C)n1-c1cc(C2CC2)cc[nH+]1 (3D coordinates assigned)
C=c1/c(=C\c2[n-]c(=O)[n-]c2[O-])cc(C)n1-c1cc(C2CC2)cc[nH+]1 (nonaromatic ring conformer: 385.7945519098059 kcal/mol)

>  <smiles>  (3) 
C=c1c(=Cc2[nH]c(=O)[nH]c2O)cc(C)n1-c1cc(C2CC2)ccn1

>  <score_type>  (3) 
oracle

>  <origin>  (3) 
adg

>  <m_score__min__energy>  (3) 
-14.44

>  <m_primary>  (3) 
energy

$$$$
3:0
     RDKit          3D

 39 41  0  0  0  0  0  0  0  0999 V2000
   56.3684   24.9157   47.2920 H   0  0  0  0  0  0  0  0  0  0  0  0
   56.8090   25.8020   46.8120 C   0  0  0  0  0  0  0  0  0  0  0  0
   58.1630   26.0970   46.9990 C   0  0  0  0  0  0  0  0  0  0  0  0
   58.7848   25.4438   47.6288 H   0  0  0  0  0  0  0  0  0  0  0  0
   58.7300   27.2230   46.3860 C   0  0  0  0  0  0  0  0  0  0  0  0
   60.4290   27.5980   46.6560 S   0  0  0  0  0  0  0  0  0  0  0  0
   61.2470   26.3580   46.4310 O   0  0  0  0  0  0  0  0  0  0  0  0
   60.8990   28.6620   45.7040 O   0  0  0  0  0  0  0  0  0  0  0  0
   60.6530   28.1440   48.2870 N   0  0  0  0  0  0  0  0  0  0  0  0
   59.9440   29.0880   48.8220 C   0  0  0  0  0  0  0  0  0  0  0  0
   59.3390   28.9730   50.0260 N   0  0  0  0  0  0  0  0  0  0  0  0
   58.7360   30.1630   50.1860 C   0  0  0  0  0  0  0  0  0  0  0  0
   57.9370   30.5340   51.3920 C   0  0  0  0  0  0  0  0  0  0  0  0
   58.5004   30.2724   52.2998 H   0  0  0  0  0  0  0  0  0  0  0  0
   57.7393   31.6160   51.3822 H   0  0  0  0  0  0  0  0  0  0  0  0
   56.9828   29.9868   51.3822 H   0  0  0  0  0  0  0  0  0  0  0  0
   59.0030   30.9630   49.0930 C   0  0  0  0  0  0  0  0  0  0  0  0
   58.5060   32.3570   48.8540 C   0  0  0  0  0  0  0  0  0  0  0  0
   57.4183   32.3300   48.6919 H   0  0  0  0  0  0  0  0  0  0  0  0
   58.7452   32.9738   49.7329 H   0  0  0  0  0  0  0  0  0  0  0  0
   59.1370   32.9270   47.7070 O   0  0  0  0  0  0  0  0  0  0  0  0
   58.7220   32.7380   46.3780 C   0  0  0  0  0  0  0  0  0  0  0  0
   58.8130   31.4520   45.8310 C   0  0  0  0  0  0  0  0  0  0  0  0
   59.1967   30.6237   46.4448 H   0  0  0  0  0  0  0  0  0  0  0  0
   58.4200   31.2130   44.5110 C   0  0  0  0  0  0  0  0  0  0  0  0
   58.4957   30.1994   44.0903 H   0  0  0  0  0  0  0  0  0  0  0  0
   57.9310   32.2600   43.7250 C   0  0  0  0  0  0  0  0  0  0  0  0
   57.4410   31.9590   42.0680 Cl  0  0  0  0  0  0  0  0  0  0  0  0
   57.8330   33.5470   44.2610 C   0  0  0  0  0  0  0  0  0  0  0  0
   57.4474   34.3712   43.6429 H   0  0  0  0  0  0  0  0  0  0  0  0
   58.2240   33.7890   45.5810 C   0  0  0  0  0  0  0  0  0  0  0  0
   58.1429   34.8031   45.9995 H   0  0  0  0  0  0  0  0  0  0  0  0
   59.7590   30.2780   48.2150 N   0  0  0  0  0  0  0  0  0  0  0  0
   57.9290   28.0560   45.5900 C   0  0  0  0  0  0  0  0  0  0  0  0
   58.3672   28.9437   45.1105 H   0  0  0  0  0  0  0  0  0  0  0  0
   56.5750   27.7600   45.4050 C   0  0  0  0  0  0  0  0  0  0  0  0
   55.9502   28.4141   44.7791 H   0  0  0  0  0  0  0  0  0  0  0  0
   56.0140   26.6330   46.0150 C   0  0  0  0  0  0  0  0  0  0  0  0
   54.6690   26.3400   45.8310 O   0  0  0  0  0  0  0  0  0  0  0  0
  1  2  1  0
  2  3  2  0
  3  4  1  0
  3  5  1  0
  5  6  1  0
  6  7  2  0
  6  8  2  0
  6  9  1  0
  9 10  2  0
 10 11  1  0
 11 12  1  0
 12 13  1  0
 13 14  1  0
 13 15  1  0
 13 16  1  0
 12 17  2  0
 17 18  1  0
 18 19  1  0
 18 20  1  0
 18 21  1  0
 21 22  1  0
 22 23  2  0
 23 24  1  0
 23 25  1  0
 25 26  1  0
 25 27  2  0
 27 28  1  0
 27 29  1  0
 29 30  1  0
 29 31  2  0
 31 32  1  0
 17 33  1  0
  5 34  2  0
 34 35  1  0
 34 36  1  0
 36 37  1  0
 36 38  2  0
 38 39  1  0
 38  2  1  0
 33 10  1  0
 31 22  1  0
M  CHG  3  11  -1  33  -1  39  -1
M  END
>  <UniqueID>  (4) 
4

>  <SMILES>  (4) 
Cc1[n-]/c(=N\S(=O)(=O)c2ccc([O-])cc2)[n-]c1COc1ccc(Cl)cc1

>  <Energy>  (4) 
69.79795907630724

>  <Genealogy>  (4) 
Cc1[n-]c(=NS(=O)(=O)c2ccc([O-])cc2)[n-]c1COc1ccc(Cl)cc1 (protonated)
Cc1[n-]/c(=N\S(=O)(=O)c2ccc([O-])cc2)[n-]c1COc1ccc(Cl)cc1 (cis-trans isomerization)
Cc1[n-]/c(=N\S(=O)(=O)c2ccc([O-])cc2)[n-]c1COc1ccc(Cl)cc1 (3D coordinates assigned)
Cc1[n-]/c(=N\S(=O)(=O)c2ccc([O-])cc2)[n-]c1COc1ccc(Cl)cc1 (optimized conformer: 69.79795907630724 kcal/mol)

>  <smiles>  (4) 
Cc1[nH]c(=NS(=O)(=O)c2ccc(O)cc2)[nH]c1COc1ccc(Cl)cc1

>  <score_type>  (4) 
oracle

>  <origin>  (4) 
adg

>  <m_score__min__energy>  (4) 
-13.91

>  <m_primary>  (4) 
energy

$$$$
4:0
     RDKit          3D

 47 49  0  0  0  0  0  0  0  0999 V2000
   51.0100   31.7870   49.6350 C   0  0  0  0  0  0  0  0  0  0  0  0
   51.4100   32.7000   50.6950 N   0  0  0  0  0  0  0  0  0  0  0  0
   50.8180   32.6780   51.9950 C   0  0  0  0  0  0  0  0  0  0  0  0
   50.2670   33.7130   52.4620 O   0  0  0  0  0  0  0  0  0  0  0  0
   50.8600   31.4720   52.7620 N   0  0  0  0  0  0  0  0  0  0  0  0
   51.8440   31.2180   53.8090 C   0  0  0  0  0  0  0  0  0  0  0  0
   53.0200   30.4850   53.2460 C   0  0  0  0  0  0  0  0  0  0  0  0
   53.0210   29.1800   52.7940 C   0  0  0  0  0  0  0  0  0  0  0  0
   54.3030   28.9390   52.3510 C   0  0  0  0  0  0  0  0  0  0  0  0
   55.0010   30.1140   52.5620 C   0  0  0  0  0  0  0  0  0  0  0  0
   56.4140   30.3470   52.2480 C   0  0  0  0  0  0  0  0  0  0  0  0
   57.1410   29.3740   51.9140 O   0  0  0  0  0  0  0  0  0  0  0  0
   56.9640   31.6650   52.3740 N   0  0  0  0  0  0  0  0  0  0  0  0
   57.9350   32.2740   51.5080 C   0  0  0  0  0  0  0  0  0  0  0  0
   57.9940   31.9730   50.1340 C   0  0  0  0  0  0  0  0  0  0  0  0
   58.9410   32.6000   49.3070 C   0  0  0  0  0  0  0  0  0  0  0  0
   58.9830   32.3020   47.8310 C   0  0  0  0  0  0  0  0  0  0  0  0
   58.5670   33.4880   47.0570 N   0  0  0  0  0  0  0  0  0  0  0  0
   59.7200   34.2030   46.5070 C   0  0  0  0  0  0  0  0  0  0  0  0
   59.2290   34.9440   45.2730 C   0  0  0  0  0  0  0  0  0  0  0  0
   57.9360   34.2500   44.8740 C   0  0  0  0  0  0  0  0  0  0  0  0
   57.7400   33.1410   45.8950 C   0  0  0  0  0  0  0  0  0  0  0  0
   59.8100   33.5540   49.8550 C   0  0  0  0  0  0  0  0  0  0  0  0
   59.7390   33.8730   51.2130 C   0  0  0  0  0  0  0  0  0  0  0  0
   58.8030   33.2400   52.0360 C   0  0  0  0  0  0  0  0  0  0  0  0
   58.7400   33.5750   53.3840 O   0  0  0  0  0  0  0  0  0  0  0  0
   54.2100   31.0180   53.0960 O   0  0  0  0  0  0  0  0  0  0  0  0
   50.6060   30.8649   50.0783 H   0  0  0  0  0  0  0  0  0  0  0  0
   50.2381   32.2634   49.0127 H   0  0  0  0  0  0  0  0  0  0  0  0
   51.8834   31.5425   49.0127 H   0  0  0  0  0  0  0  0  0  0  0  0
   52.1812   32.1763   54.2309 H   0  0  0  0  0  0  0  0  0  0  0  0
   51.3810   30.6036   54.5952 H   0  0  0  0  0  0  0  0  0  0  0  0
   52.1738   28.4784   52.7888 H   0  0  0  0  0  0  0  0  0  0  0  0
   54.6912   28.0049   51.9188 H   0  0  0  0  0  0  0  0  0  0  0  0
   57.2935   31.2415   49.7048 H   0  0  0  0  0  0  0  0  0  0  0  0
   60.0084   32.0240   47.5459 H   0  0  0  0  0  0  0  0  0  0  0  0
   58.2936   31.4729   47.6136 H   0  0  0  0  0  0  0  0  0  0  0  0
   60.1112   34.9169   47.2469 H   0  0  0  0  0  0  0  0  0  0  0  0
   60.5320   33.5061   46.2522 H   0  0  0  0  0  0  0  0  0  0  0  0
   59.0413   36.0020   45.5085 H   0  0  0  0  0  0  0  0  0  0  0  0
   59.9713   34.9246   44.4615 H   0  0  0  0  0  0  0  0  0  0  0  0
   57.0939   34.9569   44.9075 H   0  0  0  0  0  0  0  0  0  0  0  0
   57.9831   33.8569   43.8477 H   0  0  0  0  0  0  0  0  0  0  0  0
   56.6816   33.0779   46.1880 H   0  0  0  0  0  0  0  0  0  0  0  0
   58.0300   32.1645   45.4798 H   0  0  0  0  0  0  0  0  0  0  0  0
   60.5506   34.0532   49.2130 H   0  0  0  0  0  0  0  0  0  0  0  0
   60.4217   34.6246   51.6361 H   0  0  0  0  0  0  0  0  0  0  0  0
  1  2  1  0
  2  3  1  0
  3  4  2  0
  3  5  1  0
  5  6  1  0
  6  7  1  0
  7  8  2  0
  8  9  1  0
  9 10  2  0
 10 11  1  0
 11 12  2  0
 11 13  1  0
 13 14  1  0
 14 15  2  0
 15 16  1  0
 16 17  1  0
 17 18  1  0
 18 19  1  0
 19 20  1  0
 20 21  1  0
 21 22  1  0
 16 23  2  0
 23 24  1  0
 24 25  2  0
 25 26  1  0
 10 27  1  0
 27  7  1  0
 25 14  1  0
 22 18  1  0
  1 28  1  0
  1 29  1  0
  1 30  1  0
  6 31  1  0
  6 32  1  0
  8 33  1  0
  9 34  1  0
 15 35  1  0
 17 36  1  0
 17 37  1  0
 19 38  1  0
 19 39  1  0
 20 40  1  0
 20 41  1  0
 21 42  1  0
 21 43  1  0
 22 44  1  0
 22 45  1  0
 23 46  1  0
 24 47  1  0
M  CHG  4   2  -1   5  -1  13  -1  26  -1
M  END
>  <UniqueID>  (5) 
5

>  <SMILES>  (5) 
C[N-]C(=O)[N-]Cc1ccc(C(=O)[N-]c2cc(CN3CCCC3)ccc2[O-])o1

>  <Energy>  (5) 
71.96919646938304

>  <Genealogy>  (5) 
C[N-]C(=O)[N-]Cc1ccc(C(=O)[N-]c2cc(CN3CCCC3)ccc2[O-])o1 (protonated)
C[N-]C(=O)[N-]Cc1ccc(C(=O)[N-]c2cc(CN3CCCC3)ccc2[O-])o1 (3D coordinates assigned)
C[N-]C(=O)[N-]Cc1ccc(C(=O)[N-]c2cc(CN3CCCC3)ccc2[O-])o1 (nonaromatic ring conformer: 71.96919646938304 kcal/mol)

>  <smiles>  (5) 
CNC(=O)NCc1ccc(C(=O)Nc2cc(CN3CCCC3)ccc2O)o1

>  <score_type>  (5) 
oracle

>  <origin>  (5) 
adg

>  <m_score__min__energy>  (5) 
-15.26

>  <m_primary>  (5) 
energy

$$$$
5:0
     RDKit          3D

 59 62  0  0  0  0  0  0  0  0999 V2000
   59.5150   28.1590   43.9230 O   0  0  0  0  0  0  0  0  0  0  0  0
   59.1740   28.4900   45.0910 C   0  0  0  0  0  0  0  0  0  0  0  0
   60.1770   29.1680   45.9840 C   0  0  0  0  0  0  0  0  0  0  0  0
   59.6210   29.6140   47.2790 N   0  0  0  0  0  0  0  0  0  0  0  0
   60.1390   28.8810   48.4210 C   0  0  0  0  0  0  0  0  0  0  0  0
   60.2250   27.4750   48.3620 C   0  0  0  0  0  0  0  0  0  0  0  0
   60.6930   26.7390   49.4520 C   0  0  0  0  0  0  0  0  0  0  0  0
   61.0650   27.3880   50.6270 C   0  0  0  0  0  0  0  0  0  0  0  0
   60.9500   28.7740   50.7260 C   0  0  0  0  0  0  0  0  0  0  0  0
   60.4740   29.5320   49.6440 C   0  0  0  0  0  0  0  0  0  0  0  0
   60.3310   30.9930   49.8320 C   0  0  0  0  0  0  0  0  0  0  0  0
   61.2090   31.7550   49.3420 O   0  0  0  0  0  0  0  0  0  0  0  0
   59.2440   31.5560   50.6010 N   0  0  0  0  0  0  0  0  0  0  0  0
   57.9890   30.8110   50.7880 C   0  0  0  0  0  0  0  0  0  0  0  0
   57.2690   31.3040   52.0460 C   0  0  0  0  0  0  0  0  0  0  0  0
   57.1090   32.7080   52.0110 O   0  0  0  0  0  0  0  0  0  0  0  0
   58.3770   33.3310   52.0760 C   0  0  0  0  0  0  0  0  0  0  0  0
   59.2140   33.0050   50.8350 C   0  0  0  0  0  0  0  0  0  0  0  0
   57.8630   28.1780   45.5720 N   0  0  0  0  0  0  0  0  0  0  0  0
   56.6810   28.9830   45.2800 C   0  0  0  0  0  0  0  0  0  0  0  0
   57.0620   30.1480   44.4050 C   0  0  0  0  0  0  0  0  0  0  0  0
   56.7730   30.1120   43.0320 C   0  0  0  0  0  0  0  0  0  0  0  0
   57.0690   31.2090   42.2180 C   0  0  0  0  0  0  0  0  0  0  0  0
   57.6550   32.3510   42.7670 C   0  0  0  0  0  0  0  0  0  0  0  0
   57.9350   32.4060   44.1340 C   0  0  0  0  0  0  0  0  0  0  0  0
   57.6280   31.3130   44.9680 C   0  0  0  0  0  0  0  0  0  0  0  0
   57.9070   31.3370   46.3450 O   0  0  0  0  0  0  0  0  0  0  0  0
   58.2540   32.4820   47.0760 C   0  0  0  0  0  0  0  0  0  0  0  0
   57.4010   33.0870   47.7820 O   0  0  0  0  0  0  0  0  0  0  0  0
   59.6450   32.9460   47.0530 C   0  0  0  0  0  0  0  0  0  0  0  0
   60.0860   34.2150   47.3810 C   0  0  0  0  0  0  0  0  0  0  0  0
   61.4540   34.1850   47.2100 C   0  0  0  0  0  0  0  0  0  0  0  0
   61.7630   32.9030   46.7890 C   0  0  0  0  0  0  0  0  0  0  0  0
   60.6640   32.1890   46.7050 O   0  0  0  0  0  0  0  0  0  0  0  0
   60.9962   28.4616   46.1837 H   0  0  0  0  0  0  0  0  0  0  0  0
   60.5170   30.0704   45.4548 H   0  0  0  0  0  0  0  0  0  0  0  0
   59.7700   30.6430   47.3620 H   0  0  0  0  0  0  0  0  0  0  0  0
   58.5870   29.4670   47.2520 H   0  0  0  0  0  0  0  0  0  0  0  0
   59.9192   26.9508   47.4446 H   0  0  0  0  0  0  0  0  0  0  0  0
   60.7682   25.6438   49.3828 H   0  0  0  0  0  0  0  0  0  0  0  0
   61.4499   26.8065   51.4777 H   0  0  0  0  0  0  0  0  0  0  0  0
   61.2350   29.2787   51.6609 H   0  0  0  0  0  0  0  0  0  0  0  0
   57.3402   30.9651   49.9131 H   0  0  0  0  0  0  0  0  0  0  0  0
   58.2179   29.7409   50.8993 H   0  0  0  0  0  0  0  0  0  0  0  0
   56.2787   30.8289   52.1051 H   0  0  0  0  0  0  0  0  0  0  0  0
   57.8724   31.0382   52.9265 H   0  0  0  0  0  0  0  0  0  0  0  0
   58.2395   34.4204   52.1409 H   0  0  0  0  0  0  0  0  0  0  0  0
   58.9065   32.9554   52.9640 H   0  0  0  0  0  0  0  0  0  0  0  0
   58.7729   33.5040   49.9596 H   0  0  0  0  0  0  0  0  0  0  0  0
   60.2424   33.3607   50.9961 H   0  0  0  0  0  0  0  0  0  0  0  0
   55.9363   28.3631   44.7593 H   0  0  0  0  0  0  0  0  0  0  0  0
   56.2556   29.3595   46.2220 H   0  0  0  0  0  0  0  0  0  0  0  0
   56.3108   29.2151   42.5939 H   0  0  0  0  0  0  0  0  0  0  0  0
   56.8398   31.1724   41.1428 H   0  0  0  0  0  0  0  0  0  0  0  0
   57.8965   33.2086   42.1219 H   0  0  0  0  0  0  0  0  0  0  0  0
   58.3977   33.3076   44.5618 H   0  0  0  0  0  0  0  0  0  0  0  0
   59.4744   35.0684   47.7091 H   0  0  0  0  0  0  0  0  0  0  0  0
   62.1584   35.0136   47.3750 H   0  0  0  0  0  0  0  0  0  0  0  0
   62.7750   32.5379   46.5597 H   0  0  0  0  0  0  0  0  0  0  0  0
  1  2  2  0
  2  3  1  0
  3  4  1  0
  4  5  1  0
  5  6  2  0
  6  7  1  0
  7  8  2  0
  8  9  1  0
  9 10  2  0
 10 11  1  0
 11 12  2  0
 11 13  1  0
 13 14  1  0
 14 15  1  0
 15 16  1  0
 16 17  1  0
 17 18  1  0
  2 19  1  0
 19 20  1  0
 20 21  1  0
 21 22  2  0
 22 23  1  0
 23 24  2  0
 24 25  1  0
 25 26  2  0
 26 27  1  0
 27 28  1  0
 28 29  2  0
 28 30  1  0
 30 31  2  0
 31 32  1  0
 32 33  2  0
 33 34  1  0
 10  5  1  0
 18 13  1  0
 26 21  1  0
 34 30  1  0
  3 35  1  0
  3 36  1  0
  4 37  1  0
  4 38  1  0
  6 39  1  0
  7 40  1  0
  8 41  1  0
  9 42  1  0
 14 43  1  0
 14 44  1  0
 15 45  1  0
 15 46  1  0
 17 47  1  0
 17 48  1  0
 18 49  1  0
 18 50  1  0
 20 51  1  0
 20 52  1  0
 22 53  1  0
 23 54  1  0
 24 55  1  0
 25 56  1  0
 31 57  1  0
 32 58  1  0
 33 59  1  0
M  CHG  2   4   1  19  -1
M  END
>  <UniqueID>  (6) 
6

>  <SMILES>  (6) 
O=C(C[NH2+]c1ccccc1C(=O)N1CCOCC1)[N-]Cc1ccccc1OC(=O)c1ccco1

>  <Energy>  (6) 
100.78044016284272

>  <Genealogy>  (6) 
O=C(C[NH2+]c1ccccc1C(=O)N1CCOCC1)[N-]Cc1ccccc1OC(=O)c1ccco1 (protonated)
O=C(C[NH2+]c1ccccc1C(=O)N1CCOCC1)[N-]Cc1ccccc1OC(=O)c1ccco1 (3D coordinates assigned)
O=C(C[NH2+]c1ccccc1C(=O)N1CCOCC1)[N-]Cc1ccccc1OC(=O)c1ccco1 (nonaromatic ring conformer: 100.78044016284272 kcal/mol)

>  <smiles>  (6) 
O=C(CNc1ccccc1C(=O)N1CCOCC1)NCc1ccccc1OC(=O)c1ccco1

>  <score_type>  (6) 
oracle

>  <origin>  (6) 
adg

>  <m_score__min__energy>  (6) 
-9.8499999999999996

>  <m_primary>  (6) 
energy

$$$$
6:0
     RDKit          3D

 70 74  0  0  0  0  0  0  0  0999 V2000
   53.3610   25.1340   45.9990 H   0  0  0  0  0  0  0  0  0  0  0  0
   54.3060   24.6890   46.0370 N   0  0  0  0  0  0  0  0  0  0  0  0
   55.3780   25.3800   45.8300 C   0  0  0  0  0  0  0  0  0  0  0  0
   56.5510   24.8220   45.4660 N   0  0  0  0  0  0  0  0  0  0  0  0
   57.3820   25.8740   45.3640 C   0  0  0  0  0  0  0  0  0  0  0  0
   58.4441   25.8217   45.0826 H   0  0  0  0  0  0  0  0  0  0  0  0
   56.6900   27.0330   45.6690 C   0  0  0  0  0  0  0  0  0  0  0  0
   57.2130   28.4240   45.6840 C   0  0  0  0  0  0  0  0  0  0  0  0
   58.1290   28.8090   46.5940 C   0  0  0  0  0  0  0  0  0  0  0  0
   58.4781   28.0690   47.3292 H   0  0  0  0  0  0  0  0  0  0  0  0
   58.6990   30.2020   46.6550 C   0  0  0  0  0  0  0  0  0  0  0  0
   58.6316   30.5675   47.6903 H   0  0  0  0  0  0  0  0  0  0  0  0
   59.7440   30.1549   46.3148 H   0  0  0  0  0  0  0  0  0  0  0  0
   57.9810   31.1320   45.7780 N   0  0  0  0  0  0  0  0  0  0  0  0
   58.1470   32.5460   45.9690 C   0  0  0  0  0  0  0  0  0  0  0  0
   57.3410   33.3420   45.4130 O   0  0  0  0  0  0  0  0  0  0  0  0
   59.2410   33.0800   46.8160 C   0  0  0  0  0  0  0  0  0  0  0  0
   58.9490   33.7700   48.0060 C   0  0  0  0  0  0  0  0  0  0  0  0
   57.9014   33.9251   48.3036 H   0  0  0  0  0  0  0  0  0  0  0  0
   59.9780   34.2600   48.8130 C   0  0  0  0  0  0  0  0  0  0  0  0
   59.7355   34.7951   49.7430 H   0  0  0  0  0  0  0  0  0  0  0  0
   61.3200   34.0740   48.4450 C   0  0  0  0  0  0  0  0  0  0  0  0
   62.4340   34.6040   49.3030 C   0  0  0  0  0  0  0  0  0  0  0  0
   62.5898   35.6693   49.0772 H   0  0  0  0  0  0  0  0  0  0  0  0
   62.1603   34.4775   50.3609 H   0  0  0  0  0  0  0  0  0  0  0  0
   63.6710   33.8710   49.0430 N   0  0  0  0  0  0  0  0  0  0  0  0
   64.2540   32.8820   49.9010 C   0  0  0  0  0  0  0  0  0  0  0  0
   65.4790   32.6170   49.7750 O   0  0  0  0  0  0  0  0  0  0  0  0
   63.4400   32.1250   50.9140 C   0  0  0  0  0  0  0  0  0  0  0  0
   64.0739   31.8803   51.7790 H   0  0  0  0  0  0  0  0  0  0  0  0
   62.5931   32.7509   51.2320 H   0  0  0  0  0  0  0  0  0  0  0  0
   62.9190   30.8770   50.3240 N   0  0  0  0  0  0  0  0  0  0  0  0
   62.4790   29.9000   51.3560 C   0  0  0  0  0  0  0  0  0  0  0  0
   62.9550   28.9306   51.1473 H   0  0  0  0  0  0  0  0  0  0  0  0
   62.7766   30.2991   52.3369 H   0  0  0  0  0  0  0  0  0  0  0  0
   60.9560   29.7030   51.3810 C   0  0  0  0  0  0  0  0  0  0  0  0
   60.7045   28.9498   52.1422 H   0  0  0  0  0  0  0  0  0  0  0  0
   60.4848   30.6682   51.6182 H   0  0  0  0  0  0  0  0  0  0  0  0
   60.4500   29.2460   50.0630 N   0  0  0  0  0  0  0  0  0  0  0  0
   58.9830   29.3950   49.9710 C   0  0  0  0  0  0  0  0  0  0  0  0
   58.7100   29.6289   48.9314 H   0  0  0  0  0  0  0  0  0  0  0  0
   58.5151   28.4521   50.2905 H   0  0  0  0  0  0  0  0  0  0  0  0
   58.4930   30.5020   50.8700 C   0  0  0  0  0  0  0  0  0  0  0  0
   57.6630   30.2180   51.9670 C   0  0  0  0  0  0  0  0  0  0  0  0
   57.3722   29.1789   52.1808 H   0  0  0  0  0  0  0  0  0  0  0  0
   57.2050   31.2550   52.7890 C   0  0  0  0  0  0  0  0  0  0  0  0
   56.5560   31.0290   53.6479 H   0  0  0  0  0  0  0  0  0  0  0  0
   57.5710   32.5760   52.5200 C   0  0  0  0  0  0  0  0  0  0  0  0
   57.2117   33.3887   53.1685 H   0  0  0  0  0  0  0  0  0  0  0  0
   58.3930   32.8660   51.4280 C   0  0  0  0  0  0  0  0  0  0  0  0
   58.6777   33.9071   51.2156 H   0  0  0  0  0  0  0  0  0  0  0  0
   58.8540   31.8340   50.6050 C   0  0  0  0  0  0  0  0  0  0  0  0
   59.5018   32.0656   49.7467 H   0  0  0  0  0  0  0  0  0  0  0  0
   61.1360   29.8900   48.9120 C   0  0  0  0  0  0  0  0  0  0  0  0
   61.8584   29.1764   48.4890 H   0  0  0  0  0  0  0  0  0  0  0  0
   60.3640   30.1703   48.1802 H   0  0  0  0  0  0  0  0  0  0  0  0
   61.8850   31.1700   49.3080 C   0  0  0  0  0  0  0  0  0  0  0  0
   62.3661   31.5976   48.4160 H   0  0  0  0  0  0  0  0  0  0  0  0
   61.1645   31.8847   49.7323 H   0  0  0  0  0  0  0  0  0  0  0  0
   61.6150   33.3700   47.2680 C   0  0  0  0  0  0  0  0  0  0  0  0
   62.6633   33.2075   46.9770 H   0  0  0  0  0  0  0  0  0  0  0  0
   60.5870   32.8740   46.4630 C   0  0  0  0  0  0  0  0  0  0  0  0
   60.8318   32.3180   45.5460 H   0  0  0  0  0  0  0  0  0  0  0  0
   57.4970   30.6310   44.4950 C   0  0  0  0  0  0  0  0  0  0  0  0
   56.9300   31.4212   43.9811 H   0  0  0  0  0  0  0  0  0  0  0  0
   58.3500   30.3315   43.8684 H   0  0  0  0  0  0  0  0  0  0  0  0
   56.5900   29.4270   44.7390 C   0  0  0  0  0  0  0  0  0  0  0  0
   55.6420   29.7796   45.1714 H   0  0  0  0  0  0  0  0  0  0  0  0
   56.4279   28.9255   43.7735 H   0  0  0  0  0  0  0  0  0  0  0  0
   55.4130   26.7200   45.9630 N   0  0  0  0  0  0  0  0  0  0  0  0
  1  2  1  0
  2  3  2  0
  3  4  1  0
  4  5  1  0
  5  6  1  0
  5  7  2  0
  7  8  1  0
  8  9  2  0
  9 10  1  0
  9 11  1  0
 11 12  1  0
 11 13  1  0
 11 14  1  0
 14 15  1  0
 15 16  2  0
 15 17  1  0
 17 18  2  0
 18 19  1  0
 18 20  1  0
 20 21  1  0
 20 22  2  0
 22 23  1  0
 23 24  1  0
 23 25  1  0
 23 26  1  0
 26 27  1  0
 27 28  2  0
 27 29  1  0
 29 30  1  0
 29 31  1  0
 29 32  1  0
 32 33  1  0
 33 34  1  0
 33 35  1  0
 33 36  1  0
 36 37  1  0
 36 38  1  0
 36 39  1  0
 39 40  1  0
 40 41  1  0
 40 42  1  0
 40 43  1  0
 43 44  2  0
 44 45  1  0
 44 46  1  0
 46 47  1  0
 46 48  2  0
 48 49  1  0
 48 50  1  0
 50 51  1  0
 50 52  2  0
 52 53  1  0
 39 54  1  0
 54 55  1  0
 54 56  1  0
 54 57  1  0
 57 58  1  0
 57 59  1  0
 22 60  1  0
 60 61  1  0
 60 62  2  0
 62 63  1  0
 14 64  1  0
 64 65  1  0
 64 66  1  0
 64 67  1  0
 67 68  1  0
 67 69  1  0
  7 70  1  0
 70  3  1  0
 67  8  1  0
 62 17  1  0
 57 32  1  0
 52 43  1  0
M  CHG  3   4  -1  26  -1  70  -1
M  END
>  <UniqueID>  (7) 
7

>  <SMILES>  (7) 
[H]/N=c1\[n-]cc(C2=CCN(C(=O)c3ccc(C[N-]C(=O)CN4CCN(Cc5ccccc5)CC4)cc3)CC2)[n-]1

>  <Energy>  (7) 
119.11420764204406

>  <Genealogy>  (7) 
N=c1[n-]cc(C2=CCN(C(=O)c3ccc(C[N-]C(=O)CN4CCN(Cc5ccccc5)CC4)cc3)CC2)[n-]1 (protonated)
[H]/N=c1\[n-]cc(C2=CCN(C(=O)c3ccc(C[N-]C(=O)CN4CCN(Cc5ccccc5)CC4)cc3)CC2)[n-]1 (cis-trans isomerization)
[H]/N=c1\[n-]cc(C2=CCN(C(=O)c3ccc(C[N-]C(=O)CN4CCN(Cc5ccccc5)CC4)cc3)CC2)[n-]1 (3D coordinates assigned)
[H]/N=c1\[n-]cc(C2=CCN(C(=O)c3ccc(C[N-]C(=O)CN4CCN(Cc5ccccc5)CC4)cc3)CC2)[n-]1 (nonaromatic ring conformer: 119.11420764204406 kcal/mol)

>  <smiles>  (7) 
N=c1[nH]cc(C2=CCN(C(=O)c3ccc(CNC(=O)CN4CCN(Cc5ccccc5)CC4)cc3)CC2)[nH]1

>  <score_type>  (7) 
oracle

>  <origin>  (7) 
adg

>  <m_score__min__energy>  (7) 
-14.73

>  <m_primary>  (7) 
energy

$$$$
7:0
     RDKit          3D

 46 49  0  0  0  0  0  0  0  0999 V2000
   55.9530   31.9720   52.0260 C   0  0  0  0  0  0  0  0  0  0  0  0
   55.4360   30.7810   52.3590 C   0  0  0  0  0  0  0  0  0  0  0  0
   54.0920   30.4840   52.6370 C   0  0  0  0  0  0  0  0  0  0  0  0
   52.9680   31.2030   52.4460 C   0  0  0  0  0  0  0  0  0  0  0  0
   52.2340   31.3260   51.1740 C   0  0  0  0  0  0  0  0  0  0  0  0
   52.2130   30.3880   50.2060 N   0  0  0  0  0  0  0  0  0  0  0  0
   51.3100   30.8730   49.3230 C   0  0  0  0  0  0  0  0  0  0  0  0
   51.0200   30.2750   48.2550 O   0  0  0  0  0  0  0  0  0  0  0  0
   50.7360   32.0420   49.6810 N   0  0  0  0  0  0  0  0  0  0  0  0
   51.3220   32.3060   50.8600 C   0  0  0  0  0  0  0  0  0  0  0  0
   51.0210   33.4160   51.6390 O   0  0  0  0  0  0  0  0  0  0  0  0
   54.0800   29.2040   53.1690 C   0  0  0  0  0  0  0  0  0  0  0  0
   55.3800   28.7430   53.1300 C   0  0  0  0  0  0  0  0  0  0  0  0
   55.8290   27.3950   53.6010 C   0  0  0  0  0  0  0  0  0  0  0  0
   56.2000   29.6970   52.6390 N   0  0  0  0  0  0  0  0  0  0  0  0
   57.6280   29.5870   52.5070 C   0  0  0  0  0  0  0  0  0  0  0  0
   58.2200   29.7770   51.2540 C   0  0  0  0  0  0  0  0  0  0  0  0
   59.6130   29.6690   51.1170 C   0  0  0  0  0  0  0  0  0  0  0  0
   60.2490   29.8420   49.8350 N   0  0  0  0  0  0  0  0  0  0  0  0
   60.0220   28.8450   48.7840 C   0  0  0  0  0  0  0  0  0  0  0  0
   60.2640   29.4730   47.4070 C   0  0  0  0  0  0  0  0  0  0  0  0
   61.5320   30.1010   47.3550 O   0  0  0  0  0  0  0  0  0  0  0  0
   61.5630   31.1910   48.2580 C   0  0  0  0  0  0  0  0  0  0  0  0
   61.4320   30.7020   49.7050 C   0  0  0  0  0  0  0  0  0  0  0  0
   60.3670   29.3630   52.2100 N   0  0  0  0  0  0  0  0  0  0  0  0
   59.8190   29.1780   53.4410 C   0  0  0  0  0  0  0  0  0  0  0  0
   58.4360   29.2910   53.6190 C   0  0  0  0  0  0  0  0  0  0  0  0
   57.8660   29.1120   54.9310 C   0  0  0  0  0  0  0  0  0  0  0  0
   57.4070   28.9660   55.9840 N   0  0  0  0  0  0  0  0  0  0  0  0
   57.0315   32.0687   51.8326 H   0  0  0  0  0  0  0  0  0  0  0  0
   55.2987   32.8527   51.9461 H   0  0  0  0  0  0  0  0  0  0  0  0
   52.5639   31.7444   53.3141 H   0  0  0  0  0  0  0  0  0  0  0  0
   53.2027   28.6602   53.5492 H   0  0  0  0  0  0  0  0  0  0  0  0
   55.8359   27.3744   54.7008 H   0  0  0  0  0  0  0  0  0  0  0  0
   55.1384   26.6262   53.2242 H   0  0  0  0  0  0  0  0  0  0  0  0
   56.8427   27.1938   53.2242 H   0  0  0  0  0  0  0  0  0  0  0  0
   57.5960   30.0103   50.3787 H   0  0  0  0  0  0  0  0  0  0  0  0
   60.7132   28.0012   48.9265 H   0  0  0  0  0  0  0  0  0  0  0  0
   58.9829   28.4888   48.8416 H   0  0  0  0  0  0  0  0  0  0  0  0
   60.2197   28.6864   46.6394 H   0  0  0  0  0  0  0  0  0  0  0  0
   59.4881   30.2311   47.2247 H   0  0  0  0  0  0  0  0  0  0  0  0
   62.5165   31.7274   48.1434 H   0  0  0  0  0  0  0  0  0  0  0  0
   60.7187   31.8594   48.0335 H   0  0  0  0  0  0  0  0  0  0  0  0
   62.3308   30.1305   49.9800 H   0  0  0  0  0  0  0  0  0  0  0  0
   61.3252   31.5695   50.3729 H   0  0  0  0  0  0  0  0  0  0  0  0
   60.4648   28.9389   54.2988 H   0  0  0  0  0  0  0  0  0  0  0  0
  1  2  2  0
  2  3  1  0
  3  4  2  3
  4  5  1  0
  5  6  1  0
  6  7  1  0
  7  8  2  0
  7  9  1  0
  9 10  1  0
 10 11  1  0
  3 12  1  0
 12 13  2  0
 13 14  1  0
 13 15  1  0
 15 16  1  0
 16 17  2  0
 17 18  1  0
 18 19  1  0
 19 20  1  0
 20 21  1  0
 21 22  1  0
 22 23  1  0
 23 24  1  0
 18 25  2  0
 25 26  1  0
 26 27  2  0
 27 28  1  0
 28 29  3  0
 15  2  1  0
 27 16  1  0
 10  5  2  0
 24 19  1  0
  1 30  1  0
  1 31  1  0
  4 32  1  0
 12 33  1  0
 14 34  1  0
 14 35  1  0
 14 36  1  0
 17 37  1  0
 20 38  1  0
 20 39  1  0
 21 40  1  0
 21 41  1  0
 23 42  1  0
 23 43  1  0
 24 44  1  0
 24 45  1  0
 26 46  1  0
M  CHG  3   6  -1   9  -1  11  -1
M  END
>  <UniqueID>  (8) 
8

>  <SMILES>  (8) 
C=c1c(=Cc2[n-]c(=O)[n-]c2[O-])cc(C)n1-c1cc(N2CCOCC2)ncc1C#N

>  <Energy>  (8) 
128.73965491333178

>  <Genealogy>  (8) 
C=c1c(=Cc2[n-]c(=O)[n-]c2[O-])cc(C)n1-c1cc(N2CCOCC2)ncc1C#N (protonated)
C=c1c(=Cc2[n-]c(=O)[n-]c2[O-])cc(C)n1-c1cc(N2CCOCC2)ncc1C#N (3D coordinates assigned)
C=c1c(=Cc2[n-]c(=O)[n-]c2[O-])cc(C)n1-c1cc(N2CCOCC2)ncc1C#N (nonaromatic ring conformer: 128.73965491333178 kcal/mol)

>  <smiles>  (8) 
C=c1c(=Cc2[nH]c(=O)[nH]c2O)cc(C)n1-c1cc(N2CCOCC2)ncc1C#N

>  <score_type>  (8) 
oracle

>  <origin>  (8) 
adg

>  <m_score__min__energy>  (8) 
-15.25

>  <m_primary>  (8) 
energy

$$$$
8:0
     RDKit          3D

 66 69  0  0  0  0  0  0  0  0999 V2000
   63.3810   33.9640   46.3420 C   0  0  0  0  0  0  0  0  0  0  0  0
   62.7520   32.9020   47.2510 C   0  0  0  0  0  0  0  0  0  0  0  0
   63.7200   32.3440   48.3010 C   0  0  0  0  0  0  0  0  0  0  0  0
   61.5150   33.3290   47.8310 O   0  0  0  0  0  0  0  0  0  0  0  0
   60.2730   33.5810   47.2150 C   0  0  0  0  0  0  0  0  0  0  0  0
   60.1440   34.2350   45.9730 C   0  0  0  0  0  0  0  0  0  0  0  0
   58.8830   34.4650   45.4200 C   0  0  0  0  0  0  0  0  0  0  0  0
   57.7350   34.0540   46.0960 C   0  0  0  0  0  0  0  0  0  0  0  0
   57.8430   33.4120   47.3290 C   0  0  0  0  0  0  0  0  0  0  0  0
   59.1040   33.1630   47.8920 C   0  0  0  0  0  0  0  0  0  0  0  0
   59.1930   32.5520   49.1930 N   0  0  0  0  0  0  0  0  0  0  0  0
   58.1860   31.5970   49.6600 C   0  0  0  0  0  0  0  0  0  0  0  0
   58.8490   30.2710   50.0990 C   0  0  0  0  0  0  0  0  0  0  0  0
   60.2940   30.3970   50.4230 N   0  0  0  0  0  0  0  0  0  0  0  0
   61.1490   30.0820   49.2550 C   0  0  0  0  0  0  0  0  0  0  0  0
   60.4690   29.1460   48.3060 C   0  0  0  0  0  0  0  0  0  0  0  0
   60.0770   27.8420   48.5830 C   0  0  0  0  0  0  0  0  0  0  0  0
   59.3660   27.2460   47.5320 C   0  0  0  0  0  0  0  0  0  0  0  0
   59.2190   28.0790   46.4280 C   0  0  0  0  0  0  0  0  0  0  0  0
   58.4260   27.7670   45.1970 C   0  0  0  0  0  0  0  0  0  0  0  0
   56.9980   27.6940   45.5020 N   0  0  0  0  0  0  0  0  0  0  0  0
   56.2310   26.4970   45.7090 C   0  0  0  0  0  0  0  0  0  0  0  0
   55.1580   26.5710   46.3640 O   0  0  0  0  0  0  0  0  0  0  0  0
   56.6340   25.1950   45.1440 C   0  0  0  0  0  0  0  0  0  0  0  0
   57.9260   24.6990   45.3850 C   0  0  0  0  0  0  0  0  0  0  0  0
   58.2950   23.4350   44.9130 C   0  0  0  0  0  0  0  0  0  0  0  0
   57.3850   22.6610   44.1780 C   0  0  0  0  0  0  0  0  0  0  0  0
   57.7470   21.2620   43.7640 C   0  0  0  0  0  0  0  0  0  0  0  0
   56.5950   20.5800   43.3490 O   0  0  0  0  0  0  0  0  0  0  0  0
   56.1060   23.1730   43.9050 C   0  0  0  0  0  0  0  0  0  0  0  0
   55.7400   24.4400   44.3690 C   0  0  0  0  0  0  0  0  0  0  0  0
   59.9620   29.5530   46.7550 S   0  0  0  0  0  0  0  0  0  0  0  0
   60.6010   31.7090   51.0390 C   0  0  0  0  0  0  0  0  0  0  0  0
   60.3130   32.8790   50.0800 C   0  0  0  0  0  0  0  0  0  0  0  0
   63.8449   34.7472   46.9596 H   0  0  0  0  0  0  0  0  0  0  0  0
   64.1475   33.4958   45.7070 H   0  0  0  0  0  0  0  0  0  0  0  0
   62.6020   34.4112   45.7070 H   0  0  0  0  0  0  0  0  0  0  0  0
   62.5138   32.0603   46.5840 H   0  0  0  0  0  0  0  0  0  0  0  0
   63.3362   32.5653   49.3078 H   0  0  0  0  0  0  0  0  0  0  0  0
   63.8106   31.2551   48.1742 H   0  0  0  0  0  0  0  0  0  0  0  0
   64.7077   32.8113   48.1742 H   0  0  0  0  0  0  0  0  0  0  0  0
   61.0443   34.5668   45.4351 H   0  0  0  0  0  0  0  0  0  0  0  0
   58.7949   34.9721   44.4478 H   0  0  0  0  0  0  0  0  0  0  0  0
   56.7433   34.2363   45.6563 H   0  0  0  0  0  0  0  0  0  0  0  0
   56.9341   33.0988   47.8637 H   0  0  0  0  0  0  0  0  0  0  0  0
   57.6466   32.0308   50.5149 H   0  0  0  0  0  0  0  0  0  0  0  0
   57.4898   31.3869   48.8347 H   0  0  0  0  0  0  0  0  0  0  0  0
   58.3249   29.9013   50.9927 H   0  0  0  0  0  0  0  0  0  0  0  0
   58.7725   29.5792   49.2472 H   0  0  0  0  0  0  0  0  0  0  0  0
   61.3865   31.0162   48.7251 H   0  0  0  0  0  0  0  0  0  0  0  0
   62.0633   29.5928   49.6221 H   0  0  0  0  0  0  0  0  0  0  0  0
   60.3016   27.3297   49.5302 H   0  0  0  0  0  0  0  0  0  0  0  0
   58.9648   26.2227   47.5761 H   0  0  0  0  0  0  0  0  0  0  0  0
   58.5950   28.5564   44.4498 H   0  0  0  0  0  0  0  0  0  0  0  0
   58.7525   26.7921   44.8058 H   0  0  0  0  0  0  0  0  0  0  0  0
   58.6503   25.3069   45.9470 H   0  0  0  0  0  0  0  0  0  0  0  0
   59.3032   23.0463   45.1191 H   0  0  0  0  0  0  0  0  0  0  0  0
   58.4679   21.3011   42.9341 H   0  0  0  0  0  0  0  0  0  0  0  0
   58.1958   20.7336   44.6180 H   0  0  0  0  0  0  0  0  0  0  0  0
   56.7900   19.6110   43.4300 H   0  0  0  0  0  0  0  0  0  0  0  0
   55.3892   22.5746   43.3236 H   0  0  0  0  0  0  0  0  0  0  0  0
   54.7474   24.8468   44.1257 H   0  0  0  0  0  0  0  0  0  0  0  0
   59.9846   31.8302   51.9420 H   0  0  0  0  0  0  0  0  0  0  0  0
   61.6733   31.7266   51.2835 H   0  0  0  0  0  0  0  0  0  0  0  0
   60.0604   33.7744   50.6670 H   0  0  0  0  0  0  0  0  0  0  0  0
   61.2080   33.0664   49.4686 H   0  0  0  0  0  0  0  0  0  0  0  0
  1  2  1  0
  2  3  1  0
  2  4  1  0
  4  5  1  0
  5  6  2  0
  6  7  1  0
  7  8  2  0
  8  9  1  0
  9 10  2  0
 10 11  1  0
 11 12  1  0
 12 13  1  0
 13 14  1  0
 14 15  1  0
 15 16  1  0
 16 17  2  0
 17 18  1  0
 18 19  2  0
 19 20  1  0
 20 21  1  0
 21 22  1  0
 22 23  2  0
 22 24  1  0
 24 25  2  0
 25 26  1  0
 26 27  2  0
 27 28  1  0
 28 29  1  0
 27 30  1  0
 30 31  2  0
 19 32  1  0
 14 33  1  0
 33 34  1  0
 10  5  1  0
 34 11  1  0
 32 16  1  0
 31 24  1  0
  1 35  1  0
  1 36  1  0
  1 37  1  0
  2 38  1  0
  3 39  1  0
  3 40  1  0
  3 41  1  0
  6 42  1  0
  7 43  1  0
  8 44  1  0
  9 45  1  0
 12 46  1  0
 12 47  1  0
 13 48  1  0
 13 49  1  0
 15 50  1  0
 15 51  1  0
 17 52  1  0
 18 53  1  0
 20 54  1  0
 20 55  1  0
 25 56  1  0
 26 57  1  0
 28 58  1  0
 28 59  1  0
 29 60  1  0
 30 61  1  0
 31 62  1  0
 33 63  1  0
 33 64  1  0
 34 65  1  0
 34 66  1  0
M  CHG  1  21  -1
M  END
>  <UniqueID>  (9) 
9

>  <SMILES>  (9) 
CC(C)Oc1ccccc1N1CCN(Cc2ccc(C[N-]C(=O)c3ccc(CO)cc3)s2)CC1

>  <Energy>  (9) 
105.10211861391673

>  <Genealogy>  (9) 
CC(C)Oc1ccccc1N1CCN(Cc2ccc(C[N-]C(=O)c3ccc(CO)cc3)s2)CC1 (protonated)
CC(C)Oc1ccccc1N1CCN(Cc2ccc(C[N-]C(=O)c3ccc(CO)cc3)s2)CC1 (3D coordinates assigned)
CC(C)Oc1ccccc1N1CCN(Cc2ccc(C[N-]C(=O)c3ccc(CO)cc3)s2)CC1 (nonaromatic ring conformer: 105.10211861391673 kcal/mol)

>  <smiles>  (9) 
CC(C)Oc1ccccc1N1CCN(Cc2ccc(CNC(=O)c3ccc(CO)cc3)s2)CC1

>  <score_type>  (9) 
oracle

>  <origin>  (9) 
adg

>  <m_score__min__energy>  (9) 
-11.300000000000001

>  <m_primary>  (9) 
energy

$$$$
9:0
     RDKit          3D

 44 47  0  0  0  0  0  0  0  0999 V2000
   55.8360   31.9740   51.3620 H   0  0  0  0  0  0  0  0  0  0  0  0
   56.7010   31.3930   51.4370 N   0  0  0  0  0  0  0  0  0  0  0  0
   57.8460   31.7870   50.9750 C   0  0  0  0  0  0  0  0  0  0  0  0
   58.2850   33.0410   51.2620 N   0  0  0  0  0  0  0  0  0  0  0  0
   59.4760   33.5070   50.8000 C   0  0  0  0  0  0  0  0  0  0  0  0
   59.8003   34.5280   51.0499 H   0  0  0  0  0  0  0  0  0  0  0  0
   60.2870   32.6930   50.0100 C   0  0  0  0  0  0  0  0  0  0  0  0
   61.2460   33.0732   49.6282 H   0  0  0  0  0  0  0  0  0  0  0  0
   59.8750   31.3870   49.7040 C   0  0  0  0  0  0  0  0  0  0  0  0
   60.7390   30.5140   48.8230 C   0  0  0  0  0  0  0  0  0  0  0  0
   61.0792   29.6452   49.4056 H   0  0  0  0  0  0  0  0  0  0  0  0
   61.5931   31.1144   48.4765 H   0  0  0  0  0  0  0  0  0  0  0  0
   60.0020   30.0370   47.6400 N   0  0  0  0  0  0  0  0  0  0  0  0
   59.6270   30.7760   46.5650 C   0  0  0  0  0  0  0  0  0  0  0  0
   59.8620   32.2260   46.3870 C   0  0  0  0  0  0  0  0  0  0  0  0
   60.9760   32.7290   46.6860 O   0  0  0  0  0  0  0  0  0  0  0  0
   58.8300   33.0790   45.8860 N   0  0  0  0  0  0  0  0  0  0  0  0
   57.4700   32.9660   45.3290 C   0  0  0  0  0  0  0  0  0  0  0  0
   57.4250   32.3071   44.4493 H   0  0  0  0  0  0  0  0  0  0  0  0
   56.6979   32.5277   45.9784 H   0  0  0  0  0  0  0  0  0  0  0  0
   57.3220   34.4090   44.9760 C   0  0  0  0  0  0  0  0  0  0  0  0
   57.2384   34.6290   43.9015 H   0  0  0  0  0  0  0  0  0  0  0  0
   56.4768   35.0365   45.2952 H   0  0  0  0  0  0  0  0  0  0  0  0
   58.6970   34.5070   45.5490 C   0  0  0  0  0  0  0  0  0  0  0  0
   59.4415   34.8399   44.8109 H   0  0  0  0  0  0  0  0  0  0  0  0
   58.8489   35.2297   46.3643 H   0  0  0  0  0  0  0  0  0  0  0  0
   58.9570   29.9860   45.6540 C   0  0  0  0  0  0  0  0  0  0  0  0
   58.5172   30.3167   44.7015 H   0  0  0  0  0  0  0  0  0  0  0  0
   58.9420   28.7000   46.1630 C   0  0  0  0  0  0  0  0  0  0  0  0
   58.4240   27.6570   45.4850 C   0  0  0  0  0  0  0  0  0  0  0  0
   58.9536   27.3365   44.5757 H   0  0  0  0  0  0  0  0  0  0  0  0
   57.2110   26.9090   45.8550 C   0  0  0  0  0  0  0  0  0  0  0  0
   57.1970   25.6350   46.2870 N   0  0  0  0  0  0  0  0  0  0  0  0
   55.8800   25.3450   46.3590 C   0  0  0  0  0  0  0  0  0  0  0  0
   55.4530   24.2260   46.7460 O   0  0  0  0  0  0  0  0  0  0  0  0
   55.0580   26.3440   45.9720 N   0  0  0  0  0  0  0  0  0  0  0  0
   55.9180   27.3210   45.6430 C   0  0  0  0  0  0  0  0  0  0  0  0
   55.5290   28.5610   45.1540 O   0  0  0  0  0  0  0  0  0  0  0  0
   59.5580   28.7700   47.4210 C   0  0  0  0  0  0  0  0  0  0  0  0
   59.5950   27.8040   48.3530 C   0  0  0  0  0  0  0  0  0  0  0  0
   60.1129   27.9800   49.3073 H   0  0  0  0  0  0  0  0  0  0  0  0
   59.1074   26.8366   48.1621 H   0  0  0  0  0  0  0  0  0  0  0  0
   58.6330   30.9380   50.1820 C   0  0  0  0  0  0  0  0  0  0  0  0
   58.2790   29.9260   49.9360 H   0  0  0  0  0  0  0  0  0  0  0  0
  1  2  1  0
  2  3  2  3
  3  4  1  0
  4  5  1  0
  5  6  1  0
  5  7  2  0
  7  8  1  0
  7  9  1  0
  9 10  1  0
 10 11  1  0
 10 12  1  0
 10 13  1  0
 13 14  1  0
 14 15  1  0
 15 16  2  0
 15 17  1  0
 17 18  1  0
 18 19  1  0
 18 20  1  0
 18 21  1  0
 21 22  1  0
 21 23  1  0
 21 24  1  0
 24 25  1  0
 24 26  1  0
 14 27  2  0
 27 28  1  0
 27 29  1  0
 29 30  2  0
 30 31  1  0
 30 32  1  0
 32 33  1  0
 33 34  1  0
 34 35  2  0
 34 36  1  0
 36 37  1  0
 37 38  1  0
 29 39  1  0
 39 40  2  0
 40 41  1  0
 40 42  1  0
  9 43  2  0
 43 44  1  0
 43  3  1  0
 39 13  1  0
 24 17  1  0
 37 32  2  0
M  CHG  4   4  -1  33  -1  36  -1  38  -1
M  END
>  <UniqueID>  (10) 
10

>  <SMILES>  (10) 
C=c1/c(=C\c2[n-]c(=O)[n-]c2[O-])cc(C(=O)N2CCC2)n1Cc1cc[n-]c(=N)c1

>  <Energy>  (10) 
163.88729158642573

>  <Genealogy>  (10) 
C=c1c(=Cc2[n-]c(=O)[n-]c2[O-])cc(C(=O)N2CCC2)n1Cc1cc[n-]c(=N)c1 (protonated)
C=c1/c(=C\c2[n-]c(=O)[n-]c2[O-])cc(C(=O)N2CCC2)n1Cc1cc[n-]c(=N)c1 (cis-trans isomerization)
C=c1/c(=C\c2[n-]c(=O)[n-]c2[O-])cc(C(=O)N2CCC2)n1Cc1cc[n-]c(=N)c1 (3D coordinates assigned)
C=c1/c(=C\c2[n-]c(=O)[n-]c2[O-])cc(C(=O)N2CCC2)n1Cc1cc[n-]c(=N)c1 (nonaromatic ring conformer: 163.88729158642573 kcal/mol)

>  <smiles>  (10) 
C=c1c(=Cc2[nH]c(=O)[nH]c2O)cc(C(=O)N2CCC2)n1Cc1cc[nH]c(=N)c1

>  <score_type>  (10) 
oracle

>  <origin>  (10) 
adg

>  <m_score__min__energy>  (10) 
-16.940000000000001

>  <m_primary>  (10) 
energy

$$$$
10:0
     RDKit          3D

 38 40  0  0  0  0  0  0  0  0999 V2000
   59.2520   29.9020   44.4380 C   0  0  0  0  0  0  0  0  0  0  0  0
   59.0660   29.4680   45.6940 C   0  0  0  0  0  0  0  0  0  0  0  0
   58.2960   28.3690   46.1100 C   0  0  0  0  0  0  0  0  0  0  0  0
   57.7320   27.3710   45.4060 C   0  0  0  0  0  0  0  0  0  0  0  0
   57.1960   26.1230   45.9740 C   0  0  0  0  0  0  0  0  0  0  0  0
   57.9380   25.1090   46.4520 N   0  0  0  0  0  0  0  0  0  0  0  0
   57.0410   24.2620   46.9980 C   0  0  0  0  0  0  0  0  0  0  0  0
   57.3680   23.1780   47.5480 O   0  0  0  0  0  0  0  0  0  0  0  0
   55.7610   24.6870   46.9160 N   0  0  0  0  0  0  0  0  0  0  0  0
   55.8790   25.8690   46.2810 C   0  0  0  0  0  0  0  0  0  0  0  0
   54.8050   26.7020   45.9950 O   0  0  0  0  0  0  0  0  0  0  0  0
   58.1930   28.4680   47.4890 C   0  0  0  0  0  0  0  0  0  0  0  0
   58.9530   29.5550   47.8690 C   0  0  0  0  0  0  0  0  0  0  0  0
   59.0780   30.0600   49.2750 C   0  0  0  0  0  0  0  0  0  0  0  0
   59.4970   30.1510   46.7860 N   0  0  0  0  0  0  0  0  0  0  0  0
   60.2060   31.4010   46.7930 C   0  0  0  0  0  0  0  0  0  0  0  0
   61.4830   31.4330   47.3740 C   0  0  0  0  0  0  0  0  0  0  0  0
   62.1780   32.6360   47.4990 C   0  0  0  0  0  0  0  0  0  0  0  0
   63.7700   32.6570   48.2350 Cl  0  0  0  0  0  0  0  0  0  0  0  0
   61.5980   33.8230   47.0560 C   0  0  0  0  0  0  0  0  0  0  0  0
   60.3290   33.8100   46.4700 C   0  0  0  0  0  0  0  0  0  0  0  0
   59.6390   35.3260   45.9080 Cl  0  0  0  0  0  0  0  0  0  0  0  0
   59.6250   32.6040   46.3100 C   0  0  0  0  0  0  0  0  0  0  0  0
   58.3740   32.6720   45.6670 O   0  0  0  0  0  0  0  0  0  0  0  0
   57.1810   33.2320   46.2040 C   0  0  0  0  0  0  0  0  0  0  0  0
   59.8841   30.7820   44.2481 H   0  0  0  0  0  0  0  0  0  0  0  0
   58.7724   29.3778   43.5983 H   0  0  0  0  0  0  0  0  0  0  0  0
   57.6658   27.4980   44.3154 H   0  0  0  0  0  0  0  0  0  0  0  0
   58.9770   25.0130   46.4430 H   0  0  0  0  0  0  0  0  0  0  0  0
   57.6162   27.8070   48.1526 H   0  0  0  0  0  0  0  0  0  0  0  0
   58.8749   29.2394   49.9788 H   0  0  0  0  0  0  0  0  0  0  0  0
   60.0973   30.4398   49.4389 H   0  0  0  0  0  0  0  0  0  0  0  0
   58.3536   30.8714   49.4389 H   0  0  0  0  0  0  0  0  0  0  0  0
   61.9406   30.4999   47.7345 H   0  0  0  0  0  0  0  0  0  0  0  0
   62.1405   34.7734   47.1678 H   0  0  0  0  0  0  0  0  0  0  0  0
   57.2279   33.2100   47.3028 H   0  0  0  0  0  0  0  0  0  0  0  0
   57.0781   34.2725   45.8621 H   0  0  0  0  0  0  0  0  0  0  0  0
   56.3149   32.6464   45.8621 H   0  0  0  0  0  0  0  0  0  0  0  0
  1  2  2  0
  2  3  1  0
  3  4  2  3
  4  5  1  0
  5  6  1  0
  6  7  1  0
  7  8  2  0
  7  9  1  0
  9 10  1  0
 10 11  1  0
  3 12  1  0
 12 13  2  0
 13 14  1  0
 13 15  1  0
 15 16  1  0
 16 17  2  0
 17 18  1  0
 18 19  1  0
 18 20  2  0
 20 21  1  0
 21 22  1  0
 21 23  2  0
 23 24  1  0
 24 25  1  0
 15  2  1  0
 23 16  1  0
 10  5  2  0
  1 26  1  0
  1 27  1  0
  4 28  1  0
  6 29  1  0
 12 30  1  0
 14 31  1  0
 14 32  1  0
 14 33  1  0
 17 34  1  0
 20 35  1  0
 25 36  1  0
 25 37  1  0
 25 38  1  0
M  CHG  2   9  -1  11  -1
M  END
>  <UniqueID>  (11) 
11

>  <SMILES>  (11) 
C=c1c(=Cc2[nH]c(=O)[n-]c2[O-])cc(C)n1-c1cc(Cl)cc(Cl)c1OC

>  <Energy>  (11) 
119.72804587380715

>  <Genealogy>  (11) 
C=c1c(=Cc2[nH]c(=O)[n-]c2[O-])cc(C)n1-c1cc(Cl)cc(Cl)c1OC (protonated)
C=c1c(=Cc2[nH]c(=O)[n-]c2[O-])cc(C)n1-c1cc(Cl)cc(Cl)c1OC (3D coordinates assigned)
C=c1c(=Cc2[nH]c(=O)[n-]c2[O-])cc(C)n1-c1cc(Cl)cc(Cl)c1OC (optimized conformer: 119.72804587380715 kcal/mol)

>  <smiles>  (11) 
C=c1c(=Cc2[nH]c(=O)[nH]c2O)cc(C)n1-c1cc(Cl)cc(Cl)c1OC

>  <score_type>  (11) 
oracle

>  <origin>  (11) 
adg

>  <m_score__min__energy>  (11) 
-13.890000000000001

>  <m_primary>  (11) 
energy

$$$$
11:0
     RDKit          3D

 51 53  0  0  0  0  0  0  0  0999 V2000
   60.0310   30.0130   46.9350 C   0  0  0  0  0  0  0  0  0  0  0  0
   59.3600   28.7310   47.3440 C   0  0  0  0  0  0  0  0  0  0  0  0
   58.4710   28.7900   48.1800 O   0  0  0  0  0  0  0  0  0  0  0  0
   59.7480   27.4560   46.7570 N   0  0  1  0  0  0  0  0  0  0  0  0
   58.8120   26.3490   47.0700 C   0  0  0  0  0  0  0  0  0  0  0  0
   57.3360   26.5850   46.7000 C   0  0  0  0  0  0  0  0  0  0  0  0
   57.1210   26.8590   45.2160 C   0  0  0  0  0  0  0  0  0  0  0  0
   57.7110   28.1540   44.8400 N   0  0  0  0  0  0  0  0  0  0  0  0
   56.8730   29.3370   44.7920 C   0  0  0  0  0  0  0  0  0  0  0  0
   55.6660   29.2790   45.1520 O   0  0  0  0  0  0  0  0  0  0  0  0
   57.3800   30.6310   44.3000 C   0  0  0  0  0  0  0  0  0  0  0  0
   57.4010   30.8940   42.9240 C   0  0  0  0  0  0  0  0  0  0  0  0
   57.8730   32.1190   42.4520 C   0  0  0  0  0  0  0  0  0  0  0  0
   58.3170   33.0930   43.3510 C   0  0  0  0  0  0  0  0  0  0  0  0
   58.2850   32.8530   44.7300 C   0  0  0  0  0  0  0  0  0  0  0  0
   58.7430   33.8820   45.6160 N   0  0  0  0  0  0  0  0  0  0  0  0
   59.2210   33.6380   47.2650 S   0  0  0  0  0  0  0  0  0  0  0  0
   58.9310   34.8850   48.0500 O   0  0  0  0  0  0  0  0  0  0  0  0
   58.4690   32.4770   47.8480 O   0  0  0  0  0  0  0  0  0  0  0  0
   60.9450   33.2910   47.3390 C   0  0  0  0  0  0  0  0  0  0  0  0
   61.4500   32.4670   48.3570 C   0  0  0  0  0  0  0  0  0  0  0  0
   62.8160   32.1700   48.4070 C   0  0  0  0  0  0  0  0  0  0  0  0
   63.6820   32.6900   47.4410 C   0  0  0  0  0  0  0  0  0  0  0  0
   63.1830   33.5090   46.4230 C   0  0  0  0  0  0  0  0  0  0  0  0
   61.8180   33.8060   46.3700 C   0  0  0  0  0  0  0  0  0  0  0  0
   57.8030   31.6190   45.2020 C   0  0  0  0  0  0  0  0  0  0  0  0
   59.1160   28.2410   44.3980 C   0  0  0  0  0  0  0  0  0  0  0  0
   60.1360   27.5460   45.3270 C   0  0  0  0  0  0  0  0  0  0  0  0
   60.3254   30.5755   47.8333 H   0  0  0  0  0  0  0  0  0  0  0  0
   60.9250   29.7842   46.3363 H   0  0  0  0  0  0  0  0  0  0  0  0
   59.3335   30.6171   46.3363 H   0  0  0  0  0  0  0  0  0  0  0  0
   60.6310   27.1660   47.2410 H   0  0  0  0  0  0  0  0  0  0  0  0
   59.1555   25.4552   46.5285 H   0  0  0  0  0  0  0  0  0  0  0  0
   58.8296   26.2479   48.1652 H   0  0  0  0  0  0  0  0  0  0  0  0
   56.7596   25.6898   46.9765 H   0  0  0  0  0  0  0  0  0  0  0  0
   57.0027   27.4791   47.2473 H   0  0  0  0  0  0  0  0  0  0  0  0
   57.5964   26.0602   44.6278 H   0  0  0  0  0  0  0  0  0  0  0  0
   56.0404   26.8880   45.0125 H   0  0  0  0  0  0  0  0  0  0  0  0
   57.0445   30.1329   42.2143 H   0  0  0  0  0  0  0  0  0  0  0  0
   57.8958   32.3188   41.3705 H   0  0  0  0  0  0  0  0  0  0  0  0
   58.6941   34.0545   42.9725 H   0  0  0  0  0  0  0  0  0  0  0  0
   60.7703   32.0540   49.1169 H   0  0  0  0  0  0  0  0  0  0  0  0
   63.2092   31.5263   49.2077 H   0  0  0  0  0  0  0  0  0  0  0  0
   64.7559   32.4551   47.4814 H   0  0  0  0  0  0  0  0  0  0  0  0
   63.8649   33.9196   45.6638 H   0  0  0  0  0  0  0  0  0  0  0  0
   61.4273   34.4460   45.5652 H   0  0  0  0  0  0  0  0  0  0  0  0
   57.7574   31.4273   46.2842 H   0  0  0  0  0  0  0  0  0  0  0  0
   59.1901   27.7783   43.4028 H   0  0  0  0  0  0  0  0  0  0  0  0
   59.3744   29.3102   44.4024 H   0  0  0  0  0  0  0  0  0  0  0  0
   60.2904   26.5228   44.9538 H   0  0  0  0  0  0  0  0  0  0  0  0
   61.0401   28.1720   45.3007 H   0  0  0  0  0  0  0  0  0  0  0  0
  1  2  1  0
  2  3  2  0
  2  4  1  0
  4  5  1  0
  5  6  1  0
  6  7  1  0
  7  8  1  0
  8  9  1  0
  9 10  2  0
  9 11  1  0
 11 12  2  0
 12 13  1  0
 13 14  2  0
 14 15  1  0
 15 16  1  0
 16 17  1  0
 17 18  2  0
 17 19  2  0
 17 20  1  0
 20 21  2  0
 21 22  1  0
 22 23  2  0
 23 24  1  0
 24 25  2  0
 15 26  2  0
  8 27  1  0
 27 28  1  0
 28  4  1  0
 26 11  1  0
 25 20  1  0
  1 29  1  0
  1 30  1  0
  1 31  1  0
  4 32  1  1
  5 33  1  0
  5 34  1  0
  6 35  1  0
  6 36  1  0
  7 37  1  0
  7 38  1  0
 12 39  1  0
 13 40  1  0
 14 41  1  0
 21 42  1  0
 22 43  1  0
 23 44  1  0
 24 45  1  0
 25 46  1  0
 26 47  1  0
 27 48  1  0
 27 49  1  0
 28 50  1  0
 28 51  1  0
M  CHG  2   4   1  16  -1
M  END
>  <UniqueID>  (12) 
12

>  <SMILES>  (12) 
CC(=O)[N@H+]1CCCN(C(=O)c2cccc([N-]S(=O)(=O)c3ccccc3)c2)CC1

>  <Energy>  (12) 
73.18429375375779

>  <Genealogy>  (12) 
CC(=O)[NH+]1CCCN(C(=O)c2cccc([N-]S(=O)(=O)c3ccccc3)c2)CC1 (protonated)
CC(=O)[N@H+]1CCCN(C(=O)c2cccc([N-]S(=O)(=O)c3ccccc3)c2)CC1 (chirality)
CC(=O)[N@H+]1CCCN(C(=O)c2cccc([N-]S(=O)(=O)c3ccccc3)c2)CC1 (3D coordinates assigned)
CC(=O)[N@H+]1CCCN(C(=O)c2cccc([N-]S(=O)(=O)c3ccccc3)c2)CC1 (nonaromatic ring conformer: 73.18429375375779 kcal/mol)

>  <smiles>  (12) 
CC(=O)N1CCCN(C(=O)c2cccc(NS(=O)(=O)c3ccccc3)c2)CC1

>  <score_type>  (12) 
oracle

>  <origin>  (12) 
adg

>  <m_score__min__energy>  (12) 
-7.21

>  <m_primary>  (12) 
energy

$$$$
12:0
     RDKit          3D

 55 59  0  0  0  0  0  0  0  0999 V2000
   59.6380   29.7240   44.6070 C   0  0  0  0  0  0  0  0  0  0  0  0
   59.5980   29.2500   45.8640 C   0  0  0  0  0  0  0  0  0  0  0  0
   58.6340   28.3700   46.3850 C   0  0  0  0  0  0  0  0  0  0  0  0
   57.7010   27.6140   45.7730 C   0  0  0  0  0  0  0  0  0  0  0  0
   57.2020   26.3120   46.2490 C   0  0  0  0  0  0  0  0  0  0  0  0
   57.9650   25.3550   46.8100 N   0  0  0  0  0  0  0  0  0  0  0  0
   57.0640   24.4320   47.2100 C   0  0  0  0  0  0  0  0  0  0  0  0
   57.3980   23.3600   47.7760 O   0  0  0  0  0  0  0  0  0  0  0  0
   55.7760   24.7560   46.9660 N   0  0  0  0  0  0  0  0  0  0  0  0
   55.8820   25.9540   46.3710 C   0  0  0  0  0  0  0  0  0  0  0  0
   54.7930   26.7100   45.9530 O   0  0  0  0  0  0  0  0  0  0  0  0
   58.8120   28.3660   47.7540 C   0  0  0  0  0  0  0  0  0  0  0  0
   59.8950   29.1750   48.0170 C   0  0  0  0  0  0  0  0  0  0  0  0
   60.3890   29.4460   49.3790 C   0  0  0  0  0  0  0  0  0  0  0  0
   61.2410   28.6540   49.8690 O   0  0  0  0  0  0  0  0  0  0  0  0
   59.8840   30.5490   50.1680 N   0  0  0  0  0  0  0  0  0  0  0  0
   60.4790   30.8200   51.4900 C   0  0  0  0  0  0  0  0  0  0  0  0
   60.4820   32.3220   51.8000 C   0  0  0  0  0  0  0  0  0  0  0  0
   59.1470   32.9240   51.4770 C   0  0  0  0  0  0  0  0  0  0  0  0
   58.6230   33.7170   52.2440 O   0  0  0  0  0  0  0  0  0  0  0  0
   58.5130   32.6100   50.1560 C   0  0  0  0  0  0  0  0  0  0  0  0
   58.5420   31.1010   49.9050 C   0  0  0  0  0  0  0  0  0  0  0  0
   60.3950   29.7020   46.8730 N   0  0  0  0  0  0  0  0  0  0  0  0
   61.6520   30.4660   46.7620 C   0  0  0  0  0  0  0  0  0  0  0  0
   61.4840   31.8470   47.3760 C   0  0  0  0  0  0  0  0  0  0  0  0
   62.3950   32.2090   48.3860 C   0  0  0  0  0  0  0  0  0  0  0  0
   62.2710   33.4130   49.0750 C   0  0  0  0  0  0  0  0  0  0  0  0
   61.2340   34.2890   48.7750 C   0  0  0  0  0  0  0  0  0  0  0  0
   60.3170   33.9760   47.7640 C   0  0  0  0  0  0  0  0  0  0  0  0
   59.2820   34.8790   47.4670 C   0  0  0  0  0  0  0  0  0  0  0  0
   58.3710   34.5960   46.4530 C   0  0  0  0  0  0  0  0  0  0  0  0
   58.4870   33.4180   45.7200 C   0  0  0  0  0  0  0  0  0  0  0  0
   59.5090   32.5090   46.0010 C   0  0  0  0  0  0  0  0  0  0  0  0
   60.4360   32.7550   47.0390 C   0  0  0  0  0  0  0  0  0  0  0  0
   60.4416   30.4112   44.3036 H   0  0  0  0  0  0  0  0  0  0  0  0
   58.8672   29.4248   43.8816 H   0  0  0  0  0  0  0  0  0  0  0  0
   57.2749   28.0030   44.8364 H   0  0  0  0  0  0  0  0  0  0  0  0
   58.2055   27.8214   48.4926 H   0  0  0  0  0  0  0  0  0  0  0  0
   59.8947   30.2958   52.2606 H   0  0  0  0  0  0  0  0  0  0  0  0
   61.5197   30.4639   51.4829 H   0  0  0  0  0  0  0  0  0  0  0  0
   60.6983   32.4714   52.8681 H   0  0  0  0  0  0  0  0  0  0  0  0
   61.2526   32.8119   51.1867 H   0  0  0  0  0  0  0  0  0  0  0  0
   57.4695   32.9581   50.1612 H   0  0  0  0  0  0  0  0  0  0  0  0
   59.0730   33.1189   49.3576 H   0  0  0  0  0  0  0  0  0  0  0  0
   57.8148   30.6114   50.5694 H   0  0  0  0  0  0  0  0  0  0  0  0
   58.2861   30.9152   48.8514 H   0  0  0  0  0  0  0  0  0  0  0  0
   62.4520   29.9279   47.2916 H   0  0  0  0  0  0  0  0  0  0  0  0
   61.9124   30.5755   45.6989 H   0  0  0  0  0  0  0  0  0  0  0  0
   63.2214   31.5274   48.6361 H   0  0  0  0  0  0  0  0  0  0  0  0
   62.9968   33.6719   49.8600 H   0  0  0  0  0  0  0  0  0  0  0  0
   61.1335   35.2312   49.3337 H   0  0  0  0  0  0  0  0  0  0  0  0
   59.1912   35.8144   48.0387 H   0  0  0  0  0  0  0  0  0  0  0  0
   57.5588   35.3038   46.2307 H   0  0  0  0  0  0  0  0  0  0  0  0
   57.7693   33.2021   44.9148 H   0  0  0  0  0  0  0  0  0  0  0  0
   59.5938   31.5879   45.4057 H   0  0  0  0  0  0  0  0  0  0  0  0
  1  2  2  0
  2  3  1  0
  3  4  2  3
  4  5  1  0
  5  6  1  0
  6  7  1  0
  7  8  2  0
  7  9  1  0
  9 10  1  0
 10 11  1  0
  3 12  1  0
 12 13  2  0
 13 14  1  0
 14 15  2  0
 14 16  1  0
 16 17  1  0
 17 18  1  0
 18 19  1  0
 19 20  2  0
 19 21  1  0
 21 22  1  0
 13 23  1  0
 23 24  1  0
 24 25  1  0
 25 26  2  0
 26 27  1  0
 27 28  2  0
 28 29  1  0
 29 30  2  0
 30 31  1  0
 31 32  2  0
 32 33  1  0
 33 34  2  0
 23  2  1  0
 34 25  1  0
 10  5  2  0
 22 16  1  0
 34 29  1  0
  1 35  1  0
  1 36  1  0
  4 37  1  0
 12 38  1  0
 17 39  1  0
 17 40  1  0
 18 41  1  0
 18 42  1  0
 21 43  1  0
 21 44  1  0
 22 45  1  0
 22 46  1  0
 24 47  1  0
 24 48  1  0
 26 49  1  0
 27 50  1  0
 28 51  1  0
 30 52  1  0
 31 53  1  0
 32 54  1  0
 33 55  1  0
M  CHG  3   6  -1   9  -1  11  -1
M  END
>  <UniqueID>  (13) 
13

>  <SMILES>  (13) 
C=c1c(=Cc2[n-]c(=O)[n-]c2[O-])cc(C(=O)N2CCC(=O)CC2)n1Cc1cccc2ccccc12

>  <Energy>  (13) 
141.4945173146248

>  <Genealogy>  (13) 
C=c1c(=Cc2[n-]c(=O)[n-]c2[O-])cc(C(=O)N2CCC(=O)CC2)n1Cc1cccc2ccccc12 (protonated)
C=c1c(=Cc2[n-]c(=O)[n-]c2[O-])cc(C(=O)N2CCC(=O)CC2)n1Cc1cccc2ccccc12 (3D coordinates assigned)
C=c1c(=Cc2[n-]c(=O)[n-]c2[O-])cc(C(=O)N2CCC(=O)CC2)n1Cc1cccc2ccccc12 (nonaromatic ring conformer: 141.4945173146248 kcal/mol)

>  <smiles>  (13) 
C=c1c(=Cc2[nH]c(=O)[nH]c2O)cc(C(=O)N2CCC(=O)CC2)n1Cc1cccc2ccccc12

>  <score_type>  (13) 
oracle

>  <origin>  (13) 
adg

>  <m_score__min__energy>  (13) 
-16.620000000000001

>  <m_primary>  (13) 
energy

$$$$
13:0
     RDKit          3D

 58 60  0  0  0  0  0  0  0  0999 V2000
   56.9460   29.8360   52.4620 C   0  0  0  0  0  0  0  0  0  0  0  0
   56.4400   31.1640   51.9130 C   0  0  0  0  0  0  0  0  0  0  0  0
   57.5870   32.0900   51.6110 C   0  0  0  0  0  0  0  0  0  0  0  0
   57.8320   33.2050   52.4270 C   0  0  0  0  0  0  0  0  0  0  0  0
   58.9120   34.0500   52.1590 C   0  0  0  0  0  0  0  0  0  0  0  0
   59.7480   33.7930   51.0680 C   0  0  0  0  0  0  0  0  0  0  0  0
   59.4910   32.7100   50.2210 C   0  0  0  0  0  0  0  0  0  0  0  0
   60.3830   32.4550   49.1280 N   0  0  0  0  0  0  0  0  0  0  0  0
   61.0160   31.1970   48.8580 C   0  0  0  0  0  0  0  0  0  0  0  0
   62.2170   31.0410   49.2050 O   0  0  0  0  0  0  0  0  0  0  0  0
   60.3190   30.1160   48.1200 C   0  0  0  0  0  0  0  0  0  0  0  0
   60.6720   29.8270   46.7900 C   0  0  0  0  0  0  0  0  0  0  0  0
   59.9590   28.8730   46.0570 C   0  0  0  0  0  0  0  0  0  0  0  0
   58.8770   28.1930   46.6370 C   0  0  0  0  0  0  0  0  0  0  0  0
   58.0390   27.2520   45.8110 C   0  0  0  0  0  0  0  0  0  0  0  0
   56.6940   27.7820   45.6040 N   0  0  0  0  0  0  0  0  0  0  0  0
   56.3600   28.9920   44.9130 C   0  0  0  0  0  0  0  0  0  0  0  0
   55.1460   29.3260   44.8510 O   0  0  0  0  0  0  0  0  0  0  0  0
   57.3990   29.8190   44.1930 C   0  0  0  0  0  0  0  0  0  0  0  0
   56.8940   31.2220   43.8020 C   0  0  0  0  0  0  0  0  0  0  0  0
   57.2630   32.2670   44.7840 N   0  0  0  0  0  0  0  0  0  0  0  0
   57.9020   31.6520   45.9660 C   0  0  0  0  0  0  0  0  0  0  0  0
   58.0390   32.6830   47.1030 C   0  0  0  0  0  0  0  0  0  0  0  0
   58.1570   34.1240   46.5770 C   0  0  0  0  0  0  0  0  0  0  0  0
   58.8830   34.1560   45.2310 C   0  0  0  0  0  0  0  0  0  0  0  0
   58.1440   33.2980   44.1800 C   0  0  0  0  0  0  0  0  0  0  0  0
   58.5270   28.4750   47.9680 C   0  0  0  0  0  0  0  0  0  0  0  0
   59.2440   29.4220   48.7040 C   0  0  0  0  0  0  0  0  0  0  0  0
   58.4080   31.8570   50.4940 C   0  0  0  0  0  0  0  0  0  0  0  0
   56.9347   29.8656   53.5615 H   0  0  0  0  0  0  0  0  0  0  0  0
   56.2950   29.0220   52.1104 H   0  0  0  0  0  0  0  0  0  0  0  0
   57.9736   29.6616   52.1104 H   0  0  0  0  0  0  0  0  0  0  0  0
   55.8728   30.9794   50.9888 H   0  0  0  0  0  0  0  0  0  0  0  0
   55.7963   31.6358   52.6700 H   0  0  0  0  0  0  0  0  0  0  0  0
   57.1712   33.4146   53.2810 H   0  0  0  0  0  0  0  0  0  0  0  0
   59.1047   34.9180   52.8067 H   0  0  0  0  0  0  0  0  0  0  0  0
   60.6121   34.4458   50.8749 H   0  0  0  0  0  0  0  0  0  0  0  0
   61.5158   30.3555   46.3223 H   0  0  0  0  0  0  0  0  0  0  0  0
   60.2483   28.6541   45.0185 H   0  0  0  0  0  0  0  0  0  0  0  0
   58.5214   27.1070   44.8331 H   0  0  0  0  0  0  0  0  0  0  0  0
   57.9566   26.2965   46.3498 H   0  0  0  0  0  0  0  0  0  0  0  0
   58.2729   29.9329   44.8513 H   0  0  0  0  0  0  0  0  0  0  0  0
   57.6496   29.2904   43.2615 H   0  0  0  0  0  0  0  0  0  0  0  0
   57.3259   31.4902   42.8265 H   0  0  0  0  0  0  0  0  0  0  0  0
   55.7954   31.1773   43.7679 H   0  0  0  0  0  0  0  0  0  0  0  0
   57.2858   30.8097   46.3134 H   0  0  0  0  0  0  0  0  0  0  0  0
   58.9045   31.2976   45.6844 H   0  0  0  0  0  0  0  0  0  0  0  0
   57.1524   32.6148   47.7505 H   0  0  0  0  0  0  0  0  0  0  0  0
   58.9610   32.4514   47.6564 H   0  0  0  0  0  0  0  0  0  0  0  0
   57.1487   34.5456   46.4524 H   0  0  0  0  0  0  0  0  0  0  0  0
   58.7344   34.7166   47.3019 H   0  0  0  0  0  0  0  0  0  0  0  0
   58.9338   35.1955   44.8748 H   0  0  0  0  0  0  0  0  0  0  0  0
   59.8939   33.7449   45.3694 H   0  0  0  0  0  0  0  0  0  0  0  0
   57.5283   33.9625   43.5561 H   0  0  0  0  0  0  0  0  0  0  0  0
   58.9089   32.7710   43.5907 H   0  0  0  0  0  0  0  0  0  0  0  0
   57.6824   27.9465   48.4342 H   0  0  0  0  0  0  0  0  0  0  0  0
   58.9655   29.6263   49.7484 H   0  0  0  0  0  0  0  0  0  0  0  0
   58.2020   31.0037   49.8311 H   0  0  0  0  0  0  0  0  0  0  0  0
  1  2  1  0
  2  3  1  0
  3  4  2  0
  4  5  1  0
  5  6  2  0
  6  7  1  0
  7  8  1  0
  8  9  1  0
  9 10  2  0
  9 11  1  0
 11 12  2  0
 12 13  1  0
 13 14  2  0
 14 15  1  0
 15 16  1  0
 16 17  1  0
 17 18  2  0
 17 19  1  0
 19 20  1  0
 20 21  1  0
 21 22  1  0
 22 23  1  0
 23 24  1  0
 24 25  1  0
 25 26  1  0
 14 27  1  0
 27 28  2  0
  7 29  2  0
 29  3  1  0
 28 11  1  0
 26 21  1  0
  1 30  1  0
  1 31  1  0
  1 32  1  0
  2 33  1  0
  2 34  1  0
  4 35  1  0
  5 36  1  0
  6 37  1  0
 12 38  1  0
 13 39  1  0
 15 40  1  0
 15 41  1  0
 19 42  1  0
 19 43  1  0
 20 44  1  0
 20 45  1  0
 22 46  1  0
 22 47  1  0
 23 48  1  0
 23 49  1  0
 24 50  1  0
 24 51  1  0
 25 52  1  0
 25 53  1  0
 26 54  1  0
 26 55  1  0
 27 56  1  0
 28 57  1  0
 29 58  1  0
M  CHG  2   8  -1  16  -1
M  END
>  <UniqueID>  (14) 
14

>  <SMILES>  (14) 
CCc1cccc([N-]C(=O)c2ccc(C[N-]C(=O)CCN3CCCCC3)cc2)c1

>  <Energy>  (14) 
63.36091817530009

>  <Genealogy>  (14) 
CCc1cccc([N-]C(=O)c2ccc(C[N-]C(=O)CCN3CCCCC3)cc2)c1 (protonated)
CCc1cccc([N-]C(=O)c2ccc(C[N-]C(=O)CCN3CCCCC3)cc2)c1 (3D coordinates assigned)
CCc1cccc([N-]C(=O)c2ccc(C[N-]C(=O)CCN3CCCCC3)cc2)c1 (nonaromatic ring conformer: 63.36091817530009 kcal/mol)

>  <smiles>  (14) 
CCc1cccc(NC(=O)c2ccc(CNC(=O)CCN3CCCCC3)cc2)c1

>  <score_type>  (14) 
oracle

>  <origin>  (14) 
adg

>  <m_score__min__energy>  (14) 
-11.609999999999999

>  <m_primary>  (14) 
energy

$$$$
14:0
     RDKit          3D

 53 56  0  0  0  0  0  0  0  0999 V2000
   53.7980   29.0450   54.5640 C   0  0  0  0  0  0  0  0  0  0  0  0
   54.3330   29.9110   53.6870 C   0  0  0  0  0  0  0  0  0  0  0  0
   53.6420   30.5450   52.6470 C   0  0  0  0  0  0  0  0  0  0  0  0
   52.3540   30.3670   52.2900 C   0  0  0  0  0  0  0  0  0  0  0  0
   51.7780   30.8360   51.0170 C   0  0  0  0  0  0  0  0  0  0  0  0
   51.6540   30.0550   49.9290 N   0  0  0  0  0  0  0  0  0  0  0  0
   51.0110   30.8460   49.0450 C   0  0  0  0  0  0  0  0  0  0  0  0
   50.7220   30.4660   47.8800 O   0  0  0  0  0  0  0  0  0  0  0  0
   50.6940   32.0740   49.5080 N   0  0  0  0  0  0  0  0  0  0  0  0
   51.1740   32.0490   50.7610 C   0  0  0  0  0  0  0  0  0  0  0  0
   51.0190   33.0950   51.6640 O   0  0  0  0  0  0  0  0  0  0  0  0
   54.5590   31.3630   52.0080 C   0  0  0  0  0  0  0  0  0  0  0  0
   55.7580   31.2010   52.6660 C   0  0  0  0  0  0  0  0  0  0  0  0
   56.9990   31.8870   52.2660 C   0  0  0  0  0  0  0  0  0  0  0  0
   57.5120   32.7200   53.0640 O   0  0  0  0  0  0  0  0  0  0  0  0
   57.5180   31.7470   50.9230 N   0  0  0  0  0  0  0  0  0  0  0  0
   57.9490   30.3490   50.6400 C   0  0  0  0  0  0  0  0  0  0  0  0
   59.4760   30.1890   50.6590 C   0  0  0  0  0  0  0  0  0  0  0  0
   60.1170   31.0630   49.6500 N   0  0  0  0  0  0  0  0  0  0  0  0
   61.5510   31.2120   49.9430 C   0  0  0  0  0  0  0  0  0  0  0  0
   59.4550   32.3830   49.4960 C   0  0  0  0  0  0  0  0  0  0  0  0
   58.5890   32.7500   50.7100 C   0  0  0  0  0  0  0  0  0  0  0  0
   55.6320   30.3260   53.6940 N   0  0  0  0  0  0  0  0  0  0  0  0
   56.6960   29.9870   54.6590 C   0  0  0  0  0  0  0  0  0  0  0  0
   57.3380   28.6600   54.3290 C   0  0  0  0  0  0  0  0  0  0  0  0
   56.6330   27.4670   54.5700 C   0  0  0  0  0  0  0  0  0  0  0  0
   57.2150   26.2290   54.2820 C   0  0  0  0  0  0  0  0  0  0  0  0
   58.5120   26.1680   53.7680 C   0  0  0  0  0  0  0  0  0  0  0  0
   59.0760   24.9650   53.4930 F   0  0  0  0  0  0  0  0  0  0  0  0
   59.2340   27.3440   53.5540 C   0  0  0  0  0  0  0  0  0  0  0  0
   58.6580   28.5870   53.8390 C   0  0  0  0  0  0  0  0  0  0  0  0
   59.3930   29.7090   53.6480 F   0  0  0  0  0  0  0  0  0  0  0  0
   54.4262   28.5983   55.3487 H   0  0  0  0  0  0  0  0  0  0  0  0
   52.7318   28.7827   54.4973 H   0  0  0  0  0  0  0  0  0  0  0  0
   51.6922   29.8391   52.9923 H   0  0  0  0  0  0  0  0  0  0  0  0
   54.3670   32.0152   51.1432 H   0  0  0  0  0  0  0  0  0  0  0  0
   56.7500   31.9780   50.2500 H   0  0  0  0  0  0  0  0  0  0  0  0
   57.5153   29.6850   51.4022 H   0  0  0  0  0  0  0  0  0  0  0  0
   57.5983   30.0891   49.6303 H   0  0  0  0  0  0  0  0  0  0  0  0
   59.8527   30.4567   51.6572 H   0  0  0  0  0  0  0  0  0  0  0  0
   59.7204   29.1433   50.4207 H   0  0  0  0  0  0  0  0  0  0  0  0
   61.7030   31.2278   51.0323 H   0  0  0  0  0  0  0  0  0  0  0  0
   62.1039   30.3665   49.5079 H   0  0  0  0  0  0  0  0  0  0  0  0
   61.9183   32.1531   49.5079 H   0  0  0  0  0  0  0  0  0  0  0  0
   60.2295   33.1537   49.3689 H   0  0  0  0  0  0  0  0  0  0  0  0
   58.7944   32.3260   48.6183 H   0  0  0  0  0  0  0  0  0  0  0  0
   59.2256   32.7920   51.6061 H   0  0  0  0  0  0  0  0  0  0  0  0
   58.1207   33.7276   50.5230 H   0  0  0  0  0  0  0  0  0  0  0  0
   57.4654   30.7727   54.6339 H   0  0  0  0  0  0  0  0  0  0  0  0
   56.2449   29.9137   55.6596 H   0  0  0  0  0  0  0  0  0  0  0  0
   55.6164   27.5084   54.9881 H   0  0  0  0  0  0  0  0  0  0  0  0
   56.6506   25.3018   54.4605 H   0  0  0  0  0  0  0  0  0  0  0  0
   60.2597   27.2930   53.1598 H   0  0  0  0  0  0  0  0  0  0  0  0
  1  2  2  0
  2  3  1  0
  3  4  2  3
  4  5  1  0
  5  6  1  0
  6  7  1  0
  7  8  2  0
  7  9  1  0
  9 10  1  0
 10 11  1  0
  3 12  1  0
 12 13  2  0
 13 14  1  0
 14 15  2  0
 14 16  1  0
 16 17  1  0
 17 18  1  0
 18 19  1  0
 19 20  1  0
 19 21  1  0
 21 22  1  0
 13 23  1  0
 23 24  1  0
 24 25  1  0
 25 26  2  0
 26 27  1  0
 27 28  2  0
 28 29  1  0
 28 30  1  0
 30 31  2  0
 31 32  1  0
 23  2  1  0
 31 25  1  0
 10  5  2  0
 22 16  1  0
  1 33  1  0
  1 34  1  0
  4 35  1  0
 12 36  1  0
 16 37  1  0
 17 38  1  0
 17 39  1  0
 18 40  1  0
 18 41  1  0
 20 42  1  0
 20 43  1  0
 20 44  1  0
 21 45  1  0
 21 46  1  0
 22 47  1  0
 22 48  1  0
 24 49  1  0
 24 50  1  0
 26 51  1  0
 27 52  1  0
 30 53  1  0
M  CHG  4   6  -1   9  -1  11  -1  16   1
M  END
>  <UniqueID>  (15) 
15

>  <SMILES>  (15) 
C=c1c(=Cc2[n-]c(=O)[n-]c2[O-])cc(C(=O)[NH+]2CCN(C)CC2)n1Cc1ccc(F)cc1F

>  <Energy>  (15) 
142.43877730759016

>  <Genealogy>  (15) 
C=c1c(=Cc2[n-]c(=O)[n-]c2[O-])cc(C(=O)[NH+]2CCN(C)CC2)n1Cc1ccc(F)cc1F (protonated)
C=c1c(=Cc2[n-]c(=O)[n-]c2[O-])cc(C(=O)[NH+]2CCN(C)CC2)n1Cc1ccc(F)cc1F (3D coordinates assigned)
C=c1c(=Cc2[n-]c(=O)[n-]c2[O-])cc(C(=O)[NH+]2CCN(C)CC2)n1Cc1ccc(F)cc1F (nonaromatic ring conformer: 142.43877730759016 kcal/mol)

>  <smiles>  (15) 
C=c1c(=Cc2[nH]c(=O)[nH]c2O)cc(C(=O)N2CCN(C)CC2)n1Cc1ccc(F)cc1F

>  <score_type>  (15) 
oracle

>  <origin>  (15) 
adg

>  <m_score__min__energy>  (15) 
-15.369999999999999

>  <m_primary>  (15) 
energy

$$$$
15:0
     RDKit          3D

 50 53  0  0  0  0  0  0  0  0999 V2000
   53.1560   19.2260   46.0760 C   0  0  0  0  0  0  0  0  0  0  0  0
   54.4380   19.3310   45.7130 C   0  0  0  0  0  0  0  0  0  0  0  0
   55.2180   20.5980   45.7080 C   0  0  0  0  0  0  0  0  0  0  0  0
   56.6150   20.5180   45.5880 C   0  0  0  0  0  0  0  0  0  0  0  0
   57.4000   21.6730   45.5670 C   0  0  0  0  0  0  0  0  0  0  0  0
   56.8020   22.9310   45.6570 C   0  0  0  0  0  0  0  0  0  0  0  0
   57.5610   24.0220   45.6300 O   0  0  0  0  0  0  0  0  0  0  0  0
   57.0640   25.2530   45.7080 C   0  0  0  0  0  0  0  0  0  0  0  0
   57.9980   26.3960   45.6590 C   0  0  0  0  0  0  0  0  0  0  0  0
   59.1870   26.3520   46.4020 C   0  0  0  0  0  0  0  0  0  0  0  0
   60.0770   27.4300   46.3720 C   0  0  0  0  0  0  0  0  0  0  0  0
   59.7940   28.5510   45.5850 C   0  0  0  0  0  0  0  0  0  0  0  0
   58.6280   28.5980   44.8110 C   0  0  0  0  0  0  0  0  0  0  0  0
   58.3890   29.7560   44.0010 N   0  0  0  0  0  0  0  0  0  0  0  0
   57.4270   31.1230   44.4640 S   0  0  0  0  0  0  0  0  0  0  0  0
   57.3210   32.0670   43.3000 O   0  0  0  0  0  0  0  0  0  0  0  0
   56.0440   30.6550   44.8290 O   0  0  0  0  0  0  0  0  0  0  0  0
   58.1860   31.9670   45.8110 C   0  0  0  0  0  0  0  0  0  0  0  0
   58.4740   33.3310   45.6970 C   0  0  0  0  0  0  0  0  0  0  0  0
   59.0730   34.0170   46.7570 C   0  0  0  0  0  0  0  0  0  0  0  0
   59.3940   33.3450   47.9530 C   0  0  0  0  0  0  0  0  0  0  0  0
   60.0150   34.0600   49.1000 C   0  0  0  0  0  0  0  0  0  0  0  0
   61.4880   34.3350   49.1570 C   0  0  0  0  0  0  0  0  0  0  0  0
   59.2910   34.4520   50.0570 O   0  0  0  0  0  0  0  0  0  0  0  0
   59.1070   31.9700   48.0550 C   0  0  0  0  0  0  0  0  0  0  0  0
   58.5030   31.2890   46.9950 C   0  0  0  0  0  0  0  0  0  0  0  0
   57.7350   27.5120   44.8480 C   0  0  0  0  0  0  0  0  0  0  0  0
   55.6760   25.4400   45.8480 C   0  0  0  0  0  0  0  0  0  0  0  0
   55.1380   26.7150   45.9940 O   0  0  0  0  0  0  0  0  0  0  0  0
   54.8390   24.3210   45.8720 C   0  0  0  0  0  0  0  0  0  0  0  0
   53.5920   24.4770   45.9940 O   0  0  0  0  0  0  0  0  0  0  0  0
   55.3980   23.0380   45.7710 C   0  0  0  0  0  0  0  0  0  0  0  0
   54.6120   21.8700   45.7900 C   0  0  0  0  0  0  0  0  0  0  0  0
   52.6553   18.2469   46.0495 H   0  0  0  0  0  0  0  0  0  0  0  0
   52.6016   20.1187   46.4013 H   0  0  0  0  0  0  0  0  0  0  0  0
   54.9543   18.4134   45.3946 H   0  0  0  0  0  0  0  0  0  0  0  0
   57.0974   19.5325   45.5095 H   0  0  0  0  0  0  0  0  0  0  0  0
   58.4934   21.5910   45.4792 H   0  0  0  0  0  0  0  0  0  0  0  0
   59.4201   25.4659   47.0107 H   0  0  0  0  0  0  0  0  0  0  0  0
   61.0009   27.3964   46.9681 H   0  0  0  0  0  0  0  0  0  0  0  0
   60.4919   29.4012   45.5740 H   0  0  0  0  0  0  0  0  0  0  0  0
   58.2277   33.8665   44.7682 H   0  0  0  0  0  0  0  0  0  0  0  0
   59.2955   35.0896   46.6568 H   0  0  0  0  0  0  0  0  0  0  0  0
   61.8094   34.3950   50.2073 H   0  0  0  0  0  0  0  0  0  0  0  0
   62.0324   33.5230   48.6528 H   0  0  0  0  0  0  0  0  0  0  0  0
   61.7027   35.2888   48.6528 H   0  0  0  0  0  0  0  0  0  0  0  0
   59.3606   31.4273   48.9775 H   0  0  0  0  0  0  0  0  0  0  0  0
   58.2757   30.2170   47.0906 H   0  0  0  0  0  0  0  0  0  0  0  0
   56.8215   27.5370   44.2356 H   0  0  0  0  0  0  0  0  0  0  0  0
   53.5177   21.9494   45.8693 H   0  0  0  0  0  0  0  0  0  0  0  0
  1  2  2  0
  2  3  1  0
  3  4  2  0
  4  5  1  0
  5  6  2  0
  6  7  1  0
  7  8  1  0
  8  9  1  0
  9 10  2  0
 10 11  1  0
 11 12  2  0
 12 13  1  0
 13 14  1  0
 14 15  1  0
 15 16  2  0
 15 17  2  0
 15 18  1  0
 18 19  2  0
 19 20  1  0
 20 21  2  0
 21 22  1  0
 22 23  1  0
 22 24  2  0
 21 25  1  0
 25 26  2  0
 13 27  2  0
  8 28  2  0
 28 29  1  0
 28 30  1  0
 30 31  2  0
 30 32  1  0
 32 33  2  0
 33  3  1  0
 32  6  1  0
 27  9  1  0
 26 18  1  0
  1 34  1  0
  1 35  1  0
  2 36  1  0
  4 37  1  0
  5 38  1  0
 10 39  1  0
 11 40  1  0
 12 41  1  0
 19 42  1  0
 20 43  1  0
 23 44  1  0
 23 45  1  0
 23 46  1  0
 25 47  1  0
 26 48  1  0
 27 49  1  0
 33 50  1  0
M  CHG  2  14  -1  29  -1
M  END
>  <UniqueID>  (16) 
16

>  <SMILES>  (16) 
C=Cc1ccc2oc(-c3cccc([N-]S(=O)(=O)c4ccc(C(C)=O)cc4)c3)c([O-])c(=O)c2c1

>  <Energy>  (16) 
69.95872356411806

>  <Genealogy>  (16) 
C=Cc1ccc2oc(-c3cccc([N-]S(=O)(=O)c4ccc(C(C)=O)cc4)c3)c([O-])c(=O)c2c1 (protonated)
C=Cc1ccc2oc(-c3cccc([N-]S(=O)(=O)c4ccc(C(C)=O)cc4)c3)c([O-])c(=O)c2c1 (3D coordinates assigned)
C=Cc1ccc2oc(-c3cccc([N-]S(=O)(=O)c4ccc(C(C)=O)cc4)c3)c([O-])c(=O)c2c1 (optimized conformer: 69.95872356411806 kcal/mol)

>  <smiles>  (16) 
C=Cc1ccc2oc(-c3cccc(NS(=O)(=O)c4ccc(C(C)=O)cc4)c3)c(O)c(=O)c2c1

>  <score_type>  (16) 
oracle

>  <origin>  (16) 
adg

>  <m_score__min__energy>  (16) 
-13.720000000000001

>  <m_primary>  (16) 
energy

$$$$
16:0
     RDKit          3D

 59 63  0  0  1  0  0  0  0  0999 V2000
   57.6730   28.7760   43.8720 N   0  0  0  0  0  0  0  0  0  0  0  0
   56.6110   30.1260   44.0590 S   0  0  0  0  0  0  0  0  0  0  0  0
   55.4030   29.7410   44.8610 O   0  0  0  0  0  0  0  0  0  0  0  0
   56.2310   30.5770   42.6650 O   0  0  0  0  0  0  0  0  0  0  0  0
   57.4150   31.4400   44.8750 C   0  0  0  0  0  0  0  0  0  0  0  0
   58.7530   31.2940   45.1600 C   0  0  0  0  0  0  0  0  0  0  0  0
   59.4360   32.2810   45.7940 C   0  0  0  0  0  0  0  0  0  0  0  0
   58.8510   33.4890   46.1950 C   0  0  0  0  0  0  0  0  0  0  0  0
   59.6250   34.5470   46.8850 C   0  0  0  0  0  0  0  0  0  0  0  0
   60.1280   29.6490   49.3260 N   0  0  0  0  0  0  0  0  0  0  0  0
   59.3660   29.1950   48.3760 C   0  0  0  0  0  0  0  0  0  0  0  0
   59.9540   31.9710   48.7790 N   0  0  0  0  0  0  0  0  0  0  0  0
   60.6960   30.9530   49.2810 C   0  0  0  0  0  0  0  0  0  0  0  0
   59.7580   34.1650   48.2500 N   0  0  0  0  0  0  0  0  0  0  0  0
   60.4720   33.2140   48.7270 C   0  0  0  0  0  0  0  0  0  0  0  0
   59.3370   27.8730   47.9930 C   0  0  0  0  0  0  0  0  0  0  0  0
   58.4230   27.7660   46.9690 C   0  0  0  0  0  0  0  0  0  0  0  0
   58.0810   26.5000   46.2610 C   0  0  0  0  0  0  0  0  0  0  0  0
   57.3500   25.4460   47.0170 C   0  0  0  0  0  0  0  0  0  0  0  0
   56.5970   26.2430   46.0140 C   0  0  0  0  0  0  0  0  0  0  0  0
   57.9170   28.9900   46.7450 N   0  0  0  0  0  0  0  0  0  0  0  0
   58.4920   29.8490   47.5990 N   0  0  0  0  0  0  0  0  0  0  0  0
   61.9720   31.2340   49.7260 C   0  0  0  0  0  0  0  0  0  0  0  0
   62.4730   32.5380   49.6540 C   0  0  0  0  0  0  0  0  0  0  0  0
   63.7860   32.7330   50.1320 N   0  0  0  0  0  0  0  0  0  0  0  0
   64.9170   33.0910   49.3280 C   0  0  0  0  0  0  0  0  0  0  0  0
   66.1530   32.6110   50.1010 C   0  0  0  0  0  0  0  0  0  0  0  0
   65.8700   31.3420   50.6130 O   0  0  0  0  0  0  0  0  0  0  0  0
   64.9940   31.3840   51.6760 C   0  0  0  0  0  0  0  0  0  0  0  0
   64.0270   32.5580   51.5720 C   0  0  0  0  0  0  0  0  0  0  0  0
   61.7050   33.5170   49.1500 N   0  0  0  0  0  0  0  0  0  0  0  0
   57.5040   33.6110   45.8940 C   0  0  0  0  0  0  0  0  0  0  0  0
   56.7970   32.6050   45.2460 C   0  0  0  0  0  0  0  0  0  0  0  0
   58.2900   28.8800   43.0230 H   0  0  0  0  0  0  0  0  0  0  0  0
   57.0830   27.9310   43.7060 H   0  0  0  0  0  0  0  0  0  0  0  0
   59.2740   30.3691   44.8715 H   0  0  0  0  0  0  0  0  0  0  0  0
   60.5044   32.1241   46.0038 H   0  0  0  0  0  0  0  0  0  0  0  0
   60.6192   34.6446   46.4246 H   0  0  0  0  0  0  0  0  0  0  0  0
   59.1104   35.5158   46.8043 H   0  0  0  0  0  0  0  0  0  0  0  0
   59.9327   27.0551   48.4245 H   0  0  0  0  0  0  0  0  0  0  0  0
   58.9966   26.5199   45.6517 H   0  0  0  0  0  0  0  0  0  0  0  0
   57.5654   24.3854   46.8202 H   0  0  0  0  0  0  0  0  0  0  0  0
   57.2087   25.2262   48.0855 H   0  0  0  0  0  0  0  0  0  0  0  0
   56.2663   25.7771   45.0740 H   0  0  0  0  0  0  0  0  0  0  0  0
   55.6839   26.8563   46.0277 H   0  0  0  0  0  0  0  0  0  0  0  0
   57.1980   29.2250   46.0250 H   0  0  0  0  0  0  0  0  0  0  0  0
   58.3210   30.8780   47.6860 H   0  0  0  0  0  0  0  0  0  0  0  0
   62.5976   30.4290   50.1390 H   0  0  0  0  0  0  0  0  0  0  0  0
   64.8621   32.5943   48.3480 H   0  0  0  0  0  0  0  0  0  0  0  0
   64.9531   34.1746   49.1423 H   0  0  0  0  0  0  0  0  0  0  0  0
   67.0194   32.5573   49.4254 H   0  0  0  0  0  0  0  0  0  0  0  0
   66.3919   33.3099   50.9162 H   0  0  0  0  0  0  0  0  0  0  0  0
   64.4159   30.4484   51.6972 H   0  0  0  0  0  0  0  0  0  0  0  0
   65.5825   31.5086   52.5970 H   0  0  0  0  0  0  0  0  0  0  0  0
   63.0867   32.3307   52.0956 H   0  0  0  0  0  0  0  0  0  0  0  0
   64.4353   33.4689   52.0341 H   0  0  0  0  0  0  0  0  0  0  0  0
   62.0650   34.4730   49.0950 H   0  0  0  0  0  0  0  0  0  0  0  0
   56.9770   34.5341   46.1771 H   0  0  0  0  0  0  0  0  0  0  0  0
   55.7280   32.7460   45.0283 H   0  0  0  0  0  0  0  0  0  0  0  0
  1  2  1  0
  2  3  2  0
  2  4  2  0
  2  5  1  0
  5  6  2  0
  6  7  1  0
  7  8  2  0
  8  9  1  0
  9 10  1  0
 10 11  2  0
 11 12  1  0
 12 13  2  0
 13 14  1  0
 14 15  2  0
 15 16  1  0
 16 17  2  0
 17 18  1  0
 18 19  1  0
 19 20  1  0
 17 21  1  0
 21 22  1  0
 13 23  1  0
 23 24  2  0
 24 25  1  0
 25 26  1  0
 26 27  1  0
 27 28  1  0
 28 29  1  0
 29 30  1  0
 24 31  1  0
  8 32  1  0
 32 33  2  0
 33  5  1  0
 31 11  1  0
 22 15  1  0
 30 25  1  0
 20 18  1  0
  1 34  1  0
  1 35  1  0
  6 36  1  0
  7 37  1  0
  9 38  1  0
  9 39  1  0
 16 40  1  0
 18 41  1  0
 19 42  1  0
 19 43  1  0
 20 44  1  0
 20 45  1  0
 21 46  1  0
 22 47  1  0
 23 48  1  0
 26 49  1  0
 26 50  1  0
 27 51  1  0
 27 52  1  0
 29 53  1  0
 29 54  1  0
 30 55  1  0
 30 56  1  0
 31 57  1  0
 32 58  1  0
 33 59  1  0
M  END
>  <smiles>  (17) 
NS(=O)(=O)c1ccc(CN=c2nc(N=c3cc(C4CC4)[nH][nH]3)cc(N3CCOCC3)[nH]2)cc1

>  <score_type>  (17) 
oracle

>  <origin>  (17) 
adg

>  <m_score__min__energy>  (17) 
-9.6999999999999993

>  <m_primary>  (17) 
energy

$$$$
17:0
     RDKit          3D

 61 64  0  0  0  0  0  0  0  0999 V2000
   58.5640   28.9280   47.4600 C   0  0  0  0  0  0  0  0  0  0  0  0
   58.2880   29.6380   46.3560 C   0  0  0  0  0  0  0  0  0  0  0  0
   57.3200   29.3550   45.3780 C   0  0  0  0  0  0  0  0  0  0  0  0
   56.5670   28.2580   45.1700 C   0  0  0  0  0  0  0  0  0  0  0  0
   56.7110   26.9740   45.8730 C   0  0  0  0  0  0  0  0  0  0  0  0
   57.8870   26.3830   46.1580 N   0  0  0  0  0  0  0  0  0  0  0  0
   57.5180   25.1860   46.6630 C   0  0  0  0  0  0  0  0  0  0  0  0
   58.3530   24.3360   47.0660 O   0  0  0  0  0  0  0  0  0  0  0  0
   56.1860   24.9660   46.6900 N   0  0  0  0  0  0  0  0  0  0  0  0
   55.6920   26.1030   46.1720 C   0  0  0  0  0  0  0  0  0  0  0  0
   54.3370   26.3360   45.9720 O   0  0  0  0  0  0  0  0  0  0  0  0
   57.2520   30.4770   44.5640 C   0  0  0  0  0  0  0  0  0  0  0  0
   58.2110   31.3580   45.0170 C   0  0  0  0  0  0  0  0  0  0  0  0
   58.4690   32.7170   44.4430 C   0  0  0  0  0  0  0  0  0  0  0  0
   58.8360   30.8530   46.1020 N   0  0  0  0  0  0  0  0  0  0  0  0
   59.8310   31.5360   46.8810 C   0  0  0  0  0  0  0  0  0  0  0  0
   59.4960   32.6740   47.6440 C   0  0  0  0  0  0  0  0  0  0  0  0
   58.0810   33.1820   47.6930 C   0  0  0  0  0  0  0  0  0  0  0  0
   60.4880   33.3040   48.4130 C   0  0  0  0  0  0  0  0  0  0  0  0
   61.8130   32.8380   48.4000 C   0  0  0  0  0  0  0  0  0  0  0  0
   62.8570   33.5020   49.2130 C   0  0  0  0  0  0  0  0  0  0  0  0
   62.7670   34.7410   49.4320 O   0  0  0  0  0  0  0  0  0  0  0  0
   63.9780   32.7730   49.7470 N   0  0  0  0  0  0  0  0  0  0  0  0
   63.8170   31.3990   50.2480 C   0  0  0  0  0  0  0  0  0  0  0  0
   64.4780   31.2430   51.6260 C   0  0  0  0  0  0  0  0  0  0  0  0
   65.8950   31.8990   51.7150 C   0  0  0  0  0  0  0  0  0  0  0  0
   66.9380   31.0260   52.3170 N   0  0  0  0  0  0  0  0  0  0  0  0
   68.2430   31.6800   52.5320 C   0  0  0  0  0  0  0  0  0  0  0  0
   67.0950   29.7580   51.5830 C   0  0  0  0  0  0  0  0  0  0  0  0
   66.3640   32.4920   50.3690 C   0  0  0  0  0  0  0  0  0  0  0  0
   65.2920   33.4290   49.8000 C   0  0  0  0  0  0  0  0  0  0  0  0
   62.1320   31.7040   47.6370 C   0  0  0  0  0  0  0  0  0  0  0  0
   61.1490   31.0610   46.8810 C   0  0  0  0  0  0  0  0  0  0  0  0
   61.4780   29.9670   46.1490 F   0  0  0  0  0  0  0  0  0  0  0  0
   59.3539   29.2649   48.1474 H   0  0  0  0  0  0  0  0  0  0  0  0
   58.0005   28.0088   47.6780 H   0  0  0  0  0  0  0  0  0  0  0  0
   55.7761   28.3282   44.4087 H   0  0  0  0  0  0  0  0  0  0  0  0
   56.5648   30.6334   43.7194 H   0  0  0  0  0  0  0  0  0  0  0  0
   58.6063   33.4402   45.2604 H   0  0  0  0  0  0  0  0  0  0  0  0
   59.3775   32.6870   43.8235 H   0  0  0  0  0  0  0  0  0  0  0  0
   57.6127   33.0220   43.8235 H   0  0  0  0  0  0  0  0  0  0  0  0
   57.7679   33.2944   48.7415 H   0  0  0  0  0  0  0  0  0  0  0  0
   58.0237   34.1569   47.1867 H   0  0  0  0  0  0  0  0  0  0  0  0
   57.4167   32.4662   47.1867 H   0  0  0  0  0  0  0  0  0  0  0  0
   60.2240   34.1733   49.0333 H   0  0  0  0  0  0  0  0  0  0  0  0
   62.7447   31.1691   50.3337 H   0  0  0  0  0  0  0  0  0  0  0  0
   64.3004   30.7065   49.5432 H   0  0  0  0  0  0  0  0  0  0  0  0
   63.8285   31.7131   52.3791 H   0  0  0  0  0  0  0  0  0  0  0  0
   64.6083   30.1651   51.8026 H   0  0  0  0  0  0  0  0  0  0  0  0
   65.7621   32.7342   52.4184 H   0  0  0  0  0  0  0  0  0  0  0  0
   68.4322   31.7748   53.6115 H   0  0  0  0  0  0  0  0  0  0  0  0
   69.0373   31.0734   52.0724 H   0  0  0  0  0  0  0  0  0  0  0  0
   68.2325   32.6793   52.0724 H   0  0  0  0  0  0  0  0  0  0  0  0
   67.1975   28.9298   52.2996 H   0  0  0  0  0  0  0  0  0  0  0  0
   66.2110   29.5885   50.9507 H   0  0  0  0  0  0  0  0  0  0  0  0
   67.9937   29.8092   50.9507 H   0  0  0  0  0  0  0  0  0  0  0  0
   67.2945   33.0574   50.5257 H   0  0  0  0  0  0  0  0  0  0  0  0
   66.5379   31.6718   49.6570 H   0  0  0  0  0  0  0  0  0  0  0  0
   65.2208   34.3212   50.4395 H   0  0  0  0  0  0  0  0  0  0  0  0
   65.5823   33.7045   48.7754 H   0  0  0  0  0  0  0  0  0  0  0  0
   63.1625   31.3192   47.6343 H   0  0  0  0  0  0  0  0  0  0  0  0
  1  2  2  0
  2  3  1  0
  3  4  2  3
  4  5  1  0
  5  6  1  0
  6  7  1  0
  7  8  2  0
  7  9  1  0
  9 10  1  0
 10 11  1  0
  3 12  1  0
 12 13  2  0
 13 14  1  0
 13 15  1  0
 15 16  1  0
 16 17  2  0
 17 18  1  0
 17 19  1  0
 19 20  2  0
 20 21  1  0
 21 22  2  0
 21 23  1  0
 23 24  1  0
 24 25  1  0
 25 26  1  0
 26 27  1  0
 27 28  1  0
 27 29  1  0
 26 30  1  0
 30 31  1  0
 20 32  1  0
 32 33  2  0
 33 34  1  0
 15  2  1  0
 33 16  1  0
 10  5  2  0
 31 23  1  0
  1 35  1  0
  1 36  1  0
  4 37  1  0
 12 38  1  0
 14 39  1  0
 14 40  1  0
 14 41  1  0
 18 42  1  0
 18 43  1  0
 18 44  1  0
 19 45  1  0
 24 46  1  0
 24 47  1  0
 25 48  1  0
 25 49  1  0
 26 50  1  0
 28 51  1  0
 28 52  1  0
 28 53  1  0
 29 54  1  0
 29 55  1  0
 29 56  1  0
 30 57  1  0
 30 58  1  0
 31 59  1  0
 31 60  1  0
 32 61  1  0
M  CHG  3   6  -1   9  -1  11  -1
M  END
>  <UniqueID>  (18) 
17

>  <SMILES>  (18) 
C=c1c(=Cc2[n-]c(=O)[n-]c2[O-])cc(C)n1-c1c(C)cc(C(=O)N2CCC(N(C)C)CC2)cc1F

>  <Energy>  (18) 
151.02073457183235

>  <Genealogy>  (18) 
C=c1c(=Cc2[n-]c(=O)[n-]c2[O-])cc(C)n1-c1c(C)cc(C(=O)N2CCC(N(C)C)CC2)cc1F (protonated)
C=c1c(=Cc2[n-]c(=O)[n-]c2[O-])cc(C)n1-c1c(C)cc(C(=O)N2CCC(N(C)C)CC2)cc1F (3D coordinates assigned)
C=c1c(=Cc2[n-]c(=O)[n-]c2[O-])cc(C)n1-c1c(C)cc(C(=O)N2CCC(N(C)C)CC2)cc1F (nonaromatic ring conformer: 151.02073457183235 kcal/mol)

>  <smiles>  (18) 
C=c1c(=Cc2[nH]c(=O)[nH]c2O)cc(C)n1-c1c(C)cc(C(=O)N2CCC(N(C)C)CC2)cc1F

>  <score_type>  (18) 
oracle

>  <origin>  (18) 
adg

>  <m_score__min__energy>  (18) 
-16.57

>  <m_primary>  (18) 
energy

$$$$
18:0
     RDKit          3D

 48 50  0  0  0  0  0  0  0  0999 V2000
   56.6500   20.8320   47.9040 C   0  0  0  0  0  0  0  0  0  0  0  0
   57.3700   21.7380   47.0730 O   0  0  0  0  0  0  0  0  0  0  0  0
   57.0910   21.9680   45.7160 C   0  0  0  0  0  0  0  0  0  0  0  0
   57.6570   21.1750   44.6970 C   0  0  0  0  0  0  0  0  0  0  0  0
   57.3750   21.4420   43.3550 C   0  0  0  0  0  0  0  0  0  0  0  0
   56.5300   22.4970   43.0130 C   0  0  0  0  0  0  0  0  0  0  0  0
   55.9570   23.2850   44.0110 C   0  0  0  0  0  0  0  0  0  0  0  0
   56.2230   23.0250   45.3670 C   0  0  0  0  0  0  0  0  0  0  0  0
   55.6310   23.9220   46.4260 C   0  0  0  0  0  0  0  0  0  0  0  0
   56.3760   25.2170   46.4800 C   0  0  0  0  0  0  0  0  0  0  0  0
   55.9280   26.4370   45.9860 C   0  0  0  0  0  0  0  0  0  0  0  0
   56.8170   27.4590   46.0970 N   0  0  0  0  0  0  0  0  0  0  0  0
   57.9740   27.0600   46.6660 C   0  0  0  0  0  0  0  0  0  0  0  0
   58.9520   27.8910   46.8830 N   0  0  0  0  0  0  0  0  0  0  0  0
   59.6210   28.7220   45.9220 C   0  0  0  0  0  0  0  0  0  0  0  0
   59.6620   28.4150   44.6990 O   0  0  0  0  0  0  0  0  0  0  0  0
   60.3280   29.9520   46.3900 C   0  0  0  0  0  0  0  0  0  0  0  0
   59.3330   30.8120   47.6570 S   0  0  0  0  0  0  0  0  0  0  0  0
   58.7720   32.1240   46.5600 C   0  0  0  0  0  0  0  0  0  0  0  0
   59.2910   33.4160   46.7190 C   0  0  0  0  0  0  0  0  0  0  0  0
   58.8760   34.4510   45.8780 C   0  0  0  0  0  0  0  0  0  0  0  0
   57.9380   34.1980   44.8730 C   0  0  0  0  0  0  0  0  0  0  0  0
   57.4030   32.9170   44.7180 C   0  0  0  0  0  0  0  0  0  0  0  0
   57.8030   31.8700   45.5710 C   0  0  0  0  0  0  0  0  0  0  0  0
   57.2950   30.5690   45.4300 O   0  0  0  0  0  0  0  0  0  0  0  0
   56.3440   30.1740   44.4810 C   0  0  0  0  0  0  0  0  0  0  0  0
   56.6910   30.2440   43.0320 C   0  0  0  0  0  0  0  0  0  0  0  0
   55.2160   29.7340   44.8330 O   0  0  0  0  0  0  0  0  0  0  0  0
   57.9440   25.4170   47.0560 S   0  0  0  0  0  0  0  0  0  0  0  0
   56.8411   21.0724   48.9603 H   0  0  0  0  0  0  0  0  0  0  0  0
   55.5734   20.9208   47.6967 H   0  0  0  0  0  0  0  0  0  0  0  0
   56.9797   19.8032   47.6967 H   0  0  0  0  0  0  0  0  0  0  0  0
   58.3245   20.3412   44.9601 H   0  0  0  0  0  0  0  0  0  0  0  0
   57.8208   20.8183   42.5661 H   0  0  0  0  0  0  0  0  0  0  0  0
   56.3151   22.7081   41.9551 H   0  0  0  0  0  0  0  0  0  0  0  0
   55.2917   24.1165   43.7351 H   0  0  0  0  0  0  0  0  0  0  0  0
   54.5757   24.1195   46.1867 H   0  0  0  0  0  0  0  0  0  0  0  0
   55.7070   23.4228   47.4032 H   0  0  0  0  0  0  0  0  0  0  0  0
   54.9308   26.5652   45.5397 H   0  0  0  0  0  0  0  0  0  0  0  0
   61.2997   29.6699   46.8216 H   0  0  0  0  0  0  0  0  0  0  0  0
   60.4773   30.6264   45.5339 H   0  0  0  0  0  0  0  0  0  0  0  0
   60.0288   33.6160   47.5100 H   0  0  0  0  0  0  0  0  0  0  0  0
   59.2866   35.4634   46.0063 H   0  0  0  0  0  0  0  0  0  0  0  0
   57.6203   35.0099   44.2023 H   0  0  0  0  0  0  0  0  0  0  0  0
   56.6651   32.7248   43.9252 H   0  0  0  0  0  0  0  0  0  0  0  0
   57.7639   30.4604   42.9219 H   0  0  0  0  0  0  0  0  0  0  0  0
   56.4601   29.2812   42.5527 H   0  0  0  0  0  0  0  0  0  0  0  0
   56.1049   31.0420   42.5527 H   0  0  0  0  0  0  0  0  0  0  0  0
  1  2  1  0
  2  3  1  0
  3  4  2  0
  4  5  1  0
  5  6  2  0
  6  7  1  0
  7  8  2  0
  8  9  1  0
  9 10  1  0
 10 11  2  0
 11 12  1  0
 12 13  1  0
 13 14  2  3
 14 15  1  0
 15 16  2  0
 15 17  1  0
 17 18  1  0
 18 19  1  0
 19 20  2  0
 20 21  1  0
 21 22  2  0
 22 23  1  0
 23 24  2  0
 24 25  1  0
 25 26  1  0
 26 27  1  0
 26 28  2  0
 13 29  1  0
  8  3  1  0
 29 10  1  0
 24 19  1  0
  1 30  1  0
  1 31  1  0
  1 32  1  0
  4 33  1  0
  5 34  1  0
  6 35  1  0
  7 36  1  0
  9 37  1  0
  9 38  1  0
 11 39  1  0
 17 40  1  0
 17 41  1  0
 20 42  1  0
 21 43  1  0
 22 44  1  0
 23 45  1  0
 27 46  1  0
 27 47  1  0
 27 48  1  0
M  CHG  1  12  -1
M  END
>  <UniqueID>  (19) 
18

>  <SMILES>  (19) 
COc1ccccc1Cc1c[n-]c(=NC(=O)CSc2ccccc2OC(C)=O)s1

>  <Energy>  (19) 
76.85437737432378

>  <Genealogy>  (19) 
COc1ccccc1Cc1c[n-]c(=NC(=O)CSc2ccccc2OC(C)=O)s1 (protonated)
COc1ccccc1Cc1c[n-]c(=NC(=O)CSc2ccccc2OC(C)=O)s1 (3D coordinates assigned)
COc1ccccc1Cc1c[n-]c(=NC(=O)CSc2ccccc2OC(C)=O)s1 (optimized conformer: 76.85437737432378 kcal/mol)

>  <smiles>  (19) 
COc1ccccc1Cc1c[nH]c(=NC(=O)CSc2ccccc2OC(C)=O)s1

>  <score_type>  (19) 
oracle

>  <origin>  (19) 
adg

>  <m_score__min__energy>  (19) 
-11.140000000000001

>  <m_primary>  (19) 
energy

$$$$
19:0
     RDKit          3D

 32 34  0  0  0  0  0  0  0  0999 V2000
   55.1460   29.3240   44.8740 O   0  0  0  0  0  0  0  0  0  0  0  0
   56.3260   29.7660   44.8730 C   0  0  0  0  0  0  0  0  0  0  0  0
   56.5560   31.0510   44.4950 N   0  0  0  0  0  0  0  0  0  0  0  0
   57.8130   31.5690   44.4710 C   0  0  0  0  0  0  0  0  0  0  0  0
   58.0290   32.9930   44.0450 C   0  0  0  0  0  0  0  0  0  0  0  0
   57.8560   33.9780   45.1370 N   0  0  0  0  0  0  0  0  0  0  0  0
   57.2310   33.4620   46.3710 C   0  0  0  0  0  0  0  0  0  0  0  0
   58.2340   33.0050   47.3970 C   0  0  0  0  0  0  0  0  0  0  0  0
   59.5060   33.4210   47.3910 C   0  0  0  0  0  0  0  0  0  0  0  0
   60.0790   34.2500   46.2750 C   0  0  0  0  0  0  0  0  0  0  0  0
   59.0010   34.8780   45.3780 C   0  0  0  0  0  0  0  0  0  0  0  0
   58.8690   30.8030   44.8530 N   0  0  0  0  0  0  0  0  0  0  0  0
   58.6980   29.5120   45.2370 C   0  0  0  0  0  0  0  0  0  0  0  0
   59.8030   28.7390   45.6090 C   0  0  0  0  0  0  0  0  0  0  0  0
   59.6260   27.4080   46.0000 C   0  0  0  0  0  0  0  0  0  0  0  0
   58.3460   26.8460   46.0200 C   0  0  0  0  0  0  0  0  0  0  0  0
   57.2350   27.6100   45.6490 C   0  0  0  0  0  0  0  0  0  0  0  0
   57.4040   28.9490   45.2550 C   0  0  0  0  0  0  0  0  0  0  0  0
   59.0527   33.0860   43.6534 H   0  0  0  0  0  0  0  0  0  0  0  0
   57.2650   33.2191   43.2866 H   0  0  0  0  0  0  0  0  0  0  0  0
   56.6179   34.2612   46.8131 H   0  0  0  0  0  0  0  0  0  0  0  0
   56.6277   32.5860   46.0905 H   0  0  0  0  0  0  0  0  0  0  0  0
   57.9094   32.3038   48.1799 H   0  0  0  0  0  0  0  0  0  0  0  0
   60.1568   33.1461   48.2342 H   0  0  0  0  0  0  0  0  0  0  0  0
   60.6841   35.0573   46.7133 H   0  0  0  0  0  0  0  0  0  0  0  0
   60.6821   33.5803   45.6443 H   0  0  0  0  0  0  0  0  0  0  0  0
   58.6313   35.7937   45.8627 H   0  0  0  0  0  0  0  0  0  0  0  0
   59.4653   35.0885   44.4033 H   0  0  0  0  0  0  0  0  0  0  0  0
   60.8114   29.1782   45.5940 H   0  0  0  0  0  0  0  0  0  0  0  0
   60.4960   26.8018   46.2925 H   0  0  0  0  0  0  0  0  0  0  0  0
   58.2123   25.7987   46.3288 H   0  0  0  0  0  0  0  0  0  0  0  0
   56.2297   27.1637   45.6654 H   0  0  0  0  0  0  0  0  0  0  0  0
  1  2  2  0
  2  3  1  0
  3  4  2  0
  4  5  1  0
  5  6  1  0
  6  7  1  0
  7  8  1  0
  8  9  2  0
  9 10  1  0
 10 11  1  0
  4 12  1  0
 12 13  1  0
 13 14  2  0
 14 15  1  0
 15 16  2  0
 16 17  1  0
 17 18  2  0
 18  2  1  0
 11  6  1  0
 18 13  1  0
  5 19  1  0
  5 20  1  0
  7 21  1  0
  7 22  1  0
  8 23  1  0
  9 24  1  0
 10 25  1  0
 10 26  1  0
 11 27  1  0
 11 28  1  0
 14 29  1  0
 15 30  1  0
 16 31  1  0
 17 32  1  0
M  CHG  1  12  -1
M  END
>  <UniqueID>  (20) 
19

>  <SMILES>  (20) 
O=c1nc(CN2CC=CCC2)[n-]c2ccccc12

>  <Energy>  (20) 
45.4744986864468

>  <Genealogy>  (20) 
O=c1nc(CN2CC=CCC2)[n-]c2ccccc12 (protonated)
O=c1nc(CN2CC=CCC2)[n-]c2ccccc12 (3D coordinates assigned)
O=c1nc(CN2CC=CCC2)[n-]c2ccccc12 (nonaromatic ring conformer: 45.4744986864468 kcal/mol)

>  <smiles>  (20) 
O=c1nc(CN2CC=CCC2)[nH]c2ccccc12

>  <score_type>  (20) 
oracle

>  <origin>  (20) 
adg

>  <m_score__min__energy>  (20) 
-8.9399999999999995

>  <m_primary>  (20) 
energy

$$$$
20:0
     RDKit          3D

 40 43  0  0  0  0  0  0  0  0999 V2000
   61.8350   29.9210   50.3480 C   0  0  0  0  0  0  0  0  0  0  0  0
   61.4400   30.7360   49.2030 N   0  0  0  0  0  0  0  0  0  0  0  0
   60.2830   30.6350   48.5090 C   0  0  0  0  0  0  0  0  0  0  0  0
   60.2690   31.5530   47.4620 C   0  0  0  0  0  0  0  0  0  0  0  0
   59.1760   31.7610   46.4920 C   0  0  0  0  0  0  0  0  0  0  0  0
   58.4200   30.8120   45.9210 C   0  0  0  0  0  0  0  0  0  0  0  0
   58.5980   29.3460   46.0220 C   0  0  0  0  0  0  0  0  0  0  0  0
   59.8800   28.7760   45.9630 C   0  0  0  0  0  0  0  0  0  0  0  0
   60.0410   27.3930   46.0560 C   0  0  0  0  0  0  0  0  0  0  0  0
   58.9260   26.5640   46.1990 C   0  0  0  0  0  0  0  0  0  0  0  0
   57.6320   27.1120   46.2460 C   0  0  0  0  0  0  0  0  0  0  0  0
   56.4490   26.2310   46.3950 C   0  0  0  0  0  0  0  0  0  0  0  0
   55.1500   26.6880   46.0190 N   0  0  0  0  0  0  0  0  0  0  0  0
   56.5790   25.0650   46.8580 O   0  0  0  0  0  0  0  0  0  0  0  0
   57.4790   28.5080   46.1530 C   0  0  0  0  0  0  0  0  0  0  0  0
   57.3840   31.4910   45.1340 C   0  0  0  0  0  0  0  0  0  0  0  0
   56.5040   30.9210   44.4360 O   0  0  0  0  0  0  0  0  0  0  0  0
   57.5120   32.9000   45.2350 N   0  0  0  0  0  0  0  0  0  0  0  0
   58.6280   33.0620   46.0950 C   0  0  0  0  0  0  0  0  0  0  0  0
   59.0350   34.1820   46.4990 O   0  0  0  0  0  0  0  0  0  0  0  0
   61.4770   32.2240   47.5330 C   0  0  0  0  0  0  0  0  0  0  0  0
   62.0350   33.2080   46.7140 C   0  0  0  0  0  0  0  0  0  0  0  0
   63.3230   33.6760   47.0310 C   0  0  0  0  0  0  0  0  0  0  0  0
   64.0240   33.1500   48.1370 C   0  0  0  0  0  0  0  0  0  0  0  0
   63.4460   32.1440   48.9330 C   0  0  0  0  0  0  0  0  0  0  0  0
   62.1640   31.7000   48.6010 C   0  0  0  0  0  0  0  0  0  0  0  0
   61.5795   30.4483   51.2790 H   0  0  0  0  0  0  0  0  0  0  0  0
   61.3034   28.9586   50.3139 H   0  0  0  0  0  0  0  0  0  0  0  0
   62.9198   29.7420   50.3139 H   0  0  0  0  0  0  0  0  0  0  0  0
   59.4707   29.9296   48.7386 H   0  0  0  0  0  0  0  0  0  0  0  0
   60.7616   29.4228   45.8429 H   0  0  0  0  0  0  0  0  0  0  0  0
   61.0490   26.9544   46.0166 H   0  0  0  0  0  0  0  0  0  0  0  0
   59.0612   25.4750   46.2754 H   0  0  0  0  0  0  0  0  0  0  0  0
   54.4990   27.0970   46.7260 H   0  0  0  0  0  0  0  0  0  0  0  0
   56.4711   28.9477   46.1833 H   0  0  0  0  0  0  0  0  0  0  0  0
   56.9090   33.6370   44.8080 H   0  0  0  0  0  0  0  0  0  0  0  0
   61.4845   33.6046   45.8482 H   0  0  0  0  0  0  0  0  0  0  0  0
   63.7873   34.4579   46.4121 H   0  0  0  0  0  0  0  0  0  0  0  0
   65.0282   33.5287   48.3783 H   0  0  0  0  0  0  0  0  0  0  0  0
   63.9877   31.7198   49.7913 H   0  0  0  0  0  0  0  0  0  0  0  0
  1  2  1  0
  2  3  1  0
  3  4  2  0
  4  5  1  0
  5  6  2  0
  6  7  1  0
  7  8  2  0
  8  9  1  0
  9 10  2  0
 10 11  1  0
 11 12  1  0
 12 13  1  0
 12 14  2  0
 11 15  2  0
  6 16  1  0
 16 17  2  0
 16 18  1  0
 18 19  1  0
 19 20  2  0
  4 21  1  0
 21 22  2  0
 22 23  1  0
 23 24  2  0
 24 25  1  0
 25 26  2  0
 26  2  1  0
 19  5  1  0
 26 21  1  0
 15  7  1  0
  1 27  1  0
  1 28  1  0
  1 29  1  0
  3 30  1  0
  8 31  1  0
  9 32  1  0
 10 33  1  0
 13 34  1  0
 15 35  1  0
 18 36  1  0
 22 37  1  0
 23 38  1  0
 24 39  1  0
 25 40  1  0
M  CHG  1  13  -1
M  END
>  <UniqueID>  (21) 
20

>  <SMILES>  (21) 
Cn1cc(C2=C(c3cccc(C([NH-])=O)c3)C(=O)NC2=O)c2ccccc21

>  <Energy>  (21) 
112.56107196681094

>  <Genealogy>  (21) 
Cn1cc(C2=C(c3cccc(C([NH-])=O)c3)C(=O)NC2=O)c2ccccc21 (protonated)
Cn1cc(C2=C(c3cccc(C([NH-])=O)c3)C(=O)NC2=O)c2ccccc21 (3D coordinates assigned)
Cn1cc(C2=C(c3cccc(C([NH-])=O)c3)C(=O)NC2=O)c2ccccc21 (nonaromatic ring conformer: 112.56107196681094 kcal/mol)

>  <smiles>  (21) 
Cn1cc(C2=C(c3cccc(C(N)=O)c3)C(=O)NC2=O)c2ccccc21

>  <score_type>  (21) 
oracle

>  <origin>  (21) 
adg

>  <m_score__min__energy>  (21) 
-12.630000000000001

>  <m_primary>  (21) 
energy

$$$$
21:0
     RDKit          3D

 46 49  0  0  0  0  0  0  0  0999 V2000
   55.0440   26.3160   46.0700 N   0  0  0  0  0  0  0  0  0  0  0  0
   56.4450   26.2090   45.8240 C   0  0  0  0  0  0  0  0  0  0  0  0
   57.0530   25.1480   46.1260 O   0  0  0  0  0  0  0  0  0  0  0  0
   57.1770   27.3310   45.2190 C   0  0  0  0  0  0  0  0  0  0  0  0
   58.3180   27.2460   44.4470 C   0  0  0  0  0  0  0  0  0  0  0  0
   58.7080   28.4780   44.0730 N   0  0  0  0  0  0  0  0  0  0  0  0
   57.8240   29.3550   44.5990 C   0  0  0  0  0  0  0  0  0  0  0  0
   57.8950   30.8270   44.4160 C   0  0  0  0  0  0  0  0  0  0  0  0
   57.9530   31.3880   43.1270 C   0  0  0  0  0  0  0  0  0  0  0  0
   58.0250   32.7720   42.9590 C   0  0  0  0  0  0  0  0  0  0  0  0
   58.0450   33.6150   44.0710 C   0  0  0  0  0  0  0  0  0  0  0  0
   57.9900   33.0770   45.3680 C   0  0  0  0  0  0  0  0  0  0  0  0
   58.0250   33.9040   46.5390 N   0  0  0  0  0  0  0  0  0  0  0  0
   59.4660   34.5560   47.2540 S   0  0  0  0  0  0  0  0  0  0  0  0
   59.9800   35.6740   46.3910 O   0  0  0  0  0  0  0  0  0  0  0  0
   59.1360   35.0950   48.6180 O   0  0  0  0  0  0  0  0  0  0  0  0
   60.6800   33.2910   47.4210 C   0  0  0  0  0  0  0  0  0  0  0  0
   62.0430   33.6000   47.3230 C   0  0  0  0  0  0  0  0  0  0  0  0
   63.0000   32.5890   47.4170 C   0  0  0  0  0  0  0  0  0  0  0  0
   62.6040   31.2610   47.6060 C   0  0  0  0  0  0  0  0  0  0  0  0
   61.2400   30.9340   47.7140 C   0  0  0  0  0  0  0  0  0  0  0  0
   60.8130   29.5240   47.9000 C   0  0  0  0  0  0  0  0  0  0  0  0
   60.7990   28.9390   49.1790 C   0  0  0  0  0  0  0  0  0  0  0  0
   60.4090   27.6090   49.3370 C   0  0  0  0  0  0  0  0  0  0  0  0
   60.0300   26.8680   48.2160 C   0  0  0  0  0  0  0  0  0  0  0  0
   60.0460   27.4430   46.9840 N   0  0  0  0  0  0  0  0  0  0  0  0
   60.4240   28.7360   46.8020 C   0  0  0  0  0  0  0  0  0  0  0  0
   60.2830   31.9620   47.6270 C   0  0  0  0  0  0  0  0  0  0  0  0
   57.9070   31.6880   45.5310 C   0  0  0  0  0  0  0  0  0  0  0  0
   56.8550   28.6710   45.3200 C   0  0  0  0  0  0  0  0  0  0  0  0
   54.6570   27.1080   46.6280 H   0  0  0  0  0  0  0  0  0  0  0  0
   58.8314   26.3111   44.1779 H   0  0  0  0  0  0  0  0  0  0  0  0
   59.5310   28.6920   43.4680 H   0  0  0  0  0  0  0  0  0  0  0  0
   57.9415   30.7310   42.2448 H   0  0  0  0  0  0  0  0  0  0  0  0
   58.0661   33.1997   41.9464 H   0  0  0  0  0  0  0  0  0  0  0  0
   58.1040   34.7045   43.9317 H   0  0  0  0  0  0  0  0  0  0  0  0
   62.3595   34.6425   47.1715 H   0  0  0  0  0  0  0  0  0  0  0  0
   64.0690   32.8371   47.3422 H   0  0  0  0  0  0  0  0  0  0  0  0
   63.3633   30.4678   47.6706 H   0  0  0  0  0  0  0  0  0  0  0  0
   61.0963   29.5316   50.0567 H   0  0  0  0  0  0  0  0  0  0  0  0
   60.4001   27.1482   50.3358 H   0  0  0  0  0  0  0  0  0  0  0  0
   59.7185   25.8192   48.3295 H   0  0  0  0  0  0  0  0  0  0  0  0
   60.4256   29.1683   45.7905 H   0  0  0  0  0  0  0  0  0  0  0  0
   59.2139   31.7209   47.7214 H   0  0  0  0  0  0  0  0  0  0  0  0
   57.8504   31.2636   46.5442 H   0  0  0  0  0  0  0  0  0  0  0  0
   56.0031   29.1074   45.8621 H   0  0  0  0  0  0  0  0  0  0  0  0
  1  2  1  0
  2  3  2  0
  2  4  1  0
  4  5  2  0
  5  6  1  0
  6  7  1  0
  7  8  1  0
  8  9  2  0
  9 10  1  0
 10 11  2  0
 11 12  1  0
 12 13  1  0
 13 14  1  0
 14 15  2  0
 14 16  2  0
 14 17  1  0
 17 18  2  0
 18 19  1  0
 19 20  2  0
 20 21  1  0
 21 22  1  0
 22 23  2  0
 23 24  1  0
 24 25  2  0
 25 26  1  0
 26 27  2  0
 21 28  2  0
 12 29  2  0
  7 30  2  0
 30  4  1  0
 29  8  1  0
 28 17  1  0
 27 22  1  0
  1 31  1  0
  5 32  1  0
  6 33  1  0
  9 34  1  0
 10 35  1  0
 11 36  1  0
 18 37  1  0
 19 38  1  0
 20 39  1  0
 23 40  1  0
 24 41  1  0
 25 42  1  0
 27 43  1  0
 28 44  1  0
 29 45  1  0
 30 46  1  0
M  CHG  2   1  -1  13  -1
M  END
>  <UniqueID>  (22) 
21

>  <SMILES>  (22) 
[NH-]C(=O)c1c[nH]c(-c2cccc([N-]S(=O)(=O)c3cccc(-c4cccnc4)c3)c2)c1

>  <Energy>  (22) 
86.3683764780685

>  <Genealogy>  (22) 
[NH-]C(=O)c1c[nH]c(-c2cccc([N-]S(=O)(=O)c3cccc(-c4cccnc4)c3)c2)c1 (protonated)
[NH-]C(=O)c1c[nH]c(-c2cccc([N-]S(=O)(=O)c3cccc(-c4cccnc4)c3)c2)c1 (3D coordinates assigned)
[NH-]C(=O)c1c[nH]c(-c2cccc([N-]S(=O)(=O)c3cccc(-c4cccnc4)c3)c2)c1 (optimized conformer: 86.3683764780685 kcal/mol)

>  <smiles>  (22) 
NC(=O)c1c[nH]c(-c2cccc(NS(=O)(=O)c3cccc(-c4cccnc4)c3)c2)c1

>  <score_type>  (22) 
oracle

>  <origin>  (22) 
adg

>  <m_score__min__energy>  (22) 
-13.44

>  <m_primary>  (22) 
energy

$$$$
22:0
     RDKit          3D

 49 51  0  0  0  0  0  0  0  0999 V2000
   59.8620   27.1090   47.0690 C   0  0  0  0  0  0  0  0  0  0  0  0
   59.0170   27.9910   46.5010 C   0  0  0  0  0  0  0  0  0  0  0  0
   57.6890   27.6340   46.1400 C   0  0  0  0  0  0  0  0  0  0  0  0
   57.1060   26.3090   46.4680 C   0  0  0  0  0  0  0  0  0  0  0  0
   57.4710   25.7030   47.5140 O   0  0  0  0  0  0  0  0  0  0  0  0
   56.0930   25.7430   45.6260 N   0  0  0  0  0  0  0  0  0  0  0  0
   55.3560   24.5440   46.0120 C   0  0  0  0  0  0  0  0  0  0  0  0
   55.1070   23.5840   44.8630 C   0  0  0  0  0  0  0  0  0  0  0  0
   53.9780   24.4620   45.3770 C   0  0  0  0  0  0  0  0  0  0  0  0
   56.8670   28.5750   45.4910 C   0  0  0  0  0  0  0  0  0  0  0  0
   55.5320   28.2520   45.2520 O   0  0  0  0  0  0  0  0  0  0  0  0
   57.3790   29.8520   45.1650 C   0  0  0  0  0  0  0  0  0  0  0  0
   56.6870   30.7980   44.4990 C   0  0  0  0  0  0  0  0  0  0  0  0
   57.2300   31.6780   43.4550 C   0  0  0  0  0  0  0  0  0  0  0  0
   57.5540   31.2000   42.3320 O   0  0  0  0  0  0  0  0  0  0  0  0
   57.4480   33.0620   43.7410 N   0  0  0  0  0  0  0  0  0  0  0  0
   57.1230   33.6700   45.0260 C   0  0  0  0  0  0  0  0  0  0  0  0
   58.3280   33.6450   45.9300 C   0  0  0  0  0  0  0  0  0  0  0  0
   59.4820   34.3750   45.6050 C   0  0  0  0  0  0  0  0  0  0  0  0
   60.5840   34.3780   46.4670 C   0  0  0  0  0  0  0  0  0  0  0  0
   60.5490   33.6410   47.6650 C   0  0  0  0  0  0  0  0  0  0  0  0
   61.6280   33.5850   48.5580 O   0  0  0  0  0  0  0  0  0  0  0  0
   63.1950   33.0060   48.1780 S   0  0  0  0  0  0  0  0  0  0  0  0
   64.2550   33.1100   49.6070 C   0  0  0  0  0  0  0  0  0  0  0  0
   63.1220   31.5860   47.6960 O   0  0  0  0  0  0  0  0  0  0  0  0
   63.7720   33.8630   47.0890 O   0  0  0  0  0  0  0  0  0  0  0  0
   59.3880   32.9310   47.9950 C   0  0  0  0  0  0  0  0  0  0  0  0
   58.2840   32.9340   47.1380 C   0  0  0  0  0  0  0  0  0  0  0  0
   58.6360   30.1720   45.5720 N   0  0  0  0  0  0  0  0  0  0  0  0
   59.4520   29.3040   46.2200 C   0  0  0  0  0  0  0  0  0  0  0  0
   60.6060   29.6920   46.5470 O   0  0  0  0  0  0  0  0  0  0  0  0
   60.8831   27.4191   47.3357 H   0  0  0  0  0  0  0  0  0  0  0  0
   59.5309   26.0787   47.2661 H   0  0  0  0  0  0  0  0  0  0  0  0
   55.9090   26.1670   44.6890 H   0  0  0  0  0  0  0  0  0  0  0  0
   55.7570   24.4483   47.0318 H   0  0  0  0  0  0  0  0  0  0  0  0
   55.5509   23.7808   43.8760 H   0  0  0  0  0  0  0  0  0  0  0  0
   55.2433   22.5034   44.7090 H   0  0  0  0  0  0  0  0  0  0  0  0
   53.6050   25.2945   44.7624 H   0  0  0  0  0  0  0  0  0  0  0  0
   52.9590   24.2808   45.7495 H   0  0  0  0  0  0  0  0  0  0  0  0
   55.6254   30.9217   44.7593 H   0  0  0  0  0  0  0  0  0  0  0  0
   56.8094   34.7122   44.8665 H   0  0  0  0  0  0  0  0  0  0  0  0
   56.3075   33.1018   45.4972 H   0  0  0  0  0  0  0  0  0  0  0  0
   59.5202   34.9482   44.6669 H   0  0  0  0  0  0  0  0  0  0  0  0
   61.4813   34.9588   46.2071 H   0  0  0  0  0  0  0  0  0  0  0  0
   63.6455   33.0502   50.5208 H   0  0  0  0  0  0  0  0  0  0  0  0
   64.9746   32.2781   49.5911 H   0  0  0  0  0  0  0  0  0  0  0  0
   64.7992   34.0658   49.5911 H   0  0  0  0  0  0  0  0  0  0  0  0
   59.3445   32.3656   48.9376 H   0  0  0  0  0  0  0  0  0  0  0  0
   57.3765   32.3762   47.4122 H   0  0  0  0  0  0  0  0  0  0  0  0
  1  2  2  0
  2  3  1  0
  3  4  1  0
  4  5  2  0
  4  6  1  0
  6  7  1  0
  7  8  1  0
  8  9  1  0
  3 10  2  0
 10 11  1  0
 10 12  1  0
 12 13  2  3
 13 14  1  0
 14 15  2  0
 14 16  1  0
 16 17  1  0
 17 18  1  0
 18 19  2  0
 19 20  1  0
 20 21  2  0
 21 22  1  0
 22 23  1  0
 23 24  1  0
 23 25  2  0
 23 26  2  0
 21 27  1  0
 27 28  2  0
 12 29  1  0
 29 30  1  0
 30 31  2  0
 30  2  1  0
  9  7  1  0
 28 18  1  0
  1 32  1  0
  1 33  1  0
  6 34  1  0
  7 35  1  0
  8 36  1  0
  8 37  1  0
  9 38  1  0
  9 39  1  0
 13 40  1  0
 17 41  1  0
 17 42  1  0
 19 43  1  0
 20 44  1  0
 24 45  1  0
 24 46  1  0
 24 47  1  0
 27 48  1  0
 28 49  1  0
M  CHG  3  11  -1  16  -1  29  -1
M  END
>  <UniqueID>  (23) 
22

>  <SMILES>  (23) 
C=c1c(C(=O)NC2CC2)c([O-])c(=CC(=O)[N-]Cc2ccc(OS(C)(=O)=O)cc2)[n-]c1=O

>  <Energy>  (23) 
326.95025516681744

>  <Genealogy>  (23) 
C=c1c(C(=O)NC2CC2)c([O-])c(=CC(=O)[N-]Cc2ccc(OS(C)(=O)=O)cc2)[n-]c1=O (protonated)
C=c1c(C(=O)NC2CC2)c([O-])c(=CC(=O)[N-]Cc2ccc(OS(C)(=O)=O)cc2)[n-]c1=O (3D coordinates assigned)
C=c1c(C(=O)NC2CC2)c([O-])c(=CC(=O)[N-]Cc2ccc(OS(C)(=O)=O)cc2)[n-]c1=O (nonaromatic ring conformer: 326.95025516681744 kcal/mol)

>  <smiles>  (23) 
C=c1c(C(=O)NC2CC2)c(O)c(=CC(=O)NCc2ccc(OS(C)(=O)=O)cc2)[nH]c1=O

>  <score_type>  (23) 
oracle

>  <origin>  (23) 
adg

>  <m_score__min__energy>  (23) 
-15.23

>  <m_primary>  (23) 
energy

$$$$
23:0
     RDKit          3D

 43 46  0  0  0  0  0  0  0  0999 V2000
   63.1570   34.7010   53.0330 H   0  0  0  0  0  0  0  0  0  0  0  0
   63.5650   34.2490   52.1840 N   0  0  0  0  0  0  0  0  0  0  0  0
   62.8410   33.8960   51.1690 C   0  0  0  0  0  0  0  0  0  0  0  0
   61.4980   33.7580   51.3170 N   0  0  0  0  0  0  0  0  0  0  0  0
   60.7030   33.3920   50.2760 C   0  0  0  0  0  0  0  0  0  0  0  0
   59.6176   33.2860   50.4196 H   0  0  0  0  0  0  0  0  0  0  0  0
   61.2760   33.1500   49.0160 C   0  0  0  0  0  0  0  0  0  0  0  0
   60.4500   32.7500   47.8480 C   0  0  0  0  0  0  0  0  0  0  0  0
   59.3900   33.5630   47.4070 C   0  0  0  0  0  0  0  0  0  0  0  0
   59.1636   34.4987   47.9392 H   0  0  0  0  0  0  0  0  0  0  0  0
   58.6220   33.1940   46.3000 C   0  0  0  0  0  0  0  0  0  0  0  0
   57.7914   33.8363   45.9721 H   0  0  0  0  0  0  0  0  0  0  0  0
   58.9040   32.0090   45.6040 C   0  0  0  0  0  0  0  0  0  0  0  0
   58.0820   31.6090   44.4370 C   0  0  0  0  0  0  0  0  0  0  0  0
   58.0880   32.4290   43.2950 C   0  0  0  0  0  0  0  0  0  0  0  0
   58.6583   33.3696   43.3033 H   0  0  0  0  0  0  0  0  0  0  0  0
   57.3780   32.0620   42.1510 C   0  0  0  0  0  0  0  0  0  0  0  0
   57.3912   32.7121   41.2637 H   0  0  0  0  0  0  0  0  0  0  0  0
   56.6520   30.8720   42.1320 C   0  0  0  0  0  0  0  0  0  0  0  0
   56.1008   30.5799   41.2260 H   0  0  0  0  0  0  0  0  0  0  0  0
   56.6230   30.0510   43.2590 C   0  0  0  0  0  0  0  0  0  0  0  0
   56.0415   29.1175   43.2380 H   0  0  0  0  0  0  0  0  0  0  0  0
   57.3300   30.4050   44.4220 C   0  0  0  0  0  0  0  0  0  0  0  0
   57.2090   29.5390   45.6210 C   0  0  0  0  0  0  0  0  0  0  0  0
   57.7200   29.9210   46.7060 O   0  0  0  0  0  0  0  0  0  0  0  0
   56.4590   28.3140   45.6070 N   0  0  0  0  0  0  0  0  0  0  0  0
   56.8570   27.1540   46.0470 C   0  0  0  0  0  0  0  0  0  0  0  0
   58.1690   26.9260   46.3450 N   0  0  0  0  0  0  0  0  0  0  0  0
   58.6030   25.7310   46.8230 C   0  0  0  0  0  0  0  0  0  0  0  0
   59.6699   25.5829   47.0463 H   0  0  0  0  0  0  0  0  0  0  0  0
   57.6960   24.6910   47.0310 C   0  0  0  0  0  0  0  0  0  0  0  0
   58.0419   23.7202   47.4155 H   0  0  0  0  0  0  0  0  0  0  0  0
   56.3460   24.8960   46.7460 C   0  0  0  0  0  0  0  0  0  0  0  0
   55.6196   24.0859   46.9073 H   0  0  0  0  0  0  0  0  0  0  0  0
   55.9180   26.1330   46.2550 C   0  0  0  0  0  0  0  0  0  0  0  0
   54.5710   26.3380   45.9750 O   0  0  0  0  0  0  0  0  0  0  0  0
   59.9540   31.1910   46.0430 C   0  0  0  0  0  0  0  0  0  0  0  0
   60.1723   30.2523   45.5126 H   0  0  0  0  0  0  0  0  0  0  0  0
   60.7270   31.5580   47.1500 C   0  0  0  0  0  0  0  0  0  0  0  0
   61.7270   30.7300   47.5490 F   0  0  0  0  0  0  0  0  0  0  0  0
   62.6240   33.2830   48.8780 N   0  0  0  0  0  0  0  0  0  0  0  0
   63.4180   33.6500   49.9180 C   0  0  0  0  0  0  0  0  0  0  0  0
   64.5042   33.7528   49.7778 H   0  0  0  0  0  0  0  0  0  0  0  0
  1  2  1  0
  2  3  2  0
  3  4  1  0
  4  5  1  0
  5  6  1  0
  5  7  2  0
  7  8  1  0
  8  9  2  0
  9 10  1  0
  9 11  1  0
 11 12  1  0
 11 13  2  0
 13 14  1  0
 14 15  2  0
 15 16  1  0
 15 17  1  0
 17 18  1  0
 17 19  2  0
 19 20  1  0
 19 21  1  0
 21 22  1  0
 21 23  2  0
 23 24  1  0
 24 25  2  0
 24 26  1  0
 26 27  2  3
 27 28  1  0
 28 29  1  0
 29 30  1  0
 29 31  2  0
 31 32  1  0
 31 33  1  0
 33 34  1  0
 33 35  2  0
 35 36  1  0
 13 37  1  0
 37 38  1  0
 37 39  2  0
 39 40  1  0
  7 41  1  0
 41 42  2  0
 42 43  1  0
 42  3  1  0
 39  8  1  0
 23 14  1  0
 35 27  1  0
M  CHG  3   4  -1  28  -1  36  -1
M  END
>  <UniqueID>  (24) 
23

>  <SMILES>  (24) 
[H]/N=c1\cnc(-c2ccc(-c3ccccc3C(=O)N=c3[n-]cccc3[O-])cc2F)c[n-]1

>  <Energy>  (24) 
72.28219066869336

>  <Genealogy>  (24) 
N=c1cnc(-c2ccc(-c3ccccc3C(=O)N=c3[n-]cccc3[O-])cc2F)c[n-]1 (protonated)
[H]/N=c1\cnc(-c2ccc(-c3ccccc3C(=O)N=c3[n-]cccc3[O-])cc2F)c[n-]1 (cis-trans isomerization)
[H]/N=c1\cnc(-c2ccc(-c3ccccc3C(=O)N=c3[n-]cccc3[O-])cc2F)c[n-]1 (3D coordinates assigned)
[H]/N=c1\cnc(-c2ccc(-c3ccccc3C(=O)N=c3[n-]cccc3[O-])cc2F)c[n-]1 (optimized conformer: 72.28219066869336 kcal/mol)

>  <smiles>  (24) 
N=c1cnc(-c2ccc(-c3ccccc3C(=O)N=c3[nH]cccc3O)cc2F)c[nH]1

>  <score_type>  (24) 
oracle

>  <origin>  (24) 
adg

>  <m_score__min__energy>  (24) 
-13.869999999999999

>  <m_primary>  (24) 
energy

$$$$
24:0
     RDKit          3D

 43 46  0  0  0  0  0  0  0  0999 V2000
   60.3421   28.1910   47.5803 H   0  0  0  0  0  0  0  0  0  0  0  0
   59.6340   27.7940   46.8380 C   0  0  0  0  0  0  0  0  0  0  0  0
   59.5815   26.7111   46.6522 H   0  0  0  0  0  0  0  0  0  0  0  0
   58.8340   28.6310   46.1590 C   0  0  0  0  0  0  0  0  0  0  0  0
   57.8890   28.2750   45.1900 C   0  0  0  0  0  0  0  0  0  0  0  0
   57.6130   27.0370   44.7350 C   0  0  0  0  0  0  0  0  0  0  0  0
   57.7750   26.8314   43.6666 H   0  0  0  0  0  0  0  0  0  0  0  0
   57.1070   25.9410   45.5820 C   0  0  0  0  0  0  0  0  0  0  0  0
   55.8540   25.8120   46.1490 C   0  0  0  0  0  0  0  0  0  0  0  0
   54.7930   26.6940   45.9950 O   0  0  0  0  0  0  0  0  0  0  0  0
   55.8030   24.7190   46.9360 N   0  0  0  0  0  0  0  0  0  0  0  0
   57.0540   24.2210   46.8390 C   0  0  0  0  0  0  0  0  0  0  0  0
   57.4250   23.1830   47.4460 O   0  0  0  0  0  0  0  0  0  0  0  0
   57.8720   24.9380   46.0440 N   0  0  0  0  0  0  0  0  0  0  0  0
   58.8790   24.7580   45.8380 H   0  0  0  0  0  0  0  0  0  0  0  0
   57.3340   29.4630   44.7330 C   0  0  0  0  0  0  0  0  0  0  0  0
   56.5645   29.5716   43.9545 H   0  0  0  0  0  0  0  0  0  0  0  0
   57.9350   30.4810   45.4450 C   0  0  0  0  0  0  0  0  0  0  0  0
   57.6600   31.9400   45.2440 C   0  0  0  0  0  0  0  0  0  0  0  0
   57.5669   32.4338   46.2225 H   0  0  0  0  0  0  0  0  0  0  0  0
   58.4882   32.3951   44.6809 H   0  0  0  0  0  0  0  0  0  0  0  0
   56.7230   32.0623   44.6809 H   0  0  0  0  0  0  0  0  0  0  0  0
   58.8460   29.9790   46.3070 N   0  0  0  0  0  0  0  0  0  0  0  0
   59.6740   30.7490   47.1960 C   0  0  0  0  0  0  0  0  0  0  0  0
   59.0930   31.4690   48.2470 C   0  0  0  0  0  0  0  0  0  0  0  0
   58.0023   31.4472   48.3877 H   0  0  0  0  0  0  0  0  0  0  0  0
   59.8910   32.2150   49.1180 C   0  0  0  0  0  0  0  0  0  0  0  0
   59.4230   32.7848   49.9343 H   0  0  0  0  0  0  0  0  0  0  0  0
   61.2880   32.2430   48.9590 C   0  0  0  0  0  0  0  0  0  0  0  0
   62.1040   33.0230   49.8560 N   0  0  0  0  0  0  0  0  0  0  0  0
   62.9970   34.0700   49.5220 C   0  0  0  0  0  0  0  0  0  0  0  0
   63.3190   34.3790   48.3450 O   0  0  0  0  0  0  0  0  0  0  0  0
   63.5370   34.6740   50.6320 O   0  0  0  0  0  0  0  0  0  0  0  0
   63.0230   34.0590   51.8070 C   0  0  0  0  0  0  0  0  0  0  0  0
   62.4408   34.7829   52.3961 H   0  0  0  0  0  0  0  0  0  0  0  0
   63.8284   33.6883   52.4581 H   0  0  0  0  0  0  0  0  0  0  0  0
   62.1130   32.9100   51.3110 C   0  0  0  0  0  0  0  0  0  0  0  0
   61.0952   33.0247   51.7122 H   0  0  0  0  0  0  0  0  0  0  0  0
   62.4782   31.9268   51.6426 H   0  0  0  0  0  0  0  0  0  0  0  0
   61.8650   31.5240   47.8960 C   0  0  0  0  0  0  0  0  0  0  0  0
   62.9548   31.5493   47.7485 H   0  0  0  0  0  0  0  0  0  0  0  0
   61.0650   30.7780   47.0260 C   0  0  0  0  0  0  0  0  0  0  0  0
   61.6450   30.0810   46.0160 F   0  0  0  0  0  0  0  0  0  0  0  0
  1  2  1  0
  2  3  1  0
  2  4  2  0
  4  5  1  0
  5  6  2  0
  6  7  1  0
  6  8  1  0
  8  9  2  0
  9 10  1  0
  9 11  1  0
 11 12  1  0
 12 13  2  0
 12 14  1  0
 14 15  1  0
  5 16  1  0
 16 17  1  0
 16 18  2  0
 18 19  1  0
 19 20  1  0
 19 21  1  0
 19 22  1  0
 18 23  1  0
 23 24  1  0
 24 25  2  0
 25 26  1  0
 25 27  1  0
 27 28  1  0
 27 29  2  0
 29 30  1  0
 30 31  1  0
 31 32  2  0
 31 33  1  0
 33 34  1  0
 34 35  1  0
 34 36  1  0
 34 37  1  0
 37 38  1  0
 37 39  1  0
 29 40  1  0
 40 41  1  0
 40 42  2  0
 42 43  1  0
 23  4  1  0
 42 24  1  0
 14  8  1  0
 37 30  1  0
M  CHG  2  10  -1  11  -1
M  END
>  <UniqueID>  (25) 
24

>  <SMILES>  (25) 
C=c1/c(=C/c2[nH]c(=O)[n-]c2[O-])cc(C)n1-c1ccc(N2CCOC2=O)cc1F

>  <Energy>  (25) 
137.60100680707194

>  <Genealogy>  (25) 
C=c1c(=Cc2[nH]c(=O)[n-]c2[O-])cc(C)n1-c1ccc(N2CCOC2=O)cc1F (protonated)
C=c1/c(=C/c2[nH]c(=O)[n-]c2[O-])cc(C)n1-c1ccc(N2CCOC2=O)cc1F (cis-trans isomerization)
C=c1/c(=C/c2[nH]c(=O)[n-]c2[O-])cc(C)n1-c1ccc(N2CCOC2=O)cc1F (3D coordinates assigned)
C=c1/c(=C/c2[nH]c(=O)[n-]c2[O-])cc(C)n1-c1ccc(N2CCOC2=O)cc1F (nonaromatic ring conformer: 137.60100680707194 kcal/mol)

>  <smiles>  (25) 
C=c1c(=Cc2[nH]c(=O)[nH]c2O)cc(C)n1-c1ccc(N2CCOC2=O)cc1F

>  <score_type>  (25) 
oracle

>  <origin>  (25) 
adg

>  <m_score__min__energy>  (25) 
-13.24

>  <m_primary>  (25) 
energy

$$$$
25:0
     RDKit          3D

 66 71  0  0  0  0  0  0  0  0999 V2000
   64.4350   33.1260   48.8930 C   0  0  0  0  0  0  0  0  0  0  0  0
   63.7270   33.5430   47.7330 O   0  0  0  0  0  0  0  0  0  0  0  0
   62.3270   33.5650   47.6210 C   0  0  0  0  0  0  0  0  0  0  0  0
   61.5630   33.2820   48.7580 C   0  0  0  0  0  0  0  0  0  0  0  0
   60.1660   33.2970   48.6990 C   0  0  0  0  0  0  0  0  0  0  0  0
   59.5050   33.5950   47.4990 C   0  0  0  0  0  0  0  0  0  0  0  0
   60.2690   33.8610   46.3370 C   0  0  0  0  0  0  0  0  0  0  0  0
   61.6720   33.8630   46.4100 C   0  0  0  0  0  0  0  0  0  0  0  0
   59.5980   34.2200   45.0340 C   0  0  0  0  0  0  0  0  0  0  0  0
   58.2050   33.7670   45.0440 N   0  0  0  0  0  0  0  0  0  0  0  0
   57.8610   32.5510   44.3630 C   0  0  0  0  0  0  0  0  0  0  0  0
   57.3000   31.4940   44.9870 N   0  0  0  0  0  0  0  0  0  0  0  0
   56.9980   30.4940   44.1150 C   0  0  0  0  0  0  0  0  0  0  0  0
   56.3090   29.2810   44.5700 C   0  0  0  0  0  0  0  0  0  0  0  0
   55.1060   29.3360   44.9480 O   0  0  0  0  0  0  0  0  0  0  0  0
   57.0570   28.0600   44.6300 N   0  0  0  0  0  0  0  0  0  0  0  0
   58.0410   27.6300   45.5810 C   0  0  0  0  0  0  0  0  0  0  0  0
   58.8640   26.5080   45.3830 C   0  0  0  0  0  0  0  0  0  0  0  0
   59.8300   26.1720   46.3360 C   0  0  0  0  0  0  0  0  0  0  0  0
   60.0010   26.9660   47.4720 C   0  0  0  0  0  0  0  0  0  0  0  0
   59.2180   28.1080   47.6650 C   0  0  0  0  0  0  0  0  0  0  0  0
   59.4670   28.9050   48.7970 O   0  0  0  0  0  0  0  0  0  0  0  0
   60.7320   29.0500   49.4460 C   0  0  0  0  0  0  0  0  0  0  0  0
   60.7130   30.2230   50.3880 C   0  0  0  0  0  0  0  0  0  0  0  0
   61.8980   30.7980   50.8520 C   0  0  0  0  0  0  0  0  0  0  0  0
   61.8290   31.9130   51.6890 C   0  0  0  0  0  0  0  0  0  0  0  0
   62.9070   32.4310   52.0950 O   0  0  0  0  0  0  0  0  0  0  0  0
   60.6100   32.4370   52.0510 N   0  0  0  0  0  0  0  0  0  0  0  0
   60.5370   33.5590   52.8360 C   0  0  0  0  0  0  0  0  0  0  0  0
   59.3020   34.0960   53.2010 C   0  0  0  0  0  0  0  0  0  0  0  0
   58.1290   33.4780   52.7800 C   0  0  0  0  0  0  0  0  0  0  0  0
   58.1920   32.3330   51.9790 C   0  0  0  0  0  0  0  0  0  0  0  0
   56.9240   31.6520   51.5390 C   0  0  0  0  0  0  0  0  0  0  0  0
   59.4540   31.8250   51.6120 C   0  0  0  0  0  0  0  0  0  0  0  0
   59.5270   30.7410   50.7950 N   0  0  0  0  0  0  0  0  0  0  0  0
   58.2220   28.4210   46.7220 C   0  0  0  0  0  0  0  0  0  0  0  0
   57.3240   30.7540   42.7830 C   0  0  0  0  0  0  0  0  0  0  0  0
   57.9850   32.3010   42.7050 S   0  0  0  0  0  0  0  0  0  0  0  0
   57.4070   34.1790   46.2010 C   0  0  0  0  0  0  0  0  0  0  0  0
   57.9910   33.5270   47.4600 C   0  0  0  0  0  0  0  0  0  0  0  0
   63.8884   33.4479   49.7917 H   0  0  0  0  0  0  0  0  0  0  0  0
   64.5264   32.0298   48.8925 H   0  0  0  0  0  0  0  0  0  0  0  0
   65.4380   33.5776   48.8925 H   0  0  0  0  0  0  0  0  0  0  0  0
   62.0658   33.0455   49.7073 H   0  0  0  0  0  0  0  0  0  0  0  0
   59.5801   33.0729   49.6026 H   0  0  0  0  0  0  0  0  0  0  0  0
   62.2642   34.0993   45.5137 H   0  0  0  0  0  0  0  0  0  0  0  0
   59.6248   35.3114   44.8995 H   0  0  0  0  0  0  0  0  0  0  0  0
   60.1308   33.7280   44.2069 H   0  0  0  0  0  0  0  0  0  0  0  0
   58.7479   25.8940   44.4777 H   0  0  0  0  0  0  0  0  0  0  0  0
   60.4570   25.2799   46.1907 H   0  0  0  0  0  0  0  0  0  0  0  0
   60.7580   26.6906   48.2211 H   0  0  0  0  0  0  0  0  0  0  0  0
   60.9541   28.1343   50.0135 H   0  0  0  0  0  0  0  0  0  0  0  0
   61.5047   29.2214   48.6821 H   0  0  0  0  0  0  0  0  0  0  0  0
   62.8724   30.3781   50.5619 H   0  0  0  0  0  0  0  0  0  0  0  0
   61.4630   34.0414   53.1820 H   0  0  0  0  0  0  0  0  0  0  0  0
   59.2561   35.0046   53.8193 H   0  0  0  0  0  0  0  0  0  0  0  0
   57.1529   33.8893   53.0767 H   0  0  0  0  0  0  0  0  0  0  0  0
   56.3480   31.3426   52.4236 H   0  0  0  0  0  0  0  0  0  0  0  0
   56.3237   32.3491   50.9359 H   0  0  0  0  0  0  0  0  0  0  0  0
   57.1736   30.7666   50.9359 H   0  0  0  0  0  0  0  0  0  0  0  0
   57.5776   29.2978   46.8831 H   0  0  0  0  0  0  0  0  0  0  0  0
   57.1755   30.0698   41.9346 H   0  0  0  0  0  0  0  0  0  0  0  0
   57.4400   35.2738   46.3022 H   0  0  0  0  0  0  0  0  0  0  0  0
   56.3619   33.8632   46.0664 H   0  0  0  0  0  0  0  0  0  0  0  0
   57.5915   34.0459   48.3438 H   0  0  0  0  0  0  0  0  0  0  0  0
   57.7039   32.4652   47.4508 H   0  0  0  0  0  0  0  0  0  0  0  0
  1  2  1  0
  2  3  1  0
  3  4  2  0
  4  5  1  0
  5  6  2  0
  6  7  1  0
  7  8  2  0
  7  9  1  0
  9 10  1  0
 10 11  1  0
 11 12  2  0
 12 13  1  0
 13 14  1  0
 14 15  2  0
 14 16  1  0
 16 17  1  0
 17 18  2  0
 18 19  1  0
 19 20  2  0
 20 21  1  0
 21 22  1  0
 22 23  1  0
 23 24  1  0
 24 25  2  0
 25 26  1  0
 26 27  2  0
 26 28  1  0
 28 29  1  0
 29 30  2  0
 30 31  1  0
 31 32  2  0
 32 33  1  0
 32 34  1  0
 34 35  2  0
 21 36  2  0
 13 37  2  0
 37 38  1  0
 10 39  1  0
 39 40  1  0
  8  3  1  0
 38 11  1  0
 40  6  1  0
 36 17  1  0
 35 24  1  0
 34 28  1  0
  1 41  1  0
  1 42  1  0
  1 43  1  0
  4 44  1  0
  5 45  1  0
  8 46  1  0
  9 47  1  0
  9 48  1  0
 18 49  1  0
 19 50  1  0
 20 51  1  0
 23 52  1  0
 23 53  1  0
 25 54  1  0
 29 55  1  0
 30 56  1  0
 31 57  1  0
 33 58  1  0
 33 59  1  0
 33 60  1  0
 36 61  1  0
 37 62  1  0
 39 63  1  0
 39 64  1  0
 40 65  1  0
 40 66  1  0
M  CHG  1  16  -1
M  END
>  <UniqueID>  (26) 
25

>  <SMILES>  (26) 
COc1ccc2c(c1)CN(c1nc(C(=O)[N-]c3cccc(OCc4cc(=O)n5cccc(C)c5n4)c3)cs1)CC2

>  <Energy>  (26) 
113.55066837904855

>  <Genealogy>  (26) 
COc1ccc2c(c1)CN(c1nc(C(=O)[N-]c3cccc(OCc4cc(=O)n5cccc(C)c5n4)c3)cs1)CC2 (protonated)
COc1ccc2c(c1)CN(c1nc(C(=O)[N-]c3cccc(OCc4cc(=O)n5cccc(C)c5n4)c3)cs1)CC2 (3D coordinates assigned)
COc1ccc2c(c1)CN(c1nc(C(=O)[N-]c3cccc(OCc4cc(=O)n5cccc(C)c5n4)c3)cs1)CC2 (nonaromatic ring conformer: 113.55066837904855 kcal/mol)

>  <smiles>  (26) 
COc1ccc2c(c1)CN(c1nc(C(=O)Nc3cccc(OCc4cc(=O)n5cccc(C)c5n4)c3)cs1)CC2

>  <score_type>  (26) 
oracle

>  <origin>  (26) 
adg

>  <m_score__min__energy>  (26) 
-12.640000000000001

>  <m_primary>  (26) 
energy

$$$$
26:0
     RDKit          3D

 55 58  0  0  0  0  0  0  0  0999 V2000
   57.7738   24.3622   44.8480 H   0  0  0  0  0  0  0  0  0  0  0  0
   57.9500   25.3170   45.3650 C   0  0  0  0  0  0  0  0  0  0  0  0
   59.0410   25.4670   46.1540 N   0  0  0  0  0  0  0  0  0  0  0  0
   59.2700   26.6090   46.8520 C   0  0  0  0  0  0  0  0  0  0  0  0
   60.3840   26.6770   47.6960 C   0  0  0  0  0  0  0  0  0  0  0  0
   61.1100   25.8508   47.7116 H   0  0  0  0  0  0  0  0  0  0  0  0
   60.5780   27.7850   48.5160 C   0  0  0  0  0  0  0  0  0  0  0  0
   61.4813   27.8518   49.1402 H   0  0  0  0  0  0  0  0  0  0  0  0
   59.6310   28.8140   48.5510 C   0  0  0  0  0  0  0  0  0  0  0  0
   59.8350   29.9270   49.4390 N   0  0  0  0  0  0  0  0  0  0  0  0
   60.7260   30.4600   49.3340 H   0  0  0  0  0  0  0  0  0  0  0  0
   58.9160   30.2860   50.4880 C   0  0  0  0  0  0  0  0  0  0  0  0
   58.1520   29.4040   50.9670 O   0  0  0  0  0  0  0  0  0  0  0  0
   58.8540   31.6350   51.0030 N   0  0  0  0  0  0  0  0  0  0  0  0
   59.8810   32.6200   50.6290 C   0  0  0  0  0  0  0  0  0  0  0  0
   60.8725   32.1508   50.7114 H   0  0  0  0  0  0  0  0  0  0  0  0
   59.6855   32.9461   49.5968 H   0  0  0  0  0  0  0  0  0  0  0  0
   59.8370   33.8530   51.5380 C   0  0  0  0  0  0  0  0  0  0  0  0
   60.2355   33.5844   52.5275 H   0  0  0  0  0  0  0  0  0  0  0  0
   60.4444   34.6473   51.0796 H   0  0  0  0  0  0  0  0  0  0  0  0
   58.5170   34.3270   51.6860 O   0  0  0  0  0  0  0  0  0  0  0  0
   57.7610   33.3710   52.3990 C   0  0  0  0  0  0  0  0  0  0  0  0
   58.2848   33.1203   53.3333 H   0  0  0  0  0  0  0  0  0  0  0  0
   56.7705   33.7960   52.6188 H   0  0  0  0  0  0  0  0  0  0  0  0
   57.5770   32.0980   51.5690 C   0  0  0  0  0  0  0  0  0  0  0  0
   57.1639   31.3078   52.2131 H   0  0  0  0  0  0  0  0  0  0  0  0
   56.8922   32.3232   50.7381 H   0  0  0  0  0  0  0  0  0  0  0  0
   58.5250   28.7640   47.6820 C   0  0  0  0  0  0  0  0  0  0  0  0
   57.7712   29.5642   47.7192 H   0  0  0  0  0  0  0  0  0  0  0  0
   58.3670   27.7020   46.7620 C   0  0  0  0  0  0  0  0  0  0  0  0
   57.2870   27.6040   45.8280 C   0  0  0  0  0  0  0  0  0  0  0  0
   56.5110   28.5910   45.4600 N   0  0  0  0  0  0  0  0  0  0  0  0
   56.7400   29.6350   44.5040 C   0  0  0  0  0  0  0  0  0  0  0  0
   56.9510   29.3510   43.2950 O   0  0  0  0  0  0  0  0  0  0  0  0
   56.6960   31.0110   44.8980 N   0  0  0  0  0  0  0  0  0  0  0  0
   57.7410   31.7290   45.5690 C   0  0  0  0  0  0  0  0  0  0  0  0
   59.0160   31.1730   45.7620 C   0  0  0  0  0  0  0  0  0  0  0  0
   59.2409   30.1701   45.3700 H   0  0  0  0  0  0  0  0  0  0  0  0
   60.0010   31.8880   46.4500 C   0  0  0  0  0  0  0  0  0  0  0  0
   61.0011   31.4504   46.5855 H   0  0  0  0  0  0  0  0  0  0  0  0
   59.7190   33.1650   46.9700 C   0  0  0  0  0  0  0  0  0  0  0  0
   60.6900   33.9300   47.6960 N   0  0  0  0  0  0  0  0  0  0  0  0
   62.2610   33.3790   48.1810 S   0  0  0  0  0  0  0  0  0  0  0  0
   62.1510   31.9510   48.6340 O   0  0  0  0  0  0  0  0  0  0  0  0
   62.7680   34.2120   49.3230 O   0  0  0  0  0  0  0  0  0  0  0  0
   63.3900   33.4510   46.8060 C   0  0  0  0  0  0  0  0  0  0  0  0
   64.4217   33.5168   47.1818 H   0  0  0  0  0  0  0  0  0  0  0  0
   63.2800   32.5440   46.1934 H   0  0  0  0  0  0  0  0  0  0  0  0
   63.1657   34.3367   46.1934 H   0  0  0  0  0  0  0  0  0  0  0  0
   58.4410   33.7080   46.7870 C   0  0  0  0  0  0  0  0  0  0  0  0
   58.2103   34.7063   47.1872 H   0  0  0  0  0  0  0  0  0  0  0  0
   57.4560   32.9920   46.1000 C   0  0  0  0  0  0  0  0  0  0  0  0
   56.4518   33.4237   45.9763 H   0  0  0  0  0  0  0  0  0  0  0  0
   57.0510   26.3690   45.2070 C   0  0  0  0  0  0  0  0  0  0  0  0
   56.1502   26.2302   44.5912 H   0  0  0  0  0  0  0  0  0  0  0  0
  1  2  1  0
  2  3  1  0
  3  4  1  0
  4  5  2  0
  5  6  1  0
  5  7  1  0
  7  8  1  0
  7  9  2  0
  9 10  1  0
 10 11  1  0
 10 12  1  0
 12 13  2  0
 12 14  1  0
 14 15  1  0
 15 16  1  0
 15 17  1  0
 15 18  1  0
 18 19  1  0
 18 20  1  0
 18 21  1  0
 21 22  1  0
 22 23  1  0
 22 24  1  0
 22 25  1  0
 25 26  1  0
 25 27  1  0
  9 28  1  0
 28 29  1  0
 28 30  2  0
 30 31  1  0
 31 32  2  0
 32 33  1  0
 33 34  2  0
 33 35  1  0
 35 36  1  0
 36 37  2  0
 37 38  1  0
 37 39  1  0
 39 40  1  0
 39 41  2  0
 41 42  1  0
 42 43  1  0
 43 44  2  0
 43 45  2  0
 43 46  1  0
 46 47  1  0
 46 48  1  0
 46 49  1  0
 41 50  1  0
 50 51  1  0
 50 52  2  0
 52 53  1  0
 31 54  1  0
 54 55  1  0
 54  2  2  0
 30  4  1  0
 52 36  1  0
 25 14  1  0
M  CHG  3   3  -1  35  -1  42  -1
M  END
>  <UniqueID>  (27) 
26

>  <SMILES>  (27) 
CS(=O)(=O)[N-]c1ccc([N-]C(=O)/N=c2/cc[n-]c3ccc(NC(=O)N4CCOCC4)cc23)cc1

>  <Energy>  (27) 
90.69440626530218

>  <Genealogy>  (27) 
CS(=O)(=O)[N-]c1ccc([N-]C(=O)N=c2cc[n-]c3ccc(NC(=O)N4CCOCC4)cc23)cc1 (protonated)
CS(=O)(=O)[N-]c1ccc([N-]C(=O)/N=c2/cc[n-]c3ccc(NC(=O)N4CCOCC4)cc23)cc1 (cis-trans isomerization)
CS(=O)(=O)[N-]c1ccc([N-]C(=O)/N=c2/cc[n-]c3ccc(NC(=O)N4CCOCC4)cc23)cc1 (3D coordinates assigned)
CS(=O)(=O)[N-]c1ccc([N-]C(=O)/N=c2/cc[n-]c3ccc(NC(=O)N4CCOCC4)cc23)cc1 (nonaromatic ring conformer: 90.69440626530218 kcal/mol)

>  <smiles>  (27) 
CS(=O)(=O)Nc1ccc(NC(=O)N=c2cc[nH]c3ccc(NC(=O)N4CCOCC4)cc23)cc1

>  <score_type>  (27) 
oracle

>  <origin>  (27) 
adg

>  <m_score__min__energy>  (27) 
-12.81

>  <m_primary>  (27) 
energy

$$$$
27:0
     RDKit          3D

 48 50  0  0  0  0  0  0  0  0999 V2000
   57.9737   33.7035   43.0655 H   0  0  0  0  0  0  0  0  0  0  0  0
   57.7430   33.3190   44.0700 C   0  0  0  0  0  0  0  0  0  0  0  0
   57.4110   31.8860   44.2030 C   0  0  0  0  0  0  0  0  0  0  0  0
   56.2770   31.5550   44.6410 O   0  0  0  0  0  0  0  0  0  0  0  0
   58.3270   30.8810   43.7460 N   0  0  0  0  0  0  0  0  0  0  0  0
   58.9020   31.1080   42.9030 H   0  0  0  0  0  0  0  0  0  0  0  0
   58.5900   29.6440   44.4340 C   0  0  0  0  0  0  0  0  0  0  0  0
   57.7640   28.5150   44.2730 C   0  0  0  0  0  0  0  0  0  0  0  0
   56.9439   28.5370   43.5402 H   0  0  0  0  0  0  0  0  0  0  0  0
   57.9810   27.3660   45.0400 C   0  0  0  0  0  0  0  0  0  0  0  0
   57.3310   26.4884   44.9080 H   0  0  0  0  0  0  0  0  0  0  0  0
   59.0230   27.3280   45.9760 C   0  0  0  0  0  0  0  0  0  0  0  0
   59.2510   25.9240   47.0120 S   0  0  0  0  0  0  0  0  0  0  0  0
   59.9860   24.8330   46.2850 O   0  0  0  0  0  0  0  0  0  0  0  0
   60.0550   26.3280   48.2150 O   0  0  0  0  0  0  0  0  0  0  0  0
   57.7060   25.3350   47.5280 N   0  0  0  0  0  0  0  0  0  0  0  0
   56.7910   24.9290   46.7040 C   0  0  0  0  0  0  0  0  0  0  0  0
   55.5810   25.5150   46.5710 N   0  0  0  0  0  0  0  0  0  0  0  0
   54.8260   24.8830   45.6330 C   0  0  0  0  0  0  0  0  0  0  0  0
   53.8087   25.2121   45.3746 H   0  0  0  0  0  0  0  0  0  0  0  0
   55.4340   23.7900   45.0240 C   0  0  0  0  0  0  0  0  0  0  0  0
   54.9859   23.1519   44.2481 H   0  0  0  0  0  0  0  0  0  0  0  0
   56.9740   23.6130   45.6800 S   0  0  0  0  0  0  0  0  0  0  0  0
   59.8510   28.4440   46.1330 C   0  0  0  0  0  0  0  0  0  0  0  0
   60.6751   28.4164   46.8611 H   0  0  0  0  0  0  0  0  0  0  0  0
   59.6360   29.5940   45.3690 C   0  0  0  0  0  0  0  0  0  0  0  0
   60.2917   30.4673   45.5012 H   0  0  0  0  0  0  0  0  0  0  0  0
   57.7810   34.1820   45.0980 C   0  0  0  0  0  0  0  0  0  0  0  0
   57.2363   35.1320   44.9943 H   0  0  0  0  0  0  0  0  0  0  0  0
   58.5090   33.9350   46.3600 C   0  0  0  0  0  0  0  0  0  0  0  0
   59.5410   34.7860   46.7680 C   0  0  0  0  0  0  0  0  0  0  0  0
   59.8401   35.6291   46.1279 H   0  0  0  0  0  0  0  0  0  0  0  0
   60.1920   34.5720   47.9800 C   0  0  0  0  0  0  0  0  0  0  0  0
   60.9877   35.2623   48.2968 H   0  0  0  0  0  0  0  0  0  0  0  0
   59.8490   33.4910   48.8020 C   0  0  0  0  0  0  0  0  0  0  0  0
   60.5410   33.3820   50.0200 O   0  0  0  0  0  0  0  0  0  0  0  0
   59.9700   33.4170   51.3220 C   0  0  0  0  0  0  0  0  0  0  0  0
   60.7705   33.3679   52.0749 H   0  0  0  0  0  0  0  0  0  0  0  0
   59.4039   34.3515   51.4491 H   0  0  0  0  0  0  0  0  0  0  0  0
   59.2940   32.5586   51.4491 H   0  0  0  0  0  0  0  0  0  0  0  0
   58.8420   32.5860   48.3720 C   0  0  0  0  0  0  0  0  0  0  0  0
   58.5130   31.4750   49.1660 O   0  0  0  0  0  0  0  0  0  0  0  0
   59.1820   30.2190   49.1280 C   0  0  0  0  0  0  0  0  0  0  0  0
   59.3673   29.8711   50.1549 H   0  0  0  0  0  0  0  0  0  0  0  0
   58.5551   29.4855   48.5998 H   0  0  0  0  0  0  0  0  0  0  0  0
   60.1405   30.3299   48.5998 H   0  0  0  0  0  0  0  0  0  0  0  0
   58.1860   32.8210   47.1450 C   0  0  0  0  0  0  0  0  0  0  0  0
   57.4111   32.1203   46.8006 H   0  0  0  0  0  0  0  0  0  0  0  0
  1  2  1  0
  2  3  1  0
  3  4  2  0
  3  5  1  0
  5  6  1  0
  5  7  1  0
  7  8  2  0
  8  9  1  0
  8 10  1  0
 10 11  1  0
 10 12  2  0
 12 13  1  0
 13 14  2  0
 13 15  2  0
 13 16  1  0
 16 17  2  0
 17 18  1  0
 18 19  1  0
 19 20  1  0
 19 21  2  0
 21 22  1  0
 21 23  1  0
 12 24  1  0
 24 25  1  0
 24 26  2  0
 26 27  1  0
  2 28  2  3
 28 29  1  0
 28 30  1  0
 30 31  2  0
 31 32  1  0
 31 33  1  0
 33 34  1  0
 33 35  2  0
 35 36  1  0
 36 37  1  0
 37 38  1  0
 37 39  1  0
 37 40  1  0
 35 41  1  0
 41 42  1  0
 42 43  1  0
 43 44  1  0
 43 45  1  0
 43 46  1  0
 41 47  2  0
 47 48  1  0
 26  7  1  0
 47 30  1  0
 23 17  1  0
M  CHG  1  18  -1
M  END
>  <UniqueID>  (28) 
27

>  <SMILES>  (28) 
COc1ccc(C=CC(=O)Nc2ccc(S(=O)(=O)/N=c3\[n-]ccs3)cc2)cc1OC

>  <Energy>  (28) 
92.43854996405767

>  <Genealogy>  (28) 
COc1ccc(C=CC(=O)Nc2ccc(S(=O)(=O)N=c3[n-]ccs3)cc2)cc1OC (protonated)
COc1ccc(C=CC(=O)Nc2ccc(S(=O)(=O)/N=c3\[n-]ccs3)cc2)cc1OC (cis-trans isomerization)
COc1ccc(C=CC(=O)Nc2ccc(S(=O)(=O)/N=c3\[n-]ccs3)cc2)cc1OC (3D coordinates assigned)
COc1ccc(C=CC(=O)Nc2ccc(S(=O)(=O)/N=c3\[n-]ccs3)cc2)cc1OC (optimized conformer: 92.43854996405767 kcal/mol)

>  <smiles>  (28) 
COc1ccc(C=CC(=O)Nc2ccc(S(=O)(=O)N=c3[nH]ccs3)cc2)cc1OC

>  <score_type>  (28) 
oracle

>  <origin>  (28) 
adg

>  <m_score__min__energy>  (28) 
-10.34

>  <m_primary>  (28) 
energy

$$$$
28:0
     RDKit          3D

 52 55  0  0  1  0  0  0  0  0999 V2000
   57.3680   34.0710   45.2280 C   0  0  0  0  0  0  0  0  0  0  0  0
   58.0600   33.0210   45.9240 N   0  0  0  0  0  0  0  0  0  0  0  0
   59.1630   33.2520   46.8040 C   0  0  0  0  0  0  0  0  0  0  0  0
   60.4270   33.1460   46.3640 N   0  0  0  0  0  0  0  0  0  0  0  0
   61.4440   33.3700   47.2100 C   0  0  0  0  0  0  0  0  0  0  0  0
   62.7180   33.2570   46.6980 C   0  0  0  0  0  0  0  0  0  0  0  0
   63.7470   33.5060   47.5790 C   0  0  0  0  0  0  0  0  0  0  0  0
   63.5850   33.8490   48.8830 C   0  0  0  0  0  0  0  0  0  0  0  0
   62.2750   33.9660   49.4160 C   0  0  0  0  0  0  0  0  0  0  0  0
   61.2680   33.7140   48.5450 C   0  0  0  0  0  0  0  0  0  0  0  0
   59.9730   33.8110   48.9700 C   0  0  0  0  0  0  0  0  0  0  0  0
   59.6620   33.9630   50.1550 N   0  0  0  0  0  0  0  0  0  0  0  0
   59.7510   33.0290   51.2020 C   0  0  0  0  0  0  0  0  0  0  0  0
   59.7590   31.7020   50.4270 C   0  0  0  0  0  0  0  0  0  0  0  0
   58.5420   31.2030   50.0440 C   0  0  0  0  0  0  0  0  0  0  0  0
   58.5310   30.0250   49.3370 C   0  0  0  0  0  0  0  0  0  0  0  0
   59.7170   29.3960   49.0390 C   0  0  0  0  0  0  0  0  0  0  0  0
   59.6540   28.1280   48.2720 C   0  0  0  0  0  0  0  0  0  0  0  0
   59.4120   28.2740   46.8800 N   0  0  0  0  0  0  0  0  0  0  0  0
   60.3210   29.1410   46.2130 C   0  0  0  0  0  0  0  0  0  0  0  0
   60.2000   28.9420   44.7020 C   0  0  0  0  0  0  0  0  0  0  0  0
   58.8620   29.3790   44.3460 N   0  0  0  0  0  0  0  0  0  0  0  0
   57.8490   29.3370   45.3650 C   0  0  0  0  0  0  0  0  0  0  0  0
   56.8660   30.1020   45.3370 O   0  0  0  0  0  0  0  0  0  0  0  0
   58.0570   28.3170   46.4540 C   0  0  0  0  0  0  0  0  0  0  0  0
   60.9570   29.8680   49.4060 C   0  0  0  0  0  0  0  0  0  0  0  0
   60.9460   31.0700   50.1280 C   0  0  0  0  0  0  0  0  0  0  0  0
   58.9570   33.5790   48.0850 N   0  0  0  0  0  0  0  0  0  0  0  0
   56.9151   34.7582   45.9578 H   0  0  0  0  0  0  0  0  0  0  0  0
   58.0796   34.6234   44.5968 H   0  0  0  0  0  0  0  0  0  0  0  0
   56.5797   33.6350   44.5968 H   0  0  0  0  0  0  0  0  0  0  0  0
   57.7360   32.0350   45.7760 H   0  0  0  0  0  0  0  0  0  0  0  0
   62.9024   32.9842   45.6484 H   0  0  0  0  0  0  0  0  0  0  0  0
   64.7756   33.4208   47.1985 H   0  0  0  0  0  0  0  0  0  0  0  0
   64.4619   34.0346   49.5207 H   0  0  0  0  0  0  0  0  0  0  0  0
   62.0897   34.2424   50.4645 H   0  0  0  0  0  0  0  0  0  0  0  0
   60.6765   33.1617   51.7816 H   0  0  0  0  0  0  0  0  0  0  0  0
   58.9445   33.1098   51.9456 H   0  0  0  0  0  0  0  0  0  0  0  0
   57.6073   31.7266   50.2935 H   0  0  0  0  0  0  0  0  0  0  0  0
   57.5766   29.5864   49.0104 H   0  0  0  0  0  0  0  0  0  0  0  0
   60.6143   27.6064   48.3975 H   0  0  0  0  0  0  0  0  0  0  0  0
   58.7951   27.5707   48.6741 H   0  0  0  0  0  0  0  0  0  0  0  0
   60.0840   30.1851   46.4654 H   0  0  0  0  0  0  0  0  0  0  0  0
   61.3482   28.9106   46.5319 H   0  0  0  0  0  0  0  0  0  0  0  0
   60.9524   29.5474   44.1754 H   0  0  0  0  0  0  0  0  0  0  0  0
   60.3693   27.8925   44.4193 H   0  0  0  0  0  0  0  0  0  0  0  0
   58.6130   29.7160   43.3970 H   0  0  0  0  0  0  0  0  0  0  0  0
   57.4211   28.5774   47.3129 H   0  0  0  0  0  0  0  0  0  0  0  0
   57.7912   27.3276   46.0534 H   0  0  0  0  0  0  0  0  0  0  0  0
   61.8883   29.3408   49.1515 H   0  0  0  0  0  0  0  0  0  0  0  0
   61.8964   31.5135   50.4596 H   0  0  0  0  0  0  0  0  0  0  0  0
   57.9650   33.6540   48.3960 H   0  0  0  0  0  0  0  0  0  0  0  0
  1  2  1  0
  2  3  1  0
  3  4  2  0
  4  5  1  0
  5  6  2  0
  6  7  1  0
  7  8  2  0
  8  9  1  0
  9 10  2  0
 10 11  1  0
 11 12  2  0
 12 13  1  0
 13 14  1  0
 14 15  2  0
 15 16  1  0
 16 17  2  0
 17 18  1  0
 18 19  1  0
 19 20  1  0
 20 21  1  0
 21 22  1  0
 22 23  1  0
 23 24  2  0
 23 25  1  0
 17 26  1  0
 26 27  2  0
 11 28  1  0
 28  3  1  0
 10  5  1  0
 27 14  1  0
 25 19  1  0
  1 29  1  0
  1 30  1  0
  1 31  1  0
  2 32  1  0
  6 33  1  0
  7 34  1  0
  8 35  1  0
  9 36  1  0
 13 37  1  0
 13 38  1  0
 15 39  1  0
 16 40  1  0
 18 41  1  0
 18 42  1  0
 20 43  1  0
 20 44  1  0
 21 45  1  0
 21 46  1  0
 22 47  1  0
 25 48  1  0
 25 49  1  0
 26 50  1  0
 27 51  1  0
 28 52  1  0
M  END
>  <smiles>  (29) 
CNc1nc2ccccc2c(=NCc2ccc(CN3CCNC(=O)C3)cc2)[nH]1

>  <score_type>  (29) 
oracle

>  <origin>  (29) 
adg

>  <m_score__min__energy>  (29) 
-8.8399999999999999

>  <m_primary>  (29) 
energy

$$$$
29:0
     RDKit          3D

 26 27  0  0  0  0  0  0  0  0999 V2000
   59.9450   31.2260   47.5140 C   0  0  0  0  0  0  0  0  0  0  0  0
   59.0760   32.0460   46.5900 C   0  0  0  0  0  0  0  0  0  0  0  0
   58.7720   33.3930   46.8970 C   0  0  0  0  0  0  0  0  0  0  0  0
   59.2620   34.0220   48.1020 C   0  0  0  0  0  0  0  0  0  0  0  0
   59.6530   34.5260   49.0670 N   0  0  0  0  0  0  0  0  0  0  0  0
   57.9840   34.1520   46.0230 C   0  0  0  0  0  0  0  0  0  0  0  0
   57.5020   33.5890   44.8420 C   0  0  0  0  0  0  0  0  0  0  0  0
   57.8160   32.2700   44.5170 C   0  0  0  0  0  0  0  0  0  0  0  0
   58.6200   31.4950   45.3710 C   0  0  0  0  0  0  0  0  0  0  0  0
   58.9420   30.1670   45.0480 O   0  0  0  0  0  0  0  0  0  0  0  0
   58.2090   29.0370   45.4390 C   0  0  0  0  0  0  0  0  0  0  0  0
   58.8780   27.9640   46.0310 C   0  0  0  0  0  0  0  0  0  0  0  0
   58.1890   26.8590   46.4150 N   0  0  0  0  0  0  0  0  0  0  0  0
   56.8490   26.7670   46.2200 C   0  0  0  0  0  0  0  0  0  0  0  0
   56.2340   25.7320   46.5880 O   0  0  0  0  0  0  0  0  0  0  0  0
   56.1740   27.7880   45.6230 N   0  0  0  0  0  0  0  0  0  0  0  0
   56.8260   28.9120   45.2180 C   0  0  0  0  0  0  0  0  0  0  0  0
   56.1870   29.8230   44.6250 O   0  0  0  0  0  0  0  0  0  0  0  0
   59.6945   31.4624   48.5587 H   0  0  0  0  0  0  0  0  0  0  0  0
   59.7703   30.1560   47.3281 H   0  0  0  0  0  0  0  0  0  0  0  0
   61.0031   31.4625   47.3281 H   0  0  0  0  0  0  0  0  0  0  0  0
   57.7442   35.1969   46.2692 H   0  0  0  0  0  0  0  0  0  0  0  0
   56.8730   34.1864   44.1656 H   0  0  0  0  0  0  0  0  0  0  0  0
   57.4313   31.8320   43.5842 H   0  0  0  0  0  0  0  0  0  0  0  0
   59.9658   28.0140   46.1866 H   0  0  0  0  0  0  0  0  0  0  0  0
   55.1440   27.7010   45.4640 H   0  0  0  0  0  0  0  0  0  0  0  0
  1  2  1  0
  2  3  2  0
  3  4  1  0
  4  5  3  0
  3  6  1  0
  6  7  2  0
  7  8  1  0
  8  9  2  0
  9 10  1  0
 10 11  1  0
 11 12  2  0
 12 13  1  0
 13 14  1  0
 14 15  2  0
 14 16  1  0
 16 17  1  0
 17 18  2  0
  9  2  1  0
 17 11  1  0
  1 19  1  0
  1 20  1  0
  1 21  1  0
  6 22  1  0
  7 23  1  0
  8 24  1  0
 12 25  1  0
 16 26  1  0
M  CHG  1  13  -1
M  END
>  <UniqueID>  (30) 
28

>  <SMILES>  (30) 
Cc1c(C#N)cccc1Oc1c[n-]c(=O)[nH]c1=O

>  <Energy>  (30) 
36.84804345828728

>  <Genealogy>  (30) 
Cc1c(C#N)cccc1Oc1c[n-]c(=O)[nH]c1=O (protonated)
Cc1c(C#N)cccc1Oc1c[n-]c(=O)[nH]c1=O (3D coordinates assigned)
Cc1c(C#N)cccc1Oc1c[n-]c(=O)[nH]c1=O (optimized conformer: 36.84804345828728 kcal/mol)

>  <smiles>  (30) 
Cc1c(C#N)cccc1Oc1c[nH]c(=O)[nH]c1=O

>  <score_type>  (30) 
oracle

>  <origin>  (30) 
adg

>  <m_score__min__energy>  (30) 
-8.1899999999999995

>  <m_primary>  (30) 
energy

$$$$
30:0
     RDKit          3D

 58 61  0  0  0  0  0  0  0  0999 V2000
   65.1320   33.0880   48.9750 N   0  0  0  0  0  0  0  0  0  0  0  0
   63.5720   32.7430   49.6330 S   0  0  0  0  0  0  0  0  0  0  0  0
   63.4270   31.2580   49.8240 O   0  0  0  0  0  0  0  0  0  0  0  0
   63.4220   33.4180   50.9670 O   0  0  0  0  0  0  0  0  0  0  0  0
   62.3310   33.3290   48.5300 C   0  0  0  0  0  0  0  0  0  0  0  0
   62.5590   33.3450   47.1470 C   0  0  0  0  0  0  0  0  0  0  0  0
   61.5770   33.8300   46.2780 C   0  0  0  0  0  0  0  0  0  0  0  0
   60.3600   34.3170   46.7830 C   0  0  0  0  0  0  0  0  0  0  0  0
   59.3050   34.8390   45.8410 C   0  0  0  0  0  0  0  0  0  0  0  0
   58.0930   34.0180   45.9070 N   0  0  0  0  0  0  0  0  0  0  0  0
   57.8470   32.9210   45.2480 C   0  0  0  0  0  0  0  0  0  0  0  0
   57.7780   32.8780   43.8420 C   0  0  0  0  0  0  0  0  0  0  0  0
   57.5300   31.6650   43.2010 C   0  0  0  0  0  0  0  0  0  0  0  0
   57.3580   30.4920   43.9500 C   0  0  0  0  0  0  0  0  0  0  0  0
   57.0890   29.1980   43.2870 C   0  0  0  0  0  0  0  0  0  0  0  0
   56.2290   29.1460   42.3660 O   0  0  0  0  0  0  0  0  0  0  0  0
   57.7790   27.9980   43.6800 N   0  0  0  0  0  0  0  0  0  0  0  0
   58.1710   27.0100   42.6690 C   0  0  0  0  0  0  0  0  0  0  0  0
   57.5640   25.6480   43.0170 C   0  0  0  0  0  0  0  0  0  0  0  0
   57.8150   25.2880   44.4240 N   0  0  0  0  0  0  0  0  0  0  0  0
   57.5820   23.9360   44.8770 C   0  0  0  0  0  0  0  0  0  0  0  0
   58.1530   23.5240   45.9250 O   0  0  0  0  0  0  0  0  0  0  0  0
   56.7220   22.9790   44.0740 C   0  0  0  0  0  0  0  0  0  0  0  0
   57.5080   21.7860   43.5360 C   0  0  0  0  0  0  0  0  0  0  0  0
   56.6410   20.8430   44.3600 C   0  0  0  0  0  0  0  0  0  0  0  0
   55.8530   22.0280   44.9000 C   0  0  0  0  0  0  0  0  0  0  0  0
   58.4670   26.2550   45.3210 C   0  0  0  0  0  0  0  0  0  0  0  0
   57.8960   27.6640   45.1090 C   0  0  0  0  0  0  0  0  0  0  0  0
   57.4050   30.5800   45.3490 C   0  0  0  0  0  0  0  0  0  0  0  0
   57.6520   31.7730   45.9520 N   0  0  0  0  0  0  0  0  0  0  0  0
   60.1320   34.2910   48.1680 C   0  0  0  0  0  0  0  0  0  0  0  0
   61.1150   33.8060   49.0360 C   0  0  0  0  0  0  0  0  0  0  0  0
   65.7670   32.3140   49.2740 H   0  0  0  0  0  0  0  0  0  0  0  0
   65.0470   33.0230   47.9360 H   0  0  0  0  0  0  0  0  0  0  0  0
   63.5134   32.9749   46.7442 H   0  0  0  0  0  0  0  0  0  0  0  0
   61.7583   33.8302   45.1931 H   0  0  0  0  0  0  0  0  0  0  0  0
   59.0547   35.8737   46.1182 H   0  0  0  0  0  0  0  0  0  0  0  0
   59.6999   34.8011   44.8150 H   0  0  0  0  0  0  0  0  0  0  0  0
   57.9190   33.7962   43.2529 H   0  0  0  0  0  0  0  0  0  0  0  0
   57.4690   31.6279   42.1033 H   0  0  0  0  0  0  0  0  0  0  0  0
   57.8062   27.3317   41.6824 H   0  0  0  0  0  0  0  0  0  0  0  0
   59.2676   26.9257   42.6475 H   0  0  0  0  0  0  0  0  0  0  0  0
   56.4780   25.6866   42.8463 H   0  0  0  0  0  0  0  0  0  0  0  0
   58.0344   24.8870   42.3770 H   0  0  0  0  0  0  0  0  0  0  0  0
   56.2396   23.7034   43.4013 H   0  0  0  0  0  0  0  0  0  0  0  0
   57.4192   21.6431   42.4489 H   0  0  0  0  0  0  0  0  0  0  0  0
   58.6040   21.7555   43.6252 H   0  0  0  0  0  0  0  0  0  0  0  0
   56.0422   20.1437   43.7579 H   0  0  0  0  0  0  0  0  0  0  0  0
   57.1056   20.1247   45.0515 H   0  0  0  0  0  0  0  0  0  0  0  0
   54.7905   22.0285   44.6154 H   0  0  0  0  0  0  0  0  0  0  0  0
   55.7405   22.1753   45.9843 H   0  0  0  0  0  0  0  0  0  0  0  0
   58.2979   25.9503   46.3643 H   0  0  0  0  0  0  0  0  0  0  0  0
   59.5440   26.2731   45.0979 H   0  0  0  0  0  0  0  0  0  0  0  0
   56.8985   27.7168   45.5697 H   0  0  0  0  0  0  0  0  0  0  0  0
   58.5849   28.3851   45.5730 H   0  0  0  0  0  0  0  0  0  0  0  0
   57.2414   29.6804   45.9605 H   0  0  0  0  0  0  0  0  0  0  0  0
   59.1755   34.6539   48.5722 H   0  0  0  0  0  0  0  0  0  0  0  0
   60.9327   33.7990   50.1208 H   0  0  0  0  0  0  0  0  0  0  0  0
  1  2  1  0
  2  3  2  0
  2  4  2  0
  2  5  1  0
  5  6  2  0
  6  7  1  0
  7  8  2  0
  8  9  1  0
  9 10  1  0
 10 11  2  3
 11 12  1  0
 12 13  2  0
 13 14  1  0
 14 15  1  0
 15 16  2  0
 15 17  1  0
 17 18  1  0
 18 19  1  0
 19 20  1  0
 20 21  1  0
 21 22  2  0
 21 23  1  0
 23 24  1  0
 24 25  1  0
 25 26  1  0
 20 27  1  0
 27 28  1  0
 14 29  2  0
 29 30  1  0
  8 31  1  0
 31 32  2  0
 32  5  1  0
 30 11  1  0
 28 17  1  0
 26 23  1  0
  1 33  1  0
  1 34  1  0
  6 35  1  0
  7 36  1  0
  9 37  1  0
  9 38  1  0
 12 39  1  0
 13 40  1  0
 18 41  1  0
 18 42  1  0
 19 43  1  0
 19 44  1  0
 23 45  1  0
 24 46  1  0
 24 47  1  0
 25 48  1  0
 25 49  1  0
 26 50  1  0
 26 51  1  0
 27 52  1  0
 27 53  1  0
 28 54  1  0
 28 55  1  0
 29 56  1  0
 31 57  1  0
 32 58  1  0
M  CHG  1  30  -1
M  END
>  <UniqueID>  (31) 
29

>  <SMILES>  (31) 
NS(=O)(=O)c1ccc(CN=c2ccc(C(=O)N3CCN(C(=O)C4CCC4)CC3)c[n-]2)cc1

>  <Energy>  (31) 
127.60901494996229

>  <Genealogy>  (31) 
NS(=O)(=O)c1ccc(CN=c2ccc(C(=O)N3CCN(C(=O)C4CCC4)CC3)c[n-]2)cc1 (protonated)
NS(=O)(=O)c1ccc(CN=c2ccc(C(=O)N3CCN(C(=O)C4CCC4)CC3)c[n-]2)cc1 (3D coordinates assigned)
NS(=O)(=O)c1ccc(CN=c2ccc(C(=O)N3CCN(C(=O)C4CCC4)CC3)c[n-]2)cc1 (nonaromatic ring conformer: 127.60901494996229 kcal/mol)

>  <smiles>  (31) 
NS(=O)(=O)c1ccc(CN=c2ccc(C(=O)N3CCN(C(=O)C4CCC4)CC3)c[nH]2)cc1

>  <score_type>  (31) 
oracle

>  <origin>  (31) 
adg

>  <m_score__min__energy>  (31) 
-10.85

>  <m_primary>  (31) 
energy

$$$$
31:0
     RDKit          3D

 74 77  0  0  0  0  0  0  0  0999 V2000
   59.5670   28.9690   50.0780 O   0  0  0  0  0  0  0  0  0  0  0  0
   60.3670   28.0800   49.6850 C   0  0  0  0  0  0  0  0  0  0  0  0
   60.2820   27.5670   48.2720 C   0  0  0  0  0  0  0  0  0  0  0  0
   59.4410   28.4580   47.3950 C   0  0  0  0  0  0  0  0  0  0  0  0
   59.8370   29.7800   47.1420 C   0  0  0  0  0  0  0  0  0  0  0  0
   59.0660   30.5990   46.3130 C   0  0  0  0  0  0  0  0  0  0  0  0
   57.9020   30.1070   45.7080 C   0  0  0  0  0  0  0  0  0  0  0  0
   57.1180   30.9960   44.8990 N   0  0  0  0  0  0  0  0  0  0  0  0
   57.6130   32.0320   44.0420 C   0  0  0  0  0  0  0  0  0  0  0  0
   58.1460   31.7460   42.9350 O   0  0  0  0  0  0  0  0  0  0  0  0
   57.5020   33.4690   44.4800 C   0  0  0  0  0  0  0  0  0  0  0  0
   56.7180   33.6060   45.8100 C   0  0  0  0  0  0  0  0  0  0  0  0
   57.6000   33.4150   47.0560 C   0  0  0  0  0  0  0  0  0  0  0  0
   58.8830   34.1240   46.9430 N   0  0  0  0  0  0  0  0  0  0  0  0
   59.9500   33.8480   47.8770 C   0  0  0  0  0  0  0  0  0  0  0  0
   61.1490   33.8580   47.4830 O   0  0  0  0  0  0  0  0  0  0  0  0
   59.6770   33.6150   49.3410 C   0  0  0  0  0  0  0  0  0  0  0  0
   59.2650   32.1620   49.6080 C   0  0  0  0  0  0  0  0  0  0  0  0
   58.5900   32.0040   50.9480 C   0  0  0  0  0  0  0  0  0  0  0  0
   57.6720   30.9610   51.1610 C   0  0  0  0  0  0  0  0  0  0  0  0
   57.0730   30.7940   52.4130 C   0  0  0  0  0  0  0  0  0  0  0  0
   57.3880   31.6590   53.4630 C   0  0  0  0  0  0  0  0  0  0  0  0
   58.3090   32.6920   53.2630 C   0  0  0  0  0  0  0  0  0  0  0  0
   58.9130   32.8630   52.0120 C   0  0  0  0  0  0  0  0  0  0  0  0
   59.1330   34.9660   45.7680 C   0  0  0  0  0  0  0  0  0  0  0  0
   58.9020   34.1380   44.5040 C   0  0  0  0  0  0  0  0  0  0  0  0
   57.5040   28.7840   45.9650 C   0  0  0  0  0  0  0  0  0  0  0  0
   58.2730   27.9620   46.7950 C   0  0  0  0  0  0  0  0  0  0  0  0
   61.3980   27.6370   50.5800 N   0  0  0  0  0  0  0  0  0  0  0  0
   61.4590   27.9760   51.9960 C   0  0  0  0  0  0  0  0  0  0  0  0
   61.7140   29.4410   52.1480 C   0  0  0  0  0  0  0  0  0  0  0  0
   61.8510   29.9300   53.3010 O   0  0  0  0  0  0  0  0  0  0  0  0
   61.7620   30.2890   50.9910 N   0  0  0  0  0  0  0  0  0  0  0  0
   62.3570   31.6240   51.0280 C   0  0  0  0  0  0  0  0  0  0  0  0
   62.8830   31.9820   49.6670 C   0  0  0  0  0  0  0  0  0  0  0  0
   63.6770   33.1310   49.4970 C   0  0  0  0  0  0  0  0  0  0  0  0
   64.1140   33.5040   48.2230 C   0  0  0  0  0  0  0  0  0  0  0  0
   63.7620   32.7380   47.1080 C   0  0  0  0  0  0  0  0  0  0  0  0
   62.9700   31.5970   47.2670 C   0  0  0  0  0  0  0  0  0  0  0  0
   62.5270   31.2200   48.5410 C   0  0  0  0  0  0  0  0  0  0  0  0
   61.2975   27.5129   47.8526 H   0  0  0  0  0  0  0  0  0  0  0  0
   59.8083   26.5746   48.2999 H   0  0  0  0  0  0  0  0  0  0  0  0
   60.7577   30.1731   47.5979 H   0  0  0  0  0  0  0  0  0  0  0  0
   59.3757   31.6392   46.1338 H   0  0  0  0  0  0  0  0  0  0  0  0
   56.9047   34.0211   43.7394 H   0  0  0  0  0  0  0  0  0  0  0  0
   56.2695   34.6096   45.8497 H   0  0  0  0  0  0  0  0  0  0  0  0
   55.9565   32.8123   45.8238 H   0  0  0  0  0  0  0  0  0  0  0  0
   57.0598   33.7981   47.9343 H   0  0  0  0  0  0  0  0  0  0  0  0
   57.8157   32.3409   47.1553 H   0  0  0  0  0  0  0  0  0  0  0  0
   60.5877   33.8403   49.9154 H   0  0  0  0  0  0  0  0  0  0  0  0
   58.8499   34.2719   49.6482 H   0  0  0  0  0  0  0  0  0  0  0  0
   58.5692   31.8393   48.8194 H   0  0  0  0  0  0  0  0  0  0  0  0
   60.1758   31.5453   49.6111 H   0  0  0  0  0  0  0  0  0  0  0  0
   57.4239   30.2733   50.3391 H   0  0  0  0  0  0  0  0  0  0  0  0
   56.3515   29.9789   52.5715 H   0  0  0  0  0  0  0  0  0  0  0  0
   56.9123   31.5280   54.4461 H   0  0  0  0  0  0  0  0  0  0  0  0
   58.5594   33.3718   54.0908 H   0  0  0  0  0  0  0  0  0  0  0  0
   59.6427   33.6722   51.8614 H   0  0  0  0  0  0  0  0  0  0  0  0
   58.4459   35.8249   45.7769 H   0  0  0  0  0  0  0  0  0  0  0  0
   60.1698   35.3328   45.7876 H   0  0  0  0  0  0  0  0  0  0  0  0
   58.9929   34.7977   43.6285 H   0  0  0  0  0  0  0  0  0  0  0  0
   59.6558   33.3370   44.4865 H   0  0  0  0  0  0  0  0  0  0  0  0
   56.5819   28.3925   45.5105 H   0  0  0  0  0  0  0  0  0  0  0  0
   57.9614   26.9231   46.9783 H   0  0  0  0  0  0  0  0  0  0  0  0
   60.5033   27.7186   52.4760 H   0  0  0  0  0  0  0  0  0  0  0  0
   62.2733   27.4110   52.4731 H   0  0  0  0  0  0  0  0  0  0  0  0
   61.5460   29.8830   50.0560 H   0  0  0  0  0  0  0  0  0  0  0  0
   61.5935   32.3564   51.3292 H   0  0  0  0  0  0  0  0  0  0  0  0
   63.1846   31.6339   51.7525 H   0  0  0  0  0  0  0  0  0  0  0  0
   63.9551   33.7385   50.3708 H   0  0  0  0  0  0  0  0  0  0  0  0
   64.7363   34.4023   48.0974 H   0  0  0  0  0  0  0  0  0  0  0  0
   64.1079   33.0327   46.1063 H   0  0  0  0  0  0  0  0  0  0  0  0
   62.6941   30.9939   46.3894 H   0  0  0  0  0  0  0  0  0  0  0  0
   61.8987   30.3251   48.6607 H   0  0  0  0  0  0  0  0  0  0  0  0
  1  2  2  0
  2  3  1  0
  3  4  1  0
  4  5  2  0
  5  6  1  0
  6  7  2  0
  7  8  1  0
  8  9  1  0
  9 10  2  0
  9 11  1  0
 11 12  1  0
 12 13  1  0
 13 14  1  0
 14 15  1  0
 15 16  2  0
 15 17  1  0
 17 18  1  0
 18 19  1  0
 19 20  2  0
 20 21  1  0
 21 22  2  0
 22 23  1  0
 23 24  2  0
 14 25  1  0
 25 26  1  0
  7 27  1  0
 27 28  2  0
  2 29  1  0
 29 30  1  0
 30 31  1  0
 31 32  2  0
 31 33  1  0
 33 34  1  0
 34 35  1  0
 35 36  2  0
 36 37  1  0
 37 38  2  0
 38 39  1  0
 39 40  2  0
 28  4  1  0
 40 35  1  0
 26 11  1  0
 24 19  1  0
  3 41  1  0
  3 42  1  0
  5 43  1  0
  6 44  1  0
 11 45  1  0
 12 46  1  0
 12 47  1  0
 13 48  1  0
 13 49  1  0
 17 50  1  0
 17 51  1  0
 18 52  1  0
 18 53  1  0
 20 54  1  0
 21 55  1  0
 22 56  1  0
 23 57  1  0
 24 58  1  0
 25 59  1  0
 25 60  1  0
 26 61  1  0
 26 62  1  0
 27 63  1  0
 28 64  1  0
 30 65  1  0
 30 66  1  0
 33 67  1  0
 34 68  1  0
 34 69  1  0
 36 70  1  0
 37 71  1  0
 38 72  1  0
 39 73  1  0
 40 74  1  0
M  CHG  2   8  -1  29  -1
M  END
>  <UniqueID>  (32) 
30

>  <SMILES>  (32) 
O=C(Cc1ccc([N-]C(=O)C2CCN(C(=O)CCc3ccccc3)CC2)cc1)[N-]CC(=O)NCc1ccccc1

>  <Energy>  (32) 
76.29746008025691

>  <Genealogy>  (32) 
O=C(Cc1ccc([N-]C(=O)C2CCN(C(=O)CCc3ccccc3)CC2)cc1)[N-]CC(=O)NCc1ccccc1 (protonated)
O=C(Cc1ccc([N-]C(=O)C2CCN(C(=O)CCc3ccccc3)CC2)cc1)[N-]CC(=O)NCc1ccccc1 (3D coordinates assigned)
O=C(Cc1ccc([N-]C(=O)C2CCN(C(=O)CCc3ccccc3)CC2)cc1)[N-]CC(=O)NCc1ccccc1 (nonaromatic ring conformer: 76.29746008025691 kcal/mol)

>  <smiles>  (32) 
O=C(CNC(=O)Cc1ccc(NC(=O)C2CCN(C(=O)CCc3ccccc3)CC2)cc1)NCc1ccccc1

>  <score_type>  (32) 
oracle

>  <origin>  (32) 
adg

>  <m_score__min__energy>  (32) 
-14.17

>  <m_primary>  (32) 
energy

$$$$
32:0
     RDKit          3D

 63 66  0  0  0  0  0  0  0  0999 V2000
   55.7090   29.4960   45.0750 O   0  0  0  0  0  0  0  0  0  0  0  0
   56.8150   29.1020   44.6100 C   0  0  0  0  0  0  0  0  0  0  0  0
   57.3110   29.6590   43.3810 N   0  0  0  0  0  0  0  0  0  0  0  0
   56.7220   30.8520   42.7700 C   0  0  0  0  0  0  0  0  0  0  0  0
   57.7410   31.9970   42.7070 C   0  0  0  0  0  0  0  0  0  0  0  0
   58.0900   32.5000   44.0880 C   0  0  0  0  0  0  0  0  0  0  0  0
   57.7400   33.7410   44.4780 C   0  0  0  0  0  0  0  0  0  0  0  0
   58.0760   34.1980   45.8710 C   0  0  0  0  0  0  0  0  0  0  0  0
   57.7160   33.1010   46.8880 C   0  0  0  0  0  0  0  0  0  0  0  0
   58.1850   31.6800   46.4670 C   0  0  0  0  0  0  0  0  0  0  0  0
   58.8350   31.6220   45.0700 C   0  0  0  0  0  0  0  0  0  0  0  0
   57.6020   28.1020   45.3660 C   0  0  0  0  0  0  0  0  0  0  0  0
   57.5770   26.7540   44.9720 C   0  0  0  0  0  0  0  0  0  0  0  0
   58.2900   25.7940   45.6930 C   0  0  0  0  0  0  0  0  0  0  0  0
   59.0450   26.1670   46.8060 C   0  0  0  0  0  0  0  0  0  0  0  0
   59.1030   27.5140   47.2050 C   0  0  0  0  0  0  0  0  0  0  0  0
   59.9270   27.9170   48.3720 C   0  0  0  0  0  0  0  0  0  0  0  0
   60.3770   26.9550   49.2930 C   0  0  0  0  0  0  0  0  0  0  0  0
   61.1550   27.3360   50.3860 C   0  0  0  0  0  0  0  0  0  0  0  0
   61.4950   28.6770   50.5740 C   0  0  0  0  0  0  0  0  0  0  0  0
   61.0460   29.6570   49.6740 C   0  0  0  0  0  0  0  0  0  0  0  0
   61.4330   31.0780   49.8440 C   0  0  0  0  0  0  0  0  0  0  0  0
   61.5350   31.5500   51.0110 O   0  0  0  0  0  0  0  0  0  0  0  0
   61.6820   31.9360   48.7120 N   0  0  0  0  0  0  0  0  0  0  0  0
   62.4130   31.4440   47.5350 C   0  0  0  0  0  0  0  0  0  0  0  0
   63.5050   32.4450   47.1380 C   0  0  0  0  0  0  0  0  0  0  0  0
   62.9890   33.8990   47.0210 C   0  0  0  0  0  0  0  0  0  0  0  0
   61.5290   34.0780   47.4650 C   0  0  0  0  0  0  0  0  0  0  0  0
   61.2550   33.3420   48.7810 C   0  0  0  0  0  0  0  0  0  0  0  0
   60.2700   29.2660   48.5690 C   0  0  0  0  0  0  0  0  0  0  0  0
   58.3790   28.4760   46.4770 C   0  0  0  0  0  0  0  0  0  0  0  0
   58.1990   29.2990   42.9660 H   0  0  0  0  0  0  0  0  0  0  0  0
   56.3916   30.6078   41.7496 H   0  0  0  0  0  0  0  0  0  0  0  0
   55.8686   31.1755   43.3841 H   0  0  0  0  0  0  0  0  0  0  0  0
   58.6563   31.6350   42.2159 H   0  0  0  0  0  0  0  0  0  0  0  0
   57.2953   32.8266   42.1385 H   0  0  0  0  0  0  0  0  0  0  0  0
   57.2137   34.4134   43.7846 H   0  0  0  0  0  0  0  0  0  0  0  0
   59.1530   34.4131   45.9336 H   0  0  0  0  0  0  0  0  0  0  0  0
   57.4993   35.1060   46.1012 H   0  0  0  0  0  0  0  0  0  0  0  0
   58.1870   33.3513   47.8500 H   0  0  0  0  0  0  0  0  0  0  0  0
   56.6183   33.0709   46.9532 H   0  0  0  0  0  0  0  0  0  0  0  0
   58.9194   31.3254   47.2051 H   0  0  0  0  0  0  0  0  0  0  0  0
   57.2860   31.0474   46.4261 H   0  0  0  0  0  0  0  0  0  0  0  0
   59.8766   31.9679   45.1433 H   0  0  0  0  0  0  0  0  0  0  0  0
   58.7981   30.5835   44.7093 H   0  0  0  0  0  0  0  0  0  0  0  0
   56.9923   26.4528   44.0903 H   0  0  0  0  0  0  0  0  0  0  0  0
   58.2565   24.7393   45.3825 H   0  0  0  0  0  0  0  0  0  0  0  0
   59.5972   25.4036   47.3737 H   0  0  0  0  0  0  0  0  0  0  0  0
   60.1142   25.8964   49.1509 H   0  0  0  0  0  0  0  0  0  0  0  0
   61.5021   26.5771   51.1027 H   0  0  0  0  0  0  0  0  0  0  0  0
   62.1184   28.9677   51.4324 H   0  0  0  0  0  0  0  0  0  0  0  0
   62.8763   30.4752   47.7730 H   0  0  0  0  0  0  0  0  0  0  0  0
   61.7100   31.3262   46.6972 H   0  0  0  0  0  0  0  0  0  0  0  0
   64.2985   32.4163   47.8993 H   0  0  0  0  0  0  0  0  0  0  0  0
   63.8729   32.1489   46.1446 H   0  0  0  0  0  0  0  0  0  0  0  0
   63.6232   34.5433   47.6476 H   0  0  0  0  0  0  0  0  0  0  0  0
   63.0348   34.1698   45.9558 H   0  0  0  0  0  0  0  0  0  0  0  0
   61.3254   35.1500   47.6044 H   0  0  0  0  0  0  0  0  0  0  0  0
   60.8747   33.6564   46.6877 H   0  0  0  0  0  0  0  0  0  0  0  0
   61.8044   33.8429   49.5917 H   0  0  0  0  0  0  0  0  0  0  0  0
   60.1715   33.3645   48.9696 H   0  0  0  0  0  0  0  0  0  0  0  0
   59.9271   30.0246   47.8500 H   0  0  0  0  0  0  0  0  0  0  0  0
   58.4212   29.5325   46.7802 H   0  0  0  0  0  0  0  0  0  0  0  0
  1  2  2  0
  2  3  1  0
  3  4  1  0
  4  5  1  0
  5  6  1  0
  6  7  2  0
  7  8  1  0
  8  9  1  0
  9 10  1  0
 10 11  1  0
  2 12  1  0
 12 13  2  0
 13 14  1  0
 14 15  2  0
 15 16  1  0
 16 17  1  0
 17 18  2  0
 18 19  1  0
 19 20  2  0
 20 21  1  0
 21 22  1  0
 22 23  2  0
 22 24  1  0
 24 25  1  0
 25 26  1  0
 26 27  1  0
 27 28  1  0
 28 29  1  0
 21 30  2  0
 16 31  2  0
 11  6  1  0
 31 12  1  0
 30 17  1  0
 29 24  1  0
  3 32  1  0
  4 33  1  0
  4 34  1  0
  5 35  1  0
  5 36  1  0
  7 37  1  0
  8 38  1  0
  8 39  1  0
  9 40  1  0
  9 41  1  0
 10 42  1  0
 10 43  1  0
 11 44  1  0
 11 45  1  0
 13 46  1  0
 14 47  1  0
 15 48  1  0
 18 49  1  0
 19 50  1  0
 20 51  1  0
 25 52  1  0
 25 53  1  0
 26 54  1  0
 26 55  1  0
 27 56  1  0
 27 57  1  0
 28 58  1  0
 28 59  1  0
 29 60  1  0
 29 61  1  0
 30 62  1  0
 31 63  1  0
M  END
>  <UniqueID>  (33) 
31

>  <SMILES>  (33) 
O=C(NCCC1=CCCCC1)c1cccc(-c2cccc(C(=O)N3CCCCC3)c2)c1

>  <Energy>  (33) 
73.60574171368403

>  <Genealogy>  (33) 
O=C(NCCC1=CCCCC1)c1cccc(-c2cccc(C(=O)N3CCCCC3)c2)c1 (3D coordinates assigned)
O=C(NCCC1=CCCCC1)c1cccc(-c2cccc(C(=O)N3CCCCC3)c2)c1 (nonaromatic ring conformer: 73.60574171368403 kcal/mol)

>  <smiles>  (33) 
O=C(NCCC1=CCCCC1)c1cccc(-c2cccc(C(=O)N3CCCCC3)c2)c1

>  <score_type>  (33) 
oracle

>  <origin>  (33) 
adg

>  <m_score__min__energy>  (33) 
-10.619999999999999

>  <m_primary>  (33) 
energy

$$$$
33:0
     RDKit          3D

 49 51  0  0  0  0  0  0  0  0999 V2000
   56.1470   22.2450   41.5140 H   0  0  0  0  0  0  0  0  0  0  0  0
   56.0090   21.7140   42.4010 N   0  0  0  0  0  0  0  0  0  0  0  0
   56.2130   22.3370   43.6680 C   0  0  0  0  0  0  0  0  0  0  0  0
   57.1620   21.9550   44.4020 O   0  0  0  0  0  0  0  0  0  0  0  0
   55.3290   23.4170   44.1370 C   0  0  0  0  0  0  0  0  0  0  0  0
   54.5667   23.8137   43.4503 H   0  0  0  0  0  0  0  0  0  0  0  0
   55.4190   23.9340   45.3690 C   0  0  0  0  0  0  0  0  0  0  0  0
   54.7073   23.5927   46.1352 H   0  0  0  0  0  0  0  0  0  0  0  0
   56.4330   24.9440   45.7460 C   0  0  0  0  0  0  0  0  0  0  0  0
   57.7850   24.5710   45.7230 C   0  0  0  0  0  0  0  0  0  0  0  0
   58.0606   23.5400   45.4565 H   0  0  0  0  0  0  0  0  0  0  0  0
   58.7850   25.4950   46.0350 C   0  0  0  0  0  0  0  0  0  0  0  0
   59.8394   25.1818   46.0259 H   0  0  0  0  0  0  0  0  0  0  0  0
   58.4550   26.8200   46.3600 C   0  0  0  0  0  0  0  0  0  0  0  0
   59.5220   27.7910   46.7080 C   0  0  0  0  0  0  0  0  0  0  0  0
   60.0320   27.7650   47.8600 O   0  0  0  0  0  0  0  0  0  0  0  0
   59.9450   28.8140   45.7940 N   0  0  0  0  0  0  0  0  0  0  0  0
   59.4160   29.9970   45.6880 C   0  0  0  0  0  0  0  0  0  0  0  0
   59.9440   31.0680   46.3460 N   0  0  0  0  0  0  0  0  0  0  0  0
   59.3840   32.3050   46.2450 C   0  0  0  0  0  0  0  0  0  0  0  0
   59.9250   33.3980   46.9320 O   0  0  0  0  0  0  0  0  0  0  0  0
   59.9670   33.5060   48.3560 C   0  0  0  0  0  0  0  0  0  0  0  0
   59.0121   33.9103   48.7229 H   0  0  0  0  0  0  0  0  0  0  0  0
   61.1000   34.4590   48.7460 C   0  0  0  0  0  0  0  0  0  0  0  0
   61.0611   34.6378   49.8307 H   0  0  0  0  0  0  0  0  0  0  0  0
   60.9690   35.4007   48.1928 H   0  0  0  0  0  0  0  0  0  0  0  0
   62.4760   33.8670   48.3830 C   0  0  0  0  0  0  0  0  0  0  0  0
   63.2480   34.4250   48.9332 H   0  0  0  0  0  0  0  0  0  0  0  0
   62.5821   33.9577   47.2919 H   0  0  0  0  0  0  0  0  0  0  0  0
   62.6220   32.4230   48.7090 N   0  0  0  0  0  0  0  0  0  0  0  0
   62.7980   31.5950   47.5020 C   0  0  0  0  0  0  0  0  0  0  0  0
   63.0183   30.5585   47.7973 H   0  0  0  0  0  0  0  0  0  0  0  0
   61.8750   31.6176   46.9041 H   0  0  0  0  0  0  0  0  0  0  0  0
   63.6320   31.9911   46.9041 H   0  0  0  0  0  0  0  0  0  0  0  0
   61.5600   31.8940   49.5890 C   0  0  0  0  0  0  0  0  0  0  0  0
   61.6254   32.3988   50.5641 H   0  0  0  0  0  0  0  0  0  0  0  0
   61.7141   30.8091   49.6851 H   0  0  0  0  0  0  0  0  0  0  0  0
   60.1510   32.1180   49.0100 C   0  0  0  0  0  0  0  0  0  0  0  0
   59.4195   32.0175   49.8253 H   0  0  0  0  0  0  0  0  0  0  0  0
   60.0021   31.3662   48.2210 H   0  0  0  0  0  0  0  0  0  0  0  0
   58.2470   32.4840   45.4530 C   0  0  0  0  0  0  0  0  0  0  0  0
   57.4280   34.2020   45.2660 Br  0  0  0  0  0  0  0  0  0  0  0  0
   57.7100   31.3750   44.7990 C   0  0  0  0  0  0  0  0  0  0  0  0
   56.8105   31.4862   44.1757 H   0  0  0  0  0  0  0  0  0  0  0  0
   58.2980   30.1580   44.9320 N   0  0  0  0  0  0  0  0  0  0  0  0
   57.1020   27.1970   46.3840 C   0  0  0  0  0  0  0  0  0  0  0  0
   56.8296   28.2270   46.6576 H   0  0  0  0  0  0  0  0  0  0  0  0
   56.0970   26.2780   46.0640 C   0  0  0  0  0  0  0  0  0  0  0  0
   54.7780   26.7160   46.0280 O   0  0  0  0  0  0  0  0  0  0  0  0
  1  2  1  0
  2  3  1  0
  3  4  2  0
  3  5  1  0
  5  6  1  0
  5  7  2  0
  7  8  1  0
  7  9  1  0
  9 10  2  0
 10 11  1  0
 10 12  1  0
 12 13  1  0
 12 14  2  0
 14 15  1  0
 15 16  2  0
 15 17  1  0
 17 18  2  3
 18 19  1  0
 19 20  2  0
 20 21  1  0
 21 22  1  0
 22 23  1  0
 22 24  1  0
 24 25  1  0
 24 26  1  0
 24 27  1  0
 27 28  1  0
 27 29  1  0
 27 30  1  0
 30 31  1  0
 31 32  1  0
 31 33  1  0
 31 34  1  0
 30 35  1  0
 35 36  1  0
 35 37  1  0
 35 38  1  0
 38 39  1  0
 38 40  1  0
 20 41  1  0
 41 42  1  0
 41 43  2  0
 43 44  1  0
 43 45  1  0
 14 46  1  0
 46 47  1  0
 46 48  2  0
 48 49  1  0
 48  9  1  0
 45 18  1  0
 38 22  1  0
M  CHG  3   2  -1  45  -1  49  -1
M  END
>  <UniqueID>  (34) 
32

>  <SMILES>  (34) 
CN1CCC(Oc2nc(=NC(=O)c3ccc(/C=C/C([NH-])=O)c([O-])c3)[n-]cc2Br)CC1

>  <Energy>  (34) 
65.1608609020138

>  <Genealogy>  (34) 
CN1CCC(Oc2nc(=NC(=O)c3ccc(C=CC([NH-])=O)c([O-])c3)[n-]cc2Br)CC1 (protonated)
CN1CCC(Oc2nc(=NC(=O)c3ccc(/C=C/C([NH-])=O)c([O-])c3)[n-]cc2Br)CC1 (cis-trans isomerization)
CN1CCC(Oc2nc(=NC(=O)c3ccc(/C=C/C([NH-])=O)c([O-])c3)[n-]cc2Br)CC1 (3D coordinates assigned)
CN1CCC(Oc2nc(=NC(=O)c3ccc(/C=C/C([NH-])=O)c([O-])c3)[n-]cc2Br)CC1 (nonaromatic ring conformer: 65.1608609020138 kcal/mol)

>  <smiles>  (34) 
CN1CCC(Oc2nc(=NC(=O)c3ccc(C=CC(N)=O)c(O)c3)[nH]cc2Br)CC1

>  <score_type>  (34) 
oracle

>  <origin>  (34) 
adg

>  <m_score__min__energy>  (34) 
-16.140000000000001

>  <m_primary>  (34) 
energy

$$$$
34:0
     RDKit          3D

 50 53  0  0  0  0  0  0  0  0999 V2000
   57.8100   28.2190   43.7360 C   0  0  0  0  0  0  0  0  0  0  0  0
   56.7070   28.8270   44.3980 O   0  0  0  0  0  0  0  0  0  0  0  0
   56.6270   30.2050   44.6260 C   0  0  0  0  0  0  0  0  0  0  0  0
   55.6270   30.8570   44.2160 O   0  0  0  0  0  0  0  0  0  0  0  0
   57.7310   30.8990   45.3240 C   0  0  0  0  0  0  0  0  0  0  0  0
   58.0760   32.2190   44.9920 C   0  0  0  0  0  0  0  0  0  0  0  0
   59.1550   32.8470   45.6190 C   0  0  0  0  0  0  0  0  0  0  0  0
   59.9200   32.1600   46.5740 C   0  0  0  0  0  0  0  0  0  0  0  0
   61.0570   32.7970   47.1800 N   0  0  0  0  0  0  0  0  0  0  0  0
   61.1280   32.9320   48.6350 C   0  0  0  0  0  0  0  0  0  0  0  0
   62.5960   32.9310   49.0740 C   0  0  0  0  0  0  0  0  0  0  0  0
   63.3350   33.9040   48.3550 O   0  0  0  0  0  0  0  0  0  0  0  0
   63.3680   33.5630   46.9800 C   0  0  0  0  0  0  0  0  0  0  0  0
   61.9630   33.6120   46.3700 C   0  0  0  0  0  0  0  0  0  0  0  0
   59.5980   30.8300   46.8940 C   0  0  0  0  0  0  0  0  0  0  0  0
   60.4270   30.1010   47.8070 N   0  0  0  0  0  0  0  0  0  0  0  0
   59.9290   28.6430   48.6120 S   0  0  0  0  0  0  0  0  0  0  0  0
   61.1220   28.0170   49.2820 O   0  0  0  0  0  0  0  0  0  0  0  0
   58.9120   28.9900   49.6640 O   0  0  0  0  0  0  0  0  0  0  0  0
   59.2300   27.4810   47.4830 C   0  0  0  0  0  0  0  0  0  0  0  0
   60.0500   26.5650   46.8050 C   0  0  0  0  0  0  0  0  0  0  0  0
   59.4840   25.5660   46.0070 C   0  0  0  0  0  0  0  0  0  0  0  0
   58.0910   25.4710   45.8840 C   0  0  0  0  0  0  0  0  0  0  0  0
   57.5150   24.4830   45.1400 N   0  0  0  0  0  0  0  0  0  0  0  0
   56.1600   24.3810   45.0400 C   0  0  0  0  0  0  0  0  0  0  0  0
   55.6480   23.4580   44.3490 O   0  0  0  0  0  0  0  0  0  0  0  0
   55.3440   25.3060   45.7090 C   0  0  0  0  0  0  0  0  0  0  0  0
   54.0890   25.2300   45.6330 O   0  0  0  0  0  0  0  0  0  0  0  0
   55.9160   26.2910   46.4480 N   0  0  0  0  0  0  0  0  0  0  0  0
   57.2660   26.4000   46.5540 C   0  0  0  0  0  0  0  0  0  0  0  0
   57.8370   27.4050   47.3410 C   0  0  0  0  0  0  0  0  0  0  0  0
   58.4770   30.2260   46.3050 C   0  0  0  0  0  0  0  0  0  0  0  0
   58.5168   27.8294   44.4834 H   0  0  0  0  0  0  0  0  0  0  0  0
   57.4494   27.3922   43.1064 H   0  0  0  0  0  0  0  0  0  0  0  0
   58.3165   28.9653   43.1064 H   0  0  0  0  0  0  0  0  0  0  0  0
   57.4931   32.7620   44.2335 H   0  0  0  0  0  0  0  0  0  0  0  0
   59.4065   33.8867   45.3624 H   0  0  0  0  0  0  0  0  0  0  0  0
   60.6543   33.8769   48.9397 H   0  0  0  0  0  0  0  0  0  0  0  0
   60.6017   32.0902   49.1087 H   0  0  0  0  0  0  0  0  0  0  0  0
   62.6515   33.1572   50.1491 H   0  0  0  0  0  0  0  0  0  0  0  0
   63.0253   31.9390   48.8699 H   0  0  0  0  0  0  0  0  0  0  0  0
   64.0165   34.2746   46.4480 H   0  0  0  0  0  0  0  0  0  0  0  0
   63.7582   32.5393   46.8813 H   0  0  0  0  0  0  0  0  0  0  0  0
   61.6057   34.6522   46.3527 H   0  0  0  0  0  0  0  0  0  0  0  0
   61.9928   33.2204   45.3425 H   0  0  0  0  0  0  0  0  0  0  0  0
   61.1436   26.6336   46.9021 H   0  0  0  0  0  0  0  0  0  0  0  0
   60.1325   24.8541   45.4753 H   0  0  0  0  0  0  0  0  0  0  0  0
   58.1160   23.7870   44.6410 H   0  0  0  0  0  0  0  0  0  0  0  0
   57.1924   28.1371   47.8495 H   0  0  0  0  0  0  0  0  0  0  0  0
   58.1791   29.2136   46.6152 H   0  0  0  0  0  0  0  0  0  0  0  0
  1  2  1  0
  2  3  1  0
  3  4  2  0
  3  5  1  0
  5  6  2  0
  6  7  1  0
  7  8  2  0
  8  9  1  0
  9 10  1  0
 10 11  1  0
 11 12  1  0
 12 13  1  0
 13 14  1  0
  8 15  1  0
 15 16  1  0
 16 17  1  0
 17 18  2  0
 17 19  2  0
 17 20  1  0
 20 21  2  0
 21 22  1  0
 22 23  2  0
 23 24  1  0
 24 25  1  0
 25 26  2  0
 25 27  1  0
 27 28  2  0
 27 29  1  0
 29 30  1  0
 30 31  2  0
 15 32  2  0
 32  5  1  0
 14  9  1  0
 31 20  1  0
 30 23  1  0
  1 33  1  0
  1 34  1  0
  1 35  1  0
  6 36  1  0
  7 37  1  0
 10 38  1  0
 10 39  1  0
 11 40  1  0
 11 41  1  0
 13 42  1  0
 13 43  1  0
 14 44  1  0
 14 45  1  0
 21 46  1  0
 22 47  1  0
 24 48  1  0
 31 49  1  0
 32 50  1  0
M  CHG  2  16  -1  29  -1
M  END
>  <UniqueID>  (35) 
33

>  <SMILES>  (35) 
COC(=O)c1ccc(N2CCOCC2)c([N-]S(=O)(=O)c2ccc3[nH]c(=O)c(=O)[n-]c3c2)c1

>  <Energy>  (35) 
67.88037479671065

>  <Genealogy>  (35) 
COC(=O)c1ccc(N2CCOCC2)c([N-]S(=O)(=O)c2ccc3[nH]c(=O)c(=O)[n-]c3c2)c1 (protonated)
COC(=O)c1ccc(N2CCOCC2)c([N-]S(=O)(=O)c2ccc3[nH]c(=O)c(=O)[n-]c3c2)c1 (3D coordinates assigned)
COC(=O)c1ccc(N2CCOCC2)c([N-]S(=O)(=O)c2ccc3[nH]c(=O)c(=O)[n-]c3c2)c1 (nonaromatic ring conformer: 67.88037479671065 kcal/mol)

>  <smiles>  (35) 
COC(=O)c1ccc(N2CCOCC2)c(NS(=O)(=O)c2ccc3[nH]c(=O)c(=O)[nH]c3c2)c1

>  <score_type>  (35) 
oracle

>  <origin>  (35) 
adg

>  <m_score__min__energy>  (35) 
-11.720000000000001

>  <m_primary>  (35) 
energy

$$$$
35:0
     RDKit          3D

 65 70  0  0  0  0  0  0  0  0999 V2000
   54.2800   26.7040   46.7500 H   0  0  0  0  0  0  0  0  0  0  0  0
   54.6810   26.3040   45.9110 O   0  0  0  0  0  0  0  0  0  0  0  0
   54.3740   25.0010   45.5290 C   0  0  0  0  0  0  0  0  0  0  0  0
   53.2020   24.4000   45.7920 N   0  0  0  0  0  0  0  0  0  0  0  0
   53.3860   23.1610   45.2860 C   0  0  0  0  0  0  0  0  0  0  0  0
   52.5010   22.2690   45.3400 O   0  0  0  0  0  0  0  0  0  0  0  0
   54.5980   22.9510   44.7280 N   0  0  0  0  0  0  0  0  0  0  0  0
   55.2120   24.1390   44.8600 C   0  0  0  0  0  0  0  0  0  0  0  0
   56.6200   24.3700   44.5080 C   0  0  0  0  0  0  0  0  0  0  0  0
   57.0937   23.6428   43.8322 H   0  0  0  0  0  0  0  0  0  0  0  0
   57.3820   25.3940   44.9400 C   0  0  0  0  0  0  0  0  0  0  0  0
   57.9080   26.3470   44.0820 C   0  0  0  0  0  0  0  0  0  0  0  0
   57.7376   26.4176   42.9976 H   0  0  0  0  0  0  0  0  0  0  0  0
   58.6860   27.1900   44.8480 C   0  0  0  0  0  0  0  0  0  0  0  0
   59.4720   28.3480   44.3130 C   0  0  0  0  0  0  0  0  0  0  0  0
   59.8723   28.9378   45.1508 H   0  0  0  0  0  0  0  0  0  0  0  0
   60.3035   27.9738   43.6977 H   0  0  0  0  0  0  0  0  0  0  0  0
   58.8172   28.9826   43.6977 H   0  0  0  0  0  0  0  0  0  0  0  0
   58.6480   26.8170   46.1450 N   0  0  0  0  0  0  0  0  0  0  0  0
   59.3050   27.5020   47.2260 C   0  0  0  0  0  0  0  0  0  0  0  0
   60.1110   26.7950   48.1190 C   0  0  0  0  0  0  0  0  0  0  0  0
   60.2297   25.7075   48.0035 H   0  0  0  0  0  0  0  0  0  0  0  0
   60.7680   27.4570   49.1580 C   0  0  0  0  0  0  0  0  0  0  0  0
   61.3920   26.8806   49.8569 H   0  0  0  0  0  0  0  0  0  0  0  0
   60.6450   28.8590   49.3280 C   0  0  0  0  0  0  0  0  0  0  0  0
   61.3370   29.5580   50.4130 N   0  0  0  0  0  0  0  0  0  0  0  0
   61.2340   31.0400   50.4800 C   0  0  0  0  0  0  0  0  0  0  0  0
   61.6932   31.4546   49.5705 H   0  0  0  0  0  0  0  0  0  0  0  0
   60.1619   31.2677   50.5737 H   0  0  0  0  0  0  0  0  0  0  0  0
   61.9130   31.6860   51.6900 C   0  0  0  0  0  0  0  0  0  0  0  0
   62.1937   32.7205   51.4428 H   0  0  0  0  0  0  0  0  0  0  0  0
   61.2169   31.6859   52.5417 H   0  0  0  0  0  0  0  0  0  0  0  0
   63.1080   30.9310   52.0430 N   0  0  0  0  0  0  0  0  0  0  0  0
   64.4240   31.3280   51.6050 C   0  0  0  0  0  0  0  0  0  0  0  0
   65.2750   30.4470   51.3040 O   0  0  0  0  0  0  0  0  0  0  0  0
   64.7910   32.7810   51.4650 C   0  0  0  0  0  0  0  0  0  0  0  0
   64.7365   33.2629   52.4523 H   0  0  0  0  0  0  0  0  0  0  0  0
   65.8117   32.8482   51.0603 H   0  0  0  0  0  0  0  0  0  0  0  0
   63.8800   33.4630   50.5490 N   0  0  0  0  0  0  0  0  0  0  0  0
   63.2180   34.5810   50.8310 N   0  0  0  0  0  0  0  0  0  0  0  0
   62.4350   34.9430   49.8150 N   0  0  0  0  0  0  0  0  0  0  0  0
   62.6150   34.0060   48.8650 C   0  0  0  0  0  0  0  0  0  0  0  0
   62.0220   33.9080   47.6110 C   0  0  0  0  0  0  0  0  0  0  0  0
   61.3025   34.6615   47.2580 H   0  0  0  0  0  0  0  0  0  0  0  0
   62.3800   32.8040   46.8100 C   0  0  0  0  0  0  0  0  0  0  0  0
   61.9367   32.6889   45.8099 H   0  0  0  0  0  0  0  0  0  0  0  0
   63.3060   31.8420   47.2830 C   0  0  0  0  0  0  0  0  0  0  0  0
   63.5753   30.9847   46.6486 H   0  0  0  0  0  0  0  0  0  0  0  0
   63.8840   31.9760   48.5600 C   0  0  0  0  0  0  0  0  0  0  0  0
   64.6021   31.2367   48.9443 H   0  0  0  0  0  0  0  0  0  0  0  0
   63.5080   33.0850   49.3170 C   0  0  0  0  0  0  0  0  0  0  0  0
   62.8380   29.5660   52.4630 C   0  0  0  0  0  0  0  0  0  0  0  0
   63.7759   29.0899   52.7850 H   0  0  0  0  0  0  0  0  0  0  0  0
   62.1236   29.5760   53.2994 H   0  0  0  0  0  0  0  0  0  0  0  0
   62.2420   28.7780   51.2960 C   0  0  0  0  0  0  0  0  0  0  0  0
   63.0713   28.3952   50.6830 H   0  0  0  0  0  0  0  0  0  0  0  0
   61.6276   27.9822   51.7424 H   0  0  0  0  0  0  0  0  0  0  0  0
   59.8170   29.5540   48.4120 C   0  0  0  0  0  0  0  0  0  0  0  0
   59.6870   30.6410   48.5189 H   0  0  0  0  0  0  0  0  0  0  0  0
   59.1630   28.8840   47.3760 C   0  0  0  0  0  0  0  0  0  0  0  0
   58.5319   29.4479   46.6733 H   0  0  0  0  0  0  0  0  0  0  0  0
   57.8300   25.7350   46.2280 C   0  0  0  0  0  0  0  0  0  0  0  0
   57.4630   25.1760   47.3920 C   0  0  0  0  0  0  0  0  0  0  0  0
   57.8930   25.5401   48.3367 H   0  0  0  0  0  0  0  0  0  0  0  0
   56.7322   24.3539   47.4011 H   0  0  0  0  0  0  0  0  0  0  0  0
  1  2  1  0
  2  3  1  0
  3  4  1  0
  4  5  1  0
  5  6  2  0
  5  7  1  0
  7  8  1  0
  8  9  1  0
  9 10  1  0
  9 11  2  0
 11 12  1  0
 12 13  1  0
 12 14  2  0
 14 15  1  0
 15 16  1  0
 15 17  1  0
 15 18  1  0
 14 19  1  0
 19 20  1  0
 20 21  2  0
 21 22  1  0
 21 23  1  0
 23 24  1  0
 23 25  2  0
 25 26  1  0
 26 27  1  0
 27 28  1  0
 27 29  1  0
 27 30  1  0
 30 31  1  0
 30 32  1  0
 30 33  1  0
 33 34  1  0
 34 35  2  0
 34 36  1  0
 36 37  1  0
 36 38  1  0
 36 39  1  0
 39 40  1  0
 40 41  2  0
 41 42  1  0
 42 43  2  0
 43 44  1  0
 43 45  1  0
 45 46  1  0
 45 47  2  0
 47 48  1  0
 47 49  1  0
 49 50  1  0
 49 51  2  0
 33 52  1  0
 52 53  1  0
 52 54  1  0
 52 55  1  0
 55 56  1  0
 55 57  1  0
 25 58  1  0
 58 59  1  0
 58 60  2  0
 60 61  1  0
 19 62  1  0
 62 63  2  0
 63 64  1  0
 63 65  1  0
  8  3  2  0
 62 11  1  0
 60 20  1  0
 55 26  1  0
 51 39  1  0
 51 42  1  0
M  CHG  2   4  -1   7  -1
M  END
>  <UniqueID>  (36) 
34

>  <SMILES>  (36) 
C=c1/c(=C\c2[n-]c(=O)[n-]c2O)cc(C)n1-c1ccc(N2CCN(C(=O)Cn3nnc4ccccc43)CC2)cc1

>  <Energy>  (36) 
201.67261427216712

>  <Genealogy>  (36) 
C=c1c(=Cc2[n-]c(=O)[n-]c2O)cc(C)n1-c1ccc(N2CCN(C(=O)Cn3nnc4ccccc43)CC2)cc1 (protonated)
C=c1/c(=C\c2[n-]c(=O)[n-]c2O)cc(C)n1-c1ccc(N2CCN(C(=O)Cn3nnc4ccccc43)CC2)cc1 (cis-trans isomerization)
C=c1/c(=C\c2[n-]c(=O)[n-]c2O)cc(C)n1-c1ccc(N2CCN(C(=O)Cn3nnc4ccccc43)CC2)cc1 (3D coordinates assigned)
C=c1/c(=C\c2[n-]c(=O)[n-]c2O)cc(C)n1-c1ccc(N2CCN(C(=O)Cn3nnc4ccccc43)CC2)cc1 (nonaromatic ring conformer: 201.67261427216712 kcal/mol)

>  <smiles>  (36) 
C=c1c(=Cc2[nH]c(=O)[nH]c2O)cc(C)n1-c1ccc(N2CCN(C(=O)Cn3nnc4ccccc43)CC2)cc1

>  <score_type>  (36) 
oracle

>  <origin>  (36) 
adg

>  <m_score__min__energy>  (36) 
-14.57

>  <m_primary>  (36) 
energy

$$$$
36:0
     RDKit          3D

 39 41  0  0  0  0  0  0  0  0999 V2000
   61.1699   29.4711   45.1689 H   0  0  0  0  0  0  0  0  0  0  0  0
   60.8290   29.6340   46.2020 C   0  0  0  0  0  0  0  0  0  0  0  0
   61.1430   30.7900   46.8460 N   0  0  0  0  0  0  0  0  0  0  0  0
   60.7560   31.0300   48.1310 C   0  0  0  0  0  0  0  0  0  0  0  0
   61.0580   32.1480   48.7260 N   0  0  0  0  0  0  0  0  0  0  0  0
   61.0770   33.4460   48.1120 C   0  0  0  0  0  0  0  0  0  0  0  0
   61.8630   34.3180   48.5670 O   0  0  0  0  0  0  0  0  0  0  0  0
   60.2520   33.7670   46.9270 C   0  0  0  0  0  0  0  0  0  0  0  0
   59.8920   35.0680   46.5680 C   0  0  0  0  0  0  0  0  0  0  0  0
   60.1917   35.9881   47.0911 H   0  0  0  0  0  0  0  0  0  0  0  0
   58.9200   34.9840   45.1960 S   0  0  0  0  0  0  0  0  0  0  0  0
   58.9980   33.3020   45.1110 C   0  0  0  0  0  0  0  0  0  0  0  0
   58.3870   32.5440   44.2480 N   0  0  0  0  0  0  0  0  0  0  0  0
   57.9210   31.2040   44.4730 C   0  0  0  0  0  0  0  0  0  0  0  0
   57.6530   30.7830   45.8110 N   0  0  0  0  0  0  0  0  0  0  0  0
   57.7550   31.4570   46.6010 H   0  0  0  0  0  0  0  0  0  0  0  0
   57.3470   29.8060   46.0180 H   0  0  0  0  0  0  0  0  0  0  0  0
   57.8400   30.3500   43.4960 N   0  0  0  0  0  0  0  0  0  0  0  0
   57.4000   29.4130   43.6270 H   0  0  0  0  0  0  0  0  0  0  0  0
   58.1770   30.6000   42.5390 H   0  0  0  0  0  0  0  0  0  0  0  0
   59.7370   32.7970   46.1220 N   0  0  0  0  0  0  0  0  0  0  0  0
   59.8970   31.7740   46.2630 H   0  0  0  0  0  0  0  0  0  0  0  0
   59.9970   30.0730   48.8130 C   0  0  0  0  0  0  0  0  0  0  0  0
   59.6652   30.2609   49.8448 H   0  0  0  0  0  0  0  0  0  0  0  0
   59.6640   28.8770   48.1730 C   0  0  0  0  0  0  0  0  0  0  0  0
   59.0807   28.1123   48.7068 H   0  0  0  0  0  0  0  0  0  0  0  0
   60.0720   28.6500   46.8520 C   0  0  0  0  0  0  0  0  0  0  0  0
   59.7600   27.3480   46.1680 C   0  0  0  0  0  0  0  0  0  0  0  0
   60.2717   27.3165   45.1948 H   0  0  0  0  0  0  0  0  0  0  0  0
   60.1065   26.5171   46.8001 H   0  0  0  0  0  0  0  0  0  0  0  0
   58.2800   27.2190   45.9550 C   0  0  0  0  0  0  0  0  0  0  0  0
   57.5820   28.2670   45.4390 N   0  0  0  0  0  0  0  0  0  0  0  0
   56.2360   28.1970   45.2690 C   0  0  0  0  0  0  0  0  0  0  0  0
   55.6120   29.1760   44.7840 O   0  0  0  0  0  0  0  0  0  0  0  0
   55.5630   27.0710   45.6220 N   0  0  0  0  0  0  0  0  0  0  0  0
   56.2170   26.0040   46.1500 C   0  0  0  0  0  0  0  0  0  0  0  0
   55.5730   24.9720   46.4740 O   0  0  0  0  0  0  0  0  0  0  0  0
   57.6000   26.0560   46.3330 C   0  0  0  0  0  0  0  0  0  0  0  0
   58.1428   25.2021   46.7645 H   0  0  0  0  0  0  0  0  0  0  0  0
  1  2  1  0
  2  3  1  0
  3  4  1  0
  4  5  2  0
  5  6  1  0
  6  7  2  0
  6  8  1  0
  8  9  2  0
  9 10  1  0
  9 11  1  0
 11 12  1  0
 12 13  2  3
 13 14  1  0
 14 15  1  0
 15 16  1  0
 15 17  1  0
 14 18  2  0
 18 19  1  0
 18 20  1  0
 12 21  1  0
 21 22  1  0
  4 23  1  0
 23 24  1  0
 23 25  2  0
 25 26  1  0
 25 27  1  0
 27 28  1  0
 28 29  1  0
 28 30  1  0
 28 31  1  0
 31 32  1  0
 32 33  1  0
 33 34  2  0
 33 35  1  0
 35 36  1  0
 36 37  2  0
 36 38  1  0
 38 39  1  0
 27  2  2  0
 38 31  2  0
 21  8  1  0
M  CHG  4   3  -1  18   1  32  -1  35  -1
M  END
>  <UniqueID>  (37) 
35

>  <SMILES>  (37) 
NC(=[NH2+])N=c1[nH]c(C(=O)/N=c2/ccc(Cc3cc(=O)[n-]c(=O)[n-]3)c[n-]2)cs1

>  <Energy>  (37) 
82.58880999827089

>  <Genealogy>  (37) 
NC(=[NH2+])N=c1[nH]c(C(=O)N=c2ccc(Cc3cc(=O)[n-]c(=O)[n-]3)c[n-]2)cs1 (protonated)
NC(=[NH2+])N=c1[nH]c(C(=O)/N=c2/ccc(Cc3cc(=O)[n-]c(=O)[n-]3)c[n-]2)cs1 (cis-trans isomerization)
NC(=[NH2+])N=c1[nH]c(C(=O)/N=c2/ccc(Cc3cc(=O)[n-]c(=O)[n-]3)c[n-]2)cs1 (3D coordinates assigned)
NC(=[NH2+])N=c1[nH]c(C(=O)/N=c2/ccc(Cc3cc(=O)[n-]c(=O)[n-]3)c[n-]2)cs1 (optimized conformer: 82.58880999827089 kcal/mol)

>  <smiles>  (37) 
N=C(N)N=c1[nH]c(C(=O)N=c2ccc(Cc3cc(=O)[nH]c(=O)[nH]3)c[nH]2)cs1

>  <score_type>  (37) 
oracle

>  <origin>  (37) 
adg

>  <m_score__min__energy>  (37) 
-11.65

>  <m_primary>  (37) 
energy

$$$$
37:0
     RDKit          3D

 39 42  0  0  1  0  0  0  0  0999 V2000
   55.6540   29.5700   44.8460 O   0  0  0  0  0  0  0  0  0  0  0  0
   56.9230   29.7180   44.9240 C   0  0  0  0  0  0  0  0  0  0  0  0
   57.6840   28.5290   44.8770 N   0  0  0  0  0  0  0  0  0  0  0  0
   57.2280   27.5070   45.5230 C   0  0  0  0  0  0  0  0  0  0  0  0
   58.0750   26.6360   46.2020 C   0  0  0  0  0  0  0  0  0  0  0  0
   57.2180   25.6770   46.7650 C   0  0  0  0  0  0  0  0  0  0  0  0
   55.9530   25.9670   46.4410 N   0  0  0  0  0  0  0  0  0  0  0  0
   55.9910   27.0580   45.7030 N   0  0  0  0  0  0  0  0  0  0  0  0
   57.4430   31.0670   45.0520 C   0  0  0  0  0  0  0  0  0  0  0  0
   57.2570   31.9390   43.9940 C   0  0  0  0  0  0  0  0  0  0  0  0
   57.8080   33.2260   44.0880 C   0  0  0  0  0  0  0  0  0  0  0  0
   58.5210   33.6170   45.2150 C   0  0  0  0  0  0  0  0  0  0  0  0
   58.7000   32.7460   46.2610 C   0  0  0  0  0  0  0  0  0  0  0  0
   59.4250   33.0990   47.3930 N   0  0  0  0  0  0  0  0  0  0  0  0
   59.6060   32.2000   48.8470 S   0  0  0  0  0  0  0  0  0  0  0  0
   59.4020   30.7510   48.5630 O   0  0  0  0  0  0  0  0  0  0  0  0
   58.6450   32.7100   49.8920 O   0  0  0  0  0  0  0  0  0  0  0  0
   61.2650   32.4310   49.4280 C   0  0  0  0  0  0  0  0  0  0  0  0
   61.6290   32.1890   50.7270 C   0  0  0  0  0  0  0  0  0  0  0  0
   62.9650   32.3840   51.0890 C   0  0  0  0  0  0  0  0  0  0  0  0
   63.8760   32.8070   50.1550 C   0  0  0  0  0  0  0  0  0  0  0  0
   63.4450   33.0400   48.8380 C   0  0  0  0  0  0  0  0  0  0  0  0
   64.3740   33.4750   47.8640 N   0  0  0  0  0  0  0  0  0  0  0  0
   63.3740   33.6190   46.4090 S   0  0  0  0  0  0  0  0  0  0  0  0
   61.8990   33.1330   47.1110 N   0  0  0  0  0  0  0  0  0  0  0  0
   62.2130   32.8570   48.5190 C   0  0  0  0  0  0  0  0  0  0  0  0
   58.1510   31.4630   46.1690 C   0  0  0  0  0  0  0  0  0  0  0  0
   59.1710   26.6875   46.2801 H   0  0  0  0  0  0  0  0  0  0  0  0
   57.5371   24.8206   47.3772 H   0  0  0  0  0  0  0  0  0  0  0  0
   55.0980   25.4160   46.7210 H   0  0  0  0  0  0  0  0  0  0  0  0
   55.1490   27.5370   45.2900 H   0  0  0  0  0  0  0  0  0  0  0  0
   56.6916   31.6312   43.1020 H   0  0  0  0  0  0  0  0  0  0  0  0
   57.6737   33.9354   43.2581 H   0  0  0  0  0  0  0  0  0  0  0  0
   58.9446   34.6307   45.2693 H   0  0  0  0  0  0  0  0  0  0  0  0
   59.9310   34.0360   47.3710 H   0  0  0  0  0  0  0  0  0  0  0  0
   60.8884   31.8498   51.4662 H   0  0  0  0  0  0  0  0  0  0  0  0
   63.2862   32.1979   52.1245 H   0  0  0  0  0  0  0  0  0  0  0  0
   64.9290   32.9616   50.4329 H   0  0  0  0  0  0  0  0  0  0  0  0
   58.2857   30.7568   47.0015 H   0  0  0  0  0  0  0  0  0  0  0  0
  1  2  2  0
  2  3  1  0
  3  4  2  0
  4  5  1  0
  5  6  2  0
  6  7  1  0
  7  8  1  0
  2  9  1  0
  9 10  2  0
 10 11  1  0
 11 12  2  0
 12 13  1  0
 13 14  1  0
 14 15  1  0
 15 16  2  0
 15 17  2  0
 15 18  1  0
 18 19  2  0
 19 20  1  0
 20 21  2  0
 21 22  1  0
 22 23  2  0
 23 24  1  0
 24 25  1  0
 25 26  2  0
 13 27  2  0
  8  4  1  0
 27  9  1  0
 26 18  1  0
 26 22  1  0
  5 28  1  0
  6 29  1  0
  7 30  1  0
  8 31  1  0
 10 32  1  0
 11 33  1  0
 12 34  1  0
 14 35  1  0
 19 36  1  0
 20 37  1  0
 21 38  1  0
 27 39  1  0
M  END
>  <smiles>  (38) 
O=C(N=c1cc[nH][nH]1)c1cccc(NS(=O)(=O)c2cccc3nsnc23)c1

>  <score_type>  (38) 
oracle

>  <origin>  (38) 
adg

>  <m_score__min__energy>  (38) 
-10.390000000000001

>  <m_primary>  (38) 
energy

$$$$
38:0
     RDKit          3D

 65 69  0  0  0  0  0  0  0  0999 V2000
   57.3470   25.6940   44.8350 C   0  0  0  0  0  0  0  0  0  0  0  0
   58.0390   26.4680   45.9230 C   0  0  0  0  0  0  0  0  0  0  0  0
   58.9470   25.8200   46.7760 C   0  0  0  0  0  0  0  0  0  0  0  0
   59.5770   26.5230   47.8050 C   0  0  0  0  0  0  0  0  0  0  0  0
   59.2860   27.8780   48.0150 C   0  0  0  0  0  0  0  0  0  0  0  0
   59.9080   28.6160   49.0730 N   0  0  0  0  0  0  0  0  0  0  0  0
   60.4270   29.9470   48.9670 C   0  0  0  0  0  0  0  0  0  0  0  0
   60.1360   30.7820   49.8630 O   0  0  0  0  0  0  0  0  0  0  0  0
   61.2810   30.3240   47.8730 N   0  0  0  0  0  0  0  0  0  0  0  0
   62.1550   31.4660   47.8840 C   0  0  0  0  0  0  0  0  0  0  0  0
   61.9320   32.5690   47.0410 C   0  0  0  0  0  0  0  0  0  0  0  0
   62.7450   33.7000   47.1330 C   0  0  0  0  0  0  0  0  0  0  0  0
   63.7780   33.7510   48.0720 C   0  0  0  0  0  0  0  0  0  0  0  0
   64.0210   32.6580   48.9240 C   0  0  0  0  0  0  0  0  0  0  0  0
   65.0910   32.7170   49.9510 C   0  0  0  0  0  0  0  0  0  0  0  0
   65.7500   33.7810   50.1030 O   0  0  0  0  0  0  0  0  0  0  0  0
   65.4170   31.5730   50.7550 N   0  0  0  0  0  0  0  0  0  0  0  0
   64.4100   30.9850   51.6470 C   0  0  0  0  0  0  0  0  0  0  0  0
   64.6570   29.4700   51.8450 C   0  0  0  0  0  0  0  0  0  0  0  0
   65.8860   29.0140   51.3050 O   0  0  0  0  0  0  0  0  0  0  0  0
   66.9350   29.8800   51.6840 C   0  0  0  0  0  0  0  0  0  0  0  0
   66.8240   31.1860   50.8970 C   0  0  0  0  0  0  0  0  0  0  0  0
   63.1930   31.5240   48.8270 C   0  0  0  0  0  0  0  0  0  0  0  0
   58.4080   28.5370   47.1480 C   0  0  0  0  0  0  0  0  0  0  0  0
   57.7840   27.8450   46.0920 C   0  0  0  0  0  0  0  0  0  0  0  0
   56.8240   28.4990   45.2410 N   0  0  0  0  0  0  0  0  0  0  0  0
   56.9990   29.6170   44.6000 C   0  0  0  0  0  0  0  0  0  0  0  0
   57.5790   30.6920   45.2020 N   0  0  0  0  0  0  0  0  0  0  0  0
   57.7870   31.8600   44.5360 C   0  0  0  0  0  0  0  0  0  0  0  0
   58.4270   32.9860   45.2470 C   0  0  0  0  0  0  0  0  0  0  0  0
   58.8220   34.1840   44.6710 C   0  0  0  0  0  0  0  0  0  0  0  0
   59.3290   34.9610   45.6920 C   0  0  0  0  0  0  0  0  0  0  0  0
   59.2740   34.2820   46.8530 N   0  0  0  0  0  0  0  0  0  0  0  0
   59.6370   34.7940   48.1680 C   0  0  0  0  0  0  0  0  0  0  0  0
   58.7150   33.0830   46.6000 C   0  0  0  0  0  0  0  0  0  0  0  0
   57.3970   31.9550   43.1930 C   0  0  0  0  0  0  0  0  0  0  0  0
   56.8140   30.8420   42.5860 C   0  0  0  0  0  0  0  0  0  0  0  0
   56.6300   29.6990   43.2960 N   0  0  0  0  0  0  0  0  0  0  0  0
   56.6782   24.9460   45.2857 H   0  0  0  0  0  0  0  0  0  0  0  0
   56.7588   26.3836   44.2117 H   0  0  0  0  0  0  0  0  0  0  0  0
   58.0979   25.1863   44.2117 H   0  0  0  0  0  0  0  0  0  0  0  0
   59.1635   24.7511   46.6326 H   0  0  0  0  0  0  0  0  0  0  0  0
   60.3041   26.0117   48.4530 H   0  0  0  0  0  0  0  0  0  0  0  0
   61.3190   29.7080   47.0300 H   0  0  0  0  0  0  0  0  0  0  0  0
   61.1139   32.5406   46.3063 H   0  0  0  0  0  0  0  0  0  0  0  0
   62.5714   34.5550   46.4630 H   0  0  0  0  0  0  0  0  0  0  0  0
   64.4055   34.6515   48.1458 H   0  0  0  0  0  0  0  0  0  0  0  0
   64.4586   31.4876   52.6243 H   0  0  0  0  0  0  0  0  0  0  0  0
   63.4181   31.1204   51.1912 H   0  0  0  0  0  0  0  0  0  0  0  0
   64.6520   29.2562   52.9240 H   0  0  0  0  0  0  0  0  0  0  0  0
   63.8558   28.9423   51.3068 H   0  0  0  0  0  0  0  0  0  0  0  0
   66.8641   30.0931   52.7608 H   0  0  0  0  0  0  0  0  0  0  0  0
   67.9021   29.4022   51.4688 H   0  0  0  0  0  0  0  0  0  0  0  0
   67.3671   31.9795   51.4312 H   0  0  0  0  0  0  0  0  0  0  0  0
   67.2592   31.0409   49.8972 H   0  0  0  0  0  0  0  0  0  0  0  0
   63.3619   30.6706   49.5002 H   0  0  0  0  0  0  0  0  0  0  0  0
   58.2026   29.6079   47.2927 H   0  0  0  0  0  0  0  0  0  0  0  0
   58.7460   34.4604   43.6090 H   0  0  0  0  0  0  0  0  0  0  0  0
   59.7197   35.9826   45.5749 H   0  0  0  0  0  0  0  0  0  0  0  0
   59.1870   34.1593   48.9456 H   0  0  0  0  0  0  0  0  0  0  0  0
   60.7317   34.7851   48.2756 H   0  0  0  0  0  0  0  0  0  0  0  0
   59.2663   35.8241   48.2756 H   0  0  0  0  0  0  0  0  0  0  0  0
   58.5177   32.3025   47.3496 H   0  0  0  0  0  0  0  0  0  0  0  0
   57.5474   32.8875   42.6293 H   0  0  0  0  0  0  0  0  0  0  0  0
   56.5033   30.8904   41.5319 H   0  0  0  0  0  0  0  0  0  0  0  0
  1  2  1  0
  2  3  2  0
  3  4  1  0
  4  5  2  0
  5  6  1  0
  6  7  1  0
  7  8  2  0
  7  9  1  0
  9 10  1  0
 10 11  2  0
 11 12  1  0
 12 13  2  0
 13 14  1  0
 14 15  1  0
 15 16  2  0
 15 17  1  0
 17 18  1  0
 18 19  1  0
 19 20  1  0
 20 21  1  0
 21 22  1  0
 14 23  2  0
  5 24  1  0
 24 25  2  0
 25 26  1  0
 26 27  2  3
 27 28  1  0
 28 29  2  0
 29 30  1  0
 30 31  1  0
 31 32  2  0
 32 33  1  0
 33 34  1  0
 33 35  1  0
 29 36  1  0
 36 37  2  0
 37 38  1  0
 25  2  1  0
 38 27  1  0
 23 10  1  0
 35 30  2  0
 22 17  1  0
  1 39  1  0
  1 40  1  0
  1 41  1  0
  3 42  1  0
  4 43  1  0
  9 44  1  0
 11 45  1  0
 12 46  1  0
 13 47  1  0
 18 48  1  0
 18 49  1  0
 19 50  1  0
 19 51  1  0
 21 52  1  0
 21 53  1  0
 22 54  1  0
 22 55  1  0
 23 56  1  0
 24 57  1  0
 31 58  1  0
 32 59  1  0
 34 60  1  0
 34 61  1  0
 34 62  1  0
 35 63  1  0
 36 64  1  0
 37 65  1  0
M  CHG  2   6  -1  38  -1
M  END
>  <UniqueID>  (39) 
36

>  <SMILES>  (39) 
Cc1ccc([N-]C(=O)Nc2cccc(C(=O)N3CCOCC3)c2)cc1N=c1nc(-c2ccn(C)c2)cc[n-]1

>  <Energy>  (39) 
122.85056124149273

>  <Genealogy>  (39) 
Cc1ccc([N-]C(=O)Nc2cccc(C(=O)N3CCOCC3)c2)cc1N=c1nc(-c2ccn(C)c2)cc[n-]1 (protonated)
Cc1ccc([N-]C(=O)Nc2cccc(C(=O)N3CCOCC3)c2)cc1N=c1nc(-c2ccn(C)c2)cc[n-]1 (3D coordinates assigned)
Cc1ccc([N-]C(=O)Nc2cccc(C(=O)N3CCOCC3)c2)cc1N=c1nc(-c2ccn(C)c2)cc[n-]1 (nonaromatic ring conformer: 122.85056124149273 kcal/mol)

>  <smiles>  (39) 
Cc1ccc(NC(=O)Nc2cccc(C(=O)N3CCOCC3)c2)cc1N=c1nc(-c2ccn(C)c2)cc[nH]1

>  <score_type>  (39) 
oracle

>  <origin>  (39) 
adg

>  <m_score__min__energy>  (39) 
-12.42

>  <m_primary>  (39) 
energy

$$$$
39:0
     RDKit          3D

 68 72  0  0  0  0  0  0  0  0999 V2000
   58.8830   33.8100   51.6070 C   0  0  0  0  0  0  0  0  0  0  0  0
   59.5570   32.4760   51.4770 C   0  0  0  0  0  0  0  0  0  0  0  0
   60.4200   32.0240   52.4860 C   0  0  0  0  0  0  0  0  0  0  0  0
   61.0770   30.8000   52.3530 C   0  0  0  0  0  0  0  0  0  0  0  0
   60.8950   30.0260   51.2050 C   0  0  0  0  0  0  0  0  0  0  0  0
   60.0580   30.4780   50.1700 C   0  0  0  0  0  0  0  0  0  0  0  0
   59.8750   29.6730   48.9400 C   0  0  0  0  0  0  0  0  0  0  0  0
   59.9170   28.4150   49.0110 O   0  0  0  0  0  0  0  0  0  0  0  0
   59.7020   30.2840   47.6540 N   0  0  0  0  0  0  0  0  0  0  0  0
   58.7190   29.9120   46.6740 C   0  0  0  0  0  0  0  0  0  0  0  0
   58.3820   28.5620   46.4640 C   0  0  0  0  0  0  0  0  0  0  0  0
   57.4000   28.2040   45.5250 C   0  0  0  0  0  0  0  0  0  0  0  0
   57.0120   26.7870   45.3090 C   0  0  0  0  0  0  0  0  0  0  0  0
   55.8820   26.3970   45.7090 O   0  0  0  0  0  0  0  0  0  0  0  0
   57.9040   25.8560   44.6630 N   0  0  0  0  0  0  0  0  0  0  0  0
   57.5530   24.4990   44.3470 C   0  0  0  0  0  0  0  0  0  0  0  0
   56.6350   24.1880   43.3290 C   0  0  0  0  0  0  0  0  0  0  0  0
   56.3480   22.8550   43.0320 C   0  0  0  0  0  0  0  0  0  0  0  0
   56.9920   21.8400   43.7430 C   0  0  0  0  0  0  0  0  0  0  0  0
   57.8950   22.1540   44.7090 N   0  0  0  0  0  0  0  0  0  0  0  0
   58.1910   23.4440   45.0180 C   0  0  0  0  0  0  0  0  0  0  0  0
   56.7520   29.2180   44.8010 C   0  0  0  0  0  0  0  0  0  0  0  0
   57.0980   30.5570   44.9890 C   0  0  0  0  0  0  0  0  0  0  0  0
   58.0900   30.9100   45.9110 C   0  0  0  0  0  0  0  0  0  0  0  0
   58.4120   32.2960   46.1050 N   0  0  0  0  0  0  0  0  0  0  0  0
   58.2140   32.9250   47.4130 C   0  0  0  0  0  0  0  0  0  0  0  0
   59.3740   33.8880   47.7510 C   0  0  0  0  0  0  0  0  0  0  0  0
   60.0850   34.4360   46.5660 N   0  0  0  0  0  0  0  0  0  0  0  0
   61.3670   33.7350   46.3190 C   0  0  0  0  0  0  0  0  0  0  0  0
   62.0250   33.3190   47.6090 C   0  0  0  0  0  0  0  0  0  0  0  0
   62.4260   31.9850   47.7960 C   0  0  0  0  0  0  0  0  0  0  0  0
   63.0150   31.5890   49.0000 C   0  0  0  0  0  0  0  0  0  0  0  0
   63.2040   32.5170   50.0260 C   0  0  0  0  0  0  0  0  0  0  0  0
   62.8050   33.8450   49.8500 C   0  0  0  0  0  0  0  0  0  0  0  0
   62.2180   34.2470   48.6460 C   0  0  0  0  0  0  0  0  0  0  0  0
   59.2130   34.5110   45.3730 C   0  0  0  0  0  0  0  0  0  0  0  0
   58.7270   33.1220   44.9380 C   0  0  0  0  0  0  0  0  0  0  0  0
   59.3850   31.7030   50.3180 C   0  0  0  0  0  0  0  0  0  0  0  0
   58.7588   34.0558   52.6720 H   0  0  0  0  0  0  0  0  0  0  0  0
   59.4996   34.5812   51.1222 H   0  0  0  0  0  0  0  0  0  0  0  0
   57.8964   33.7711   51.1222 H   0  0  0  0  0  0  0  0  0  0  0  0
   60.5796   32.6366   53.3856 H   0  0  0  0  0  0  0  0  0  0  0  0
   61.7403   30.4438   53.1550 H   0  0  0  0  0  0  0  0  0  0  0  0
   61.4090   29.0581   51.1102 H   0  0  0  0  0  0  0  0  0  0  0  0
   58.8933   27.7779   47.0417 H   0  0  0  0  0  0  0  0  0  0  0  0
   58.8800   26.1510   44.4450 H   0  0  0  0  0  0  0  0  0  0  0  0
   56.1429   24.9952   42.7666 H   0  0  0  0  0  0  0  0  0  0  0  0
   55.6210   22.6059   42.2449 H   0  0  0  0  0  0  0  0  0  0  0  0
   56.7683   20.7861   43.5211 H   0  0  0  0  0  0  0  0  0  0  0  0
   58.9348   23.6626   45.7984 H   0  0  0  0  0  0  0  0  0  0  0  0
   55.9647   28.9546   44.0793 H   0  0  0  0  0  0  0  0  0  0  0  0
   56.5877   31.3399   44.4088 H   0  0  0  0  0  0  0  0  0  0  0  0
   57.2705   33.4903   47.4002 H   0  0  0  0  0  0  0  0  0  0  0  0
   58.1825   32.1353   48.1781 H   0  0  0  0  0  0  0  0  0  0  0  0
   58.9640   34.7313   48.3261 H   0  0  0  0  0  0  0  0  0  0  0  0
   60.1133   33.3013   48.3160 H   0  0  0  0  0  0  0  0  0  0  0  0
   61.1733   32.8389   45.7111 H   0  0  0  0  0  0  0  0  0  0  0  0
   62.0428   34.4256   45.7933 H   0  0  0  0  0  0  0  0  0  0  0  0
   62.2757   31.2498   46.9917 H   0  0  0  0  0  0  0  0  0  0  0  0
   63.3302   30.5444   49.1396 H   0  0  0  0  0  0  0  0  0  0  0  0
   63.6670   32.2029   50.9731 H   0  0  0  0  0  0  0  0  0  0  0  0
   62.9529   34.5749   50.6596 H   0  0  0  0  0  0  0  0  0  0  0  0
   61.9064   35.2932   48.5105 H   0  0  0  0  0  0  0  0  0  0  0  0
   58.3396   35.1369   45.6084 H   0  0  0  0  0  0  0  0  0  0  0  0
   59.7970   34.9444   44.5477 H   0  0  0  0  0  0  0  0  0  0  0  0
   57.8242   33.2325   44.3193 H   0  0  0  0  0  0  0  0  0  0  0  0
   59.5259   32.6316   44.3624 H   0  0  0  0  0  0  0  0  0  0  0  0
   58.7180   32.0589   49.5190 H   0  0  0  0  0  0  0  0  0  0  0  0
  1  2  1  0
  2  3  2  0
  3  4  1  0
  4  5  2  0
  5  6  1  0
  6  7  1  0
  7  8  2  0
  7  9  1  0
  9 10  1  0
 10 11  2  0
 11 12  1  0
 12 13  1  0
 13 14  2  0
 13 15  1  0
 15 16  1  0
 16 17  2  0
 17 18  1  0
 18 19  2  0
 19 20  1  0
 20 21  2  0
 12 22  2  0
 22 23  1  0
 23 24  2  0
 24 25  1  0
 25 26  1  0
 26 27  1  0
 27 28  1  0
 28 29  1  0
 29 30  1  0
 30 31  2  0
 31 32  1  0
 32 33  2  0
 33 34  1  0
 34 35  2  0
 28 36  1  0
 36 37  1  0
  6 38  2  0
 38  2  1  0
 24 10  1  0
 37 25  1  0
 21 16  1  0
 35 30  1  0
  1 39  1  0
  1 40  1  0
  1 41  1  0
  3 42  1  0
  4 43  1  0
  5 44  1  0
 11 45  1  0
 15 46  1  0
 17 47  1  0
 18 48  1  0
 19 49  1  0
 21 50  1  0
 22 51  1  0
 23 52  1  0
 26 53  1  0
 26 54  1  0
 27 55  1  0
 27 56  1  0
 29 57  1  0
 29 58  1  0
 31 59  1  0
 32 60  1  0
 33 61  1  0
 34 62  1  0
 35 63  1  0
 36 64  1  0
 36 65  1  0
 37 66  1  0
 37 67  1  0
 38 68  1  0
M  CHG  1   9  -1
M  END
>  <UniqueID>  (40) 
37

>  <SMILES>  (40) 
Cc1cccc(C(=O)[N-]c2cc(C(=O)Nc3cccnc3)ccc2N2CCN(Cc3ccccc3)CC2)c1

>  <Energy>  (40) 
100.18810877912345

>  <Genealogy>  (40) 
Cc1cccc(C(=O)[N-]c2cc(C(=O)Nc3cccnc3)ccc2N2CCN(Cc3ccccc3)CC2)c1 (protonated)
Cc1cccc(C(=O)[N-]c2cc(C(=O)Nc3cccnc3)ccc2N2CCN(Cc3ccccc3)CC2)c1 (3D coordinates assigned)
Cc1cccc(C(=O)[N-]c2cc(C(=O)Nc3cccnc3)ccc2N2CCN(Cc3ccccc3)CC2)c1 (nonaromatic ring conformer: 100.18810877912345 kcal/mol)

>  <smiles>  (40) 
Cc1cccc(C(=O)Nc2cc(C(=O)Nc3cccnc3)ccc2N2CCN(Cc3ccccc3)CC2)c1

>  <score_type>  (40) 
oracle

>  <origin>  (40) 
adg

>  <m_score__min__energy>  (40) 
-11.35

>  <m_primary>  (40) 
energy

$$$$
40:0
     RDKit          3D

 53 55  0  0  0  0  0  0  0  0999 V2000
   57.4270   28.7170   44.0900 C   0  0  0  0  0  0  0  0  0  0  0  0
   58.6760   28.5720   44.5350 C   0  0  0  0  0  0  0  0  0  0  0  0
   59.1510   29.0680   45.8520 C   0  0  0  0  0  0  0  0  0  0  0  0
   58.4120   28.8930   47.0370 C   0  0  0  0  0  0  0  0  0  0  0  0
   58.8940   29.3870   48.2540 C   0  0  0  0  0  0  0  0  0  0  0  0
   60.1360   30.0500   48.3140 C   0  0  0  0  0  0  0  0  0  0  0  0
   60.6650   30.5810   49.5050 O   0  0  0  0  0  0  0  0  0  0  0  0
   59.9900   31.4450   50.4240 C   0  0  0  0  0  0  0  0  0  0  0  0
   59.7620   32.8340   49.8600 C   0  0  0  0  0  0  0  0  0  0  0  0
   59.2980   33.6810   50.6150 O   0  0  0  0  0  0  0  0  0  0  0  0
   60.0370   33.1690   48.4650 N   0  0  1  0  0  0  0  0  0  0  0  0
   58.9300   33.9700   47.8780 C   0  0  0  0  0  0  0  0  0  0  0  0
   58.6120   33.5360   46.4660 C   0  0  0  0  0  0  0  0  0  0  0  0
   59.1390   34.2460   45.3740 C   0  0  0  0  0  0  0  0  0  0  0  0
   58.8660   33.8300   44.0660 C   0  0  0  0  0  0  0  0  0  0  0  0
   58.0790   32.6950   43.8390 C   0  0  0  0  0  0  0  0  0  0  0  0
   57.7640   32.1590   42.1990 Cl  0  0  0  0  0  0  0  0  0  0  0  0
   57.5570   31.9800   44.9240 C   0  0  0  0  0  0  0  0  0  0  0  0
   57.8210   32.3980   46.2320 C   0  0  0  0  0  0  0  0  0  0  0  0
   61.3660   33.8270   48.2800 C   0  0  0  0  0  0  0  0  0  0  0  0
   62.4190   33.4940   49.3840 C   0  0  0  0  0  0  0  0  0  0  0  0
   63.6150   32.7130   48.8260 C   0  0  0  0  0  0  0  0  0  0  0  0
   64.2890   33.4620   47.7510 N   0  0  0  0  0  0  0  0  0  0  0  0
   63.3810   34.0810   46.7610 C   0  0  0  0  0  0  0  0  0  0  0  0
   61.9320   33.5820   46.8580 C   0  0  0  0  0  0  0  0  0  0  0  0
   60.8840   30.1970   47.1390 C   0  0  0  0  0  0  0  0  0  0  0  0
   62.0860   30.8280   47.1780 F   0  0  0  0  0  0  0  0  0  0  0  0
   60.4000   29.7090   45.9210 C   0  0  0  0  0  0  0  0  0  0  0  0
   57.1459   28.3233   43.1021 H   0  0  0  0  0  0  0  0  0  0  0  0
   56.6780   29.2303   44.7109 H   0  0  0  0  0  0  0  0  0  0  0  0
   59.3982   28.0535   43.8872 H   0  0  0  0  0  0  0  0  0  0  0  0
   57.4482   28.3638   47.0061 H   0  0  0  0  0  0  0  0  0  0  0  0
   58.2994   29.2570   49.1703 H   0  0  0  0  0  0  0  0  0  0  0  0
   59.0146   31.0015   50.6727 H   0  0  0  0  0  0  0  0  0  0  0  0
   60.6282   31.5479   51.3140 H   0  0  0  0  0  0  0  0  0  0  0  0
   60.0820   32.2880   47.9050 H   0  0  0  0  0  0  0  0  0  0  0  0
   58.0313   33.8452   48.5000 H   0  0  0  0  0  0  0  0  0  0  0  0
   59.2473   35.0229   47.8492 H   0  0  0  0  0  0  0  0  0  0  0  0
   59.7681   35.1315   45.5478 H   0  0  0  0  0  0  0  0  0  0  0  0
   59.2709   34.3963   43.2143 H   0  0  0  0  0  0  0  0  0  0  0  0
   56.9382   31.0880   44.7470 H   0  0  0  0  0  0  0  0  0  0  0  0
   57.4080   31.8339   47.0812 H   0  0  0  0  0  0  0  0  0  0  0  0
   61.1669   34.9027   48.3949 H   0  0  0  0  0  0  0  0  0  0  0  0
   62.7833   34.4351   49.8216 H   0  0  0  0  0  0  0  0  0  0  0  0
   61.9278   32.8648   50.1408 H   0  0  0  0  0  0  0  0  0  0  0  0
   64.3330   32.5284   49.6386 H   0  0  0  0  0  0  0  0  0  0  0  0
   63.2462   31.7641   48.4095 H   0  0  0  0  0  0  0  0  0  0  0  0
   64.9320   32.8010   47.2580 H   0  0  0  0  0  0  0  0  0  0  0  0
   63.3850   35.1696   46.9187 H   0  0  0  0  0  0  0  0  0  0  0  0
   63.7521   33.8008   45.7641 H   0  0  0  0  0  0  0  0  0  0  0  0
   61.3140   34.1210   46.1248 H   0  0  0  0  0  0  0  0  0  0  0  0
   61.9136   32.5021   46.6496 H   0  0  0  0  0  0  0  0  0  0  0  0
   61.0025   29.8279   45.0084 H   0  0  0  0  0  0  0  0  0  0  0  0
  1  2  2  0
  2  3  1  0
  3  4  2  0
  4  5  1  0
  5  6  2  0
  6  7  1  0
  7  8  1  0
  8  9  1  0
  9 10  2  0
  9 11  1  0
 11 12  1  0
 12 13  1  0
 13 14  2  0
 14 15  1  0
 15 16  2  0
 16 17  1  0
 16 18  1  0
 18 19  2  0
 11 20  1  0
 20 21  1  0
 21 22  1  0
 22 23  1  0
 23 24  1  0
 24 25  1  0
  6 26  1  0
 26 27  1  0
 26 28  2  0
 28  3  1  0
 19 13  1  0
 25 20  1  0
  1 29  1  0
  1 30  1  0
  2 31  1  0
  4 32  1  0
  5 33  1  0
  8 34  1  0
  8 35  1  0
 11 36  1  6
 12 37  1  0
 12 38  1  0
 14 39  1  0
 15 40  1  0
 18 41  1  0
 19 42  1  0
 20 43  1  0
 21 44  1  0
 21 45  1  0
 22 46  1  0
 22 47  1  0
 23 48  1  0
 24 49  1  0
 24 50  1  0
 25 51  1  0
 25 52  1  0
 28 53  1  0
M  CHG  1  11   1
M  END
>  <UniqueID>  (41) 
38

>  <SMILES>  (41) 
C=Cc1ccc(OCC(=O)[N@@H+](Cc2ccc(Cl)cc2)C2CCNCC2)c(F)c1

>  <Energy>  (41) 
67.69761707277594

>  <Genealogy>  (41) 
C=Cc1ccc(OCC(=O)[NH+](Cc2ccc(Cl)cc2)C2CCNCC2)c(F)c1 (protonated)
C=Cc1ccc(OCC(=O)[N@@H+](Cc2ccc(Cl)cc2)C2CCNCC2)c(F)c1 (chirality)
C=Cc1ccc(OCC(=O)[N@@H+](Cc2ccc(Cl)cc2)C2CCNCC2)c(F)c1 (3D coordinates assigned)
C=Cc1ccc(OCC(=O)[N@@H+](Cc2ccc(Cl)cc2)C2CCNCC2)c(F)c1 (nonaromatic ring conformer: 67.69761707277594 kcal/mol)

>  <smiles>  (41) 
C=Cc1ccc(OCC(=O)N(Cc2ccc(Cl)cc2)C2CCNCC2)c(F)c1

>  <score_type>  (41) 
oracle

>  <origin>  (41) 
adg

>  <m_score__min__energy>  (41) 
-6.5899999999999999

>  <m_primary>  (41) 
energy

$$$$
41:0
     RDKit          3D

 52 54  0  0  0  0  0  0  0  0999 V2000
   61.8400   30.0620   50.8020 C   0  0  0  0  0  0  0  0  0  0  0  0
   62.4550   31.2140   50.2360 O   0  0  0  0  0  0  0  0  0  0  0  0
   63.8200   31.5270   50.3490 C   0  0  0  0  0  0  0  0  0  0  0  0
   64.7130   30.7190   51.0800 C   0  0  0  0  0  0  0  0  0  0  0  0
   66.0570   31.0810   51.1970 C   0  0  0  0  0  0  0  0  0  0  0  0
   66.5240   32.2490   50.5920 C   0  0  0  0  0  0  0  0  0  0  0  0
   65.6500   33.0550   49.8610 C   0  0  0  0  0  0  0  0  0  0  0  0
   64.3000   32.6950   49.7250 C   0  0  0  0  0  0  0  0  0  0  0  0
   63.4090   33.5350   48.9750 N   0  0  0  0  0  0  0  0  0  0  0  0
   63.5790   33.7030   47.5280 C   0  0  0  0  0  0  0  0  0  0  0  0
   62.2400   33.4980   46.7850 C   0  0  0  0  0  0  0  0  0  0  0  0
   61.0700   33.5090   47.6990 N   0  0  0  0  0  0  0  0  0  0  0  0
   59.8370   33.6690   46.9550 C   0  0  0  0  0  0  0  0  0  0  0  0
   59.2620   34.7930   46.9280 O   0  0  0  0  0  0  0  0  0  0  0  0
   59.1440   32.5150   46.3390 C   0  0  0  0  0  0  0  0  0  0  0  0
   59.4710   31.2420   46.6340 N   0  0  0  0  0  0  0  0  0  0  0  0
   58.6930   30.4380   45.8850 C   0  0  0  0  0  0  0  0  0  0  0  0
   58.8260   28.9470   45.8900 C   0  0  0  0  0  0  0  0  0  0  0  0
   57.8280   31.1990   45.1050 C   0  0  0  0  0  0  0  0  0  0  0  0
   56.8240   30.7190   44.1270 C   0  0  0  0  0  0  0  0  0  0  0  0
   57.0160   30.8830   42.6530 C   0  0  0  0  0  0  0  0  0  0  0  0
   55.7700   30.1690   44.5430 O   0  0  0  0  0  0  0  0  0  0  0  0
   58.1090   32.5300   45.4070 C   0  0  0  0  0  0  0  0  0  0  0  0
   57.3740   33.7270   44.8780 C   0  0  0  0  0  0  0  0  0  0  0  0
   61.1910   34.5850   48.7050 C   0  0  0  0  0  0  0  0  0  0  0  0
   62.3530   34.2830   49.6660 C   0  0  0  0  0  0  0  0  0  0  0  0
   61.8758   30.1290   51.8994 H   0  0  0  0  0  0  0  0  0  0  0  0
   60.7921   30.0063   50.4720 H   0  0  0  0  0  0  0  0  0  0  0  0
   62.3768   29.1603   50.4720 H   0  0  0  0  0  0  0  0  0  0  0  0
   64.3501   29.7987   51.5609 H   0  0  0  0  0  0  0  0  0  0  0  0
   66.7491   30.4440   51.7673 H   0  0  0  0  0  0  0  0  0  0  0  0
   67.5817   32.5344   50.6914 H   0  0  0  0  0  0  0  0  0  0  0  0
   66.0208   33.9769   49.3891 H   0  0  0  0  0  0  0  0  0  0  0  0
   63.9511   34.7181   47.3251 H   0  0  0  0  0  0  0  0  0  0  0  0
   64.2969   32.9503   47.1701 H   0  0  0  0  0  0  0  0  0  0  0  0
   62.1189   34.3061   46.0486 H   0  0  0  0  0  0  0  0  0  0  0  0
   62.2755   32.5100   46.3027 H   0  0  0  0  0  0  0  0  0  0  0  0
   61.0430   32.5990   48.2120 H   0  0  0  0  0  0  0  0  0  0  0  0
   60.2210   30.9350   47.2930 H   0  0  0  0  0  0  0  0  0  0  0  0
   58.8583   28.5852   46.9283 H   0  0  0  0  0  0  0  0  0  0  0  0
   57.9641   28.5003   45.3727 H   0  0  0  0  0  0  0  0  0  0  0  0
   59.7533   28.6599   45.3727 H   0  0  0  0  0  0  0  0  0  0  0  0
   57.8403   31.5871   42.4667 H   0  0  0  0  0  0  0  0  0  0  0  0
   57.2578   29.9083   42.2040 H   0  0  0  0  0  0  0  0  0  0  0  0
   56.0911   31.2742   42.2040 H   0  0  0  0  0  0  0  0  0  0  0  0
   57.0032   34.3309   45.7193 H   0  0  0  0  0  0  0  0  0  0  0  0
   58.0555   34.3336   44.2635 H   0  0  0  0  0  0  0  0  0  0  0  0
   56.5247   33.3937   44.2635 H   0  0  0  0  0  0  0  0  0  0  0  0
   61.3804   35.5407   48.1943 H   0  0  0  0  0  0  0  0  0  0  0  0
   60.2554   34.6465   49.2801 H   0  0  0  0  0  0  0  0  0  0  0  0
   62.7671   35.2300   50.0425 H   0  0  0  0  0  0  0  0  0  0  0  0
   61.9752   33.6759   50.5019 H   0  0  0  0  0  0  0  0  0  0  0  0
  1  2  1  0
  2  3  1  0
  3  4  2  0
  4  5  1  0
  5  6  2  0
  6  7  1  0
  7  8  2  0
  8  9  1  0
  9 10  1  0
 10 11  1  0
 11 12  1  0
 12 13  1  0
 13 14  2  0
 13 15  1  0
 15 16  1  0
 16 17  1  0
 17 18  1  0
 17 19  2  0
 19 20  1  0
 20 21  1  0
 20 22  2  0
 19 23  1  0
 23 24  1  0
 12 25  1  0
 25 26  1  0
  8  3  1  0
 26  9  1  0
 23 15  2  0
  1 27  1  0
  1 28  1  0
  1 29  1  0
  4 30  1  0
  5 31  1  0
  6 32  1  0
  7 33  1  0
 10 34  1  0
 10 35  1  0
 11 36  1  0
 11 37  1  0
 12 38  1  0
 16 39  1  0
 18 40  1  0
 18 41  1  0
 18 42  1  0
 21 43  1  0
 21 44  1  0
 21 45  1  0
 24 46  1  0
 24 47  1  0
 24 48  1  0
 25 49  1  0
 25 50  1  0
 26 51  1  0
 26 52  1  0
M  CHG  1  12   1
M  END
>  <UniqueID>  (42) 
39

>  <SMILES>  (42) 
COc1ccccc1N1CC[NH+](C(=O)c2[nH]c(C)c(C(C)=O)c2C)CC1

>  <Energy>  (42) 
94.01035978240768

>  <Genealogy>  (42) 
COc1ccccc1N1CC[NH+](C(=O)c2[nH]c(C)c(C(C)=O)c2C)CC1 (protonated)
COc1ccccc1N1CC[NH+](C(=O)c2[nH]c(C)c(C(C)=O)c2C)CC1 (3D coordinates assigned)
COc1ccccc1N1CC[NH+](C(=O)c2[nH]c(C)c(C(C)=O)c2C)CC1 (nonaromatic ring conformer: 94.01035978240768 kcal/mol)

>  <smiles>  (42) 
COc1ccccc1N1CCN(C(=O)c2[nH]c(C)c(C(C)=O)c2C)CC1

>  <score_type>  (42) 
oracle

>  <origin>  (42) 
adg

>  <m_score__min__energy>  (42) 
-6.4299999999999997

>  <m_primary>  (42) 
energy

$$$$
42:0
     RDKit          3D

 51 54  0  0  0  0  0  0  0  0999 V2000
   54.6110   31.0830   51.2900 C   0  0  0  0  0  0  0  0  0  0  0  0
   54.4570   30.5110   52.4950 C   0  0  0  0  0  0  0  0  0  0  0  0
   53.2520   30.1240   53.1060 C   0  0  0  0  0  0  0  0  0  0  0  0
   51.9700   30.3650   52.7710 C   0  0  0  0  0  0  0  0  0  0  0  0
   51.4930   30.7590   51.4350 C   0  0  0  0  0  0  0  0  0  0  0  0
   51.6340   30.0170   50.3210 N   0  0  0  0  0  0  0  0  0  0  0  0
   51.1870   30.8350   49.3430 C   0  0  0  0  0  0  0  0  0  0  0  0
   51.1450   30.4880   48.1350 O   0  0  0  0  0  0  0  0  0  0  0  0
   50.8010   32.0600   49.7620 N   0  0  0  0  0  0  0  0  0  0  0  0
   51.0160   31.9990   51.0850 C   0  0  0  0  0  0  0  0  0  0  0  0
   50.7870   33.0560   51.9570 O   0  0  0  0  0  0  0  0  0  0  0  0
   53.6060   29.4060   54.2390 C   0  0  0  0  0  0  0  0  0  0  0  0
   54.9830   29.4280   54.3120 C   0  0  0  0  0  0  0  0  0  0  0  0
   55.7950   28.8010   55.4050 C   0  0  0  0  0  0  0  0  0  0  0  0
   55.4990   30.1060   53.2640 N   0  0  0  0  0  0  0  0  0  0  0  0
   56.9010   30.2790   52.9970 C   0  0  0  0  0  0  0  0  0  0  0  0
   57.5120   29.5430   51.9740 C   0  0  0  0  0  0  0  0  0  0  0  0
   58.8720   29.7130   51.7000 C   0  0  0  0  0  0  0  0  0  0  0  0
   59.6410   30.6180   52.4510 C   0  0  0  0  0  0  0  0  0  0  0  0
   61.0800   30.7990   52.1500 C   0  0  0  0  0  0  0  0  0  0  0  0
   61.9340   30.3860   52.9830 O   0  0  0  0  0  0  0  0  0  0  0  0
   61.5260   31.4270   50.9330 N   0  0  0  0  0  0  0  0  0  0  0  0
   60.7770   32.5480   50.3430 C   0  0  0  0  0  0  0  0  0  0  0  0
   61.7500   33.6380   49.8890 C   0  0  0  0  0  0  0  0  0  0  0  0
   62.8060   33.1120   48.8840 C   0  0  0  0  0  0  0  0  0  0  0  0
   64.0440   33.7280   49.1270 O   0  0  0  0  0  0  0  0  0  0  0  0
   62.9840   31.5800   48.9350 C   0  0  0  0  0  0  0  0  0  0  0  0
   62.8150   31.0220   50.3530 C   0  0  0  0  0  0  0  0  0  0  0  0
   59.0170   31.3730   53.4580 C   0  0  0  0  0  0  0  0  0  0  0  0
   57.6560   31.2040   53.7310 C   0  0  0  0  0  0  0  0  0  0  0  0
   57.0690   31.9530   54.6980 F   0  0  0  0  0  0  0  0  0  0  0  0
   55.6175   31.3380   50.9268 H   0  0  0  0  0  0  0  0  0  0  0  0
   53.7306   31.2966   50.6660 H   0  0  0  0  0  0  0  0  0  0  0  0
   51.2146   30.2583   53.5634 H   0  0  0  0  0  0  0  0  0  0  0  0
   52.9200   28.9136   54.9439 H   0  0  0  0  0  0  0  0  0  0  0  0
   55.3951   29.1098   56.3821 H   0  0  0  0  0  0  0  0  0  0  0  0
   55.7440   27.7057   55.3175 H   0  0  0  0  0  0  0  0  0  0  0  0
   56.8418   29.1274   55.3175 H   0  0  0  0  0  0  0  0  0  0  0  0
   56.9193   28.8285   51.3839 H   0  0  0  0  0  0  0  0  0  0  0  0
   59.3432   29.1348   50.8915 H   0  0  0  0  0  0  0  0  0  0  0  0
   60.2020   32.1878   49.4772 H   0  0  0  0  0  0  0  0  0  0  0  0
   60.0911   32.9634   51.0959 H   0  0  0  0  0  0  0  0  0  0  0  0
   61.1767   34.4443   49.4081 H   0  0  0  0  0  0  0  0  0  0  0  0
   62.2868   33.9978   50.7792 H   0  0  0  0  0  0  0  0  0  0  0  0
   62.4349   33.3642   47.8797 H   0  0  0  0  0  0  0  0  0  0  0  0
   64.4350   33.2810   49.9220 H   0  0  0  0  0  0  0  0  0  0  0  0
   62.2330   31.1145   48.2797 H   0  0  0  0  0  0  0  0  0  0  0  0
   64.0064   31.3485   48.6017 H   0  0  0  0  0  0  0  0  0  0  0  0
   62.8620   29.9237   50.3145 H   0  0  0  0  0  0  0  0  0  0  0  0
   63.6223   31.4225   50.9837 H   0  0  0  0  0  0  0  0  0  0  0  0
   59.6033   32.1025   54.0360 H   0  0  0  0  0  0  0  0  0  0  0  0
  1  2  2  0
  2  3  1  0
  3  4  2  3
  4  5  1  0
  5  6  1  0
  6  7  1  0
  7  8  2  0
  7  9  1  0
  9 10  1  0
 10 11  1  0
  3 12  1  0
 12 13  2  0
 13 14  1  0
 13 15  1  0
 15 16  1  0
 16 17  2  0
 17 18  1  0
 18 19  2  0
 19 20  1  0
 20 21  2  0
 20 22  1  0
 22 23  1  0
 23 24  1  0
 24 25  1  0
 25 26  1  0
 25 27  1  0
 27 28  1  0
 19 29  1  0
 29 30  2  0
 30 31  1  0
 15  2  1  0
 30 16  1  0
 10  5  2  0
 28 22  1  0
  1 32  1  0
  1 33  1  0
  4 34  1  0
 12 35  1  0
 14 36  1  0
 14 37  1  0
 14 38  1  0
 17 39  1  0
 18 40  1  0
 23 41  1  0
 23 42  1  0
 24 43  1  0
 24 44  1  0
 25 45  1  0
 26 46  1  0
 27 47  1  0
 27 48  1  0
 28 49  1  0
 28 50  1  0
 29 51  1  0
M  CHG  3   6  -1   9  -1  11  -1
M  END
>  <UniqueID>  (43) 
40

>  <SMILES>  (43) 
C=c1c(=Cc2[n-]c(=O)[n-]c2[O-])cc(C)n1-c1ccc(C(=O)N2CCC(O)CC2)cc1F

>  <Energy>  (43) 
135.65946700300148

>  <Genealogy>  (43) 
C=c1c(=Cc2[n-]c(=O)[n-]c2[O-])cc(C)n1-c1ccc(C(=O)N2CCC(O)CC2)cc1F (protonated)
C=c1c(=Cc2[n-]c(=O)[n-]c2[O-])cc(C)n1-c1ccc(C(=O)N2CCC(O)CC2)cc1F (3D coordinates assigned)
C=c1c(=Cc2[n-]c(=O)[n-]c2[O-])cc(C)n1-c1ccc(C(=O)N2CCC(O)CC2)cc1F (nonaromatic ring conformer: 135.65946700300148 kcal/mol)

>  <smiles>  (43) 
C=c1c(=Cc2[nH]c(=O)[nH]c2O)cc(C)n1-c1ccc(C(=O)N2CCC(O)CC2)cc1F

>  <score_type>  (43) 
oracle

>  <origin>  (43) 
adg

>  <m_score__min__energy>  (43) 
-15.609999999999999

>  <m_primary>  (43) 
energy

$$$$
43:0
     RDKit          3D

 34 36  0  0  0  0  0  0  0  0999 V2000
   59.2210   35.1690   47.0940 O   0  0  0  0  0  0  0  0  0  0  0  0
   59.6940   34.0170   46.9010 C   0  0  0  0  0  0  0  0  0  0  0  0
   61.1660   33.7880   47.0030 C   0  0  0  0  0  0  0  0  0  0  0  0
   61.5960   33.9640   48.4290 C   0  0  0  0  0  0  0  0  0  0  0  0
   62.8770   34.1210   48.8100 N   0  0  0  0  0  0  0  0  0  0  0  0
   62.8010   34.1360   50.1580 C   0  0  0  0  0  0  0  0  0  0  0  0
   63.8140   34.2750   50.8930 O   0  0  0  0  0  0  0  0  0  0  0  0
   61.5570   33.9830   50.6600 N   0  0  0  0  0  0  0  0  0  0  0  0
   60.8040   33.8680   49.5540 C   0  0  0  0  0  0  0  0  0  0  0  0
   59.4270   33.6670   49.5820 O   0  0  0  0  0  0  0  0  0  0  0  0
   58.8220   32.9050   46.6800 N   0  0  0  0  0  0  0  0  0  0  0  0
   58.9310   32.0470   45.5080 C   0  0  0  0  0  0  0  0  0  0  0  0
   58.4050   30.6800   45.8470 C   0  0  0  0  0  0  0  0  0  0  0  0
   57.3960   30.1030   45.0620 C   0  0  0  0  0  0  0  0  0  0  0  0
   56.9870   28.7870   45.2910 C   0  0  0  0  0  0  0  0  0  0  0  0
   57.5810   28.0230   46.3100 C   0  0  0  0  0  0  0  0  0  0  0  0
   57.1850   26.6160   46.5520 C   0  0  0  0  0  0  0  0  0  0  0  0
   58.0360   25.6680   46.9900 N   0  0  0  0  0  0  0  0  0  0  0  0
   57.2670   24.5610   47.0740 C   0  0  0  0  0  0  0  0  0  0  0  0
   57.7190   23.4480   47.4500 O   0  0  0  0  0  0  0  0  0  0  0  0
   55.9770   24.7430   46.7250 N   0  0  0  0  0  0  0  0  0  0  0  0
   55.9350   26.0450   46.4010 C   0  0  0  0  0  0  0  0  0  0  0  0
   54.7720   26.6950   46.0130 O   0  0  0  0  0  0  0  0  0  0  0  0
   58.5990   28.6010   47.0860 C   0  0  0  0  0  0  0  0  0  0  0  0
   59.0070   29.9180   46.8580 C   0  0  0  0  0  0  0  0  0  0  0  0
   61.4031   32.7665   46.6709 H   0  0  0  0  0  0  0  0  0  0  0  0
   61.6969   34.5104   46.3656 H   0  0  0  0  0  0  0  0  0  0  0  0
   58.8690   33.7150   48.7390 H   0  0  0  0  0  0  0  0  0  0  0  0
   58.3418   32.4740   44.6831 H   0  0  0  0  0  0  0  0  0  0  0  0
   59.9845   31.9724   45.2006 H   0  0  0  0  0  0  0  0  0  0  0  0
   56.9237   30.6905   44.2609 H   0  0  0  0  0  0  0  0  0  0  0  0
   56.1942   28.3456   44.6692 H   0  0  0  0  0  0  0  0  0  0  0  0
   59.0796   28.0115   47.8807 H   0  0  0  0  0  0  0  0  0  0  0  0
   59.8042   30.3587   47.4747 H   0  0  0  0  0  0  0  0  0  0  0  0
  1  2  2  0
  2  3  1  0
  3  4  1  0
  4  5  1  0
  5  6  1  0
  6  7  2  0
  6  8  1  0
  8  9  1  0
  9 10  1  0
  2 11  1  0
 11 12  1  0
 12 13  1  0
 13 14  2  0
 14 15  1  0
 15 16  2  0
 16 17  1  0
 17 18  1  0
 18 19  1  0
 19 20  2  0
 19 21  1  0
 21 22  1  0
 22 23  1  0
 16 24  1  0
 24 25  2  0
  9  4  2  0
 25 13  1  0
 22 17  2  0
  3 26  1  0
  3 27  1  0
 10 28  1  0
 12 29  1  0
 12 30  1  0
 14 31  1  0
 15 32  1  0
 24 33  1  0
 25 34  1  0
M  CHG  6   5  -1   8  -1  11  -1  18  -1  21  -1  23  -1
M  END
>  <UniqueID>  (44) 
41

>  <SMILES>  (44) 
O=C(Cc1[n-]c(=O)[n-]c1O)[N-]Cc1ccc(-c2[n-]c(=O)[n-]c2[O-])cc1

>  <Energy>  (44) 
92.19362657083536

>  <Genealogy>  (44) 
O=C(Cc1[n-]c(=O)[n-]c1O)[N-]Cc1ccc(-c2[n-]c(=O)[n-]c2[O-])cc1 (protonated)
O=C(Cc1[n-]c(=O)[n-]c1O)[N-]Cc1ccc(-c2[n-]c(=O)[n-]c2[O-])cc1 (3D coordinates assigned)
O=C(Cc1[n-]c(=O)[n-]c1O)[N-]Cc1ccc(-c2[n-]c(=O)[n-]c2[O-])cc1 (optimized conformer: 92.19362657083536 kcal/mol)

>  <smiles>  (44) 
O=C(Cc1[nH]c(=O)[nH]c1O)NCc1ccc(-c2[nH]c(=O)[nH]c2O)cc1

>  <score_type>  (44) 
oracle

>  <origin>  (44) 
adg

>  <m_score__min__energy>  (44) 
-16.91

>  <m_primary>  (44) 
energy

$$$$
44:0
     RDKit          3D

 35 36  0  0  0  0  0  0  0  0999 V2000
   56.6700   30.6310   42.6120 C   0  0  0  0  0  0  0  0  0  0  0  0
   56.9430   29.7220   44.1210 S   0  0  0  0  0  0  0  0  0  0  0  0
   57.5510   28.3940   43.7680 O   0  0  0  0  0  0  0  0  0  0  0  0
   55.6030   29.5070   44.7650 O   0  0  0  0  0  0  0  0  0  0  0  0
   58.0170   30.5790   45.2510 C   0  0  0  0  0  0  0  0  0  0  0  0
   57.8840   31.9710   45.3830 C   0  0  0  0  0  0  0  0  0  0  0  0
   58.6790   32.6830   46.2800 C   0  0  0  0  0  0  0  0  0  0  0  0
   58.4880   34.4200   46.4340 Cl  0  0  0  0  0  0  0  0  0  0  0  0
   59.6130   32.0150   47.0650 C   0  0  0  0  0  0  0  0  0  0  0  0
   59.7770   30.6330   46.9490 C   0  0  0  0  0  0  0  0  0  0  0  0
   60.9550   29.8610   48.0100 Cl  0  0  0  0  0  0  0  0  0  0  0  0
   59.0030   29.8970   46.0180 C   0  0  0  0  0  0  0  0  0  0  0  0
   59.1950   28.4010   45.9090 C   0  0  0  0  0  0  0  0  0  0  0  0
   58.0180   27.7240   46.4360 N   0  0  0  0  0  0  0  0  0  0  0  0
   58.0690   26.4240   47.0310 C   0  0  0  0  0  0  0  0  0  0  0  0
   58.9680   26.1530   47.8730 O   0  0  0  0  0  0  0  0  0  0  0  0
   57.1020   25.3880   46.6090 C   0  0  0  0  0  0  0  0  0  0  0  0
   57.4100   24.0380   46.8670 C   0  0  0  0  0  0  0  0  0  0  0  0
   56.5000   23.0260   46.5500 C   0  0  0  0  0  0  0  0  0  0  0  0
   56.9310   21.2030   46.9260 Br  0  0  0  0  0  0  0  0  0  0  0  0
   55.2720   23.3470   45.9720 C   0  0  0  0  0  0  0  0  0  0  0  0
   54.9590   24.6780   45.6920 C   0  0  0  0  0  0  0  0  0  0  0  0
   55.8680   25.7020   45.9860 C   0  0  0  0  0  0  0  0  0  0  0  0
   55.5230   27.0040   45.6130 O   0  0  0  0  0  0  0  0  0  0  0  0
   56.3613   31.6587   42.8538 H   0  0  0  0  0  0  0  0  0  0  0  0
   57.6003   30.6559   42.0255 H   0  0  0  0  0  0  0  0  0  0  0  0
   55.8799   30.1392   42.0255 H   0  0  0  0  0  0  0  0  0  0  0  0
   57.1432   32.5062   44.7708 H   0  0  0  0  0  0  0  0  0  0  0  0
   60.2269   32.5794   47.7824 H   0  0  0  0  0  0  0  0  0  0  0  0
   59.3358   28.1247   44.8536 H   0  0  0  0  0  0  0  0  0  0  0  0
   60.0818   28.1007   46.4865 H   0  0  0  0  0  0  0  0  0  0  0  0
   58.3767   23.7777   47.3227 H   0  0  0  0  0  0  0  0  0  0  0  0
   54.5501   22.5511   45.7368 H   0  0  0  0  0  0  0  0  0  0  0  0
   53.9890   24.9251   45.2360 H   0  0  0  0  0  0  0  0  0  0  0  0
   56.1790   27.6610   45.2130 H   0  0  0  0  0  0  0  0  0  0  0  0
  1  2  1  0
  2  3  2  0
  2  4  2  0
  2  5  1  0
  5  6  2  0
  6  7  1  0
  7  8  1  0
  7  9  2  0
  9 10  1  0
 10 11  1  0
 10 12  2  0
 12 13  1  0
 13 14  1  0
 14 15  1  0
 15 16  2  0
 15 17  1  0
 17 18  2  0
 18 19  1  0
 19 20  1  0
 19 21  2  0
 21 22  1  0
 22 23  2  0
 23 24  1  0
 12  5  1  0
 23 17  1  0
  1 25  1  0
  1 26  1  0
  1 27  1  0
  6 28  1  0
  9 29  1  0
 13 30  1  0
 13 31  1  0
 18 32  1  0
 21 33  1  0
 22 34  1  0
 24 35  1  0
M  CHG  1  14  -1
M  END
>  <UniqueID>  (45) 
42

>  <SMILES>  (45) 
CS(=O)(=O)c1cc(Cl)cc(Cl)c1C[N-]C(=O)c1cc(Br)ccc1O

>  <Energy>  (45) 
40.11412031076429

>  <Genealogy>  (45) 
CS(=O)(=O)c1cc(Cl)cc(Cl)c1C[N-]C(=O)c1cc(Br)ccc1O (protonated)
CS(=O)(=O)c1cc(Cl)cc(Cl)c1C[N-]C(=O)c1cc(Br)ccc1O (3D coordinates assigned)
CS(=O)(=O)c1cc(Cl)cc(Cl)c1C[N-]C(=O)c1cc(Br)ccc1O (optimized conformer: 40.11412031076429 kcal/mol)

>  <smiles>  (45) 
CS(=O)(=O)c1cc(Cl)cc(Cl)c1CNC(=O)c1cc(Br)ccc1O

>  <score_type>  (45) 
oracle

>  <origin>  (45) 
adg

>  <m_score__min__energy>  (45) 
-10.9

>  <m_primary>  (45) 
energy

$$$$
45:0
     RDKit          3D

 35 37  0  0  0  0  0  0  0  0999 V2000
   55.9674   30.8082   44.8647 H   0  0  0  0  0  0  0  0  0  0  0  0
   56.2810   29.7550   44.8150 C   0  0  0  0  0  0  0  0  0  0  0  0
   55.5686   28.9839   44.4865 H   0  0  0  0  0  0  0  0  0  0  0  0
   57.5320   29.4110   45.1550 C   0  0  0  0  0  0  0  0  0  0  0  0
   58.0760   28.1230   45.1440 C   0  0  0  0  0  0  0  0  0  0  0  0
   57.4530   26.9740   44.8160 C   0  0  0  0  0  0  0  0  0  0  0  0
   57.1552   26.8240   43.7677 H   0  0  0  0  0  0  0  0  0  0  0  0
   57.1480   25.9030   45.7910 C   0  0  0  0  0  0  0  0  0  0  0  0
   55.8590   25.7920   46.3330 C   0  0  0  0  0  0  0  0  0  0  0  0
   54.8660   26.7020   45.9900 O   0  0  0  0  0  0  0  0  0  0  0  0
   55.5740   24.7950   47.2090 N   0  0  0  0  0  0  0  0  0  0  0  0
   56.5150   23.8840   47.5650 C   0  0  0  0  0  0  0  0  0  0  0  0
   56.2290   22.9710   48.3820 O   0  0  0  0  0  0  0  0  0  0  0  0
   57.7630   23.9520   47.0340 N   0  0  0  0  0  0  0  0  0  0  0  0
   58.0980   24.9290   46.1530 C   0  0  0  0  0  0  0  0  0  0  0  0
   59.2550   24.9390   45.6550 O   0  0  0  0  0  0  0  0  0  0  0  0
   59.3880   28.2470   45.5870 C   0  0  0  0  0  0  0  0  0  0  0  0
   60.1185   27.4348   45.7163 H   0  0  0  0  0  0  0  0  0  0  0  0
   59.5940   29.5910   45.8330 C   0  0  0  0  0  0  0  0  0  0  0  0
   60.8650   30.1800   46.3650 C   0  0  0  0  0  0  0  0  0  0  0  0
   60.8419   30.1693   47.4647 H   0  0  0  0  0  0  0  0  0  0  0  0
   61.7207   29.5866   46.0104 H   0  0  0  0  0  0  0  0  0  0  0  0
   60.9654   31.2164   46.0104 H   0  0  0  0  0  0  0  0  0  0  0  0
   58.4710   30.2930   45.5750 N   0  0  0  0  0  0  0  0  0  0  0  0
   58.3150   31.7130   45.7430 C   0  0  0  0  0  0  0  0  0  0  0  0
   58.3620   32.2720   47.0290 C   0  0  0  0  0  0  0  0  0  0  0  0
   58.5460   31.4780   48.1130 F   0  0  0  0  0  0  0  0  0  0  0  0
   58.2140   33.6520   47.2000 C   0  0  0  0  0  0  0  0  0  0  0  0
   58.2519   34.0878   48.2093 H   0  0  0  0  0  0  0  0  0  0  0  0
   58.0180   34.4780   46.0900 C   0  0  0  0  0  0  0  0  0  0  0  0
   57.8998   35.5630   46.2267 H   0  0  0  0  0  0  0  0  0  0  0  0
   57.9720   33.9270   44.8060 C   0  0  0  0  0  0  0  0  0  0  0  0
   57.8183   34.5801   43.9343 H   0  0  0  0  0  0  0  0  0  0  0  0
   58.1210   32.5460   44.6260 C   0  0  0  0  0  0  0  0  0  0  0  0
   58.0790   31.8850   42.9990 Cl  0  0  0  0  0  0  0  0  0  0  0  0
  1  2  1  0
  2  3  1  0
  2  4  2  0
  4  5  1  0
  5  6  2  0
  6  7  1  0
  6  8  1  0
  8  9  2  0
  9 10  1  0
  9 11  1  0
 11 12  1  0
 12 13  2  0
 12 14  1  0
 14 15  1  0
 15 16  2  0
  5 17  1  0
 17 18  1  0
 17 19  2  0
 19 20  1  0
 20 21  1  0
 20 22  1  0
 20 23  1  0
 19 24  1  0
 24 25  1  0
 25 26  2  0
 26 27  1  0
 26 28  1  0
 28 29  1  0
 28 30  2  0
 30 31  1  0
 30 32  1  0
 32 33  1  0
 32 34  2  0
 34 35  1  0
 24  4  1  0
 34 25  1  0
 15  8  1  0
M  CHG  3  10  -1  11  -1  14  -1
M  END
>  <UniqueID>  (46) 
43

>  <SMILES>  (46) 
C=c1/c(=C/c2c([O-])[n-]c(=O)[n-]c2=O)cc(C)n1-c1c(F)cccc1Cl

>  <Energy>  (46) 
83.39223052408448

>  <Genealogy>  (46) 
C=c1c(=Cc2c([O-])[n-]c(=O)[n-]c2=O)cc(C)n1-c1c(F)cccc1Cl (protonated)
C=c1/c(=C/c2c([O-])[n-]c(=O)[n-]c2=O)cc(C)n1-c1c(F)cccc1Cl (cis-trans isomerization)
C=c1/c(=C/c2c([O-])[n-]c(=O)[n-]c2=O)cc(C)n1-c1c(F)cccc1Cl (3D coordinates assigned)
C=c1/c(=C/c2c([O-])[n-]c(=O)[n-]c2=O)cc(C)n1-c1c(F)cccc1Cl (optimized conformer: 83.39223052408448 kcal/mol)

>  <smiles>  (46) 
C=c1c(=Cc2c(O)[nH]c(=O)[nH]c2=O)cc(C)n1-c1c(F)cccc1Cl

>  <score_type>  (46) 
oracle

>  <origin>  (46) 
adg

>  <m_score__min__energy>  (46) 
-15.49

>  <m_primary>  (46) 
energy

$$$$
46:0
     RDKit          3D

 43 45  0  0  1  0  0  0  0  0999 V2000
   64.9200   32.9260   49.5970 C   0  0  0  0  0  0  0  0  0  0  0  0
   63.8230   33.0290   48.5800 C   0  0  0  0  0  0  0  0  0  0  0  0
   63.9410   33.3910   47.2430 C   0  0  0  0  0  0  0  0  0  0  0  0
   62.7310   33.3550   46.6930 N   0  0  0  0  0  0  0  0  0  0  0  0
   61.8250   32.9780   47.6390 C   0  0  0  0  0  0  0  0  0  0  0  0
   60.3750   32.8380   47.3570 C   0  0  1  0  0  0  0  0  0  0  0  0
   59.5760   32.8160   48.6630 C   0  0  0  0  0  0  0  0  0  0  0  0
   58.1960   32.3000   48.2440 C   0  0  0  0  0  0  0  0  0  0  0  0
   57.5660   33.3920   47.4140 C   0  0  0  0  0  0  0  0  0  0  0  0
   58.4280   33.6990   46.2900 N   0  0  0  0  0  0  0  0  0  0  0  0
   57.9620   33.7440   44.9490 C   0  0  0  0  0  0  0  0  0  0  0  0
   57.2200   34.6730   44.5090 O   0  0  0  0  0  0  0  0  0  0  0  0
   58.3320   32.6820   43.9840 C   0  0  0  0  0  0  0  0  0  0  0  0
   57.8470   31.3710   44.4250 C   0  0  0  0  0  0  0  0  0  0  0  0
   58.5250   30.5050   45.2410 C   0  0  0  0  0  0  0  0  0  0  0  0
   57.9660   29.2830   45.5950 C   0  0  0  0  0  0  0  0  0  0  0  0
   56.7230   28.8810   45.1550 C   0  0  0  0  0  0  0  0  0  0  0  0
   56.1510   27.6640   45.5010 O   0  0  0  0  0  0  0  0  0  0  0  0
   56.0360   29.7570   44.3300 C   0  0  0  0  0  0  0  0  0  0  0  0
   56.5910   30.9680   43.9780 C   0  0  0  0  0  0  0  0  0  0  0  0
   59.8280   33.9720   46.5520 C   0  0  0  0  0  0  0  0  0  0  0  0
   62.5140   32.7870   48.7690 N   0  0  0  0  0  0  0  0  0  0  0  0
   64.4879   32.9666   50.6078 H   0  0  0  0  0  0  0  0  0  0  0  0
   65.4545   31.9737   49.4647 H   0  0  0  0  0  0  0  0  0  0  0  0
   65.6224   33.7621   49.4647 H   0  0  0  0  0  0  0  0  0  0  0  0
   64.8750   33.6609   46.7284 H   0  0  0  0  0  0  0  0  0  0  0  0
   62.5480   33.5890   45.6850 H   0  0  0  0  0  0  0  0  0  0  0  0
   60.2750   31.8992   46.7926 H   0  0  0  0  0  0  0  0  0  0  0  0
   60.0411   32.1389   49.3946 H   0  0  0  0  0  0  0  0  0  0  0  0
   59.5301   33.8022   49.1481 H   0  0  0  0  0  0  0  0  0  0  0  0
   58.2984   31.3808   47.6486 H   0  0  0  0  0  0  0  0  0  0  0  0
   57.5775   32.0590   49.1211 H   0  0  0  0  0  0  0  0  0  0  0  0
   56.5869   33.0535   47.0441 H   0  0  0  0  0  0  0  0  0  0  0  0
   57.4319   34.2924   48.0315 H   0  0  0  0  0  0  0  0  0  0  0  0
   57.8895   32.9172   43.0048 H   0  0  0  0  0  0  0  0  0  0  0  0
   59.4291   32.6417   43.9149 H   0  0  0  0  0  0  0  0  0  0  0  0
   59.5208   30.7791   45.6195 H   0  0  0  0  0  0  0  0  0  0  0  0
   58.5374   28.6105   46.2517 H   0  0  0  0  0  0  0  0  0  0  0  0
   55.1510   27.5790   45.3420 H   0  0  0  0  0  0  0  0  0  0  0  0
   55.0395   29.4834   43.9530 H   0  0  0  0  0  0  0  0  0  0  0  0
   56.0215   31.6409   43.3201 H   0  0  0  0  0  0  0  0  0  0  0  0
   60.3766   34.0547   45.6022 H   0  0  0  0  0  0  0  0  0  0  0  0
   59.9372   34.9189   47.1010 H   0  0  0  0  0  0  0  0  0  0  0  0
  1  2  1  0
  2  3  2  0
  3  4  1  0
  4  5  1  0
  5  6  1  0
  6  7  1  0
  7  8  1  0
  8  9  1  0
  9 10  1  0
 10 11  1  0
 11 12  2  0
 11 13  1  0
 13 14  1  0
 14 15  2  0
 15 16  1  0
 16 17  2  0
 17 18  1  0
 17 19  1  0
 19 20  2  0
 10 21  1  0
  5 22  2  0
 22  2  1  0
 21  6  1  0
 20 14  1  0
  1 23  1  0
  1 24  1  0
  1 25  1  0
  3 26  1  0
  4 27  1  0
  6 28  1  6
  7 29  1  0
  7 30  1  0
  8 31  1  0
  8 32  1  0
  9 33  1  0
  9 34  1  0
 13 35  1  0
 13 36  1  0
 15 37  1  0
 16 38  1  0
 18 39  1  0
 19 40  1  0
 20 41  1  0
 21 42  1  0
 21 43  1  0
M  END
>  <smiles>  (47) 
Cc1c[nH]c(C2CCCN(C(=O)Cc3ccc(O)cc3)C2)n1

>  <score_type>  (47) 
oracle

>  <origin>  (47) 
adg

>  <m_score__min__energy>  (47) 
-8.3300000000000001

>  <m_primary>  (47) 
energy

$$$$
47:0
     RDKit          3D

 48 49  0  0  0  0  0  0  0  0999 V2000
   59.9560   29.7540   48.2170 C   0  0  0  0  0  0  0  0  0  0  0  0
   60.7100   29.7370   46.8990 C   0  0  0  0  0  0  0  0  0  0  0  0
   59.8670   29.2070   45.8800 O   0  0  0  0  0  0  0  0  0  0  0  0
   59.1830   27.9840   45.9610 C   0  0  0  0  0  0  0  0  0  0  0  0
   59.8170   26.8130   46.4220 C   0  0  0  0  0  0  0  0  0  0  0  0
   59.1100   25.6120   46.5080 C   0  0  0  0  0  0  0  0  0  0  0  0
   57.7650   25.5630   46.1390 C   0  0  0  0  0  0  0  0  0  0  0  0
   56.7990   23.9200   46.2660 Br  0  0  0  0  0  0  0  0  0  0  0  0
   57.1260   26.7160   45.6770 C   0  0  0  0  0  0  0  0  0  0  0  0
   57.8280   27.9270   45.5770 C   0  0  0  0  0  0  0  0  0  0  0  0
   56.9740   29.3620   44.9910 S   0  0  0  0  0  0  0  0  0  0  0  0
   55.5050   29.0750   44.8460 O   0  0  0  0  0  0  0  0  0  0  0  0
   57.1340   30.4700   45.9930 O   0  0  0  0  0  0  0  0  0  0  0  0
   57.6670   29.8750   43.4780 N   0  0  0  0  0  0  0  0  0  0  0  0
   56.8970   30.9620   42.8720 C   0  0  0  0  0  0  0  0  0  0  0  0
   57.7680   32.2100   42.7280 C   0  0  0  0  0  0  0  0  0  0  0  0
   58.0540   32.8130   44.0700 C   0  0  0  0  0  0  0  0  0  0  0  0
   57.5710   33.9430   44.3530 O   0  0  0  0  0  0  0  0  0  0  0  0
   58.7980   32.0680   45.0470 N   0  0  0  0  0  0  0  0  0  0  0  0
   59.3010   32.6210   46.2760 C   0  0  0  0  0  0  0  0  0  0  0  0
   58.4230   32.8110   47.3510 C   0  0  0  0  0  0  0  0  0  0  0  0
   58.8880   33.3310   48.5590 C   0  0  0  0  0  0  0  0  0  0  0  0
   60.2380   33.6510   48.7130 C   0  0  0  0  0  0  0  0  0  0  0  0
   61.1480   33.4430   47.6590 C   0  0  0  0  0  0  0  0  0  0  0  0
   62.5870   33.7710   47.8470 C   0  0  0  0  0  0  0  0  0  0  0  0
   63.6110   33.4810   46.7900 C   0  0  0  0  0  0  0  0  0  0  0  0
   62.9730   34.3060   48.9220 O   0  0  0  0  0  0  0  0  0  0  0  0
   60.6680   32.9160   46.4430 C   0  0  0  0  0  0  0  0  0  0  0  0
   60.6739   29.7378   49.0503 H   0  0  0  0  0  0  0  0  0  0  0  0
   59.3442   30.6662   48.2777 H   0  0  0  0  0  0  0  0  0  0  0  0
   59.3037   28.8703   48.2777 H   0  0  0  0  0  0  0  0  0  0  0  0
   61.0078   30.7620   46.6330 H   0  0  0  0  0  0  0  0  0  0  0  0
   61.6082   29.1096   46.9969 H   0  0  0  0  0  0  0  0  0  0  0  0
   60.8764   26.8453   46.7162 H   0  0  0  0  0  0  0  0  0  0  0  0
   59.6141   24.7027   46.8673 H   0  0  0  0  0  0  0  0  0  0  0  0
   56.0650   26.6744   45.3895 H   0  0  0  0  0  0  0  0  0  0  0  0
   56.5452   30.6479   41.8782 H   0  0  0  0  0  0  0  0  0  0  0  0
   56.0380   31.1966   43.5178 H   0  0  0  0  0  0  0  0  0  0  0  0
   58.7176   31.9342   42.2461 H   0  0  0  0  0  0  0  0  0  0  0  0
   57.2300   32.9485   42.1154 H   0  0  0  0  0  0  0  0  0  0  0  0
   58.9140   31.0400   44.8880 H   0  0  0  0  0  0  0  0  0  0  0  0
   57.3604   32.5485   47.2418 H   0  0  0  0  0  0  0  0  0  0  0  0
   58.1885   33.4894   49.3930 H   0  0  0  0  0  0  0  0  0  0  0  0
   60.5939   34.0693   49.6661 H   0  0  0  0  0  0  0  0  0  0  0  0
   64.5645   33.2110   47.2675 H   0  0  0  0  0  0  0  0  0  0  0  0
   63.2650   32.6455   46.1637 H   0  0  0  0  0  0  0  0  0  0  0  0
   63.7545   34.3738   46.1637 H   0  0  0  0  0  0  0  0  0  0  0  0
   61.3689   32.7331   45.6152 H   0  0  0  0  0  0  0  0  0  0  0  0
  1  2  1  0
  2  3  1  0
  3  4  1  0
  4  5  2  0
  5  6  1  0
  6  7  2  0
  7  8  1  0
  7  9  1  0
  9 10  2  0
 10 11  1  0
 11 12  2  0
 11 13  2  0
 11 14  1  0
 14 15  1  0
 15 16  1  0
 16 17  1  0
 17 18  2  0
 17 19  1  0
 19 20  1  0
 20 21  2  0
 21 22  1  0
 22 23  2  0
 23 24  1  0
 24 25  1  0
 25 26  1  0
 25 27  2  0
 24 28  2  0
 10  4  1  0
 28 20  1  0
  1 29  1  0
  1 30  1  0
  1 31  1  0
  2 32  1  0
  2 33  1  0
  5 34  1  0
  6 35  1  0
  9 36  1  0
 15 37  1  0
 15 38  1  0
 16 39  1  0
 16 40  1  0
 19 41  1  0
 21 42  1  0
 22 43  1  0
 23 44  1  0
 26 45  1  0
 26 46  1  0
 26 47  1  0
 28 48  1  0
M  CHG  1  14  -1
M  END
>  <UniqueID>  (48) 
44

>  <SMILES>  (48) 
CCOc1ccc(Br)cc1S(=O)(=O)[N-]CCC(=O)Nc1cccc(C(C)=O)c1

>  <Energy>  (48) 
43.88926179096058

>  <Genealogy>  (48) 
CCOc1ccc(Br)cc1S(=O)(=O)[N-]CCC(=O)Nc1cccc(C(C)=O)c1 (protonated)
CCOc1ccc(Br)cc1S(=O)(=O)[N-]CCC(=O)Nc1cccc(C(C)=O)c1 (3D coordinates assigned)
CCOc1ccc(Br)cc1S(=O)(=O)[N-]CCC(=O)Nc1cccc(C(C)=O)c1 (optimized conformer: 43.88926179096058 kcal/mol)

>  <smiles>  (48) 
CCOc1ccc(Br)cc1S(=O)(=O)NCCC(=O)Nc1cccc(C(C)=O)c1

>  <score_type>  (48) 
oracle

>  <origin>  (48) 
adg

>  <m_score__min__energy>  (48) 
-9.5999999999999996

>  <m_primary>  (48) 
energy

$$$$
48:0
     RDKit          3D

 60 64  0  0  0  0  0  0  0  0999 V2000
   55.2600   23.9370   46.0350 C   0  0  0  0  0  0  0  0  0  0  0  0
   55.5250   25.1610   45.6350 C   0  0  0  0  0  0  0  0  0  0  0  0
   56.7120   25.9160   46.0970 C   0  0  0  0  0  0  0  0  0  0  0  0
   57.1560   25.6010   47.2220 O   0  0  0  0  0  0  0  0  0  0  0  0
   57.3140   26.9290   45.3230 N   0  0  0  0  0  0  0  0  0  0  0  0
   58.4430   27.6930   45.6630 C   0  0  0  0  0  0  0  0  0  0  0  0
   59.2050   28.2170   44.6150 C   0  0  0  0  0  0  0  0  0  0  0  0
   60.3390   28.9580   44.8340 C   0  0  0  0  0  0  0  0  0  0  0  0
   60.7480   29.1980   46.1290 C   0  0  0  0  0  0  0  0  0  0  0  0
   60.0330   28.7050   47.2000 C   0  0  0  0  0  0  0  0  0  0  0  0
   60.5020   28.9640   48.5660 C   0  0  0  0  0  0  0  0  0  0  0  0
   61.1600   30.1440   48.7780 N   0  0  0  0  0  0  0  0  0  0  0  0
   61.6130   30.4060   50.0140 C   0  0  0  0  0  0  0  0  0  0  0  0
   61.4380   29.5360   51.0580 C   0  0  0  0  0  0  0  0  0  0  0  0
   61.9980   30.0690   52.1540 N   0  0  0  0  0  0  0  0  0  0  0  0
   62.5070   31.2370   51.8050 N   0  0  0  0  0  0  0  0  0  0  0  0
   62.2890   31.4760   50.5010 N   0  0  0  0  0  0  0  0  0  0  0  0
   62.7280   32.6740   49.8150 C   0  0  0  0  0  0  0  0  0  0  0  0
   61.7460   32.9830   48.7410 C   0  0  0  0  0  0  0  0  0  0  0  0
   60.4070   33.2190   48.9900 C   0  0  0  0  0  0  0  0  0  0  0  0
   59.5240   33.5100   47.9440 C   0  0  0  0  0  0  0  0  0  0  0  0
   60.0300   33.5540   46.6660 C   0  0  0  0  0  0  0  0  0  0  0  0
   59.2310   33.8410   45.4840 C   0  0  0  0  0  0  0  0  0  0  0  0
   59.2380   35.0000   45.0080 O   0  0  0  0  0  0  0  0  0  0  0  0
   58.4630   32.8120   44.8920 N   0  0  0  0  0  0  0  0  0  0  0  0
   58.4010   31.4540   45.4030 C   0  0  0  0  0  0  0  0  0  0  0  0
   57.1740   30.7490   44.8610 C   0  0  0  0  0  0  0  0  0  0  0  0
   57.2380   30.7340   43.3720 C   0  0  0  0  0  0  0  0  0  0  0  0
   56.7810   29.8090   42.7530 O   0  0  0  0  0  0  0  0  0  0  0  0
   57.8860   31.9060   42.7120 C   0  0  0  0  0  0  0  0  0  0  0  0
   57.6820   33.0790   43.6840 C   0  0  0  0  0  0  0  0  0  0  0  0
   61.3890   33.3130   46.4280 C   0  0  0  0  0  0  0  0  0  0  0  0
   62.2670   33.0270   47.4460 C   0  0  0  0  0  0  0  0  0  0  0  0
   60.7750   28.3490   50.8400 C   0  0  0  0  0  0  0  0  0  0  0  0
   60.5920   27.5180   51.7790 O   0  0  0  0  0  0  0  0  0  0  0  0
   60.3210   28.0990   49.5770 N   0  0  0  0  0  0  0  0  0  0  0  0
   58.9020   27.9680   46.9240 C   0  0  0  0  0  0  0  0  0  0  0  0
   54.3645   23.4183   45.6622 H   0  0  0  0  0  0  0  0  0  0  0  0
   55.9338   23.4316   46.7425 H   0  0  0  0  0  0  0  0  0  0  0  0
   54.8358   25.6447   44.9272 H   0  0  0  0  0  0  0  0  0  0  0  0
   56.8500   27.1180   44.3840 H   0  0  0  0  0  0  0  0  0  0  0  0
   58.8848   28.0290   43.5796 H   0  0  0  0  0  0  0  0  0  0  0  0
   60.9155   29.3562   43.9860 H   0  0  0  0  0  0  0  0  0  0  0  0
   61.6568   29.7907   46.3100 H   0  0  0  0  0  0  0  0  0  0  0  0
   62.7784   33.5123   50.5255 H   0  0  0  0  0  0  0  0  0  0  0  0
   63.7272   32.5185   49.3820 H   0  0  0  0  0  0  0  0  0  0  0  0
   60.0309   33.1776   50.0229 H   0  0  0  0  0  0  0  0  0  0  0  0
   58.4577   33.6978   48.1381 H   0  0  0  0  0  0  0  0  0  0  0  0
   59.3026   30.9064   45.0912 H   0  0  0  0  0  0  0  0  0  0  0  0
   58.3428   31.4849   46.5010 H   0  0  0  0  0  0  0  0  0  0  0  0
   57.1455   29.7163   45.2389 H   0  0  0  0  0  0  0  0  0  0  0  0
   56.2673   31.2794   45.1876 H   0  0  0  0  0  0  0  0  0  0  0  0
   58.9582   31.7166   42.5556 H   0  0  0  0  0  0  0  0  0  0  0  0
   57.4528   32.1120   41.7221 H   0  0  0  0  0  0  0  0  0  0  0  0
   58.0259   34.0137   43.2171 H   0  0  0  0  0  0  0  0  0  0  0  0
   56.6163   33.1834   43.9356 H   0  0  0  0  0  0  0  0  0  0  0  0
   61.7650   33.3539   45.3951 H   0  0  0  0  0  0  0  0  0  0  0  0
   63.3332   32.8409   47.2494 H   0  0  0  0  0  0  0  0  0  0  0  0
   59.8320   27.2070   49.4510 H   0  0  0  0  0  0  0  0  0  0  0  0
   58.3279   27.5731   47.7752 H   0  0  0  0  0  0  0  0  0  0  0  0
  1  2  2  0
  2  3  1  0
  3  4  2  0
  3  5  1  0
  5  6  1  0
  6  7  2  0
  7  8  1  0
  8  9  2  0
  9 10  1  0
 10 11  1  0
 11 12  2  0
 12 13  1  0
 13 14  2  0
 14 15  1  0
 15 16  2  0
 16 17  1  0
 17 18  1  0
 18 19  1  0
 19 20  2  0
 20 21  1  0
 21 22  2  0
 22 23  1  0
 23 24  2  0
 23 25  1  0
 25 26  1  0
 26 27  1  0
 27 28  1  0
 28 29  2  0
 28 30  1  0
 30 31  1  0
 22 32  1  0
 32 33  2  0
 14 34  1  0
 34 35  2  0
 34 36  1  0
 10 37  2  0
 37  6  1  0
 36 11  1  0
 17 13  1  0
 33 19  1  0
 31 25  1  0
  1 38  1  0
  1 39  1  0
  2 40  1  0
  5 41  1  0
  7 42  1  0
  8 43  1  0
  9 44  1  0
 18 45  1  0
 18 46  1  0
 20 47  1  0
 21 48  1  0
 26 49  1  0
 26 50  1  0
 27 51  1  0
 27 52  1  0
 30 53  1  0
 30 54  1  0
 31 55  1  0
 31 56  1  0
 32 57  1  0
 33 58  1  0
 36 59  1  0
 37 60  1  0
M  END
>  <smiles>  (49) 
C=CC(=O)Nc1cccc(-c2nc3c(nnn3Cc3ccc(C(=O)N4CCC(=O)CC4)cc3)c(=O)[nH]2)c1

>  <score_type>  (49) 
oracle

>  <origin>  (49) 
adg

>  <m_score__min__energy>  (49) 
-10.890000000000001

>  <m_primary>  (49) 
energy

$$$$
49:0
     RDKit          3D

 33 36  0  0  0  0  0  0  0  0999 V2000
   56.3620   24.7570   45.7960 O   0  0  0  0  0  0  0  0  0  0  0  0
   56.0620   25.9770   45.8850 C   0  0  0  0  0  0  0  0  0  0  0  0
   54.7420   26.3150   45.6360 O   0  0  0  0  0  0  0  0  0  0  0  0
   57.0900   26.9430   46.2380 C   0  0  0  0  0  0  0  0  0  0  0  0
   58.0940   26.5130   47.0820 C   0  0  0  0  0  0  0  0  0  0  0  0
   59.1120   27.3930   47.4580 C   0  0  0  0  0  0  0  0  0  0  0  0
   59.0720   28.6800   46.9620 C   0  0  0  0  0  0  0  0  0  0  0  0
   59.9310   29.6930   47.1810 N   0  0  0  0  0  0  0  0  0  0  0  0
   59.4570   30.7410   46.4750 C   0  0  0  0  0  0  0  0  0  0  0  0
   60.0260   32.1070   46.3660 C   0  0  0  0  0  0  0  0  0  0  0  0
   61.2130   32.2920   47.1950 C   0  0  0  0  0  0  0  0  0  0  0  0
   61.5870   31.6420   48.2530 N   0  0  0  0  0  0  0  0  0  0  0  0
   62.6670   31.8910   48.9200 C   0  0  0  0  0  0  0  0  0  0  0  0
   63.1700   31.2620   50.0680 C   0  0  0  0  0  0  0  0  0  0  0  0
   64.3480   31.6920   50.6180 C   0  0  0  0  0  0  0  0  0  0  0  0
   65.1140   32.7260   50.1260 C   0  0  0  0  0  0  0  0  0  0  0  0
   64.6290   33.3580   48.9910 C   0  0  0  0  0  0  0  0  0  0  0  0
   63.4680   32.9400   48.4440 C   0  0  0  0  0  0  0  0  0  0  0  0
   62.5190   33.4960   46.9870 S   0  0  0  0  0  0  0  0  0  0  0  0
   58.3160   30.3620   45.8310 N   0  0  0  0  0  0  0  0  0  0  0  0
   58.0530   29.0830   46.1170 C   0  0  0  0  0  0  0  0  0  0  0  0
   57.0330   28.2250   45.7310 C   0  0  0  0  0  0  0  0  0  0  0  0
   54.0440   26.3410   46.3870 H   0  0  0  0  0  0  0  0  0  0  0  0
   58.0926   25.4792   47.4579 H   0  0  0  0  0  0  0  0  0  0  0  0
   59.9211   27.0695   48.1293 H   0  0  0  0  0  0  0  0  0  0  0  0
   60.7960   29.7150   47.7650 H   0  0  0  0  0  0  0  0  0  0  0  0
   60.2979   32.2920   45.3163 H   0  0  0  0  0  0  0  0  0  0  0  0
   59.2611   32.8141   46.7195 H   0  0  0  0  0  0  0  0  0  0  0  0
   62.6202   30.4261   50.5251 H   0  0  0  0  0  0  0  0  0  0  0  0
   64.7091   31.1739   51.5186 H   0  0  0  0  0  0  0  0  0  0  0  0
   66.0554   33.0324   50.6055 H   0  0  0  0  0  0  0  0  0  0  0  0
   65.1857   34.1929   48.5403 H   0  0  0  0  0  0  0  0  0  0  0  0
   56.2247   28.5486   45.0588 H   0  0  0  0  0  0  0  0  0  0  0  0
  1  2  2  0
  2  3  1  0
  2  4  1  0
  4  5  2  0
  5  6  1  0
  6  7  2  0
  7  8  1  0
  8  9  1  0
  9 10  1  0
 10 11  1  0
 11 12  2  0
 12 13  1  0
 13 14  2  0
 14 15  1  0
 15 16  2  0
 16 17  1  0
 17 18  2  0
 18 19  1  0
  9 20  2  0
 20 21  1  0
 21 22  2  0
 22  4  1  0
 21  7  1  0
 19 11  1  0
 18 13  1  0
  3 23  1  0
  5 24  1  0
  6 25  1  0
  8 26  1  0
 10 27  1  0
 10 28  1  0
 14 29  1  0
 15 30  1  0
 16 31  1  0
 17 32  1  0
 22 33  1  0
M  END
>  <smiles>  (50) 
O=C(O)c1ccc2[nH]c(Cc3nc4ccccc4s3)nc2c1

>  <score_type>  (50) 
oracle

>  <origin>  (50) 
adg

>  <m_score__min__energy>  (50) 
-8.5399999999999991

>  <m_primary>  (50) 
energy

$$$$
50:0
     RDKit          3D

 59 62  0  0  0  0  0  0  0  0999 V2000
   62.2890   33.8870   46.5570 C   0  0  0  0  0  0  0  0  0  0  0  0
   61.1390   34.5980   47.0020 O   0  0  0  0  0  0  0  0  0  0  0  0
   60.0110   34.7900   46.1980 C   0  0  0  0  0  0  0  0  0  0  0  0
   59.6430   35.9620   45.8980 O   0  0  0  0  0  0  0  0  0  0  0  0
   59.2520   33.6200   45.7000 C   0  0  0  0  0  0  0  0  0  0  0  0
   58.8680   32.5940   46.5750 C   0  0  0  0  0  0  0  0  0  0  0  0
   58.1390   31.5000   46.1080 C   0  0  0  0  0  0  0  0  0  0  0  0
   57.7680   31.4130   44.7540 C   0  0  0  0  0  0  0  0  0  0  0  0
   57.0060   30.3010   44.2560 N   0  0  0  0  0  0  0  0  0  0  0  0
   56.3360   29.2950   45.0280 C   0  0  0  0  0  0  0  0  0  0  0  0
   55.1440   28.9800   44.7680 O   0  0  0  0  0  0  0  0  0  0  0  0
   57.0470   28.5520   46.0240 N   0  0  0  0  0  0  0  0  0  0  0  0
   57.5200   27.2010   45.9040 C   0  0  0  0  0  0  0  0  0  0  0  0
   56.7400   26.2050   45.2820 C   0  0  0  0  0  0  0  0  0  0  0  0
   57.2070   24.8910   45.1990 C   0  0  0  0  0  0  0  0  0  0  0  0
   58.4590   24.5590   45.7170 C   0  0  0  0  0  0  0  0  0  0  0  0
   59.2550   25.5420   46.3080 C   0  0  0  0  0  0  0  0  0  0  0  0
   58.8020   26.8700   46.3930 C   0  0  0  0  0  0  0  0  0  0  0  0
   59.6480   27.8740   46.9840 N   0  0  0  0  0  0  0  0  0  0  0  0
   60.1780   27.6880   48.3400 C   0  0  0  0  0  0  0  0  0  0  0  0
   60.0980   29.0050   49.1170 C   0  0  0  0  0  0  0  0  0  0  0  0
   60.6350   30.1330   48.3340 N   0  0  0  0  0  0  0  0  0  0  0  0
   60.8590   31.4050   48.9760 C   0  0  0  0  0  0  0  0  0  0  0  0
   59.7790   32.1440   49.4940 C   0  0  0  0  0  0  0  0  0  0  0  0
   59.9980   33.3730   50.1220 C   0  0  0  0  0  0  0  0  0  0  0  0
   61.2960   33.8820   50.2370 C   0  0  0  0  0  0  0  0  0  0  0  0
   62.3760   33.1600   49.7210 C   0  0  0  0  0  0  0  0  0  0  0  0
   62.1620   31.9290   49.0940 C   0  0  0  0  0  0  0  0  0  0  0  0
   61.0420   29.9290   46.9360 C   0  0  0  0  0  0  0  0  0  0  0  0
   60.0070   29.0670   46.2040 C   0  0  0  0  0  0  0  0  0  0  0  0
   58.1980   32.4100   43.8560 C   0  0  0  0  0  0  0  0  0  0  0  0
   57.8320   32.3390   42.3950 C   0  0  0  0  0  0  0  0  0  0  0  0
   58.9150   33.5170   44.3380 C   0  0  0  0  0  0  0  0  0  0  0  0
   62.8610   33.5333   47.4275 H   0  0  0  0  0  0  0  0  0  0  0  0
   61.9750   33.0252   45.9498 H   0  0  0  0  0  0  0  0  0  0  0  0
   62.9197   34.5530   45.9498 H   0  0  0  0  0  0  0  0  0  0  0  0
   59.1437   32.6521   47.6383 H   0  0  0  0  0  0  0  0  0  0  0  0
   57.8519   30.6986   46.8046 H   0  0  0  0  0  0  0  0  0  0  0  0
   55.7579   26.4640   44.8596 H   0  0  0  0  0  0  0  0  0  0  0  0
   56.5864   24.1167   44.7243 H   0  0  0  0  0  0  0  0  0  0  0  0
   58.8195   23.5213   45.6597 H   0  0  0  0  0  0  0  0  0  0  0  0
   60.2436   25.2754   46.7100 H   0  0  0  0  0  0  0  0  0  0  0  0
   59.5860   26.9209   48.8608 H   0  0  0  0  0  0  0  0  0  0  0  0
   61.2286   27.3683   48.2771 H   0  0  0  0  0  0  0  0  0  0  0  0
   59.0457   29.2106   49.3629 H   0  0  0  0  0  0  0  0  0  0  0  0
   60.7030   28.9021   50.0299 H   0  0  0  0  0  0  0  0  0  0  0  0
   58.7554   31.7514   49.4039 H   0  0  0  0  0  0  0  0  0  0  0  0
   59.1478   33.9415   50.5269 H   0  0  0  0  0  0  0  0  0  0  0  0
   61.4665   34.8490   50.7328 H   0  0  0  0  0  0  0  0  0  0  0  0
   63.3964   33.5613   49.8085 H   0  0  0  0  0  0  0  0  0  0  0  0
   63.0161   31.3657   48.6901 H   0  0  0  0  0  0  0  0  0  0  0  0
   61.1220   30.9049   46.4347 H   0  0  0  0  0  0  0  0  0  0  0  0
   62.0149   29.4160   46.9165 H   0  0  0  0  0  0  0  0  0  0  0  0
   59.1011   29.6665   46.0312 H   0  0  0  0  0  0  0  0  0  0  0  0
   60.4465   28.7361   45.2515 H   0  0  0  0  0  0  0  0  0  0  0  0
   56.7565   32.1304   42.2962 H   0  0  0  0  0  0  0  0  0  0  0  0
   58.0652   33.2991   41.9115 H   0  0  0  0  0  0  0  0  0  0  0  0
   58.4073   31.5357   41.9115 H   0  0  0  0  0  0  0  0  0  0  0  0
   59.2169   34.3135   43.6420 H   0  0  0  0  0  0  0  0  0  0  0  0
  1  2  1  0
  2  3  1  0
  3  4  2  0
  3  5  1  0
  5  6  2  0
  6  7  1  0
  7  8  2  0
  8  9  1  0
  9 10  1  0
 10 11  2  0
 10 12  1  0
 12 13  1  0
 13 14  2  0
 14 15  1  0
 15 16  2  0
 16 17  1  0
 17 18  2  0
 18 19  1  0
 19 20  1  0
 20 21  1  0
 21 22  1  0
 22 23  1  0
 23 24  2  0
 24 25  1  0
 25 26  2  0
 26 27  1  0
 27 28  2  0
 22 29  1  0
 29 30  1  0
  8 31  1  0
 31 32  1  0
 31 33  2  0
 33  5  1  0
 18 13  1  0
 30 19  1  0
 28 23  1  0
  1 34  1  0
  1 35  1  0
  1 36  1  0
  6 37  1  0
  7 38  1  0
 14 39  1  0
 15 40  1  0
 16 41  1  0
 17 42  1  0
 20 43  1  0
 20 44  1  0
 21 45  1  0
 21 46  1  0
 24 47  1  0
 25 48  1  0
 26 49  1  0
 27 50  1  0
 28 51  1  0
 29 52  1  0
 29 53  1  0
 30 54  1  0
 30 55  1  0
 32 56  1  0
 32 57  1  0
 32 58  1  0
 33 59  1  0
M  CHG  2   9  -1  12  -1
M  END
>  <UniqueID>  (51) 
45

>  <SMILES>  (51) 
COC(=O)c1ccc([N-]C(=O)[N-]c2ccccc2N2CCN(c3ccccc3)CC2)c(C)c1

>  <Energy>  (51) 
76.11439362079264

>  <Genealogy>  (51) 
COC(=O)c1ccc([N-]C(=O)[N-]c2ccccc2N2CCN(c3ccccc3)CC2)c(C)c1 (protonated)
COC(=O)c1ccc([N-]C(=O)[N-]c2ccccc2N2CCN(c3ccccc3)CC2)c(C)c1 (3D coordinates assigned)
COC(=O)c1ccc([N-]C(=O)[N-]c2ccccc2N2CCN(c3ccccc3)CC2)c(C)c1 (nonaromatic ring conformer: 76.11439362079264 kcal/mol)

>  <smiles>  (51) 
COC(=O)c1ccc(NC(=O)Nc2ccccc2N2CCN(c3ccccc3)CC2)c(C)c1

>  <score_type>  (51) 
oracle

>  <origin>  (51) 
adg

>  <m_score__min__energy>  (51) 
-11.720000000000001

>  <m_primary>  (51) 
energy

$$$$
51:0
     RDKit          3D

 64 67  0  0  0  0  0  0  0  0999 V2000
   59.8320   29.9120   46.8380 C   0  0  0  0  0  0  0  0  0  0  0  0
   59.0830   30.8310   46.2050 C   0  0  0  0  0  0  0  0  0  0  0  0
   58.2780   30.6400   45.0690 C   0  0  0  0  0  0  0  0  0  0  0  0
   57.9420   29.5200   44.3980 C   0  0  0  0  0  0  0  0  0  0  0  0
   57.3970   28.2860   44.9980 C   0  0  0  0  0  0  0  0  0  0  0  0
   56.0230   28.1690   45.2500 C   0  0  0  0  0  0  0  0  0  0  0  0
   55.1450   29.1780   44.8680 O   0  0  0  0  0  0  0  0  0  0  0  0
   55.5380   27.0620   45.8650 N   0  0  0  0  0  0  0  0  0  0  0  0
   56.3670   26.0620   46.2660 C   0  0  0  0  0  0  0  0  0  0  0  0
   55.9000   25.0530   46.8510 O   0  0  0  0  0  0  0  0  0  0  0  0
   57.7050   26.1580   46.0490 N   0  0  0  0  0  0  0  0  0  0  0  0
   58.2360   27.2430   45.4290 C   0  0  0  0  0  0  0  0  0  0  0  0
   59.4820   27.3040   45.2540 O   0  0  0  0  0  0  0  0  0  0  0  0
   57.7950   31.8920   44.7210 C   0  0  0  0  0  0  0  0  0  0  0  0
   58.2800   32.7840   45.6530 C   0  0  0  0  0  0  0  0  0  0  0  0
   57.9320   34.2420   45.6990 C   0  0  0  0  0  0  0  0  0  0  0  0
   59.0510   32.1420   46.5580 N   0  0  0  0  0  0  0  0  0  0  0  0
   59.7300   32.7610   47.6640 C   0  0  0  0  0  0  0  0  0  0  0  0
   59.1160   32.8080   48.9240 C   0  0  0  0  0  0  0  0  0  0  0  0
   59.7900   33.3730   50.0140 C   0  0  0  0  0  0  0  0  0  0  0  0
   59.1770   33.3440   51.3490 C   0  0  0  0  0  0  0  0  0  0  0  0
   59.2390   34.3740   52.0750 O   0  0  0  0  0  0  0  0  0  0  0  0
   58.5080   32.1520   51.8230 N   0  0  0  0  0  0  0  0  0  0  0  0
   59.3270   30.9450   51.5510 C   0  0  0  0  0  0  0  0  0  0  0  0
   58.4840   29.6770   51.2910 C   0  0  0  0  0  0  0  0  0  0  0  0
   57.1950   29.6530   52.0280 N   0  0  0  0  0  0  0  0  0  0  0  0
   57.1400   28.9410   53.3490 C   0  0  0  0  0  0  0  0  0  0  0  0
   58.2960   27.9290   53.5020 C   0  0  0  0  0  0  0  0  0  0  0  0
   57.2110   29.9720   54.5080 C   0  0  0  0  0  0  0  0  0  0  0  0
   55.7950   28.1880   53.5190 C   0  0  0  0  0  0  0  0  0  0  0  0
   56.3920   30.9010   51.8970 C   0  0  0  0  0  0  0  0  0  0  0  0
   57.1630   32.0540   51.2320 C   0  0  0  0  0  0  0  0  0  0  0  0
   61.0770   33.9030   49.8410 C   0  0  0  0  0  0  0  0  0  0  0  0
   61.6800   33.8800   48.5800 C   0  0  0  0  0  0  0  0  0  0  0  0
   61.0060   33.3220   47.4890 C   0  0  0  0  0  0  0  0  0  0  0  0
   61.5970   33.3150   46.2670 F   0  0  0  0  0  0  0  0  0  0  0  0
   60.4196   30.1964   47.7233 H   0  0  0  0  0  0  0  0  0  0  0  0
   59.8574   28.8754   46.4708 H   0  0  0  0  0  0  0  0  0  0  0  0
   58.0866   29.5261   43.3076 H   0  0  0  0  0  0  0  0  0  0  0  0
   57.1476   32.1286   43.8638 H   0  0  0  0  0  0  0  0  0  0  0  0
   57.8543   34.5675   46.7469 H   0  0  0  0  0  0  0  0  0  0  0  0
   58.7168   34.8225   45.1919 H   0  0  0  0  0  0  0  0  0  0  0  0
   56.9696   34.4054   45.1919 H   0  0  0  0  0  0  0  0  0  0  0  0
   58.1030   32.4003   49.0565 H   0  0  0  0  0  0  0  0  0  0  0  0
   58.3950   32.2360   52.8610 H   0  0  0  0  0  0  0  0  0  0  0  0
   59.9487   31.1381   50.6644 H   0  0  0  0  0  0  0  0  0  0  0  0
   59.9319   30.7540   52.4496 H   0  0  0  0  0  0  0  0  0  0  0  0
   58.2688   29.6184   50.2138 H   0  0  0  0  0  0  0  0  0  0  0  0
   59.0741   28.8207   51.6495 H   0  0  0  0  0  0  0  0  0  0  0  0
   58.4932   27.7564   54.5703 H   0  0  0  0  0  0  0  0  0  0  0  0
   58.0176   26.9790   53.0223 H   0  0  0  0  0  0  0  0  0  0  0  0
   59.2008   28.3306   53.0223 H   0  0  0  0  0  0  0  0  0  0  0  0
   57.1746   29.4432   55.4719 H   0  0  0  0  0  0  0  0  0  0  0  0
   58.1504   30.5399   54.4366 H   0  0  0  0  0  0  0  0  0  0  0  0
   56.3583   30.6633   54.4366 H   0  0  0  0  0  0  0  0  0  0  0  0
   55.5762   28.0655   54.5900 H   0  0  0  0  0  0  0  0  0  0  0  0
   54.9886   28.7659   53.0438 H   0  0  0  0  0  0  0  0  0  0  0  0
   55.8661   27.1985   53.0438 H   0  0  0  0  0  0  0  0  0  0  0  0
   55.5013   30.6809   51.2902 H   0  0  0  0  0  0  0  0  0  0  0  0
   56.1303   31.2281   52.9141 H   0  0  0  0  0  0  0  0  0  0  0  0
   57.2502   31.8619   50.1524 H   0  0  0  0  0  0  0  0  0  0  0  0
   56.6220   32.9979   51.3946 H   0  0  0  0  0  0  0  0  0  0  0  0
   61.6123   34.3371   50.6983 H   0  0  0  0  0  0  0  0  0  0  0  0
   62.6870   34.3018   48.4456 H   0  0  0  0  0  0  0  0  0  0  0  0
  1  2  2  0
  2  3  1  0
  3  4  2  3
  4  5  1  0
  5  6  2  0
  6  7  1  0
  6  8  1  0
  8  9  1  0
  9 10  2  0
  9 11  1  0
 11 12  1  0
 12 13  2  0
  3 14  1  0
 14 15  2  0
 15 16  1  0
 15 17  1  0
 17 18  1  0
 18 19  2  0
 19 20  1  0
 20 21  1  0
 21 22  2  0
 21 23  1  0
 23 24  1  0
 24 25  1  0
 25 26  1  0
 26 27  1  0
 27 28  1  0
 27 29  1  0
 27 30  1  0
 26 31  1  0
 31 32  1  0
 20 33  2  0
 33 34  1  0
 34 35  2  0
 35 36  1  0
 17  2  1  0
 35 18  1  0
 12  5  1  0
 32 23  1  0
  1 37  1  0
  1 38  1  0
  4 39  1  0
 14 40  1  0
 16 41  1  0
 16 42  1  0
 16 43  1  0
 19 44  1  0
 23 45  1  0
 24 46  1  0
 24 47  1  0
 25 48  1  0
 25 49  1  0
 28 50  1  0
 28 51  1  0
 28 52  1  0
 29 53  1  0
 29 54  1  0
 29 55  1  0
 30 56  1  0
 30 57  1  0
 30 58  1  0
 31 59  1  0
 31 60  1  0
 32 61  1  0
 32 62  1  0
 33 63  1  0
 34 64  1  0
M  CHG  4   7  -1   8  -1  11  -1  23   1
M  END
>  <UniqueID>  (52) 
46

>  <SMILES>  (52) 
C=c1c(=Cc2c([O-])[n-]c(=O)[n-]c2=O)cc(C)n1-c1cc(C(=O)[NH+]2CCN(C(C)(C)C)CC2)ccc1F

>  <Energy>  (52) 
146.1430140052196

>  <Genealogy>  (52) 
C=c1c(=Cc2c([O-])[n-]c(=O)[n-]c2=O)cc(C)n1-c1cc(C(=O)[NH+]2CCN(C(C)(C)C)CC2)ccc1F (protonated)
C=c1c(=Cc2c([O-])[n-]c(=O)[n-]c2=O)cc(C)n1-c1cc(C(=O)[NH+]2CCN(C(C)(C)C)CC2)ccc1F (3D coordinates assigned)
C=c1c(=Cc2c([O-])[n-]c(=O)[n-]c2=O)cc(C)n1-c1cc(C(=O)[NH+]2CCN(C(C)(C)C)CC2)ccc1F (nonaromatic ring conformer: 146.1430140052196 kcal/mol)

>  <smiles>  (52) 
C=c1c(=Cc2c(O)[nH]c(=O)[nH]c2=O)cc(C)n1-c1cc(C(=O)N2CCN(C(C)(C)C)CC2)ccc1F

>  <score_type>  (52) 
oracle

>  <origin>  (52) 
adg

>  <m_score__min__energy>  (52) 
-16.420000000000002

>  <m_primary>  (52) 
energy

$$$$
52:0
     RDKit          3D

 41 44  0  0  0  0  0  0  0  0999 V2000
   59.0030   27.4390   46.4590 O   0  0  0  0  0  0  0  0  0  0  0  0
   58.3350   28.4800   46.7100 C   0  0  0  0  0  0  0  0  0  0  0  0
   58.2060   28.9590   48.0590 N   0  0  0  0  0  0  0  0  0  0  0  0
   58.5280   30.1330   48.5190 C   0  0  0  0  0  0  0  0  0  0  0  0
   58.8480   31.1510   47.6690 N   0  0  0  0  0  0  0  0  0  0  0  0
   59.2220   32.3780   48.1160 C   0  0  0  0  0  0  0  0  0  0  0  0
   59.3010   32.6280   49.4840 C   0  0  0  0  0  0  0  0  0  0  0  0
   58.9760   31.6130   50.3830 C   0  0  0  0  0  0  0  0  0  0  0  0
   58.5580   30.3620   49.9150 C   0  0  0  0  0  0  0  0  0  0  0  0
   58.2260   29.3500   50.8810 N   0  0  0  0  0  0  0  0  0  0  0  0
   57.7460   29.5490   52.2190 C   0  0  0  0  0  0  0  0  0  0  0  0
   58.5720   29.4980   53.1680 O   0  0  0  0  0  0  0  0  0  0  0  0
   56.3320   29.8620   52.5100 C   0  0  0  0  0  0  0  0  0  0  0  0
   55.3270   30.8510   51.5870 S   0  0  0  0  0  0  0  0  0  0  0  0
   53.9560   30.6790   52.5500 C   0  0  0  0  0  0  0  0  0  0  0  0
   52.6500   31.3020   52.2850 C   0  0  0  0  0  0  0  0  0  0  0  0
   51.5780   31.4110   53.1450 C   0  0  0  0  0  0  0  0  0  0  0  0
   50.5740   32.0450   52.5110 N   0  0  0  0  0  0  0  0  0  0  0  0
   50.9690   32.3410   51.2810 N   0  0  0  0  0  0  0  0  0  0  0  0
   52.2300   31.8990   51.1170 C   0  0  0  0  0  0  0  0  0  0  0  0
   54.2670   29.8490   53.6210 C   0  0  0  0  0  0  0  0  0  0  0  0
   55.5950   29.4000   53.5990 C   0  0  0  0  0  0  0  0  0  0  0  0
   56.1240   28.5560   54.5720 O   0  0  0  0  0  0  0  0  0  0  0  0
   57.7270   29.2430   45.5950 C   0  0  0  0  0  0  0  0  0  0  0  0
   58.4390   30.3090   45.0140 C   0  0  0  0  0  0  0  0  0  0  0  0
   57.8700   31.0690   43.9890 C   0  0  0  0  0  0  0  0  0  0  0  0
   56.5880   30.7720   43.5260 C   0  0  0  0  0  0  0  0  0  0  0  0
   55.8740   29.7100   44.0820 C   0  0  0  0  0  0  0  0  0  0  0  0
   56.4360   28.9390   45.1060 C   0  0  0  0  0  0  0  0  0  0  0  0
   55.7090   27.8680   45.6130 O   0  0  0  0  0  0  0  0  0  0  0  0
   59.4627   33.1749   47.3970 H   0  0  0  0  0  0  0  0  0  0  0  0
   59.6165   33.6157   49.8512 H   0  0  0  0  0  0  0  0  0  0  0  0
   59.0485   31.7963   51.4652 H   0  0  0  0  0  0  0  0  0  0  0  0
   51.5480   31.0404   54.1803 H   0  0  0  0  0  0  0  0  0  0  0  0
   52.8279   31.9985   50.1991 H   0  0  0  0  0  0  0  0  0  0  0  0
   53.5459   29.5731   54.4045 H   0  0  0  0  0  0  0  0  0  0  0  0
   57.1210   28.3950   54.6380 H   0  0  0  0  0  0  0  0  0  0  0  0
   59.4525   30.5459   45.3701 H   0  0  0  0  0  0  0  0  0  0  0  0
   58.4340   31.9032   43.5462 H   0  0  0  0  0  0  0  0  0  0  0  0
   56.1400   31.3751   42.7225 H   0  0  0  0  0  0  0  0  0  0  0  0
   54.8640   29.4775   43.7136 H   0  0  0  0  0  0  0  0  0  0  0  0
  1  2  2  0
  2  3  1  0
  3  4  2  3
  4  5  1  0
  5  6  1  0
  6  7  2  0
  7  8  1  0
  8  9  2  0
  9 10  1  0
 10 11  1  0
 11 12  2  0
 11 13  1  0
 13 14  1  0
 14 15  1  0
 15 16  1  0
 16 17  1  0
 17 18  2  0
 18 19  1  0
 19 20  1  0
 15 21  2  0
 21 22  1  0
 22 23  1  0
  2 24  1  0
 24 25  2  0
 25 26  1  0
 26 27  2  0
 27 28  1  0
 28 29  2  0
 29 30  1  0
  9  4  1  0
 22 13  2  0
 29 24  1  0
 20 16  2  0
  6 31  1  0
  7 32  1  0
  8 33  1  0
 17 34  1  0
 20 35  1  0
 21 36  1  0
 23 37  1  0
 25 38  1  0
 26 39  1  0
 27 40  1  0
 28 41  1  0
M  CHG  4   5  -1  10  -1  19  -1  30  -1
M  END
>  <UniqueID>  (53) 
47

>  <SMILES>  (53) 
O=C(N=c1[n-]cccc1[N-]C(=O)c1sc(-c2cn[n-]c2)cc1O)c1ccccc1[O-]

>  <Energy>  (53) 
112.66320792572665

>  <Genealogy>  (53) 
O=C(N=c1[n-]cccc1[N-]C(=O)c1sc(-c2cn[n-]c2)cc1O)c1ccccc1[O-] (protonated)
O=C(N=c1[n-]cccc1[N-]C(=O)c1sc(-c2cn[n-]c2)cc1O)c1ccccc1[O-] (3D coordinates assigned)
O=C(N=c1[n-]cccc1[N-]C(=O)c1sc(-c2cn[n-]c2)cc1O)c1ccccc1[O-] (optimized conformer: 112.66320792572665 kcal/mol)

>  <smiles>  (53) 
O=C(N=c1[nH]cccc1NC(=O)c1sc(-c2cn[nH]c2)cc1O)c1ccccc1O

>  <score_type>  (53) 
oracle

>  <origin>  (53) 
adg

>  <m_score__min__energy>  (53) 
-14.92

>  <m_primary>  (53) 
energy

$$$$
53:0
     RDKit          3D

 43 45  0  0  0  0  0  0  0  0999 V2000
   58.9960   25.7160   46.6460 H   0  0  0  0  0  0  0  0  0  0  0  0
   59.7490   26.2350   47.0860 O   0  0  0  0  0  0  0  0  0  0  0  0
   59.7510   27.6270   47.1180 C   0  0  0  0  0  0  0  0  0  0  0  0
   59.0950   28.3190   48.1460 C   0  0  0  0  0  0  0  0  0  0  0  0
   58.5726   27.7605   48.9366 H   0  0  0  0  0  0  0  0  0  0  0  0
   59.1030   29.7170   48.1690 C   0  0  0  0  0  0  0  0  0  0  0  0
   58.5800   30.2545   48.9737 H   0  0  0  0  0  0  0  0  0  0  0  0
   59.7760   30.4380   47.1690 C   0  0  0  0  0  0  0  0  0  0  0  0
   59.7650   31.9430   47.1740 C   0  0  0  0  0  0  0  0  0  0  0  0
   60.4614   32.3154   46.4083 H   0  0  0  0  0  0  0  0  0  0  0  0
   60.0750   32.3042   48.1657 H   0  0  0  0  0  0  0  0  0  0  0  0
   58.3810   32.4450   46.8750 C   0  0  0  0  0  0  0  0  0  0  0  0
   57.9770   33.5000   47.4300 O   0  0  0  0  0  0  0  0  0  0  0  0
   57.4620   31.6870   46.0790 N   0  0  0  0  0  0  0  0  0  0  0  0
   57.4250   31.6560   44.6440 C   0  0  0  0  0  0  0  0  0  0  0  0
   57.8390   32.7750   43.8990 C   0  0  0  0  0  0  0  0  0  0  0  0
   58.1740   33.6840   44.4201 H   0  0  0  0  0  0  0  0  0  0  0  0
   57.8280   32.7410   42.5040 C   0  0  0  0  0  0  0  0  0  0  0  0
   58.1573   33.6198   41.9302 H   0  0  0  0  0  0  0  0  0  0  0  0
   57.4000   31.5940   41.8370 C   0  0  0  0  0  0  0  0  0  0  0  0
   57.4073   31.5631   40.7375 H   0  0  0  0  0  0  0  0  0  0  0  0
   56.9620   30.4840   42.5630 C   0  0  0  0  0  0  0  0  0  0  0  0
   56.6276   29.5813   42.0307 H   0  0  0  0  0  0  0  0  0  0  0  0
   56.9450   30.5110   43.9680 C   0  0  0  0  0  0  0  0  0  0  0  0
   56.4730   29.3140   44.6990 C   0  0  0  0  0  0  0  0  0  0  0  0
   55.3200   29.3270   45.2140 O   0  0  0  0  0  0  0  0  0  0  0  0
   57.3270   28.1290   44.8910 C   0  0  0  0  0  0  0  0  0  0  0  0
   58.3420   27.9610   44.1600 O   0  0  0  0  0  0  0  0  0  0  0  0
   57.0120   27.2010   45.9440 N   0  0  0  0  0  0  0  0  0  0  0  0
   56.7860   25.9250   45.8210 C   0  0  0  0  0  0  0  0  0  0  0  0
   57.8110   25.0330   45.6890 N   0  0  0  0  0  0  0  0  0  0  0  0
   57.5930   23.6960   45.5650 C   0  0  0  0  0  0  0  0  0  0  0  0
   58.4444   23.0074   45.4600 H   0  0  0  0  0  0  0  0  0  0  0  0
   56.2900   23.1980   45.5710 C   0  0  0  0  0  0  0  0  0  0  0  0
   56.1075   22.1182   45.4680 H   0  0  0  0  0  0  0  0  0  0  0  0
   55.2200   24.0840   45.7090 C   0  0  0  0  0  0  0  0  0  0  0  0
   54.1880   23.7034   45.7240 H   0  0  0  0  0  0  0  0  0  0  0  0
   55.4620   25.4550   45.8280 C   0  0  0  0  0  0  0  0  0  0  0  0
   54.3940   26.3380   45.9510 O   0  0  0  0  0  0  0  0  0  0  0  0
   60.4230   29.7410   46.1350 C   0  0  0  0  0  0  0  0  0  0  0  0
   60.9412   30.2974   45.3401 H   0  0  0  0  0  0  0  0  0  0  0  0
   60.4110   28.3420   46.1120 C   0  0  0  0  0  0  0  0  0  0  0  0
   60.9218   27.8025   45.3008 H   0  0  0  0  0  0  0  0  0  0  0  0
  1  2  1  0
  2  3  1  0
  3  4  2  0
  4  5  1  0
  4  6  1  0
  6  7  1  0
  6  8  2  0
  8  9  1  0
  9 10  1  0
  9 11  1  0
  9 12  1  0
 12 13  2  0
 12 14  1  0
 14 15  1  0
 15 16  2  0
 16 17  1  0
 16 18  1  0
 18 19  1  0
 18 20  2  0
 20 21  1  0
 20 22  1  0
 22 23  1  0
 22 24  2  0
 24 25  1  0
 25 26  2  0
 25 27  1  0
 27 28  2  0
 27 29  1  0
 29 30  2  0
 30 31  1  0
 31 32  1  0
 32 33  1  0
 32 34  2  0
 34 35  1  0
 34 36  1  0
 36 37  1  0
 36 38  2  0
 38 39  1  0
  8 40  1  0
 40 41  1  0
 40 42  2  0
 42 43  1  0
 42  3  1  0
 24 15  1  0
 38 30  1  0
M  CHG  3  14  -1  31  -1  39  -1
M  END
>  <UniqueID>  (54) 
48

>  <SMILES>  (54) 
O=C(Cc1ccc(O)cc1)[N-]c1ccccc1C(=O)C(=O)/N=c1\[n-]cccc1[O-]

>  <Energy>  (54) 
58.58392719236301

>  <Genealogy>  (54) 
O=C(Cc1ccc(O)cc1)[N-]c1ccccc1C(=O)C(=O)N=c1[n-]cccc1[O-] (protonated)
O=C(Cc1ccc(O)cc1)[N-]c1ccccc1C(=O)C(=O)/N=c1\[n-]cccc1[O-] (cis-trans isomerization)
O=C(Cc1ccc(O)cc1)[N-]c1ccccc1C(=O)C(=O)/N=c1\[n-]cccc1[O-] (3D coordinates assigned)
O=C(Cc1ccc(O)cc1)[N-]c1ccccc1C(=O)C(=O)/N=c1\[n-]cccc1[O-] (optimized conformer: 58.58392719236301 kcal/mol)

>  <smiles>  (54) 
O=C(Cc1ccc(O)cc1)Nc1ccccc1C(=O)C(=O)N=c1[nH]cccc1O

>  <score_type>  (54) 
oracle

>  <origin>  (54) 
adg

>  <m_score__min__energy>  (54) 
-15.470000000000001

>  <m_primary>  (54) 
energy

$$$$
54:0
     RDKit          3D

 57 59  0  0  0  0  0  0  0  0999 V2000
   56.6470   32.9040   52.0200 O   0  0  0  0  0  0  0  0  0  0  0  0
   57.7390   32.8560   52.6480 C   0  0  0  0  0  0  0  0  0  0  0  0
   57.8970   31.9630   53.8420 C   0  0  0  0  0  0  0  0  0  0  0  0
   57.5310   30.5840   53.5240 N   0  0  0  0  0  0  0  0  0  0  0  0
   56.7760   30.1390   52.3880 C   0  0  0  0  0  0  0  0  0  0  0  0
   57.4030   29.6870   51.3950 O   0  0  0  0  0  0  0  0  0  0  0  0
   55.2980   30.1500   52.3470 C   0  0  0  0  0  0  0  0  0  0  0  0
   54.4930   29.1350   52.8340 C   0  0  0  0  0  0  0  0  0  0  0  0
   53.1950   29.5040   52.5480 C   0  0  0  0  0  0  0  0  0  0  0  0
   51.6250   28.5020   52.9680 Br  0  0  0  0  0  0  0  0  0  0  0  0
   53.2610   30.7140   51.8870 C   0  0  0  0  0  0  0  0  0  0  0  0
   51.7800   31.7020   51.1970 Br  0  0  0  0  0  0  0  0  0  0  0  0
   54.5420   31.1010   51.7600 N   0  0  0  0  0  0  0  0  0  0  0  0
   58.8460   33.6670   52.2390 N   0  0  0  0  0  0  0  0  0  0  0  0
   59.8370   33.2440   51.2560 C   0  0  0  0  0  0  0  0  0  0  0  0
   59.2860   33.4110   49.8330 C   0  0  0  0  0  0  0  0  0  0  0  0
   60.2040   34.2010   48.9310 C   0  0  0  0  0  0  0  0  0  0  0  0
   61.3320   34.5800   49.3460 O   0  0  0  0  0  0  0  0  0  0  0  0
   59.8140   34.5540   47.5970 N   0  0  0  0  0  0  0  0  0  0  0  0
   60.1240   33.7910   46.3870 C   0  0  2  0  0  0  0  0  0  0  0  0
   59.0760   34.0590   45.2910 C   0  0  0  0  0  0  0  0  0  0  0  0
   57.7040   33.4800   45.6640 C   0  0  0  0  0  0  0  0  0  0  0  0
   57.7730   31.9490   45.9070 C   0  0  1  0  0  0  0  0  0  0  0  0
   58.0930   31.2190   44.6360 N   0  0  0  0  0  0  0  0  0  0  0  0
   57.0380   31.3990   43.5990 C   0  0  0  0  0  0  0  0  0  0  0  0
   55.9840   30.2670   43.6130 C   0  0  0  0  0  0  0  0  0  0  0  0
   55.9060   29.6750   44.8910 O   0  0  0  0  0  0  0  0  0  0  0  0
   57.1060   28.9800   45.1800 C   0  0  0  0  0  0  0  0  0  0  0  0
   58.3730   29.7710   44.7780 C   0  0  0  0  0  0  0  0  0  0  0  0
   58.7960   31.7200   47.0550 C   0  0  0  0  0  0  0  0  0  0  0  0
   60.1850   32.2920   46.7210 C   0  0  0  0  0  0  0  0  0  0  0  0
   58.9458   31.9885   54.1727 H   0  0  0  0  0  0  0  0  0  0  0  0
   57.2299   32.3253   54.6381 H   0  0  0  0  0  0  0  0  0  0  0  0
   54.8220   28.2187   53.3460 H   0  0  0  0  0  0  0  0  0  0  0  0
   54.8700   31.9500   51.2520 H   0  0  0  0  0  0  0  0  0  0  0  0
   60.7431   33.8576   51.3679 H   0  0  0  0  0  0  0  0  0  0  0  0
   60.0751   32.1832   51.4237 H   0  0  0  0  0  0  0  0  0  0  0  0
   59.1391   32.4127   49.3951 H   0  0  0  0  0  0  0  0  0  0  0  0
   58.3417   33.9699   49.9105 H   0  0  0  0  0  0  0  0  0  0  0  0
   61.1041   34.1128   46.0051 H   0  0  0  0  0  0  0  0  0  0  0  0
   58.9780   35.1454   45.1494 H   0  0  0  0  0  0  0  0  0  0  0  0
   59.4146   33.5700   44.3657 H   0  0  0  0  0  0  0  0  0  0  0  0
   57.3477   33.9707   46.5817 H   0  0  0  0  0  0  0  0  0  0  0  0
   57.0156   33.6631   44.8258 H   0  0  0  0  0  0  0  0  0  0  0  0
   56.8026   31.5350   46.2184 H   0  0  0  0  0  0  0  0  0  0  0  0
   56.5276   32.3566   43.7795 H   0  0  0  0  0  0  0  0  0  0  0  0
   57.5325   31.3788   42.6166 H   0  0  0  0  0  0  0  0  0  0  0  0
   55.0016   30.6849   43.3479 H   0  0  0  0  0  0  0  0  0  0  0  0
   56.2806   29.4982   42.8843 H   0  0  0  0  0  0  0  0  0  0  0  0
   57.1447   28.7816   46.2613 H   0  0  0  0  0  0  0  0  0  0  0  0
   57.0979   28.0500   44.5925 H   0  0  0  0  0  0  0  0  0  0  0  0
   59.1415   29.6308   45.5525 H   0  0  0  0  0  0  0  0  0  0  0  0
   58.7197   29.3918   43.8054 H   0  0  0  0  0  0  0  0  0  0  0  0
   58.4213   32.2097   47.9659 H   0  0  0  0  0  0  0  0  0  0  0  0
   58.9041   30.6348   47.1984 H   0  0  0  0  0  0  0  0  0  0  0  0
   60.8466   32.1477   47.5879 H   0  0  0  0  0  0  0  0  0  0  0  0
   60.5677   31.7616   45.8366 H   0  0  0  0  0  0  0  0  0  0  0  0
  1  2  2  0
  2  3  1  0
  3  4  1  0
  4  5  1  0
  5  6  2  0
  5  7  1  0
  7  8  2  0
  8  9  1  0
  9 10  1  0
  9 11  2  0
 11 12  1  0
 11 13  1  0
  2 14  1  0
 14 15  1  0
 15 16  1  0
 16 17  1  0
 17 18  2  0
 17 19  1  0
 19 20  1  0
 20 21  1  0
 21 22  1  0
 22 23  1  0
 23 24  1  0
 24 25  1  0
 25 26  1  0
 26 27  1  0
 27 28  1  0
 28 29  1  0
 23 30  1  0
 30 31  1  0
 13  7  1  0
 31 20  1  0
 29 24  1  0
  3 32  1  0
  3 33  1  0
  8 34  1  0
 13 35  1  0
 15 36  1  0
 15 37  1  0
 16 38  1  0
 16 39  1  0
 20 40  1  6
 21 41  1  0
 21 42  1  0
 22 43  1  0
 22 44  1  0
 23 45  1  1
 25 46  1  0
 25 47  1  0
 26 48  1  0
 26 49  1  0
 28 50  1  0
 28 51  1  0
 29 52  1  0
 29 53  1  0
 30 54  1  0
 30 55  1  0
 31 56  1  0
 31 57  1  0
M  CHG  3   4  -1  14  -1  19  -1
M  END
>  <UniqueID>  (55) 
49

>  <SMILES>  (55) 
O=C(C[N-]C(=O)c1cc(Br)c(Br)[nH]1)[N-]CCC(=O)[N-]C1CCC(N2CCOCC2)CC1

>  <Energy>  (55) 
96.52148499352914

>  <Genealogy>  (55) 
O=C(C[N-]C(=O)c1cc(Br)c(Br)[nH]1)[N-]CCC(=O)[N-]C1CCC(N2CCOCC2)CC1 (protonated)
O=C(C[N-]C(=O)c1cc(Br)c(Br)[nH]1)[N-]CCC(=O)[N-]C1CCC(N2CCOCC2)CC1 (3D coordinates assigned)
O=C(C[N-]C(=O)c1cc(Br)c(Br)[nH]1)[N-]CCC(=O)[N-]C1CCC(N2CCOCC2)CC1 (nonaromatic ring conformer: 96.52148499352914 kcal/mol)

>  <smiles>  (55) 
O=C(CNC(=O)c1cc(Br)c(Br)[nH]1)NCCC(=O)NC1CCC(N2CCOCC2)CC1

>  <score_type>  (55) 
oracle

>  <origin>  (55) 
adg

>  <m_score__min__energy>  (55) 
-13.66

>  <m_primary>  (55) 
energy

$$$$
55:0
     RDKit          3D

 51 54  0  0  0  0  0  0  0  0999 V2000
   54.6780   27.0950   46.7000 H   0  0  0  0  0  0  0  0  0  0  0  0
   54.7630   26.3370   45.9850 N   0  0  0  0  0  0  0  0  0  0  0  0
   56.3150   25.6110   46.2050 S   0  0  0  0  0  0  0  0  0  0  0  0
   56.3780   24.9630   47.5600 O   0  0  0  0  0  0  0  0  0  0  0  0
   56.5290   24.5560   45.1580 O   0  0  0  0  0  0  0  0  0  0  0  0
   57.5640   26.8440   46.0690 C   0  0  0  0  0  0  0  0  0  0  0  0
   58.8700   26.5810   46.5040 C   0  0  0  0  0  0  0  0  0  0  0  0
   59.1199   25.5964   46.9260 H   0  0  0  0  0  0  0  0  0  0  0  0
   59.8550   27.5660   46.4030 C   0  0  0  0  0  0  0  0  0  0  0  0
   60.8798   27.3544   46.7420 H   0  0  0  0  0  0  0  0  0  0  0  0
   59.5410   28.8200   45.8720 C   0  0  0  0  0  0  0  0  0  0  0  0
   60.3216   29.5906   45.7895 H   0  0  0  0  0  0  0  0  0  0  0  0
   58.2330   29.1010   45.4430 C   0  0  0  0  0  0  0  0  0  0  0  0
   57.8920   30.4250   44.8880 C   0  0  0  0  0  0  0  0  0  0  0  0
   57.6830   30.6720   43.5750 N   0  0  0  0  0  0  0  0  0  0  0  0
   57.4000   31.9610   43.4990 N   0  0  0  0  0  0  0  0  0  0  0  0
   57.1770   32.4770   42.6190 H   0  0  0  0  0  0  0  0  0  0  0  0
   57.4420   32.4560   44.7470 C   0  0  0  0  0  0  0  0  0  0  0  0
   57.1080   34.1640   45.1740 S   0  0  0  0  0  0  0  0  0  0  0  0
   58.8390   34.7070   44.9630 C   0  0  0  0  0  0  0  0  0  0  0  0
   58.8548   35.7862   44.7506 H   0  0  0  0  0  0  0  0  0  0  0  0
   59.2849   34.1453   44.1290 H   0  0  0  0  0  0  0  0  0  0  0  0
   59.6400   34.4380   46.2070 C   0  0  0  0  0  0  0  0  0  0  0  0
   59.1440   34.8080   47.4670 C   0  0  0  0  0  0  0  0  0  0  0  0
   58.1485   35.2686   47.5497 H   0  0  0  0  0  0  0  0  0  0  0  0
   59.9090   34.5940   48.6170 C   0  0  0  0  0  0  0  0  0  0  0  0
   59.5125   34.8921   49.5988 H   0  0  0  0  0  0  0  0  0  0  0  0
   61.1810   34.0010   48.5300 C   0  0  0  0  0  0  0  0  0  0  0  0
   61.9980   33.7820   49.7460 C   0  0  0  0  0  0  0  0  0  0  0  0
   63.2060   34.1400   49.7690 O   0  0  0  0  0  0  0  0  0  0  0  0
   61.4520   33.0700   50.8630 N   0  0  0  0  0  0  0  0  0  0  0  0
   60.2060   32.8620   51.1990 C   0  0  0  0  0  0  0  0  0  0  0  0
   59.7310   33.5810   52.2540 N   0  0  0  0  0  0  0  0  0  0  0  0
   58.4450   33.5080   52.6820 C   0  0  0  0  0  0  0  0  0  0  0  0
   58.1172   34.1075   53.5441 H   0  0  0  0  0  0  0  0  0  0  0  0
   57.5430   32.6760   52.0310 C   0  0  0  0  0  0  0  0  0  0  0  0
   56.4906   32.6396   52.3489 H   0  0  0  0  0  0  0  0  0  0  0  0
   57.9860   31.8890   50.9720 C   0  0  0  0  0  0  0  0  0  0  0  0
   57.2778   31.2248   50.4550 H   0  0  0  0  0  0  0  0  0  0  0  0
   59.3290   31.9330   50.5550 C   0  0  0  0  0  0  0  0  0  0  0  0
   59.7590   30.9280   49.5150 C   0  0  0  0  0  0  0  0  0  0  0  0
   60.1447   30.0266   50.0136 H   0  0  0  0  0  0  0  0  0  0  0  0
   58.8972   30.6591   48.8866 H   0  0  0  0  0  0  0  0  0  0  0  0
   60.5486   31.3657   48.8866 H   0  0  0  0  0  0  0  0  0  0  0  0
   61.6740   33.6330   47.2640 C   0  0  0  0  0  0  0  0  0  0  0  0
   62.6676   33.1686   47.1791 H   0  0  0  0  0  0  0  0  0  0  0  0
   60.9110   33.8530   46.1140 C   0  0  0  0  0  0  0  0  0  0  0  0
   61.3099   33.5655   45.1300 H   0  0  0  0  0  0  0  0  0  0  0  0
   57.7470   31.5170   45.6090 O   0  0  0  0  0  0  0  0  0  0  0  0
   57.2480   28.1050   45.5450 C   0  0  0  0  0  0  0  0  0  0  0  0
   56.2213   28.3161   45.2113 H   0  0  0  0  0  0  0  0  0  0  0  0
  1  2  1  0
  2  3  1  0
  3  4  2  0
  3  5  2  0
  3  6  1  0
  6  7  2  0
  7  8  1  0
  7  9  1  0
  9 10  1  0
  9 11  2  0
 11 12  1  0
 11 13  1  0
 13 14  1  0
 14 15  2  0
 15 16  1  0
 16 17  1  0
 16 18  2  0
 18 19  1  0
 19 20  1  0
 20 21  1  0
 20 22  1  0
 20 23  1  0
 23 24  2  0
 24 25  1  0
 24 26  1  0
 26 27  1  0
 26 28  2  0
 28 29  1  0
 29 30  2  0
 29 31  1  0
 31 32  2  0
 32 33  1  0
 33 34  1  0
 34 35  1  0
 34 36  2  0
 36 37  1  0
 36 38  1  0
 38 39  1  0
 38 40  2  0
 40 41  1  0
 41 42  1  0
 41 43  1  0
 41 44  1  0
 28 45  1  0
 45 46  1  0
 45 47  2  0
 47 48  1  0
 18 49  1  0
 13 50  2  0
 50 51  1  0
 50  6  1  0
 49 14  1  0
 47 23  1  0
 40 32  1  0
M  CHG  3   2  -1  16   1  33  -1
M  END
>  <UniqueID>  (56) 
50

>  <SMILES>  (56) 
Cc1ccc[n-]/c1=N/C(=O)c1ccc(CSc2[nH+]nc(-c3cccc(S([NH-])(=O)=O)c3)o2)cc1

>  <Energy>  (56) 
103.76233174892802

>  <Genealogy>  (56) 
Cc1ccc[n-]c1=NC(=O)c1ccc(CSc2[nH+]nc(-c3cccc(S([NH-])(=O)=O)c3)o2)cc1 (protonated)
Cc1ccc[n-]/c1=N/C(=O)c1ccc(CSc2[nH+]nc(-c3cccc(S([NH-])(=O)=O)c3)o2)cc1 (cis-trans isomerization)
Cc1ccc[n-]/c1=N/C(=O)c1ccc(CSc2[nH+]nc(-c3cccc(S([NH-])(=O)=O)c3)o2)cc1 (3D coordinates assigned)
Cc1ccc[n-]/c1=N/C(=O)c1ccc(CSc2[nH+]nc(-c3cccc(S([NH-])(=O)=O)c3)o2)cc1 (optimized conformer: 103.76233174892802 kcal/mol)

>  <smiles>  (56) 
Cc1ccc[nH]c1=NC(=O)c1ccc(CSc2nnc(-c3cccc(S(N)(=O)=O)c3)o2)cc1

>  <score_type>  (56) 
oracle

>  <origin>  (56) 
adg

>  <m_score__min__energy>  (56) 
-13.529999999999999

>  <m_primary>  (56) 
energy

$$$$
56:0
     RDKit          3D

 38 38  0  0  0  0  0  0  0  0999 V2000
   57.0320   31.1910   42.5160 C   0  0  0  0  0  0  0  0  0  0  0  0
   56.7840   30.2960   43.7210 C   0  0  0  0  0  0  0  0  0  0  0  0
   56.7040   31.0950   44.8980 O   0  0  0  0  0  0  0  0  0  0  0  0
   57.6280   32.0950   45.2490 C   0  0  0  0  0  0  0  0  0  0  0  0
   57.4000   33.4540   44.9540 C   0  0  0  0  0  0  0  0  0  0  0  0
   58.3200   34.4260   45.3540 C   0  0  0  0  0  0  0  0  0  0  0  0
   59.4700   34.0580   46.0540 C   0  0  0  0  0  0  0  0  0  0  0  0
   59.7100   32.7140   46.3470 C   0  0  0  0  0  0  0  0  0  0  0  0
   58.8060   31.7270   45.9310 C   0  0  0  0  0  0  0  0  0  0  0  0
   59.0810   30.3140   46.2500 C   0  0  0  0  0  0  0  0  0  0  0  0
   59.1200   29.4690   45.3180 O   0  0  0  0  0  0  0  0  0  0  0  0
   59.3000   29.8750   47.5950 N   0  0  0  0  0  0  0  0  0  0  0  0
   60.0870   28.7010   47.9540 C   0  0  0  0  0  0  0  0  0  0  0  0
   59.3050   27.4690   47.6340 C   0  0  0  0  0  0  0  0  0  0  0  0
   59.7480   26.3430   47.9880 O   0  0  0  0  0  0  0  0  0  0  0  0
   58.0310   27.5750   46.9820 N   0  0  0  0  0  0  0  0  0  0  0  0
   57.1890   26.4030   46.7520 C   0  0  0  0  0  0  0  0  0  0  0  0
   55.9460   26.7860   45.9990 C   0  0  0  0  0  0  0  0  0  0  0  0
   55.9140   27.8830   45.3810 O   0  0  0  0  0  0  0  0  0  0  0  0
   54.7820   25.9510   45.9960 N   0  0  0  0  0  0  0  0  0  0  0  0
   54.7880   24.5390   45.6400 C   0  0  0  0  0  0  0  0  0  0  0  0
   57.3111   32.1983   42.8587 H   0  0  0  0  0  0  0  0  0  0  0  0
   57.8476   30.7711   41.9090 H   0  0  0  0  0  0  0  0  0  0  0  0
   56.1166   31.2507   41.9090 H   0  0  0  0  0  0  0  0  0  0  0  0
   55.8391   29.7498   43.5837 H   0  0  0  0  0  0  0  0  0  0  0  0
   57.6115   29.5781   43.8209 H   0  0  0  0  0  0  0  0  0  0  0  0
   56.4934   33.7507   44.4062 H   0  0  0  0  0  0  0  0  0  0  0  0
   58.1376   35.4845   45.1166 H   0  0  0  0  0  0  0  0  0  0  0  0
   60.1878   34.8272   46.3751 H   0  0  0  0  0  0  0  0  0  0  0  0
   60.6128   32.4285   46.9069 H   0  0  0  0  0  0  0  0  0  0  0  0
   61.0268   28.6991   47.3823 H   0  0  0  0  0  0  0  0  0  0  0  0
   60.3162   28.7244   49.0296 H   0  0  0  0  0  0  0  0  0  0  0  0
   57.7010   28.5190   46.6790 H   0  0  0  0  0  0  0  0  0  0  0  0
   57.7527   25.6618   46.1665 H   0  0  0  0  0  0  0  0  0  0  0  0
   56.8986   25.9779   47.7241 H   0  0  0  0  0  0  0  0  0  0  0  0
   54.7906   23.9299   46.5560 H   0  0  0  0  0  0  0  0  0  0  0  0
   53.8908   24.3064   45.0475 H   0  0  0  0  0  0  0  0  0  0  0  0
   55.6871   24.3140   45.0475 H   0  0  0  0  0  0  0  0  0  0  0  0
  1  2  1  0
  2  3  1  0
  3  4  1  0
  4  5  2  0
  5  6  1  0
  6  7  2  0
  7  8  1  0
  8  9  2  0
  9 10  1  0
 10 11  2  0
 10 12  1  0
 12 13  1  0
 13 14  1  0
 14 15  2  0
 14 16  1  0
 16 17  1  0
 17 18  1  0
 18 19  2  0
 18 20  1  0
 20 21  1  0
  9  4  1  0
  1 22  1  0
  1 23  1  0
  1 24  1  0
  2 25  1  0
  2 26  1  0
  5 27  1  0
  6 28  1  0
  7 29  1  0
  8 30  1  0
 13 31  1  0
 13 32  1  0
 16 33  1  0
 17 34  1  0
 17 35  1  0
 21 36  1  0
 21 37  1  0
 21 38  1  0
M  CHG  2  12  -1  20  -1
M  END
>  <UniqueID>  (57) 
51

>  <SMILES>  (57) 
CCOc1ccccc1C(=O)[N-]CC(=O)NCC(=O)[N-]C

>  <Energy>  (57) 
29.045664280745658

>  <Genealogy>  (57) 
CCOc1ccccc1C(=O)[N-]CC(=O)NCC(=O)[N-]C (protonated)
CCOc1ccccc1C(=O)[N-]CC(=O)NCC(=O)[N-]C (3D coordinates assigned)
CCOc1ccccc1C(=O)[N-]CC(=O)NCC(=O)[N-]C (optimized conformer: 29.045664280745658 kcal/mol)

>  <smiles>  (57) 
CCOc1ccccc1C(=O)NCC(=O)NCC(=O)NC

>  <score_type>  (57) 
oracle

>  <origin>  (57) 
adg

>  <m_score__min__energy>  (57) 
-9.5

>  <m_primary>  (57) 
energy

$$$$
57:0
     RDKit          3D

 56 59  0  0  0  0  0  0  0  0999 V2000
   54.7570   26.7140   47.1220 H   0  0  0  0  0  0  0  0  0  0  0  0
   55.2450   26.5160   46.2590 O   0  0  0  0  0  0  0  0  0  0  0  0
   55.1630   25.2830   45.6090 C   0  0  0  0  0  0  0  0  0  0  0  0
   54.0680   24.5070   45.8230 N   0  0  0  0  0  0  0  0  0  0  0  0
   53.9270   23.3010   45.2180 C   0  0  0  0  0  0  0  0  0  0  0  0
   52.9000   22.6070   45.4320 O   0  0  0  0  0  0  0  0  0  0  0  0
   54.8930   22.8410   44.3850 N   0  0  0  0  0  0  0  0  0  0  0  0
   56.0110   23.5700   44.1360 C   0  0  0  0  0  0  0  0  0  0  0  0
   56.9000   23.0960   43.3790 O   0  0  0  0  0  0  0  0  0  0  0  0
   56.1730   24.8350   44.7340 C   0  0  0  0  0  0  0  0  0  0  0  0
   57.3950   25.6400   44.5090 C   0  0  0  0  0  0  0  0  0  0  0  0
   57.7648   25.7538   43.4793 H   0  0  0  0  0  0  0  0  0  0  0  0
   58.0760   26.2400   45.5050 C   0  0  0  0  0  0  0  0  0  0  0  0
   58.6410   25.6080   46.6050 C   0  0  0  0  0  0  0  0  0  0  0  0
   58.6023   24.5336   46.8375 H   0  0  0  0  0  0  0  0  0  0  0  0
   59.2610   26.5920   47.3500 C   0  0  0  0  0  0  0  0  0  0  0  0
   60.0140   26.3480   48.6210 C   0  0  0  0  0  0  0  0  0  0  0  0
   59.3609   26.5596   49.4805 H   0  0  0  0  0  0  0  0  0  0  0  0
   60.3403   25.2982   48.6581 H   0  0  0  0  0  0  0  0  0  0  0  0
   60.8940   27.0070   48.6581 H   0  0  0  0  0  0  0  0  0  0  0  0
   59.1190   27.7970   46.7520 N   0  0  0  0  0  0  0  0  0  0  0  0
   59.6350   29.0450   47.2460 C   0  0  0  0  0  0  0  0  0  0  0  0
   60.7930   29.6010   46.6860 C   0  0  0  0  0  0  0  0  0  0  0  0
   61.3035   29.0856   45.8591 H   0  0  0  0  0  0  0  0  0  0  0  0
   61.3020   30.8080   47.1740 C   0  0  0  0  0  0  0  0  0  0  0  0
   62.2048   31.2437   46.7210 H   0  0  0  0  0  0  0  0  0  0  0  0
   60.6670   31.4680   48.2400 C   0  0  0  0  0  0  0  0  0  0  0  0
   61.2040   32.7500   48.7450 C   0  0  0  0  0  0  0  0  0  0  0  0
   60.9310   33.8160   48.1280 O   0  0  0  0  0  0  0  0  0  0  0  0
   62.0470   32.8030   49.9130 N   0  0  0  0  0  0  0  0  0  0  0  0
   62.0150   33.9780   50.7930 C   0  0  0  0  0  0  0  0  0  0  0  0
   61.2264   34.6640   50.4503 H   0  0  0  0  0  0  0  0  0  0  0  0
   61.8110   33.6436   51.8209 H   0  0  0  0  0  0  0  0  0  0  0  0
   63.3660   34.7120   50.7720 C   0  0  0  0  0  0  0  0  0  0  0  0
   63.3644   35.4221   49.9319 H   0  0  0  0  0  0  0  0  0  0  0  0
   63.4768   35.2179   51.7425 H   0  0  0  0  0  0  0  0  0  0  0  0
   64.5820   33.7580   50.6090 C   0  0  0  0  0  0  0  0  0  0  0  0
   64.8516   33.7579   49.5425 H   0  0  0  0  0  0  0  0  0  0  0  0
   65.7890   34.2590   51.4100 C   0  0  0  0  0  0  0  0  0  0  0  0
   65.5772   34.1711   52.4858 H   0  0  0  0  0  0  0  0  0  0  0  0
   66.6723   33.6532   51.1595 H   0  0  0  0  0  0  0  0  0  0  0  0
   65.9837   35.3123   51.1595 H   0  0  0  0  0  0  0  0  0  0  0  0
   64.2320   32.3100   50.9970 C   0  0  0  0  0  0  0  0  0  0  0  0
   65.1192   31.6735   50.8640 H   0  0  0  0  0  0  0  0  0  0  0  0
   63.9085   32.2881   52.0481 H   0  0  0  0  0  0  0  0  0  0  0  0
   63.0920   31.7840   50.1100 C   0  0  0  0  0  0  0  0  0  0  0  0
   63.5035   31.5000   49.1302 H   0  0  0  0  0  0  0  0  0  0  0  0
   62.6377   30.9162   50.6105 H   0  0  0  0  0  0  0  0  0  0  0  0
   59.4970   30.9160   48.7870 C   0  0  0  0  0  0  0  0  0  0  0  0
   58.9777   31.4364   49.6052 H   0  0  0  0  0  0  0  0  0  0  0  0
   58.9890   29.7100   48.2980 C   0  0  0  0  0  0  0  0  0  0  0  0
   58.0781   29.2801   48.7402 H   0  0  0  0  0  0  0  0  0  0  0  0
   58.3960   27.5950   45.6210 C   0  0  0  0  0  0  0  0  0  0  0  0
   58.0780   28.5660   44.7490 C   0  0  0  0  0  0  0  0  0  0  0  0
   58.3848   29.6039   44.9456 H   0  0  0  0  0  0  0  0  0  0  0  0
   57.5107   28.3233   43.8383 H   0  0  0  0  0  0  0  0  0  0  0  0
  1  2  1  0
  2  3  1  0
  3  4  1  0
  4  5  1  0
  5  6  2  0
  5  7  1  0
  7  8  1  0
  8  9  2  0
  8 10  1  0
 10 11  1  0
 11 12  1  0
 11 13  2  0
 13 14  1  0
 14 15  1  0
 14 16  2  0
 16 17  1  0
 17 18  1  0
 17 19  1  0
 17 20  1  0
 16 21  1  0
 21 22  1  0
 22 23  2  0
 23 24  1  0
 23 25  1  0
 25 26  1  0
 25 27  2  0
 27 28  1  0
 28 29  2  0
 28 30  1  0
 30 31  1  0
 31 32  1  0
 31 33  1  0
 31 34  1  0
 34 35  1  0
 34 36  1  0
 34 37  1  0
 37 38  1  0
 37 39  1  0
 39 40  1  0
 39 41  1  0
 39 42  1  0
 37 43  1  0
 43 44  1  0
 43 45  1  0
 43 46  1  0
 46 47  1  0
 46 48  1  0
 27 49  1  0
 49 50  1  0
 49 51  2  0
 51 52  1  0
 21 53  1  0
 53 54  2  0
 54 55  1  0
 54 56  1  0
 10  3  2  0
 53 13  1  0
 51 22  1  0
 46 30  1  0
M  CHG  2   4  -1   7  -1
M  END
>  <UniqueID>  (58) 
52

>  <SMILES>  (58) 
C=c1/c(=C/c2c(O)[n-]c(=O)[n-]c2=O)cc(C)n1-c1ccc(C(=O)N2CCC(C)CC2)cc1

>  <Energy>  (58) 
109.87883162693143

>  <Genealogy>  (58) 
C=c1c(=Cc2c(O)[n-]c(=O)[n-]c2=O)cc(C)n1-c1ccc(C(=O)N2CCC(C)CC2)cc1 (protonated)
C=c1/c(=C/c2c(O)[n-]c(=O)[n-]c2=O)cc(C)n1-c1ccc(C(=O)N2CCC(C)CC2)cc1 (cis-trans isomerization)
C=c1/c(=C/c2c(O)[n-]c(=O)[n-]c2=O)cc(C)n1-c1ccc(C(=O)N2CCC(C)CC2)cc1 (3D coordinates assigned)
C=c1/c(=C/c2c(O)[n-]c(=O)[n-]c2=O)cc(C)n1-c1ccc(C(=O)N2CCC(C)CC2)cc1 (nonaromatic ring conformer: 109.87883162693143 kcal/mol)

>  <smiles>  (58) 
C=c1c(=Cc2c(O)[nH]c(=O)[nH]c2=O)cc(C)n1-c1ccc(C(=O)N2CCC(C)CC2)cc1

>  <score_type>  (58) 
oracle

>  <origin>  (58) 
adg

>  <m_score__min__energy>  (58) 
-14.039999999999999

>  <m_primary>  (58) 
energy

$$$$
58:0
     RDKit          3D

 53 56  0  0  0  0  0  0  0  0999 V2000
   55.5480   28.9810   44.5360 O   0  0  0  0  0  0  0  0  0  0  0  0
   56.7250   29.3380   44.8000 C   0  0  0  0  0  0  0  0  0  0  0  0
   57.7460   28.3330   44.8870 N   0  0  0  0  0  0  0  0  0  0  0  0
   58.6360   28.1040   45.9900 C   0  0  0  0  0  0  0  0  0  0  0  0
   58.8970   26.7880   46.3830 C   0  0  0  0  0  0  0  0  0  0  0  0
   59.7310   26.5280   47.4710 C   0  0  0  0  0  0  0  0  0  0  0  0
   60.3020   27.5820   48.1870 C   0  0  0  0  0  0  0  0  0  0  0  0
   60.0270   28.9110   47.8260 C   0  0  0  0  0  0  0  0  0  0  0  0
   60.6460   30.0310   48.5630 C   0  0  0  0  0  0  0  0  0  0  0  0
   61.7800   30.4460   48.2030 O   0  0  0  0  0  0  0  0  0  0  0  0
   59.9840   30.6580   49.6760 N   0  0  0  0  0  0  0  0  0  0  0  0
   60.6940   31.4330   50.6780 C   0  0  0  0  0  0  0  0  0  0  0  0
   59.6320   32.2600   51.3930 C   0  0  0  0  0  0  0  0  0  0  0  0
   58.2870   31.6400   51.0190 C   0  0  0  0  0  0  0  0  0  0  0  0
   58.5390   30.8160   49.7620 C   0  0  0  0  0  0  0  0  0  0  0  0
   59.1910   29.1680   46.7280 C   0  0  0  0  0  0  0  0  0  0  0  0
   57.0270   30.7790   44.9340 C   0  0  0  0  0  0  0  0  0  0  0  0
   56.0940   31.6220   44.8630 O   0  0  0  0  0  0  0  0  0  0  0  0
   58.3840   31.2110   45.1360 N   0  0  0  0  0  0  0  0  0  0  0  0
   58.7580   32.5600   45.4680 C   0  0  0  0  0  0  0  0  0  0  0  0
   58.7600   33.5810   44.5000 C   0  0  0  0  0  0  0  0  0  0  0  0
   59.1110   34.8870   44.8560 C   0  0  0  0  0  0  0  0  0  0  0  0
   59.4490   35.1890   46.1770 C   0  0  0  0  0  0  0  0  0  0  0  0
   59.4300   34.1870   47.1500 C   0  0  0  0  0  0  0  0  0  0  0  0
   59.8560   34.5750   48.8480 S   0  0  0  0  0  0  0  0  0  0  0  0
   61.5410   34.0040   48.6470 C   0  0  0  0  0  0  0  0  0  0  0  0
   62.0170   33.6370   47.3840 C   0  0  0  0  0  0  0  0  0  0  0  0
   63.3340   33.1890   47.2540 C   0  0  0  0  0  0  0  0  0  0  0  0
   64.1550   33.1050   48.3810 C   0  0  0  0  0  0  0  0  0  0  0  0
   63.6410   33.4750   49.6270 C   0  0  0  0  0  0  0  0  0  0  0  0
   62.3590   33.9170   49.7320 N   0  0  0  0  0  0  0  0  0  0  0  0
   59.0750   32.8790   46.7980 C   0  0  0  0  0  0  0  0  0  0  0  0
   58.4420   25.9523   45.8311 H   0  0  0  0  0  0  0  0  0  0  0  0
   59.9394   25.4889   47.7657 H   0  0  0  0  0  0  0  0  0  0  0  0
   60.9689   27.3708   49.0359 H   0  0  0  0  0  0  0  0  0  0  0  0
   61.2025   30.7654   51.3891 H   0  0  0  0  0  0  0  0  0  0  0  0
   61.4662   32.0713   50.2238 H   0  0  0  0  0  0  0  0  0  0  0  0
   59.7830   32.2156   52.4817 H   0  0  0  0  0  0  0  0  0  0  0  0
   59.6818   33.3185   51.0978 H   0  0  0  0  0  0  0  0  0  0  0  0
   57.9242   30.9947   51.8326 H   0  0  0  0  0  0  0  0  0  0  0  0
   57.5215   32.4113   50.8483 H   0  0  0  0  0  0  0  0  0  0  0  0
   58.0502   29.8339   49.8431 H   0  0  0  0  0  0  0  0  0  0  0  0
   58.1308   31.3074   48.8665 H   0  0  0  0  0  0  0  0  0  0  0  0
   58.9679   30.2065   46.4421 H   0  0  0  0  0  0  0  0  0  0  0  0
   59.1470   30.5500   44.8690 H   0  0  0  0  0  0  0  0  0  0  0  0
   58.4847   33.3513   43.4601 H   0  0  0  0  0  0  0  0  0  0  0  0
   59.1209   35.6792   44.0929 H   0  0  0  0  0  0  0  0  0  0  0  0
   59.7303   36.2164   46.4513 H   0  0  0  0  0  0  0  0  0  0  0  0
   61.3617   33.7004   46.5028 H   0  0  0  0  0  0  0  0  0  0  0  0
   63.7237   32.9029   46.2659 H   0  0  0  0  0  0  0  0  0  0  0  0
   65.1928   32.7522   48.2891 H   0  0  0  0  0  0  0  0  0  0  0  0
   64.2742   33.4086   50.5240 H   0  0  0  0  0  0  0  0  0  0  0  0
   59.0443   32.0954   47.5694 H   0  0  0  0  0  0  0  0  0  0  0  0
  1  2  2  0
  2  3  1  0
  3  4  1  0
  4  5  2  0
  5  6  1  0
  6  7  2  0
  7  8  1  0
  8  9  1  0
  9 10  2  0
  9 11  1  0
 11 12  1  0
 12 13  1  0
 13 14  1  0
 14 15  1  0
  8 16  2  0
  2 17  1  0
 17 18  2  0
 17 19  1  0
 19 20  1  0
 20 21  2  0
 21 22  1  0
 22 23  2  0
 23 24  1  0
 24 25  1  0
 25 26  1  0
 26 27  2  0
 27 28  1  0
 28 29  2  0
 29 30  1  0
 30 31  2  0
 24 32  2  0
 16  4  1  0
 32 20  1  0
 15 11  1  0
 31 26  1  0
  5 33  1  0
  6 34  1  0
  7 35  1  0
 12 36  1  0
 12 37  1  0
 13 38  1  0
 13 39  1  0
 14 40  1  0
 14 41  1  0
 15 42  1  0
 15 43  1  0
 16 44  1  0
 19 45  1  0
 21 46  1  0
 22 47  1  0
 23 48  1  0
 27 49  1  0
 28 50  1  0
 29 51  1  0
 30 52  1  0
 32 53  1  0
M  CHG  1   3  -1
M  END
>  <UniqueID>  (59) 
53

>  <SMILES>  (59) 
O=C([N-]c1cccc(C(=O)N2CCCC2)c1)C(=O)Nc1cccc(Sc2ccccn2)c1

>  <Energy>  (59) 
65.53520871798462

>  <Genealogy>  (59) 
O=C([N-]c1cccc(C(=O)N2CCCC2)c1)C(=O)Nc1cccc(Sc2ccccn2)c1 (protonated)
O=C([N-]c1cccc(C(=O)N2CCCC2)c1)C(=O)Nc1cccc(Sc2ccccn2)c1 (3D coordinates assigned)
O=C([N-]c1cccc(C(=O)N2CCCC2)c1)C(=O)Nc1cccc(Sc2ccccn2)c1 (nonaromatic ring conformer: 65.53520871798462 kcal/mol)

>  <smiles>  (59) 
O=C(Nc1cccc(Sc2ccccn2)c1)C(=O)Nc1cccc(C(=O)N2CCCC2)c1

>  <score_type>  (59) 
oracle

>  <origin>  (59) 
adg

>  <m_score__min__energy>  (59) 
-12.34

>  <m_primary>  (59) 
energy

$$$$
59:0
     RDKit          3D

 65 68  0  0  0  0  0  0  0  0999 V2000
   56.4990   30.3580   43.2780 C   0  0  0  0  0  0  0  0  0  0  0  0
   56.4090   31.0600   44.5130 O   0  0  0  0  0  0  0  0  0  0  0  0
   57.3830   31.9470   45.0010 C   0  0  0  0  0  0  0  0  0  0  0  0
   57.2290   33.3420   44.8880 C   0  0  0  0  0  0  0  0  0  0  0  0
   58.2120   34.2040   45.3680 C   0  0  0  0  0  0  0  0  0  0  0  0
   59.3790   33.6900   45.9490 C   0  0  0  0  0  0  0  0  0  0  0  0
   60.4410   34.5480   46.3960 N   0  0  0  0  0  0  0  0  0  0  0  0
   61.6860   34.1200   46.9660 C   0  0  0  0  0  0  0  0  0  0  0  0
   62.7360   34.2170   46.2770 O   0  0  0  0  0  0  0  0  0  0  0  0
   61.7700   33.5680   48.3390 C   0  0  0  0  0  0  0  0  0  0  0  0
   60.8530   34.0280   49.2810 C   0  0  0  0  0  0  0  0  0  0  0  0
   60.9800   33.6810   50.6270 C   0  0  0  0  0  0  0  0  0  0  0  0
   60.1220   34.1930   51.6170 O   0  0  0  0  0  0  0  0  0  0  0  0
   58.7800   33.7580   51.8460 C   0  0  0  0  0  0  0  0  0  0  0  0
   58.7060   32.2520   51.9170 C   0  0  0  0  0  0  0  0  0  0  0  0
   58.1980   31.5250   50.8250 C   0  0  0  0  0  0  0  0  0  0  0  0
   58.1400   30.1290   50.8720 C   0  0  0  0  0  0  0  0  0  0  0  0
   58.5760   29.4470   52.0100 C   0  0  0  0  0  0  0  0  0  0  0  0
   59.0660   30.1610   53.1070 C   0  0  0  0  0  0  0  0  0  0  0  0
   59.1270   31.5570   53.0680 C   0  0  0  0  0  0  0  0  0  0  0  0
   59.6110   32.2260   54.1470 F   0  0  0  0  0  0  0  0  0  0  0  0
   62.0140   32.8220   51.0080 C   0  0  0  0  0  0  0  0  0  0  0  0
   62.1070   32.4930   52.2230 O   0  0  0  0  0  0  0  0  0  0  0  0
   62.9200   32.3530   50.0850 N   0  0  0  0  0  0  0  0  0  0  0  0
   64.0190   31.4810   50.5430 C   0  0  0  0  0  0  0  0  0  0  0  0
   62.7830   32.6630   48.7460 C   0  0  0  0  0  0  0  0  0  0  0  0
   63.7050   32.0430   47.7130 C   0  0  0  0  0  0  0  0  0  0  0  0
   59.5130   32.3090   46.1120 C   0  0  0  0  0  0  0  0  0  0  0  0
   58.5370   31.4210   45.6240 C   0  0  0  0  0  0  0  0  0  0  0  0
   58.6880   29.6500   45.7800 S   0  0  0  0  0  0  0  0  0  0  0  0
   57.3150   29.0960   46.0420 O   0  0  0  0  0  0  0  0  0  0  0  0
   59.1640   29.1190   44.4550 O   0  0  0  0  0  0  0  0  0  0  0  0
   59.7730   29.0260   47.0040 N   0  0  0  0  0  0  0  0  0  0  0  0
   59.9760   29.9710   48.1130 C   0  0  0  0  0  0  0  0  0  0  0  0
   60.9220   29.3560   49.1480 C   0  0  0  0  0  0  0  0  0  0  0  0
   60.4170   28.1170   49.6090 O   0  0  0  0  0  0  0  0  0  0  0  0
   60.3690   27.1930   48.5380 C   0  0  0  0  0  0  0  0  0  0  0  0
   59.4020   27.6730   47.4480 C   0  0  0  0  0  0  0  0  0  0  0  0
   56.6366   29.2847   43.4755 H   0  0  0  0  0  0  0  0  0  0  0  0
   55.5741   30.5092   42.7020 H   0  0  0  0  0  0  0  0  0  0  0  0
   57.3558   30.7376   42.7020 H   0  0  0  0  0  0  0  0  0  0  0  0
   56.3247   33.7545   44.4167 H   0  0  0  0  0  0  0  0  0  0  0  0
   58.0718   35.2923   45.2907 H   0  0  0  0  0  0  0  0  0  0  0  0
   60.0201   34.6714   48.9609 H   0  0  0  0  0  0  0  0  0  0  0  0
   58.4215   34.1813   52.7959 H   0  0  0  0  0  0  0  0  0  0  0  0
   58.1521   34.1015   51.0107 H   0  0  0  0  0  0  0  0  0  0  0  0
   57.8447   32.0576   49.9297 H   0  0  0  0  0  0  0  0  0  0  0  0
   57.7501   29.5666   50.0108 H   0  0  0  0  0  0  0  0  0  0  0  0
   58.5338   28.3483   52.0430 H   0  0  0  0  0  0  0  0  0  0  0  0
   59.4049   29.6225   54.0043 H   0  0  0  0  0  0  0  0  0  0  0  0
   64.0399   31.4644   51.6427 H   0  0  0  0  0  0  0  0  0  0  0  0
   63.8599   30.4607   50.1639 H   0  0  0  0  0  0  0  0  0  0  0  0
   64.9764   31.8679   50.1639 H   0  0  0  0  0  0  0  0  0  0  0  0
   64.5138   31.4991   48.2229 H   0  0  0  0  0  0  0  0  0  0  0  0
   63.1337   31.3449   47.0836 H   0  0  0  0  0  0  0  0  0  0  0  0
   64.1360   32.8355   47.0836 H   0  0  0  0  0  0  0  0  0  0  0  0
   60.3967   31.9091   46.6308 H   0  0  0  0  0  0  0  0  0  0  0  0
   60.4144   30.9020   47.7245 H   0  0  0  0  0  0  0  0  0  0  0  0
   59.0080   30.1888   48.5880 H   0  0  0  0  0  0  0  0  0  0  0  0
   61.9077   29.1957   48.6868 H   0  0  0  0  0  0  0  0  0  0  0  0
   61.0092   30.0437   50.0021 H   0  0  0  0  0  0  0  0  0  0  0  0
   61.3755   27.0881   48.1067 H   0  0  0  0  0  0  0  0  0  0  0  0
   60.0148   26.2252   48.9226 H   0  0  0  0  0  0  0  0  0  0  0  0
   59.4474   26.9838   46.5919 H   0  0  0  0  0  0  0  0  0  0  0  0
   58.3809   27.6951   47.8564 H   0  0  0  0  0  0  0  0  0  0  0  0
  1  2  1  0
  2  3  1  0
  3  4  2  0
  4  5  1  0
  5  6  2  0
  6  7  1  0
  7  8  1  0
  8  9  2  0
  8 10  1  0
 10 11  1  0
 11 12  2  0
 12 13  1  0
 13 14  1  0
 14 15  1  0
 15 16  2  0
 16 17  1  0
 17 18  2  0
 18 19  1  0
 19 20  2  0
 20 21  1  0
 12 22  1  0
 22 23  2  0
 22 24  1  0
 24 25  1  0
 24 26  1  0
 26 27  1  0
  6 28  1  0
 28 29  2  0
 29 30  1  0
 30 31  2  0
 30 32  2  0
 30 33  1  0
 33 34  1  0
 34 35  1  0
 35 36  1  0
 36 37  1  0
 37 38  1  0
 29  3  1  0
 38 33  1  0
 26 10  2  0
 20 15  1  0
  1 39  1  0
  1 40  1  0
  1 41  1  0
  4 42  1  0
  5 43  1  0
 11 44  1  0
 14 45  1  0
 14 46  1  0
 16 47  1  0
 17 48  1  0
 18 49  1  0
 19 50  1  0
 25 51  1  0
 25 52  1  0
 25 53  1  0
 27 54  1  0
 27 55  1  0
 27 56  1  0
 28 57  1  0
 34 58  1  0
 34 59  1  0
 35 60  1  0
 35 61  1  0
 37 62  1  0
 37 63  1  0
 38 64  1  0
 38 65  1  0
M  CHG  1   7  -1
M  END
>  <UniqueID>  (60) 
54

>  <SMILES>  (60) 
COc1ccc([N-]C(=O)c2cc(OCc3ccccc3F)c(=O)n(C)c2C)cc1S(=O)(=O)N1CCOCC1

>  <Energy>  (60) 
90.33836071551985

>  <Genealogy>  (60) 
COc1ccc([N-]C(=O)c2cc(OCc3ccccc3F)c(=O)n(C)c2C)cc1S(=O)(=O)N1CCOCC1 (protonated)
COc1ccc([N-]C(=O)c2cc(OCc3ccccc3F)c(=O)n(C)c2C)cc1S(=O)(=O)N1CCOCC1 (3D coordinates assigned)
COc1ccc([N-]C(=O)c2cc(OCc3ccccc3F)c(=O)n(C)c2C)cc1S(=O)(=O)N1CCOCC1 (nonaromatic ring conformer: 90.33836071551985 kcal/mol)

>  <smiles>  (60) 
COc1ccc(NC(=O)c2cc(OCc3ccccc3F)c(=O)n(C)c2C)cc1S(=O)(=O)N1CCOCC1

>  <score_type>  (60) 
oracle

>  <origin>  (60) 
adg

>  <m_score__min__energy>  (60) 
-10.69

>  <m_primary>  (60) 
energy

$$$$
60:0
     RDKit          3D

 41 44  0  0  1  0  0  0  0  0999 V2000
   58.4040   30.9450   43.7160 N   0  0  0  0  0  0  0  0  0  0  0  0
   57.9660   31.1560   45.0570 C   0  0  0  0  0  0  0  0  0  0  0  0
   57.1440   30.4040   45.6180 O   0  0  0  0  0  0  0  0  0  0  0  0
   58.5130   32.3110   45.8010 C   0  0  0  0  0  0  0  0  0  0  0  0
   57.7140   33.4380   45.9410 C   0  0  0  0  0  0  0  0  0  0  0  0
   58.2030   34.5480   46.6390 C   0  0  0  0  0  0  0  0  0  0  0  0
   59.4810   34.4810   47.1710 C   0  0  0  0  0  0  0  0  0  0  0  0
   60.2720   33.3660   47.0330 C   0  0  0  0  0  0  0  0  0  0  0  0
   61.6100   33.2330   47.5810 C   0  0  0  0  0  0  0  0  0  0  0  0
   62.7030   32.9030   46.7730 C   0  0  0  0  0  0  0  0  0  0  0  0
   63.7950   32.8860   47.5930 N   0  0  0  0  0  0  0  0  0  0  0  0
   63.4430   33.1820   48.8420 C   0  0  0  0  0  0  0  0  0  0  0  0
   64.1630   33.2810   49.9770 N   0  0  0  0  0  0  0  0  0  0  0  0
   63.5180   33.5980   51.1170 C   0  0  0  0  0  0  0  0  0  0  0  0
   62.1860   33.8170   51.1520 N   0  0  0  0  0  0  0  0  0  0  0  0
   61.4440   33.7240   50.0340 C   0  0  0  0  0  0  0  0  0  0  0  0
   60.1790   33.9220   50.0700 N   0  0  0  0  0  0  0  0  0  0  0  0
   59.2780   32.9150   50.5230 C   0  0  0  0  0  0  0  0  0  0  0  0
   59.1320   31.7070   49.8770 C   0  0  0  0  0  0  0  0  0  0  0  0
   58.2490   30.7860   50.3670 C   0  0  0  0  0  0  0  0  0  0  0  0
   57.4820   31.0200   51.5030 C   0  0  0  0  0  0  0  0  0  0  0  0
   56.5940   30.0650   51.9760 O   0  0  0  0  0  0  0  0  0  0  0  0
   57.6200   32.2250   52.1590 C   0  0  0  0  0  0  0  0  0  0  0  0
   58.5180   33.1380   51.6450 C   0  0  0  0  0  0  0  0  0  0  0  0
   62.0830   33.4030   48.8610 C   0  0  0  0  0  0  0  0  0  0  0  0
   59.7760   32.2660   46.3360 C   0  0  0  0  0  0  0  0  0  0  0  0
   58.7170   30.0210   43.3590 H   0  0  0  0  0  0  0  0  0  0  0  0
   58.3880   31.8110   43.1020 H   0  0  0  0  0  0  0  0  0  0  0  0
   56.7037   33.4582   45.5063 H   0  0  0  0  0  0  0  0  0  0  0  0
   57.5880   35.4516   46.7624 H   0  0  0  0  0  0  0  0  0  0  0  0
   59.8747   35.3482   47.7214 H   0  0  0  0  0  0  0  0  0  0  0  0
   62.6863   32.6980   45.6924 H   0  0  0  0  0  0  0  0  0  0  0  0
   64.7350   32.6620   47.2120 H   0  0  0  0  0  0  0  0  0  0  0  0
   64.0955   33.6811   52.0495 H   0  0  0  0  0  0  0  0  0  0  0  0
   61.7500   34.0580   52.0700 H   0  0  0  0  0  0  0  0  0  0  0  0
   59.7209   31.4856   48.9747 H   0  0  0  0  0  0  0  0  0  0  0  0
   58.1412   29.8245   49.8436 H   0  0  0  0  0  0  0  0  0  0  0  0
   56.6660   29.1280   51.6030 H   0  0  0  0  0  0  0  0  0  0  0  0
   57.0338   32.4509   53.0619 H   0  0  0  0  0  0  0  0  0  0  0  0
   58.6318   34.1009   52.1644 H   0  0  0  0  0  0  0  0  0  0  0  0
   60.3947   31.3646   46.2150 H   0  0  0  0  0  0  0  0  0  0  0  0
  1  2  1  0
  2  3  2  0
  2  4  1  0
  4  5  2  0
  5  6  1  0
  6  7  2  0
  7  8  1  0
  8  9  1  0
  9 10  2  0
 10 11  1  0
 11 12  1  0
 12 13  1  0
 13 14  2  0
 14 15  1  0
 15 16  1  0
 16 17  2  0
 17 18  1  0
 18 19  2  0
 19 20  1  0
 20 21  2  0
 21 22  1  0
 21 23  1  0
 23 24  2  0
 16 25  1  0
  8 26  2  0
 26  4  1  0
 25  9  1  0
 25 12  2  0
 24 18  1  0
  1 27  1  0
  1 28  1  0
  5 29  1  0
  6 30  1  0
  7 31  1  0
 10 32  1  0
 11 33  1  0
 14 34  1  0
 15 35  1  0
 19 36  1  0
 20 37  1  0
 22 38  1  0
 23 39  1  0
 24 40  1  0
 26 41  1  0
M  END
>  <smiles>  (61) 
NC(=O)c1cccc(-c2c[nH]c3nc[nH]c(=Nc4ccc(O)cc4)c23)c1

>  <score_type>  (61) 
oracle

>  <origin>  (61) 
adg

>  <m_score__min__energy>  (61) 
-8.2599999999999998

>  <m_primary>  (61) 
energy

$$$$
61:0
     RDKit          3D

 55 59  0  0  0  0  0  0  0  0999 V2000
   59.8529   35.5050   46.0945 H   0  0  0  0  0  0  0  0  0  0  0  0
   59.1620   34.6680   46.2740 C   0  0  0  0  0  0  0  0  0  0  0  0
   58.5750   30.0950   45.5140 N   0  0  0  0  0  0  0  0  0  0  0  0
   59.1350   29.0260   46.1420 C   0  0  0  0  0  0  0  0  0  0  0  0
   60.3750   29.0660   46.5410 N   0  0  0  0  0  0  0  0  0  0  0  0
   56.8140   31.3350   44.3750 C   0  0  0  0  0  0  0  0  0  0  0  0
   56.5390   31.2730   43.1460 O   0  0  0  0  0  0  0  0  0  0  0  0
   57.2920   30.1130   45.0620 C   0  0  0  0  0  0  0  0  0  0  0  0
   58.2870   34.2250   45.3330 N   0  0  0  0  0  0  0  0  0  0  0  0
   57.5540   33.1840   45.7890 C   0  0  0  0  0  0  0  0  0  0  0  0
   56.6440   32.5670   45.0950 N   0  0  0  0  0  0  0  0  0  0  0  0
   61.0290   30.1360   47.2450 C   0  0  0  0  0  0  0  0  0  0  0  0
   62.0290   30.7280   46.7530 O   0  0  0  0  0  0  0  0  0  0  0  0
   60.5210   30.5460   48.5940 C   0  0  0  0  0  0  0  0  0  0  0  0
   60.9159   31.5426   48.8406 H   0  0  0  0  0  0  0  0  0  0  0  0
   59.4216   30.5665   48.5658 H   0  0  0  0  0  0  0  0  0  0  0  0
   60.9590   29.5660   49.6500 C   0  0  0  0  0  0  0  0  0  0  0  0
   61.8980   29.9450   50.6220 C   0  0  0  0  0  0  0  0  0  0  0  0
   62.3315   30.9558   50.6012 H   0  0  0  0  0  0  0  0  0  0  0  0
   62.2840   29.0410   51.6170 C   0  0  0  0  0  0  0  0  0  0  0  0
   63.0274   29.3390   52.3710 H   0  0  0  0  0  0  0  0  0  0  0  0
   61.7270   27.7600   51.6550 C   0  0  0  0  0  0  0  0  0  0  0  0
   62.1040   26.8830   52.6190 F   0  0  0  0  0  0  0  0  0  0  0  0
   60.7790   27.3810   50.6990 C   0  0  0  0  0  0  0  0  0  0  0  0
   60.3377   26.3739   50.7318 H   0  0  0  0  0  0  0  0  0  0  0  0
   60.3920   28.2810   49.7020 C   0  0  0  0  0  0  0  0  0  0  0  0
   59.6411   27.9826   48.9556 H   0  0  0  0  0  0  0  0  0  0  0  0
   58.3630   27.8650   46.3490 C   0  0  0  0  0  0  0  0  0  0  0  0
   58.8910   26.7260   46.9940 C   0  0  0  0  0  0  0  0  0  0  0  0
   59.9333   26.7318   47.3455 H   0  0  0  0  0  0  0  0  0  0  0  0
   58.1010   25.5930   47.1890 C   0  0  0  0  0  0  0  0  0  0  0  0
   58.5221   24.7107   47.6933 H   0  0  0  0  0  0  0  0  0  0  0  0
   56.7780   25.5760   46.7460 C   0  0  0  0  0  0  0  0  0  0  0  0
   56.1597   24.6794   46.9007 H   0  0  0  0  0  0  0  0  0  0  0  0
   56.2360   26.6930   46.1070 C   0  0  0  0  0  0  0  0  0  0  0  0
   55.1914   26.6720   45.7629 H   0  0  0  0  0  0  0  0  0  0  0  0
   57.0170   27.8460   45.9000 C   0  0  0  0  0  0  0  0  0  0  0  0
   56.4810   28.9760   45.2550 C   0  0  0  0  0  0  0  0  0  0  0  0
   55.1590   28.9620   44.8160 O   0  0  0  0  0  0  0  0  0  0  0  0
   57.9540   32.7650   47.3680 S   0  0  0  0  0  0  0  0  0  0  0  0
   59.1150   33.9790   47.4830 C   0  0  0  0  0  0  0  0  0  0  0  0
   59.9880   34.2320   48.6720 C   0  0  0  0  0  0  0  0  0  0  0  0
   59.9214   35.2937   48.9519 H   0  0  0  0  0  0  0  0  0  0  0  0
   59.6485   33.6006   49.5063 H   0  0  0  0  0  0  0  0  0  0  0  0
   61.4180   33.8920   48.3510 C   0  0  0  0  0  0  0  0  0  0  0  0
   62.3300   33.6050   49.3800 C   0  0  0  0  0  0  0  0  0  0  0  0
   62.0061   33.6572   50.4299 H   0  0  0  0  0  0  0  0  0  0  0  0
   63.6490   33.2530   49.0740 C   0  0  0  0  0  0  0  0  0  0  0  0
   64.3619   33.0381   49.8837 H   0  0  0  0  0  0  0  0  0  0  0  0
   64.0620   33.1740   47.7420 C   0  0  0  0  0  0  0  0  0  0  0  0
   65.0995   32.8969   47.5034 H   0  0  0  0  0  0  0  0  0  0  0  0
   63.1570   33.4470   46.7120 C   0  0  0  0  0  0  0  0  0  0  0  0
   63.4822   33.3809   45.6633 H   0  0  0  0  0  0  0  0  0  0  0  0
   61.8390   33.8040   47.0130 C   0  0  0  0  0  0  0  0  0  0  0  0
   61.1293   34.0167   46.1999 H   0  0  0  0  0  0  0  0  0  0  0  0
  1  2  1  0
  2  3  1  0
  3  4  1  0
  4  5  2  0
  5  6  1  0
  6  7  2  0
  6  8  1  0
  8  9  1  0
  9 10  1  0
 10 11  2  0
 11 12  1  0
 12 13  2  0
 12 14  1  0
 14 15  1  0
 14 16  1  0
 14 17  1  0
 17 18  2  0
 18 19  1  0
 18 20  1  0
 20 21  1  0
 20 22  2  0
 22 23  1  0
 22 24  1  0
 24 25  1  0
 24 26  2  0
 26 27  1  0
 10 28  1  0
 28 29  2  0
 29 30  1  0
 29 31  1  0
 31 32  1  0
 31 33  2  0
 33 34  1  0
 33 35  1  0
 35 36  1  0
 35 37  2  0
 37 38  1  0
 38 39  1  0
  4 40  1  0
 40 41  1  0
 41 42  1  0
 42 43  1  0
 42 44  1  0
 42 45  1  0
 45 46  2  0
 46 47  1  0
 46 48  1  0
 48 49  1  0
 48 50  2  0
 50 51  1  0
 50 52  1  0
 52 53  1  0
 52 54  2  0
 54 55  1  0
 41  2  2  0
 54 45  1  0
 38  8  2  0
 26 17  1  0
 37 28  1  0
M  CHG  3   3  -1   9  -1  39  -1
M  END
>  <UniqueID>  (62) 
55

>  <SMILES>  (62) 
O=C(Cc1ccc(F)cc1)/N=c1\[n-]c(C(=O)/N=c2\[n-]cc(Cc3ccccc3)s2)c([O-])c2ccccc12

>  <Energy>  (62) 
100.98116237217536

>  <Genealogy>  (62) 
O=C(Cc1ccc(F)cc1)N=c1[n-]c(C(=O)N=c2[n-]cc(Cc3ccccc3)s2)c([O-])c2ccccc12 (protonated)
O=C(Cc1ccc(F)cc1)/N=c1\[n-]c(C(=O)/N=c2\[n-]cc(Cc3ccccc3)s2)c([O-])c2ccccc12 (cis-trans isomerization)
O=C(Cc1ccc(F)cc1)/N=c1\[n-]c(C(=O)/N=c2\[n-]cc(Cc3ccccc3)s2)c([O-])c2ccccc12 (3D coordinates assigned)
O=C(Cc1ccc(F)cc1)/N=c1\[n-]c(C(=O)/N=c2\[n-]cc(Cc3ccccc3)s2)c([O-])c2ccccc12 (optimized conformer: 100.98116237217536 kcal/mol)

>  <smiles>  (62) 
O=C(Cc1ccc(F)cc1)N=c1[nH]c(C(=O)N=c2[nH]cc(Cc3ccccc3)s2)c(O)c2ccccc12

>  <score_type>  (62) 
oracle

>  <origin>  (62) 
adg

>  <m_score__min__energy>  (62) 
-15.220000000000001

>  <m_primary>  (62) 
energy

$$$$
62:0
     RDKit          3D

 42 44  0  0  0  0  0  0  0  0999 V2000
   65.5700   32.9680   52.1710 C   0  0  0  0  0  0  0  0  0  0  0  0
   65.4840   32.2650   50.5380 S   0  0  0  0  0  0  0  0  0  0  0  0
   64.5430   31.0930   50.5190 O   0  0  0  0  0  0  0  0  0  0  0  0
   66.8540   31.7890   50.1450 O   0  0  0  0  0  0  0  0  0  0  0  0
   64.9650   33.4630   49.3960 N   0  0  0  0  0  0  0  0  0  0  0  0
   63.6740   33.5230   48.7730 C   0  0  0  0  0  0  0  0  0  0  0  0
   63.5950   33.3800   47.3830 C   0  0  0  0  0  0  0  0  0  0  0  0
   62.3580   33.4230   46.7310 C   0  0  0  0  0  0  0  0  0  0  0  0
   61.1710   33.6100   47.4630 C   0  0  0  0  0  0  0  0  0  0  0  0
   59.8400   33.6410   46.8040 C   0  0  0  0  0  0  0  0  0  0  0  0
   58.6280   33.8900   47.4580 C   0  0  0  0  0  0  0  0  0  0  0  0
   57.3960   33.8910   46.3060 S   0  0  0  0  0  0  0  0  0  0  0  0
   58.4460   33.5840   45.0370 C   0  0  0  0  0  0  0  0  0  0  0  0
   58.0720   33.4580   43.7980 N   0  0  0  0  0  0  0  0  0  0  0  0
   57.7600   32.2190   43.1350 C   0  0  0  0  0  0  0  0  0  0  0  0
   57.6950   32.2060   41.8780 O   0  0  0  0  0  0  0  0  0  0  0  0
   57.5320   30.9610   43.8780 C   0  0  0  0  0  0  0  0  0  0  0  0
   58.6210   30.2260   44.3700 C   0  0  0  0  0  0  0  0  0  0  0  0
   58.4140   28.9940   44.9990 C   0  0  0  0  0  0  0  0  0  0  0  0
   57.1160   28.4900   45.1550 C   0  0  0  0  0  0  0  0  0  0  0  0
   56.8670   26.9150   45.9010 S   0  0  0  0  0  0  0  0  0  0  0  0
   55.1730   26.6020   46.0290 N   0  0  0  0  0  0  0  0  0  0  0  0
   57.4900   26.9040   47.2690 O   0  0  0  0  0  0  0  0  0  0  0  0
   57.5140   25.8440   45.0670 O   0  0  0  0  0  0  0  0  0  0  0  0
   56.0230   29.2460   44.7120 C   0  0  0  0  0  0  0  0  0  0  0  0
   56.2280   30.4760   44.0800 C   0  0  0  0  0  0  0  0  0  0  0  0
   59.7220   33.4620   45.4600 N   0  0  0  0  0  0  0  0  0  0  0  0
   61.2590   33.7640   48.8600 C   0  0  0  0  0  0  0  0  0  0  0  0
   62.4940   33.7170   49.5090 C   0  0  0  0  0  0  0  0  0  0  0  0
   65.4722   32.1684   52.9200 H   0  0  0  0  0  0  0  0  0  0  0  0
   66.5370   33.4760   52.3011 H   0  0  0  0  0  0  0  0  0  0  0  0
   64.7540   33.6941   52.3011 H   0  0  0  0  0  0  0  0  0  0  0  0
   64.5145   33.2324   46.7975 H   0  0  0  0  0  0  0  0  0  0  0  0
   62.3130   33.3098   45.6378 H   0  0  0  0  0  0  0  0  0  0  0  0
   58.5007   34.0565   48.5379 H   0  0  0  0  0  0  0  0  0  0  0  0
   59.6421   30.6203   44.2606 H   0  0  0  0  0  0  0  0  0  0  0  0
   59.2737   28.4185   45.3727 H   0  0  0  0  0  0  0  0  0  0  0  0
   54.7670   26.7260   45.0750 H   0  0  0  0  0  0  0  0  0  0  0  0
   55.0000   28.8705   44.8619 H   0  0  0  0  0  0  0  0  0  0  0  0
   55.3651   31.0670   43.7392 H   0  0  0  0  0  0  0  0  0  0  0  0
   60.3427   33.9234   49.4474 H   0  0  0  0  0  0  0  0  0  0  0  0
   62.5430   33.8324   50.6018 H   0  0  0  0  0  0  0  0  0  0  0  0
  1  2  1  0
  2  3  2  0
  2  4  2  0
  2  5  1  0
  5  6  1  0
  6  7  2  0
  7  8  1  0
  8  9  2  0
  9 10  1  0
 10 11  2  0
 11 12  1  0
 12 13  1  0
 13 14  2  3
 14 15  1  0
 15 16  2  0
 15 17  1  0
 17 18  2  0
 18 19  1  0
 19 20  2  0
 20 21  1  0
 21 22  1  0
 21 23  2  0
 21 24  2  0
 20 25  1  0
 25 26  2  0
 13 27  1  0
  9 28  1  0
 28 29  2  0
 29  6  1  0
 27 10  1  0
 26 17  1  0
  1 30  1  0
  1 31  1  0
  1 32  1  0
  7 33  1  0
  8 34  1  0
 11 35  1  0
 18 36  1  0
 19 37  1  0
 22 38  1  0
 25 39  1  0
 26 40  1  0
 28 41  1  0
 29 42  1  0
M  CHG  3   5  -1  22  -1  27  -1
M  END
>  <UniqueID>  (63) 
56

>  <SMILES>  (63) 
CS(=O)(=O)[N-]c1ccc(-c2csc(=NC(=O)c3ccc(S([NH-])(=O)=O)cc3)[n-]2)cc1

>  <Energy>  (63) 
81.16912677626189

>  <Genealogy>  (63) 
CS(=O)(=O)[N-]c1ccc(-c2csc(=NC(=O)c3ccc(S([NH-])(=O)=O)cc3)[n-]2)cc1 (protonated)
CS(=O)(=O)[N-]c1ccc(-c2csc(=NC(=O)c3ccc(S([NH-])(=O)=O)cc3)[n-]2)cc1 (3D coordinates assigned)
CS(=O)(=O)[N-]c1ccc(-c2csc(=NC(=O)c3ccc(S([NH-])(=O)=O)cc3)[n-]2)cc1 (optimized conformer: 81.16912677626189 kcal/mol)

>  <smiles>  (63) 
CS(=O)(=O)Nc1ccc(-c2csc(=NC(=O)c3ccc(S(N)(=O)=O)cc3)[nH]2)cc1

>  <score_type>  (63) 
oracle

>  <origin>  (63) 
adg

>  <m_score__min__energy>  (63) 
-13.69

>  <m_primary>  (63) 
energy

$$$$
63:0
     RDKit          3D

 72 76  0  0  0  0  0  0  0  0999 V2000
   56.6000   29.0130   43.3860 O   0  0  0  0  0  0  0  0  0  0  0  0
   57.2360   28.9960   44.4750 C   0  0  0  0  0  0  0  0  0  0  0  0
   57.4060   27.7080   45.1690 C   0  0  0  0  0  0  0  0  0  0  0  0
   56.2680   27.0250   45.6200 C   0  0  0  0  0  0  0  0  0  0  0  0
   56.3990   25.8240   46.3230 C   0  0  0  0  0  0  0  0  0  0  0  0
   57.6640   25.2910   46.5680 C   0  0  0  0  0  0  0  0  0  0  0  0
   58.8050   25.9570   46.1120 C   0  0  0  0  0  0  0  0  0  0  0  0
   58.6860   27.1660   45.4110 C   0  0  0  0  0  0  0  0  0  0  0  0
   60.1860   27.9800   44.8340 S   0  0  0  0  0  0  0  0  0  0  0  0
   60.5220   28.7030   46.4400 C   0  0  0  0  0  0  0  0  0  0  0  0
   60.1560   28.0190   47.6060 C   0  0  0  0  0  0  0  0  0  0  0  0
   60.3490   28.6100   48.8570 C   0  0  0  0  0  0  0  0  0  0  0  0
   60.8900   29.8990   48.9500 C   0  0  0  0  0  0  0  0  0  0  0  0
   61.0550   30.5300   50.2740 C   0  0  0  0  0  0  0  0  0  0  0  0
   60.4010   30.1320   51.3730 C   0  0  0  0  0  0  0  0  0  0  0  0
   58.9520   30.3230   51.5940 C   0  0  0  0  0  0  0  0  0  0  0  0
   58.1460   29.7010   50.8470 O   0  0  0  0  0  0  0  0  0  0  0  0
   58.4640   31.3020   52.5460 N   0  0  1  0  0  0  0  0  0  0  0  0
   59.5620   31.8590   53.3450 C   0  0  0  0  0  0  0  0  0  0  0  0
   59.1100   33.2320   53.8030 C   0  0  0  0  0  0  0  0  0  0  0  0
   58.1560   33.7010   52.7130 C   0  0  1  0  0  0  0  0  0  0  0  0
   58.7450   34.6870   51.8970 O   0  0  0  0  0  0  0  0  0  0  0  0
   57.7910   32.4470   51.9070 C   0  0  0  0  0  0  0  0  0  0  0  0
   61.3140   30.5580   47.7830 C   0  0  0  0  0  0  0  0  0  0  0  0
   61.1340   29.9580   46.5340 C   0  0  0  0  0  0  0  0  0  0  0  0
   57.7440   30.2250   45.0380 N   0  0  0  0  0  0  0  0  0  0  0  0
   57.7130   31.4300   44.1820 C   0  0  0  0  0  0  0  0  0  0  0  0
   58.3720   32.6530   44.8250 C   0  0  0  0  0  0  0  0  0  0  0  0
   57.9990   32.7270   46.2440 N   0  0  0  0  0  0  0  0  0  0  0  0
   58.3130   34.0350   46.8600 C   0  0  0  0  0  0  0  0  0  0  0  0
   59.6260   34.0620   47.6140 C   0  0  0  0  0  0  0  0  0  0  0  0
   59.6390   34.1620   49.0160 C   0  0  0  0  0  0  0  0  0  0  0  0
   60.8510   34.1690   49.7110 C   0  0  0  0  0  0  0  0  0  0  0  0
   62.0590   34.0690   49.0150 C   0  0  0  0  0  0  0  0  0  0  0  0
   62.0550   33.9660   47.6210 C   0  0  0  0  0  0  0  0  0  0  0  0
   60.8450   33.9580   46.9210 C   0  0  0  0  0  0  0  0  0  0  0  0
   58.6000   31.5950   46.9600 C   0  0  0  0  0  0  0  0  0  0  0  0
   57.9520   30.2910   46.5000 C   0  0  0  0  0  0  0  0  0  0  0  0
   55.2675   27.4360   45.4198 H   0  0  0  0  0  0  0  0  0  0  0  0
   55.5025   25.2984   46.6836 H   0  0  0  0  0  0  0  0  0  0  0  0
   57.7640   24.3453   47.1208 H   0  0  0  0  0  0  0  0  0  0  0  0
   59.8009   25.5311   46.3038 H   0  0  0  0  0  0  0  0  0  0  0  0
   59.7153   27.0135   47.5366 H   0  0  0  0  0  0  0  0  0  0  0  0
   60.0757   28.0622   49.7709 H   0  0  0  0  0  0  0  0  0  0  0  0
   61.7543   31.3744   50.3632 H   0  0  0  0  0  0  0  0  0  0  0  0
   60.9799   29.6304   52.1625 H   0  0  0  0  0  0  0  0  0  0  0  0
   57.7880   30.8500   53.2080 H   0  0  0  0  0  0  0  0  0  0  0  0
   59.7632   31.2159   54.2144 H   0  0  0  0  0  0  0  0  0  0  0  0
   60.4891   31.9220   52.7564 H   0  0  0  0  0  0  0  0  0  0  0  0
   58.5928   33.1682   54.7717 H   0  0  0  0  0  0  0  0  0  0  0  0
   59.9529   33.9237   53.9479 H   0  0  0  0  0  0  0  0  0  0  0  0
   57.2607   34.1729   53.1440 H   0  0  0  0  0  0  0  0  0  0  0  0
   58.1420   35.4770   51.8950 H   0  0  0  0  0  0  0  0  0  0  0  0
   56.7014   32.2968   51.9179 H   0  0  0  0  0  0  0  0  0  0  0  0
   58.1111   32.5511   50.8598 H   0  0  0  0  0  0  0  0  0  0  0  0
   61.7884   31.5480   47.8532 H   0  0  0  0  0  0  0  0  0  0  0  0
   61.4738   30.4729   45.6233 H   0  0  0  0  0  0  0  0  0  0  0  0
   58.2399   31.2039   43.2433 H   0  0  0  0  0  0  0  0  0  0  0  0
   56.6552   31.6821   44.0164 H   0  0  0  0  0  0  0  0  0  0  0  0
   59.4652   32.5674   44.7382 H   0  0  0  0  0  0  0  0  0  0  0  0
   58.0310   33.5635   44.3105 H   0  0  0  0  0  0  0  0  0  0  0  0
   58.3567   34.7913   46.0624 H   0  0  0  0  0  0  0  0  0  0  0  0
   57.5201   34.2390   47.5947 H   0  0  0  0  0  0  0  0  0  0  0  0
   58.6906   34.2351   49.5685 H   0  0  0  0  0  0  0  0  0  0  0  0
   60.8546   34.2533   50.8078 H   0  0  0  0  0  0  0  0  0  0  0  0
   63.0122   34.0714   49.5639 H   0  0  0  0  0  0  0  0  0  0  0  0
   63.0062   33.8911   47.0736 H   0  0  0  0  0  0  0  0  0  0  0  0
   60.8465   33.8701   45.8245 H   0  0  0  0  0  0  0  0  0  0  0  0
   59.6791   31.5609   46.7496 H   0  0  0  0  0  0  0  0  0  0  0  0
   58.4376   31.7205   48.0407 H   0  0  0  0  0  0  0  0  0  0  0  0
   58.6010   29.4545   46.7984 H   0  0  0  0  0  0  0  0  0  0  0  0
   56.9604   30.2356   46.9728 H   0  0  0  0  0  0  0  0  0  0  0  0
  1  2  2  0
  2  3  1  0
  3  4  2  0
  4  5  1  0
  5  6  2  0
  6  7  1  0
  7  8  2  0
  8  9  1  0
  9 10  1  0
 10 11  2  0
 11 12  1  0
 12 13  2  0
 13 14  1  0
 14 15  2  3
 15 16  1  0
 16 17  2  0
 16 18  1  0
 18 19  1  0
 19 20  1  0
 20 21  1  0
 21 22  1  0
 21 23  1  0
 13 24  1  0
 24 25  2  0
  2 26  1  0
 26 27  1  0
 27 28  1  0
 28 29  1  0
 29 30  1  0
 30 31  1  0
 31 32  2  0
 32 33  1  0
 33 34  2  0
 34 35  1  0
 35 36  2  0
 29 37  1  0
 37 38  1  0
  8  3  1  0
 25 10  1  0
 38 26  1  0
 23 18  1  0
 36 31  1  0
  4 39  1  0
  5 40  1  0
  6 41  1  0
  7 42  1  0
 11 43  1  0
 12 44  1  0
 14 45  1  0
 15 46  1  0
 18 47  1  1
 19 48  1  0
 19 49  1  0
 20 50  1  0
 20 51  1  0
 21 52  1  1
 22 53  1  0
 23 54  1  0
 23 55  1  0
 24 56  1  0
 25 57  1  0
 27 58  1  0
 27 59  1  0
 28 60  1  0
 28 61  1  0
 30 62  1  0
 30 63  1  0
 32 64  1  0
 33 65  1  0
 34 66  1  0
 35 67  1  0
 36 68  1  0
 37 69  1  0
 37 70  1  0
 38 71  1  0
 38 72  1  0
M  CHG  1  18   1
M  END
>  <UniqueID>  (64) 
57

>  <SMILES>  (64) 
O=C(c1ccccc1Sc1ccc(C=CC(=O)[N@H+]2CC[C@@H](O)C2)cc1)N1CCN(Cc2ccccc2)CC1

>  <Energy>  (64) 
96.24324693539383

>  <Genealogy>  (64) 
O=C(c1ccccc1Sc1ccc(C=CC(=O)[NH+]2CCC(O)C2)cc1)N1CCN(Cc2ccccc2)CC1 (protonated)
O=C(c1ccccc1Sc1ccc(C=CC(=O)[N@H+]2CC[C@@H](O)C2)cc1)N1CCN(Cc2ccccc2)CC1 (chirality)
O=C(c1ccccc1Sc1ccc(C=CC(=O)[N@H+]2CC[C@@H](O)C2)cc1)N1CCN(Cc2ccccc2)CC1 (3D coordinates assigned)
O=C(c1ccccc1Sc1ccc(C=CC(=O)[N@H+]2CC[C@@H](O)C2)cc1)N1CCN(Cc2ccccc2)CC1 (nonaromatic ring conformer: 96.24324693539383 kcal/mol)

>  <smiles>  (64) 
O=C(C=Cc1ccc(Sc2ccccc2C(=O)N2CCN(Cc3ccccc3)CC2)cc1)N1CCC(O)C1

>  <score_type>  (64) 
oracle

>  <origin>  (64) 
adg

>  <m_score__min__energy>  (64) 
-9.3300000000000001

>  <m_primary>  (64) 
energy

$$$$
64:0
     RDKit          3D

 50 52  0  0  0  0  0  0  0  0999 V2000
   60.3310   27.9220   48.4610 O   0  0  0  0  0  0  0  0  0  0  0  0
   59.2390   27.9320   47.8320 C   0  0  0  0  0  0  0  0  0  0  0  0
   58.6330   26.6320   47.3920 C   0  0  0  0  0  0  0  0  0  0  0  0
   59.2880   26.1150   46.1030 C   0  0  0  0  0  0  0  0  0  0  0  0
   58.4140   26.3590   44.8660 C   0  0  0  0  0  0  0  0  0  0  0  0
   57.9630   27.7600   44.8290 N   0  0  0  0  0  0  0  0  0  0  0  0
   58.8350   28.7290   44.4190 C   0  0  0  0  0  0  0  0  0  0  0  0
   58.4470   30.0670   44.3940 C   0  0  0  0  0  0  0  0  0  0  0  0
   57.1580   30.3930   44.8080 C   0  0  0  0  0  0  0  0  0  0  0  0
   56.7720   31.5910   44.7980 O   0  0  0  0  0  0  0  0  0  0  0  0
   56.3170   29.4150   45.2270 N   0  0  0  0  0  0  0  0  0  0  0  0
   56.7040   28.1110   45.2460 C   0  0  0  0  0  0  0  0  0  0  0  0
   55.8910   27.2380   45.6530 O   0  0  0  0  0  0  0  0  0  0  0  0
   58.5750   29.1720   47.5420 N   0  0  0  0  0  0  0  0  0  0  0  0
   58.8530   30.4080   48.2220 C   0  0  0  0  0  0  0  0  0  0  0  0
   58.5490   30.5780   49.5850 C   0  0  0  0  0  0  0  0  0  0  0  0
   58.8050   31.7990   50.2150 C   0  0  0  0  0  0  0  0  0  0  0  0
   59.3500   32.8630   49.4930 C   0  0  0  0  0  0  0  0  0  0  0  0
   59.6330   32.7130   48.1280 C   0  0  0  0  0  0  0  0  0  0  0  0
   60.3250   34.0420   47.2000 S   0  0  0  0  0  0  0  0  0  0  0  0
   60.1840   33.7300   45.7370 O   0  0  0  0  0  0  0  0  0  0  0  0
   59.5900   35.3200   47.4960 O   0  0  0  0  0  0  0  0  0  0  0  0
   62.0130   34.2190   47.6120 N   0  0  0  0  0  0  0  0  0  0  0  0
   62.8670   33.3750   46.7450 C   0  0  0  0  0  0  0  0  0  0  0  0
   63.3940   32.1330   47.4840 C   0  0  0  0  0  0  0  0  0  0  0  0
   64.1460   32.4490   48.6460 O   0  0  0  0  0  0  0  0  0  0  0  0
   63.6760   33.5990   49.3390 C   0  0  0  0  0  0  0  0  0  0  0  0
   62.2080   33.9530   49.0500 C   0  0  0  0  0  0  0  0  0  0  0  0
   59.3790   31.4880   47.4980 C   0  0  0  0  0  0  0  0  0  0  0  0
   58.7714   25.8854   48.1879 H   0  0  0  0  0  0  0  0  0  0  0  0
   57.5639   26.7985   47.1937 H   0  0  0  0  0  0  0  0  0  0  0  0
   60.2496   26.6306   45.9637 H   0  0  0  0  0  0  0  0  0  0  0  0
   59.4255   25.0287   46.2083 H   0  0  0  0  0  0  0  0  0  0  0  0
   58.9984   26.1416   43.9598 H   0  0  0  0  0  0  0  0  0  0  0  0
   57.5342   25.7004   44.9132 H   0  0  0  0  0  0  0  0  0  0  0  0
   59.8520   28.4503   44.1060 H   0  0  0  0  0  0  0  0  0  0  0  0
   59.1432   30.8482   44.0549 H   0  0  0  0  0  0  0  0  0  0  0  0
   57.8760   29.1840   46.7660 H   0  0  0  0  0  0  0  0  0  0  0  0
   58.1086   29.7476   50.1565 H   0  0  0  0  0  0  0  0  0  0  0  0
   58.5763   31.9225   51.2839 H   0  0  0  0  0  0  0  0  0  0  0  0
   59.5574   33.8193   49.9955 H   0  0  0  0  0  0  0  0  0  0  0  0
   62.2765   33.0471   45.8768 H   0  0  0  0  0  0  0  0  0  0  0  0
   63.7335   33.9771   46.4341 H   0  0  0  0  0  0  0  0  0  0  0  0
   62.5354   31.5130   47.7815 H   0  0  0  0  0  0  0  0  0  0  0  0
   64.0673   31.6039   46.7936 H   0  0  0  0  0  0  0  0  0  0  0  0
   63.7810   33.4178   50.4189 H   0  0  0  0  0  0  0  0  0  0  0  0
   64.2808   34.4483   48.9885 H   0  0  0  0  0  0  0  0  0  0  0  0
   61.5667   33.1121   49.3526 H   0  0  0  0  0  0  0  0  0  0  0  0
   61.9421   34.8568   49.6178 H   0  0  0  0  0  0  0  0  0  0  0  0
   59.5941   31.3719   46.4255 H   0  0  0  0  0  0  0  0  0  0  0  0
  1  2  2  0
  2  3  1  0
  3  4  1  0
  4  5  1  0
  5  6  1  0
  6  7  1  0
  7  8  2  0
  8  9  1  0
  9 10  2  0
  9 11  1  0
 11 12  1  0
 12 13  2  0
  2 14  1  0
 14 15  1  0
 15 16  2  0
 16 17  1  0
 17 18  2  0
 18 19  1  0
 19 20  1  0
 20 21  2  0
 20 22  2  0
 20 23  1  0
 23 24  1  0
 24 25  1  0
 25 26  1  0
 26 27  1  0
 27 28  1  0
 19 29  2  0
 12  6  1  0
 29 15  1  0
 28 23  1  0
  3 30  1  0
  3 31  1  0
  4 32  1  0
  4 33  1  0
  5 34  1  0
  5 35  1  0
  7 36  1  0
  8 37  1  0
 14 38  1  0
 16 39  1  0
 17 40  1  0
 18 41  1  0
 24 42  1  0
 24 43  1  0
 25 44  1  0
 25 45  1  0
 27 46  1  0
 27 47  1  0
 28 48  1  0
 28 49  1  0
 29 50  1  0
M  CHG  1  11  -1
M  END
>  <UniqueID>  (65) 
58

>  <SMILES>  (65) 
O=C(CCCn1ccc(=O)[n-]c1=O)Nc1cccc(S(=O)(=O)N2CCOCC2)c1

>  <Energy>  (65) 
63.83874755403596

>  <Genealogy>  (65) 
O=C(CCCn1ccc(=O)[n-]c1=O)Nc1cccc(S(=O)(=O)N2CCOCC2)c1 (protonated)
O=C(CCCn1ccc(=O)[n-]c1=O)Nc1cccc(S(=O)(=O)N2CCOCC2)c1 (3D coordinates assigned)
O=C(CCCn1ccc(=O)[n-]c1=O)Nc1cccc(S(=O)(=O)N2CCOCC2)c1 (nonaromatic ring conformer: 63.83874755403596 kcal/mol)

>  <smiles>  (65) 
O=C(CCCn1ccc(=O)[nH]c1=O)Nc1cccc(S(=O)(=O)N2CCOCC2)c1

>  <score_type>  (65) 
oracle

>  <origin>  (65) 
adg

>  <m_score__min__energy>  (65) 
-11.449999999999999

>  <m_primary>  (65) 
energy

$$$$
65:0
     RDKit          3D

 55 58  0  0  0  0  0  0  0  0999 V2000
   54.0990   26.3440   46.4390 H   0  0  0  0  0  0  0  0  0  0  0  0
   55.0360   26.5270   46.1000 O   0  0  0  0  0  0  0  0  0  0  0  0
   56.0060   25.5310   46.1290 C   0  0  0  0  0  0  0  0  0  0  0  0
   55.7840   24.2560   45.7700 N   0  0  0  0  0  0  0  0  0  0  0  0
   56.9770   23.6690   46.0090 C   0  0  0  0  0  0  0  0  0  0  0  0
   57.1820   22.4440   45.8040 O   0  0  0  0  0  0  0  0  0  0  0  0
   57.9270   24.4940   46.4990 N   0  0  0  0  0  0  0  0  0  0  0  0
   57.3100   25.6870   46.5450 C   0  0  0  0  0  0  0  0  0  0  0  0
   57.9160   26.8940   47.1300 C   0  0  0  0  0  0  0  0  0  0  0  0
   58.3704   26.7956   48.1269 H   0  0  0  0  0  0  0  0  0  0  0  0
   57.9620   28.1080   46.5500 C   0  0  0  0  0  0  0  0  0  0  0  0
   57.6490   28.3160   45.2150 C   0  0  0  0  0  0  0  0  0  0  0  0
   57.2733   27.5642   44.5053 H   0  0  0  0  0  0  0  0  0  0  0  0
   57.8990   29.6470   44.9470 C   0  0  0  0  0  0  0  0  0  0  0  0
   57.7260   30.2910   43.6060 C   0  0  0  0  0  0  0  0  0  0  0  0
   57.4427   31.3455   43.7395 H   0  0  0  0  0  0  0  0  0  0  0  0
   58.6715   30.2333   43.0468 H   0  0  0  0  0  0  0  0  0  0  0  0
   56.9367   29.7673   43.0468 H   0  0  0  0  0  0  0  0  0  0  0  0
   58.3010   30.2830   46.0700 N   0  0  0  0  0  0  0  0  0  0  0  0
   58.6510   31.6740   46.1710 C   0  0  0  0  0  0  0  0  0  0  0  0
   59.8600   32.0400   46.7770 C   0  0  0  0  0  0  0  0  0  0  0  0
   60.5402   31.2601   47.1499 H   0  0  0  0  0  0  0  0  0  0  0  0
   60.2120   33.3920   46.9130 C   0  0  0  0  0  0  0  0  0  0  0  0
   61.4310   33.7630   47.5820 N   0  0  0  0  0  0  0  0  0  0  0  0
   61.4000   34.1770   48.9890 C   0  0  0  0  0  0  0  0  0  0  0  0
   61.2527   35.2657   49.0439 H   0  0  0  0  0  0  0  0  0  0  0  0
   60.5729   33.6590   49.4965 H   0  0  0  0  0  0  0  0  0  0  0  0
   62.7230   33.8080   49.6830 C   0  0  0  0  0  0  0  0  0  0  0  0
   63.4484   34.6188   49.5204 H   0  0  0  0  0  0  0  0  0  0  0  0
   62.5192   33.6685   50.7549 H   0  0  0  0  0  0  0  0  0  0  0  0
   63.2890   32.5450   49.1540 N   0  0  0  0  0  0  0  0  0  0  0  0
   62.4500   31.3490   49.4190 C   0  0  0  0  0  0  0  0  0  0  0  0
   61.4188   31.6775   49.6160 H   0  0  0  0  0  0  0  0  0  0  0  0
   62.5037   30.6988   48.5334 H   0  0  0  0  0  0  0  0  0  0  0  0
   62.9490   30.5390   50.6260 C   0  0  0  0  0  0  0  0  0  0  0  0
   62.2669   30.7010   51.4736 H   0  0  0  0  0  0  0  0  0  0  0  0
   62.9736   29.4756   50.3458 H   0  0  0  0  0  0  0  0  0  0  0  0
   64.2430   30.9300   50.9990 O   0  0  0  0  0  0  0  0  0  0  0  0
   64.4820   31.7060   50.4280 H   0  0  0  0  0  0  0  0  0  0  0  0
   63.6430   32.6620   47.7130 C   0  0  0  0  0  0  0  0  0  0  0  0
   64.6793   33.0233   47.6387 H   0  0  0  0  0  0  0  0  0  0  0  0
   63.5121   31.6641   47.2690 H   0  0  0  0  0  0  0  0  0  0  0  0
   62.7330   33.6280   46.9240 C   0  0  0  0  0  0  0  0  0  0  0  0
   63.2148   34.6154   46.8698 H   0  0  0  0  0  0  0  0  0  0  0  0
   62.5790   33.2237   45.9126 H   0  0  0  0  0  0  0  0  0  0  0  0
   59.3340   34.3800   46.4390 C   0  0  0  0  0  0  0  0  0  0  0  0
   59.5952   35.4430   46.5480 H   0  0  0  0  0  0  0  0  0  0  0  0
   58.1290   34.0180   45.8290 C   0  0  0  0  0  0  0  0  0  0  0  0
   57.4519   34.7972   45.4490 H   0  0  0  0  0  0  0  0  0  0  0  0
   57.7810   32.6700   45.7000 C   0  0  0  0  0  0  0  0  0  0  0  0
   56.5630   32.3290   45.1230 O   0  0  0  0  0  0  0  0  0  0  0  0
   58.3240   29.3630   47.0680 C   0  0  0  0  0  0  0  0  0  0  0  0
   58.5220   29.6840   48.3560 C   0  0  0  0  0  0  0  0  0  0  0  0
   58.8046   30.7113   48.6296 H   0  0  0  0  0  0  0  0  0  0  0  0
   58.4017   28.9198   49.1380 H   0  0  0  0  0  0  0  0  0  0  0  0
  1  2  1  0
  2  3  1  0
  3  4  1  0
  4  5  1  0
  5  6  2  0
  5  7  1  0
  7  8  1  0
  8  9  1  0
  9 10  1  0
  9 11  2  0
 11 12  1  0
 12 13  1  0
 12 14  2  0
 14 15  1  0
 15 16  1  0
 15 17  1  0
 15 18  1  0
 14 19  1  0
 19 20  1  0
 20 21  2  0
 21 22  1  0
 21 23  1  0
 23 24  1  0
 24 25  1  0
 25 26  1  0
 25 27  1  0
 25 28  1  0
 28 29  1  0
 28 30  1  0
 28 31  1  0
 31 32  1  0
 32 33  1  0
 32 34  1  0
 32 35  1  0
 35 36  1  0
 35 37  1  0
 35 38  1  0
 38 39  1  0
 31 40  1  0
 40 41  1  0
 40 42  1  0
 40 43  1  0
 43 44  1  0
 43 45  1  0
 23 46  2  0
 46 47  1  0
 46 48  1  0
 48 49  1  0
 48 50  2  0
 50 51  1  0
 19 52  1  0
 52 53  2  0
 53 54  1  0
 53 55  1  0
  8  3  2  0
 52 11  1  0
 50 20  1  0
 43 24  1  0
M  CHG  3   4  -1   7  -1  51  -1
M  END
>  <UniqueID>  (66) 
59

>  <SMILES>  (66) 
C=c1/c(=C\c2[n-]c(=O)[n-]c2O)cc(C)n1-c1cc(N2CCN(CCO)CC2)ccc1[O-]

>  <Energy>  (66) 
145.20032680417893

>  <Genealogy>  (66) 
C=c1c(=Cc2[n-]c(=O)[n-]c2O)cc(C)n1-c1cc(N2CCN(CCO)CC2)ccc1[O-] (protonated)
C=c1/c(=C\c2[n-]c(=O)[n-]c2O)cc(C)n1-c1cc(N2CCN(CCO)CC2)ccc1[O-] (cis-trans isomerization)
C=c1/c(=C\c2[n-]c(=O)[n-]c2O)cc(C)n1-c1cc(N2CCN(CCO)CC2)ccc1[O-] (3D coordinates assigned)
C=c1/c(=C\c2[n-]c(=O)[n-]c2O)cc(C)n1-c1cc(N2CCN(CCO)CC2)ccc1[O-] (nonaromatic ring conformer: 145.20032680417893 kcal/mol)

>  <smiles>  (66) 
C=c1c(=Cc2[nH]c(=O)[nH]c2O)cc(C)n1-c1cc(N2CCN(CCO)CC2)ccc1O

>  <score_type>  (66) 
oracle

>  <origin>  (66) 
adg

>  <m_score__min__energy>  (66) 
-14.65

>  <m_primary>  (66) 
energy

$$$$
66:0
     RDKit          3D

 82 87  0  0  1  0  0  0  0  0999 V2000
   66.9700   30.5740   52.7390 O   0  0  0  0  0  0  0  0  0  0  0  0
   66.4960   30.6250   51.5920 C   0  0  0  0  0  0  0  0  0  0  0  0
   67.1890   30.0200   50.4870 N   0  0  0  0  0  0  0  0  0  0  0  0
   67.5300   28.7640   50.5770 C   0  0  0  0  0  0  0  0  0  0  0  0
   68.2540   28.1610   49.6340 N   0  0  0  0  0  0  0  0  0  0  0  0
   68.5960   26.8650   49.7320 C   0  0  0  0  0  0  0  0  0  0  0  0
   68.2000   26.1030   50.8370 C   0  0  0  0  0  0  0  0  0  0  0  0
   67.4460   26.7450   51.8110 C   0  0  0  0  0  0  0  0  0  0  0  0
   67.1450   28.0470   51.6350 N   0  0  0  0  0  0  0  0  0  0  0  0
   65.2410   31.2830   51.2830 C   0  0  0  0  0  0  0  0  0  0  0  0
   64.0780   30.6340   51.6790 C   0  0  0  0  0  0  0  0  0  0  0  0
   62.8380   31.1980   51.3980 C   0  0  0  0  0  0  0  0  0  0  0  0
   62.6970   32.3950   50.7310 C   0  0  0  0  0  0  0  0  0  0  0  0
   61.4220   33.0030   50.3190 C   0  0  0  0  0  0  0  0  0  0  0  0
   61.0590   32.6740   48.9910 N   0  0  0  0  0  0  0  0  0  0  0  0
   60.3550   33.8020   48.3700 C   0  0  0  0  0  0  0  0  0  0  0  0
   60.4210   33.6550   46.8810 C   0  0  0  0  0  0  0  0  0  0  0  0
   59.7980   32.3540   46.4850 C   0  0  0  0  0  0  0  0  0  0  0  0
   59.2450   32.2780   45.2900 N   0  0  0  0  0  0  0  0  0  0  0  0
   58.6520   31.1500   44.8860 C   0  0  0  0  0  0  0  0  0  0  0  0
   58.0730   31.0730   43.7400 N   0  0  0  0  0  0  0  0  0  0  0  0
   56.6530   30.8900   43.6150 C   0  0  0  0  0  0  0  0  0  0  0  0
   56.3970   29.3720   43.5850 C   0  0  0  0  0  0  0  0  0  0  0  0
   57.6450   28.7230   43.5180 O   0  0  0  0  0  0  0  0  0  0  0  0
   58.6560   30.1140   45.7530 N   0  0  0  0  0  0  0  0  0  0  0  0
   59.2110   30.1530   46.9770 C   0  0  0  0  0  0  0  0  0  0  0  0
   59.1710   29.0960   47.6820 N   0  0  0  0  0  0  0  0  0  0  0  0
   58.9950   27.7730   47.2390 C   0  0  0  0  0  0  0  0  0  0  0  0
   57.8270   27.0640   47.2150 C   0  0  0  0  0  0  0  0  0  0  0  0
   57.7620   25.7570   46.7530 C   0  0  0  0  0  0  0  0  0  0  0  0
   58.9030   25.0940   46.2820 C   0  0  0  0  0  0  0  0  0  0  0  0
   58.7590   23.4650   45.7250 S   0  0  0  0  0  0  0  0  0  0  0  0
   57.9250   22.6470   46.6940 O   0  0  0  0  0  0  0  0  0  0  0  0
   60.1470   22.8480   45.6160 O   0  0  0  0  0  0  0  0  0  0  0  0
   58.0700   23.3520   44.1540 N   0  0  0  0  0  0  0  0  0  0  0  0
   58.0140   21.9910   43.7550 C   0  0  0  0  0  0  0  0  0  0  0  0
   56.9170   21.6120   42.8170 C   0  0  0  0  0  0  0  0  0  0  0  0
   55.6850   22.2560   43.2370 N   0  0  0  0  0  0  0  0  0  0  0  0
   55.8830   23.6920   43.0520 C   0  0  0  0  0  0  0  0  0  0  0  0
   56.8710   24.1090   44.1140 C   0  0  0  0  0  0  0  0  0  0  0  0
   60.0660   25.8190   46.3120 C   0  0  0  0  0  0  0  0  0  0  0  0
   60.1340   27.1160   46.7710 C   0  0  0  0  0  0  0  0  0  0  0  0
   59.8390   31.3470   47.4170 C   0  0  0  0  0  0  0  0  0  0  0  0
   60.4140   31.4240   48.7700 C   0  0  0  0  0  0  0  0  0  0  0  0
   63.8870   33.0280   50.3470 C   0  0  0  0  0  0  0  0  0  0  0  0
   65.1350   32.4810   50.6180 C   0  0  0  0  0  0  0  0  0  0  0  0
   66.2870   33.1210   50.2220 F   0  0  0  0  0  0  0  0  0  0  0  0
   69.1936   26.3982   48.9351 H   0  0  0  0  0  0  0  0  0  0  0  0
   68.4739   25.0417   50.9302 H   0  0  0  0  0  0  0  0  0  0  0  0
   67.1026   26.2036   52.7049 H   0  0  0  0  0  0  0  0  0  0  0  0
   66.5630   28.4780   52.4120 H   0  0  0  0  0  0  0  0  0  0  0  0
   64.1379   29.6749   52.2143 H   0  0  0  0  0  0  0  0  0  0  0  0
   61.9316   30.6657   51.7221 H   0  0  0  0  0  0  0  0  0  0  0  0
   60.6302   32.6513   50.9967 H   0  0  0  0  0  0  0  0  0  0  0  0
   61.5462   34.0949   50.3666 H   0  0  0  0  0  0  0  0  0  0  0  0
   59.3039   33.8050   48.6945 H   0  0  0  0  0  0  0  0  0  0  0  0
   60.8277   34.7481   48.6723 H   0  0  0  0  0  0  0  0  0  0  0  0
   59.8757   34.4835   46.4054 H   0  0  0  0  0  0  0  0  0  0  0  0
   61.4713   33.6752   46.5547 H   0  0  0  0  0  0  0  0  0  0  0  0
   59.3120   33.1520   44.6900 H   0  0  0  0  0  0  0  0  0  0  0  0
   56.1364   31.3436   44.4737 H   0  0  0  0  0  0  0  0  0  0  0  0
   56.2736   31.3708   42.7012 H   0  0  0  0  0  0  0  0  0  0  0  0
   55.8647   29.0648   44.4973 H   0  0  0  0  0  0  0  0  0  0  0  0
   55.7795   29.1051   42.7147 H   0  0  0  0  0  0  0  0  0  0  0  0
   58.2300   29.2930   42.9820 H   0  0  0  0  0  0  0  0  0  0  0  0
   58.1880   29.2160   45.4330 H   0  0  0  0  0  0  0  0  0  0  0  0
   56.9060   27.5462   47.5745 H   0  0  0  0  0  0  0  0  0  0  0  0
   56.7958   25.2312   46.7566 H   0  0  0  0  0  0  0  0  0  0  0  0
   58.9691   21.7473   43.2667 H   0  0  0  0  0  0  0  0  0  0  0  0
   57.8127   21.4273   44.6779 H   0  0  0  0  0  0  0  0  0  0  0  0
   57.1744   21.9390   41.7988 H   0  0  0  0  0  0  0  0  0  0  0  0
   56.7845   20.5200   42.8257 H   0  0  0  0  0  0  0  0  0  0  0  0
   55.6250   22.0950   44.2670 H   0  0  0  0  0  0  0  0  0  0  0  0
   56.2878   23.8973   42.0500 H   0  0  0  0  0  0  0  0  0  0  0  0
   54.9368   24.2464   43.1380 H   0  0  0  0  0  0  0  0  0  0  0  0
   57.1385   25.1610   43.9357 H   0  0  0  0  0  0  0  0  0  0  0  0
   56.3711   23.9403   45.0792 H   0  0  0  0  0  0  0  0  0  0  0  0
   60.9896   25.3420   45.9522 H   0  0  0  0  0  0  0  0  0  0  0  0
   61.1003   27.6417   46.7687 H   0  0  0  0  0  0  0  0  0  0  0  0
   59.6081   31.3018   49.5087 H   0  0  0  0  0  0  0  0  0  0  0  0
   61.1632   30.6253   48.8733 H   0  0  0  0  0  0  0  0  0  0  0  0
   63.8311   33.9886   49.8140 H   0  0  0  0  0  0  0  0  0  0  0  0
  1  2  2  0
  2  3  1  0
  3  4  2  3
  4  5  1  0
  5  6  2  0
  6  7  1  0
  7  8  2  0
  8  9  1  0
  2 10  1  0
 10 11  2  0
 11 12  1  0
 12 13  2  0
 13 14  1  0
 14 15  1  0
 15 16  1  0
 16 17  1  0
 17 18  1  0
 18 19  1  0
 19 20  1  0
 20 21  2  0
 21 22  1  0
 22 23  1  0
 23 24  1  0
 20 25  1  0
 25 26  1  0
 26 27  2  0
 27 28  1  0
 28 29  2  0
 29 30  1  0
 30 31  2  0
 31 32  1  0
 32 33  2  0
 32 34  2  0
 32 35  1  0
 35 36  1  0
 36 37  1  0
 37 38  1  0
 38 39  1  0
 39 40  1  0
 31 41  1  0
 41 42  2  0
 26 43  1  0
 43 44  1  0
 13 45  1  0
 45 46  2  0
 46 47  1  0
  9  4  1  0
 46 10  1  0
 44 15  1  0
 43 18  2  0
 42 28  1  0
 40 35  1  0
  6 48  1  0
  7 49  1  0
  8 50  1  0
  9 51  1  0
 11 52  1  0
 12 53  1  0
 14 54  1  0
 14 55  1  0
 16 56  1  0
 16 57  1  0
 17 58  1  0
 17 59  1  0
 19 60  1  0
 22 61  1  0
 22 62  1  0
 23 63  1  0
 23 64  1  0
 24 65  1  0
 25 66  1  0
 29 67  1  0
 30 68  1  0
 36 69  1  0
 36 70  1  0
 37 71  1  0
 37 72  1  0
 38 73  1  0
 39 74  1  0
 39 75  1  0
 40 76  1  0
 40 77  1  0
 41 78  1  0
 42 79  1  0
 44 80  1  0
 44 81  1  0
 45 82  1  0
M  END
>  <smiles>  (67) 
O=C(N=c1nccc[nH]1)c1ccc(CN2CCc3[nH]c(=NCCO)[nH]c(=Nc4ccc(S(=O)(=O)N5CCNCC5)cc4)c3C2)cc1F

>  <score_type>  (67) 
oracle

>  <origin>  (67) 
adg

>  <m_score__min__energy>  (67) 
-11.25

>  <m_primary>  (67) 
energy

$$$$
67:0
     RDKit          3D

 70 73  0  0  0  0  0  0  0  0999 V2000
   61.6060   30.7550   50.9440 C   0  0  0  0  0  0  0  0  0  0  0  0
   62.9300   30.4100   50.5520 O   0  0  0  0  0  0  0  0  0  0  0  0
   64.0200   31.2990   50.5490 C   0  0  0  0  0  0  0  0  0  0  0  0
   65.0080   31.2630   51.5530 C   0  0  0  0  0  0  0  0  0  0  0  0
   66.1060   32.1250   51.4930 C   0  0  0  0  0  0  0  0  0  0  0  0
   66.2350   33.0270   50.4350 C   0  0  0  0  0  0  0  0  0  0  0  0
   65.2610   33.0750   49.4360 C   0  0  0  0  0  0  0  0  0  0  0  0
   64.1410   32.2320   49.4950 C   0  0  0  0  0  0  0  0  0  0  0  0
   63.1570   32.3060   48.4500 N   0  0  0  0  0  0  0  0  0  0  0  0
   62.0960   33.2760   48.4520 C   0  0  0  0  0  0  0  0  0  0  0  0
   62.1930   34.3070   49.1740 O   0  0  0  0  0  0  0  0  0  0  0  0
   60.9010   33.0940   47.5950 C   0  0  0  0  0  0  0  0  0  0  0  0
   59.9340   32.1240   47.9070 C   0  0  0  0  0  0  0  0  0  0  0  0
   58.7830   31.9910   47.1240 C   0  0  0  0  0  0  0  0  0  0  0  0
   58.5850   32.8140   46.0060 C   0  0  0  0  0  0  0  0  0  0  0  0
   57.3100   32.7250   45.2130 C   0  0  0  0  0  0  0  0  0  0  0  0
   57.3510   31.5750   44.3150 N   0  0  0  0  0  0  0  0  0  0  0  0
   57.0300   30.2510   44.7520 C   0  0  0  0  0  0  0  0  0  0  0  0
   55.8230   29.8990   44.8640 O   0  0  0  0  0  0  0  0  0  0  0  0
   58.1370   29.3280   45.1880 C   0  0  0  0  0  0  0  0  0  0  0  0
   57.7700   28.6930   46.5510 C   0  0  0  0  0  0  0  0  0  0  0  0
   58.4690   27.3400   46.7380 C   0  0  0  0  0  0  0  0  0  0  0  0
   58.1010   26.3560   45.6920 N   0  0  0  0  0  0  0  0  0  0  0  0
   56.8850   25.2230   46.2500 S   0  0  0  0  0  0  0  0  0  0  0  0
   55.5930   25.9550   46.4900 O   0  0  0  0  0  0  0  0  0  0  0  0
   57.3200   24.6460   47.5670 O   0  0  0  0  0  0  0  0  0  0  0  0
   56.6060   23.9050   45.0940 C   0  0  0  0  0  0  0  0  0  0  0  0
   55.3930   23.4980   44.5470 C   0  0  0  0  0  0  0  0  0  0  0  0
   54.0390   24.0780   44.8030 C   0  0  0  0  0  0  0  0  0  0  0  0
   55.5940   22.4500   43.7270 N   0  0  0  0  0  0  0  0  0  0  0  0
   56.8870   22.1700   43.7360 N   0  0  0  0  0  0  0  0  0  0  0  0
   57.4730   21.0610   42.9940 C   0  0  0  0  0  0  0  0  0  0  0  0
   57.5390   23.0250   44.5540 C   0  0  0  0  0  0  0  0  0  0  0  0
   59.0060   22.9300   44.8670 C   0  0  0  0  0  0  0  0  0  0  0  0
   57.7070   26.9530   44.3950 C   0  0  0  0  0  0  0  0  0  0  0  0
   58.4640   28.2580   44.1150 C   0  0  0  0  0  0  0  0  0  0  0  0
   59.5500   33.7840   45.6910 C   0  0  0  0  0  0  0  0  0  0  0  0
   60.6960   33.9240   46.4790 C   0  0  0  0  0  0  0  0  0  0  0  0
   61.5413   30.7719   52.0420 H   0  0  0  0  0  0  0  0  0  0  0  0
   61.3532   31.7490   50.5465 H   0  0  0  0  0  0  0  0  0  0  0  0
   60.9002   30.0108   50.5465 H   0  0  0  0  0  0  0  0  0  0  0  0
   64.9144   30.5530   52.3879 H   0  0  0  0  0  0  0  0  0  0  0  0
   66.8716   32.0929   52.2822 H   0  0  0  0  0  0  0  0  0  0  0  0
   67.1040   33.6998   50.3886 H   0  0  0  0  0  0  0  0  0  0  0  0
   65.3723   33.7781   48.5974 H   0  0  0  0  0  0  0  0  0  0  0  0
   63.3270   31.7580   47.5760 H   0  0  0  0  0  0  0  0  0  0  0  0
   60.0833   31.4638   48.7741 H   0  0  0  0  0  0  0  0  0  0  0  0
   58.0278   31.2356   47.3869 H   0  0  0  0  0  0  0  0  0  0  0  0
   56.4603   32.6164   45.9031 H   0  0  0  0  0  0  0  0  0  0  0  0
   57.1956   33.6415   44.6156 H   0  0  0  0  0  0  0  0  0  0  0  0
   59.0576   29.9175   45.3103 H   0  0  0  0  0  0  0  0  0  0  0  0
   58.0806   29.3721   47.3587 H   0  0  0  0  0  0  0  0  0  0  0  0
   56.6824   28.5303   46.5783 H   0  0  0  0  0  0  0  0  0  0  0  0
   59.5570   27.4985   46.7047 H   0  0  0  0  0  0  0  0  0  0  0  0
   58.1467   26.9309   47.7069 H   0  0  0  0  0  0  0  0  0  0  0  0
   53.8702   24.1503   45.8876 H   0  0  0  0  0  0  0  0  0  0  0  0
   53.9790   25.0808   44.3549 H   0  0  0  0  0  0  0  0  0  0  0  0
   53.2717   23.4296   44.3549 H   0  0  0  0  0  0  0  0  0  0  0  0
   57.8671   20.3151   43.6999 H   0  0  0  0  0  0  0  0  0  0  0  0
   56.7030   20.5958   42.3610 H   0  0  0  0  0  0  0  0  0  0  0  0
   58.2912   21.4350   42.3610 H   0  0  0  0  0  0  0  0  0  0  0  0
   59.1484   22.9208   45.9577 H   0  0  0  0  0  0  0  0  0  0  0  0
   59.4136   22.0036   44.4362 H   0  0  0  0  0  0  0  0  0  0  0  0
   59.5297   23.7961   44.4362 H   0  0  0  0  0  0  0  0  0  0  0  0
   57.9262   26.2348   43.5912 H   0  0  0  0  0  0  0  0  0  0  0  0
   56.6322   27.1834   44.4371 H   0  0  0  0  0  0  0  0  0  0  0  0
   59.5453   28.0564   44.1251 H   0  0  0  0  0  0  0  0  0  0  0  0
   58.1538   28.6403   43.1313 H   0  0  0  0  0  0  0  0  0  0  0  0
   59.4033   34.4378   44.8187 H   0  0  0  0  0  0  0  0  0  0  0  0
   61.4434   34.6897   46.2239 H   0  0  0  0  0  0  0  0  0  0  0  0
  1  2  1  0
  2  3  1  0
  3  4  2  0
  4  5  1  0
  5  6  2  0
  6  7  1  0
  7  8  2  0
  8  9  1  0
  9 10  1  0
 10 11  2  0
 10 12  1  0
 12 13  2  0
 13 14  1  0
 14 15  2  0
 15 16  1  0
 16 17  1  0
 17 18  1  0
 18 19  2  0
 18 20  1  0
 20 21  1  0
 21 22  1  0
 22 23  1  0
 23 24  1  0
 24 25  2  0
 24 26  2  0
 24 27  1  0
 27 28  1  0
 28 29  1  0
 28 30  2  0
 30 31  1  0
 31 32  1  0
 31 33  1  0
 33 34  1  0
 23 35  1  0
 35 36  1  0
 15 37  1  0
 37 38  2  0
  8  3  1  0
 38 12  1  0
 36 20  1  0
 33 27  2  0
  1 39  1  0
  1 40  1  0
  1 41  1  0
  4 42  1  0
  5 43  1  0
  6 44  1  0
  7 45  1  0
  9 46  1  0
 13 47  1  0
 14 48  1  0
 16 49  1  0
 16 50  1  0
 20 51  1  0
 21 52  1  0
 21 53  1  0
 22 54  1  0
 22 55  1  0
 29 56  1  0
 29 57  1  0
 29 58  1  0
 32 59  1  0
 32 60  1  0
 32 61  1  0
 34 62  1  0
 34 63  1  0
 34 64  1  0
 35 65  1  0
 35 66  1  0
 36 67  1  0
 36 68  1  0
 37 69  1  0
 38 70  1  0
M  CHG  1  17  -1
M  END
>  <UniqueID>  (68) 
60

>  <SMILES>  (68) 
COc1ccccc1NC(=O)c1ccc(C[N-]C(=O)C2CCN(S(=O)(=O)c3c(C)nn(C)c3C)CC2)cc1

>  <Energy>  (68) 
112.0572796388287

>  <Genealogy>  (68) 
COc1ccccc1NC(=O)c1ccc(C[N-]C(=O)C2CCN(S(=O)(=O)c3c(C)nn(C)c3C)CC2)cc1 (protonated)
COc1ccccc1NC(=O)c1ccc(C[N-]C(=O)C2CCN(S(=O)(=O)c3c(C)nn(C)c3C)CC2)cc1 (3D coordinates assigned)
COc1ccccc1NC(=O)c1ccc(C[N-]C(=O)C2CCN(S(=O)(=O)c3c(C)nn(C)c3C)CC2)cc1 (nonaromatic ring conformer: 112.0572796388287 kcal/mol)

>  <smiles>  (68) 
COc1ccccc1NC(=O)c1ccc(CNC(=O)C2CCN(S(=O)(=O)c3c(C)nn(C)c3C)CC2)cc1

>  <score_type>  (68) 
oracle

>  <origin>  (68) 
adg

>  <m_score__min__energy>  (68) 
-11.890000000000001

>  <m_primary>  (68) 
energy

$$$$
68:0
     RDKit          3D

 28 30  0  0  0  0  0  0  0  0999 V2000
   57.4530   25.4360   47.0660 C   0  0  0  0  0  0  0  0  0  0  0  0
   57.4680   26.6670   46.5580 C   0  0  0  0  0  0  0  0  0  0  0  0
   58.8200   27.6630   46.5130 S   0  0  0  0  0  0  0  0  0  0  0  0
   58.0150   28.9520   45.7670 C   0  0  0  0  0  0  0  0  0  0  0  0
   58.5950   30.1210   45.4300 C   0  0  0  0  0  0  0  0  0  0  0  0
   58.0330   31.0590   43.9910 S   0  0  0  0  0  0  0  0  0  0  0  0
   58.5300   32.5180   44.8960 C   0  0  0  0  0  0  0  0  0  0  0  0
   58.2490   33.8300   44.5130 C   0  0  0  0  0  0  0  0  0  0  0  0
   58.7480   34.8870   45.2890 C   0  0  0  0  0  0  0  0  0  0  0  0
   59.5210   34.6200   46.4320 C   0  0  0  0  0  0  0  0  0  0  0  0
   59.7910   33.2960   46.8070 C   0  0  0  0  0  0  0  0  0  0  0  0
   59.2830   32.2520   46.0250 C   0  0  0  0  0  0  0  0  0  0  0  0
   59.4430   30.8680   46.3130 N   0  0  0  0  0  0  0  0  0  0  0  0
   60.7180   30.3490   46.8130 C   0  0  0  0  0  0  0  0  0  0  0  0
   56.6900   28.5370   45.5510 C   0  0  0  0  0  0  0  0  0  0  0  0
   55.8340   29.2300   44.9380 O   0  0  0  0  0  0  0  0  0  0  0  0
   56.3990   27.2840   46.0020 N   0  0  0  0  0  0  0  0  0  0  0  0
   55.1580   26.6920   45.8830 O   0  0  0  0  0  0  0  0  0  0  0  0
   56.5232   24.8484   47.0565 H   0  0  0  0  0  0  0  0  0  0  0  0
   58.3704   25.0069   47.4951 H   0  0  0  0  0  0  0  0  0  0  0  0
   57.6453   34.0325   43.6161 H   0  0  0  0  0  0  0  0  0  0  0  0
   58.5337   35.9271   45.0022 H   0  0  0  0  0  0  0  0  0  0  0  0
   59.9153   35.4519   47.0341 H   0  0  0  0  0  0  0  0  0  0  0  0
   60.3930   33.0810   47.7022 H   0  0  0  0  0  0  0  0  0  0  0  0
   60.7093   30.3526   47.9130 H   0  0  0  0  0  0  0  0  0  0  0  0
   60.8626   29.3205   46.4508 H   0  0  0  0  0  0  0  0  0  0  0  0
   61.5398   30.9842   46.4508 H   0  0  0  0  0  0  0  0  0  0  0  0
   54.3390   27.0920   46.3260 H   0  0  0  0  0  0  0  0  0  0  0  0
  1  2  2  0
  2  3  1  0
  3  4  1  0
  4  5  2  3
  5  6  1  0
  6  7  1  0
  7  8  2  0
  8  9  1  0
  9 10  2  0
 10 11  1  0
 11 12  2  0
 12 13  1  0
 13 14  1  0
  4 15  1  0
 15 16  2  0
 15 17  1  0
 17 18  1  0
 17  2  1  0
 13  5  1  0
 12  7  1  0
  1 19  1  0
  1 20  1  0
  8 21  1  0
  9 22  1  0
 10 23  1  0
 11 24  1  0
 14 25  1  0
 14 26  1  0
 14 27  1  0
 18 28  1  0
M  END
>  <UniqueID>  (69) 
61

>  <SMILES>  (69) 
C=c1sc(=C2Sc3ccccc3N2C)c(=O)n1O

>  <Energy>  (69) 
92.21500682117143

>  <Genealogy>  (69) 
C=c1sc(=C2Sc3ccccc3N2C)c(=O)n1O (3D coordinates assigned)
C=c1sc(=C2Sc3ccccc3N2C)c(=O)n1O (nonaromatic ring conformer: 92.21500682117143 kcal/mol)

>  <smiles>  (69) 
C=c1sc(=C2Sc3ccccc3N2C)c(=O)n1O

>  <score_type>  (69) 
oracle

>  <origin>  (69) 
adg

>  <m_score__min__energy>  (69) 
-8.6899999999999995

>  <m_primary>  (69) 
energy

$$$$
69:0
     RDKit          3D

 44 46  0  0  1  0  0  0  0  0999 V2000
   58.1490   31.9540   42.5560 C   0  0  0  0  0  0  0  0  0  0  0  0
   57.2400   31.0790   42.9510 C   0  0  0  0  0  0  0  0  0  0  0  0
   56.2760   30.4990   42.2200 N   0  0  0  0  0  0  0  0  0  0  0  0
   55.5530   29.6700   42.9780 N   0  0  0  0  0  0  0  0  0  0  0  0
   56.0260   29.6810   44.2430 C   0  0  0  0  0  0  0  0  0  0  0  0
   55.6220   29.0440   45.2480 O   0  0  0  0  0  0  0  0  0  0  0  0
   57.0800   30.5610   44.2310 C   0  0  0  0  0  0  0  0  0  0  0  0
   57.8230   30.8680   45.2640 C   0  0  0  0  0  0  0  0  0  0  0  0
   58.2670   32.2290   45.5750 C   0  0  0  0  0  0  0  0  0  0  0  0
   57.5500   33.3330   45.1690 C   0  0  0  0  0  0  0  0  0  0  0  0
   58.0440   34.5700   45.5090 C   0  0  0  0  0  0  0  0  0  0  0  0
   59.2250   34.7230   46.2370 C   0  0  0  0  0  0  0  0  0  0  0  0
   59.9420   33.6200   46.6450 C   0  0  0  0  0  0  0  0  0  0  0  0
   61.1240   33.8340   47.3750 N   0  0  0  0  0  0  0  0  0  0  0  0
   61.0160   34.0820   48.8020 C   0  0  0  0  0  0  0  0  0  0  0  0
   62.3410   34.5010   49.3950 C   0  0  0  0  0  0  0  0  0  0  0  0
   63.4350   33.6890   48.9880 N   0  0  0  0  0  0  0  0  0  0  0  0
   64.0060   32.9040   50.0590 C   0  0  0  0  0  0  0  0  0  0  0  0
   65.4850   32.7740   49.8160 C   0  0  0  0  0  0  0  0  0  0  0  0
   63.2750   32.9610   47.7720 C   0  0  0  0  0  0  0  0  0  0  0  0
   62.4580   33.8270   46.8110 C   0  0  0  0  0  0  0  0  0  0  0  0
   59.4420   32.3850   46.3010 C   0  0  0  0  0  0  0  0  0  0  0  0
   58.8832   32.3467   43.2748 H   0  0  0  0  0  0  0  0  0  0  0  0
   58.1711   32.2893   41.5086 H   0  0  0  0  0  0  0  0  0  0  0  0
   56.1020   30.6600   41.2040 H   0  0  0  0  0  0  0  0  0  0  0  0
   54.7410   29.0780   42.7010 H   0  0  0  0  0  0  0  0  0  0  0  0
   58.1323   30.0560   45.9385 H   0  0  0  0  0  0  0  0  0  0  0  0
   56.6177   33.2287   44.5946 H   0  0  0  0  0  0  0  0  0  0  0  0
   57.4907   35.4682   45.1973 H   0  0  0  0  0  0  0  0  0  0  0  0
   59.5857   35.7317   46.4867 H   0  0  0  0  0  0  0  0  0  0  0  0
   60.2803   34.8822   48.9707 H   0  0  0  0  0  0  0  0  0  0  0  0
   60.6998   33.1486   49.2907 H   0  0  0  0  0  0  0  0  0  0  0  0
   62.5457   35.5374   49.0886 H   0  0  0  0  0  0  0  0  0  0  0  0
   62.2515   34.3940   50.4861 H   0  0  0  0  0  0  0  0  0  0  0  0
   63.8304   33.4060   51.0219 H   0  0  0  0  0  0  0  0  0  0  0  0
   63.5389   31.9085   50.0885 H   0  0  0  0  0  0  0  0  0  0  0  0
   66.0123   32.7276   50.7803 H   0  0  0  0  0  0  0  0  0  0  0  0
   65.6834   31.8550   49.2450 H   0  0  0  0  0  0  0  0  0  0  0  0
   65.8407   33.6443   49.2450 H   0  0  0  0  0  0  0  0  0  0  0  0
   64.2603   32.7436   47.3339 H   0  0  0  0  0  0  0  0  0  0  0  0
   62.7606   32.0072   47.9607 H   0  0  0  0  0  0  0  0  0  0  0  0
   62.8660   34.8475   46.7646 H   0  0  0  0  0  0  0  0  0  0  0  0
   62.4751   33.4401   45.7814 H   0  0  0  0  0  0  0  0  0  0  0  0
   59.9938   31.4860   46.6128 H   0  0  0  0  0  0  0  0  0  0  0  0
  1  2  2  0
  2  3  1  0
  3  4  1  0
  4  5  1  0
  5  6  2  0
  5  7  1  0
  7  8  2  0
  8  9  1  0
  9 10  2  0
 10 11  1  0
 11 12  2  0
 12 13  1  0
 13 14  1  0
 14 15  1  0
 15 16  1  0
 16 17  1  0
 17 18  1  0
 18 19  1  0
 17 20  1  0
 20 21  1  0
 13 22  2  0
  7  2  1  0
 22  9  1  0
 21 14  1  0
  1 23  1  0
  1 24  1  0
  3 25  1  0
  4 26  1  0
  8 27  1  0
 10 28  1  0
 11 29  1  0
 12 30  1  0
 15 31  1  0
 15 32  1  0
 16 33  1  0
 16 34  1  0
 18 35  1  0
 18 36  1  0
 19 37  1  0
 19 38  1  0
 19 39  1  0
 20 40  1  0
 20 41  1  0
 21 42  1  0
 21 43  1  0
 22 44  1  0
M  END
>  <smiles>  (70) 
C=c1[nH][nH]c(=O)c1=Cc1cccc(N2CCN(CC)CC2)c1

>  <score_type>  (70) 
oracle

>  <origin>  (70) 
adg

>  <m_score__min__energy>  (70) 
-8.5899999999999999

>  <m_primary>  (70) 
energy

$$$$
70:0
     RDKit          3D

 32 34  0  0  0  0  0  0  0  0999 V2000
   53.9380   24.0920   46.3460 O   0  0  0  0  0  0  0  0  0  0  0  0
   54.8180   24.6340   45.6240 C   0  0  0  0  0  0  0  0  0  0  0  0
   55.0520   26.0450   45.6990 N   0  0  0  0  0  0  0  0  0  0  0  0
   56.2970   26.6720   46.0420 C   0  0  0  0  0  0  0  0  0  0  0  0
   56.5370   27.9760   45.5980 C   0  0  0  0  0  0  0  0  0  0  0  0
   57.7430   28.6270   45.9070 C   0  0  0  0  0  0  0  0  0  0  0  0
   57.9930   30.0200   45.4570 C   0  0  0  0  0  0  0  0  0  0  0  0
   57.5740   30.4470   44.1830 C   0  0  0  0  0  0  0  0  0  0  0  0
   57.8120   31.7600   43.7610 C   0  0  0  0  0  0  0  0  0  0  0  0
   58.4680   32.6600   44.6060 C   0  0  0  0  0  0  0  0  0  0  0  0
   58.7020   33.9630   44.1840 O   0  0  0  0  0  0  0  0  0  0  0  0
   58.8890   32.2480   45.8720 C   0  0  0  0  0  0  0  0  0  0  0  0
   58.6540   30.9360   46.2980 C   0  0  0  0  0  0  0  0  0  0  0  0
   58.7040   27.9270   46.6540 C   0  0  0  0  0  0  0  0  0  0  0  0
   58.4710   26.6470   47.0440 N   0  0  0  0  0  0  0  0  0  0  0  0
   57.3110   26.0020   46.7520 C   0  0  0  0  0  0  0  0  0  0  0  0
   57.1740   24.8000   47.1000 O   0  0  0  0  0  0  0  0  0  0  0  0
   55.5710   23.8170   44.6630 C   0  0  0  0  0  0  0  0  0  0  0  0
   56.5900   24.2750   43.8470 C   0  0  0  0  0  0  0  0  0  0  0  0
   57.0140   23.1890   43.1150 C   0  0  0  0  0  0  0  0  0  0  0  0
   56.2310   22.1340   43.5260 C   0  0  0  0  0  0  0  0  0  0  0  0
   56.3320   20.8390   43.0320 O   0  0  0  0  0  0  0  0  0  0  0  0
   55.3440   22.5010   44.4710 N   0  0  0  0  0  0  0  0  0  0  0  0
   55.7741   28.4972   45.0010 H   0  0  0  0  0  0  0  0  0  0  0  0
   57.0559   29.7438   43.5143 H   0  0  0  0  0  0  0  0  0  0  0  0
   57.4824   32.0843   42.7629 H   0  0  0  0  0  0  0  0  0  0  0  0
   59.4064   32.9563   46.5358 H   0  0  0  0  0  0  0  0  0  0  0  0
   58.9879   30.6179   47.2967 H   0  0  0  0  0  0  0  0  0  0  0  0
   59.6505   28.4178   46.9248 H   0  0  0  0  0  0  0  0  0  0  0  0
   56.9827   25.3012   43.7938 H   0  0  0  0  0  0  0  0  0  0  0  0
   57.8126   23.1685   42.3588 H   0  0  0  0  0  0  0  0  0  0  0  0
   57.0820   20.2280   43.3340 H   0  0  0  0  0  0  0  0  0  0  0  0
  1  2  2  0
  2  3  1  0
  3  4  1  0
  4  5  2  0
  5  6  1  0
  6  7  1  0
  7  8  2  0
  8  9  1  0
  9 10  2  0
 10 11  1  0
 10 12  1  0
 12 13  2  0
  6 14  2  0
 14 15  1  0
 15 16  1  0
 16 17  2  0
  2 18  1  0
 18 19  2  0
 19 20  1  0
 20 21  2  0
 21 22  1  0
 21 23  1  0
 16  4  1  0
 23 18  1  0
 13  7  1  0
  5 24  1  0
  8 25  1  0
  9 26  1  0
 12 27  1  0
 13 28  1  0
 14 29  1  0
 19 30  1  0
 20 31  1  0
 22 32  1  0
M  CHG  4   3  -1  11  -1  15  -1  23  -1
M  END
>  <UniqueID>  (71) 
62

>  <SMILES>  (71) 
O=C([N-]c1cc(-c2ccc([O-])cc2)c[n-]c1=O)c1ccc(O)[n-]1

>  <Energy>  (71) 
70.1738367657315

>  <Genealogy>  (71) 
O=C([N-]c1cc(-c2ccc([O-])cc2)c[n-]c1=O)c1ccc(O)[n-]1 (protonated)
O=C([N-]c1cc(-c2ccc([O-])cc2)c[n-]c1=O)c1ccc(O)[n-]1 (3D coordinates assigned)
O=C([N-]c1cc(-c2ccc([O-])cc2)c[n-]c1=O)c1ccc(O)[n-]1 (optimized conformer: 70.1738367657315 kcal/mol)

>  <smiles>  (71) 
O=C(Nc1cc(-c2ccc(O)cc2)c[nH]c1=O)c1ccc(O)[nH]1

>  <score_type>  (71) 
oracle

>  <origin>  (71) 
adg

>  <m_score__min__energy>  (71) 
-13.35

>  <m_primary>  (71) 
energy

$$$$
71:0
     RDKit          3D

 45 47  0  0  0  0  0  0  0  0999 V2000
   55.5940   27.0460   44.9640 H   0  0  0  0  0  0  0  0  0  0  0  0
   56.3560   27.3440   45.6120 N   0  0  0  0  0  0  0  0  0  0  0  0
   57.0170   28.4570   45.5210 C   0  0  0  0  0  0  0  0  0  0  0  0
   56.8340   29.2210   44.4130 N   0  0  0  0  0  0  0  0  0  0  0  0
   57.4450   30.4180   44.2450 C   0  0  0  0  0  0  0  0  0  0  0  0
   57.2830   30.9926   43.3211 H   0  0  0  0  0  0  0  0  0  0  0  0
   58.2760   30.9210   45.2380 C   0  0  0  0  0  0  0  0  0  0  0  0
   58.7545   31.9031   45.1096 H   0  0  0  0  0  0  0  0  0  0  0  0
   58.5050   30.1760   46.4050 C   0  0  0  0  0  0  0  0  0  0  0  0
   59.2710   30.7530   47.4800 N   0  0  0  0  0  0  0  0  0  0  0  0
   58.7640   31.0990   48.3250 H   0  0  0  0  0  0  0  0  0  0  0  0
   60.6990   30.9130   47.4370 C   0  0  0  0  0  0  0  0  0  0  0  0
   61.3880   30.1910   46.6660 O   0  0  0  0  0  0  0  0  0  0  0  0
   61.3800   31.8710   48.3400 C   0  0  0  0  0  0  0  0  0  0  0  0
   62.7420   31.6810   48.6340 C   0  0  0  0  0  0  0  0  0  0  0  0
   63.2928   30.8655   48.1424 H   0  0  0  0  0  0  0  0  0  0  0  0
   63.4130   32.5180   49.5480 C   0  0  0  0  0  0  0  0  0  0  0  0
   64.8510   32.3170   49.8700 C   0  0  0  0  0  0  0  0  0  0  0  0
   65.7200   33.0680   49.3460 O   0  0  0  0  0  0  0  0  0  0  0  0
   65.3120   31.2450   50.8110 C   0  0  0  0  0  0  0  0  0  0  0  0
   65.1676   31.5809   51.8485 H   0  0  0  0  0  0  0  0  0  0  0  0
   64.7283   30.3289   50.6375 H   0  0  0  0  0  0  0  0  0  0  0  0
   66.3784   31.0386   50.6375 H   0  0  0  0  0  0  0  0  0  0  0  0
   62.6920   33.5510   50.1710 C   0  0  0  0  0  0  0  0  0  0  0  0
   63.1947   34.2011   50.9022 H   0  0  0  0  0  0  0  0  0  0  0  0
   61.3450   33.7610   49.8720 C   0  0  0  0  0  0  0  0  0  0  0  0
   60.7945   34.5699   50.3747 H   0  0  0  0  0  0  0  0  0  0  0  0
   60.6900   32.9530   48.9400 C   0  0  0  0  0  0  0  0  0  0  0  0
   59.3540   33.2510   48.6330 O   0  0  0  0  0  0  0  0  0  0  0  0
   58.9050   33.6820   47.3770 C   0  0  0  0  0  0  0  0  0  0  0  0
   59.7510   34.3420   46.4640 C   0  0  0  0  0  0  0  0  0  0  0  0
   60.7992   34.5401   46.7326 H   0  0  0  0  0  0  0  0  0  0  0  0
   59.2630   34.7460   45.2180 C   0  0  0  0  0  0  0  0  0  0  0  0
   59.9279   35.2588   44.5075 H   0  0  0  0  0  0  0  0  0  0  0  0
   57.9310   34.4990   44.8740 C   0  0  0  0  0  0  0  0  0  0  0  0
   57.5505   34.8104   43.8900 H   0  0  0  0  0  0  0  0  0  0  0  0
   57.0830   33.8570   45.7790 C   0  0  0  0  0  0  0  0  0  0  0  0
   56.0339   33.6664   45.5085 H   0  0  0  0  0  0  0  0  0  0  0  0
   57.5660   33.4560   47.0290 C   0  0  0  0  0  0  0  0  0  0  0  0
   56.8914   32.9606   47.7428 H   0  0  0  0  0  0  0  0  0  0  0  0
   57.9000   28.9010   46.5440 C   0  0  0  0  0  0  0  0  0  0  0  0
   58.1860   28.0410   47.7550 C   0  0  0  0  0  0  0  0  0  0  0  0
   57.9933   28.6204   48.6700 H   0  0  0  0  0  0  0  0  0  0  0  0
   57.5341   27.1552   47.7379 H   0  0  0  0  0  0  0  0  0  0  0  0
   59.2386   27.7220   47.7379 H   0  0  0  0  0  0  0  0  0  0  0  0
  1  2  1  0
  2  3  2  0
  3  4  1  0
  4  5  1  0
  5  6  1  0
  5  7  2  0
  7  8  1  0
  7  9  1  0
  9 10  1  0
 10 11  1  0
 10 12  1  0
 12 13  2  0
 12 14  1  0
 14 15  2  0
 15 16  1  0
 15 17  1  0
 17 18  1  0
 18 19  2  0
 18 20  1  0
 20 21  1  0
 20 22  1  0
 20 23  1  0
 17 24  2  0
 24 25  1  0
 24 26  1  0
 26 27  1  0
 26 28  2  0
 28 29  1  0
 29 30  1  0
 30 31  2  0
 31 32  1  0
 31 33  1  0
 33 34  1  0
 33 35  2  0
 35 36  1  0
 35 37  1  0
 37 38  1  0
 37 39  2  0
 39 40  1  0
  9 41  2  0
 41 42  1  0
 42 43  1  0
 42 44  1  0
 42 45  1  0
 41  3  1  0
 28 14  1  0
 39 30  1  0
M  CHG  1   4  -1
M  END
>  <UniqueID>  (72) 
63

>  <SMILES>  (72) 
[H]/N=c1/[n-]ccc(NC(=O)c2cc(C(C)=O)ccc2Oc2ccccc2)c1C

>  <Energy>  (72) 
66.01413590610574

>  <Genealogy>  (72) 
CC(=O)c1ccc(Oc2ccccc2)c(C(=O)Nc2cc[n-]c(=N)c2C)c1 (protonated)
[H]/N=c1/[n-]ccc(NC(=O)c2cc(C(C)=O)ccc2Oc2ccccc2)c1C (cis-trans isomerization)
[H]/N=c1/[n-]ccc(NC(=O)c2cc(C(C)=O)ccc2Oc2ccccc2)c1C (3D coordinates assigned)
[H]/N=c1/[n-]ccc(NC(=O)c2cc(C(C)=O)ccc2Oc2ccccc2)c1C (optimized conformer: 66.01413590610574 kcal/mol)

>  <smiles>  (72) 
CC(=O)c1ccc(Oc2ccccc2)c(C(=O)Nc2cc[nH]c(=N)c2C)c1

>  <score_type>  (72) 
oracle

>  <origin>  (72) 
adg

>  <m_score__min__energy>  (72) 
-9.3699999999999992

>  <m_primary>  (72) 
energy

$$$$
72:0
     RDKit          3D

 50 53  0  0  0  0  0  0  0  0999 V2000
   55.5440   30.0970   43.1210 O   0  0  0  0  0  0  0  0  0  0  0  0
   56.0210   29.7670   44.2390 C   0  0  0  0  0  0  0  0  0  0  0  0
   55.1500   29.3570   45.2410 O   0  0  0  0  0  0  0  0  0  0  0  0
   57.4740   29.9000   44.5240 C   0  0  0  0  0  0  0  0  0  0  0  0
   58.2940   28.8840   44.5570 N   0  0  0  0  0  0  0  0  0  0  0  0
   57.9730   27.4920   44.4230 C   0  0  0  0  0  0  0  0  0  0  0  0
   57.4420   26.8050   45.5200 C   0  0  0  0  0  0  0  0  0  0  0  0
   57.0860   25.4580   45.4040 C   0  0  0  0  0  0  0  0  0  0  0  0
   57.2360   24.7850   44.1790 C   0  0  0  0  0  0  0  0  0  0  0  0
   56.8870   23.3920   44.0550 N   0  0  0  0  0  0  0  0  0  0  0  0
   56.4380   22.6470   45.2350 C   0  0  0  0  0  0  0  0  0  0  0  0
   56.7670   21.1600   45.0630 C   0  0  0  0  0  0  0  0  0  0  0  0
   56.2720   20.6720   43.8300 O   0  0  0  0  0  0  0  0  0  0  0  0
   56.9330   21.3170   42.7570 C   0  0  0  0  0  0  0  0  0  0  0  0
   56.6010   22.8120   42.7400 C   0  0  0  0  0  0  0  0  0  0  0  0
   57.7230   25.4920   43.0680 C   0  0  0  0  0  0  0  0  0  0  0  0
   58.0800   26.8380   43.1860 C   0  0  0  0  0  0  0  0  0  0  0  0
   58.0510   31.2540   44.6520 C   0  0  0  0  0  0  0  0  0  0  0  0
   57.9350   32.1860   43.6150 C   0  0  0  0  0  0  0  0  0  0  0  0
   57.2560   31.8610   42.4430 O   0  0  0  0  0  0  0  0  0  0  0  0
   58.4770   33.4200   43.7550 N   0  0  0  0  0  0  0  0  0  0  0  0
   59.1280   33.7880   44.8860 C   0  0  0  0  0  0  0  0  0  0  0  0
   59.6040   34.9520   44.9670 O   0  0  0  0  0  0  0  0  0  0  0  0
   59.2500   32.9070   45.9290 N   0  0  0  0  0  0  0  0  0  0  0  0
   59.9450   33.3020   47.1300 C   0  0  0  0  0  0  0  0  0  0  0  0
   61.3480   33.3910   47.1400 C   0  0  0  0  0  0  0  0  0  0  0  0
   62.0210   33.7650   48.3070 C   0  0  0  0  0  0  0  0  0  0  0  0
   61.3010   34.0530   49.4690 C   0  0  0  0  0  0  0  0  0  0  0  0
   59.9060   33.9640   49.4690 C   0  0  0  0  0  0  0  0  0  0  0  0
   59.2280   33.5890   48.3040 C   0  0  0  0  0  0  0  0  0  0  0  0
   58.7180   31.6470   45.8260 C   0  0  0  0  0  0  0  0  0  0  0  0
   58.8420   30.8240   46.7770 O   0  0  0  0  0  0  0  0  0  0  0  0
   57.3040   27.3271   46.4783 H   0  0  0  0  0  0  0  0  0  0  0  0
   56.6859   24.9214   46.2769 H   0  0  0  0  0  0  0  0  0  0  0  0
   56.9501   23.0338   46.1284 H   0  0  0  0  0  0  0  0  0  0  0  0
   55.3509   22.7686   45.3507 H   0  0  0  0  0  0  0  0  0  0  0  0
   57.8586   21.0272   45.0906 H   0  0  0  0  0  0  0  0  0  0  0  0
   56.2905   20.5981   45.8799 H   0  0  0  0  0  0  0  0  0  0  0  0
   58.0194   21.1892   42.8725 H   0  0  0  0  0  0  0  0  0  0  0  0
   56.5955   20.8680   41.8112 H   0  0  0  0  0  0  0  0  0  0  0  0
   57.2132   23.3147   41.9768 H   0  0  0  0  0  0  0  0  0  0  0  0
   55.5353   22.9478   42.5038 H   0  0  0  0  0  0  0  0  0  0  0  0
   57.8242   24.9830   42.0981 H   0  0  0  0  0  0  0  0  0  0  0  0
   58.4463   27.3869   42.3059 H   0  0  0  0  0  0  0  0  0  0  0  0
   56.8530   30.9420   42.3140 H   0  0  0  0  0  0  0  0  0  0  0  0
   61.9181   33.1656   46.2267 H   0  0  0  0  0  0  0  0  0  0  0  0
   63.1189   33.8326   48.3102 H   0  0  0  0  0  0  0  0  0  0  0  0
   61.8325   34.3502   50.3851 H   0  0  0  0  0  0  0  0  0  0  0  0
   59.3409   34.1889   50.3856 H   0  0  0  0  0  0  0  0  0  0  0  0
   58.1303   33.5186   48.3071 H   0  0  0  0  0  0  0  0  0  0  0  0
  1  2  2  0
  2  3  1  0
  2  4  1  0
  4  5  2  3
  5  6  1  0
  6  7  2  0
  7  8  1  0
  8  9  2  0
  9 10  1  0
 10 11  1  0
 11 12  1  0
 12 13  1  0
 13 14  1  0
 14 15  1  0
  9 16  1  0
 16 17  2  0
  4 18  1  0
 18 19  2  0
 19 20  1  0
 19 21  1  0
 21 22  1  0
 22 23  2  0
 22 24  1  0
 24 25  1  0
 25 26  2  0
 26 27  1  0
 27 28  2  0
 28 29  1  0
 29 30  2  0
 24 31  1  0
 31 32  2  0
 17  6  1  0
 31 18  1  0
 15 10  1  0
 30 25  1  0
  7 33  1  0
  8 34  1  0
 11 35  1  0
 11 36  1  0
 12 37  1  0
 12 38  1  0
 14 39  1  0
 14 40  1  0
 15 41  1  0
 15 42  1  0
 16 43  1  0
 17 44  1  0
 20 45  1  0
 26 46  1  0
 27 47  1  0
 28 48  1  0
 29 49  1  0
 30 50  1  0
M  CHG  2   3  -1  21  -1
M  END
>  <UniqueID>  (73) 
64

>  <SMILES>  (73) 
O=C([O-])C(=Nc1ccc(N2CCOCC2)cc1)c1c(O)[n-]c(=O)n(-c2ccccc2)c1=O

>  <Energy>  (73) 
87.29229401942091

>  <Genealogy>  (73) 
O=C([O-])C(=Nc1ccc(N2CCOCC2)cc1)c1c(O)[n-]c(=O)n(-c2ccccc2)c1=O (protonated)
O=C([O-])C(=Nc1ccc(N2CCOCC2)cc1)c1c(O)[n-]c(=O)n(-c2ccccc2)c1=O (3D coordinates assigned)
O=C([O-])C(=Nc1ccc(N2CCOCC2)cc1)c1c(O)[n-]c(=O)n(-c2ccccc2)c1=O (nonaromatic ring conformer: 87.29229401942091 kcal/mol)

>  <smiles>  (73) 
O=C(O)C(=Nc1ccc(N2CCOCC2)cc1)c1c(O)[nH]c(=O)n(-c2ccccc2)c1=O

>  <score_type>  (73) 
oracle

>  <origin>  (73) 
adg

>  <m_score__min__energy>  (73) 
-11.880000000000001

>  <m_primary>  (73) 
energy

$$$$
73:0
     RDKit          3D

 48 51  0  0  0  0  0  0  0  0999 V2000
   61.4166   27.5548   48.6915 H   0  0  0  0  0  0  0  0  0  0  0  0
   60.6170   27.4390   47.9450 C   0  0  0  0  0  0  0  0  0  0  0  0
   60.4290   26.4561   47.4884 H   0  0  0  0  0  0  0  0  0  0  0  0
   59.8700   28.4980   47.5910 C   0  0  0  0  0  0  0  0  0  0  0  0
   58.8200   28.5030   46.6570 C   0  0  0  0  0  0  0  0  0  0  0  0
   58.4160   27.5700   45.7720 C   0  0  0  0  0  0  0  0  0  0  0  0
   59.0613   27.3946   44.8986 H   0  0  0  0  0  0  0  0  0  0  0  0
   57.1890   26.7660   45.8710 C   0  0  0  0  0  0  0  0  0  0  0  0
   57.1550   25.5190   46.3740 N   0  0  0  0  0  0  0  0  0  0  0  0
   55.8370   25.2260   46.3910 C   0  0  0  0  0  0  0  0  0  0  0  0
   55.3950   24.1170   46.7900 O   0  0  0  0  0  0  0  0  0  0  0  0
   55.0270   26.2170   45.9590 N   0  0  0  0  0  0  0  0  0  0  0  0
   55.8990   27.1910   45.6480 C   0  0  0  0  0  0  0  0  0  0  0  0
   55.5190   28.4490   45.1970 O   0  0  0  0  0  0  0  0  0  0  0  0
   58.2150   29.7390   46.7610 C   0  0  0  0  0  0  0  0  0  0  0  0
   57.3255   30.0792   46.2105 H   0  0  0  0  0  0  0  0  0  0  0  0
   58.9350   30.4680   47.6850 C   0  0  0  0  0  0  0  0  0  0  0  0
   58.6350   31.8750   48.0330 C   0  0  0  0  0  0  0  0  0  0  0  0
   58.4720   32.1950   49.2410 O   0  0  0  0  0  0  0  0  0  0  0  0
   58.5900   32.8960   47.0180 N   0  0  0  0  0  0  0  0  0  0  0  0
   59.0490   34.2500   47.3490 C   0  0  0  0  0  0  0  0  0  0  0  0
   59.9442   34.1780   47.9841 H   0  0  0  0  0  0  0  0  0  0  0  0
   58.2346   34.7700   47.8746 H   0  0  0  0  0  0  0  0  0  0  0  0
   59.3890   35.0370   46.1150 C   0  0  0  0  0  0  0  0  0  0  0  0
   59.9900   36.1380   46.2300 O   0  0  0  0  0  0  0  0  0  0  0  0
   58.9870   34.5820   44.8170 N   0  0  0  0  0  0  0  0  0  0  0  0
   59.2070   35.1730   43.9840 H   0  0  0  0  0  0  0  0  0  0  0  0
   58.5020   33.2230   44.5960 C   0  0  0  0  0  0  0  0  0  0  0  0
   59.3577   32.5626   44.3921 H   0  0  0  0  0  0  0  0  0  0  0  0
   57.8121   33.2278   43.7392 H   0  0  0  0  0  0  0  0  0  0  0  0
   57.7560   32.7120   45.8250 C   0  0  0  0  0  0  0  0  0  0  0  0
   57.5296   31.6431   45.6978 H   0  0  0  0  0  0  0  0  0  0  0  0
   56.8185   33.2750   45.9439 H   0  0  0  0  0  0  0  0  0  0  0  0
   59.9470   29.7200   48.1930 N   0  0  0  0  0  0  0  0  0  0  0  0
   60.8860   30.1520   49.2440 C   0  0  0  0  0  0  0  0  0  0  0  0
   60.3132   30.4533   50.1335 H   0  0  0  0  0  0  0  0  0  0  0  0
   61.5554   29.3106   49.4763 H   0  0  0  0  0  0  0  0  0  0  0  0
   61.7300   31.3170   48.7860 C   0  0  0  0  0  0  0  0  0  0  0  0
   62.3920   31.2610   47.5470 C   0  0  0  0  0  0  0  0  0  0  0  0
   62.3095   30.3588   46.9232 H   0  0  0  0  0  0  0  0  0  0  0  0
   63.1550   32.3460   47.1030 C   0  0  0  0  0  0  0  0  0  0  0  0
   63.6806   32.2891   46.1384 H   0  0  0  0  0  0  0  0  0  0  0  0
   63.2510   33.5020   47.8820 C   0  0  0  0  0  0  0  0  0  0  0  0
   63.9890   34.5530   47.4490 F   0  0  0  0  0  0  0  0  0  0  0  0
   62.5800   33.5760   49.1050 C   0  0  0  0  0  0  0  0  0  0  0  0
   62.6518   34.4878   49.7162 H   0  0  0  0  0  0  0  0  0  0  0  0
   61.8170   32.4930   49.5540 C   0  0  0  0  0  0  0  0  0  0  0  0
   61.2820   32.5610   50.5127 H   0  0  0  0  0  0  0  0  0  0  0  0
  1  2  1  0
  2  3  1  0
  2  4  2  0
  4  5  1  0
  5  6  2  0
  6  7  1  0
  6  8  1  0
  8  9  1  0
  9 10  1  0
 10 11  2  0
 10 12  1  0
 12 13  1  0
 13 14  1  0
  5 15  1  0
 15 16  1  0
 15 17  2  0
 17 18  1  0
 18 19  2  0
 18 20  1  0
 20 21  1  0
 21 22  1  0
 21 23  1  0
 21 24  1  0
 24 25  2  0
 24 26  1  0
 26 27  1  0
 26 28  1  0
 28 29  1  0
 28 30  1  0
 28 31  1  0
 31 32  1  0
 31 33  1  0
 17 34  1  0
 34 35  1  0
 35 36  1  0
 35 37  1  0
 35 38  1  0
 38 39  2  0
 39 40  1  0
 39 41  1  0
 41 42  1  0
 41 43  2  0
 43 44  1  0
 43 45  1  0
 45 46  1  0
 45 47  2  0
 47 48  1  0
 34  4  1  0
 47 38  1  0
 13  8  2  0
 31 20  1  0
M  CHG  3   9  -1  12  -1  14  -1
M  END
>  <UniqueID>  (74) 
65

>  <SMILES>  (74) 
C=c1/c(=C\c2[n-]c(=O)[n-]c2[O-])cc(C(=O)N2CCNC(=O)C2)n1Cc1ccc(F)cc1

>  <Energy>  (74) 
126.05068717068211

>  <Genealogy>  (74) 
C=c1c(=Cc2[n-]c(=O)[n-]c2[O-])cc(C(=O)N2CCNC(=O)C2)n1Cc1ccc(F)cc1 (protonated)
C=c1/c(=C\c2[n-]c(=O)[n-]c2[O-])cc(C(=O)N2CCNC(=O)C2)n1Cc1ccc(F)cc1 (cis-trans isomerization)
C=c1/c(=C\c2[n-]c(=O)[n-]c2[O-])cc(C(=O)N2CCNC(=O)C2)n1Cc1ccc(F)cc1 (3D coordinates assigned)
C=c1/c(=C\c2[n-]c(=O)[n-]c2[O-])cc(C(=O)N2CCNC(=O)C2)n1Cc1ccc(F)cc1 (nonaromatic ring conformer: 126.05068717068211 kcal/mol)

>  <smiles>  (74) 
C=c1c(=Cc2[nH]c(=O)[nH]c2O)cc(C(=O)N2CCNC(=O)C2)n1Cc1ccc(F)cc1

>  <score_type>  (74) 
oracle

>  <origin>  (74) 
adg

>  <m_score__min__energy>  (74) 
-16.530000000000001

>  <m_primary>  (74) 
energy

$$$$
74:0
     RDKit          3D

 50 53  0  0  0  0  0  0  0  0999 V2000
   54.5626   30.3647   43.6694 H   0  0  0  0  0  0  0  0  0  0  0  0
   55.5010   30.1230   44.1900 C   0  0  0  0  0  0  0  0  0  0  0  0
   55.6230   28.9450   44.8580 N   0  0  0  0  0  0  0  0  0  0  0  0
   56.7690   28.6020   45.5110 C   0  0  0  0  0  0  0  0  0  0  0  0
   56.8770   27.4670   46.1400 N   0  0  0  0  0  0  0  0  0  0  0  0
   56.1360   26.2590   45.8910 C   0  0  0  0  0  0  0  0  0  0  0  0
   54.8780   26.2490   45.9960 O   0  0  0  0  0  0  0  0  0  0  0  0
   56.8480   25.0080   45.5180 C   0  0  0  0  0  0  0  0  0  0  0  0
   58.1870   24.8210   45.9150 C   0  0  0  0  0  0  0  0  0  0  0  0
   58.6959   25.6019   46.4991 H   0  0  0  0  0  0  0  0  0  0  0  0
   58.8750   23.6530   45.5740 C   0  0  0  0  0  0  0  0  0  0  0  0
   59.9211   23.5211   45.8874 H   0  0  0  0  0  0  0  0  0  0  0  0
   58.2380   22.6540   44.8370 C   0  0  0  0  0  0  0  0  0  0  0  0
   58.7813   21.7353   44.5708 H   0  0  0  0  0  0  0  0  0  0  0  0
   56.9120   22.8210   44.4380 C   0  0  0  0  0  0  0  0  0  0  0  0
   56.4115   22.0317   43.8580 H   0  0  0  0  0  0  0  0  0  0  0  0
   56.2150   23.9880   44.7720 C   0  0  0  0  0  0  0  0  0  0  0  0
   54.9230   24.1030   44.3700 F   0  0  0  0  0  0  0  0  0  0  0  0
   57.8560   29.4840   45.5030 C   0  0  0  0  0  0  0  0  0  0  0  0
   58.7907   29.2107   46.0144 H   0  0  0  0  0  0  0  0  0  0  0  0
   57.7520   30.7130   44.8440 C   0  0  0  0  0  0  0  0  0  0  0  0
   58.8600   31.5740   44.8430 O   0  0  0  0  0  0  0  0  0  0  0  0
   59.4500   32.1420   45.9810 C   0  0  0  0  0  0  0  0  0  0  0  0
   59.0640   33.4300   46.3680 C   0  0  0  0  0  0  0  0  0  0  0  0
   58.3003   33.9689   45.7880 H   0  0  0  0  0  0  0  0  0  0  0  0
   59.6420   34.0360   47.4860 C   0  0  0  0  0  0  0  0  0  0  0  0
   59.3132   35.0398   47.7931 H   0  0  0  0  0  0  0  0  0  0  0  0
   60.6360   33.3770   48.2190 C   0  0  0  0  0  0  0  0  0  0  0  0
   61.1900   34.0290   49.3720 N   0  0  0  0  0  0  0  0  0  0  0  0
   62.3570   33.6310   50.1010 C   0  0  0  0  0  0  0  0  0  0  0  0
   62.4170   33.7950   51.3490 O   0  0  0  0  0  0  0  0  0  0  0  0
   63.4510   33.0330   49.3920 N   0  0  0  0  0  0  0  0  0  0  0  0
   63.4570   33.1290   48.3510 H   0  0  0  0  0  0  0  0  0  0  0  0
   64.5950   32.4330   50.0240 C   0  0  0  0  0  0  0  0  0  0  0  0
   65.8620   33.0440   49.9840 C   0  0  0  0  0  0  0  0  0  0  0  0
   65.9950   33.9944   49.4463 H   0  0  0  0  0  0  0  0  0  0  0  0
   66.9530   32.4480   50.6250 C   0  0  0  0  0  0  0  0  0  0  0  0
   67.9433   32.9247   50.5800 H   0  0  0  0  0  0  0  0  0  0  0  0
   66.7880   31.2490   51.3220 C   0  0  0  0  0  0  0  0  0  0  0  0
   67.6490   30.7789   51.8197 H   0  0  0  0  0  0  0  0  0  0  0  0
   65.5270   30.6460   51.3870 C   0  0  0  0  0  0  0  0  0  0  0  0
   65.3180   29.1470   52.2720 Cl  0  0  0  0  0  0  0  0  0  0  0  0
   64.4340   31.2400   50.7460 C   0  0  0  0  0  0  0  0  0  0  0  0
   63.4420   30.7688   50.8083 H   0  0  0  0  0  0  0  0  0  0  0  0
   61.0250   32.0800   47.8350 C   0  0  0  0  0  0  0  0  0  0  0  0
   61.7874   31.5417   48.4173 H   0  0  0  0  0  0  0  0  0  0  0  0
   60.4460   31.4730   46.7160 C   0  0  0  0  0  0  0  0  0  0  0  0
   60.7708   30.4679   46.4090 H   0  0  0  0  0  0  0  0  0  0  0  0
   56.5650   31.0260   44.1640 C   0  0  0  0  0  0  0  0  0  0  0  0
   56.4739   31.9749   43.6152 H   0  0  0  0  0  0  0  0  0  0  0  0
  1  2  1  0
  2  3  1  0
  3  4  1  0
  4  5  2  0
  5  6  1  0
  6  7  2  0
  6  8  1  0
  8  9  2  0
  9 10  1  0
  9 11  1  0
 11 12  1  0
 11 13  2  0
 13 14  1  0
 13 15  1  0
 15 16  1  0
 15 17  2  0
 17 18  1  0
  4 19  1  0
 19 20  1  0
 19 21  2  0
 21 22  1  0
 22 23  1  0
 23 24  2  0
 24 25  1  0
 24 26  1  0
 26 27  1  0
 26 28  2  0
 28 29  1  0
 29 30  1  0
 30 31  2  0
 30 32  1  0
 32 33  1  0
 32 34  1  0
 34 35  2  0
 35 36  1  0
 35 37  1  0
 37 38  1  0
 37 39  2  0
 39 40  1  0
 39 41  1  0
 41 42  1  0
 41 43  2  0
 43 44  1  0
 28 45  1  0
 45 46  1  0
 45 47  2  0
 47 48  1  0
 21 49  1  0
 49 50  1  0
 49  2  2  0
 17  8  1  0
 47 23  1  0
 43 34  1  0
M  CHG  2   3  -1  29  -1
M  END
>  <UniqueID>  (75) 
66

>  <SMILES>  (75) 
O=C([N-]c1ccc(Oc2cc[n-]/c(=N\C(=O)c3ccccc3F)c2)cc1)Nc1cccc(Cl)c1

>  <Energy>  (75) 
74.07799323963556

>  <Genealogy>  (75) 
O=C([N-]c1ccc(Oc2cc[n-]c(=NC(=O)c3ccccc3F)c2)cc1)Nc1cccc(Cl)c1 (protonated)
O=C([N-]c1ccc(Oc2cc[n-]/c(=N\C(=O)c3ccccc3F)c2)cc1)Nc1cccc(Cl)c1 (cis-trans isomerization)
O=C([N-]c1ccc(Oc2cc[n-]/c(=N\C(=O)c3ccccc3F)c2)cc1)Nc1cccc(Cl)c1 (3D coordinates assigned)
O=C([N-]c1ccc(Oc2cc[n-]/c(=N\C(=O)c3ccccc3F)c2)cc1)Nc1cccc(Cl)c1 (optimized conformer: 74.07799323963556 kcal/mol)

>  <smiles>  (75) 
O=C(Nc1ccc(Oc2cc[nH]c(=NC(=O)c3ccccc3F)c2)cc1)Nc1cccc(Cl)c1

>  <score_type>  (75) 
oracle

>  <origin>  (75) 
adg

>  <m_score__min__energy>  (75) 
-11.6

>  <m_primary>  (75) 
energy

$$$$
75:0
     RDKit          3D

 50 52  0  0  0  0  0  0  0  0999 V2000
   56.0590   23.4350   47.9260 C   0  0  0  0  0  0  0  0  0  0  0  0
   56.3660   24.4720   46.5130 S   0  0  0  0  0  0  0  0  0  0  0  0
   56.5680   23.6350   45.2810 O   0  0  0  0  0  0  0  0  0  0  0  0
   55.1760   25.3630   46.3010 O   0  0  0  0  0  0  0  0  0  0  0  0
   57.7620   25.4630   46.7920 N   0  0  0  0  0  0  0  0  0  0  0  0
   58.1160   26.6400   46.0540 C   0  0  0  0  0  0  0  0  0  0  0  0
   59.4290   26.8860   45.6150 C   0  0  0  0  0  0  0  0  0  0  0  0
   59.7250   28.0480   44.8980 C   0  0  0  0  0  0  0  0  0  0  0  0
   58.7220   28.9780   44.6210 C   0  0  0  0  0  0  0  0  0  0  0  0
   57.4120   28.7560   45.0680 C   0  0  0  0  0  0  0  0  0  0  0  0
   56.3450   29.7340   44.7870 C   0  0  0  0  0  0  0  0  0  0  0  0
   55.1430   29.3870   44.9340 O   0  0  0  0  0  0  0  0  0  0  0  0
   56.6320   31.0780   44.3770 N   0  0  0  0  0  0  0  0  0  0  0  0
   57.2010   32.1230   45.2280 C   0  0  0  0  0  0  0  0  0  0  0  0
   58.1520   31.4890   46.2490 C   0  0  0  0  0  0  0  0  0  0  0  0
   58.7870   32.5550   47.1710 C   0  0  0  0  0  0  0  0  0  0  0  0
   58.6680   33.9250   46.6210 N   0  0  0  0  0  0  0  0  0  0  0  0
   59.5130   34.8650   47.3850 C   0  0  0  0  0  0  0  0  0  0  0  0
   60.8250   34.2160   47.7420 C   0  0  0  0  0  0  0  0  0  0  0  0
   61.7380   33.8460   46.7400 C   0  0  0  0  0  0  0  0  0  0  0  0
   62.9610   33.2640   47.0850 C   0  0  0  0  0  0  0  0  0  0  0  0
   63.2830   33.0490   48.4280 C   0  0  0  0  0  0  0  0  0  0  0  0
   62.3800   33.4160   49.4300 C   0  0  0  0  0  0  0  0  0  0  0  0
   61.1550   33.9990   49.0900 C   0  0  0  0  0  0  0  0  0  0  0  0
   59.0130   33.9370   45.1850 C   0  0  0  0  0  0  0  0  0  0  0  0
   57.9510   33.1700   44.3750 C   0  0  0  0  0  0  0  0  0  0  0  0
   57.1120   27.5750   45.7650 C   0  0  0  0  0  0  0  0  0  0  0  0
   56.2295   24.0110   48.8475 H   0  0  0  0  0  0  0  0  0  0  0  0
   55.0176   23.0814   47.9020 H   0  0  0  0  0  0  0  0  0  0  0  0
   56.7400   22.5715   47.9020 H   0  0  0  0  0  0  0  0  0  0  0  0
   60.2259   26.1610   45.8369 H   0  0  0  0  0  0  0  0  0  0  0  0
   60.7526   28.2306   44.5505 H   0  0  0  0  0  0  0  0  0  0  0  0
   58.9600   29.8878   44.0503 H   0  0  0  0  0  0  0  0  0  0  0  0
   56.3856   32.6350   45.7599 H   0  0  0  0  0  0  0  0  0  0  0  0
   57.5886   30.7732   46.8656 H   0  0  0  0  0  0  0  0  0  0  0  0
   58.9596   30.9828   45.7000 H   0  0  0  0  0  0  0  0  0  0  0  0
   58.2823   32.5221   48.1478 H   0  0  0  0  0  0  0  0  0  0  0  0
   59.8585   32.3232   47.2610 H   0  0  0  0  0  0  0  0  0  0  0  0
   59.7048   35.7594   46.7741 H   0  0  0  0  0  0  0  0  0  0  0  0
   58.9892   35.1464   48.3104 H   0  0  0  0  0  0  0  0  0  0  0  0
   61.4896   34.0148   45.6818 H   0  0  0  0  0  0  0  0  0  0  0  0
   63.6721   32.9743   46.2973 H   0  0  0  0  0  0  0  0  0  0  0  0
   64.2465   32.5912   48.6964 H   0  0  0  0  0  0  0  0  0  0  0  0
   62.6331   33.2461   50.4869 H   0  0  0  0  0  0  0  0  0  0  0  0
   60.4475   34.2886   49.8810 H   0  0  0  0  0  0  0  0  0  0  0  0
   59.0581   34.9775   44.8311 H   0  0  0  0  0  0  0  0  0  0  0  0
   59.9897   33.4501   45.0470 H   0  0  0  0  0  0  0  0  0  0  0  0
   57.2209   33.8908   43.9784 H   0  0  0  0  0  0  0  0  0  0  0  0
   58.4692   32.6340   43.5662 H   0  0  0  0  0  0  0  0  0  0  0  0
   56.0785   27.3811   46.0878 H   0  0  0  0  0  0  0  0  0  0  0  0
  1  2  1  0
  2  3  2  0
  2  4  2  0
  2  5  1  0
  5  6  1  0
  6  7  2  0
  7  8  1  0
  8  9  2  0
  9 10  1  0
 10 11  1  0
 11 12  2  0
 11 13  1  0
 13 14  1  0
 14 15  1  0
 15 16  1  0
 16 17  1  0
 17 18  1  0
 18 19  1  0
 19 20  2  0
 20 21  1  0
 21 22  2  0
 22 23  1  0
 23 24  2  0
 17 25  1  0
 25 26  1  0
 10 27  2  0
 27  6  1  0
 26 14  1  0
 24 19  1  0
  1 28  1  0
  1 29  1  0
  1 30  1  0
  7 31  1  0
  8 32  1  0
  9 33  1  0
 14 34  1  0
 15 35  1  0
 15 36  1  0
 16 37  1  0
 16 38  1  0
 18 39  1  0
 18 40  1  0
 20 41  1  0
 21 42  1  0
 22 43  1  0
 23 44  1  0
 24 45  1  0
 25 46  1  0
 25 47  1  0
 26 48  1  0
 26 49  1  0
 27 50  1  0
M  CHG  2   5  -1  13  -1
M  END
>  <UniqueID>  (76) 
67

>  <SMILES>  (76) 
CS(=O)(=O)[N-]c1cccc(C(=O)[N-]C2CCN(Cc3ccccc3)CC2)c1

>  <Energy>  (76) 
58.61105325271172

>  <Genealogy>  (76) 
CS(=O)(=O)[N-]c1cccc(C(=O)[N-]C2CCN(Cc3ccccc3)CC2)c1 (protonated)
CS(=O)(=O)[N-]c1cccc(C(=O)[N-]C2CCN(Cc3ccccc3)CC2)c1 (3D coordinates assigned)
CS(=O)(=O)[N-]c1cccc(C(=O)[N-]C2CCN(Cc3ccccc3)CC2)c1 (nonaromatic ring conformer: 58.61105325271172 kcal/mol)

>  <smiles>  (76) 
CS(=O)(=O)Nc1cccc(C(=O)NC2CCN(Cc3ccccc3)CC2)c1

>  <score_type>  (76) 
oracle

>  <origin>  (76) 
adg

>  <m_score__min__energy>  (76) 
-13.119999999999999

>  <m_primary>  (76) 
energy

$$$$
76:0
     RDKit          3D

 55 58  0  0  0  0  0  0  0  0999 V2000
   59.9012   28.3513   50.6855 H   0  0  0  0  0  0  0  0  0  0  0  0
   59.8070   28.6120   49.6210 C   0  0  0  0  0  0  0  0  0  0  0  0
   60.0080   27.5650   48.6050 C   0  0  0  0  0  0  0  0  0  0  0  0
   61.1400   27.0090   48.5350 O   0  0  0  0  0  0  0  0  0  0  0  0
   58.9670   27.1910   47.6830 N   0  0  0  0  0  0  0  0  0  0  0  0
   58.9400   25.8440   47.1060 C   0  0  0  0  0  0  0  0  0  0  0  0
   59.7656   25.2527   47.5289 H   0  0  0  0  0  0  0  0  0  0  0  0
   57.9746   25.3743   47.3456 H   0  0  0  0  0  0  0  0  0  0  0  0
   59.0950   25.9080   45.5780 C   0  0  0  0  0  0  0  0  0  0  0  0
   60.1677   25.9607   45.3404 H   0  0  0  0  0  0  0  0  0  0  0  0
   58.6166   25.0055   45.1699 H   0  0  0  0  0  0  0  0  0  0  0  0
   58.3880   27.1290   44.9250 C   0  0  0  0  0  0  0  0  0  0  0  0
   59.1384   27.9098   44.7323 H   0  0  0  0  0  0  0  0  0  0  0  0
   57.7710   26.7210   43.5650 C   0  0  0  0  0  0  0  0  0  0  0  0
   58.4949   26.0825   43.0375 H   0  0  0  0  0  0  0  0  0  0  0  0
   56.8267   26.2050   43.7932 H   0  0  0  0  0  0  0  0  0  0  0  0
   57.4120   27.9010   42.6450 C   0  0  0  0  0  0  0  0  0  0  0  0
   58.2453   28.0770   41.9489 H   0  0  0  0  0  0  0  0  0  0  0  0
   56.4916   27.6441   42.1001 H   0  0  0  0  0  0  0  0  0  0  0  0
   57.1650   29.1230   43.4070 N   0  0  0  0  0  0  0  0  0  0  0  0
   55.9780   29.5000   43.8520 N   0  0  0  0  0  0  0  0  0  0  0  0
   56.0760   30.6450   44.5090 N   0  0  0  0  0  0  0  0  0  0  0  0
   57.3770   31.0060   44.4800 C   0  0  0  0  0  0  0  0  0  0  0  0
   57.9130   32.2380   45.1030 C   0  0  0  0  0  0  0  0  0  0  0  0
   57.9320   32.3640   46.5060 C   0  0  0  0  0  0  0  0  0  0  0  0
   57.5489   31.5452   47.1328 H   0  0  0  0  0  0  0  0  0  0  0  0
   58.4350   33.5240   47.1090 C   0  0  0  0  0  0  0  0  0  0  0  0
   58.4470   33.6123   48.2054 H   0  0  0  0  0  0  0  0  0  0  0  0
   58.9210   34.5680   46.3200 C   0  0  0  0  0  0  0  0  0  0  0  0
   59.3163   35.4783   46.7944 H   0  0  0  0  0  0  0  0  0  0  0  0
   58.9050   34.4560   44.9260 C   0  0  0  0  0  0  0  0  0  0  0  0
   59.2867   35.2801   44.3054 H   0  0  0  0  0  0  0  0  0  0  0  0
   58.4050   33.2990   44.3180 C   0  0  0  0  0  0  0  0  0  0  0  0
   58.3961   33.2177   43.2210 H   0  0  0  0  0  0  0  0  0  0  0  0
   58.0740   30.0380   43.7800 C   0  0  0  0  0  0  0  0  0  0  0  0
   59.1539   30.0212   43.5712 H   0  0  0  0  0  0  0  0  0  0  0  0
   57.3470   27.7560   45.8780 C   0  0  0  0  0  0  0  0  0  0  0  0
   56.8864   28.6275   45.3898 H   0  0  0  0  0  0  0  0  0  0  0  0
   56.5777   27.0054   46.1120 H   0  0  0  0  0  0  0  0  0  0  0  0
   58.0220   28.2040   47.1830 C   0  0  0  0  0  0  0  0  0  0  0  0
   58.5682   29.1408   46.9985 H   0  0  0  0  0  0  0  0  0  0  0  0
   57.2392   28.3472   47.9424 H   0  0  0  0  0  0  0  0  0  0  0  0
   59.5130   29.8710   49.2820 C   0  0  0  0  0  0  0  0  0  0  0  0
   58.4666   30.2057   49.3366 H   0  0  0  0  0  0  0  0  0  0  0  0
   60.5450   30.8270   48.8370 C   0  0  0  0  0  0  0  0  0  0  0  0
   61.1230   31.6710   49.8000 C   0  0  0  0  0  0  0  0  0  0  0  0
   60.7991   31.6027   50.8490 H   0  0  0  0  0  0  0  0  0  0  0  0
   62.1050   32.5960   49.4380 C   0  0  0  0  0  0  0  0  0  0  0  0
   62.5396   33.2623   50.1977 H   0  0  0  0  0  0  0  0  0  0  0  0
   62.5350   32.6750   48.1120 C   0  0  0  0  0  0  0  0  0  0  0  0
   63.7830   33.8280   47.6660 Cl  0  0  0  0  0  0  0  0  0  0  0  0
   61.9880   31.8240   47.1490 C   0  0  0  0  0  0  0  0  0  0  0  0
   62.3357   31.8832   46.1071 H   0  0  0  0  0  0  0  0  0  0  0  0
   60.9990   30.8950   47.5010 C   0  0  0  0  0  0  0  0  0  0  0  0
   60.4260   29.7860   46.2590 Cl  0  0  0  0  0  0  0  0  0  0  0  0
  1  2  1  0
  2  3  1  0
  3  4  2  0
  3  5  1  0
  5  6  1  0
  6  7  1  0
  6  8  1  0
  6  9  1  0
  9 10  1  0
  9 11  1  0
  9 12  1  0
 12 13  1  0
 12 14  1  0
 14 15  1  0
 14 16  1  0
 14 17  1  0
 17 18  1  0
 17 19  1  0
 17 20  1  0
 20 21  1  0
 21 22  2  0
 22 23  1  0
 23 24  1  0
 24 25  2  0
 25 26  1  0
 25 27  1  0
 27 28  1  0
 27 29  2  0
 29 30  1  0
 29 31  1  0
 31 32  1  0
 31 33  2  0
 33 34  1  0
 23 35  2  0
 35 36  1  0
 12 37  1  0
 37 38  1  0
 37 39  1  0
 37 40  1  0
 40 41  1  0
 40 42  1  0
  2 43  2  0
 43 44  1  0
 43 45  1  0
 45 46  2  0
 46 47  1  0
 46 48  1  0
 48 49  1  0
 48 50  2  0
 50 51  1  0
 50 52  1  0
 52 53  1  0
 52 54  2  0
 54 55  1  0
 40  5  1  0
 54 45  1  0
 35 20  1  0
 33 24  1  0
M  END
>  <UniqueID>  (77) 
68

>  <SMILES>  (77) 
O=C(/C=C/c1ccc(Cl)cc1Cl)N1CCC(CCn2cc(-c3ccccc3)nn2)CC1

>  <Energy>  (77) 
104.01455618512895

>  <Genealogy>  (77) 
O=C(/C=C/c1ccc(Cl)cc1Cl)N1CCC(CCn2cc(-c3ccccc3)nn2)CC1 (cis-trans isomerization)
O=C(/C=C/c1ccc(Cl)cc1Cl)N1CCC(CCn2cc(-c3ccccc3)nn2)CC1 (3D coordinates assigned)
O=C(/C=C/c1ccc(Cl)cc1Cl)N1CCC(CCn2cc(-c3ccccc3)nn2)CC1 (nonaromatic ring conformer: 104.01455618512895 kcal/mol)

>  <smiles>  (77) 
O=C(C=Cc1ccc(Cl)cc1Cl)N1CCC(CCn2cc(-c3ccccc3)nn2)CC1

>  <score_type>  (77) 
oracle

>  <origin>  (77) 
adg

>  <m_score__min__energy>  (77) 
-10.69

>  <m_primary>  (77) 
energy

$$$$
77:0
     RDKit          3D

 32 34  0  0  0  0  0  0  0  0999 V2000
   56.7680   31.2090   44.6580 O   0  0  0  0  0  0  0  0  0  0  0  0
   57.6900   31.3040   45.4890 C   0  0  0  0  0  0  0  0  0  0  0  0
   58.0620   30.2810   46.2790 N   0  0  0  0  0  0  0  0  0  0  0  0
   59.0680   30.4180   47.1710 C   0  0  0  0  0  0  0  0  0  0  0  0
   59.3880   29.2160   47.9890 C   0  0  0  0  0  0  0  0  0  0  0  0
   60.0420   27.9580   46.8720 S   0  0  0  0  0  0  0  0  0  0  0  0
   58.7720   26.7670   46.4390 C   0  0  0  0  0  0  0  0  0  0  0  0
   59.0920   25.4550   46.1560 C   0  0  0  0  0  0  0  0  0  0  0  0
   58.1080   24.5340   45.8220 C   0  0  0  0  0  0  0  0  0  0  0  0
   56.7840   24.9690   45.7790 C   0  0  0  0  0  0  0  0  0  0  0  0
   56.4740   26.2910   46.0640 C   0  0  0  0  0  0  0  0  0  0  0  0
   55.1470   26.7120   46.0180 O   0  0  0  0  0  0  0  0  0  0  0  0
   57.4660   27.1970   46.3970 C   0  0  0  0  0  0  0  0  0  0  0  0
   59.7250   31.5860   47.2930 N   0  0  0  0  0  0  0  0  0  0  0  0
   59.3830   32.6460   46.5150 C   0  0  0  0  0  0  0  0  0  0  0  0
   60.0190   33.8570   46.5960 C   0  0  0  0  0  0  0  0  0  0  0  0
   59.6570   34.9220   45.7980 C   0  0  0  0  0  0  0  0  0  0  0  0
   58.6200   34.7800   44.8780 C   0  0  0  0  0  0  0  0  0  0  0  0
   57.9670   33.5690   44.7790 C   0  0  0  0  0  0  0  0  0  0  0  0
   58.3490   32.5050   45.5970 C   0  0  0  0  0  0  0  0  0  0  0  0
   57.5320   29.3810   46.1640 H   0  0  0  0  0  0  0  0  0  0  0  0
   60.1400   29.4694   48.7508 H   0  0  0  0  0  0  0  0  0  0  0  0
   58.4887   28.8471   48.5039 H   0  0  0  0  0  0  0  0  0  0  0  0
   60.1432   25.1336   46.1956 H   0  0  0  0  0  0  0  0  0  0  0  0
   58.3662   23.4886   45.5972 H   0  0  0  0  0  0  0  0  0  0  0  0
   55.9827   24.2619   45.5183 H   0  0  0  0  0  0  0  0  0  0  0  0
   54.4650   26.4460   46.7280 H   0  0  0  0  0  0  0  0  0  0  0  0
   57.2142   28.2434   46.6243 H   0  0  0  0  0  0  0  0  0  0  0  0
   60.8403   33.9831   47.3168 H   0  0  0  0  0  0  0  0  0  0  0  0
   60.1861   35.8822   45.8876 H   0  0  0  0  0  0  0  0  0  0  0  0
   58.3254   35.6245   44.2377 H   0  0  0  0  0  0  0  0  0  0  0  0
   57.1470   33.4423   44.0568 H   0  0  0  0  0  0  0  0  0  0  0  0
  1  2  2  0
  2  3  1  0
  3  4  1  0
  4  5  1  0
  5  6  1  0
  6  7  1  0
  7  8  2  0
  8  9  1  0
  9 10  2  0
 10 11  1  0
 11 12  1  0
 11 13  2  0
  4 14  2  0
 14 15  1  0
 15 16  2  0
 16 17  1  0
 17 18  2  0
 18 19  1  0
 19 20  2  0
 20  2  1  0
 13  7  1  0
 20 15  1  0
  3 21  1  0
  5 22  1  0
  5 23  1  0
  8 24  1  0
  9 25  1  0
 10 26  1  0
 12 27  1  0
 13 28  1  0
 16 29  1  0
 17 30  1  0
 18 31  1  0
 19 32  1  0
M  END
>  <smiles>  (78) 
O=c1[nH]c(CSc2cccc(O)c2)nc2ccccc12

>  <score_type>  (78) 
oracle

>  <origin>  (78) 
adg

>  <m_score__min__energy>  (78) 
-8.5399999999999991

>  <m_primary>  (78) 
energy

$$$$
78:0
     RDKit          3D

 45 47  0  0  0  0  0  0  0  0999 V2000
   63.0603   34.1861   45.0437 H   0  0  0  0  0  0  0  0  0  0  0  0
   63.3810   33.8420   46.0380 C   0  0  0  0  0  0  0  0  0  0  0  0
   64.4031   33.4632   46.1857 H   0  0  0  0  0  0  0  0  0  0  0  0
   62.5310   33.8840   47.0640 C   0  0  0  0  0  0  0  0  0  0  0  0
   61.5158   34.2679   46.8850 H   0  0  0  0  0  0  0  0  0  0  0  0
   62.8840   33.4390   48.4370 C   0  0  0  0  0  0  0  0  0  0  0  0
   64.1070   32.7840   48.6810 C   0  0  0  0  0  0  0  0  0  0  0  0
   64.8412   32.6808   47.8684 H   0  0  0  0  0  0  0  0  0  0  0  0
   64.3960   32.2650   49.9430 C   0  0  0  0  0  0  0  0  0  0  0  0
   65.3603   31.7677   50.1241 H   0  0  0  0  0  0  0  0  0  0  0  0
   63.4660   32.3750   50.9750 C   0  0  0  0  0  0  0  0  0  0  0  0
   63.6951   31.9568   51.9663 H   0  0  0  0  0  0  0  0  0  0  0  0
   62.2450   33.0140   50.7550 C   0  0  0  0  0  0  0  0  0  0  0  0
   61.0000   33.1500   52.2060 Br  0  0  0  0  0  0  0  0  0  0  0  0
   61.9520   33.5690   49.4980 C   0  0  0  0  0  0  0  0  0  0  0  0
   60.6990   34.2470   49.3230 N   0  0  0  0  0  0  0  0  0  0  0  0
   59.5010   33.6260   48.8380 C   0  0  0  0  0  0  0  0  0  0  0  0
   58.7500   33.0040   49.6390 O   0  0  0  0  0  0  0  0  0  0  0  0
   59.1570   33.6940   47.3980 C   0  0  0  0  0  0  0  0  0  0  0  0
   59.4680   34.8380   46.6440 C   0  0  0  0  0  0  0  0  0  0  0  0
   59.9783   35.6862   47.1238 H   0  0  0  0  0  0  0  0  0  0  0  0
   59.1340   34.9060   45.2900 C   0  0  0  0  0  0  0  0  0  0  0  0
   59.3745   35.8095   44.7105 H   0  0  0  0  0  0  0  0  0  0  0  0
   58.4960   33.8310   44.6700 C   0  0  0  0  0  0  0  0  0  0  0  0
   58.2245   33.8955   43.6060 H   0  0  0  0  0  0  0  0  0  0  0  0
   58.1990   32.6680   45.3970 C   0  0  0  0  0  0  0  0  0  0  0  0
   57.5090   31.5230   44.7630 C   0  0  0  0  0  0  0  0  0  0  0  0
   57.0180   30.5020   45.5180 N   0  0  0  0  0  0  0  0  0  0  0  0
   56.4330   29.5490   44.7580 C   0  0  0  0  0  0  0  0  0  0  0  0
   55.8930   28.4690   45.2360 N   0  0  0  0  0  0  0  0  0  0  0  0
   56.6480   27.2930   45.6650 C   0  0  0  0  0  0  0  0  0  0  0  0
   56.5347   27.1688   46.7521 H   0  0  0  0  0  0  0  0  0  0  0  0
   56.2575   26.4114   45.1356 H   0  0  0  0  0  0  0  0  0  0  0  0
   58.1290   27.4470   45.3310 C   0  0  0  0  0  0  0  0  0  0  0  0
   58.7106   27.5075   46.2627 H   0  0  0  0  0  0  0  0  0  0  0  0
   58.4649   26.5789   44.7448 H   0  0  0  0  0  0  0  0  0  0  0  0
   58.2791   28.3656   44.7448 H   0  0  0  0  0  0  0  0  0  0  0  0
   56.5050   29.9080   43.1210 S   0  0  0  0  0  0  0  0  0  0  0  0
   57.3310   31.3530   43.3790 C   0  0  0  0  0  0  0  0  0  0  0  0
   57.7980   32.2510   42.2780 C   0  0  0  0  0  0  0  0  0  0  0  0
   58.2648   33.1485   42.7100 H   0  0  0  0  0  0  0  0  0  0  0  0
   58.5332   31.7181   41.6571 H   0  0  0  0  0  0  0  0  0  0  0  0
   56.9395   32.5469   41.6571 H   0  0  0  0  0  0  0  0  0  0  0  0
   58.5180   32.6140   46.7640 C   0  0  0  0  0  0  0  0  0  0  0  0
   58.2647   31.7154   47.3457 H   0  0  0  0  0  0  0  0  0  0  0  0
  1  2  1  0
  2  3  1  0
  2  4  2  0
  4  5  1  0
  4  6  1  0
  6  7  2  0
  7  8  1  0
  7  9  1  0
  9 10  1  0
  9 11  2  0
 11 12  1  0
 11 13  1  0
 13 14  1  0
 13 15  2  0
 15 16  1  0
 16 17  1  0
 17 18  2  0
 17 19  1  0
 19 20  2  0
 20 21  1  0
 20 22  1  0
 22 23  1  0
 22 24  2  0
 24 25  1  0
 24 26  1  0
 26 27  1  0
 27 28  1  0
 28 29  1  0
 29 30  2  0
 30 31  1  0
 31 32  1  0
 31 33  1  0
 31 34  1  0
 34 35  1  0
 34 36  1  0
 34 37  1  0
 29 38  1  0
 38 39  1  0
 39 40  1  0
 40 41  1  0
 40 42  1  0
 40 43  1  0
 26 44  2  0
 44 45  1  0
 15  6  1  0
 44 19  1  0
 39 27  2  0
M  CHG  2  16  -1  28  -1
M  END
>  <UniqueID>  (79) 
69

>  <SMILES>  (79) 
C=Cc1cccc(Br)c1[N-]C(=O)c1cccc(-c2[n-]/c(=N\CC)sc2C)c1

>  <Energy>  (79) 
87.72584112390466

>  <Genealogy>  (79) 
C=Cc1cccc(Br)c1[N-]C(=O)c1cccc(-c2[n-]c(=NCC)sc2C)c1 (protonated)
C=Cc1cccc(Br)c1[N-]C(=O)c1cccc(-c2[n-]/c(=N\CC)sc2C)c1 (cis-trans isomerization)
C=Cc1cccc(Br)c1[N-]C(=O)c1cccc(-c2[n-]/c(=N\CC)sc2C)c1 (3D coordinates assigned)
C=Cc1cccc(Br)c1[N-]C(=O)c1cccc(-c2[n-]/c(=N\CC)sc2C)c1 (optimized conformer: 87.72584112390466 kcal/mol)

>  <smiles>  (79) 
C=Cc1cccc(Br)c1NC(=O)c1cccc(-c2[nH]c(=NCC)sc2C)c1

>  <score_type>  (79) 
oracle

>  <origin>  (79) 
adg

>  <m_score__min__energy>  (79) 
-12.25

>  <m_primary>  (79) 
energy

$$$$
79:0
     RDKit          3D

 80 85  0  0  0  0  0  0  0  0999 V2000
   55.2729   25.6577   45.6271 H   0  0  0  0  0  0  0  0  0  0  0  0
   56.2130   26.1520   45.9130 C   0  0  0  0  0  0  0  0  0  0  0  0
   56.4410   27.4440   45.5600 N   0  0  0  0  0  0  0  0  0  0  0  0
   57.5750   28.1060   45.9090 C   0  0  0  0  0  0  0  0  0  0  0  0
   57.6900   29.3550   45.5440 N   0  0  0  0  0  0  0  0  0  0  0  0
   56.7080   30.1720   44.8930 C   0  0  0  0  0  0  0  0  0  0  0  0
   55.5130   29.7850   44.8510 O   0  0  0  0  0  0  0  0  0  0  0  0
   57.0640   31.4800   44.4190 N   0  0  0  0  0  0  0  0  0  0  0  0
   57.7840   32.4830   45.1520 C   0  0  0  0  0  0  0  0  0  0  0  0
   58.3750   33.5340   44.4400 C   0  0  0  0  0  0  0  0  0  0  0  0
   58.3446   33.5320   43.3404 H   0  0  0  0  0  0  0  0  0  0  0  0
   59.0040   34.5870   45.1140 C   0  0  0  0  0  0  0  0  0  0  0  0
   59.4713   35.4039   44.5445 H   0  0  0  0  0  0  0  0  0  0  0  0
   59.0380   34.6000   46.5120 C   0  0  0  0  0  0  0  0  0  0  0  0
   59.6440   35.6220   47.1670 F   0  0  0  0  0  0  0  0  0  0  0  0
   58.4460   33.5610   47.2340 C   0  0  0  0  0  0  0  0  0  0  0  0
   58.4752   33.5692   48.3336 H   0  0  0  0  0  0  0  0  0  0  0  0
   57.8160   32.5100   46.5590 C   0  0  0  0  0  0  0  0  0  0  0  0
   57.3424   31.6991   47.1317 H   0  0  0  0  0  0  0  0  0  0  0  0
   58.5700   27.3960   46.6250 C   0  0  0  0  0  0  0  0  0  0  0  0
   59.8130   27.9660   46.9120 O   0  0  0  0  0  0  0  0  0  0  0  0
   60.0120   29.1330   47.6610 C   0  0  0  0  0  0  0  0  0  0  0  0
   61.0070   30.0180   47.2460 C   0  0  0  0  0  0  0  0  0  0  0  0
   61.6180   29.7682   46.3661 H   0  0  0  0  0  0  0  0  0  0  0  0
   61.2440   31.2210   47.9290 C   0  0  0  0  0  0  0  0  0  0  0  0
   62.2780   32.1000   47.4400 N   0  0  0  0  0  0  0  0  0  0  0  0
   63.6440   32.0020   47.9730 C   0  0  0  0  0  0  0  0  0  0  0  0
   63.6092   31.4886   48.9452 H   0  0  0  0  0  0  0  0  0  0  0  0
   64.2512   31.4417   47.2468 H   0  0  0  0  0  0  0  0  0  0  0  0
   64.2950   33.3910   48.1660 C   0  0  0  0  0  0  0  0  0  0  0  0
   64.5100   33.5276   49.2361 H   0  0  0  0  0  0  0  0  0  0  0  0
   65.2052   33.4070   47.5485 H   0  0  0  0  0  0  0  0  0  0  0  0
   63.4860   34.4640   47.7340 O   0  0  0  0  0  0  0  0  0  0  0  0
   63.0190   34.2140   46.4260 C   0  0  0  0  0  0  0  0  0  0  0  0
   62.6182   35.1420   45.9922 H   0  0  0  0  0  0  0  0  0  0  0  0
   63.8447   33.8527   45.7954 H   0  0  0  0  0  0  0  0  0  0  0  0
   61.9180   33.1620   46.4940 C   0  0  0  0  0  0  0  0  0  0  0  0
   60.9826   33.6381   46.8234 H   0  0  0  0  0  0  0  0  0  0  0  0
   61.7878   32.7191   45.4956 H   0  0  0  0  0  0  0  0  0  0  0  0
   60.4530   31.5410   49.0600 C   0  0  0  0  0  0  0  0  0  0  0  0
   60.7400   32.9980   50.0190 S   0  0  0  0  0  0  0  0  0  0  0  0
   59.4770   33.3790   50.7310 O   0  0  0  0  0  0  0  0  0  0  0  0
   61.1370   34.1110   49.0960 O   0  0  0  0  0  0  0  0  0  0  0  0
   61.9700   32.6920   51.2160 N   0  0  0  0  0  0  0  0  0  0  0  0
   62.2980   33.5360   51.7420 H   0  0  0  0  0  0  0  0  0  0  0  0
   62.3270   31.5190   51.6600 C   0  0  0  0  0  0  0  0  0  0  0  0
   63.3460   30.7180   51.0750 N   0  0  0  0  0  0  0  0  0  0  0  0
   64.7530   31.0810   51.2470 C   0  0  0  0  0  0  0  0  0  0  0  0
   64.9875   31.1415   52.3200 H   0  0  0  0  0  0  0  0  0  0  0  0
   65.3890   30.3175   50.7752 H   0  0  0  0  0  0  0  0  0  0  0  0
   64.9402   32.0569   50.7752 H   0  0  0  0  0  0  0  0  0  0  0  0
   62.9510   29.3310   51.2760 C   0  0  0  0  0  0  0  0  0  0  0  0
   62.4186   28.9523   50.3910 H   0  0  0  0  0  0  0  0  0  0  0  0
   63.8240   28.6802   51.4323 H   0  0  0  0  0  0  0  0  0  0  0  0
   62.0230   29.3330   52.4970 C   0  0  0  0  0  0  0  0  0  0  0  0
   61.1844   28.6388   52.3393 H   0  0  0  0  0  0  0  0  0  0  0  0
   62.5541   29.0074   53.4036 H   0  0  0  0  0  0  0  0  0  0  0  0
   61.5050   30.7660   52.6400 C   0  0  0  0  0  0  0  0  0  0  0  0
   60.4359   30.8266   52.3883 H   0  0  0  0  0  0  0  0  0  0  0  0
   61.5881   31.1561   53.6651 H   0  0  0  0  0  0  0  0  0  0  0  0
   59.4260   30.6640   49.4490 C   0  0  0  0  0  0  0  0  0  0  0  0
   58.7905   30.9200   50.3096 H   0  0  0  0  0  0  0  0  0  0  0  0
   59.2020   29.4730   48.7580 C   0  0  0  0  0  0  0  0  0  0  0  0
   58.1530   28.6930   49.1220 F   0  0  0  0  0  0  0  0  0  0  0  0
   58.3390   26.1000   46.9620 N   0  0  0  0  0  0  0  0  0  0  0  0
   57.1850   25.4520   46.6450 C   0  0  0  0  0  0  0  0  0  0  0  0
   57.0160   24.0630   47.0210 N   0  0  0  0  0  0  0  0  0  0  0  0
   56.1920   23.7590   48.2100 C   0  0  0  0  0  0  0  0  0  0  0  0
   56.4642   24.4621   49.0110 H   0  0  0  0  0  0  0  0  0  0  0  0
   55.1391   23.8578   47.9072 H   0  0  0  0  0  0  0  0  0  0  0  0
   56.3790   22.3170   48.7400 C   0  0  0  0  0  0  0  0  0  0  0  0
   56.6436   22.3719   49.8063 H   0  0  0  0  0  0  0  0  0  0  0  0
   55.4303   21.7882   48.5660 H   0  0  0  0  0  0  0  0  0  0  0  0
   57.3840   21.5850   48.0700 O   0  0  0  0  0  0  0  0  0  0  0  0
   57.1420   21.6160   46.6850 C   0  0  0  0  0  0  0  0  0  0  0  0
   57.7449   20.8432   46.1858 H   0  0  0  0  0  0  0  0  0  0  0  0
   56.0781   21.4217   46.4842 H   0  0  0  0  0  0  0  0  0  0  0  0
   57.5300   22.9920   46.1560 C   0  0  0  0  0  0  0  0  0  0  0  0
   58.6269   23.0625   46.1123 H   0  0  0  0  0  0  0  0  0  0  0  0
   57.0910   23.1146   45.1549 H   0  0  0  0  0  0  0  0  0  0  0  0
  1  2  1  0
  2  3  1  0
  3  4  1  0
  4  5  2  0
  5  6  1  0
  6  7  2  0
  6  8  1  0
  8  9  1  0
  9 10  2  0
 10 11  1  0
 10 12  1  0
 12 13  1  0
 12 14  2  0
 14 15  1  0
 14 16  1  0
 16 17  1  0
 16 18  2  0
 18 19  1  0
  4 20  1  0
 20 21  1  0
 21 22  1  0
 22 23  2  0
 23 24  1  0
 23 25  1  0
 25 26  1  0
 26 27  1  0
 27 28  1  0
 27 29  1  0
 27 30  1  0
 30 31  1  0
 30 32  1  0
 30 33  1  0
 33 34  1  0
 34 35  1  0
 34 36  1  0
 34 37  1  0
 37 38  1  0
 37 39  1  0
 25 40  2  0
 40 41  1  0
 41 42  2  0
 41 43  2  0
 41 44  1  0
 44 45  1  0
 44 46  2  3
 46 47  1  0
 47 48  1  0
 48 49  1  0
 48 50  1  0
 48 51  1  0
 47 52  1  0
 52 53  1  0
 52 54  1  0
 52 55  1  0
 55 56  1  0
 55 57  1  0
 55 58  1  0
 58 59  1  0
 58 60  1  0
 40 61  1  0
 61 62  1  0
 61 63  2  0
 63 64  1  0
 20 65  2  0
 65 66  1  0
 66 67  1  0
 67 68  1  0
 68 69  1  0
 68 70  1  0
 68 71  1  0
 71 72  1  0
 71 73  1  0
 71 74  1  0
 74 75  1  0
 75 76  1  0
 75 77  1  0
 75 78  1  0
 78 79  1  0
 78 80  1  0
 66  2  2  0
 78 67  1  0
 18  9  1  0
 63 22  1  0
 37 26  1  0
 58 46  1  0
M  CHG  3   3  -1   8  -1  44   1
M  END
>  <UniqueID>  (80) 
70

>  <SMILES>  (80) 
CN1CCCC1=[NH+]S(=O)(=O)c1cc(F)c(Oc2nc(N3CCOCC3)c[n-]/c2=N/C(=O)[N-]c2ccc(F)cc2)cc1N1CCOCC1

>  <Energy>  (80) 
141.81736164899704

>  <Genealogy>  (80) 
CN1CCCC1=[NH+]S(=O)(=O)c1cc(F)c(Oc2nc(N3CCOCC3)c[n-]c2=NC(=O)[N-]c2ccc(F)cc2)cc1N1CCOCC1 (protonated)
CN1CCCC1=[NH+]S(=O)(=O)c1cc(F)c(Oc2nc(N3CCOCC3)c[n-]/c2=N/C(=O)[N-]c2ccc(F)cc2)cc1N1CCOCC1 (cis-trans isomerization)
CN1CCCC1=[NH+]S(=O)(=O)c1cc(F)c(Oc2nc(N3CCOCC3)c[n-]/c2=N/C(=O)[N-]c2ccc(F)cc2)cc1N1CCOCC1 (3D coordinates assigned)
CN1CCCC1=[NH+]S(=O)(=O)c1cc(F)c(Oc2nc(N3CCOCC3)c[n-]/c2=N/C(=O)[N-]c2ccc(F)cc2)cc1N1CCOCC1 (nonaromatic ring conformer: 141.81736164899704 kcal/mol)

>  <smiles>  (80) 
CN1CCCC1=NS(=O)(=O)c1cc(F)c(Oc2nc(N3CCOCC3)c[nH]c2=NC(=O)Nc2ccc(F)cc2)cc1N1CCOCC1

>  <score_type>  (80) 
oracle

>  <origin>  (80) 
adg

>  <m_score__min__energy>  (80) 
-11.550000000000001

>  <m_primary>  (80) 
energy

$$$$
80:0
     RDKit          3D

 66 69  0  0  0  0  0  0  0  0999 V2000
   62.1350   33.3260   52.9760 C   0  0  0  0  0  0  0  0  0  0  0  0
   60.9550   33.8800   52.4030 O   0  0  0  0  0  0  0  0  0  0  0  0
   59.7570   33.1760   52.2020 C   0  0  0  0  0  0  0  0  0  0  0  0
   58.9800   32.7100   53.2810 C   0  0  0  0  0  0  0  0  0  0  0  0
   57.7630   32.0650   53.0470 C   0  0  0  0  0  0  0  0  0  0  0  0
   57.3080   31.8800   51.7410 C   0  0  0  0  0  0  0  0  0  0  0  0
   58.0740   32.3280   50.6640 C   0  0  0  0  0  0  0  0  0  0  0  0
   59.3030   32.9610   50.8830 C   0  0  0  0  0  0  0  0  0  0  0  0
   60.0240   33.4240   49.7750 O   0  0  0  0  0  0  0  0  0  0  0  0
   61.3690   33.1300   49.5190 C   0  0  0  0  0  0  0  0  0  0  0  0
   62.2310   34.1060   48.9890 C   0  0  0  0  0  0  0  0  0  0  0  0
   63.5900   33.8250   48.8130 C   0  0  0  0  0  0  0  0  0  0  0  0
   64.0980   32.5740   49.1720 C   0  0  0  0  0  0  0  0  0  0  0  0
   63.2450   31.5950   49.6900 C   0  0  0  0  0  0  0  0  0  0  0  0
   61.8790   31.8600   49.8460 C   0  0  0  0  0  0  0  0  0  0  0  0
   61.0130   30.8130   50.2890 N   0  0  0  0  0  0  0  0  0  0  0  0
   60.2010   29.7910   49.1470 S   0  0  0  0  0  0  0  0  0  0  0  0
   58.8780   29.3930   49.7390 O   0  0  0  0  0  0  0  0  0  0  0  0
   61.0220   28.5610   48.8950 O   0  0  0  0  0  0  0  0  0  0  0  0
   59.9220   30.6620   47.6470 N   0  0  2  0  0  0  0  0  0  0  0  0
   58.7170   31.5530   47.6100 C   0  0  0  0  0  0  0  0  0  0  0  0
   58.7770   32.7230   46.6440 C   0  0  0  0  0  0  0  0  0  0  0  0
   59.8570   33.6220   46.6890 C   0  0  0  0  0  0  0  0  0  0  0  0
   59.8950   34.7270   45.8330 C   0  0  0  0  0  0  0  0  0  0  0  0
   58.8650   34.9360   44.9140 C   0  0  0  0  0  0  0  0  0  0  0  0
   57.8010   34.0350   44.8410 C   0  0  0  0  0  0  0  0  0  0  0  0
   57.7600   32.9290   45.6950 C   0  0  0  0  0  0  0  0  0  0  0  0
   60.0610   29.7880   46.4520 C   0  0  0  0  0  0  0  0  0  0  0  0
   59.0130   28.7000   46.3410 C   0  0  0  0  0  0  0  0  0  0  0  0
   59.1840   27.4740   47.0080 C   0  0  0  0  0  0  0  0  0  0  0  0
   58.2300   26.4600   46.8820 C   0  0  0  0  0  0  0  0  0  0  0  0
   57.0770   26.6690   46.1140 C   0  0  0  0  0  0  0  0  0  0  0  0
   55.9050   25.3770   45.8830 S   0  0  0  0  0  0  0  0  0  0  0  0
   56.4030   24.3830   44.4930 C   0  0  0  0  0  0  0  0  0  0  0  0
   54.5460   25.9680   45.6230 O   0  0  0  0  0  0  0  0  0  0  0  0
   55.8340   24.5160   47.1150 O   0  0  0  0  0  0  0  0  0  0  0  0
   56.8720   27.9090   45.5000 C   0  0  0  0  0  0  0  0  0  0  0  0
   57.8240   28.9230   45.6280 C   0  0  0  0  0  0  0  0  0  0  0  0
   62.0611   33.3607   54.0730 H   0  0  0  0  0  0  0  0  0  0  0  0
   62.2460   32.2817   52.6488 H   0  0  0  0  0  0  0  0  0  0  0  0
   63.0094   33.9077   52.6488 H   0  0  0  0  0  0  0  0  0  0  0  0
   59.3333   32.8547   54.3126 H   0  0  0  0  0  0  0  0  0  0  0  0
   57.1623   31.7023   53.8941 H   0  0  0  0  0  0  0  0  0  0  0  0
   56.3447   31.3806   51.5602 H   0  0  0  0  0  0  0  0  0  0  0  0
   57.7096   32.1827   49.6363 H   0  0  0  0  0  0  0  0  0  0  0  0
   61.8354   35.0942   48.7117 H   0  0  0  0  0  0  0  0  0  0  0  0
   64.2592   34.5896   48.3916 H   0  0  0  0  0  0  0  0  0  0  0  0
   65.1696   32.3593   49.0470 H   0  0  0  0  0  0  0  0  0  0  0  0
   63.6486   30.6125   49.9762 H   0  0  0  0  0  0  0  0  0  0  0  0
   60.7480   31.3050   47.5880 H   0  0  0  0  0  0  0  0  0  0  0  0
   57.8505   30.9341   47.3340 H   0  0  0  0  0  0  0  0  0  0  0  0
   58.6524   32.0020   48.6121 H   0  0  0  0  0  0  0  0  0  0  0  0
   60.6775   33.4550   47.4023 H   0  0  0  0  0  0  0  0  0  0  0  0
   60.7375   35.4325   45.8837 H   0  0  0  0  0  0  0  0  0  0  0  0
   58.8918   35.8106   44.2474 H   0  0  0  0  0  0  0  0  0  0  0  0
   56.9942   34.1956   44.1108 H   0  0  0  0  0  0  0  0  0  0  0  0
   56.9263   32.2149   45.6241 H   0  0  0  0  0  0  0  0  0  0  0  0
   59.9950   30.4208   45.5546 H   0  0  0  0  0  0  0  0  0  0  0  0
   61.0306   29.2779   46.5500 H   0  0  0  0  0  0  0  0  0  0  0  0
   60.0744   27.3117   47.6331 H   0  0  0  0  0  0  0  0  0  0  0  0
   58.3850   25.4953   47.3873 H   0  0  0  0  0  0  0  0  0  0  0  0
   56.8684   23.4541   44.8544 H   0  0  0  0  0  0  0  0  0  0  0  0
   55.5212   24.1380   43.8828 H   0  0  0  0  0  0  0  0  0  0  0  0
   57.1272   24.9426   43.8828 H   0  0  0  0  0  0  0  0  0  0  0  0
   55.9579   28.0862   44.9143 H   0  0  0  0  0  0  0  0  0  0  0  0
   57.6408   29.9045   45.1664 H   0  0  0  0  0  0  0  0  0  0  0  0
  1  2  1  0
  2  3  1  0
  3  4  2  0
  4  5  1  0
  5  6  2  0
  6  7  1  0
  7  8  2  0
  8  9  1  0
  9 10  1  0
 10 11  2  0
 11 12  1  0
 12 13  2  0
 13 14  1  0
 14 15  2  0
 15 16  1  0
 16 17  1  0
 17 18  2  0
 17 19  2  0
 17 20  1  0
 20 21  1  0
 21 22  1  0
 22 23  2  0
 23 24  1  0
 24 25  2  0
 25 26  1  0
 26 27  2  0
 20 28  1  0
 28 29  1  0
 29 30  2  0
 30 31  1  0
 31 32  2  0
 32 33  1  0
 33 34  1  0
 33 35  2  0
 33 36  2  0
 32 37  1  0
 37 38  2  0
  8  3  1  0
 15 10  1  0
 27 22  1  0
 38 29  1  0
  1 39  1  0
  1 40  1  0
  1 41  1  0
  4 42  1  0
  5 43  1  0
  6 44  1  0
  7 45  1  0
 11 46  1  0
 12 47  1  0
 13 48  1  0
 14 49  1  0
 20 50  1  6
 21 51  1  0
 21 52  1  0
 23 53  1  0
 24 54  1  0
 25 55  1  0
 26 56  1  0
 27 57  1  0
 28 58  1  0
 28 59  1  0
 30 60  1  0
 31 61  1  0
 34 62  1  0
 34 63  1  0
 34 64  1  0
 37 65  1  0
 38 66  1  0
M  CHG  2  16  -1  20   1
M  END
>  <UniqueID>  (81) 
71

>  <SMILES>  (81) 
COc1ccccc1Oc1ccccc1[N-]S(=O)(=O)[N@H+](Cc1ccccc1)Cc1ccc(S(C)(=O)=O)cc1

>  <Energy>  (81) 
90.22460493304435

>  <Genealogy>  (81) 
COc1ccccc1Oc1ccccc1[N-]S(=O)(=O)[NH+](Cc1ccccc1)Cc1ccc(S(C)(=O)=O)cc1 (protonated)
COc1ccccc1Oc1ccccc1[N-]S(=O)(=O)[N@H+](Cc1ccccc1)Cc1ccc(S(C)(=O)=O)cc1 (chirality)
COc1ccccc1Oc1ccccc1[N-]S(=O)(=O)[N@H+](Cc1ccccc1)Cc1ccc(S(C)(=O)=O)cc1 (3D coordinates assigned)
COc1ccccc1Oc1ccccc1[N-]S(=O)(=O)[N@H+](Cc1ccccc1)Cc1ccc(S(C)(=O)=O)cc1 (optimized conformer: 90.22460493304435 kcal/mol)

>  <smiles>  (81) 
COc1ccccc1Oc1ccccc1NS(=O)(=O)N(Cc1ccccc1)Cc1ccc(S(C)(=O)=O)cc1

>  <score_type>  (81) 
oracle

>  <origin>  (81) 
adg

>  <m_score__min__energy>  (81) 
-10.210000000000001

>  <m_primary>  (81) 
energy

$$$$
81:0
     RDKit          3D

 66 69  0  0  0  0  0  0  0  0999 V2000
   60.6420   30.3510   51.2190 C   0  0  0  0  0  0  0  0  0  0  0  0
   61.5830   29.8350   50.1340 C   0  0  0  0  0  0  0  0  0  0  0  0
   60.9190   29.7880   48.8700 O   0  0  0  0  0  0  0  0  0  0  0  0
   60.1190   28.7300   48.4080 C   0  0  0  0  0  0  0  0  0  0  0  0
   58.8030   28.9170   47.9400 C   0  0  0  0  0  0  0  0  0  0  0  0
   58.0500   27.8240   47.4990 C   0  0  0  0  0  0  0  0  0  0  0  0
   58.6000   26.5380   47.4950 C   0  0  0  0  0  0  0  0  0  0  0  0
   57.7890   25.4370   47.0640 N   0  0  0  0  0  0  0  0  0  0  0  0
   56.7720   25.4830   46.0530 C   0  0  0  0  0  0  0  0  0  0  0  0
   55.5900   25.7420   46.3990 O   0  0  0  0  0  0  0  0  0  0  0  0
   57.0960   25.3400   44.6170 C   0  0  0  0  0  0  0  0  0  0  0  0
   56.4840   24.4820   43.9270 O   0  0  0  0  0  0  0  0  0  0  0  0
   58.1630   26.0790   44.0080 N   0  0  0  0  0  0  0  0  0  0  0  0
   58.5040   27.4480   44.2660 C   0  0  0  0  0  0  0  0  0  0  0  0
   59.8170   27.8300   44.5790 C   0  0  0  0  0  0  0  0  0  0  0  0
   60.1100   29.1640   44.8670 C   0  0  0  0  0  0  0  0  0  0  0  0
   59.0980   30.1260   44.8540 C   0  0  0  0  0  0  0  0  0  0  0  0
   57.7720   29.7600   44.5590 C   0  0  0  0  0  0  0  0  0  0  0  0
   56.6950   30.7780   44.5420 C   0  0  0  0  0  0  0  0  0  0  0  0
   55.4940   30.4240   44.6940 O   0  0  0  0  0  0  0  0  0  0  0  0
   57.0150   32.1560   44.3000 N   0  0  0  0  0  0  0  0  0  0  0  0
   57.8830   32.9920   45.0810 C   0  0  0  0  0  0  0  0  0  0  0  0
   58.3710   34.1700   44.5030 C   0  0  0  0  0  0  0  0  0  0  0  0
   59.2190   35.0140   45.2240 C   0  0  0  0  0  0  0  0  0  0  0  0
   59.5950   34.6820   46.5270 C   0  0  0  0  0  0  0  0  0  0  0  0
   59.1390   33.4920   47.1100 C   0  0  0  0  0  0  0  0  0  0  0  0
   59.6280   33.0690   48.7530 S   0  0  0  0  0  0  0  0  0  0  0  0
   59.2920   34.2090   49.6740 O   0  0  0  0  0  0  0  0  0  0  0  0
   58.8530   31.8630   49.2070 O   0  0  0  0  0  0  0  0  0  0  0  0
   61.3380   32.7300   48.8530 N   0  0  0  0  0  0  0  0  0  0  0  0
   62.0660   33.9020   49.3670 C   0  0  0  0  0  0  0  0  0  0  0  0
   63.5240   33.5240   49.6930 C   0  0  0  0  0  0  0  0  0  0  0  0
   64.0020   32.2930   48.9050 C   0  0  0  0  0  0  0  0  0  0  0  0
   63.4010   32.2730   47.4970 C   0  0  0  0  0  0  0  0  0  0  0  0
   61.8570   32.3250   47.5310 C   0  0  0  0  0  0  0  0  0  0  0  0
   58.2910   32.6430   46.3820 C   0  0  0  0  0  0  0  0  0  0  0  0
   57.4860   28.4110   44.2740 C   0  0  0  0  0  0  0  0  0  0  0  0
   59.9050   26.3470   47.9790 C   0  0  0  0  0  0  0  0  0  0  0  0
   60.6560   27.4370   48.4290 C   0  0  0  0  0  0  0  0  0  0  0  0
   61.0624   30.1205   52.2090 H   0  0  0  0  0  0  0  0  0  0  0  0
   60.5245   31.4398   51.1150 H   0  0  0  0  0  0  0  0  0  0  0  0
   59.6608   29.8647   51.1150 H   0  0  0  0  0  0  0  0  0  0  0  0
   62.4518   30.5057   50.0607 H   0  0  0  0  0  0  0  0  0  0  0  0
   61.9070   28.8183   50.4012 H   0  0  0  0  0  0  0  0  0  0  0  0
   58.3663   29.9264   47.9215 H   0  0  0  0  0  0  0  0  0  0  0  0
   57.0172   27.9769   47.1526 H   0  0  0  0  0  0  0  0  0  0  0  0
   60.6179   27.0762   44.5975 H   0  0  0  0  0  0  0  0  0  0  0  0
   61.1427   29.4587   45.1052 H   0  0  0  0  0  0  0  0  0  0  0  0
   59.3390   31.1761   45.0757 H   0  0  0  0  0  0  0  0  0  0  0  0
   58.0847   34.4328   43.4739 H   0  0  0  0  0  0  0  0  0  0  0  0
   59.5911   35.9416   44.7645 H   0  0  0  0  0  0  0  0  0  0  0  0
   60.2508   35.3562   47.0974 H   0  0  0  0  0  0  0  0  0  0  0  0
   62.0583   34.6965   48.6063 H   0  0  0  0  0  0  0  0  0  0  0  0
   61.5737   34.2552   50.2851 H   0  0  0  0  0  0  0  0  0  0  0  0
   64.1736   34.3762   49.4446 H   0  0  0  0  0  0  0  0  0  0  0  0
   63.5744   33.2765   50.7636 H   0  0  0  0  0  0  0  0  0  0  0  0
   65.0989   32.3199   48.8272 H   0  0  0  0  0  0  0  0  0  0  0  0
   63.6745   31.3881   49.4378 H   0  0  0  0  0  0  0  0  0  0  0  0
   63.7743   33.1438   46.9382 H   0  0  0  0  0  0  0  0  0  0  0  0
   63.7007   31.3329   47.0108 H   0  0  0  0  0  0  0  0  0  0  0  0
   61.5109   33.0488   46.7784 H   0  0  0  0  0  0  0  0  0  0  0  0
   61.4818   31.3131   47.3182 H   0  0  0  0  0  0  0  0  0  0  0  0
   57.9437   31.7005   46.8303 H   0  0  0  0  0  0  0  0  0  0  0  0
   56.4510   28.1095   44.0550 H   0  0  0  0  0  0  0  0  0  0  0  0
   60.3376   25.3359   48.0040 H   0  0  0  0  0  0  0  0  0  0  0  0
   61.6781   27.2774   48.8030 H   0  0  0  0  0  0  0  0  0  0  0  0
  1  2  1  0
  2  3  1  0
  3  4  1  0
  4  5  2  0
  5  6  1  0
  6  7  2  0
  7  8  1  0
  8  9  1  0
  9 10  2  0
  9 11  1  0
 11 12  2  0
 11 13  1  0
 13 14  1  0
 14 15  2  0
 15 16  1  0
 16 17  2  0
 17 18  1  0
 18 19  1  0
 19 20  2  0
 19 21  1  0
 21 22  1  0
 22 23  2  0
 23 24  1  0
 24 25  2  0
 25 26  1  0
 26 27  1  0
 27 28  2  0
 27 29  2  0
 27 30  1  0
 30 31  1  0
 31 32  1  0
 32 33  1  0
 33 34  1  0
 34 35  1  0
 26 36  2  0
 18 37  2  0
  7 38  1  0
 38 39  2  0
 39  4  1  0
 37 14  1  0
 36 22  1  0
 35 30  1  0
  1 40  1  0
  1 41  1  0
  1 42  1  0
  2 43  1  0
  2 44  1  0
  5 45  1  0
  6 46  1  0
 15 47  1  0
 16 48  1  0
 17 49  1  0
 23 50  1  0
 24 51  1  0
 25 52  1  0
 31 53  1  0
 31 54  1  0
 32 55  1  0
 32 56  1  0
 33 57  1  0
 33 58  1  0
 34 59  1  0
 34 60  1  0
 35 61  1  0
 35 62  1  0
 36 63  1  0
 37 64  1  0
 38 65  1  0
 39 66  1  0
M  CHG  3   8  -1  13  -1  21  -1
M  END
>  <UniqueID>  (82) 
72

>  <SMILES>  (82) 
CCOc1ccc([N-]C(=O)C(=O)[N-]c2cccc(C(=O)[N-]c3cccc(S(=O)(=O)N4CCCCC4)c3)c2)cc1

>  <Energy>  (82) 
83.9805476215052

>  <Genealogy>  (82) 
CCOc1ccc([N-]C(=O)C(=O)[N-]c2cccc(C(=O)[N-]c3cccc(S(=O)(=O)N4CCCCC4)c3)c2)cc1 (protonated)
CCOc1ccc([N-]C(=O)C(=O)[N-]c2cccc(C(=O)[N-]c3cccc(S(=O)(=O)N4CCCCC4)c3)c2)cc1 (3D coordinates assigned)
CCOc1ccc([N-]C(=O)C(=O)[N-]c2cccc(C(=O)[N-]c3cccc(S(=O)(=O)N4CCCCC4)c3)c2)cc1 (nonaromatic ring conformer: 83.9805476215052 kcal/mol)

>  <smiles>  (82) 
CCOc1ccc(NC(=O)C(=O)Nc2cccc(C(=O)Nc3cccc(S(=O)(=O)N4CCCCC4)c3)c2)cc1

>  <score_type>  (82) 
oracle

>  <origin>  (82) 
adg

>  <m_score__min__energy>  (82) 
-14.32

>  <m_primary>  (82) 
energy

$$$$
82:0
     RDKit          3D

 45 48  0  0  0  0  0  0  0  0999 V2000
   58.0213   22.5351   45.7629 H   0  0  0  0  0  0  0  0  0  0  0  0
   57.2550   23.3230   45.8080 C   0  0  0  0  0  0  0  0  0  0  0  0
   57.6260   24.6280   45.8920 N   0  0  0  0  0  0  0  0  0  0  0  0
   56.7140   25.6400   45.9440 C   0  0  0  0  0  0  0  0  0  0  0  0
   57.0850   26.8860   46.0430 N   0  0  0  0  0  0  0  0  0  0  0  0
   58.3090   27.4890   45.5850 C   0  0  0  0  0  0  0  0  0  0  0  0
   59.3980   27.0220   46.0140 O   0  0  0  0  0  0  0  0  0  0  0  0
   58.3270   28.6540   44.6240 C   0  0  0  0  0  0  0  0  0  0  0  0
   59.1717   28.5295   43.9305 H   0  0  0  0  0  0  0  0  0  0  0  0
   57.3683   28.6650   44.0848 H   0  0  0  0  0  0  0  0  0  0  0  0
   58.4750   29.9760   45.3410 C   0  0  0  0  0  0  0  0  0  0  0  0
   59.6250   30.2320   46.0990 C   0  0  0  0  0  0  0  0  0  0  0  0
   60.4053   29.4617   46.1871 H   0  0  0  0  0  0  0  0  0  0  0  0
   59.7850   31.4580   46.7420 C   0  0  0  0  0  0  0  0  0  0  0  0
   60.6889   31.6569   47.3365 H   0  0  0  0  0  0  0  0  0  0  0  0
   58.7880   32.4360   46.6270 C   0  0  0  0  0  0  0  0  0  0  0  0
   58.9460   33.7400   47.3060 C   0  0  0  0  0  0  0  0  0  0  0  0
   58.1630   34.6870   47.0220 O   0  0  0  0  0  0  0  0  0  0  0  0
   60.0010   33.9500   48.2590 N   0  0  0  0  0  0  0  0  0  0  0  0
   61.3880   33.7800   48.0050 C   0  0  0  0  0  0  0  0  0  0  0  0
   62.0260   33.7650   46.7590 C   0  0  0  0  0  0  0  0  0  0  0  0
   61.4481   33.8705   45.8290 H   0  0  0  0  0  0  0  0  0  0  0  0
   63.4220   33.6120   46.7250 C   0  0  0  0  0  0  0  0  0  0  0  0
   63.9479   33.5890   45.7591 H   0  0  0  0  0  0  0  0  0  0  0  0
   64.1500   33.4880   47.9240 C   0  0  0  0  0  0  0  0  0  0  0  0
   65.2423   33.3624   47.8909 H   0  0  0  0  0  0  0  0  0  0  0  0
   63.4880   33.5240   49.1610 C   0  0  0  0  0  0  0  0  0  0  0  0
   64.0494   33.4353   50.1028 H   0  0  0  0  0  0  0  0  0  0  0  0
   62.1000   33.6750   49.1680 C   0  0  0  0  0  0  0  0  0  0  0  0
   61.1960   33.7610   50.3460 C   0  0  0  0  0  0  0  0  0  0  0  0
   61.4528   34.6246   50.9770 H   0  0  0  0  0  0  0  0  0  0  0  0
   61.2627   32.8817   51.0036 H   0  0  0  0  0  0  0  0  0  0  0  0
   59.7950   33.9360   49.7110 C   0  0  0  0  0  0  0  0  0  0  0  0
   59.3427   34.8829   50.0408 H   0  0  0  0  0  0  0  0  0  0  0  0
   59.1155   33.1247   50.0110 H   0  0  0  0  0  0  0  0  0  0  0  0
   57.6860   32.1860   45.8580 N   0  0  0  0  0  0  0  0  0  0  0  0
   56.9680   32.9340   45.7250 H   0  0  0  0  0  0  0  0  0  0  0  0
   57.5100   30.9940   45.2190 C   0  0  0  0  0  0  0  0  0  0  0  0
   56.4810   30.8170   44.5120 O   0  0  0  0  0  0  0  0  0  0  0  0
   55.3440   25.3310   45.9250 C   0  0  0  0  0  0  0  0  0  0  0  0
   54.3870   26.3380   45.9890 O   0  0  0  0  0  0  0  0  0  0  0  0
   54.9430   23.9950   45.8380 C   0  0  0  0  0  0  0  0  0  0  0  0
   53.8728   23.7415   45.8161 H   0  0  0  0  0  0  0  0  0  0  0  0
   55.9020   22.9830   45.7790 C   0  0  0  0  0  0  0  0  0  0  0  0
   55.5948   21.9290   45.7104 H   0  0  0  0  0  0  0  0  0  0  0  0
  1  2  1  0
  2  3  1  0
  3  4  1  0
  4  5  2  0
  5  6  1  0
  6  7  2  0
  6  8  1  0
  8  9  1  0
  8 10  1  0
  8 11  1  0
 11 12  2  0
 12 13  1  0
 12 14  1  0
 14 15  1  0
 14 16  2  0
 16 17  1  0
 17 18  2  0
 17 19  1  0
 19 20  1  0
 20 21  2  0
 21 22  1  0
 21 23  1  0
 23 24  1  0
 23 25  2  0
 25 26  1  0
 25 27  1  0
 27 28  1  0
 27 29  2  0
 29 30  1  0
 30 31  1  0
 30 32  1  0
 30 33  1  0
 33 34  1  0
 33 35  1  0
 16 36  1  0
 36 37  1  0
 36 38  1  0
 38 39  2  0
  4 40  1  0
 40 41  1  0
 40 42  2  0
 42 43  1  0
 42 44  1  0
 44 45  1  0
 44  2  2  0
 38 11  1  0
 33 19  1  0
 29 20  1  0
M  CHG  2   3  -1  41  -1
M  END
>  <UniqueID>  (83) 
73

>  <SMILES>  (83) 
O=C(Cc1ccc(C(=O)N2CCc3ccccc32)[nH]c1=O)/N=c1\[n-]cccc1[O-]

>  <Energy>  (83) 
76.67951581623997

>  <Genealogy>  (83) 
O=C(Cc1ccc(C(=O)N2CCc3ccccc32)[nH]c1=O)N=c1[n-]cccc1[O-] (protonated)
O=C(Cc1ccc(C(=O)N2CCc3ccccc32)[nH]c1=O)/N=c1\[n-]cccc1[O-] (cis-trans isomerization)
O=C(Cc1ccc(C(=O)N2CCc3ccccc32)[nH]c1=O)/N=c1\[n-]cccc1[O-] (3D coordinates assigned)
O=C(Cc1ccc(C(=O)N2CCc3ccccc32)[nH]c1=O)/N=c1\[n-]cccc1[O-] (nonaromatic ring conformer: 76.67951581623997 kcal/mol)

>  <smiles>  (83) 
O=C(Cc1ccc(C(=O)N2CCc3ccccc32)[nH]c1=O)N=c1[nH]cccc1O

>  <score_type>  (83) 
oracle

>  <origin>  (83) 
adg

>  <m_score__min__energy>  (83) 
-15.34

>  <m_primary>  (83) 
energy

$$$$
83:0
     RDKit          3D

 78 82  0  0  0  0  0  0  0  0999 V2000
   59.6150   35.4640   45.2500 C   0  0  0  0  0  0  0  0  0  0  0  0
   59.1180   34.0770   45.5520 C   0  0  0  0  0  0  0  0  0  0  0  0
   58.5420   33.3470   44.5020 C   0  0  0  0  0  0  0  0  0  0  0  0
   57.9430   32.0910   44.7230 C   0  0  0  0  0  0  0  0  0  0  0  0
   57.1950   31.4890   43.5820 C   0  0  0  0  0  0  0  0  0  0  0  0
   56.7930   30.2070   43.4470 C   0  0  0  0  0  0  0  0  0  0  0  0
   56.3500   29.3250   44.5310 C   0  0  0  0  0  0  0  0  0  0  0  0
   55.1520   29.3730   44.8750 O   0  0  0  0  0  0  0  0  0  0  0  0
   57.2160   28.3730   45.1610 N   0  0  0  0  0  0  0  0  0  0  0  0
   58.5390   27.5240   44.4190 S   0  0  0  0  0  0  0  0  0  0  0  0
   58.2730   27.2880   42.9590 O   0  0  0  0  0  0  0  0  0  0  0  0
   58.6780   26.2000   45.1040 O   0  0  0  0  0  0  0  0  0  0  0  0
   60.0580   28.4430   44.6090 C   0  0  0  0  0  0  0  0  0  0  0  0
   60.2370   28.8610   46.0440 C   0  0  0  0  0  0  0  0  0  0  0  0
   61.0190   29.9820   46.3710 C   0  0  0  0  0  0  0  0  0  0  0  0
   61.1680   30.3690   47.7090 C   0  0  0  0  0  0  0  0  0  0  0  0
   60.5230   29.6530   48.7210 C   0  0  0  0  0  0  0  0  0  0  0  0
   59.7300   28.5480   48.4030 C   0  0  0  0  0  0  0  0  0  0  0  0
   59.5810   28.1610   47.0690 C   0  0  0  0  0  0  0  0  0  0  0  0
   58.0400   31.5210   46.0150 C   0  0  0  0  0  0  0  0  0  0  0  0
   58.6130   32.2390   47.0610 C   0  0  0  0  0  0  0  0  0  0  0  0
   59.1210   33.5320   46.8540 C   0  0  0  0  0  0  0  0  0  0  0  0
   59.5810   34.4740   48.3280 S   0  0  0  0  0  0  0  0  0  0  0  0
   61.3240   33.9960   48.3480 C   0  0  0  0  0  0  0  0  0  0  0  0
   61.9560   33.5780   47.1700 C   0  0  0  0  0  0  0  0  0  0  0  0
   63.2790   33.1290   47.2010 C   0  0  0  0  0  0  0  0  0  0  0  0
   63.9720   33.0850   48.4110 C   0  0  0  0  0  0  0  0  0  0  0  0
   63.3420   33.4680   49.5960 C   0  0  0  0  0  0  0  0  0  0  0  0
   62.0030   33.9030   49.5730 C   0  0  0  0  0  0  0  0  0  0  0  0
   61.3050   34.2210   50.7400 O   0  0  0  0  0  0  0  0  0  0  0  0
   61.1800   33.3820   51.8900 C   0  0  0  0  0  0  0  0  0  0  0  0
   59.8390   32.7070   51.8290 C   0  0  0  0  0  0  0  0  0  0  0  0
   58.7040   33.3570   52.3520 C   0  0  0  0  0  0  0  0  0  0  0  0
   57.4790   32.6970   52.4080 C   0  0  0  0  0  0  0  0  0  0  0  0
   57.3650   31.3890   51.9270 C   0  0  0  0  0  0  0  0  0  0  0  0
   56.0990   30.6680   52.0430 C   0  0  0  0  0  0  0  0  0  0  0  0
   55.1270   31.0270   51.3280 O   0  0  0  0  0  0  0  0  0  0  0  0
   55.9100   29.6740   53.0550 N   0  0  0  0  0  0  0  0  0  0  0  0
   54.8770   29.8700   54.0640 C   0  0  0  0  0  0  0  0  0  0  0  0
   54.2870   28.5200   54.5140 C   0  0  0  0  0  0  0  0  0  0  0  0
   55.0670   27.3920   54.1380 O   0  0  0  0  0  0  0  0  0  0  0  0
   56.4440   27.6500   54.3140 C   0  0  0  0  0  0  0  0  0  0  0  0
   56.9140   28.6200   53.2370 C   0  0  0  0  0  0  0  0  0  0  0  0
   58.4750   30.7570   51.3570 C   0  0  0  0  0  0  0  0  0  0  0  0
   59.7070   31.4130   51.3010 C   0  0  0  0  0  0  0  0  0  0  0  0
   59.8064   35.9982   46.1923 H   0  0  0  0  0  0  0  0  0  0  0  0
   60.5465   35.4012   44.6684 H   0  0  0  0  0  0  0  0  0  0  0  0
   58.8555   36.0071   44.6684 H   0  0  0  0  0  0  0  0  0  0  0  0
   58.5582   33.7640   43.4842 H   0  0  0  0  0  0  0  0  0  0  0  0
   56.9413   32.1679   42.7545 H   0  0  0  0  0  0  0  0  0  0  0  0
   56.7984   29.7860   42.4308 H   0  0  0  0  0  0  0  0  0  0  0  0
   60.9056   27.8105   44.3064 H   0  0  0  0  0  0  0  0  0  0  0  0
   60.0152   29.3417   43.9762 H   0  0  0  0  0  0  0  0  0  0  0  0
   61.5150   30.5566   45.5748 H   0  0  0  0  0  0  0  0  0  0  0  0
   61.7934   31.2374   47.9634 H   0  0  0  0  0  0  0  0  0  0  0  0
   60.6401   29.9604   49.7707 H   0  0  0  0  0  0  0  0  0  0  0  0
   59.2243   27.9841   49.2007 H   0  0  0  0  0  0  0  0  0  0  0  0
   58.9438   27.2998   46.8194 H   0  0  0  0  0  0  0  0  0  0  0  0
   57.6602   30.5042   46.1937 H   0  0  0  0  0  0  0  0  0  0  0  0
   58.6686   31.7878   48.0627 H   0  0  0  0  0  0  0  0  0  0  0  0
   61.4085   33.6033   46.2162 H   0  0  0  0  0  0  0  0  0  0  0  0
   63.7738   32.8104   46.2717 H   0  0  0  0  0  0  0  0  0  0  0  0
   65.0187   32.7472   48.4311 H   0  0  0  0  0  0  0  0  0  0  0  0
   63.8916   33.4300   50.5481 H   0  0  0  0  0  0  0  0  0  0  0  0
   61.9789   32.6258   51.8890 H   0  0  0  0  0  0  0  0  0  0  0  0
   61.2656   33.9792   52.8098 H   0  0  0  0  0  0  0  0  0  0  0  0
   58.7857   34.3911   52.7180 H   0  0  0  0  0  0  0  0  0  0  0  0
   56.6000   33.2053   52.8311 H   0  0  0  0  0  0  0  0  0  0  0  0
   55.3156   30.3798   54.9345 H   0  0  0  0  0  0  0  0  0  0  0  0
   54.0709   30.4790   53.6289 H   0  0  0  0  0  0  0  0  0  0  0  0
   54.1993   28.5295   55.6105 H   0  0  0  0  0  0  0  0  0  0  0  0
   53.3143   28.4152   54.0112 H   0  0  0  0  0  0  0  0  0  0  0  0
   56.6112   28.0933   55.3067 H   0  0  0  0  0  0  0  0  0  0  0  0
   57.0090   26.7094   54.2361 H   0  0  0  0  0  0  0  0  0  0  0  0
   57.8690   29.0723   53.5426 H   0  0  0  0  0  0  0  0  0  0  0  0
   57.0512   28.0774   52.2900 H   0  0  0  0  0  0  0  0  0  0  0  0
   58.3774   29.7393   50.9512 H   0  0  0  0  0  0  0  0  0  0  0  0
   60.5744   30.9152   50.8428 H   0  0  0  0  0  0  0  0  0  0  0  0
  1  2  1  0
  2  3  2  0
  3  4  1  0
  4  5  1  0
  5  6  2  3
  6  7  1  0
  7  8  2  0
  7  9  1  0
  9 10  1  0
 10 11  2  0
 10 12  2  0
 10 13  1  0
 13 14  1  0
 14 15  2  0
 15 16  1  0
 16 17  2  0
 17 18  1  0
 18 19  2  0
  4 20  2  0
 20 21  1  0
 21 22  2  0
 22 23  1  0
 23 24  1  0
 24 25  2  0
 25 26  1  0
 26 27  2  0
 27 28  1  0
 28 29  2  0
 29 30  1  0
 30 31  1  0
 31 32  1  0
 32 33  2  0
 33 34  1  0
 34 35  2  0
 35 36  1  0
 36 37  2  0
 36 38  1  0
 38 39  1  0
 39 40  1  0
 40 41  1  0
 41 42  1  0
 42 43  1  0
 35 44  1  0
 44 45  2  0
 22  2  1  0
 29 24  1  0
 45 32  1  0
 19 14  1  0
 43 38  1  0
  1 46  1  0
  1 47  1  0
  1 48  1  0
  3 49  1  0
  5 50  1  0
  6 51  1  0
 13 52  1  0
 13 53  1  0
 15 54  1  0
 16 55  1  0
 17 56  1  0
 18 57  1  0
 19 58  1  0
 20 59  1  0
 21 60  1  0
 25 61  1  0
 26 62  1  0
 27 63  1  0
 28 64  1  0
 31 65  1  0
 31 66  1  0
 33 67  1  0
 34 68  1  0
 39 69  1  0
 39 70  1  0
 40 71  1  0
 40 72  1  0
 42 73  1  0
 42 74  1  0
 43 75  1  0
 43 76  1  0
 44 77  1  0
 45 78  1  0
M  CHG  1   9  -1
M  END
>  <UniqueID>  (84) 
74

>  <SMILES>  (84) 
Cc1cc(C=CC(=O)[N-]S(=O)(=O)Cc2ccccc2)ccc1Sc1ccccc1OCc1ccc(C(=O)N2CCOCC2)cc1

>  <Energy>  (84) 
115.1997608582591

>  <Genealogy>  (84) 
Cc1cc(C=CC(=O)[N-]S(=O)(=O)Cc2ccccc2)ccc1Sc1ccccc1OCc1ccc(C(=O)N2CCOCC2)cc1 (protonated)
Cc1cc(C=CC(=O)[N-]S(=O)(=O)Cc2ccccc2)ccc1Sc1ccccc1OCc1ccc(C(=O)N2CCOCC2)cc1 (3D coordinates assigned)
Cc1cc(C=CC(=O)[N-]S(=O)(=O)Cc2ccccc2)ccc1Sc1ccccc1OCc1ccc(C(=O)N2CCOCC2)cc1 (nonaromatic ring conformer: 115.1997608582591 kcal/mol)

>  <smiles>  (84) 
Cc1cc(C=CC(=O)NS(=O)(=O)Cc2ccccc2)ccc1Sc1ccccc1OCc1ccc(C(=O)N2CCOCC2)cc1

>  <score_type>  (84) 
oracle

>  <origin>  (84) 
adg

>  <m_score__min__energy>  (84) 
-14.449999999999999

>  <m_primary>  (84) 
energy

$$$$
84:0
     RDKit          3D

 56 60  0  0  0  0  0  0  0  0999 V2000
   59.0960   34.6840   46.3870 C   0  0  0  0  0  0  0  0  0  0  0  0
   59.5250   33.6180   45.5470 O   0  0  0  0  0  0  0  0  0  0  0  0
   59.1320   32.2780   45.6950 C   0  0  0  0  0  0  0  0  0  0  0  0
   57.9370   31.7880   45.1370 C   0  0  0  0  0  0  0  0  0  0  0  0
   57.5700   30.4520   45.3070 C   0  0  0  0  0  0  0  0  0  0  0  0
   58.3880   29.5750   46.0390 C   0  0  0  0  0  0  0  0  0  0  0  0
   58.0050   28.1560   46.2290 C   0  0  0  0  0  0  0  0  0  0  0  0
   56.7590   27.6820   45.9580 N   0  0  0  0  0  0  0  0  0  0  0  0
   56.6750   26.3530   46.2190 C   0  0  0  0  0  0  0  0  0  0  0  0
   55.5480   25.5550   46.0510 C   0  0  0  0  0  0  0  0  0  0  0  0
   54.4670   26.0380   45.6250 O   0  0  0  0  0  0  0  0  0  0  0  0
   55.6340   24.2280   46.3610 N   0  0  0  0  0  0  0  0  0  0  0  0
   56.7980   23.6800   46.8270 C   0  0  0  0  0  0  0  0  0  0  0  0
   56.8590   22.0890   47.1860 S   0  0  0  0  0  0  0  0  0  0  0  0
   57.9090   24.4550   46.9930 N   0  0  0  0  0  0  0  0  0  0  0  0
   57.8300   25.7730   46.6880 C   0  0  0  0  0  0  0  0  0  0  0  0
   59.0380   26.9260   46.8020 S   0  0  0  0  0  0  0  0  0  0  0  0
   59.5820   30.0630   46.5960 C   0  0  0  0  0  0  0  0  0  0  0  0
   59.9570   31.4050   46.4260 C   0  0  0  0  0  0  0  0  0  0  0  0
   61.4540   32.0010   47.1500 S   0  0  0  0  0  0  0  0  0  0  0  0
   61.7600   33.3550   46.5720 O   0  0  0  0  0  0  0  0  0  0  0  0
   62.5930   31.0710   46.8360 O   0  0  0  0  0  0  0  0  0  0  0  0
   61.2620   32.1300   48.8830 N   0  0  0  0  0  0  0  0  0  0  0  0
   61.4160   33.5390   49.3050 C   0  0  0  0  0  0  0  0  0  0  0  0
   60.7590   33.7780   50.6670 C   0  0  0  0  0  0  0  0  0  0  0  0
   59.2990   33.5520   50.5880 N   0  0  0  0  0  0  0  0  0  0  0  0
   58.6390   33.4410   51.9090 C   0  0  0  0  0  0  0  0  0  0  0  0
   57.9880   32.0940   52.1610 C   0  0  0  0  0  0  0  0  0  0  0  0
   56.5940   31.9420   52.0610 C   0  0  0  0  0  0  0  0  0  0  0  0
   56.0010   30.6960   52.2930 C   0  0  0  0  0  0  0  0  0  0  0  0
   56.7900   29.5980   52.6440 C   0  0  0  0  0  0  0  0  0  0  0  0
   58.1730   29.7450   52.7720 C   0  0  0  0  0  0  0  0  0  0  0  0
   58.7700   30.9880   52.5400 C   0  0  0  0  0  0  0  0  0  0  0  0
   58.8840   32.5300   49.5990 C   0  0  0  0  0  0  0  0  0  0  0  0
   59.9950   31.5000   49.3280 C   0  0  0  0  0  0  0  0  0  0  0  0
   59.2140   34.3908   47.4406 H   0  0  0  0  0  0  0  0  0  0  0  0
   59.7044   35.5778   46.1848 H   0  0  0  0  0  0  0  0  0  0  0  0
   58.0380   34.9072   46.1848 H   0  0  0  0  0  0  0  0  0  0  0  0
   57.2865   32.4634   44.5620 H   0  0  0  0  0  0  0  0  0  0  0  0
   56.6330   30.0829   44.8644 H   0  0  0  0  0  0  0  0  0  0  0  0
   60.2302   29.3859   47.1717 H   0  0  0  0  0  0  0  0  0  0  0  0
   62.4873   33.7786   49.3753 H   0  0  0  0  0  0  0  0  0  0  0  0
   60.9253   34.1836   48.5609 H   0  0  0  0  0  0  0  0  0  0  0  0
   61.1926   33.0859   51.4039 H   0  0  0  0  0  0  0  0  0  0  0  0
   60.9406   34.8196   50.9703 H   0  0  0  0  0  0  0  0  0  0  0  0
   59.3955   33.6112   52.6893 H   0  0  0  0  0  0  0  0  0  0  0  0
   57.8354   34.1919   51.9280 H   0  0  0  0  0  0  0  0  0  0  0  0
   55.9665   32.8066   51.7991 H   0  0  0  0  0  0  0  0  0  0  0  0
   54.9111   30.5809   52.1988 H   0  0  0  0  0  0  0  0  0  0  0  0
   56.3223   28.6180   52.8195 H   0  0  0  0  0  0  0  0  0  0  0  0
   58.7933   28.8820   53.0556 H   0  0  0  0  0  0  0  0  0  0  0  0
   59.8581   31.1016   52.6546 H   0  0  0  0  0  0  0  0  0  0  0  0
   57.9985   32.0031   49.9840 H   0  0  0  0  0  0  0  0  0  0  0  0
   58.6625   33.0454   48.6528 H   0  0  0  0  0  0  0  0  0  0  0  0
   60.1874   30.9378   50.2537 H   0  0  0  0  0  0  0  0  0  0  0  0
   59.6481   30.8418   48.5177 H   0  0  0  0  0  0  0  0  0  0  0  0
  1  2  1  0
  2  3  1  0
  3  4  2  0
  4  5  1  0
  5  6  2  0
  6  7  1  0
  7  8  2  0
  8  9  1  0
  9 10  1  0
 10 11  2  0
 10 12  1  0
 12 13  1  0
 13 14  2  0
 13 15  1  0
 15 16  1  0
 16 17  1  0
  6 18  1  0
 18 19  2  0
 19 20  1  0
 20 21  2  0
 20 22  2  0
 20 23  1  0
 23 24  1  0
 24 25  1  0
 25 26  1  0
 26 27  1  0
 27 28  1  0
 28 29  2  0
 29 30  1  0
 30 31  2  0
 31 32  1  0
 32 33  2  0
 26 34  1  0
 34 35  1  0
 19  3  1  0
 35 23  1  0
 17  7  1  0
 33 28  1  0
 16  9  2  0
  1 36  1  0
  1 37  1  0
  1 38  1  0
  4 39  1  0
  5 40  1  0
 18 41  1  0
 24 42  1  0
 24 43  1  0
 25 44  1  0
 25 45  1  0
 27 46  1  0
 27 47  1  0
 29 48  1  0
 30 49  1  0
 31 50  1  0
 32 51  1  0
 33 52  1  0
 34 53  1  0
 34 54  1  0
 35 55  1  0
 35 56  1  0
M  CHG  2  12  -1  15  -1
M  END
>  <UniqueID>  (85) 
75

>  <SMILES>  (85) 
COc1ccc(-c2nc3c(=O)[n-]c(=S)[n-]c3s2)cc1S(=O)(=O)N1CCN(Cc2ccccc2)CC1

>  <Energy>  (85) 
113.32694725542534

>  <Genealogy>  (85) 
COc1ccc(-c2nc3c(=O)[n-]c(=S)[n-]c3s2)cc1S(=O)(=O)N1CCN(Cc2ccccc2)CC1 (protonated)
COc1ccc(-c2nc3c(=O)[n-]c(=S)[n-]c3s2)cc1S(=O)(=O)N1CCN(Cc2ccccc2)CC1 (3D coordinates assigned)
COc1ccc(-c2nc3c(=O)[n-]c(=S)[n-]c3s2)cc1S(=O)(=O)N1CCN(Cc2ccccc2)CC1 (nonaromatic ring conformer: 113.32694725542534 kcal/mol)

>  <smiles>  (85) 
COc1ccc(-c2nc3c(=O)[nH]c(=S)[nH]c3s2)cc1S(=O)(=O)N1CCN(Cc2ccccc2)CC1

>  <score_type>  (85) 
oracle

>  <origin>  (85) 
adg

>  <m_score__min__energy>  (85) 
-12.93

>  <m_primary>  (85) 
energy

$$$$
85:0
     RDKit          3D

 55 57  0  0  0  0  0  0  0  0999 V2000
   58.8370   32.2350   50.5560 C   0  0  0  0  0  0  0  0  0  0  0  0
   59.5370   33.5600   50.8390 C   0  0  0  0  0  0  0  0  0  0  0  0
   59.9100   34.2080   49.6230 O   0  0  0  0  0  0  0  0  0  0  0  0
   61.0820   33.9720   48.8850 C   0  0  0  0  0  0  0  0  0  0  0  0
   62.3580   33.9430   49.4870 C   0  0  0  0  0  0  0  0  0  0  0  0
   63.4950   33.6730   48.7230 C   0  0  0  0  0  0  0  0  0  0  0  0
   63.3780   33.4370   47.3540 C   0  0  0  0  0  0  0  0  0  0  0  0
   62.1240   33.4780   46.7420 C   0  0  0  0  0  0  0  0  0  0  0  0
   60.9730   33.7480   47.4970 C   0  0  0  0  0  0  0  0  0  0  0  0
   59.6960   33.8160   46.8380 N   0  0  0  0  0  0  0  0  0  0  0  0
   58.5860   32.9670   47.2900 C   0  0  0  0  0  0  0  0  0  0  0  0
   57.9150   32.2360   46.1040 C   0  0  0  0  0  0  0  0  0  0  0  0
   58.2990   32.7970   44.7890 N   0  0  0  0  0  0  0  0  0  0  0  0
   57.4030   32.3070   43.7190 C   0  0  0  0  0  0  0  0  0  0  0  0
   56.8400   30.9200   44.0710 C   0  0  0  0  0  0  0  0  0  0  0  0
   57.9160   29.8250   44.0530 C   0  0  0  0  0  0  0  0  0  0  0  0
   57.8560   29.0130   45.2680 N   0  0  0  0  0  0  0  0  0  0  0  0
   58.9410   28.1720   45.6840 C   0  0  0  0  0  0  0  0  0  0  0  0
   60.0660   28.2620   45.1200 O   0  0  0  0  0  0  0  0  0  0  0  0
   58.7580   27.2010   46.8120 C   0  0  0  0  0  0  0  0  0  0  0  0
   57.4750   26.4480   46.6470 C   0  0  0  0  0  0  0  0  0  0  0  0
   57.2540   25.1390   47.0100 C   0  0  0  0  0  0  0  0  0  0  0  0
   56.0030   24.7910   46.6600 N   0  0  0  0  0  0  0  0  0  0  0  0
   55.5150   25.9110   46.0870 C   0  0  0  0  0  0  0  0  0  0  0  0
   54.3480   25.9820   45.6200 O   0  0  0  0  0  0  0  0  0  0  0  0
   56.3800   26.9480   46.0490 N   0  0  0  0  0  0  0  0  0  0  0  0
   58.3200   34.2710   44.8410 C   0  0  0  0  0  0  0  0  0  0  0  0
   59.5080   34.7180   45.6950 C   0  0  0  0  0  0  0  0  0  0  0  0
   58.5788   31.7463   51.5070 H   0  0  0  0  0  0  0  0  0  0  0  0
   57.9195   32.4210   49.9784 H   0  0  0  0  0  0  0  0  0  0  0  0
   59.5078   31.5820   49.9784 H   0  0  0  0  0  0  0  0  0  0  0  0
   58.8553   34.2147   51.4017 H   0  0  0  0  0  0  0  0  0  0  0  0
   60.4466   33.3594   51.4241 H   0  0  0  0  0  0  0  0  0  0  0  0
   62.4575   34.1344   50.5656 H   0  0  0  0  0  0  0  0  0  0  0  0
   64.4848   33.6464   49.2021 H   0  0  0  0  0  0  0  0  0  0  0  0
   64.2746   33.2183   46.7555 H   0  0  0  0  0  0  0  0  0  0  0  0
   62.0379   33.2974   45.6604 H   0  0  0  0  0  0  0  0  0  0  0  0
   58.9727   32.2196   47.9984 H   0  0  0  0  0  0  0  0  0  0  0  0
   57.8334   33.6087   47.7714 H   0  0  0  0  0  0  0  0  0  0  0  0
   58.2094   31.1765   46.1330 H   0  0  0  0  0  0  0  0  0  0  0  0
   56.8276   32.3621   46.2115 H   0  0  0  0  0  0  0  0  0  0  0  0
   56.5693   33.0138   43.5949 H   0  0  0  0  0  0  0  0  0  0  0  0
   57.9793   32.2271   42.7855 H   0  0  0  0  0  0  0  0  0  0  0  0
   56.3986   30.9639   45.0776 H   0  0  0  0  0  0  0  0  0  0  0  0
   56.0888   30.6620   43.3099 H   0  0  0  0  0  0  0  0  0  0  0  0
   57.7556   29.1770   43.1787 H   0  0  0  0  0  0  0  0  0  0  0  0
   58.9044   30.3049   44.0000 H   0  0  0  0  0  0  0  0  0  0  0  0
   56.9870   29.0530   45.8490 H   0  0  0  0  0  0  0  0  0  0  0  0
   59.5975   26.4902   46.8186 H   0  0  0  0  0  0  0  0  0  0  0  0
   58.7269   27.7568   47.7607 H   0  0  0  0  0  0  0  0  0  0  0  0
   57.9836   24.4826   47.5068 H   0  0  0  0  0  0  0  0  0  0  0  0
   58.4236   34.6753   43.8232 H   0  0  0  0  0  0  0  0  0  0  0  0
   57.3829   34.6426   45.2812 H   0  0  0  0  0  0  0  0  0  0  0  0
   60.4184   34.7127   45.0776 H   0  0  0  0  0  0  0  0  0  0  0  0
   59.3088   35.7313   46.0740 H   0  0  0  0  0  0  0  0  0  0  0  0
  1  2  1  0
  2  3  1  0
  3  4  1  0
  4  5  2  0
  5  6  1  0
  6  7  2  0
  7  8  1  0
  8  9  2  0
  9 10  1  0
 10 11  1  0
 11 12  1  0
 12 13  1  0
 13 14  1  0
 14 15  1  0
 15 16  1  0
 16 17  1  0
 17 18  1  0
 18 19  2  0
 18 20  1  0
 20 21  1  0
 21 22  2  0
 22 23  1  0
 23 24  1  0
 24 25  2  0
 24 26  1  0
 13 27  1  0
 27 28  1  0
  9  4  1  0
 28 10  1  0
 26 21  1  0
  1 29  1  0
  1 30  1  0
  1 31  1  0
  2 32  1  0
  2 33  1  0
  5 34  1  0
  6 35  1  0
  7 36  1  0
  8 37  1  0
 11 38  1  0
 11 39  1  0
 12 40  1  0
 12 41  1  0
 14 42  1  0
 14 43  1  0
 15 44  1  0
 15 45  1  0
 16 46  1  0
 16 47  1  0
 17 48  1  0
 20 49  1  0
 20 50  1  0
 22 51  1  0
 27 52  1  0
 27 53  1  0
 28 54  1  0
 28 55  1  0
M  CHG  2  23  -1  26  -1
M  END
>  <UniqueID>  (86) 
76

>  <SMILES>  (86) 
CCOc1ccccc1N1CCN(CCCNC(=O)Cc2c[n-]c(=O)[n-]2)CC1

>  <Energy>  (86) 
85.29925380016174

>  <Genealogy>  (86) 
CCOc1ccccc1N1CCN(CCCNC(=O)Cc2c[n-]c(=O)[n-]2)CC1 (protonated)
CCOc1ccccc1N1CCN(CCCNC(=O)Cc2c[n-]c(=O)[n-]2)CC1 (3D coordinates assigned)
CCOc1ccccc1N1CCN(CCCNC(=O)Cc2c[n-]c(=O)[n-]2)CC1 (nonaromatic ring conformer: 85.29925380016174 kcal/mol)

>  <smiles>  (86) 
CCOc1ccccc1N1CCN(CCCNC(=O)Cc2c[nH]c(=O)[nH]2)CC1

>  <score_type>  (86) 
oracle

>  <origin>  (86) 
adg

>  <m_score__min__energy>  (86) 
-13.27

>  <m_primary>  (86) 
energy

$$$$
86:0
     RDKit          3D

 41 44  0  0  0  0  0  0  0  0999 V2000
   58.7530   28.5260   47.1040 C   0  0  0  0  0  0  0  0  0  0  0  0
   58.3550   28.8440   45.8630 C   0  0  0  0  0  0  0  0  0  0  0  0
   57.8450   27.9750   44.8830 C   0  0  0  0  0  0  0  0  0  0  0  0
   57.7820   26.6310   44.8370 C   0  0  0  0  0  0  0  0  0  0  0  0
   57.2280   25.7610   45.8860 C   0  0  0  0  0  0  0  0  0  0  0  0
   57.8600   24.6940   46.4120 N   0  0  0  0  0  0  0  0  0  0  0  0
   56.9220   24.1370   47.2080 C   0  0  0  0  0  0  0  0  0  0  0  0
   57.1440   23.1080   47.8970 O   0  0  0  0  0  0  0  0  0  0  0  0
   55.7270   24.7640   47.2000 N   0  0  0  0  0  0  0  0  0  0  0  0
   55.9340   25.7800   46.3470 C   0  0  0  0  0  0  0  0  0  0  0  0
   54.9580   26.7020   45.9900 O   0  0  0  0  0  0  0  0  0  0  0  0
   57.3940   28.7800   43.8490 C   0  0  0  0  0  0  0  0  0  0  0  0
   57.6890   30.0820   44.1950 C   0  0  0  0  0  0  0  0  0  0  0  0
   57.4070   31.2800   43.3410 C   0  0  0  0  0  0  0  0  0  0  0  0
   58.2820   30.1230   45.4090 N   0  0  0  0  0  0  0  0  0  0  0  0
   58.6730   31.3200   46.1010 C   0  0  0  0  0  0  0  0  0  0  0  0
   57.7420   32.3450   46.3200 C   0  0  0  0  0  0  0  0  0  0  0  0
   58.1310   33.5170   46.9730 C   0  0  0  0  0  0  0  0  0  0  0  0
   59.4500   33.6770   47.4030 C   0  0  0  0  0  0  0  0  0  0  0  0
   60.3990   32.6620   47.1850 C   0  0  0  0  0  0  0  0  0  0  0  0
   61.8030   32.8310   47.6390 C   0  0  0  0  0  0  0  0  0  0  0  0
   62.6580   33.7530   47.0160 C   0  0  0  0  0  0  0  0  0  0  0  0
   63.9380   33.8890   47.4490 N   0  0  0  0  0  0  0  0  0  0  0  0
   64.4120   33.1650   48.4650 N   0  0  0  0  0  0  0  0  0  0  0  0
   63.6340   32.2580   49.1100 C   0  0  0  0  0  0  0  0  0  0  0  0
   64.1070   31.5920   50.0670 O   0  0  0  0  0  0  0  0  0  0  0  0
   62.3120   32.0740   48.7050 C   0  0  0  0  0  0  0  0  0  0  0  0
   59.9990   31.4830   46.5290 C   0  0  0  0  0  0  0  0  0  0  0  0
   59.1354   29.3082   47.7763 H   0  0  0  0  0  0  0  0  0  0  0  0
   58.6970   27.4831   47.4493 H   0  0  0  0  0  0  0  0  0  0  0  0
   58.1795   26.1405   43.9363 H   0  0  0  0  0  0  0  0  0  0  0  0
   56.8956   28.4443   42.9276 H   0  0  0  0  0  0  0  0  0  0  0  0
   57.2025   32.1487   43.9840 H   0  0  0  0  0  0  0  0  0  0  0  0
   58.2800   31.4913   42.7059 H   0  0  0  0  0  0  0  0  0  0  0  0
   56.5315   31.0797   42.7059 H   0  0  0  0  0  0  0  0  0  0  0  0
   56.7036   32.2262   45.9771 H   0  0  0  0  0  0  0  0  0  0  0  0
   57.3961   34.3163   47.1491 H   0  0  0  0  0  0  0  0  0  0  0  0
   59.7488   34.6032   47.9157 H   0  0  0  0  0  0  0  0  0  0  0  0
   62.2920   34.3646   46.1782 H   0  0  0  0  0  0  0  0  0  0  0  0
   61.6728   31.3403   49.2179 H   0  0  0  0  0  0  0  0  0  0  0  0
   60.7321   30.6826   46.3503 H   0  0  0  0  0  0  0  0  0  0  0  0
  1  2  2  0
  2  3  1  0
  3  4  2  3
  4  5  1  0
  5  6  1  0
  6  7  1  0
  7  8  2  0
  7  9  1  0
  9 10  1  0
 10 11  1  0
  3 12  1  0
 12 13  2  0
 13 14  1  0
 13 15  1  0
 15 16  1  0
 16 17  2  0
 17 18  1  0
 18 19  2  0
 19 20  1  0
 20 21  1  0
 21 22  1  0
 22 23  2  0
 23 24  1  0
 24 25  1  0
 25 26  2  0
 25 27  1  0
 20 28  2  0
 15  2  1  0
 28 16  1  0
 10  5  2  0
 27 21  2  0
  1 29  1  0
  1 30  1  0
  4 31  1  0
 12 32  1  0
 14 33  1  0
 14 34  1  0
 14 35  1  0
 17 36  1  0
 18 37  1  0
 19 38  1  0
 22 39  1  0
 27 40  1  0
 28 41  1  0
M  CHG  4   6  -1   9  -1  11  -1  24  -1
M  END
>  <UniqueID>  (87) 
77

>  <SMILES>  (87) 
C=c1c(=Cc2[n-]c(=O)[n-]c2[O-])cc(C)n1-c1cccc(-c2cn[n-]c(=O)c2)c1

>  <Energy>  (87) 
127.3823744495145

>  <Genealogy>  (87) 
C=c1c(=Cc2[n-]c(=O)[n-]c2[O-])cc(C)n1-c1cccc(-c2cn[n-]c(=O)c2)c1 (protonated)
C=c1c(=Cc2[n-]c(=O)[n-]c2[O-])cc(C)n1-c1cccc(-c2cn[n-]c(=O)c2)c1 (3D coordinates assigned)
C=c1c(=Cc2[n-]c(=O)[n-]c2[O-])cc(C)n1-c1cccc(-c2cn[n-]c(=O)c2)c1 (optimized conformer: 127.3823744495145 kcal/mol)

>  <smiles>  (87) 
C=c1c(=Cc2[nH]c(=O)[nH]c2O)cc(C)n1-c1cccc(-c2cn[nH]c(=O)c2)c1

>  <score_type>  (87) 
oracle

>  <origin>  (87) 
adg

>  <m_score__min__energy>  (87) 
-17.379999999999999

>  <m_primary>  (87) 
energy

$$$$
87:0
     RDKit          3D

 72 76  0  0  0  0  0  0  0  0999 V2000
   59.5240   32.6340   53.8340 C   0  0  0  0  0  0  0  0  0  0  0  0
   60.0190   32.9850   52.4500 C   0  0  0  0  0  0  0  0  0  0  0  0
   61.3290   33.4740   52.3180 C   0  0  0  0  0  0  0  0  0  0  0  0
   61.8190   33.8180   51.0640 C   0  0  0  0  0  0  0  0  0  0  0  0
   61.0030   33.6920   49.9430 C   0  0  0  0  0  0  0  0  0  0  0  0
   61.5160   34.0380   48.6550 N   0  0  0  0  0  0  0  0  0  0  0  0
   62.7430   33.0770   47.9010 S   0  0  0  0  0  0  0  0  0  0  0  0
   62.0880   31.9880   47.0980 O   0  0  0  0  0  0  0  0  0  0  0  0
   63.5550   33.9360   46.9710 O   0  0  0  0  0  0  0  0  0  0  0  0
   63.7850   32.3570   49.1250 C   0  0  0  0  0  0  0  0  0  0  0  0
   65.0350   32.9280   49.4080 C   0  0  0  0  0  0  0  0  0  0  0  0
   65.8380   32.3900   50.4180 C   0  0  0  0  0  0  0  0  0  0  0  0
   65.3970   31.2820   51.1500 C   0  0  0  0  0  0  0  0  0  0  0  0
   64.1520   30.7120   50.8730 C   0  0  0  0  0  0  0  0  0  0  0  0
   63.3440   31.2480   49.8650 C   0  0  0  0  0  0  0  0  0  0  0  0
   59.6900   33.2230   50.0940 C   0  0  0  0  0  0  0  0  0  0  0  0
   58.9360   33.1780   49.0790 O   0  0  0  0  0  0  0  0  0  0  0  0
   59.2240   32.8290   51.3300 N   0  0  0  0  0  0  0  0  0  0  0  0
   57.8500   32.2890   51.4410 C   0  0  0  0  0  0  0  0  0  0  0  0
   57.7810   30.8850   50.9200 C   0  0  0  0  0  0  0  0  0  0  0  0
   57.1860   30.0060   51.5980 O   0  0  0  0  0  0  0  0  0  0  0  0
   58.4590   30.5400   49.7060 N   0  0  0  0  0  0  0  0  0  0  0  0
   59.1240   29.3050   49.4090 C   0  0  0  0  0  0  0  0  0  0  0  0
   60.0860   28.8340   50.3110 C   0  0  0  0  0  0  0  0  0  0  0  0
   60.7900   27.6570   50.0430 C   0  0  0  0  0  0  0  0  0  0  0  0
   60.5540   26.9520   48.8610 C   0  0  0  0  0  0  0  0  0  0  0  0
   59.6210   27.4310   47.9300 C   0  0  0  0  0  0  0  0  0  0  0  0
   59.3310   26.5450   46.4320 S   0  0  0  0  0  0  0  0  0  0  0  0
   58.0340   25.7960   46.5570 O   0  0  0  0  0  0  0  0  0  0  0  0
   60.4290   25.5280   46.2610 O   0  0  0  0  0  0  0  0  0  0  0  0
   59.2890   27.5610   45.0050 N   0  0  0  0  0  0  0  0  0  0  0  0
   60.4150   28.5080   44.9030 C   0  0  0  0  0  0  0  0  0  0  0  0
   60.1640   29.8460   45.6210 C   0  0  0  0  0  0  0  0  0  0  0  0
   58.8300   30.3610   45.3150 N   0  0  0  0  0  0  0  0  0  0  0  0
   58.6090   31.7830   45.3240 C   0  0  0  0  0  0  0  0  0  0  0  0
   59.3770   32.6240   46.1510 C   0  0  0  0  0  0  0  0  0  0  0  0
   59.1460   34.0040   46.1620 C   0  0  0  0  0  0  0  0  0  0  0  0
   58.1500   34.5530   45.3470 C   0  0  0  0  0  0  0  0  0  0  0  0
   57.3780   33.7230   44.5280 C   0  0  0  0  0  0  0  0  0  0  0  0
   57.6080   32.3440   44.5140 C   0  0  0  0  0  0  0  0  0  0  0  0
   57.6970   29.4460   45.4560 C   0  0  0  0  0  0  0  0  0  0  0  0
   57.9690   28.1450   44.6970 C   0  0  0  0  0  0  0  0  0  0  0  0
   58.8960   28.5970   48.2130 C   0  0  0  0  0  0  0  0  0  0  0  0
   60.1787   33.0982   54.5862 H   0  0  0  0  0  0  0  0  0  0  0  0
   58.4970   33.0068   53.9616 H   0  0  0  0  0  0  0  0  0  0  0  0
   59.5360   31.5415   53.9616 H   0  0  0  0  0  0  0  0  0  0  0  0
   61.9670   33.5847   53.2072 H   0  0  0  0  0  0  0  0  0  0  0  0
   62.8491   34.1889   50.9573 H   0  0  0  0  0  0  0  0  0  0  0  0
   65.3834   33.7997   48.8347 H   0  0  0  0  0  0  0  0  0  0  0  0
   66.8181   32.8384   50.6376 H   0  0  0  0  0  0  0  0  0  0  0  0
   66.0308   30.8597   51.9437 H   0  0  0  0  0  0  0  0  0  0  0  0
   63.8067   29.8404   51.4484 H   0  0  0  0  0  0  0  0  0  0  0  0
   62.3621   30.8004   49.6517 H   0  0  0  0  0  0  0  0  0  0  0  0
   57.5450   32.2959   52.4979 H   0  0  0  0  0  0  0  0  0  0  0  0
   57.1763   32.9189   50.8415 H   0  0  0  0  0  0  0  0  0  0  0  0
   60.2887   29.3938   51.2360 H   0  0  0  0  0  0  0  0  0  0  0  0
   61.5319   27.2850   50.7649 H   0  0  0  0  0  0  0  0  0  0  0  0
   61.1010   26.0191   48.6597 H   0  0  0  0  0  0  0  0  0  0  0  0
   61.3055   28.0379   45.3456 H   0  0  0  0  0  0  0  0  0  0  0  0
   60.5482   28.7358   43.8351 H   0  0  0  0  0  0  0  0  0  0  0  0
   60.2507   29.6936   46.7069 H   0  0  0  0  0  0  0  0  0  0  0  0
   60.9103   30.5760   45.2743 H   0  0  0  0  0  0  0  0  0  0  0  0
   60.1618   32.1947   46.7911 H   0  0  0  0  0  0  0  0  0  0  0  0
   59.7474   34.6572   46.8113 H   0  0  0  0  0  0  0  0  0  0  0  0
   57.9740   35.6388   45.3505 H   0  0  0  0  0  0  0  0  0  0  0  0
   56.5894   34.1553   43.8945 H   0  0  0  0  0  0  0  0  0  0  0  0
   57.0017   31.6949   43.8651 H   0  0  0  0  0  0  0  0  0  0  0  0
   57.5435   29.2195   46.5214 H   0  0  0  0  0  0  0  0  0  0  0  0
   56.7974   29.9226   45.0394 H   0  0  0  0  0  0  0  0  0  0  0  0
   57.1916   27.4142   44.9647 H   0  0  0  0  0  0  0  0  0  0  0  0
   57.9577   28.3829   43.6231 H   0  0  0  0  0  0  0  0  0  0  0  0
   58.1447   28.9611   47.4968 H   0  0  0  0  0  0  0  0  0  0  0  0
  1  2  1  0
  2  3  2  0
  3  4  1  0
  4  5  2  0
  5  6  1  0
  6  7  1  0
  7  8  2  0
  7  9  2  0
  7 10  1  0
 10 11  2  0
 11 12  1  0
 12 13  2  0
 13 14  1  0
 14 15  2  0
  5 16  1  0
 16 17  2  0
 16 18  1  0
 18 19  1  0
 19 20  1  0
 20 21  2  0
 20 22  1  0
 22 23  1  0
 23 24  2  0
 24 25  1  0
 25 26  2  0
 26 27  1  0
 27 28  1  0
 28 29  2  0
 28 30  2  0
 28 31  1  0
 31 32  1  0
 32 33  1  0
 33 34  1  0
 34 35  1  0
 35 36  2  0
 36 37  1  0
 37 38  2  0
 38 39  1  0
 39 40  2  0
 34 41  1  0
 41 42  1  0
 27 43  2  0
 18  2  1  0
 43 23  1  0
 15 10  1  0
 42 31  1  0
 40 35  1  0
  1 44  1  0
  1 45  1  0
  1 46  1  0
  3 47  1  0
  4 48  1  0
 11 49  1  0
 12 50  1  0
 13 51  1  0
 14 52  1  0
 15 53  1  0
 19 54  1  0
 19 55  1  0
 24 56  1  0
 25 57  1  0
 26 58  1  0
 32 59  1  0
 32 60  1  0
 33 61  1  0
 33 62  1  0
 36 63  1  0
 37 64  1  0
 38 65  1  0
 39 66  1  0
 40 67  1  0
 41 68  1  0
 41 69  1  0
 42 70  1  0
 42 71  1  0
 43 72  1  0
M  CHG  2   6  -1  22  -1
M  END
>  <UniqueID>  (88) 
78

>  <SMILES>  (88) 
Cc1ccc([N-]S(=O)(=O)c2ccccc2)c(=O)n1CC(=O)[N-]c1cccc(S(=O)(=O)N2CCN(c3ccccc3)CC2)c1

>  <Energy>  (88) 
100.04299852819551

>  <Genealogy>  (88) 
Cc1ccc([N-]S(=O)(=O)c2ccccc2)c(=O)n1CC(=O)[N-]c1cccc(S(=O)(=O)N2CCN(c3ccccc3)CC2)c1 (protonated)
Cc1ccc([N-]S(=O)(=O)c2ccccc2)c(=O)n1CC(=O)[N-]c1cccc(S(=O)(=O)N2CCN(c3ccccc3)CC2)c1 (3D coordinates assigned)
Cc1ccc([N-]S(=O)(=O)c2ccccc2)c(=O)n1CC(=O)[N-]c1cccc(S(=O)(=O)N2CCN(c3ccccc3)CC2)c1 (nonaromatic ring conformer: 100.04299852819551 kcal/mol)

>  <smiles>  (88) 
Cc1ccc(NS(=O)(=O)c2ccccc2)c(=O)n1CC(=O)Nc1cccc(S(=O)(=O)N2CCN(c3ccccc3)CC2)c1

>  <score_type>  (88) 
oracle

>  <origin>  (88) 
adg

>  <m_score__min__energy>  (88) 
-15.34

>  <m_primary>  (88) 
energy

$$$$
88:0
     RDKit          3D

 60 62  0  0  0  0  0  0  0  0999 V2000
   56.0100   22.0460   41.6590 H   0  0  0  0  0  0  0  0  0  0  0  0
   55.9290   21.9280   42.6640 O   0  0  0  0  0  0  0  0  0  0  0  0
   56.4240   22.8790   43.5540 C   0  0  0  0  0  0  0  0  0  0  0  0
   56.9450   24.0780   43.0640 C   0  0  0  0  0  0  0  0  0  0  0  0
   56.9713   24.2611   41.9797 H   0  0  0  0  0  0  0  0  0  0  0  0
   57.4320   25.0440   43.9430 C   0  0  0  0  0  0  0  0  0  0  0  0
   57.8446   25.9822   43.5435 H   0  0  0  0  0  0  0  0  0  0  0  0
   57.4030   24.8350   45.3390 C   0  0  0  0  0  0  0  0  0  0  0  0
   57.9120   25.9410   46.2500 C   0  0  0  0  0  0  0  0  0  0  0  0
   57.4938   25.7926   47.2565 H   0  0  0  0  0  0  0  0  0  0  0  0
   59.0108   25.8907   46.2640 H   0  0  0  0  0  0  0  0  0  0  0  0
   57.5110   27.3220   45.7500 C   0  0  0  0  0  0  0  0  0  0  0  0
   56.1580   27.6730   45.6270 C   0  0  0  0  0  0  0  0  0  0  0  0
   55.1530   26.7500   45.8910 O   0  0  0  0  0  0  0  0  0  0  0  0
   55.8160   28.9220   45.2400 N   0  0  0  0  0  0  0  0  0  0  0  0
   56.7530   29.8650   44.9590 C   0  0  0  0  0  0  0  0  0  0  0  0
   56.3720   31.0190   44.6320 O   0  0  0  0  0  0  0  0  0  0  0  0
   58.0890   29.5560   45.0310 N   0  0  0  0  0  0  0  0  0  0  0  0
   59.1120   30.6080   44.8400 C   0  0  0  0  0  0  0  0  0  0  0  0
   60.0857   30.1378   44.6377 H   0  0  0  0  0  0  0  0  0  0  0  0
   58.8235   31.2445   43.9905 H   0  0  0  0  0  0  0  0  0  0  0  0
   59.2140   31.4550   46.0840 C   0  0  0  0  0  0  0  0  0  0  0  0
   59.7340   30.9140   47.2790 C   0  0  0  0  0  0  0  0  0  0  0  0
   60.1212   29.8845   47.2914 H   0  0  0  0  0  0  0  0  0  0  0  0
   59.7590   31.6820   48.4480 C   0  0  0  0  0  0  0  0  0  0  0  0
   60.1707   31.2574   49.3755 H   0  0  0  0  0  0  0  0  0  0  0  0
   59.2600   32.9920   48.4390 C   0  0  0  0  0  0  0  0  0  0  0  0
   59.2770   33.7500   49.6030 O   0  0  0  0  0  0  0  0  0  0  0  0
   58.7370   33.5330   47.2570 C   0  0  0  0  0  0  0  0  0  0  0  0
   58.3451   34.5608   47.2504 H   0  0  0  0  0  0  0  0  0  0  0  0
   58.7120   32.7690   46.0850 C   0  0  0  0  0  0  0  0  0  0  0  0
   58.2980   33.1978   45.1605 H   0  0  0  0  0  0  0  0  0  0  0  0
   58.4720   28.2850   45.3790 C   0  0  0  0  0  0  0  0  0  0  0  0
   59.6960   27.9690   45.3700 O   0  0  0  0  0  0  0  0  0  0  0  0
   56.8970   23.5980   45.8380 C   0  0  0  0  0  0  0  0  0  0  0  0
   56.9940   23.2060   47.2960 C   0  0  0  0  0  0  0  0  0  0  0  0
   56.7749   24.0792   47.9280 H   0  0  0  0  0  0  0  0  0  0  0  0
   58.0096   22.8459   47.5171 H   0  0  0  0  0  0  0  0  0  0  0  0
   55.9920   22.1120   47.5790 C   0  0  0  0  0  0  0  0  0  0  0  0
   55.6791   21.4830   46.7326 H   0  0  0  0  0  0  0  0  0  0  0  0
   55.4500   21.8430   48.7820 C   0  0  0  0  0  0  0  0  0  0  0  0
   55.9576   22.2585   49.6650 H   0  0  0  0  0  0  0  0  0  0  0  0
   54.2050   21.0200   49.0260 C   0  0  0  0  0  0  0  0  0  0  0  0
   54.4142   20.3233   49.8511 H   0  0  0  0  0  0  0  0  0  0  0  0
   53.9795   20.5187   48.0732 H   0  0  0  0  0  0  0  0  0  0  0  0
   52.9420   21.8290   49.3930 C   0  0  0  0  0  0  0  0  0  0  0  0
   53.2622   22.7276   49.9408 H   0  0  0  0  0  0  0  0  0  0  0  0
   52.3101   21.1509   49.9853 H   0  0  0  0  0  0  0  0  0  0  0  0
   52.0750   22.2830   48.2000 C   0  0  0  0  0  0  0  0  0  0  0  0
   51.9205   23.3689   48.2829 H   0  0  0  0  0  0  0  0  0  0  0  0
   51.1403   21.7060   48.2590 H   0  0  0  0  0  0  0  0  0  0  0  0
   52.6780   21.9900   46.8170 C   0  0  0  0  0  0  0  0  0  0  0  0
   52.2031   21.0843   46.4118 H   0  0  0  0  0  0  0  0  0  0  0  0
   53.7620   21.8592   46.9507 H   0  0  0  0  0  0  0  0  0  0  0  0
   52.4730   23.1350   45.8230 C   0  0  0  0  0  0  0  0  0  0  0  0
   52.3051   24.0726   46.3732 H   0  0  0  0  0  0  0  0  0  0  0  0
   53.3673   23.2361   45.1906 H   0  0  0  0  0  0  0  0  0  0  0  0
   51.5992   22.9195   45.1906 H   0  0  0  0  0  0  0  0  0  0  0  0
   56.4100   22.6390   44.9320 C   0  0  0  0  0  0  0  0  0  0  0  0
   56.0124   21.6865   45.3124 H   0  0  0  0  0  0  0  0  0  0  0  0
  1  2  1  0
  2  3  1  0
  3  4  2  0
  4  5  1  0
  4  6  1  0
  6  7  1  0
  6  8  2  0
  8  9  1  0
  9 10  1  0
  9 11  1  0
  9 12  1  0
 12 13  2  0
 13 14  1  0
 13 15  1  0
 15 16  1  0
 16 17  2  0
 16 18  1  0
 18 19  1  0
 19 20  1  0
 19 21  1  0
 19 22  1  0
 22 23  2  0
 23 24  1  0
 23 25  1  0
 25 26  1  0
 25 27  2  0
 27 28  1  0
 27 29  1  0
 29 30  1  0
 29 31  2  0
 31 32  1  0
 18 33  1  0
 33 34  2  0
  8 35  1  0
 35 36  1  0
 36 37  1  0
 36 38  1  0
 36 39  1  0
 39 40  1  0
 39 41  2  0
 41 42  1  0
 41 43  1  0
 43 44  1  0
 43 45  1  0
 43 46  1  0
 46 47  1  0
 46 48  1  0
 46 49  1  0
 49 50  1  0
 49 51  1  0
 49 52  1  0
 52 53  1  0
 52 54  1  0
 52 55  1  0
 55 56  1  0
 55 57  1  0
 55 58  1  0
 35 59  2  0
 59 60  1  0
 59  3  1  0
 33 12  1  0
 31 22  1  0
M  CHG  3  14  -1  15  -1  28  -1
M  END
>  <UniqueID>  (89) 
79

>  <SMILES>  (89) 
CCCCC/C=C\Cc1cc(O)ccc1Cc1c([O-])[n-]c(=O)n(Cc2ccc([O-])cc2)c1=O

>  <Energy>  (89) 
62.5693911332435

>  <Genealogy>  (89) 
CCCCCC=CCc1cc(O)ccc1Cc1c([O-])[n-]c(=O)n(Cc2ccc([O-])cc2)c1=O (protonated)
CCCCC/C=C\Cc1cc(O)ccc1Cc1c([O-])[n-]c(=O)n(Cc2ccc([O-])cc2)c1=O (cis-trans isomerization)
CCCCC/C=C\Cc1cc(O)ccc1Cc1c([O-])[n-]c(=O)n(Cc2ccc([O-])cc2)c1=O (3D coordinates assigned)
CCCCC/C=C\Cc1cc(O)ccc1Cc1c([O-])[n-]c(=O)n(Cc2ccc([O-])cc2)c1=O (optimized conformer: 62.5693911332435 kcal/mol)

>  <smiles>  (89) 
CCCCCC=CCc1cc(O)ccc1Cc1c(O)[nH]c(=O)n(Cc2ccc(O)cc2)c1=O

>  <score_type>  (89) 
oracle

>  <origin>  (89) 
adg

>  <m_score__min__energy>  (89) 
-14.59

>  <m_primary>  (89) 
energy

$$$$
